IFI.pdb
     RDKit          3D

 28 28  0  0  1  0  0  0  0  0999 V2000
   30.7157  -19.6016  -13.7341 C   0  0  0  0  0  0  0  0  0  0  0  0
   29.3323  -19.3362  -14.2252 C   0  0  0  0  0  0  0  0  0  0  0  0
   28.6567  -20.5172  -14.8761 C   0  0  2  0  0  0  0  0  0  0  0  0
   29.5634  -21.0342  -15.9586 C   0  0  0  0  0  0  0  0  0  0  0  0
   27.3081  -20.1106  -15.3593 C   0  0  2  0  0  0  0  0  0  0  0  0
   27.4478  -19.0584  -16.3375 N   0  0  0  0  0  0  0  0  0  0  0  0
   26.3896  -19.7209  -14.2543 C   0  0  0  0  0  0  0  0  0  0  0  0
   26.2035  -18.5070  -14.0585 O   0  0  0  0  0  0  0  0  0  0  0  0
   25.7357  -20.6511  -13.4377 N   0  0  0  0  0  0  0  0  0  0  0  0
   24.6932  -20.3501  -12.4924 C   0  0  1  0  0  0  0  0  0  0  0  0
   23.3681  -20.9421  -12.8294 C   0  0  0  0  0  0  0  0  0  0  0  0
   22.2615  -20.5788  -11.9694 C   0  0  0  0  0  0  0  0  0  0  0  0
   21.7480  -21.4612  -11.0499 C   0  0  0  0  0  0  0  0  0  0  0  0
   20.6959  -21.0807  -10.2483 C   0  0  0  0  0  0  0  0  0  0  0  0
   20.1236  -19.8223  -10.3323 C   0  0  0  0  0  0  0  0  0  0  0  0
   20.6433  -18.9452  -11.2551 C   0  0  0  0  0  0  0  0  0  0  0  0
   21.7076  -19.3187  -12.0717 C   0  0  0  0  0  0  0  0  0  0  0  0
   25.1223  -20.9649  -11.1849 C   0  0  0  0  0  0  0  0  0  0  0  0
   25.5808  -22.1377  -11.1859 O   0  0  0  0  0  0  0  0  0  0  0  0
   27.9912  -18.5327   -7.3017 C   0  0  0  0  0  0  0  0  0  0  0  0
   27.3722  -19.5800   -8.2145 C   0  0  0  0  0  0  0  0  0  0  0  0
   26.0039  -19.9909   -7.7315 C   0  0  2  0  0  0  0  0  0  0  0  0
   26.1103  -20.5171   -6.3255 C   0  0  0  0  0  0  0  0  0  0  0  0
   25.3107  -20.9216   -8.6641 C   0  0  2  0  0  0  0  0  0  0  0  0
   25.0322  -20.2828   -9.9607 N   0  0  0  0  0  0  0  0  0  0  0  0
   24.0541  -21.4849   -8.1449 C   0  0  0  0  0  0  0  0  0  0  0  0
   23.9921  -22.5068   -7.4239 O   0  0  0  0  0  0  0  0  0  0  0  0
   22.8527  -20.8711   -8.4548 O   0  0  0  0  0  0  0  0  0  0  0  0
  1  2  1  0
  3  5  1  0
  3  4  1  6
  3  2  1  0
  5  6  1  6
  7  8  2  0
  7  5  1  0
  9  7  1  0
 10  9  1  0
 11 12  1  0
 10 11  1  6
 12 13  2  0
 12 17  1  0
 13 14  1  0
 14 15  2  0
 16 15  1  0
 17 16  2  0
 18 19  2  0
 18 10  1  0
 20 21  1  0
 21 22  1  0
 22 24  1  0
 22 23  1  1
 24 26  1  0
 24 25  1  6
 25 18  1  0
 26 28  1  0
 27 26  2  0
M  END
$$$$
