IFI.pdb
     RDKit          3D

 28 28  0  0  1  0  0  0  0  0999 V2000
   14.0110  -11.4769  -16.3437 C   0  0  0  0  0  0  0  0  0  0  0  0
   15.4196  -10.9951  -16.2468 C   0  0  0  0  0  0  0  0  0  0  0  0
   15.8265  -10.5067  -14.8791 C   0  0  2  0  0  0  0  0  0  0  0  0
   14.8602   -9.4331  -14.4613 C   0  0  0  0  0  0  0  0  0  0  0  0
   17.2471  -10.0616  -14.9157 C   0  0  2  0  0  0  0  0  0  0  0  0
   18.0777  -11.1505  -15.3715 N   0  0  0  0  0  0  0  0  0  0  0  0
   17.7169   -9.5144  -13.6133 C   0  0  0  0  0  0  0  0  0  0  0  0
   17.9726  -10.3242  -12.7048 O   0  0  0  0  0  0  0  0  0  0  0  0
   17.8805   -8.1452  -13.3719 N   0  0  0  0  0  0  0  0  0  0  0  0
   18.3817   -7.5625  -12.1552 C   0  0  1  0  0  0  0  0  0  0  0  0
   19.6951   -6.8739  -12.2990 C   0  0  0  0  0  0  0  0  0  0  0  0
   20.8257   -7.7074  -12.6501 C   0  0  0  0  0  0  0  0  0  0  0  0
   21.3205   -7.7424  -13.9314 C   0  0  0  0  0  0  0  0  0  0  0  0
   22.3975   -8.5462  -14.2284 C   0  0  0  0  0  0  0  0  0  0  0  0
   23.0137   -9.3352  -13.2713 C   0  0  0  0  0  0  0  0  0  0  0  0
   22.5123   -9.2946  -11.9915 C   0  0  0  0  0  0  0  0  0  0  0  0
   21.4231   -8.4852  -11.6789 C   0  0  0  0  0  0  0  0  0  0  0  0
   17.3822   -6.5089  -11.7521 C   0  0  0  0  0  0  0  0  0  0  0  0
   16.9588   -5.7065  -12.6253 O   0  0  0  0  0  0  0  0  0  0  0  0
   14.2125   -7.4565   -7.2914 C   0  0  0  0  0  0  0  0  0  0  0  0
   14.6885   -7.0978   -8.6906 C   0  0  0  0  0  0  0  0  0  0  0  0
   15.2784   -5.7104   -8.7321 C   0  0  2  0  0  0  0  0  0  0  0  0
   14.2394   -4.7152   -8.2905 C   0  0  0  0  0  0  0  0  0  0  0  0
   15.8999   -5.3793  -10.0437 C   0  0  2  0  0  0  0  0  0  0  0  0
   16.9010   -6.3835  -10.4388 N   0  0  0  0  0  0  0  0  0  0  0  0
   16.5274   -4.0494  -10.1052 C   0  0  0  0  0  0  0  0  0  0  0  0
   15.9243   -3.0078  -10.4506 O   0  0  0  0  0  0  0  0  0  0  0  0
   17.8624   -3.9095   -9.7672 O   0  0  0  0  0  0  0  0  0  0  0  0
  1  2  1  0
  3  5  1  0
  3  4  1  6
  3  2  1  0
  5  6  1  1
  7  8  2  0
  7  5  1  0
  9  7  1  0
 10  9  1  0
 11 12  1  0
 10 11  1  6
 12 13  2  0
 12 17  1  0
 13 14  1  0
 14 15  2  0
 16 15  1  0
 17 16  2  0
 18 19  2  0
 18 10  1  0
 20 21  1  0
 21 22  1  0
 22 24  1  0
 22 23  1  6
 24 26  1  0
 24 25  1  1
 25 18  1  0
 26 28  1  0
 27 26  2  0
M  END
$$$$
