IFI.pdb
     RDKit          3D

 28 28  0  0  1  0  0  0  0  0999 V2000
   24.2075  -19.4842  -14.1935 C   0  0  0  0  0  0  0  0  0  0  0  0
   23.7022  -20.7742  -13.6403 C   0  0  0  0  0  0  0  0  0  0  0  0
   24.0949  -21.0439  -12.2093 C   0  0  2  0  0  0  0  0  0  0  0  0
   23.3894  -20.0433  -11.3362 C   0  0  0  0  0  0  0  0  0  0  0  0
   25.5788  -21.0116  -12.0896 C   0  0  2  0  0  0  0  0  0  0  0  0
   26.1547  -21.9428  -13.0301 N   0  0  0  0  0  0  0  0  0  0  0  0
   26.0541  -21.2619  -10.7011 C   0  0  0  0  0  0  0  0  0  0  0  0
   25.8926  -22.4022  -10.2318 O   0  0  0  0  0  0  0  0  0  0  0  0
   26.6665  -20.2808   -9.9124 N   0  0  0  0  0  0  0  0  0  0  0  0
   27.2080  -20.4821   -8.5943 C   0  0  1  0  0  0  0  0  0  0  0  0
   28.3157  -19.5522   -8.2363 C   0  0  0  0  0  0  0  0  0  0  0  0
   28.7823  -19.6017   -6.8666 C   0  0  0  0  0  0  0  0  0  0  0  0
   29.5366  -20.6526   -6.4033 C   0  0  0  0  0  0  0  0  0  0  0  0
   29.9635  -20.6653   -5.0950 C   0  0  0  0  0  0  0  0  0  0  0  0
   29.6584  -19.6439   -4.2107 C   0  0  0  0  0  0  0  0  0  0  0  0
   28.9032  -18.5960   -4.6822 C   0  0  0  0  0  0  0  0  0  0  0  0
   28.4654  -18.5719   -6.0039 C   0  0  0  0  0  0  0  0  0  0  0  0
   26.0819  -20.2052   -7.6316 C   0  0  0  0  0  0  0  0  0  0  0  0
   25.3458  -19.2027   -7.8289 O   0  0  0  0  0  0  0  0  0  0  0  0
   21.7433  -22.4142   -7.2399 C   0  0  0  0  0  0  0  0  0  0  0  0
   22.9052  -21.4476   -7.0706 C   0  0  0  0  0  0  0  0  0  0  0  0
   23.5783  -21.6256   -5.7328 C   0  0  2  0  0  0  0  0  0  0  0  0
   22.5508  -21.5062   -4.6396 C   0  0  0  0  0  0  0  0  0  0  0  0
   24.7523  -20.7295   -5.5461 C   0  0  2  0  0  0  0  0  0  0  0  0
   25.8175  -21.0208   -6.5195 N   0  0  0  0  0  0  0  0  0  0  0  0
   25.3369  -20.7599   -4.1958 C   0  0  0  0  0  0  0  0  0  0  0  0
   26.0342  -21.7032   -3.7576 O   0  0  0  0  0  0  0  0  0  0  0  0
   25.1207  -19.6973   -3.3355 O   0  0  0  0  0  0  0  0  0  0  0  0
  1  2  1  0
  3  5  1  0
  3  4  1  1
  3  2  1  0
  5  6  1  6
  7  8  2  0
  7  5  1  0
  9  7  1  0
 10  9  1  0
 11 12  1  0
 10 11  1  1
 12 13  2  0
 12 17  1  0
 13 14  1  0
 14 15  2  0
 16 15  1  0
 17 16  2  0
 18 19  2  0
 18 10  1  0
 20 21  1  0
 21 22  1  0
 22 24  1  0
 22 23  1  1
 24 26  1  0
 24 25  1  6
 25 18  1  0
 26 28  1  0
 27 26  2  0
M  END
$$$$
