IFI.pdb
     RDKit          3D

 28 28  0  0  1  0  0  0  0  0999 V2000
   23.5219  -21.2648  -14.4826 C   0  0  0  0  0  0  0  0  0  0  0  0
   24.1721  -22.0511  -13.3942 C   0  0  0  0  0  0  0  0  0  0  0  0
   25.1372  -21.2676  -12.5401 C   0  0  2  0  0  0  0  0  0  0  0  0
   26.2304  -22.2003  -12.0973 C   0  0  0  0  0  0  0  0  0  0  0  0
   24.3966  -20.6272  -11.4181 C   0  0  2  0  0  0  0  0  0  0  0  0
   23.4592  -19.6672  -11.9503 N   0  0  0  0  0  0  0  0  0  0  0  0
   25.2977  -20.0167  -10.4024 C   0  0  0  0  0  0  0  0  0  0  0  0
   25.8342  -18.9308  -10.6841 O   0  0  0  0  0  0  0  0  0  0  0  0
   25.5627  -20.6059   -9.1605 N   0  0  0  0  0  0  0  0  0  0  0  0
   26.4595  -20.0881   -8.1611 C   0  0  1  0  0  0  0  0  0  0  0  0
   25.8597  -19.9621   -6.8031 C   0  0  0  0  0  0  0  0  0  0  0  0
   26.7566  -19.5734   -5.7351 C   0  0  0  0  0  0  0  0  0  0  0  0
   27.0594  -20.4307   -4.7050 C   0  0  0  0  0  0  0  0  0  0  0  0
   27.9170  -20.0271   -3.7071 C   0  0  0  0  0  0  0  0  0  0  0  0
   28.4976  -18.7697   -3.6989 C   0  0  0  0  0  0  0  0  0  0  0  0
   28.1894  -17.9177   -4.7334 C   0  0  0  0  0  0  0  0  0  0  0  0
   27.3230  -18.3147   -5.7486 C   0  0  0  0  0  0  0  0  0  0  0  0
   27.5825  -21.0868   -8.0476 C   0  0  0  0  0  0  0  0  0  0  0  0
   27.3005  -22.3085   -7.9308 O   0  0  0  0  0  0  0  0  0  0  0  0
   32.9721  -22.9711   -9.8268 C   0  0  0  0  0  0  0  0  0  0  0  0
   32.0141  -22.8632   -8.6505 C   0  0  0  0  0  0  0  0  0  0  0  0
   30.9690  -21.8021   -8.8878 C   0  0  2  0  0  0  0  0  0  0  0  0
   31.6451  -20.5211   -9.2963 C   0  0  0  0  0  0  0  0  0  0  0  0
   30.0305  -21.6408   -7.7435 C   0  0  2  0  0  0  0  0  0  0  0  0
   28.9356  -20.7115   -8.0665 N   0  0  0  0  0  0  0  0  0  0  0  0
   30.6629  -21.1954   -6.4914 C   0  0  0  0  0  0  0  0  0  0  0  0
   30.7320  -19.9981   -6.1312 O   0  0  0  0  0  0  0  0  0  0  0  0
   31.2236  -22.1320   -5.6403 O   0  0  0  0  0  0  0  0  0  0  0  0
  1  2  1  0
  3  5  1  0
  3  4  1  1
  3  2  1  0
  5  6  1  6
  7  8  2  0
  7  5  1  0
  9  7  1  0
 10  9  1  0
 11 12  1  0
 10 11  1  1
 12 13  2  0
 12 17  1  0
 13 14  1  0
 14 15  2  0
 16 15  1  0
 17 16  2  0
 18 19  2  0
 18 10  1  0
 20 21  1  0
 21 22  1  0
 22 24  1  0
 22 23  1  1
 24 26  1  0
 24 25  1  6
 25 18  1  0
 26 28  1  0
 27 26  2  0
M  END
$$$$
