IFI.pdb
     RDKit          3D

 28 28  0  0  1  0  0  0  0  0999 V2000
   27.8090  -19.6424  -19.7579 C   0  0  0  0  0  0  0  0  0  0  0  0
   28.4389  -20.3489  -18.6048 C   0  0  0  0  0  0  0  0  0  0  0  0
   27.5202  -20.5865  -17.4326 C   0  0  2  0  0  0  0  0  0  0  0  0
   26.9643  -19.2581  -16.9996 C   0  0  0  0  0  0  0  0  0  0  0  0
   28.2611  -21.3103  -16.3627 C   0  0  2  0  0  0  0  0  0  0  0  0
   28.7697  -22.5538  -16.8907 N   0  0  0  0  0  0  0  0  0  0  0  0
   27.4464  -21.5222  -15.1348 C   0  0  0  0  0  0  0  0  0  0  0  0
   26.5403  -22.3726  -15.1821 O   0  0  0  0  0  0  0  0  0  0  0  0
   27.6547  -20.8136  -13.9456 N   0  0  0  0  0  0  0  0  0  0  0  0
   26.9028  -20.9774  -12.7295 C   0  0  1  0  0  0  0  0  0  0  0  0
   27.5500  -20.3899  -11.5229 C   0  0  0  0  0  0  0  0  0  0  0  0
   26.7720  -20.4040  -10.3019 C   0  0  0  0  0  0  0  0  0  0  0  0
   26.2661  -21.5732   -9.7873 C   0  0  0  0  0  0  0  0  0  0  0  0
   25.5315  -21.5485   -8.6237 C   0  0  0  0  0  0  0  0  0  0  0  0
   25.2770  -20.3722   -7.9382 C   0  0  0  0  0  0  0  0  0  0  0  0
   25.7868  -19.2065   -8.4599 C   0  0  0  0  0  0  0  0  0  0  0  0
   26.5315  -19.2188   -9.6365 C   0  0  0  0  0  0  0  0  0  0  0  0
   25.6087  -20.2321  -12.9329 C   0  0  0  0  0  0  0  0  0  0  0  0
   25.6516  -19.0149  -13.2525 O   0  0  0  0  0  0  0  0  0  0  0  0
   21.2961  -18.8836  -16.1447 C   0  0  0  0  0  0  0  0  0  0  0  0
   21.5128  -19.1465  -14.6624 C   0  0  0  0  0  0  0  0  0  0  0  0
   22.7757  -19.9352  -14.4226 C   0  0  2  0  0  0  0  0  0  0  0  0
   22.7091  -21.2264  -15.1930 C   0  0  0  0  0  0  0  0  0  0  0  0
   23.0833  -20.1197  -12.9778 C   0  0  2  0  0  0  0  0  0  0  0  0
   24.3519  -20.8399  -12.7808 N   0  0  0  0  0  0  0  0  0  0  0  0
   22.0337  -20.8108  -12.2119 C   0  0  0  0  0  0  0  0  0  0  0  0
   22.0248  -22.0439  -11.9947 O   0  0  0  0  0  0  0  0  0  0  0  0
   20.9804  -20.0814  -11.6878 O   0  0  0  0  0  0  0  0  0  0  0  0
  1  2  1  0
  3  5  1  0
  3  4  1  1
  3  2  1  0
  5  6  1  6
  7  8  2  0
  7  5  1  0
  9  7  1  0
 10  9  1  0
 11 12  1  0
 10 11  1  1
 12 13  2  0
 12 17  1  0
 13 14  1  0
 14 15  2  0
 16 15  1  0
 17 16  2  0
 18 19  2  0
 18 10  1  0
 20 21  1  0
 21 22  1  0
 22 24  1  0
 22 23  1  1
 24 26  1  0
 24 25  1  6
 25 18  1  0
 26 28  1  0
 27 26  2  0
M  END
$$$$
