IFI.pdb
     RDKit          3D

 28 28  0  0  1  0  0  0  0  0999 V2000
   25.6318  -17.6667  -20.7934 C   0  0  0  0  0  0  0  0  0  0  0  0
   26.6798  -18.0605  -19.8074 C   0  0  0  0  0  0  0  0  0  0  0  0
   26.1763  -18.8790  -18.6449 C   0  0  2  0  0  0  0  0  0  0  0  0
   25.0199  -18.1449  -18.0245 C   0  0  0  0  0  0  0  0  0  0  0  0
   27.2996  -19.1444  -17.7041 C   0  0  2  0  0  0  0  0  0  0  0  0
   28.3673  -19.8114  -18.4102 N   0  0  0  0  0  0  0  0  0  0  0  0
   26.8764  -19.9034  -16.4953 C   0  0  0  0  0  0  0  0  0  0  0  0
   26.4872  -21.0737  -16.6547 O   0  0  0  0  0  0  0  0  0  0  0  0
   26.8979  -19.3622  -15.2044 N   0  0  0  0  0  0  0  0  0  0  0  0
   26.4194  -20.0140  -14.0139 C   0  0  1  0  0  0  0  0  0  0  0  0
   26.9940  -19.4796  -12.7474 C   0  0  0  0  0  0  0  0  0  0  0  0
   26.5158  -20.0782  -11.5188 C   0  0  0  0  0  0  0  0  0  0  0  0
   26.9086  -21.3374  -11.1342 C   0  0  0  0  0  0  0  0  0  0  0  0
   26.4342  -21.8742   -9.9591 C   0  0  0  0  0  0  0  0  0  0  0  0
   25.5615  -21.1844   -9.1338 C   0  0  0  0  0  0  0  0  0  0  0  0
   25.1733  -19.9249   -9.5259 C   0  0  0  0  0  0  0  0  0  0  0  0
   25.6465  -19.3713  -10.7128 C   0  0  0  0  0  0  0  0  0  0  0  0
   24.9360  -19.7532  -13.9605 C   0  0  0  0  0  0  0  0  0  0  0  0
   24.5201  -18.5739  -14.1086 O   0  0  0  0  0  0  0  0  0  0  0  0
   21.4720  -21.6577  -17.1581 C   0  0  0  0  0  0  0  0  0  0  0  0
   22.1862  -20.8233  -16.1060 C   0  0  0  0  0  0  0  0  0  0  0  0
   21.7894  -21.2392  -14.7117 C   0  0  2  0  0  0  0  0  0  0  0  0
   20.2958  -21.1258  -14.5654 C   0  0  0  0  0  0  0  0  0  0  0  0
   22.5473  -20.5212  -13.6504 C   0  0  2  0  0  0  0  0  0  0  0  0
   23.9940  -20.7735  -13.7516 N   0  0  0  0  0  0  0  0  0  0  0  0
   22.1176  -20.8291  -12.2768 C   0  0  0  0  0  0  0  0  0  0  0  0
   21.4329  -20.0555  -11.5693 O   0  0  0  0  0  0  0  0  0  0  0  0
   22.4761  -22.0377  -11.7054 O   0  0  0  0  0  0  0  0  0  0  0  0
  1  2  1  0
  3  5  1  0
  3  4  1  1
  3  2  1  0
  5  6  1  6
  7  8  2  0
  7  5  1  0
  9  7  1  0
 10  9  1  0
 11 12  1  0
 10 11  1  1
 12 13  2  0
 12 17  1  0
 13 14  1  0
 14 15  2  0
 16 15  1  0
 17 16  2  0
 18 19  2  0
 18 10  1  0
 20 21  1  0
 21 22  1  0
 22 24  1  0
 22 23  1  1
 24 26  1  0
 24 25  1  1
 25 18  1  0
 26 28  1  0
 27 26  2  0
M  END
$$$$
