IFI.pdb
     RDKit          3D

 28 28  0  0  1  0  0  0  0  0999 V2000
   24.9710  -19.1601  -14.8731 C   0  0  0  0  0  0  0  0  0  0  0  0
   24.5468  -20.5388  -14.4925 C   0  0  0  0  0  0  0  0  0  0  0  0
   24.6605  -20.8501  -13.0211 C   0  0  2  0  0  0  0  0  0  0  0  0
   23.7683  -19.8983  -12.2734 C   0  0  0  0  0  0  0  0  0  0  0  0
   26.0908  -20.7871  -12.6117 C   0  0  2  0  0  0  0  0  0  0  0  0
   26.8685  -21.6634  -13.4549 N   0  0  0  0  0  0  0  0  0  0  0  0
   26.2941  -21.0846  -11.1672 C   0  0  0  0  0  0  0  0  0  0  0  0
   25.9884  -22.2201  -10.7625 O   0  0  0  0  0  0  0  0  0  0  0  0
   26.8077  -20.1523  -10.2580 N   0  0  0  0  0  0  0  0  0  0  0  0
   26.9696  -20.3622   -8.8435 C   0  0  1  0  0  0  0  0  0  0  0  0
   27.8685  -19.3796   -8.1752 C   0  0  0  0  0  0  0  0  0  0  0  0
   28.0311  -19.5235   -6.7437 C   0  0  0  0  0  0  0  0  0  0  0  0
   27.3425  -18.7280   -5.8601 C   0  0  0  0  0  0  0  0  0  0  0  0
   27.5217  -18.8939   -4.5056 C   0  0  0  0  0  0  0  0  0  0  0  0
   28.3831  -19.8469   -3.9879 C   0  0  0  0  0  0  0  0  0  0  0  0
   29.0685  -20.6389   -4.8790 C   0  0  0  0  0  0  0  0  0  0  0  0
   28.8955  -20.4805   -6.2516 C   0  0  0  0  0  0  0  0  0  0  0  0
   25.6029  -20.1833   -8.2338 C   0  0  0  0  0  0  0  0  0  0  0  0
   24.9760  -19.1128   -8.4498 O   0  0  0  0  0  0  0  0  0  0  0  0
   20.1234  -21.3791   -8.2705 C   0  0  0  0  0  0  0  0  0  0  0  0
   21.1983  -21.1066   -7.2296 C   0  0  0  0  0  0  0  0  0  0  0  0
   22.5795  -21.3180   -7.7971 C   0  0  2  0  0  0  0  0  0  0  0  0
   22.6755  -22.7077   -8.3667 C   0  0  0  0  0  0  0  0  0  0  0  0
   23.6639  -20.9955   -6.8294 C   0  0  2  0  0  0  0  0  0  0  0  0
   24.9964  -21.1636   -7.4318 N   0  0  0  0  0  0  0  0  0  0  0  0
   23.6189  -21.7706   -5.5791 C   0  0  0  0  0  0  0  0  0  0  0  0
   24.5347  -22.5345   -5.1975 O   0  0  0  0  0  0  0  0  0  0  0  0
   22.5115  -21.6703   -4.7546 O   0  0  0  0  0  0  0  0  0  0  0  0
  1  2  1  0
  3  5  1  0
  3  4  1  1
  3  2  1  0
  5  6  1  6
  7  8  2  0
  7  5  1  0
  9  7  1  0
 10  9  1  0
 11 12  1  0
 10 11  1  1
 12 13  2  0
 12 17  1  0
 13 14  1  0
 14 15  2  0
 16 15  1  0
 17 16  2  0
 18 19  2  0
 18 10  1  0
 20 21  1  0
 21 22  1  0
 22 24  1  0
 22 23  1  1
 24 26  1  0
 24 25  1  6
 25 18  1  0
 26 28  1  0
 27 26  2  0
M  END
$$$$
