TEQ.pdb
     RDKit          3D

 26 25  0  0  1  0  0  0  0  0999 V2000
    9.3231  -12.6057   20.0220 C   0  0  0  0  0  0  0  0  0  0  0  0
    8.3859  -13.2036   18.9858 C   0  0  1  0  0  0  0  0  0  0  0  0
    8.4383  -12.4246   17.8513 O   0  0  0  0  0  0  0  0  0  0  0  0
    8.7833  -14.6533   18.6903 C   0  0  2  0  0  0  0  0  0  0  0  0
    7.7708  -15.1672   17.7698 N   0  0  0  0  0  0  0  0  0  0  0  0
    8.7279  -15.3884   19.9890 C   0  0  0  0  0  0  0  0  0  0  0  0
    7.6286  -15.5616   20.5747 O   0  0  0  0  0  0  0  0  0  0  0  0
    9.8836  -15.9176   20.6163 N   0  0  0  0  0  0  0  0  0  0  0  0
    9.8033  -16.6014   21.8722 C   0  0  1  0  0  0  0  0  0  0  0  0
   10.8480  -17.6660   21.9217 C   0  0  0  0  0  0  0  0  0  0  0  0
   12.2454  -17.1770   21.7547 C   0  0  0  0  0  0  0  0  0  0  0  0
   13.1746  -18.3325   21.8351 C   0  0  0  0  0  0  0  0  0  0  0  0
   14.2787  -18.2132   22.4363 O   0  0  0  0  0  0  0  0  0  0  0  0
    9.8942  -15.6761   23.0374 C   0  0  0  0  0  0  0  0  0  0  0  0
   10.6525  -14.6835   22.9273 O   0  0  0  0  0  0  0  0  0  0  0  0
   12.8576  -19.5606   21.2579 O   0  0  0  0  0  0  0  0  0  0  0  0
    6.1919  -11.3449   27.2600 N   0  0  0  0  0  0  0  0  0  0  0  0
    6.3650  -12.5788   26.5983 C   0  0  0  0  0  0  0  0  0  0  0  0
    5.3403  -13.1396   26.1009 O   0  0  0  0  0  0  0  0  0  0  0  0
    7.6648  -13.2179   26.4628 C   0  0  0  0  0  0  0  0  0  0  0  0
    7.8592  -14.2285   25.4175 C   0  0  0  0  0  0  0  0  0  0  0  0
    9.1926  -14.8689   25.3469 C   0  0  2  0  0  0  0  0  0  0  0  0
    9.1843  -15.8579   24.2344 N   0  0  0  0  0  0  0  0  0  0  0  0
    9.5572  -15.6110   26.5433 C   0  0  0  0  0  0  0  0  0  0  0  0
    9.9354  -14.9913   27.7219 O   0  0  0  0  0  0  0  0  0  0  0  0
    9.5533  -16.8635   26.5531 O   0  0  0  0  0  0  0  0  0  0  0  0
  2  1  1  1
  2  3  1  0
  4  6  1  0
  4  2  1  0
  4  5  1  6
  6  8  1  0
  7  6  2  0
  8  9  1  0
  9 14  1  0
  9 10  1  1
 11 10  1  0
 12 11  1  0
 13 12  2  0
 14 15  2  0
 14 23  1  0
 16 12  1  0
 17 18  1  0
 18 19  2  0
 20 18  1  0
 20 21  1  0
 22 21  1  1
 22 24  1  0
 23 22  1  0
 24 25  1  0
 26 24  2  0
M  END
$$$$
