TEQ.pdb
     RDKit          3D

 26 25  0  0  1  0  0  0  0  0999 V2000
    9.5972  -12.4447   19.8306 C   0  0  0  0  0  0  0  0  0  0  0  0
    8.3850  -12.9562   19.0701 C   0  0  1  0  0  0  0  0  0  0  0  0
    8.0747  -12.0463   18.0841 O   0  0  0  0  0  0  0  0  0  0  0  0
    8.6765  -14.3413   18.4844 C   0  0  2  0  0  0  0  0  0  0  0  0
    7.4489  -14.7578   17.8089 N   0  0  0  0  0  0  0  0  0  0  0  0
    8.9686  -15.2440   19.6376 C   0  0  0  0  0  0  0  0  0  0  0  0
    8.0420  -15.6212   20.3998 O   0  0  0  0  0  0  0  0  0  0  0  0
   10.2743  -15.7129   19.9283 N   0  0  0  0  0  0  0  0  0  0  0  0
   10.5346  -16.5316   21.0742 C   0  0  1  0  0  0  0  0  0  0  0  0
   11.8254  -17.2552   20.8801 C   0  0  0  0  0  0  0  0  0  0  0  0
   12.2309  -18.1244   22.0202 C   0  0  0  0  0  0  0  0  0  0  0  0
   13.5190  -18.7852   21.6896 C   0  0  0  0  0  0  0  0  0  0  0  0
   14.5934  -18.3648   22.2031 O   0  0  0  0  0  0  0  0  0  0  0  0
   10.5142  -15.7594   22.3490 C   0  0  0  0  0  0  0  0  0  0  0  0
   11.2573  -14.7522   22.4247 O   0  0  0  0  0  0  0  0  0  0  0  0
   13.5754  -19.8704   20.8173 O   0  0  0  0  0  0  0  0  0  0  0  0
    5.7001  -13.4843   25.3030 N   0  0  0  0  0  0  0  0  0  0  0  0
    6.7774  -13.2327   26.1786 C   0  0  0  0  0  0  0  0  0  0  0  0
    6.5742  -12.4701   27.1731 O   0  0  0  0  0  0  0  0  0  0  0  0
    8.0952  -13.8175   25.9851 C   0  0  0  0  0  0  0  0  0  0  0  0
    8.3394  -14.6562   24.8066 C   0  0  0  0  0  0  0  0  0  0  0  0
    9.6716  -15.2949   24.7053 C   0  0  2  0  0  0  0  0  0  0  0  0
    9.7170  -16.0987   23.4533 N   0  0  0  0  0  0  0  0  0  0  0  0
    9.9693  -16.2185   25.7884 C   0  0  0  0  0  0  0  0  0  0  0  0
   10.3830  -15.7956   27.0399 O   0  0  0  0  0  0  0  0  0  0  0  0
    9.8715  -17.4567   25.6270 O   0  0  0  0  0  0  0  0  0  0  0  0
  2  1  1  6
  2  3  1  0
  4  6  1  0
  4  2  1  0
  4  5  1  1
  6  8  1  0
  7  6  2  0
  8  9  1  0
  9 14  1  0
  9 10  1  6
 11 10  1  0
 12 11  1  0
 13 12  2  0
 14 15  2  0
 14 23  1  0
 16 12  1  0
 17 18  1  0
 18 19  2  0
 20 18  1  0
 20 21  1  0
 22 21  1  1
 22 24  1  0
 23 22  1  0
 24 25  1  0
 26 24  2  0
M  END
$$$$
