TEQ.pdb
     RDKit          3D

 26 25  0  0  1  0  0  0  0  0999 V2000
   14.6297  -15.2833   19.4419 C   0  0  0  0  0  0  0  0  0  0  0  0
   13.4954  -14.2720   19.4415 C   0  0  1  0  0  0  0  0  0  0  0  0
   13.9231  -13.1392   18.7855 O   0  0  0  0  0  0  0  0  0  0  0  0
   12.2543  -14.8726   18.7737 C   0  0  2  0  0  0  0  0  0  0  0  0
   11.2019  -13.8667   18.9043 N   0  0  0  0  0  0  0  0  0  0  0  0
   11.9006  -16.1002   19.5470 C   0  0  0  0  0  0  0  0  0  0  0  0
   10.9198  -16.0946   20.3343 O   0  0  0  0  0  0  0  0  0  0  0  0
   12.6336  -17.3086   19.4380 N   0  0  0  0  0  0  0  0  0  0  0  0
   12.3265  -18.4433   20.2562 C   0  0  1  0  0  0  0  0  0  0  0  0
   12.7618  -19.6877   19.5567 C   0  0  0  0  0  0  0  0  0  0  0  0
   12.5253  -20.9464   20.3178 C   0  0  0  0  0  0  0  0  0  0  0  0
   13.0485  -22.0922   19.5314 C   0  0  0  0  0  0  0  0  0  0  0  0
   14.2484  -22.4593   19.6738 O   0  0  0  0  0  0  0  0  0  0  0  0
   12.9086  -18.3398   21.6245 C   0  0  0  0  0  0  0  0  0  0  0  0
   14.1210  -18.0321   21.7133 O   0  0  0  0  0  0  0  0  0  0  0  0
   12.2415  -22.7823   18.6289 O   0  0  0  0  0  0  0  0  0  0  0  0
   10.4511  -19.9384   27.1603 N   0  0  0  0  0  0  0  0  0  0  0  0
   11.8341  -20.1747   27.3078 C   0  0  0  0  0  0  0  0  0  0  0  0
   12.2756  -20.4369   28.4689 O   0  0  0  0  0  0  0  0  0  0  0  0
   12.7581  -20.1354   26.1849 C   0  0  0  0  0  0  0  0  0  0  0  0
   12.2407  -19.8472   24.8428 C   0  0  0  0  0  0  0  0  0  0  0  0
   12.8087  -18.6703   24.1462 C   0  0  2  0  0  0  0  0  0  0  0  0
   12.1785  -18.5668   22.8015 N   0  0  0  0  0  0  0  0  0  0  0  0
   14.2419  -18.7541   23.9143 C   0  0  0  0  0  0  0  0  0  0  0  0
   15.1294  -17.7891   24.3586 O   0  0  0  0  0  0  0  0  0  0  0  0
   14.7393  -19.7149   23.2833 O   0  0  0  0  0  0  0  0  0  0  0  0
  2  1  1  6
  2  3  1  0
  4  6  1  0
  4  2  1  0
  4  5  1  1
  6  8  1  0
  7  6  2  0
  8  9  1  0
  9 14  1  0
  9 10  1  6
 11 10  1  0
 12 11  1  0
 13 12  2  0
 14 15  2  0
 14 23  1  0
 16 12  1  0
 17 18  1  0
 18 19  2  0
 20 18  1  0
 20 21  1  0
 22 21  1  6
 22 24  1  0
 23 22  1  0
 24 25  1  0
 26 24  2  0
M  END
$$$$
