TEQ.pdb
     RDKit          3D

 26 25  0  0  1  0  0  0  0  0999 V2000
    7.0827  -12.8211   19.1099 C   0  0  0  0  0  0  0  0  0  0  0  0
    8.1427  -13.6207   18.3709 C   0  0  1  0  0  0  0  0  0  0  0  0
    8.3695  -13.0202   17.1525 O   0  0  0  0  0  0  0  0  0  0  0  0
    9.4242  -13.6958   19.2069 C   0  0  2  0  0  0  0  0  0  0  0  0
   10.4555  -14.2213   18.3143 N   0  0  0  0  0  0  0  0  0  0  0  0
    9.1577  -14.6571   20.3183 C   0  0  0  0  0  0  0  0  0  0  0  0
    8.2024  -14.4612   21.1124 O   0  0  0  0  0  0  0  0  0  0  0  0
    9.9482  -15.8141   20.5327 N   0  0  0  0  0  0  0  0  0  0  0  0
    9.7113  -16.6830   21.6463 C   0  0  1  0  0  0  0  0  0  0  0  0
   10.5686  -17.8976   21.5149 C   0  0  0  0  0  0  0  0  0  0  0  0
   10.2279  -18.7801   20.3639 C   0  0  0  0  0  0  0  0  0  0  0  0
   11.1889  -19.9113   20.3213 C   0  0  0  0  0  0  0  0  0  0  0  0
   11.1881  -20.7745   21.2432 O   0  0  0  0  0  0  0  0  0  0  0  0
    9.9057  -16.0023   22.9581 C   0  0  0  0  0  0  0  0  0  0  0  0
   10.9030  -15.2514   23.0756 O   0  0  0  0  0  0  0  0  0  0  0  0
   12.1034  -20.0484   19.2788 O   0  0  0  0  0  0  0  0  0  0  0  0
    5.4602  -12.9682   25.8894 N   0  0  0  0  0  0  0  0  0  0  0  0
    6.4882  -13.0165   26.8544 C   0  0  0  0  0  0  0  0  0  0  0  0
    6.3172  -12.3849   27.9424 O   0  0  0  0  0  0  0  0  0  0  0  0
    7.7194  -13.7634   26.6486 C   0  0  0  0  0  0  0  0  0  0  0  0
    7.8901  -14.5339   25.4120 C   0  0  0  0  0  0  0  0  0  0  0  0
    9.1311  -15.3324   25.2881 C   0  0  2  0  0  0  0  0  0  0  0  0
    9.0412  -16.1580   24.0528 N   0  0  0  0  0  0  0  0  0  0  0  0
    9.3462  -16.2660   26.3822 C   0  0  0  0  0  0  0  0  0  0  0  0
    9.9342  -15.8937   27.5788 O   0  0  0  0  0  0  0  0  0  0  0  0
    9.0114  -17.4687   26.2807 O   0  0  0  0  0  0  0  0  0  0  0  0
  2  1  1  1
  2  3  1  0
  4  6  1  0
  4  2  1  0
  4  5  1  6
  6  8  1  0
  7  6  2  0
  8  9  1  0
  9 14  1  0
  9 10  1  6
 11 10  1  0
 12 11  1  0
 13 12  2  0
 14 15  2  0
 14 23  1  0
 16 12  1  0
 17 18  1  0
 18 19  2  0
 20 18  1  0
 20 21  1  0
 22 21  1  1
 22 24  1  0
 23 22  1  0
 24 25  1  0
 26 24  2  0
M  END
$$$$
