TEQ.pdb
     RDKit          3D

 26 25  0  0  1  0  0  0  0  0999 V2000
   14.4046  -15.6902   18.3328 C   0  0  0  0  0  0  0  0  0  0  0  0
   13.5442  -15.7701   19.5828 C   0  0  1  0  0  0  0  0  0  0  0  0
   14.2775  -15.2934   20.6466 O   0  0  0  0  0  0  0  0  0  0  0  0
   12.2537  -14.9684   19.3863 C   0  0  2  0  0  0  0  0  0  0  0  0
   12.6517  -13.5620   19.3824 N   0  0  0  0  0  0  0  0  0  0  0  0
   11.3820  -15.2599   20.5633 C   0  0  0  0  0  0  0  0  0  0  0  0
   11.2851  -14.4300   21.5032 O   0  0  0  0  0  0  0  0  0  0  0  0
   10.6351  -16.4588   20.6816 N   0  0  0  0  0  0  0  0  0  0  0  0
    9.7470  -16.6783   21.7836 C   0  0  1  0  0  0  0  0  0  0  0  0
    8.9381  -17.9062   21.5278 C   0  0  0  0  0  0  0  0  0  0  0  0
    8.0293  -18.2978   22.6415 C   0  0  0  0  0  0  0  0  0  0  0  0
    7.2759  -19.5145   22.2453 C   0  0  0  0  0  0  0  0  0  0  0  0
    7.5455  -20.0969   21.1577 O   0  0  0  0  0  0  0  0  0  0  0  0
   10.4588  -16.7417   23.0918 C   0  0  0  0  0  0  0  0  0  0  0  0
   11.5949  -17.2721   23.1046 O   0  0  0  0  0  0  0  0  0  0  0  0
    6.2667  -20.0381   23.0511 O   0  0  0  0  0  0  0  0  0  0  0  0
   10.3992  -14.2318   30.1684 N   0  0  0  0  0  0  0  0  0  0  0  0
    9.9761  -14.3101   28.8247 C   0  0  0  0  0  0  0  0  0  0  0  0
    9.0388  -13.5415   28.4471 O   0  0  0  0  0  0  0  0  0  0  0  0
   10.5768  -15.2265   27.8680 C   0  0  0  0  0  0  0  0  0  0  0  0
   10.0167  -15.3165   26.5152 C   0  0  0  0  0  0  0  0  0  0  0  0
   10.6721  -16.2614   25.5820 C   0  0  2  0  0  0  0  0  0  0  0  0
    9.9284  -16.2453   24.2927 N   0  0  0  0  0  0  0  0  0  0  0  0
   10.6633  -17.6432   26.0353 C   0  0  0  0  0  0  0  0  0  0  0  0
   11.7196  -18.2104   26.7271 O   0  0  0  0  0  0  0  0  0  0  0  0
    9.6863  -18.3925   25.8054 O   0  0  0  0  0  0  0  0  0  0  0  0
  2  1  1  6
  2  3  1  0
  4  6  1  0
  4  2  1  0
  4  5  1  1
  6  8  1  0
  7  6  2  0
  8  9  1  0
  9 14  1  0
  9 10  1  6
 11 10  1  0
 12 11  1  0
 13 12  2  0
 14 15  2  0
 14 23  1  0
 16 12  1  0
 17 18  1  0
 18 19  2  0
 20 18  1  0
 20 21  1  0
 22 21  1  1
 22 24  1  0
 23 22  1  0
 24 25  1  0
 26 24  2  0
M  END
$$$$
