TEQ.pdb
     RDKit          3D

 26 25  0  0  1  0  0  0  0  0999 V2000
    9.2435  -12.3607   20.4389 C   0  0  0  0  0  0  0  0  0  0  0  0
    7.9788  -12.9710   19.8581 C   0  0  1  0  0  0  0  0  0  0  0  0
    7.5727  -12.1983   18.7930 O   0  0  0  0  0  0  0  0  0  0  0  0
    8.2398  -14.4196   19.4336 C   0  0  2  0  0  0  0  0  0  0  0  0
    7.0020  -14.8844   18.8105 N   0  0  0  0  0  0  0  0  0  0  0  0
    8.5163  -15.1911   20.6820 C   0  0  0  0  0  0  0  0  0  0  0  0
    7.5738  -15.5232   21.4456 O   0  0  0  0  0  0  0  0  0  0  0  0
    9.8244  -15.5812   21.0643 N   0  0  0  0  0  0  0  0  0  0  0  0
   10.0493  -16.4202   22.2030 C   0  0  1  0  0  0  0  0  0  0  0  0
   11.3027  -17.2040   21.9978 C   0  0  0  0  0  0  0  0  0  0  0  0
   11.6607  -18.1138   23.1220 C   0  0  0  0  0  0  0  0  0  0  0  0
   12.9013  -18.8505   22.7712 C   0  0  0  0  0  0  0  0  0  0  0  0
   12.8273  -19.9713   22.1939 O   0  0  0  0  0  0  0  0  0  0  0  0
   10.0717  -15.6576   23.4835 C   0  0  0  0  0  0  0  0  0  0  0  0
   10.8872  -14.7095   23.5756 O   0  0  0  0  0  0  0  0  0  0  0  0
   14.1611  -18.3325   23.0652 O   0  0  0  0  0  0  0  0  0  0  0  0
    5.4440  -13.4867   26.9853 N   0  0  0  0  0  0  0  0  0  0  0  0
    6.3990  -12.7765   26.2277 C   0  0  0  0  0  0  0  0  0  0  0  0
    6.1330  -11.5787   25.9014 O   0  0  0  0  0  0  0  0  0  0  0  0
    7.6664  -13.3627   25.8198 C   0  0  0  0  0  0  0  0  0  0  0  0
    7.9915  -14.7290   26.2434 C   0  0  0  0  0  0  0  0  0  0  0  0
    9.3346  -15.2385   25.8833 C   0  0  2  0  0  0  0  0  0  0  0  0
    9.2381  -15.9437   24.5759 N   0  0  0  0  0  0  0  0  0  0  0  0
    9.8724  -16.2073   26.8251 C   0  0  0  0  0  0  0  0  0  0  0  0
   10.0804  -17.5356   26.4953 O   0  0  0  0  0  0  0  0  0  0  0  0
   10.1653  -15.8756   27.9968 O   0  0  0  0  0  0  0  0  0  0  0  0
  2  1  1  6
  2  3  1  0
  4  6  1  0
  4  2  1  0
  4  5  1  1
  6  8  1  0
  7  6  2  0
  8  9  1  0
  9 14  1  0
  9 10  1  6
 11 10  1  0
 12 11  1  0
 13 12  2  0
 14 15  2  0
 14 23  1  0
 16 12  1  0
 17 18  1  0
 18 19  2  0
 20 18  1  0
 20 21  1  0
 22 21  1  1
 22 24  1  0
 23 22  1  0
 24 25  1  0
 26 24  2  0
M  END
$$$$
