TEQ.pdb
     RDKit          3D

 26 25  0  0  1  0  0  0  0  0999 V2000
    8.7229  -12.2897   19.8516 C   0  0  0  0  0  0  0  0  0  0  0  0
    7.7432  -13.1786   19.1036 C   0  0  1  0  0  0  0  0  0  0  0  0
    6.7665  -12.3803   18.5512 O   0  0  0  0  0  0  0  0  0  0  0  0
    8.4792  -13.9885   18.0317 C   0  0  2  0  0  0  0  0  0  0  0  0
    7.4563  -14.7875   17.3596 N   0  0  0  0  0  0  0  0  0  0  0  0
    9.4448  -14.8741   18.7482 C   0  0  0  0  0  0  0  0  0  0  0  0
    9.0433  -15.9182   19.3230 O   0  0  0  0  0  0  0  0  0  0  0  0
   10.8323  -14.5924   18.8174 N   0  0  0  0  0  0  0  0  0  0  0  0
   11.7380  -15.4689   19.4976 C   0  0  1  0  0  0  0  0  0  0  0  0
   13.1331  -15.1753   19.0563 C   0  0  0  0  0  0  0  0  0  0  0  0
   14.1824  -16.0060   19.7109 C   0  0  0  0  0  0  0  0  0  0  0  0
   15.5148  -15.5875   19.2061 C   0  0  0  0  0  0  0  0  0  0  0  0
   15.9580  -16.0657   18.1246 O   0  0  0  0  0  0  0  0  0  0  0  0
   11.5966  -15.4040   20.9801 C   0  0  0  0  0  0  0  0  0  0  0  0
   11.9526  -14.3438   21.5471 O   0  0  0  0  0  0  0  0  0  0  0  0
   16.2994  -14.6699   19.9019 O   0  0  0  0  0  0  0  0  0  0  0  0
    7.2091  -18.3275   24.4081 N   0  0  0  0  0  0  0  0  0  0  0  0
    7.4008  -16.9334   24.5088 C   0  0  0  0  0  0  0  0  0  0  0  0
    6.4375  -16.2268   24.9385 O   0  0  0  0  0  0  0  0  0  0  0  0
    8.6535  -16.2883   24.1474 C   0  0  0  0  0  0  0  0  0  0  0  0
    9.7687  -17.1109   23.6664 C   0  0  0  0  0  0  0  0  0  0  0  0
   10.9948  -16.3946   23.2460 C   0  0  2  0  0  0  0  0  0  0  0  0
   11.0927  -16.4551   21.7619 N   0  0  0  0  0  0  0  0  0  0  0  0
   12.2256  -16.9782   23.7553 C   0  0  0  0  0  0  0  0  0  0  0  0
   13.0625  -17.7579   22.9757 O   0  0  0  0  0  0  0  0  0  0  0  0
   12.5797  -16.8042   24.9441 O   0  0  0  0  0  0  0  0  0  0  0  0
  2  1  1  6
  2  3  1  0
  4  6  1  0
  4  2  1  0
  4  5  1  1
  6  8  1  0
  7  6  2  0
  8  9  1  0
  9 14  1  0
  9 10  1  1
 11 10  1  0
 12 11  1  0
 13 12  2  0
 14 15  2  0
 14 23  1  0
 16 12  1  0
 17 18  1  0
 18 19  2  0
 20 18  1  0
 20 21  1  0
 22 21  1  1
 22 24  1  0
 23 22  1  0
 24 25  1  0
 26 24  2  0
M  END
$$$$
