GIP.pdb
     RDKit          3D

 20 20  0  0  1  0  0  0  0  0999 V2000
   24.6309  -12.0715  -20.8062 N   0  0  0  0  0  0  0  0  0  0  0  0
   24.8765  -11.2808  -19.6403 C   0  0  0  0  0  0  0  0  0  0  0  0
   23.7322  -11.3423  -18.6805 C   0  0  0  0  0  0  0  0  0  0  0  0
   22.5899  -11.5259  -19.1669 O   0  0  0  0  0  0  0  0  0  0  0  0
   24.2587  -14.2928  -14.7645 C   0  0  0  0  0  0  0  0  0  0  0  0
   23.6285  -13.3629  -15.7486 C   0  0  0  0  0  0  0  0  0  0  0  0
   23.4114  -11.9713  -15.1503 C   0  0  2  0  0  0  0  0  0  0  0  0
   22.4679  -12.0297  -13.9968 C   0  0  0  0  0  0  0  0  0  0  0  0
   22.9492  -11.0962  -16.2980 C   0  0  2  0  0  0  0  0  0  0  0  0
   24.0236  -11.1905  -17.3158 N   0  0  0  0  0  0  0  0  0  0  0  0
   22.6916   -9.6926  -15.9677 C   0  0  0  0  0  0  0  0  0  0  0  0
   23.6396   -9.0873  -15.2976 O   0  0  0  0  0  0  0  0  0  0  0  0
   21.5853   -8.8935  -16.2654 N   0  0  0  0  0  0  0  0  0  0  0  0
   20.4728   -9.4425  -17.0909 C   0  0  0  0  0  0  0  0  0  0  0  0
   19.2938   -8.7573  -16.4346 C   0  0  0  0  0  0  0  0  0  0  0  0
   19.8203   -7.3173  -16.4732 C   0  0  0  0  0  0  0  0  0  0  0  0
   21.2477   -7.5522  -15.9413 C   0  0  1  0  0  0  0  0  0  0  0  0
   21.1285   -7.3119  -14.4814 C   0  0  0  0  0  0  0  0  0  0  0  0
   21.1158   -6.0349  -13.9950 O   0  0  0  0  0  0  0  0  0  0  0  0
   21.0433   -8.2839  -13.7138 O   0  0  0  0  0  0  0  0  0  0  0  0
  2  1  1  0
  3  2  1  0
  4  3  2  0
  5  6  1  0
  6  7  1  0
  7  9  1  0
  7  8  1  1
  9 11  1  0
  9 10  1  6
 10  3  1  0
 11 13  1  0
 12 11  2  0
 13 17  1  0
 14 13  1  0
 14 15  1  0
 15 16  1  0
 17 18  1  1
 17 16  1  0
 18 19  1  0
 20 18  2  0
M  END
$$$$
