GIP.pdb
     RDKit          3D

 20 20  0  0  1  0  0  0  0  0999 V2000
   19.2482  -12.7174  -15.8247 N   0  0  0  0  0  0  0  0  0  0  0  0
   19.8444  -11.6251  -16.5293 C   0  0  0  0  0  0  0  0  0  0  0  0
   20.8190  -10.8822  -15.6733 C   0  0  0  0  0  0  0  0  0  0  0  0
   20.5909  -10.8585  -14.4394 O   0  0  0  0  0  0  0  0  0  0  0  0
   25.7452  -11.7111  -16.1141 C   0  0  0  0  0  0  0  0  0  0  0  0
   24.4332  -11.1838  -15.6335 C   0  0  0  0  0  0  0  0  0  0  0  0
   24.2156   -9.7326  -16.0675 C   0  0  2  0  0  0  0  0  0  0  0  0
   25.3047   -8.8543  -15.5512 C   0  0  0  0  0  0  0  0  0  0  0  0
   22.8269   -9.3621  -15.5872 C   0  0  2  0  0  0  0  0  0  0  0  0
   21.9086  -10.2718  -16.3141 N   0  0  0  0  0  0  0  0  0  0  0  0
   22.4275   -7.9691  -15.8007 C   0  0  0  0  0  0  0  0  0  0  0  0
   22.4727   -7.5527  -17.0411 O   0  0  0  0  0  0  0  0  0  0  0  0
   21.9968   -7.0121  -14.8789 N   0  0  0  0  0  0  0  0  0  0  0  0
   21.7931   -7.3930  -13.4527 C   0  0  0  0  0  0  0  0  0  0  0  0
   22.2389   -6.1169  -12.7722 C   0  0  0  0  0  0  0  0  0  0  0  0
   21.3850   -5.1252  -13.5719 C   0  0  0  0  0  0  0  0  0  0  0  0
   21.6690   -5.6350  -14.9984 C   0  0  1  0  0  0  0  0  0  0  0  0
   22.8055   -4.7975  -15.4570 C   0  0  0  0  0  0  0  0  0  0  0  0
   22.5812   -3.5331  -15.9248 O   0  0  0  0  0  0  0  0  0  0  0  0
   23.9558   -5.2620  -15.4112 O   0  0  0  0  0  0  0  0  0  0  0  0
  2  1  1  0
  3  2  1  0
  4  3  2  0
  5  6  1  0
  6  7  1  0
  7  9  1  0
  7  8  1  1
  9 11  1  0
  9 10  1  6
 10  3  1  0
 11 13  1  0
 12 11  2  0
 13 17  1  0
 14 13  1  0
 14 15  1  0
 15 16  1  0
 17 18  1  1
 17 16  1  0
 18 19  1  0
 20 18  2  0
M  END
$$$$
