GIP.pdb
     RDKit          3D

 20 20  0  0  1  0  0  0  0  0999 V2000
   19.6932  -11.4520  -19.7808 N   0  0  0  0  0  0  0  0  0  0  0  0
   20.4730  -10.3030  -19.4391 C   0  0  0  0  0  0  0  0  0  0  0  0
   20.4528  -10.0399  -17.9678 C   0  0  0  0  0  0  0  0  0  0  0  0
   19.3639  -10.2227  -17.3713 O   0  0  0  0  0  0  0  0  0  0  0  0
   23.5544  -12.4081  -15.1191 C   0  0  0  0  0  0  0  0  0  0  0  0
   22.4671  -11.4893  -15.5707 C   0  0  0  0  0  0  0  0  0  0  0  0
   22.8411  -10.0219  -15.3504 C   0  0  2  0  0  0  0  0  0  0  0  0
   23.1070   -9.7518  -13.9080 C   0  0  0  0  0  0  0  0  0  0  0  0
   21.7052   -9.2130  -15.9435 C   0  0  2  0  0  0  0  0  0  0  0  0
   21.6487   -9.6108  -17.3710 N   0  0  0  0  0  0  0  0  0  0  0  0
   21.8306   -7.7579  -15.8318 C   0  0  0  0  0  0  0  0  0  0  0  0
   23.0257   -7.2751  -16.0618 O   0  0  0  0  0  0  0  0  0  0  0  0
   20.8632   -6.7991  -15.5219 N   0  0  0  0  0  0  0  0  0  0  0  0
   19.4328   -7.1990  -15.4013 C   0  0  0  0  0  0  0  0  0  0  0  0
   18.9934   -6.2750  -14.2862 C   0  0  0  0  0  0  0  0  0  0  0  0
   19.5154   -4.9556  -14.8683 C   0  0  0  0  0  0  0  0  0  0  0  0
   20.9318   -5.4007  -15.2817 C   0  0  1  0  0  0  0  0  0  0  0  0
   21.7733   -5.0454  -14.1117 C   0  0  0  0  0  0  0  0  0  0  0  0
   22.2172   -3.7631  -13.9499 O   0  0  0  0  0  0  0  0  0  0  0  0
   22.0673   -5.9270  -13.2885 O   0  0  0  0  0  0  0  0  0  0  0  0
  2  1  1  0
  3  2  1  0
  4  3  2  0
  5  6  1  0
  6  7  1  0
  7  9  1  0
  7  8  1  1
  9 11  1  0
  9 10  1  6
 10  3  1  0
 11 13  1  0
 12 11  2  0
 13 17  1  0
 14 13  1  0
 14 15  1  0
 15 16  1  0
 17 18  1  1
 17 16  1  0
 18 19  1  0
 20 18  2  0
M  END
$$$$
