GIP.pdb
     RDKit          3D

 20 20  0  0  1  0  0  0  0  0999 V2000
   22.9926  -11.9261  -19.8526 N   0  0  0  0  0  0  0  0  0  0  0  0
   23.1575  -10.5512  -19.4953 C   0  0  0  0  0  0  0  0  0  0  0  0
   22.1393  -10.1159  -18.4912 C   0  0  0  0  0  0  0  0  0  0  0  0
   20.9333  -10.2958  -18.7881 O   0  0  0  0  0  0  0  0  0  0  0  0
   23.2217  -10.3211  -13.1234 C   0  0  0  0  0  0  0  0  0  0  0  0
   23.1733   -9.9281  -14.5634 C   0  0  0  0  0  0  0  0  0  0  0  0
   21.7582  -10.0479  -15.1333 C   0  0  2  0  0  0  0  0  0  0  0  0
   21.4656  -11.4528  -15.5392 C   0  0  0  0  0  0  0  0  0  0  0  0
   21.6803   -9.0378  -16.2603 C   0  0  2  0  0  0  0  0  0  0  0  0
   22.6100   -9.5424  -17.2996 N   0  0  0  0  0  0  0  0  0  0  0  0
   22.0228   -7.6582  -15.9067 C   0  0  0  0  0  0  0  0  0  0  0  0
   23.2525   -7.4687  -15.4993 O   0  0  0  0  0  0  0  0  0  0  0  0
   21.2356   -6.5049  -15.9435 N   0  0  0  0  0  0  0  0  0  0  0  0
   19.8455   -6.5709  -16.4764 C   0  0  0  0  0  0  0  0  0  0  0  0
   19.1665   -5.5689  -15.5679 C   0  0  0  0  0  0  0  0  0  0  0  0
   20.1468   -4.4030  -15.7464 C   0  0  0  0  0  0  0  0  0  0  0  0
   21.4782   -5.1576  -15.5642 C   0  0  1  0  0  0  0  0  0  0  0  0
   21.7837   -4.9989  -14.1204 C   0  0  0  0  0  0  0  0  0  0  0  0
   22.3476   -3.8417  -13.6615 O   0  0  0  0  0  0  0  0  0  0  0  0
   21.5224   -5.9294  -13.3413 O   0  0  0  0  0  0  0  0  0  0  0  0
  2  1  1  0
  3  2  1  0
  4  3  2  0
  5  6  1  0
  6  7  1  0
  7  9  1  0
  7  8  1  6
  9 11  1  0
  9 10  1  6
 10  3  1  0
 11 13  1  0
 12 11  2  0
 13 17  1  0
 14 13  1  0
 14 15  1  0
 15 16  1  0
 17 18  1  1
 17 16  1  0
 18 19  1  0
 20 18  2  0
M  END
$$$$
