GIP.pdb
     RDKit          3D

 20 20  0  0  1  0  0  0  0  0999 V2000
   18.2410  -13.0828  -17.6060 N   0  0  0  0  0  0  0  0  0  0  0  0
   18.8445  -11.8591  -18.0343 C   0  0  0  0  0  0  0  0  0  0  0  0
   19.1194  -10.9465  -16.8827 C   0  0  0  0  0  0  0  0  0  0  0  0
   18.2300  -10.8571  -16.0018 O   0  0  0  0  0  0  0  0  0  0  0  0
   23.5345  -11.2936  -14.5816 C   0  0  0  0  0  0  0  0  0  0  0  0
   22.1485  -10.9045  -14.9791 C   0  0  0  0  0  0  0  0  0  0  0  0
   22.0878   -9.4555  -15.4674 C   0  0  2  0  0  0  0  0  0  0  0  0
   22.6024   -8.5212  -14.4252 C   0  0  0  0  0  0  0  0  0  0  0  0
   20.6469   -9.2162  -15.8713 C   0  0  2  0  0  0  0  0  0  0  0  0
   20.3459  -10.2639  -16.8769 N   0  0  0  0  0  0  0  0  0  0  0  0
   20.3489   -7.8916  -16.4210 C   0  0  0  0  0  0  0  0  0  0  0  0
   21.2474   -7.4050  -17.2395 O   0  0  0  0  0  0  0  0  0  0  0  0
   19.2430   -7.0650  -16.2097 N   0  0  0  0  0  0  0  0  0  0  0  0
   18.0732   -7.5718  -15.4380 C   0  0  0  0  0  0  0  0  0  0  0  0
   17.6596   -6.3042  -14.7222 C   0  0  0  0  0  0  0  0  0  0  0  0
   17.6029   -5.3685  -15.9362 C   0  0  0  0  0  0  0  0  0  0  0  0
   18.9433   -5.7334  -16.6036 C   0  0  1  0  0  0  0  0  0  0  0  0
   19.8957   -4.7315  -16.0628 C   0  0  0  0  0  0  0  0  0  0  0  0
   19.8774   -3.4466  -16.5279 O   0  0  0  0  0  0  0  0  0  0  0  0
   20.7056   -5.0779  -15.1881 O   0  0  0  0  0  0  0  0  0  0  0  0
  2  1  1  0
  3  2  1  0
  4  3  2  0
  5  6  1  0
  6  7  1  0
  7  9  1  0
  7  8  1  1
  9 11  1  0
  9 10  1  6
 10  3  1  0
 11 13  1  0
 12 11  2  0
 13 17  1  0
 14 13  1  0
 14 15  1  0
 15 16  1  0
 17 18  1  1
 17 16  1  0
 18 19  1  0
 20 18  2  0
M  END
$$$$
