GIP.pdb
     RDKit          3D

 20 20  0  0  1  0  0  0  0  0999 V2000
   28.8953  -21.8102  -16.3395 N   0  0  0  0  0  0  0  0  0  0  0  0
   28.0383  -20.9247  -15.6139 C   0  0  0  0  0  0  0  0  0  0  0  0
   26.9036  -21.6568  -14.9729 C   0  0  0  0  0  0  0  0  0  0  0  0
   26.6494  -22.8065  -15.4073 O   0  0  0  0  0  0  0  0  0  0  0  0
   25.1131  -19.9331   -9.9006 C   0  0  0  0  0  0  0  0  0  0  0  0
   25.2161  -20.0964  -11.3815 C   0  0  0  0  0  0  0  0  0  0  0  0
   25.3899  -21.5646  -11.7761 C   0  0  2  0  0  0  0  0  0  0  0  0
   26.7534  -22.0530  -11.4201 C   0  0  0  0  0  0  0  0  0  0  0  0
   25.0613  -21.6365  -13.2537 C   0  0  2  0  0  0  0  0  0  0  0  0
   26.2138  -21.0035  -13.9395 N   0  0  0  0  0  0  0  0  0  0  0  0
   23.8141  -20.9867  -13.6632 C   0  0  0  0  0  0  0  0  0  0  0  0
   23.7774  -19.6871  -13.5083 O   0  0  0  0  0  0  0  0  0  0  0  0
   22.6524  -21.5433  -14.2033 N   0  0  0  0  0  0  0  0  0  0  0  0
   22.6161  -22.9910  -14.5547 C   0  0  0  0  0  0  0  0  0  0  0  0
   21.1801  -23.3127  -14.2016 C   0  0  0  0  0  0  0  0  0  0  0  0
   20.4982  -22.1786  -14.9770 C   0  0  0  0  0  0  0  0  0  0  0  0
   21.3834  -20.9972  -14.5341 C   0  0  1  0  0  0  0  0  0  0  0  0
   20.6641  -20.4307  -13.3657 C   0  0  0  0  0  0  0  0  0  0  0  0
   19.6170  -19.5731  -13.5544 O   0  0  0  0  0  0  0  0  0  0  0  0
   21.0282  -20.7449  -12.2212 O   0  0  0  0  0  0  0  0  0  0  0  0
  2  1  1  0
  3  2  1  0
  4  3  2  0
  5  6  1  0
  6  7  1  0
  7  9  1  0
  7  8  1  6
  9 11  1  0
  9 10  1  6
 10  3  1  0
 11 13  1  0
 12 11  2  0
 13 17  1  0
 14 13  1  0
 14 15  1  0
 15 16  1  0
 17 18  1  1
 17 16  1  0
 18 19  1  0
 20 18  2  0
M  END
$$$$
