GIP.pdb
     RDKit          3D

 20 20  0  0  1  0  0  0  0  0999 V2000
   14.6236  -15.8501    4.4858 N   0  0  0  0  0  0  0  0  0  0  0  0
   15.3224  -14.9560    5.3560 C   0  0  0  0  0  0  0  0  0  0  0  0
   16.7352  -15.3919    5.5765 C   0  0  0  0  0  0  0  0  0  0  0  0
   17.0832  -16.4802    5.0572 O   0  0  0  0  0  0  0  0  0  0  0  0
   19.9236  -11.2792    6.0047 C   0  0  0  0  0  0  0  0  0  0  0  0
   19.4137  -12.6601    5.7531 C   0  0  0  0  0  0  0  0  0  0  0  0
   19.6406  -13.5735    6.9597 C   0  0  2  0  0  0  0  0  0  0  0  0
   21.0929  -13.6770    7.2826 C   0  0  0  0  0  0  0  0  0  0  0  0
   18.9778  -14.8908    6.6106 C   0  0  2  0  0  0  0  0  0  0  0  0
   17.5586  -14.5532    6.3439 N   0  0  0  0  0  0  0  0  0  0  0  0
   19.0621  -15.9386    7.6305 C   0  0  0  0  0  0  0  0  0  0  0  0
   18.5791  -15.6225    8.8057 O   0  0  0  0  0  0  0  0  0  0  0  0
   19.5761  -17.2343    7.5398 N   0  0  0  0  0  0  0  0  0  0  0  0
   20.2382  -17.6845    6.2830 C   0  0  0  0  0  0  0  0  0  0  0  0
   21.3187  -18.5747    6.8579 C   0  0  0  0  0  0  0  0  0  0  0  0
   20.4383  -19.4354    7.7723 C   0  0  0  0  0  0  0  0  0  0  0  0
   19.6094  -18.3258    8.4484 C   0  0  1  0  0  0  0  0  0  0  0  0
   20.3583  -18.0305    9.6954 C   0  0  0  0  0  0  0  0  0  0  0  0
   20.2744  -18.8790   10.7635 O   0  0  0  0  0  0  0  0  0  0  0  0
   21.0562  -17.0055    9.7531 O   0  0  0  0  0  0  0  0  0  0  0  0
  2  1  1  0
  3  2  1  0
  4  3  2  0
  5  6  1  0
  6  7  1  0
  7  9  1  0
  7  8  1  6
  9 11  1  0
  9 10  1  1
 10  3  1  0
 11 13  1  0
 12 11  2  0
 13 17  1  0
 14 13  1  0
 14 15  1  0
 15 16  1  0
 17 18  1  1
 17 16  1  0
 18 19  1  0
 20 18  2  0
M  END
$$$$
