TFV.pdb
     RDKit          3D

 26 26  0  0  1  0  0  0  0  0999 V2000
   20.7520  -23.2187   -8.0822 C   0  0  0  0  0  0  0  0  0  0  0  0
   21.2806  -22.4614   -9.3035 C   0  0  1  0  0  0  0  0  0  0  0  0
   20.2602  -21.9982  -10.0919 O   0  0  0  0  0  0  0  0  0  0  0  0
   22.0882  -21.3051   -8.7794 C   0  0  2  0  0  0  0  0  0  0  0  0
   21.1704  -20.4193   -8.0857 N   0  0  0  0  0  0  0  0  0  0  0  0
   22.8485  -20.5932   -9.8270 C   0  0  0  0  0  0  0  0  0  0  0  0
   22.4162  -19.4676  -10.2538 O   0  0  0  0  0  0  0  0  0  0  0  0
   24.0477  -21.0637  -10.4142 N   0  0  0  0  0  0  0  0  0  0  0  0
   24.7077  -20.3472  -11.5207 C   0  0  1  0  0  0  0  0  0  0  0  0
   26.1959  -20.6137  -11.4848 C   0  0  0  0  0  0  0  0  0  0  0  0
   26.9195  -19.9682  -12.5901 C   0  0  0  0  0  0  0  0  0  0  0  0
   27.5709  -20.7240  -13.5509 C   0  0  0  0  0  0  0  0  0  0  0  0
   28.2437  -20.1697  -14.6042 C   0  0  0  0  0  0  0  0  0  0  0  0
   28.2813  -18.8013  -14.7241 C   0  0  0  0  0  0  0  0  0  0  0  0
   27.6525  -18.0118  -13.7994 C   0  0  0  0  0  0  0  0  0  0  0  0
   26.9713  -18.6063  -12.7315 C   0  0  0  0  0  0  0  0  0  0  0  0
   24.1294  -20.7063  -12.8115 C   0  0  0  0  0  0  0  0  0  0  0  0
   23.9479  -21.8962  -13.1679 O   0  0  0  0  0  0  0  0  0  0  0  0
   20.7162  -19.8974  -14.2639 C   0  0  0  0  0  0  0  0  0  0  0  0
   21.7489  -19.4463  -15.2377 C   0  0  2  0  0  0  0  0  0  0  0  0
   21.2481  -19.6338  -16.6751 C   0  0  0  0  0  0  0  0  0  0  0  0
   23.0897  -20.1025  -15.0420 C   0  0  2  0  0  0  0  0  0  0  0  0
   23.7150  -19.7284  -13.7924 N   0  0  0  0  0  0  0  0  0  0  0  0
   23.9663  -19.6622  -16.1444 C   0  0  0  0  0  0  0  0  0  0  0  0
   24.2617  -20.4548  -17.2435 O   0  0  0  0  0  0  0  0  0  0  0  0
   24.4738  -18.5203  -16.0966 O   0  0  0  0  0  0  0  0  0  0  0  0
  2  1  1  1
  3  2  1  0
  4  2  1  0
  4  5  1  6
  6  4  1  0
  6  7  2  0
  8  6  1  0
  9  8  1  0
  9 10  1  6
 11 10  1  0
 11 16  2  0
 12 11  1  0
 13 12  2  0
 13 14  1  0
 14 15  2  0
 15 16  1  0
 17  9  1  0
 17 23  1  0
 18 17  2  0
 20 21  1  6
 20 19  1  0
 20 22  1  0
 22 23  1  1
 22 24  1  0
 24 26  2  0
 24 25  1  0
M  END
$$$$
