TFV.pdb
     RDKit          3D

 26 26  0  0  1  0  0  0  0  0999 V2000
   29.6500  -20.6350  -19.1479 C   0  0  0  0  0  0  0  0  0  0  0  0
   28.6636  -20.7026  -17.9787 C   0  0  1  0  0  0  0  0  0  0  0  0
   29.2901  -20.5040  -16.7765 O   0  0  0  0  0  0  0  0  0  0  0  0
   27.6439  -19.6206  -18.2097 C   0  0  2  0  0  0  0  0  0  0  0  0
   28.3701  -18.3747  -18.3787 N   0  0  0  0  0  0  0  0  0  0  0  0
   26.6332  -19.5233  -17.1367 C   0  0  0  0  0  0  0  0  0  0  0  0
   26.6326  -18.4970  -16.3732 O   0  0  0  0  0  0  0  0  0  0  0  0
   25.6380  -20.4956  -16.8750 N   0  0  0  0  0  0  0  0  0  0  0  0
   24.6808  -20.3520  -15.7631 C   0  0  1  0  0  0  0  0  0  0  0  0
   23.3062  -20.7932  -16.2136 C   0  0  0  0  0  0  0  0  0  0  0  0
   22.3008  -20.7141  -15.1437 C   0  0  0  0  0  0  0  0  0  0  0  0
   22.0251  -21.8114  -14.3446 C   0  0  0  0  0  0  0  0  0  0  0  0
   21.1103  -21.7818  -13.3289 C   0  0  0  0  0  0  0  0  0  0  0  0
   20.4279  -20.6150  -13.0814 C   0  0  0  0  0  0  0  0  0  0  0  0
   20.6658  -19.5035  -13.8443 C   0  0  0  0  0  0  0  0  0  0  0  0
   21.6078  -19.5625  -14.8773 C   0  0  0  0  0  0  0  0  0  0  0  0
   25.1193  -21.0867  -14.5810 C   0  0  0  0  0  0  0  0  0  0  0  0
   25.5903  -22.2490  -14.6385 O   0  0  0  0  0  0  0  0  0  0  0  0
   27.0832  -21.3134  -10.1382 C   0  0  0  0  0  0  0  0  0  0  0  0
   26.6332  -20.5964  -11.3637 C   0  0  2  0  0  0  0  0  0  0  0  0
   26.2715  -19.1434  -11.0320 C   0  0  0  0  0  0  0  0  0  0  0  0
   25.5042  -21.2841  -12.0843 C   0  0  2  0  0  0  0  0  0  0  0  0
   25.0513  -20.5449  -13.2423 N   0  0  0  0  0  0  0  0  0  0  0  0
   24.3756  -21.3957  -11.1402 C   0  0  0  0  0  0  0  0  0  0  0  0
   24.2631  -22.4159  -10.2073 O   0  0  0  0  0  0  0  0  0  0  0  0
   23.4699  -20.5341  -11.1731 O   0  0  0  0  0  0  0  0  0  0  0  0
  2  1  1  6
  3  2  1  0
  4  2  1  0
  4  5  1  1
  6  4  1  0
  6  7  2  0
  8  6  1  0
  9  8  1  0
  9 10  1  6
 11 10  1  0
 11 16  2  0
 12 11  1  0
 13 12  2  0
 13 14  1  0
 14 15  2  0
 15 16  1  0
 17  9  1  0
 17 23  1  0
 18 17  2  0
 20 21  1  1
 20 19  1  0
 20 22  1  0
 22 23  1  6
 22 24  1  0
 24 26  2  0
 24 25  1  0
M  END
$$$$
