TFV.pdb
     RDKit          3D

 26 26  0  0  1  0  0  0  0  0999 V2000
   21.5226  -10.8056  -22.4962 C   0  0  0  0  0  0  0  0  0  0  0  0
   21.1173  -10.1295  -21.1834 C   0  0  1  0  0  0  0  0  0  0  0  0
   19.7577   -9.9911  -21.0848 O   0  0  0  0  0  0  0  0  0  0  0  0
   21.6248  -11.0058  -20.0707 C   0  0  2  0  0  0  0  0  0  0  0  0
   21.0060  -12.3092  -20.2337 N   0  0  0  0  0  0  0  0  0  0  0  0
   21.3818  -10.4497  -18.7238 C   0  0  0  0  0  0  0  0  0  0  0  0
   20.4333  -10.9313  -18.0133 O   0  0  0  0  0  0  0  0  0  0  0  0
   22.1298   -9.4010  -18.1367 N   0  0  0  0  0  0  0  0  0  0  0  0
   21.7479   -8.7977  -16.8470 C   0  0  1  0  0  0  0  0  0  0  0  0
   22.9625   -8.6970  -15.9516 C   0  0  0  0  0  0  0  0  0  0  0  0
   22.6551   -8.1249  -14.6325 C   0  0  0  0  0  0  0  0  0  0  0  0
   22.3782   -8.9432  -13.5498 C   0  0  0  0  0  0  0  0  0  0  0  0
   22.1015   -8.4585  -12.3017 C   0  0  0  0  0  0  0  0  0  0  0  0
   22.0953   -7.0989  -12.1019 C   0  0  0  0  0  0  0  0  0  0  0  0
   22.3629   -6.2492  -13.1414 C   0  0  0  0  0  0  0  0  0  0  0  0
   22.6429   -6.7733  -14.4082 C   0  0  0  0  0  0  0  0  0  0  0  0
   21.1086   -7.4990  -17.0318 C   0  0  0  0  0  0  0  0  0  0  0  0
   21.5778   -6.6111  -17.7852 O   0  0  0  0  0  0  0  0  0  0  0  0
   17.6845   -6.6225  -18.3879 C   0  0  0  0  0  0  0  0  0  0  0  0
   17.8192   -5.9757  -17.0530 C   0  0  2  0  0  0  0  0  0  0  0  0
   17.1036   -4.6193  -17.0401 C   0  0  0  0  0  0  0  0  0  0  0  0
   19.2453   -5.8395  -16.5902 C   0  0  2  0  0  0  0  0  0  0  0  0
   19.8823   -7.1190  -16.3670 N   0  0  0  0  0  0  0  0  0  0  0  0
   19.2302   -5.1044  -15.3108 C   0  0  0  0  0  0  0  0  0  0  0  0
   19.5654   -3.7631  -15.2008 O   0  0  0  0  0  0  0  0  0  0  0  0
   18.9007   -5.7098  -14.2674 O   0  0  0  0  0  0  0  0  0  0  0  0
  2  1  1  6
  3  2  1  0
  4  2  1  0
  4  5  1  1
  6  4  1  0
  6  7  2  0
  8  6  1  0
  9  8  1  0
  9 10  1  1
 11 10  1  0
 11 16  2  0
 12 11  1  0
 13 12  2  0
 13 14  1  0
 14 15  2  0
 15 16  1  0
 17  9  1  0
 17 23  1  0
 18 17  2  0
 20 21  1  6
 20 19  1  0
 20 22  1  0
 22 23  1  1
 22 24  1  0
 24 26  2  0
 24 25  1  0
M  END
$$$$
