TFV.pdb
     RDKit          3D

 26 26  0  0  1  0  0  0  0  0999 V2000
   22.9570  -11.4052  -22.2631 C   0  0  0  0  0  0  0  0  0  0  0  0
   22.4031  -10.3821  -21.2675 C   0  0  1  0  0  0  0  0  0  0  0  0
   21.0367  -10.3036  -21.3308 O   0  0  0  0  0  0  0  0  0  0  0  0
   22.8269  -10.8379  -19.8977 C   0  0  2  0  0  0  0  0  0  0  0  0
   22.1809  -12.1146  -19.6506 N   0  0  0  0  0  0  0  0  0  0  0  0
   22.5297   -9.8593  -18.8318 C   0  0  0  0  0  0  0  0  0  0  0  0
   21.4695  -10.0047  -18.1310 O   0  0  0  0  0  0  0  0  0  0  0  0
   23.3408   -8.7442  -18.5111 N   0  0  0  0  0  0  0  0  0  0  0  0
   22.9953   -7.8169  -17.4184 C   0  0  1  0  0  0  0  0  0  0  0  0
   24.0459   -7.8935  -16.3333 C   0  0  0  0  0  0  0  0  0  0  0  0
   24.0186   -9.1674  -15.5996 C   0  0  0  0  0  0  0  0  0  0  0  0
   24.8776  -10.2004  -15.9366 C   0  0  0  0  0  0  0  0  0  0  0  0
   24.8995  -11.3966  -15.2747 C   0  0  0  0  0  0  0  0  0  0  0  0
   24.0337  -11.5928  -14.2258 C   0  0  0  0  0  0  0  0  0  0  0  0
   23.1656  -10.6014  -13.8551 C   0  0  0  0  0  0  0  0  0  0  0  0
   23.1652   -9.3871  -14.5504 C   0  0  0  0  0  0  0  0  0  0  0  0
   22.8276   -6.4522  -17.9073 C   0  0  0  0  0  0  0  0  0  0  0  0
   23.6385   -5.9080  -18.6961 O   0  0  0  0  0  0  0  0  0  0  0  0
   20.4112   -5.2087  -20.1850 C   0  0  0  0  0  0  0  0  0  0  0  0
   20.3053   -4.2721  -19.0318 C   0  0  2  0  0  0  0  0  0  0  0  0
   20.0244   -2.8467  -19.5232 C   0  0  0  0  0  0  0  0  0  0  0  0
   21.5011   -4.3035  -18.1177 C   0  0  2  0  0  0  0  0  0  0  0  0
   21.7173   -5.6071  -17.5290 N   0  0  0  0  0  0  0  0  0  0  0  0
   21.2530   -3.3419  -17.0263 C   0  0  0  0  0  0  0  0  0  0  0  0
   21.6012   -2.0014  -17.1004 O   0  0  0  0  0  0  0  0  0  0  0  0
   20.7022   -3.7434  -15.9778 O   0  0  0  0  0  0  0  0  0  0  0  0
  2  1  1  6
  3  2  1  0
  4  2  1  0
  4  5  1  1
  6  4  1  0
  6  7  2  0
  8  6  1  0
  9  8  1  0
  9 10  1  1
 11 10  1  0
 11 16  2  0
 12 11  1  0
 13 12  2  0
 13 14  1  0
 14 15  2  0
 15 16  1  0
 17  9  1  0
 17 23  1  0
 18 17  2  0
 20 21  1  6
 20 19  1  0
 20 22  1  0
 22 23  1  1
 22 24  1  0
 24 26  2  0
 24 25  1  0
M  END
$$$$
