TFV.pdb
     RDKit          3D

 26 26  0  0  1  0  0  0  0  0999 V2000
   27.2478  -19.7127  -15.8941 C   0  0  0  0  0  0  0  0  0  0  0  0
   27.0191  -21.0710  -16.5631 C   0  0  1  0  0  0  0  0  0  0  0  0
   27.7430  -21.1930  -17.7199 O   0  0  0  0  0  0  0  0  0  0  0  0
   27.4530  -22.1188  -15.5744 C   0  0  2  0  0  0  0  0  0  0  0  0
   27.1970  -23.4134  -16.1802 N   0  0  0  0  0  0  0  0  0  0  0  0
   26.7989  -21.9931  -14.2558 C   0  0  0  0  0  0  0  0  0  0  0  0
   25.6101  -22.4407  -14.1053 O   0  0  0  0  0  0  0  0  0  0  0  0
   27.3924  -21.4036  -13.1137 N   0  0  0  0  0  0  0  0  0  0  0  0
   26.6479  -21.2210  -11.8544 C   0  0  1  0  0  0  0  0  0  0  0  0
   27.5924  -20.7635  -10.7655 C   0  0  0  0  0  0  0  0  0  0  0  0
   26.9181  -20.5477   -9.4768 C   0  0  0  0  0  0  0  0  0  0  0  0
   25.9540  -21.4321   -9.0220 C   0  0  0  0  0  0  0  0  0  0  0  0
   25.3109  -21.2816   -7.8249 C   0  0  0  0  0  0  0  0  0  0  0  0
   25.6283  -20.2071   -7.0293 C   0  0  0  0  0  0  0  0  0  0  0  0
   26.5750  -19.3056   -7.4356 C   0  0  0  0  0  0  0  0  0  0  0  0
   27.2173  -19.4847   -8.6658 C   0  0  0  0  0  0  0  0  0  0  0  0
   25.5327  -20.2947  -12.0213 C   0  0  0  0  0  0  0  0  0  0  0  0
   25.6835  -19.1135  -12.4190 O   0  0  0  0  0  0  0  0  0  0  0  0
   22.4027  -21.1931  -14.1005 C   0  0  0  0  0  0  0  0  0  0  0  0
   22.7632  -19.8391  -13.5954 C   0  0  2  0  0  0  0  0  0  0  0  0
   23.9364  -19.2628  -14.3978 C   0  0  0  0  0  0  0  0  0  0  0  0
   23.0489  -19.8031  -12.1177 C   0  0  2  0  0  0  0  0  0  0  0  0
   24.1593  -20.6519  -11.7449 N   0  0  0  0  0  0  0  0  0  0  0  0
   21.8437  -20.2899  -11.4191 C   0  0  0  0  0  0  0  0  0  0  0  0
   20.7231  -19.5030  -11.1983 O   0  0  0  0  0  0  0  0  0  0  0  0
   21.8195  -21.4681  -11.0008 O   0  0  0  0  0  0  0  0  0  0  0  0
  2  1  1  1
  3  2  1  0
  4  2  1  0
  4  5  1  6
  6  4  1  0
  6  7  2  0
  8  6  1  0
  9  8  1  0
  9 10  1  1
 11 10  1  0
 11 16  2  0
 12 11  1  0
 13 12  2  0
 13 14  1  0
 14 15  2  0
 15 16  1  0
 17  9  1  0
 17 23  1  0
 18 17  2  0
 20 21  1  6
 20 19  1  0
 20 22  1  0
 22 23  1  6
 22 24  1  0
 24 26  2  0
 24 25  1  0
M  END
$$$$
