TFV.pdb
     RDKit          3D

 26 26  0  0  1  0  0  0  0  0999 V2000
   25.1250  -32.6806   -6.4199 C   0  0  0  0  0  0  0  0  0  0  0  0
   25.4113  -32.9734   -7.8954 C   0  0  1  0  0  0  0  0  0  0  0  0
   24.5315  -32.3226   -8.7199 O   0  0  0  0  0  0  0  0  0  0  0  0
   26.8133  -32.4997   -8.1665 C   0  0  2  0  0  0  0  0  0  0  0  0
   27.0821  -32.7357   -9.5738 N   0  0  0  0  0  0  0  0  0  0  0  0
   27.8286  -33.1352   -7.3018 C   0  0  0  0  0  0  0  0  0  0  0  0
   28.4375  -34.1794   -7.7203 O   0  0  0  0  0  0  0  0  0  0  0  0
   28.1950  -32.6738   -6.0145 N   0  0  0  0  0  0  0  0  0  0  0  0
   29.2438  -33.3362   -5.2179 C   0  0  1  0  0  0  0  0  0  0  0  0
   30.3366  -32.3441   -4.8883 C   0  0  0  0  0  0  0  0  0  0  0  0
   31.3579  -32.2472   -5.9415 C   0  0  0  0  0  0  0  0  0  0  0  0
   32.4239  -33.1307   -5.9817 C   0  0  0  0  0  0  0  0  0  0  0  0
   33.3893  -33.0893   -6.9489 C   0  0  0  0  0  0  0  0  0  0  0  0
   33.3074  -32.1312   -7.9306 C   0  0  0  0  0  0  0  0  0  0  0  0
   32.2722  -31.2355   -7.9335 C   0  0  0  0  0  0  0  0  0  0  0  0
   31.2981  -31.3013   -6.9310 C   0  0  0  0  0  0  0  0  0  0  0  0
   28.6942  -33.9488   -4.0129 C   0  0  0  0  0  0  0  0  0  0  0  0
   27.8951  -33.3520   -3.2504 O   0  0  0  0  0  0  0  0  0  0  0  0
   27.0892  -37.5185   -3.8498 C   0  0  0  0  0  0  0  0  0  0  0  0
   28.0112  -37.3456   -2.6929 C   0  0  2  0  0  0  0  0  0  0  0  0
   27.4162  -37.9868   -1.4331 C   0  0  0  0  0  0  0  0  0  0  0  0
   28.3987  -35.9130   -2.4395 C   0  0  2  0  0  0  0  0  0  0  0  0
   29.0187  -35.2927   -3.5899 N   0  0  0  0  0  0  0  0  0  0  0  0
   29.3734  -35.9044   -1.3317 C   0  0  0  0  0  0  0  0  0  0  0  0
   29.0209  -35.6702   -0.0109 O   0  0  0  0  0  0  0  0  0  0  0  0
   30.5796  -36.1175   -1.5835 O   0  0  0  0  0  0  0  0  0  0  0  0
  2  1  1  1
  3  2  1  0
  4  2  1  0
  4  5  1  6
  6  4  1  0
  6  7  2  0
  8  6  1  0
  9  8  1  0
  9 10  1  1
 11 10  1  0
 11 16  2  0
 12 11  1  0
 13 12  2  0
 13 14  1  0
 14 15  2  0
 15 16  1  0
 17  9  1  0
 17 23  1  0
 18 17  2  0
 20 21  1  1
 20 19  1  0
 20 22  1  0
 22 23  1  6
 22 24  1  0
 24 26  2  0
 24 25  1  0
M  END
$$$$
