TFV.pdb
     RDKit          3D

 26 26  0  0  1  0  0  0  0  0999 V2000
   25.9241  -22.5889  -13.7923 C   0  0  0  0  0  0  0  0  0  0  0  0
   25.2927  -22.4748  -12.4020 C   0  0  1  0  0  0  0  0  0  0  0  0
   25.5913  -23.5599  -11.6206 O   0  0  0  0  0  0  0  0  0  0  0  0
   25.8479  -21.2245  -11.7759 C   0  0  2  0  0  0  0  0  0  0  0  0
   25.2978  -21.1344  -10.4352 N   0  0  0  0  0  0  0  0  0  0  0  0
   25.5791  -20.0020  -12.5606 C   0  0  0  0  0  0  0  0  0  0  0  0
   24.5133  -19.3343  -12.3273 O   0  0  0  0  0  0  0  0  0  0  0  0
   26.4240  -19.4928  -13.5759 N   0  0  0  0  0  0  0  0  0  0  0  0
   26.0881  -18.2718  -14.3305 C   0  0  1  0  0  0  0  0  0  0  0  0
   27.3572  -17.5452  -14.7158 C   0  0  0  0  0  0  0  0  0  0  0  0
   27.1140  -16.4041  -15.6106 C   0  0  0  0  0  0  0  0  0  0  0  0
   26.5555  -15.2309  -15.1309 C   0  0  0  0  0  0  0  0  0  0  0  0
   26.3244  -14.1390  -15.9206 C   0  0  0  0  0  0  0  0  0  0  0  0
   26.6578  -14.1981  -17.2524 C   0  0  0  0  0  0  0  0  0  0  0  0
   27.2126  -15.3361  -17.7732 C   0  0  0  0  0  0  0  0  0  0  0  0
   27.4380  -16.4386  -16.9415 C   0  0  0  0  0  0  0  0  0  0  0  0
   25.2669  -18.5732  -15.4986 C   0  0  0  0  0  0  0  0  0  0  0  0
   25.5302  -19.5104  -16.2914 O   0  0  0  0  0  0  0  0  0  0  0  0
   21.2033  -17.3319  -15.8264 C   0  0  0  0  0  0  0  0  0  0  0  0
   21.8288  -18.4259  -16.6204 C   0  0  2  0  0  0  0  0  0  0  0  0
   21.6913  -19.7660  -15.8873 C   0  0  0  0  0  0  0  0  0  0  0  0
   23.2628  -18.1571  -16.9921 C   0  0  2  0  0  0  0  0  0  0  0  0
   24.0811  -17.8232  -15.8470 N   0  0  0  0  0  0  0  0  0  0  0  0
   23.2752  -17.0071  -17.9167 C   0  0  0  0  0  0  0  0  0  0  0  0
   23.6478  -15.7274  -17.5331 O   0  0  0  0  0  0  0  0  0  0  0  0
   22.9351  -17.1824  -19.1072 O   0  0  0  0  0  0  0  0  0  0  0  0
  2  1  1  6
  3  2  1  0
  4  2  1  0
  4  5  1  1
  6  4  1  0
  6  7  2  0
  8  6  1  0
  9  8  1  0
  9 10  1  6
 11 10  1  0
 11 16  2  0
 12 11  1  0
 13 12  2  0
 13 14  1  0
 14 15  2  0
 15 16  1  0
 17  9  1  0
 17 23  1  0
 18 17  2  0
 20 21  1  1
 20 19  1  0
 20 22  1  0
 22 23  1  1
 22 24  1  0
 24 26  2  0
 24 25  1  0
M  END
$$$$
