TFV.pdb
     RDKit          3D

 26 26  0  0  1  0  0  0  0  0999 V2000
   22.0759  -36.3688  -12.3053 C   0  0  0  0  0  0  0  0  0  0  0  0
   23.2058  -36.9246  -13.1765 C   0  0  1  0  0  0  0  0  0  0  0  0
   22.8004  -37.1106  -14.4720 O   0  0  0  0  0  0  0  0  0  0  0  0
   24.3236  -35.9187  -13.1291 C   0  0  2  0  0  0  0  0  0  0  0  0
   25.3386  -36.3595  -14.0692 N   0  0  0  0  0  0  0  0  0  0  0  0
   24.8813  -35.7194  -11.7757 C   0  0  0  0  0  0  0  0  0  0  0  0
   25.3753  -36.7211  -11.1522 O   0  0  0  0  0  0  0  0  0  0  0  0
   24.9167  -34.4803  -11.0920 N   0  0  0  0  0  0  0  0  0  0  0  0
   25.4121  -34.3670   -9.7082 C   0  0  1  0  0  0  0  0  0  0  0  0
   25.7962  -32.9329   -9.4200 C   0  0  0  0  0  0  0  0  0  0  0  0
   26.2418  -32.7276   -8.0339 C   0  0  0  0  0  0  0  0  0  0  0  0
   25.4004  -32.1554   -7.0941 C   0  0  0  0  0  0  0  0  0  0  0  0
   25.7644  -31.9579   -5.7911 C   0  0  0  0  0  0  0  0  0  0  0  0
   27.0202  -32.3411   -5.3853 C   0  0  0  0  0  0  0  0  0  0  0  0
   27.8877  -32.9112   -6.2777 C   0  0  0  0  0  0  0  0  0  0  0  0
   27.4883  -33.1013   -7.6052 C   0  0  0  0  0  0  0  0  0  0  0  0
   24.4330  -34.8636   -8.7468 C   0  0  0  0  0  0  0  0  0  0  0  0
   23.2765  -34.3859   -8.6455 O   0  0  0  0  0  0  0  0  0  0  0  0
   24.9464  -38.5508   -6.5474 C   0  0  0  0  0  0  0  0  0  0  0  0
   23.6379  -37.8600   -6.7179 C   0  0  2  0  0  0  0  0  0  0  0  0
   22.8806  -38.4361   -7.9207 C   0  0  0  0  0  0  0  0  0  0  0  0
   23.7554  -36.3624   -6.8193 C   0  0  2  0  0  0  0  0  0  0  0  0
   24.7052  -35.9460   -7.8278 N   0  0  0  0  0  0  0  0  0  0  0  0
   24.2243  -35.8629   -5.5124 C   0  0  0  0  0  0  0  0  0  0  0  0
   23.3661  -35.4511   -4.5036 O   0  0  0  0  0  0  0  0  0  0  0  0
   25.4537  -35.8032   -5.2915 O   0  0  0  0  0  0  0  0  0  0  0  0
  2  1  1  1
  3  2  1  0
  4  2  1  0
  4  5  1  6
  6  4  1  0
  6  7  2  0
  8  6  1  0
  9  8  1  0
  9 10  1  1
 11 10  1  0
 11 16  2  0
 12 11  1  0
 13 12  2  0
 13 14  1  0
 14 15  2  0
 15 16  1  0
 17  9  1  0
 17 23  1  0
 18 17  2  0
 20 21  1  6
 20 19  1  0
 20 22  1  0
 22 23  1  6
 22 24  1  0
 24 26  2  0
 24 25  1  0
M  END
$$$$
