GFS.pdb
     RDKit          3D

 22 22  0  0  1  0  0  0  0  0999 V2000
    4.6086  -18.7826   22.5410 N   0  0  0  0  0  0  0  0  0  0  0  0
    5.1720  -18.5562   23.8372 C   0  0  0  0  0  0  0  0  0  0  0  0
    6.1373  -17.4303   23.7615 C   0  0  0  0  0  0  0  0  0  0  0  0
    6.3979  -16.8689   22.6523 O   0  0  0  0  0  0  0  0  0  0  0  0
    6.8084  -16.9355   24.9268 N   0  0  0  0  0  0  0  0  0  0  0  0
    7.8109  -15.9286   24.8634 C   0  0  1  0  0  0  0  0  0  0  0  0
    8.0181  -15.1965   26.1660 C   0  0  0  0  0  0  0  0  0  0  0  0
    7.2757  -13.9336   26.2572 C   0  0  0  0  0  0  0  0  0  0  0  0
    7.8465  -12.7789   25.7905 C   0  0  0  0  0  0  0  0  0  0  0  0
    7.2047  -11.5613   25.8481 C   0  0  0  0  0  0  0  0  0  0  0  0
    5.9456  -11.5377   26.4003 C   0  0  0  0  0  0  0  0  0  0  0  0
    5.3648  -12.6949   26.8720 C   0  0  0  0  0  0  0  0  0  0  0  0
    6.0259  -13.8991   26.8033 C   0  0  0  0  0  0  0  0  0  0  0  0
    9.1329  -16.4032   24.3867 C   0  0  0  0  0  0  0  0  0  0  0  0
    9.5285  -17.5092   24.8350 O   0  0  0  0  0  0  0  0  0  0  0  0
   12.7473  -16.2110   21.1519 O   0  0  0  0  0  0  0  0  0  0  0  0
   11.6227  -15.5977   21.6898 C   0  0  0  0  0  0  0  0  0  0  0  0
   11.1071  -16.3779   22.9007 C   0  0  2  0  0  0  0  0  0  0  0  0
    9.9608  -15.7129   23.4828 N   0  0  0  0  0  0  0  0  0  0  0  0
   12.1932  -16.5723   23.8945 C   0  0  0  0  0  0  0  0  0  0  0  0
   13.2891  -17.3612   23.5812 O   0  0  0  0  0  0  0  0  0  0  0  0
   12.1721  -16.0453   25.0371 O   0  0  0  0  0  0  0  0  0  0  0  0
  1  2  1  0
  3  2  1  0
  3  4  2  0
  5  3  1  0
  6  5  1  0
  6 14  1  0
  6  7  1  1
  8  7  1  0
  9  8  2  0
 10  9  1  0
 11 10  2  0
 11 12  1  0
 12 13  2  0
 13  8  1  0
 14 19  1  0
 15 14  2  0
 17 16  1  0
 18 17  1  6
 18 20  1  0
 19 18  1  0
 20 22  2  0
 20 21  1  0
M  END
$$$$
