GFS.pdb
     RDKit          3D

 22 22  0  0  1  0  0  0  0  0999 V2000
    4.6308  -18.1621   21.8160 N   0  0  0  0  0  0  0  0  0  0  0  0
    4.9287  -18.0883   23.2140 C   0  0  0  0  0  0  0  0  0  0  0  0
    6.1213  -17.2266   23.4155 C   0  0  0  0  0  0  0  0  0  0  0  0
    6.7827  -16.7872   22.4242 O   0  0  0  0  0  0  0  0  0  0  0  0
    6.5706  -16.8590   24.7255 N   0  0  0  0  0  0  0  0  0  0  0  0
    7.7465  -16.0892   24.9436 C   0  0  1  0  0  0  0  0  0  0  0  0
    7.7622  -15.3683   26.2687 C   0  0  0  0  0  0  0  0  0  0  0  0
    7.2605  -13.9908   26.1965 C   0  0  0  0  0  0  0  0  0  0  0  0
    5.9745  -13.7188   26.5827 C   0  0  0  0  0  0  0  0  0  0  0  0
    5.4421  -12.4490   26.5375 C   0  0  0  0  0  0  0  0  0  0  0  0
    6.2573  -11.4392   26.0831 C   0  0  0  0  0  0  0  0  0  0  0  0
    7.5519  -11.7049   25.6928 C   0  0  0  0  0  0  0  0  0  0  0  0
    8.0610  -12.9815   25.7470 C   0  0  0  0  0  0  0  0  0  0  0  0
    9.0139  -16.8496   24.8182 C   0  0  0  0  0  0  0  0  0  0  0  0
    9.1087  -17.9012   25.5006 O   0  0  0  0  0  0  0  0  0  0  0  0
   12.4396  -15.7414   22.5898 O   0  0  0  0  0  0  0  0  0  0  0  0
   11.9674  -17.0465   22.5256 C   0  0  0  0  0  0  0  0  0  0  0  0
   11.1937  -17.4057   23.7956 C   0  0  2  0  0  0  0  0  0  0  0  0
   10.0989  -16.4815   24.0019 N   0  0  0  0  0  0  0  0  0  0  0  0
   12.1066  -17.4467   24.9662 C   0  0  0  0  0  0  0  0  0  0  0  0
   13.1606  -18.3465   24.9945 O   0  0  0  0  0  0  0  0  0  0  0  0
   11.9716  -16.6881   25.9611 O   0  0  0  0  0  0  0  0  0  0  0  0
  1  2  1  0
  3  2  1  0
  3  4  2  0
  5  3  1  0
  6  5  1  0
  6 14  1  0
  6  7  1  1
  8  7  1  0
  9  8  2  0
 10  9  1  0
 11 10  2  0
 11 12  1  0
 12 13  2  0
 13  8  1  0
 14 19  1  0
 15 14  2  0
 17 16  1  0
 18 17  1  6
 18 20  1  0
 19 18  1  0
 20 22  2  0
 20 21  1  0
M  END
$$$$
