GFS.pdb
     RDKit          3D

 22 22  0  0  1  0  0  0  0  0999 V2000
    5.0645  -20.1615   22.3167 N   0  0  0  0  0  0  0  0  0  0  0  0
    5.3940  -19.8535   23.6751 C   0  0  0  0  0  0  0  0  0  0  0  0
    6.0277  -18.5117   23.7329 C   0  0  0  0  0  0  0  0  0  0  0  0
    6.3496  -17.8967   22.6692 O   0  0  0  0  0  0  0  0  0  0  0  0
    6.2996  -17.8617   24.9805 N   0  0  0  0  0  0  0  0  0  0  0  0
    6.9294  -16.5889   25.0594 C   0  0  1  0  0  0  0  0  0  0  0  0
    6.6821  -15.8698   26.3624 C   0  0  0  0  0  0  0  0  0  0  0  0
    7.0867  -14.4591   26.3433 C   0  0  0  0  0  0  0  0  0  0  0  0
    6.1711  -13.4980   26.0040 C   0  0  0  0  0  0  0  0  0  0  0  0
    6.4867  -12.1575   25.9647 C   0  0  0  0  0  0  0  0  0  0  0  0
    7.7767  -11.8038   26.2833 C   0  0  0  0  0  0  0  0  0  0  0  0
    8.7033  -12.7647   26.6256 C   0  0  0  0  0  0  0  0  0  0  0  0
    8.3641  -14.0973   26.6576 C   0  0  0  0  0  0  0  0  0  0  0  0
    8.3921  -16.6079   24.8145 C   0  0  0  0  0  0  0  0  0  0  0  0
    9.0764  -17.3604   25.5535 O   0  0  0  0  0  0  0  0  0  0  0  0
   10.1436  -14.8189   21.4782 O   0  0  0  0  0  0  0  0  0  0  0  0
   10.5327  -16.0871   21.8912 C   0  0  0  0  0  0  0  0  0  0  0  0
   10.3883  -16.2311   23.4074 C   0  0  2  0  0  0  0  0  0  0  0  0
    9.0557  -15.8548   23.8288 N   0  0  0  0  0  0  0  0  0  0  0  0
   11.4306  -15.4373   24.1064 C   0  0  0  0  0  0  0  0  0  0  0  0
   11.0694  -14.5242   25.0847 O   0  0  0  0  0  0  0  0  0  0  0  0
   12.6577  -15.5516   23.8518 O   0  0  0  0  0  0  0  0  0  0  0  0
  1  2  1  0
  3  2  1  0
  3  4  2  0
  5  3  1  0
  6  5  1  0
  6 14  1  0
  6  7  1  1
  8  7  1  0
  9  8  2  0
 10  9  1  0
 11 10  2  0
 11 12  1  0
 12 13  2  0
 13  8  1  0
 14 19  1  0
 15 14  2  0
 17 16  1  0
 18 17  1  6
 18 20  1  0
 19 18  1  0
 20 22  2  0
 20 21  1  0
M  END
$$$$
