GFS.pdb
     RDKit          3D

 22 22  0  0  1  0  0  0  0  0999 V2000
    6.6440  -14.2412   20.3793 N   0  0  0  0  0  0  0  0  0  0  0  0
    6.3180  -15.0172   21.5370 C   0  0  0  0  0  0  0  0  0  0  0  0
    7.4407  -14.9456   22.5064 C   0  0  0  0  0  0  0  0  0  0  0  0
    8.5556  -14.4349   22.1755 O   0  0  0  0  0  0  0  0  0  0  0  0
    7.3129  -15.4453   23.8431 N   0  0  0  0  0  0  0  0  0  0  0  0
    8.3520  -15.3277   24.8071 C   0  0  1  0  0  0  0  0  0  0  0  0
    7.8547  -15.0493   26.2039 C   0  0  0  0  0  0  0  0  0  0  0  0
    7.3445  -13.6854   26.3872 C   0  0  0  0  0  0  0  0  0  0  0  0
    8.2267  -12.6433   26.5006 C   0  0  0  0  0  0  0  0  0  0  0  0
    7.8137  -11.3409   26.6763 C   0  0  0  0  0  0  0  0  0  0  0  0
    6.4592  -11.1115   26.7360 C   0  0  0  0  0  0  0  0  0  0  0  0
    5.5656  -12.1544   26.6229 C   0  0  0  0  0  0  0  0  0  0  0  0
    6.0025  -13.4468   26.4479 C   0  0  0  0  0  0  0  0  0  0  0  0
    9.2710  -16.4903   24.8688 C   0  0  0  0  0  0  0  0  0  0  0  0
    8.7448  -17.6126   25.0789 O   0  0  0  0  0  0  0  0  0  0  0  0
   13.3950  -16.3054   24.2352 O   0  0  0  0  0  0  0  0  0  0  0  0
   12.7122  -17.4485   23.8385 C   0  0  0  0  0  0  0  0  0  0  0  0
   11.4483  -17.6434   24.6783 C   0  0  2  0  0  0  0  0  0  0  0  0
   10.6674  -16.4251   24.7111 N   0  0  0  0  0  0  0  0  0  0  0  0
   11.7987  -18.1088   26.0443 C   0  0  0  0  0  0  0  0  0  0  0  0
   12.5143  -19.2834   26.2162 O   0  0  0  0  0  0  0  0  0  0  0  0
   11.4723  -17.4773   27.0827 O   0  0  0  0  0  0  0  0  0  0  0  0
  1  2  1  0
  3  2  1  0
  3  4  2  0
  5  3  1  0
  6  5  1  0
  6 14  1  0
  6  7  1  1
  8  7  1  0
  9  8  2  0
 10  9  1  0
 11 10  2  0
 11 12  1  0
 12 13  2  0
 13  8  1  0
 14 19  1  0
 15 14  2  0
 17 16  1  0
 18 17  1  6
 18 20  1  0
 19 18  1  0
 20 22  2  0
 20 21  1  0
M  END
$$$$
