GFS.pdb
     RDKit          3D

 22 22  0  0  1  0  0  0  0  0999 V2000
    4.6773  -17.4883   21.2594 N   0  0  0  0  0  0  0  0  0  0  0  0
    5.0243  -17.6808   22.6346 C   0  0  0  0  0  0  0  0  0  0  0  0
    6.1944  -16.8293   22.9680 C   0  0  0  0  0  0  0  0  0  0  0  0
    6.8634  -16.2544   22.0540 O   0  0  0  0  0  0  0  0  0  0  0  0
    6.6129  -16.6234   24.3228 N   0  0  0  0  0  0  0  0  0  0  0  0
    7.7451  -15.8326   24.6627 C   0  0  1  0  0  0  0  0  0  0  0  0
    7.7564  -15.3763   26.1005 C   0  0  0  0  0  0  0  0  0  0  0  0
    7.2635  -14.0066   26.2884 C   0  0  0  0  0  0  0  0  0  0  0  0
    8.0856  -12.9478   26.0056 C   0  0  0  0  0  0  0  0  0  0  0  0
    7.6855  -11.6389   26.1622 C   0  0  0  0  0  0  0  0  0  0  0  0
    6.4078  -11.4207   26.6211 C   0  0  0  0  0  0  0  0  0  0  0  0
    5.5750  -12.4805   26.9078 C   0  0  0  0  0  0  0  0  0  0  0  0
    5.9975  -13.7790   26.7433 C   0  0  0  0  0  0  0  0  0  0  0  0
    9.0526  -16.4696   24.3715 C   0  0  0  0  0  0  0  0  0  0  0  0
    9.1962  -17.6588   24.7532 O   0  0  0  0  0  0  0  0  0  0  0  0
   13.1543  -16.6712   21.8143 O   0  0  0  0  0  0  0  0  0  0  0  0
   12.0262  -15.9427   22.1705 C   0  0  0  0  0  0  0  0  0  0  0  0
   11.2867  -16.6197   23.3261 C   0  0  2  0  0  0  0  0  0  0  0  0
   10.1251  -15.8454   23.7087 N   0  0  0  0  0  0  0  0  0  0  0  0
   12.2040  -16.8381   24.4732 C   0  0  0  0  0  0  0  0  0  0  0  0
   13.2753  -17.7091   24.3505 O   0  0  0  0  0  0  0  0  0  0  0  0
   12.0576  -16.2596   25.5811 O   0  0  0  0  0  0  0  0  0  0  0  0
  1  2  1  0
  3  2  1  0
  3  4  2  0
  5  3  1  0
  6  5  1  0
  6 14  1  0
  6  7  1  1
  8  7  1  0
  9  8  2  0
 10  9  1  0
 11 10  2  0
 11 12  1  0
 12 13  2  0
 13  8  1  0
 14 19  1  0
 15 14  2  0
 17 16  1  0
 18 17  1  6
 18 20  1  0
 19 18  1  0
 20 22  2  0
 20 21  1  0
M  END
$$$$
