GFS.pdb
     RDKit          3D

 22 22  0  0  1  0  0  0  0  0999 V2000
    4.5949  -18.7449   22.2272 N   0  0  0  0  0  0  0  0  0  0  0  0
    5.1553  -18.7526   23.5442 C   0  0  0  0  0  0  0  0  0  0  0  0
    6.1948  -17.6964   23.6400 C   0  0  0  0  0  0  0  0  0  0  0  0
    6.7389  -17.2211   22.5954 O   0  0  0  0  0  0  0  0  0  0  0  0
    6.6227  -17.1750   24.9041 N   0  0  0  0  0  0  0  0  0  0  0  0
    7.7016  -16.2566   25.0280 C   0  0  1  0  0  0  0  0  0  0  0  0
    7.6974  -15.4877   26.3259 C   0  0  0  0  0  0  0  0  0  0  0  0
    7.2173  -14.1072   26.1919 C   0  0  0  0  0  0  0  0  0  0  0  0
    6.0685  -13.7259   26.8337 C   0  0  0  0  0  0  0  0  0  0  0  0
    5.5632  -12.4472   26.7474 C   0  0  0  0  0  0  0  0  0  0  0  0
    6.2611  -11.5438   25.9809 C   0  0  0  0  0  0  0  0  0  0  0  0
    7.4173  -11.9197   25.3323 C   0  0  0  0  0  0  0  0  0  0  0  0
    7.9021  -13.2029   25.4338 C   0  0  0  0  0  0  0  0  0  0  0  0
    9.0465  -16.8572   24.8530 C   0  0  0  0  0  0  0  0  0  0  0  0
    9.3292  -17.8298   25.5978 O   0  0  0  0  0  0  0  0  0  0  0  0
   11.9981  -15.5641   22.1371 O   0  0  0  0  0  0  0  0  0  0  0  0
   11.8158  -16.9246   22.3519 C   0  0  0  0  0  0  0  0  0  0  0  0
   11.2301  -17.1798   23.7420 C   0  0  2  0  0  0  0  0  0  0  0  0
   10.0114  -16.4211   23.9268 N   0  0  0  0  0  0  0  0  0  0  0  0
   12.2334  -16.8731   24.7930 C   0  0  0  0  0  0  0  0  0  0  0  0
   11.9284  -15.9755   25.8043 O   0  0  0  0  0  0  0  0  0  0  0  0
   13.3768  -17.3982   24.8160 O   0  0  0  0  0  0  0  0  0  0  0  0
  1  2  1  0
  3  2  1  0
  3  4  2  0
  5  3  1  0
  6  5  1  0
  6 14  1  0
  6  7  1  1
  8  7  1  0
  9  8  2  0
 10  9  1  0
 11 10  2  0
 11 12  1  0
 12 13  2  0
 13  8  1  0
 14 19  1  0
 15 14  2  0
 17 16  1  0
 18 17  1  6
 18 20  1  0
 19 18  1  0
 20 22  2  0
 20 21  1  0
M  END
$$$$
