GFS.pdb
     RDKit          3D

 22 22  0  0  1  0  0  0  0  0999 V2000
    7.6020  -14.2012   19.9158 N   0  0  0  0  0  0  0  0  0  0  0  0
    7.0505  -15.1006   20.8830 C   0  0  0  0  0  0  0  0  0  0  0  0
    7.8118  -14.9815   22.1524 C   0  0  0  0  0  0  0  0  0  0  0  0
    8.9905  -14.5082   22.1633 O   0  0  0  0  0  0  0  0  0  0  0  0
    7.2525  -15.3920   23.4060 N   0  0  0  0  0  0  0  0  0  0  0  0
    7.9825  -15.3354   24.6254 C   0  0  1  0  0  0  0  0  0  0  0  0
    7.1218  -15.0699   25.8355 C   0  0  0  0  0  0  0  0  0  0  0  0
    6.9323  -13.6431   26.1229 C   0  0  0  0  0  0  0  0  0  0  0  0
    5.6638  -13.1436   26.2585 C   0  0  0  0  0  0  0  0  0  0  0  0
    5.4173  -11.8149   26.5260 C   0  0  0  0  0  0  0  0  0  0  0  0
    6.5061  -10.9853   26.6559 C   0  0  0  0  0  0  0  0  0  0  0  0
    7.7851  -11.4802   26.5208 C   0  0  0  0  0  0  0  0  0  0  0  0
    8.0058  -12.8112   26.2537 C   0  0  0  0  0  0  0  0  0  0  0  0
    8.8121  -16.5329   24.9041 C   0  0  0  0  0  0  0  0  0  0  0  0
    8.3471  -17.6390   24.5287 O   0  0  0  0  0  0  0  0  0  0  0  0
   11.6953  -18.0331   23.4335 O   0  0  0  0  0  0  0  0  0  0  0  0
   12.0508  -17.6860   24.7309 C   0  0  0  0  0  0  0  0  0  0  0  0
   10.8346  -17.7363   25.6577 C   0  0  2  0  0  0  0  0  0  0  0  0
   10.0623  -16.5169   25.5489 N   0  0  0  0  0  0  0  0  0  0  0  0
   11.2580  -17.9958   27.0572 C   0  0  0  0  0  0  0  0  0  0  0  0
   11.9620  -19.1487   27.3680 O   0  0  0  0  0  0  0  0  0  0  0  0
   11.0056  -17.2041   28.0022 O   0  0  0  0  0  0  0  0  0  0  0  0
  1  2  1  0
  3  2  1  0
  3  4  2  0
  5  3  1  0
  6  5  1  0
  6 14  1  0
  6  7  1  1
  8  7  1  0
  9  8  2  0
 10  9  1  0
 11 10  2  0
 11 12  1  0
 12 13  2  0
 13  8  1  0
 14 19  1  0
 15 14  2  0
 17 16  1  0
 18 17  1  6
 18 20  1  0
 19 18  1  0
 20 22  2  0
 20 21  1  0
M  END
$$$$
