RKM.pdb
     RDKit          3D

 29 28  0  0  1  0  0  0  0  0999 V2000
   30.9146  -23.4039  -17.8167 N   0  0  0  0  0  0  0  0  0  0  0  0
   30.4665  -23.7019  -16.5025 C   0  0  0  0  0  0  0  0  0  0  0  0
   31.2412  -24.3159  -15.7068 N   0  0  0  0  0  0  0  0  0  0  0  0
   29.1738  -23.3204  -16.0822 N   0  0  0  0  0  0  0  0  0  0  0  0
   28.6684  -22.0222  -16.3709 C   0  0  0  0  0  0  0  0  0  0  0  0
   29.4102  -20.8906  -15.6861 C   0  0  0  0  0  0  0  0  0  0  0  0
   28.4410  -19.7778  -15.3853 C   0  0  0  0  0  0  0  0  0  0  0  0
   27.0008  -20.2637  -15.4085 C   0  0  2  0  0  0  0  0  0  0  0  0
   26.3185  -19.8524  -16.5951 N   0  0  0  0  0  0  0  0  0  0  0  0
   26.3078  -19.7398  -14.2174 C   0  0  0  0  0  0  0  0  0  0  0  0
   26.2676  -18.5086  -13.9303 O   0  0  0  0  0  0  0  0  0  0  0  0
   31.0190  -24.6167  -14.7341 N   0  0  0  0  0  0  0  0  0  0  0  0
   25.6530  -20.6264  -13.3427 C   0  0  2  0  0  0  0  0  0  0  0  0
   24.9274  -20.1987  -12.1649 C   0  0  0  0  0  0  0  0  0  0  0  0
   23.5288  -20.7706  -12.2402 C   0  0  0  0  0  0  0  0  0  0  0  0
   22.6992  -20.1343  -13.3080 C   0  0  0  0  0  0  0  0  0  0  0  0
   21.3568  -20.7906  -13.3733 C   0  0  0  0  0  0  0  0  0  0  0  0
   20.4493  -20.2328  -14.4206 N   0  0  0  0  0  0  0  0  0  0  0  0
   19.2299  -21.0575  -14.4025 C   0  0  0  0  0  0  0  0  0  0  0  0
   25.5920  -20.8437  -10.9801 O   0  0  0  0  0  0  0  0  0  0  0  0
   25.8722  -22.0679  -10.9774 C   0  0  0  0  0  0  0  0  0  0  0  0
   29.1346  -19.5007   -4.0054 S   0  0  0  0  0  0  0  0  0  0  0  0
   28.5191  -19.0610   -5.6131 C   0  0  0  0  0  0  0  0  0  0  0  0
   27.5037  -20.2440   -6.4502 C   0  0  0  0  0  0  0  0  0  0  0  0
   27.1512  -19.8174   -7.8353 C   0  0  1  0  0  0  0  0  0  0  0  0
   26.2747  -20.7605   -8.5910 N   0  0  0  0  0  0  0  0  0  0  0  0
   25.9143  -20.0738   -9.8420 C   0  0  0  0  0  0  0  0  0  0  0  0
   25.0337  -21.0788   -7.8590 O   0  0  0  0  0  0  0  0  0  0  0  0
   25.0961  -21.9777   -6.7714 O   0  0  0  0  0  0  0  0  0  0  0  0
  2  3  2  0
  2  1  1  0
  4  2  1  0
  5  4  1  0
  6  7  1  0
  6  5  1  0
  7  8  1  0
  8 10  1  0
  8  9  1  6
 10 12  1  0
 11 10  2  0
 12 13  1  0
 13 19  1  0
 13 14  1  6
 15 14  1  0
 16 17  1  0
 16 15  1  0
 18 17  1  0
 19 20  2  0
 19 26  1  0
 22 21  1  0
 23 22  1  0
 24 23  1  0
 25 24  1  6
 25 27  1  0
 26 25  1  0
 27 28  1  0
 29 27  2  0
M  END
$$$$
