RKM.pdb
     RDKit          3D

 29 28  0  0  1  0  0  0  0  0999 V2000
   23.5130  -16.5328  -15.8706 N   0  0  0  0  0  0  0  0  0  0  0  0
   24.8748  -16.1759  -16.0580 C   0  0  0  0  0  0  0  0  0  0  0  0
   25.6838  -17.0364  -16.5223 N   0  0  0  0  0  0  0  0  0  0  0  0
   25.3272  -14.8787  -15.7327 N   0  0  0  0  0  0  0  0  0  0  0  0
   24.4296  -13.9036  -15.2153 C   0  0  0  0  0  0  0  0  0  0  0  0
   23.8660  -12.9525  -16.2534 C   0  0  0  0  0  0  0  0  0  0  0  0
   22.8853  -12.0229  -15.5882 C   0  0  0  0  0  0  0  0  0  0  0  0
   21.4521  -12.3400  -15.9830 C   0  0  2  0  0  0  0  0  0  0  0  0
   21.3837  -13.4112  -16.9269 N   0  0  0  0  0  0  0  0  0  0  0  0
   20.8399  -11.1246  -16.5499 C   0  0  0  0  0  0  0  0  0  0  0  0
   21.0265  -10.7527  -17.7444 O   0  0  0  0  0  0  0  0  0  0  0  0
   26.7045  -16.9031  -16.6847 N   0  0  0  0  0  0  0  0  0  0  0  0
   20.0058  -10.3228  -15.7491 C   0  0  1  0  0  0  0  0  0  0  0  0
   19.3963   -9.0926  -16.2093 C   0  0  0  0  0  0  0  0  0  0  0  0
   18.0347   -8.9706  -15.5612 C   0  0  0  0  0  0  0  0  0  0  0  0
   17.1078  -10.0773  -15.9474 C   0  0  0  0  0  0  0  0  0  0  0  0
   15.7696   -9.8698  -15.3128 C   0  0  0  0  0  0  0  0  0  0  0  0
   14.7756  -10.9456  -15.6066 N   0  0  0  0  0  0  0  0  0  0  0  0
   15.2092  -11.5878  -16.8584 C   0  0  0  0  0  0  0  0  0  0  0  0
   20.2299   -7.9612  -15.6738 O   0  0  0  0  0  0  0  0  0  0  0  0
   20.8137   -8.0507  -14.5655 C   0  0  0  0  0  0  0  0  0  0  0  0
   26.2613   -3.5961  -16.5847 S   0  0  0  0  0  0  0  0  0  0  0  0
   25.0254   -4.8237  -16.9349 C   0  0  0  0  0  0  0  0  0  0  0  0
   23.4528   -4.6484  -16.1429 C   0  0  0  0  0  0  0  0  0  0  0  0
   22.5045   -5.7411  -16.5050 C   0  0  1  0  0  0  0  0  0  0  0  0
   21.1622   -5.6638  -15.8562 N   0  0  0  0  0  0  0  0  0  0  0  0
   20.3700   -6.7700  -16.4175 C   0  0  0  0  0  0  0  0  0  0  0  0
   20.4696   -4.3954  -16.1539 O   0  0  0  0  0  0  0  0  0  0  0  0
   20.6956   -3.2826  -15.3140 O   0  0  0  0  0  0  0  0  0  0  0  0
  2  3  2  0
  2  1  1  0
  4  2  1  0
  5  4  1  0
  6  7  1  0
  6  5  1  0
  7  8  1  0
  8 10  1  0
  8  9  1  6
 10 12  1  0
 11 10  2  0
 12 13  1  0
 13 19  1  0
 13 14  1  6
 15 14  1  0
 16 17  1  0
 16 15  1  0
 18 17  1  0
 19 20  2  0
 19 26  1  0
 22 21  1  0
 23 22  1  0
 24 23  1  0
 25 24  1  1
 25 27  1  0
 26 25  1  0
 27 28  1  0
 29 27  2  0
M  END
$$$$
