RKM.pdb
     RDKit          3D

 29 28  0  0  1  0  0  0  0  0999 V2000
   29.1804  -15.1460  -21.5013 N   0  0  0  0  0  0  0  0  0  0  0  0
   28.8224  -13.8590  -21.0196 C   0  0  0  0  0  0  0  0  0  0  0  0
   29.5336  -12.8571  -21.3377 N   0  0  0  0  0  0  0  0  0  0  0  0
   27.6882  -13.6918  -20.1957 N   0  0  0  0  0  0  0  0  0  0  0  0
   26.4672  -14.3580  -20.4947 C   0  0  0  0  0  0  0  0  0  0  0  0
   26.5558  -15.8719  -20.4812 C   0  0  0  0  0  0  0  0  0  0  0  0
   25.3186  -16.4315  -19.8297 C   0  0  0  0  0  0  0  0  0  0  0  0
   25.4581  -16.4944  -18.3173 C   0  0  2  0  0  0  0  0  0  0  0  0
   26.8228  -16.6243  -17.9128 N   0  0  0  0  0  0  0  0  0  0  0  0
   24.6704  -17.6365  -17.8189 C   0  0  0  0  0  0  0  0  0  0  0  0
   23.7404  -18.1749  -18.4861 O   0  0  0  0  0  0  0  0  0  0  0  0
   29.4093  -11.8778  -21.0038 N   0  0  0  0  0  0  0  0  0  0  0  0
   24.9434  -18.1726  -16.5467 C   0  0  1  0  0  0  0  0  0  0  0  0
   24.2507  -19.3184  -15.9956 C   0  0  0  0  0  0  0  0  0  0  0  0
   25.1105  -19.9050  -14.8977 C   0  0  0  0  0  0  0  0  0  0  0  0
   24.5406  -21.1618  -14.3242 C   0  0  0  0  0  0  0  0  0  0  0  0
   25.5113  -21.7735  -13.3648 C   0  0  0  0  0  0  0  0  0  0  0  0
   25.1109  -23.1211  -12.8595 N   0  0  0  0  0  0  0  0  0  0  0  0
   26.1581  -23.5438  -11.9151 C   0  0  0  0  0  0  0  0  0  0  0  0
   23.0027  -18.8020  -15.3343 O   0  0  0  0  0  0  0  0  0  0  0  0
   23.0587  -17.9486  -14.4147 C   0  0  0  0  0  0  0  0  0  0  0  0
   15.8370  -16.2500  -16.6322 S   0  0  0  0  0  0  0  0  0  0  0  0
   17.3923  -17.0122  -17.0285 C   0  0  0  0  0  0  0  0  0  0  0  0
   18.3765  -17.6066  -15.6835 C   0  0  0  0  0  0  0  0  0  0  0  0
   19.7126  -18.1001  -16.1263 C   0  0  1  0  0  0  0  0  0  0  0  0
   20.5310  -18.7647  -15.0693 N   0  0  0  0  0  0  0  0  0  0  0  0
   21.7368  -19.2738  -15.7425 C   0  0  0  0  0  0  0  0  0  0  0  0
   19.8262  -19.9032  -14.4496 O   0  0  0  0  0  0  0  0  0  0  0  0
   18.9897  -19.6626  -13.3374 O   0  0  0  0  0  0  0  0  0  0  0  0
  2  3  2  0
  2  1  1  0
  4  2  1  0
  5  4  1  0
  6  7  1  0
  6  5  1  0
  7  8  1  0
  8 10  1  0
  8  9  1  6
 10 12  1  0
 11 10  2  0
 12 13  1  0
 13 19  1  0
 13 14  1  6
 15 14  1  0
 16 17  1  0
 16 15  1  0
 18 17  1  0
 19 20  2  0
 19 26  1  0
 22 21  1  0
 23 22  1  0
 24 23  1  0
 25 24  1  1
 25 27  1  0
 26 25  1  0
 27 28  1  0
 29 27  2  0
M  END
$$$$
