RKM.pdb
     RDKit          3D

 29 28  0  0  1  0  0  0  0  0999 V2000
   20.4682  -22.6136  -10.3114 N   0  0  0  0  0  0  0  0  0  0  0  0
   19.5853  -22.8907  -11.3887 C   0  0  0  0  0  0  0  0  0  0  0  0
   18.6457  -23.7273  -11.2218 N   0  0  0  0  0  0  0  0  0  0  0  0
   19.7478  -22.2441  -12.6331 N   0  0  0  0  0  0  0  0  0  0  0  0
   20.9954  -21.6630  -12.9938 C   0  0  0  0  0  0  0  0  0  0  0  0
   21.6624  -20.8668  -11.8888 C   0  0  0  0  0  0  0  0  0  0  0  0
   22.8812  -20.1787  -12.4449 C   0  0  0  0  0  0  0  0  0  0  0  0
   24.1266  -21.0389  -12.3047 C   0  0  2  0  0  0  0  0  0  0  0  0
   24.5676  -21.1213  -10.9476 N   0  0  0  0  0  0  0  0  0  0  0  0
   25.1909  -20.4681  -13.1501 C   0  0  0  0  0  0  0  0  0  0  0  0
   25.9077  -19.4907  -12.7883 O   0  0  0  0  0  0  0  0  0  0  0  0
   17.9506  -24.0293  -11.9370 N   0  0  0  0  0  0  0  0  0  0  0  0
   25.4429  -21.0149  -14.4220 C   0  0  2  0  0  0  0  0  0  0  0  0
   26.4925  -20.5447  -15.3017 C   0  0  0  0  0  0  0  0  0  0  0  0
   26.6985  -21.5809  -16.3846 C   0  0  0  0  0  0  0  0  0  0  0  0
   27.4731  -22.7679  -15.9109 C   0  0  0  0  0  0  0  0  0  0  0  0
   27.7902  -23.6662  -17.0639 C   0  0  0  0  0  0  0  0  0  0  0  0
   28.5936  -24.8724  -16.7016 N   0  0  0  0  0  0  0  0  0  0  0  0
   29.8585  -24.3792  -16.1323 C   0  0  0  0  0  0  0  0  0  0  0  0
   25.9744  -19.3083  -15.9833 O   0  0  0  0  0  0  0  0  0  0  0  0
   24.8064  -19.2589  -16.4422 C   0  0  0  0  0  0  0  0  0  0  0  0
   27.5938  -12.6074  -14.7570 S   0  0  0  0  0  0  0  0  0  0  0  0
   27.8903  -13.2275  -16.3955 C   0  0  0  0  0  0  0  0  0  0  0  0
   26.8366  -14.5226  -16.9815 C   0  0  0  0  0  0  0  0  0  0  0  0
   27.1295  -15.8350  -16.3361 C   0  0  1  0  0  0  0  0  0  0  0  0
   26.2686  -16.9714  -16.7789 N   0  0  0  0  0  0  0  0  0  0  0  0
   26.8023  -18.1733  -16.1180 C   0  0  0  0  0  0  0  0  0  0  0  0
   26.3230  -17.1783  -18.2388 O   0  0  0  0  0  0  0  0  0  0  0  0
   27.3427  -17.9964  -18.7732 O   0  0  0  0  0  0  0  0  0  0  0  0
  2  3  2  0
  2  1  1  0
  4  2  1  0
  5  4  1  0
  6  7  1  0
  6  5  1  0
  7  8  1  0
  8 10  1  0
  8  9  1  1
 10 12  1  0
 11 10  2  0
 12 13  1  0
 13 19  1  0
 13 14  1  1
 15 14  1  0
 16 17  1  0
 16 15  1  0
 18 17  1  0
 19 20  2  0
 19 26  1  0
 22 21  1  0
 23 22  1  0
 24 23  1  0
 25 24  1  1
 25 27  1  0
 26 25  1  0
 27 28  1  0
 29 27  2  0
M  END
$$$$
