HYQ.pdb
     RDKit          3D

 32 33  0  0  1  0  0  0  0  0999 V2000
    8.2060  -15.6832   18.6360 N   0  0  0  0  0  0  0  0  0  0  0  0
    9.5742  -15.3866   18.9744 C   0  0  1  0  0  0  0  0  0  0  0  0
   10.0535  -14.2720   18.0732 C   0  0  0  0  0  0  0  0  0  0  0  0
    9.4729  -14.4517   16.7179 C   0  0  0  0  0  0  0  0  0  0  0  0
    8.4861  -13.6538   16.1682 C   0  0  0  0  0  0  0  0  0  0  0  0
    8.1776  -14.0755   14.9297 N   0  0  0  0  0  0  0  0  0  0  0  0
    8.9763  -15.1392   14.7105 C   0  0  0  0  0  0  0  0  0  0  0  0
    9.7564  -15.3707   15.7798 N   0  0  0  0  0  0  0  0  0  0  0  0
    9.6971  -14.9853   20.4214 C   0  0  0  0  0  0  0  0  0  0  0  0
   10.8118  -14.7949   20.9493 O   0  0  0  0  0  0  0  0  0  0  0  0
    6.8889  -12.8580   28.6127 O   0  0  0  0  0  0  0  0  0  0  0  0
    6.9570  -13.1034   27.2346 C   0  0  0  0  0  0  0  0  0  0  0  0
    7.6770  -12.2753   26.4041 C   0  0  0  0  0  0  0  0  0  0  0  0
    7.7728  -12.4819   25.0220 C   0  0  0  0  0  0  0  0  0  0  0  0
    7.1290  -13.5476   24.4609 C   0  0  0  0  0  0  0  0  0  0  0  0
    7.1561  -13.8875   23.0281 C   0  0  0  0  0  0  0  0  0  0  0  0
    8.4607  -14.5864   22.6080 C   0  0  2  0  0  0  0  0  0  0  0  0
    8.5400  -14.8152   21.2162 N   0  0  0  0  0  0  0  0  0  0  0  0
    8.6844  -15.7422   23.4743 C   0  0  0  0  0  0  0  0  0  0  0  0
    7.9121  -16.7565   23.4054 O   0  0  0  0  0  0  0  0  0  0  0  0
    6.4030  -14.3828   25.2960 C   0  0  0  0  0  0  0  0  0  0  0  0
    6.3074  -14.1820   26.6525 C   0  0  0  0  0  0  0  0  0  0  0  0
   12.5865  -21.0188   24.0347 N   0  0  0  0  0  0  0  0  0  0  0  0
   12.6641  -19.7820   24.7390 C   0  0  0  0  0  0  0  0  0  0  0  0
   13.8134  -19.2731   24.8946 O   0  0  0  0  0  0  0  0  0  0  0  0
   11.5001  -19.0753   25.2779 C   0  0  0  0  0  0  0  0  0  0  0  0
   11.1341  -17.8044   24.6125 C   0  0  0  0  0  0  0  0  0  0  0  0
    9.9817  -17.0984   25.1882 C   0  0  2  0  0  0  0  0  0  0  0  0
    9.7275  -15.8466   24.4282 N   0  0  0  0  0  0  0  0  0  0  0  0
   10.0119  -16.7870   26.5825 C   0  0  0  0  0  0  0  0  0  0  0  0
   10.0792  -15.6423   27.0906 O   0  0  0  0  0  0  0  0  0  0  0  0
    9.9638  -17.8314   27.5332 O   0  0  0  0  0  0  0  0  0  0  0  0
  2  1  1  6
  3  2  1  0
  3  4  1  0
  4  8  1  0
  4  5  2  0
  5  6  1  0
  7  6  1  0
  8  7  2  0
  9  2  1  0
 10  9  2  0
 12 11  1  0
 12 22  2  0
 13 12  1  0
 14 13  2  0
 14 15  1  0
 15 21  2  0
 16 15  1  0
 17 16  1  6
 17 18  1  0
 18  9  1  0
 19 17  1  0
 20 19  2  0
 21 22  1  0
 24 23  1  0
 25 24  2  0
 26 24  1  0
 28 27  1  6
 27 26  1  0
 28 29  1  0
 29 19  1  0
 30 32  1  0
 30 28  1  0
 31 30  2  0
M  END
$$$$
