HYQ.pdb
     RDKit          3D

 32 33  0  0  1  0  0  0  0  0999 V2000
   10.9680  -13.8936   19.8505 N   0  0  0  0  0  0  0  0  0  0  0  0
    9.9015  -14.2441   20.7526 C   0  0  1  0  0  0  0  0  0  0  0  0
    9.1077  -15.3705   20.1318 C   0  0  0  0  0  0  0  0  0  0  0  0
    8.3324  -14.8475   18.9779 C   0  0  0  0  0  0  0  0  0  0  0  0
    8.3405  -13.5323   18.5506 C   0  0  0  0  0  0  0  0  0  0  0  0
    7.5366  -13.3805   17.4841 N   0  0  0  0  0  0  0  0  0  0  0  0
    7.0279  -14.6066   17.2489 C   0  0  0  0  0  0  0  0  0  0  0  0
    7.5014  -15.4920   18.1419 N   0  0  0  0  0  0  0  0  0  0  0  0
   10.4450  -14.6589   22.0952 C   0  0  0  0  0  0  0  0  0  0  0  0
   11.6316  -15.0213   22.2308 O   0  0  0  0  0  0  0  0  0  0  0  0
   10.2884  -15.8112   30.9272 O   0  0  0  0  0  0  0  0  0  0  0  0
    9.9709  -15.4334   29.6155 C   0  0  0  0  0  0  0  0  0  0  0  0
   10.3794  -14.2199   29.1111 C   0  0  0  0  0  0  0  0  0  0  0  0
   10.0853  -13.8012   27.8072 C   0  0  0  0  0  0  0  0  0  0  0  0
    9.3629  -14.6229   26.9898 C   0  0  0  0  0  0  0  0  0  0  0  0
    8.9954  -14.3132   25.5976 C   0  0  0  0  0  0  0  0  0  0  0  0
    9.9576  -14.9424   24.5753 C   0  0  2  0  0  0  0  0  0  0  0  0
    9.6125  -14.6450   23.2380 N   0  0  0  0  0  0  0  0  0  0  0  0
   10.1474  -16.3541   24.9031 C   0  0  0  0  0  0  0  0  0  0  0  0
   10.5838  -16.6940   26.0538 O   0  0  0  0  0  0  0  0  0  0  0  0
    8.9504  -15.8458   27.4964 C   0  0  0  0  0  0  0  0  0  0  0  0
    9.2376  -16.2588   28.7756 C   0  0  0  0  0  0  0  0  0  0  0  0
   10.8962  -20.1617   20.0799 N   0  0  0  0  0  0  0  0  0  0  0  0
   12.1736  -20.0205   20.6963 C   0  0  0  0  0  0  0  0  0  0  0  0
   13.1241  -20.7150   20.2292 O   0  0  0  0  0  0  0  0  0  0  0  0
   12.4423  -19.1214   21.8207 C   0  0  0  0  0  0  0  0  0  0  0  0
   11.3168  -18.2696   22.2673 C   0  0  0  0  0  0  0  0  0  0  0  0
   10.9124  -18.4401   23.6692 C   0  0  2  0  0  0  0  0  0  0  0  0
    9.8796  -17.4309   24.0213 N   0  0  0  0  0  0  0  0  0  0  0  0
   11.9317  -18.4179   24.6706 C   0  0  0  0  0  0  0  0  0  0  0  0
   12.5601  -17.4103   25.0739 O   0  0  0  0  0  0  0  0  0  0  0  0
   12.3131  -19.6208   25.3065 O   0  0  0  0  0  0  0  0  0  0  0  0
  2  1  1  6
  3  2  1  0
  3  4  1  0
  4  8  1  0
  4  5  2  0
  5  6  1  0
  7  6  1  0
  8  7  2  0
  9  2  1  0
 10  9  2  0
 12 11  1  0
 12 22  2  0
 13 12  1  0
 14 13  2  0
 14 15  1  0
 15 21  2  0
 16 15  1  0
 17 16  1  1
 17 18  1  0
 18  9  1  0
 19 17  1  0
 20 19  2  0
 21 22  1  0
 24 23  1  0
 25 24  2  0
 26 24  1  0
 28 27  1  6
 27 26  1  0
 28 29  1  0
 29 19  1  0
 30 32  1  0
 30 28  1  0
 31 30  2  0
M  END
$$$$
