HYQ.pdb
     RDKit          3D

 32 33  0  0  1  0  0  0  0  0999 V2000
   10.3274  -13.9721   19.7098 N   0  0  0  0  0  0  0  0  0  0  0  0
    9.2367  -14.0730   20.6449 C   0  0  1  0  0  0  0  0  0  0  0  0
    8.1278  -14.8675   19.9944 C   0  0  0  0  0  0  0  0  0  0  0  0
    7.7521  -14.2253   18.7088 C   0  0  0  0  0  0  0  0  0  0  0  0
    7.6174  -12.8627   18.5152 C   0  0  0  0  0  0  0  0  0  0  0  0
    7.2688  -12.6017   17.2435 N   0  0  0  0  0  0  0  0  0  0  0  0
    7.1869  -13.8074   16.6460 C   0  0  0  0  0  0  0  0  0  0  0  0
    7.4758  -14.7865   17.5198 N   0  0  0  0  0  0  0  0  0  0  0  0
    9.6814  -14.7358   21.9227 C   0  0  0  0  0  0  0  0  0  0  0  0
   10.5671  -15.6151   21.9233 O   0  0  0  0  0  0  0  0  0  0  0  0
   10.4431  -15.5926   30.7409 O   0  0  0  0  0  0  0  0  0  0  0  0
    9.9901  -15.2295   29.4653 C   0  0  0  0  0  0  0  0  0  0  0  0
   10.3116  -14.0062   28.9230 C   0  0  0  0  0  0  0  0  0  0  0  0
    9.8814  -13.6014   27.6529 C   0  0  0  0  0  0  0  0  0  0  0  0
    9.1090  -14.4475   26.9094 C   0  0  0  0  0  0  0  0  0  0  0  0
    8.6006  -14.1542   25.5586 C   0  0  0  0  0  0  0  0  0  0  0  0
    9.4316  -14.8266   24.4522 C   0  0  2  0  0  0  0  0  0  0  0  0
    9.0975  -14.3703   23.1576 N   0  0  0  0  0  0  0  0  0  0  0  0
    9.4208  -16.2736   24.6585 C   0  0  0  0  0  0  0  0  0  0  0  0
    8.4167  -16.9687   24.2861 O   0  0  0  0  0  0  0  0  0  0  0  0
    8.7840  -15.6802   27.4544 C   0  0  0  0  0  0  0  0  0  0  0  0
    9.2048  -16.0795   28.7005 C   0  0  0  0  0  0  0  0  0  0  0  0
   10.6687  -18.6921   20.6034 N   0  0  0  0  0  0  0  0  0  0  0  0
    9.8008  -19.4836   21.4109 C   0  0  0  0  0  0  0  0  0  0  0  0
    8.9492  -20.2059   20.8132 O   0  0  0  0  0  0  0  0  0  0  0  0
    9.8467  -19.5105   22.8744 C   0  0  0  0  0  0  0  0  0  0  0  0
   10.8573  -18.6412   23.5185 C   0  0  0  0  0  0  0  0  0  0  0  0
   10.6965  -18.4501   24.9661 C   0  0  2  0  0  0  0  0  0  0  0  0
   10.4701  -17.0111   25.2616 N   0  0  0  0  0  0  0  0  0  0  0  0
   11.7286  -18.9354   25.8272 C   0  0  0  0  0  0  0  0  0  0  0  0
   12.2435  -20.0787   25.8046 O   0  0  0  0  0  0  0  0  0  0  0  0
   12.2632  -18.0883   26.8239 O   0  0  0  0  0  0  0  0  0  0  0  0
  2  1  1  6
  3  2  1  0
  3  4  1  0
  4  8  1  0
  4  5  2  0
  5  6  1  0
  7  6  1  0
  8  7  2  0
  9  2  1  0
 10  9  2  0
 12 11  1  0
 12 22  2  0
 13 12  1  0
 14 13  2  0
 14 15  1  0
 15 21  2  0
 16 15  1  0
 17 16  1  1
 17 18  1  0
 18  9  1  0
 19 17  1  0
 20 19  2  0
 21 22  1  0
 24 23  1  0
 25 24  2  0
 26 24  1  0
 28 27  1  6
 27 26  1  0
 28 29  1  0
 29 19  1  0
 30 32  1  0
 30 28  1  0
 31 30  2  0
M  END
$$$$
