HYQ.pdb
     RDKit          3D

 32 33  0  0  1  0  0  0  0  0999 V2000
    7.8835  -16.1577   20.1093 N   0  0  0  0  0  0  0  0  0  0  0  0
    8.9797  -15.2687   20.3962 C   0  0  1  0  0  0  0  0  0  0  0  0
    8.5925  -13.8792   19.9451 C   0  0  0  0  0  0  0  0  0  0  0  0
    8.1117  -13.9345   18.5408 C   0  0  0  0  0  0  0  0  0  0  0  0
    7.7418  -12.8352   17.7878 C   0  0  0  0  0  0  0  0  0  0  0  0
    7.3541  -13.2173   16.5588 N   0  0  0  0  0  0  0  0  0  0  0  0
    7.4841  -14.5591   16.5496 C   0  0  0  0  0  0  0  0  0  0  0  0
    7.9385  -14.9963   17.7362 N   0  0  0  0  0  0  0  0  0  0  0  0
    9.3079  -15.2741   21.8666 C   0  0  0  0  0  0  0  0  0  0  0  0
   10.2957  -14.6555   22.3131 O   0  0  0  0  0  0  0  0  0  0  0  0
    6.4477  -10.6208   26.8327 O   0  0  0  0  0  0  0  0  0  0  0  0
    6.6436  -11.9229   26.3528 C   0  0  0  0  0  0  0  0  0  0  0  0
    6.2191  -12.2836   25.0944 C   0  0  0  0  0  0  0  0  0  0  0  0
    6.3936  -13.5722   24.5739 C   0  0  0  0  0  0  0  0  0  0  0  0
    7.0104  -14.5219   25.3374 C   0  0  0  0  0  0  0  0  0  0  0  0
    7.2684  -15.9076   24.9101 C   0  0  0  0  0  0  0  0  0  0  0  0
    8.6150  -16.0639   24.1829 C   0  0  2  0  0  0  0  0  0  0  0  0
    8.4946  -15.9872   22.7774 N   0  0  0  0  0  0  0  0  0  0  0  0
    9.3139  -17.2316   24.7164 C   0  0  0  0  0  0  0  0  0  0  0  0
    8.8513  -18.4046   24.5166 O   0  0  0  0  0  0  0  0  0  0  0  0
    7.4385  -14.1603   26.6056 C   0  0  0  0  0  0  0  0  0  0  0  0
    7.2683  -12.8965   27.1185 C   0  0  0  0  0  0  0  0  0  0  0  0
   15.2623  -19.0296   24.5573 N   0  0  0  0  0  0  0  0  0  0  0  0
   14.7421  -19.6789   25.7148 C   0  0  0  0  0  0  0  0  0  0  0  0
   15.5502  -20.3634   26.4094 O   0  0  0  0  0  0  0  0  0  0  0  0
   13.3437  -19.5909   26.1407 C   0  0  0  0  0  0  0  0  0  0  0  0
   12.5473  -18.4839   25.5642 C   0  0  0  0  0  0  0  0  0  0  0  0
   11.1536  -18.4031   26.0213 C   0  0  2  0  0  0  0  0  0  0  0  0
   10.5133  -17.1803   25.4699 N   0  0  0  0  0  0  0  0  0  0  0  0
   10.9029  -18.4545   27.4272 C   0  0  0  0  0  0  0  0  0  0  0  0
   10.8727  -17.4802   28.2163 O   0  0  0  0  0  0  0  0  0  0  0  0
   10.6572  -19.6998   28.0484 O   0  0  0  0  0  0  0  0  0  0  0  0
  2  1  1  1
  3  2  1  0
  3  4  1  0
  4  8  1  0
  4  5  2  0
  5  6  1  0
  7  6  1  0
  8  7  2  0
  9  2  1  0
 10  9  2  0
 12 11  1  0
 12 22  2  0
 13 12  1  0
 14 13  2  0
 14 15  1  0
 15 21  2  0
 16 15  1  0
 17 16  1  1
 17 18  1  0
 18  9  1  0
 19 17  1  0
 20 19  2  0
 21 22  1  0
 24 23  1  0
 25 24  2  0
 26 24  1  0
 28 27  1  1
 27 26  1  0
 28 29  1  0
 29 19  1  0
 30 32  1  0
 30 28  1  0
 31 30  2  0
M  END
$$$$
