HYQ.pdb
     RDKit          3D

 32 33  0  0  1  0  0  0  0  0999 V2000
    9.5294  -17.3462   18.6939 N   0  0  0  0  0  0  0  0  0  0  0  0
    8.4098  -17.2382   19.5933 C   0  0  1  0  0  0  0  0  0  0  0  0
    7.8019  -18.6120   19.7591 C   0  0  0  0  0  0  0  0  0  0  0  0
    7.1718  -19.0282   18.4801 C   0  0  0  0  0  0  0  0  0  0  0  0
    7.8617  -19.4670   17.3647 C   0  0  0  0  0  0  0  0  0  0  0  0
    7.0065  -19.7675   16.3722 N   0  0  0  0  0  0  0  0  0  0  0  0
    5.7812  -19.5141   16.8741 C   0  0  0  0  0  0  0  0  0  0  0  0
    5.8731  -19.0699   18.1390 N   0  0  0  0  0  0  0  0  0  0  0  0
    8.8411  -16.6873   20.9277 C   0  0  0  0  0  0  0  0  0  0  0  0
    9.8737  -17.0980   21.4960 O   0  0  0  0  0  0  0  0  0  0  0  0
    7.8627  -11.6014   28.2875 O   0  0  0  0  0  0  0  0  0  0  0  0
    7.7184  -12.1961   27.0267 C   0  0  0  0  0  0  0  0  0  0  0  0
    8.8200  -12.5685   26.2908 C   0  0  0  0  0  0  0  0  0  0  0  0
    8.7235  -13.1654   25.0274 C   0  0  0  0  0  0  0  0  0  0  0  0
    7.4887  -13.3941   24.4905 C   0  0  0  0  0  0  0  0  0  0  0  0
    7.2439  -14.0232   23.1815 C   0  0  0  0  0  0  0  0  0  0  0  0
    8.2795  -15.1089   22.8414 C   0  0  2  0  0  0  0  0  0  0  0  0
    8.0763  -15.6847   21.5674 N   0  0  0  0  0  0  0  0  0  0  0  0
    8.3893  -16.0346   23.9672 C   0  0  0  0  0  0  0  0  0  0  0  0
    7.3503  -16.6225   24.4199 O   0  0  0  0  0  0  0  0  0  0  0  0
    6.3777  -13.0194   25.2304 C   0  0  0  0  0  0  0  0  0  0  0  0
    6.4700  -12.4333   26.4703 C   0  0  0  0  0  0  0  0  0  0  0  0
   12.5571  -20.4488   24.4003 N   0  0  0  0  0  0  0  0  0  0  0  0
   11.4507  -20.0585   23.5908 C   0  0  0  0  0  0  0  0  0  0  0  0
   11.3137  -20.6405   22.4743 O   0  0  0  0  0  0  0  0  0  0  0  0
   10.4737  -19.0394   23.9804 C   0  0  0  0  0  0  0  0  0  0  0  0
   10.6651  -18.4167   25.3099 C   0  0  0  0  0  0  0  0  0  0  0  0
    9.6676  -17.4052   25.6838 C   0  0  2  0  0  0  0  0  0  0  0  0
    9.5981  -16.3551   24.6343 N   0  0  0  0  0  0  0  0  0  0  0  0
    9.7993  -16.7694   26.9568 C   0  0  0  0  0  0  0  0  0  0  0  0
    9.3763  -17.2029   28.0550 O   0  0  0  0  0  0  0  0  0  0  0  0
   10.4631  -15.5256   27.0517 O   0  0  0  0  0  0  0  0  0  0  0  0
  2  1  1  6
  3  2  1  0
  3  4  1  0
  4  8  1  0
  4  5  2  0
  5  6  1  0
  7  6  1  0
  8  7  2  0
  9  2  1  0
 10  9  2  0
 12 11  1  0
 12 22  2  0
 13 12  1  0
 14 13  2  0
 14 15  1  0
 15 21  2  0
 16 15  1  0
 17 16  1  1
 17 18  1  0
 18  9  1  0
 19 17  1  0
 20 19  2  0
 21 22  1  0
 24 23  1  0
 25 24  2  0
 26 24  1  0
 28 27  1  6
 27 26  1  0
 28 29  1  0
 29 19  1  0
 30 32  1  0
 30 28  1  0
 31 30  2  0
M  END
$$$$
