HYQ.pdb
     RDKit          3D

 32 33  0  0  1  0  0  0  0  0999 V2000
    9.1355  -16.4174   14.2806 N   0  0  0  0  0  0  0  0  0  0  0  0
   10.4507  -15.9078   14.5718 C   0  0  1  0  0  0  0  0  0  0  0  0
   10.8279  -14.9248   13.4875 C   0  0  0  0  0  0  0  0  0  0  0  0
   10.7630  -15.6012   12.1667 C   0  0  0  0  0  0  0  0  0  0  0  0
   10.0711  -15.1255   11.0678 C   0  0  0  0  0  0  0  0  0  0  0  0
   10.2085  -15.9654   10.0273 N   0  0  0  0  0  0  0  0  0  0  0  0
   10.9889  -16.9659   10.4827 C   0  0  0  0  0  0  0  0  0  0  0  0
   11.3254  -16.7536   11.7663 N   0  0  0  0  0  0  0  0  0  0  0  0
   10.4842  -15.2419   15.9229 C   0  0  0  0  0  0  0  0  0  0  0  0
   11.5495  -14.8045   16.4042 O   0  0  0  0  0  0  0  0  0  0  0  0
    6.9707  -12.6443   23.7051 O   0  0  0  0  0  0  0  0  0  0  0  0
    7.1581  -12.9730   22.3556 C   0  0  0  0  0  0  0  0  0  0  0  0
    7.4924  -12.0080   21.4332 C   0  0  0  0  0  0  0  0  0  0  0  0
    7.6893  -12.2905   20.0754 C   0  0  0  0  0  0  0  0  0  0  0  0
    7.5470  -13.5750   19.6341 C   0  0  0  0  0  0  0  0  0  0  0  0
    7.7365  -14.0115   18.2402 C   0  0  0  0  0  0  0  0  0  0  0  0
    9.1470  -14.5671   17.9785 C   0  0  2  0  0  0  0  0  0  0  0  0
    9.2975  -15.0988   16.6783 N   0  0  0  0  0  0  0  0  0  0  0  0
    9.5324  -15.4362   19.0888 C   0  0  0  0  0  0  0  0  0  0  0  0
    9.3834  -16.7008   18.9971 O   0  0  0  0  0  0  0  0  0  0  0  0
    7.2100  -14.5485   20.5620 C   0  0  0  0  0  0  0  0  0  0  0  0
    7.0161  -14.2736   21.8948 C   0  0  0  0  0  0  0  0  0  0  0  0
   14.9173  -15.4992   18.4269 N   0  0  0  0  0  0  0  0  0  0  0  0
   14.6895  -16.4730   19.4427 C   0  0  0  0  0  0  0  0  0  0  0  0
   15.5069  -17.4375   19.5167 O   0  0  0  0  0  0  0  0  0  0  0  0
   13.5796  -16.4132   20.3963 C   0  0  0  0  0  0  0  0  0  0  0  0
   12.3485  -15.7334   19.9334 C   0  0  0  0  0  0  0  0  0  0  0  0
   11.2747  -15.6229   20.9297 C   0  0  2  0  0  0  0  0  0  0  0  0
   10.0816  -14.9845   20.3148 N   0  0  0  0  0  0  0  0  0  0  0  0
   11.5649  -14.9567   22.1602 C   0  0  0  0  0  0  0  0  0  0  0  0
   11.1742  -13.8148   22.5011 O   0  0  0  0  0  0  0  0  0  0  0  0
   12.3676  -15.5984   23.1301 O   0  0  0  0  0  0  0  0  0  0  0  0
  2  1  1  6
  3  2  1  0
  3  4  1  0
  4  8  1  0
  4  5  2  0
  5  6  1  0
  7  6  1  0
  8  7  2  0
  9  2  1  0
 10  9  2  0
 12 11  1  0
 12 22  2  0
 13 12  1  0
 14 13  2  0
 14 15  1  0
 15 21  2  0
 16 15  1  0
 17 16  1  1
 17 18  1  0
 18  9  1  0
 19 17  1  0
 20 19  2  0
 21 22  1  0
 24 23  1  0
 25 24  2  0
 26 24  1  0
 28 27  1  6
 27 26  1  0
 28 29  1  0
 29 19  1  0
 30 32  1  0
 30 28  1  0
 31 30  2  0
M  END
$$$$
