HYQ.pdb
     RDKit          3D

 32 33  0  0  1  0  0  0  0  0999 V2000
   12.4431  -14.4307   16.5678 N   0  0  0  0  0  0  0  0  0  0  0  0
   12.7888  -15.4145   17.5612 C   0  0  1  0  0  0  0  0  0  0  0  0
   14.2655  -15.7122   17.4384 C   0  0  0  0  0  0  0  0  0  0  0  0
   14.5210  -16.4085   16.1515 C   0  0  0  0  0  0  0  0  0  0  0  0
   14.3797  -17.7689   15.9467 C   0  0  0  0  0  0  0  0  0  0  0  0
   14.6857  -18.0865   14.6770 N   0  0  0  0  0  0  0  0  0  0  0  0
   15.0181  -16.9184   14.0918 C   0  0  0  0  0  0  0  0  0  0  0  0
   14.9215  -15.9070   14.9712 N   0  0  0  0  0  0  0  0  0  0  0  0
   12.4636  -14.9195   18.9465 C   0  0  0  0  0  0  0  0  0  0  0  0
   12.8452  -13.7986   19.3411 O   0  0  0  0  0  0  0  0  0  0  0  0
    6.9031  -12.4708   17.5379 O   0  0  0  0  0  0  0  0  0  0  0  0
    7.6104  -13.2343   18.4764 C   0  0  0  0  0  0  0  0  0  0  0  0
    7.8080  -14.5828   18.2856 C   0  0  0  0  0  0  0  0  0  0  0  0
    8.5081  -15.3845   19.1962 C   0  0  0  0  0  0  0  0  0  0  0  0
    9.0228  -14.8164   20.3265 C   0  0  0  0  0  0  0  0  0  0  0  0
    9.7878  -15.5382   21.3574 C   0  0  0  0  0  0  0  0  0  0  0  0
   11.3088  -15.4267   21.1552 C   0  0  2  0  0  0  0  0  0  0  0  0
   11.7125  -15.7239   19.8343 N   0  0  0  0  0  0  0  0  0  0  0  0
   11.9882  -16.1540   22.2257 C   0  0  0  0  0  0  0  0  0  0  0  0
   11.5287  -17.2726   22.6353 O   0  0  0  0  0  0  0  0  0  0  0  0
    8.8245  -13.4579   20.5204 C   0  0  0  0  0  0  0  0  0  0  0  0
    8.1377  -12.6693   19.6284 C   0  0  0  0  0  0  0  0  0  0  0  0
   18.2742  -16.9309   23.6380 N   0  0  0  0  0  0  0  0  0  0  0  0
   17.4741  -15.9214   23.0275 C   0  0  0  0  0  0  0  0  0  0  0  0
   18.0685  -14.8870   22.6024 O   0  0  0  0  0  0  0  0  0  0  0  0
   16.0224  -16.0199   22.8619 C   0  0  0  0  0  0  0  0  0  0  0  0
   15.2190  -16.0719   24.1044 C   0  0  0  0  0  0  0  0  0  0  0  0
   13.8288  -16.5171   23.9402 C   0  0  2  0  0  0  0  0  0  0  0  0
   13.1643  -15.7125   22.8819 N   0  0  0  0  0  0  0  0  0  0  0  0
   12.9876  -16.5347   25.0953 C   0  0  0  0  0  0  0  0  0  0  0  0
   12.8916  -17.4613   25.9349 O   0  0  0  0  0  0  0  0  0  0  0  0
   12.1576  -15.4252   25.3725 O   0  0  0  0  0  0  0  0  0  0  0  0
  2  1  1  6
  3  2  1  0
  3  4  1  0
  4  8  1  0
  4  5  2  0
  5  6  1  0
  7  6  1  0
  8  7  2  0
  9  2  1  0
 10  9  2  0
 12 11  1  0
 12 22  2  0
 13 12  1  0
 14 13  2  0
 14 15  1  0
 15 21  2  0
 16 15  1  0
 17 16  1  6
 17 18  1  0
 18  9  1  0
 19 17  1  0
 20 19  2  0
 21 22  1  0
 24 23  1  0
 25 24  2  0
 26 24  1  0
 28 27  1  1
 27 26  1  0
 28 29  1  0
 29 19  1  0
 30 32  1  0
 30 28  1  0
 31 30  2  0
M  END
$$$$
