HYQ.pdb
     RDKit          3D

 32 33  0  0  1  0  0  0  0  0999 V2000
    8.1773  -16.6653   19.2047 N   0  0  0  0  0  0  0  0  0  0  0  0
    9.5293  -16.5628   19.6904 C   0  0  1  0  0  0  0  0  0  0  0  0
   10.3210  -15.7253   18.7127 C   0  0  0  0  0  0  0  0  0  0  0  0
    9.3845  -14.9796   17.8334 C   0  0  0  0  0  0  0  0  0  0  0  0
    8.0573  -14.7249   18.1272 C   0  0  0  0  0  0  0  0  0  0  0  0
    7.4815  -14.0293   17.1314 N   0  0  0  0  0  0  0  0  0  0  0  0
    8.4555  -13.8520   16.2164 C   0  0  0  0  0  0  0  0  0  0  0  0
    9.6005  -14.4198   16.6314 N   0  0  0  0  0  0  0  0  0  0  0  0
    9.5637  -15.9444   21.0638 C   0  0  0  0  0  0  0  0  0  0  0  0
   10.6430  -15.7385   21.6558 O   0  0  0  0  0  0  0  0  0  0  0  0
    6.8006  -11.4025   28.1543 O   0  0  0  0  0  0  0  0  0  0  0  0
    6.8764  -12.0421   26.9096 C   0  0  0  0  0  0  0  0  0  0  0  0
    6.2953  -13.2738   26.7114 C   0  0  0  0  0  0  0  0  0  0  0  0
    6.3460  -13.9495   25.4855 C   0  0  0  0  0  0  0  0  0  0  0  0
    6.9966  -13.3725   24.4324 C   0  0  0  0  0  0  0  0  0  0  0  0
    7.1148  -13.9656   23.0895 C   0  0  0  0  0  0  0  0  0  0  0  0
    8.1946  -15.0589   23.0159 C   0  0  2  0  0  0  0  0  0  0  0  0
    8.3616  -15.5821   21.7143 N   0  0  0  0  0  0  0  0  0  0  0  0
    7.9674  -16.0283   24.0860 C   0  0  0  0  0  0  0  0  0  0  0  0
    6.9949  -16.8520   24.0115 O   0  0  0  0  0  0  0  0  0  0  0  0
    7.5828  -12.1318   24.6303 C   0  0  0  0  0  0  0  0  0  0  0  0
    7.5346  -11.4669   25.8324 C   0  0  0  0  0  0  0  0  0  0  0  0
   11.2470  -19.7203   22.5300 N   0  0  0  0  0  0  0  0  0  0  0  0
   11.2513  -20.1571   23.8869 C   0  0  0  0  0  0  0  0  0  0  0  0
   11.8567  -21.2388   24.1471 O   0  0  0  0  0  0  0  0  0  0  0  0
   10.6080  -19.4271   24.9813 C   0  0  0  0  0  0  0  0  0  0  0  0
    9.8900  -18.1857   24.6134 C   0  0  0  0  0  0  0  0  0  0  0  0
    9.2795  -17.4535   25.7311 C   0  0  2  0  0  0  0  0  0  0  0  0
    8.7634  -16.1443   25.2530 N   0  0  0  0  0  0  0  0  0  0  0  0
   10.0693  -17.2323   26.9013 C   0  0  0  0  0  0  0  0  0  0  0  0
   10.1464  -17.9832   27.9029 O   0  0  0  0  0  0  0  0  0  0  0  0
   10.8647  -16.0683   26.9981 O   0  0  0  0  0  0  0  0  0  0  0  0
  2  1  1  6
  3  2  1  0
  3  4  1  0
  4  8  1  0
  4  5  2  0
  5  6  1  0
  7  6  1  0
  8  7  2  0
  9  2  1  0
 10  9  2  0
 12 11  1  0
 12 22  2  0
 13 12  1  0
 14 13  2  0
 14 15  1  0
 15 21  2  0
 16 15  1  0
 17 16  1  6
 17 18  1  0
 18  9  1  0
 19 17  1  0
 20 19  2  0
 21 22  1  0
 24 23  1  0
 25 24  2  0
 26 24  1  0
 28 27  1  6
 27 26  1  0
 28 29  1  0
 29 19  1  0
 30 32  1  0
 30 28  1  0
 31 30  2  0
M  END
$$$$
