MTF.pdb
     RDKit          3D

 27 27  0  0  1  0  0  0  0  0999 V2000
   26.7046  -16.2525  -14.6037 C   0  0  0  0  0  0  0  0  0  0  0  0
   26.6441  -17.2005  -16.1507 S   0  0  0  0  0  0  0  0  0  0  0  0
   25.0552  -17.0025  -16.9715 C   0  0  0  0  0  0  0  0  0  0  0  0
   24.7474  -15.5651  -17.3029 C   0  0  0  0  0  0  0  0  0  0  0  0
   23.3914  -15.4148  -17.9662 C   0  0  2  0  0  0  0  0  0  0  0  0
   23.4230  -16.2131  -19.1740 N   0  0  0  0  0  0  0  0  0  0  0  0
   23.2771  -13.9956  -18.3491 C   0  0  0  0  0  0  0  0  0  0  0  0
   23.8413  -13.6011  -19.3956 O   0  0  0  0  0  0  0  0  0  0  0  0
   21.2143  -12.2529  -20.1701 C   0  0  0  0  0  0  0  0  0  0  0  0
   21.1771  -11.5053  -18.8607 C   0  0  1  0  0  0  0  0  0  0  0  0
   20.2077  -12.1633  -18.0778 O   0  0  0  0  0  0  0  0  0  0  0  0
   22.4935  -11.6428  -18.1006 C   0  0  2  0  0  0  0  0  0  0  0  0
   22.5631  -13.0308  -17.6055 N   0  0  0  0  0  0  0  0  0  0  0  0
   22.5820  -10.7734  -16.9224 C   0  0  0  0  0  0  0  0  0  0  0  0
   22.2035  -11.2098  -15.7881 O   0  0  0  0  0  0  0  0  0  0  0  0
   23.0625   -9.4392  -16.8879 N   0  0  0  0  0  0  0  0  0  0  0  0
   23.0612   -8.6288  -15.6939 C   0  0  1  0  0  0  0  0  0  0  0  0
   24.2720   -8.8309  -14.8340 C   0  0  0  0  0  0  0  0  0  0  0  0
   25.5237   -9.0436  -15.5961 C   0  0  0  0  0  0  0  0  0  0  0  0
   25.9766   -8.1519  -16.5660 C   0  0  0  0  0  0  0  0  0  0  0  0
   27.1385   -8.3451  -17.2677 C   0  0  0  0  0  0  0  0  0  0  0  0
   27.9172   -9.4565  -17.0312 C   0  0  0  0  0  0  0  0  0  0  0  0
   27.4972  -10.3553  -16.0799 C   0  0  0  0  0  0  0  0  0  0  0  0
   26.3267  -10.1403  -15.3875 C   0  0  0  0  0  0  0  0  0  0  0  0
   22.7823   -7.2136  -16.0308 C   0  0  0  0  0  0  0  0  0  0  0  0
   22.8368   -6.7521  -17.1749 O   0  0  0  0  0  0  0  0  0  0  0  0
   22.4371   -6.3373  -15.0099 O   0  0  0  0  0  0  0  0  0  0  0  0
  2  1  1  0
  3  2  1  0
  4  3  1  0
  4  5  1  0
  5  7  1  0
  5  6  1  6
  7  8  2  0
 10 12  1  0
 10  9  1  6
 11 10  1  0
 13  7  1  0
 12 13  1  1
 14 12  1  0
 14 15  2  0
 16 14  1  0
 17 25  1  0
 17 16  1  0
 17 18  1  6
 19 18  1  0
 20 19  2  0
 21 20  1  0
 22 21  2  0
 22 23  1  0
 23 24  2  0
 24 19  1  0
 25 27  1  0
 26 25  2  0
M  END
$$$$
