MTF.pdb
     RDKit          3D

 27 27  0  0  1  0  0  0  0  0999 V2000
   32.3305  -21.3779  -12.1205 C   0  0  0  0  0  0  0  0  0  0  0  0
   31.9663  -22.7299  -13.2759 S   0  0  0  0  0  0  0  0  0  0  0  0
   30.4552  -22.4067  -14.1976 C   0  0  0  0  0  0  0  0  0  0  0  0
   29.8433  -21.0715  -13.8608 C   0  0  0  0  0  0  0  0  0  0  0  0
   28.6361  -20.7670  -14.7275 C   0  0  2  0  0  0  0  0  0  0  0  0
   28.9894  -19.6346  -15.5581 N   0  0  0  0  0  0  0  0  0  0  0  0
   27.5635  -20.3513  -13.8053 C   0  0  0  0  0  0  0  0  0  0  0  0
   26.6905  -19.5494  -14.2105 O   0  0  0  0  0  0  0  0  0  0  0  0
   24.9853  -20.2490  -13.7550 C   0  0  0  0  0  0  0  0  0  0  0  0
   25.0396  -20.7439  -12.3313 C   0  0  1  0  0  0  0  0  0  0  0  0
   25.0962  -22.1490  -12.4221 O   0  0  0  0  0  0  0  0  0  0  0  0
   26.3311  -20.3163  -11.6393 C   0  0  2  0  0  0  0  0  0  0  0  0
   27.4481  -20.8016  -12.4721 N   0  0  0  0  0  0  0  0  0  0  0  0
   26.5087  -20.9141  -10.3116 C   0  0  0  0  0  0  0  0  0  0  0  0
   27.6027  -21.4985  -10.0254 O   0  0  0  0  0  0  0  0  0  0  0  0
   25.5652  -20.9211   -9.2524 N   0  0  0  0  0  0  0  0  0  0  0  0
   25.9265  -20.7176   -7.8701 C   0  0  1  0  0  0  0  0  0  0  0  0
   26.8286  -19.5401   -7.6560 C   0  0  0  0  0  0  0  0  0  0  0  0
   27.5526  -19.5626   -6.3645 C   0  0  0  0  0  0  0  0  0  0  0  0
   28.9428  -19.5949   -6.2799 C   0  0  0  0  0  0  0  0  0  0  0  0
   29.6138  -19.6095   -5.0845 C   0  0  0  0  0  0  0  0  0  0  0  0
   28.9179  -19.5925   -3.8958 C   0  0  0  0  0  0  0  0  0  0  0  0
   27.5447  -19.5605   -3.9459 C   0  0  0  0  0  0  0  0  0  0  0  0
   26.8922  -19.5462   -5.1583 C   0  0  0  0  0  0  0  0  0  0  0  0
   24.7174  -20.7226   -7.0145 C   0  0  0  0  0  0  0  0  0  0  0  0
   24.6306  -21.3332   -5.9446 O   0  0  0  0  0  0  0  0  0  0  0  0
   23.6031  -20.0021   -7.4250 O   0  0  0  0  0  0  0  0  0  0  0  0
  2  1  1  0
  3  2  1  0
  4  3  1  0
  4  5  1  0
  5  7  1  0
  5  6  1  6
  7  8  2  0
 10 12  1  0
 10  9  1  6
 11 10  1  0
 13  7  1  0
 12 13  1  6
 14 12  1  0
 14 15  2  0
 16 14  1  0
 17 25  1  0
 17 16  1  0
 17 18  1  6
 19 18  1  0
 20 19  2  0
 21 20  1  0
 22 21  2  0
 22 23  1  0
 23 24  2  0
 24 19  1  0
 25 27  1  0
 26 25  2  0
M  END
$$$$
