MTF.pdb
     RDKit          3D

 27 27  0  0  1  0  0  0  0  0999 V2000
   28.2046  -18.2736   -6.0828 C   0  0  0  0  0  0  0  0  0  0  0  0
   29.3220  -19.7015   -6.1716 S   0  0  0  0  0  0  0  0  0  0  0  0
   28.5243  -21.1010   -6.9732 C   0  0  0  0  0  0  0  0  0  0  0  0
   27.6000  -20.6831   -8.0876 C   0  0  0  0  0  0  0  0  0  0  0  0
   27.7596  -21.5605   -9.3148 C   0  0  2  0  0  0  0  0  0  0  0  0
   29.1611  -21.5256   -9.6775 N   0  0  0  0  0  0  0  0  0  0  0  0
   26.9847  -20.9103  -10.3874 C   0  0  0  0  0  0  0  0  0  0  0  0
   27.5876  -20.2126  -11.2353 O   0  0  0  0  0  0  0  0  0  0  0  0
   27.1168  -21.1779  -12.8559 C   0  0  0  0  0  0  0  0  0  0  0  0
   25.6141  -21.2851  -12.9282 C   0  0  1  0  0  0  0  0  0  0  0  0
   25.3234  -22.6505  -12.7360 O   0  0  0  0  0  0  0  0  0  0  0  0
   24.9445  -20.5473  -11.7720 C   0  0  2  0  0  0  0  0  0  0  0  0
   25.5843  -21.0205  -10.5297 N   0  0  0  0  0  0  0  0  0  0  0  0
   23.5128  -20.8396  -11.6427 C   0  0  0  0  0  0  0  0  0  0  0  0
   23.0739  -21.3785  -10.5764 O   0  0  0  0  0  0  0  0  0  0  0  0
   22.5049  -20.5819  -12.6071 N   0  0  0  0  0  0  0  0  0  0  0  0
   21.1110  -20.4200  -12.2704 C   0  0  1  0  0  0  0  0  0  0  0  0
   20.8667  -19.3718  -11.2274 C   0  0  0  0  0  0  0  0  0  0  0  0
   19.5306  -18.7388  -11.3105 C   0  0  0  0  0  0  0  0  0  0  0  0
   18.4149  -19.2429  -10.6460 C   0  0  0  0  0  0  0  0  0  0  0  0
   17.1789  -18.6539  -10.7176 C   0  0  0  0  0  0  0  0  0  0  0  0
   16.9940  -17.5141  -11.4689 C   0  0  0  0  0  0  0  0  0  0  0  0
   18.0760  -16.9920  -12.1366 C   0  0  0  0  0  0  0  0  0  0  0  0
   19.3080  -17.6008  -12.0498 C   0  0  0  0  0  0  0  0  0  0  0  0
   20.2986  -20.2588  -13.4984 C   0  0  0  0  0  0  0  0  0  0  0  0
   20.6563  -19.6041  -14.4824 O   0  0  0  0  0  0  0  0  0  0  0  0
   19.0553  -20.8745  -13.5649 O   0  0  0  0  0  0  0  0  0  0  0  0
  2  1  1  0
  3  2  1  0
  4  3  1  0
  4  5  1  0
  5  7  1  0
  5  6  1  6
  7  8  2  0
 10 12  1  0
 10  9  1  1
 11 10  1  0
 13  7  1  0
 12 13  1  1
 14 12  1  0
 14 15  2  0
 16 14  1  0
 17 25  1  0
 17 16  1  0
 17 18  1  1
 19 18  1  0
 20 19  2  0
 21 20  1  0
 22 21  2  0
 22 23  1  0
 23 24  2  0
 24 19  1  0
 25 27  1  0
 26 25  2  0
M  END
$$$$
