MTF.pdb
     RDKit          3D

 27 27  0  0  1  0  0  0  0  0999 V2000
   29.3613  -15.3166  -15.6939 C   0  0  0  0  0  0  0  0  0  0  0  0
   29.0848  -16.3546  -17.1574 S   0  0  0  0  0  0  0  0  0  0  0  0
   28.3481  -17.9324  -16.7042 C   0  0  0  0  0  0  0  0  0  0  0  0
   27.6960  -17.9006  -15.3461 C   0  0  0  0  0  0  0  0  0  0  0  0
   27.1269  -19.2526  -14.9593 C   0  0  2  0  0  0  0  0  0  0  0  0
   26.0845  -19.5597  -15.9164 N   0  0  0  0  0  0  0  0  0  0  0  0
   26.5046  -19.0721  -13.6350 C   0  0  0  0  0  0  0  0  0  0  0  0
   25.6479  -18.1708  -13.4839 O   0  0  0  0  0  0  0  0  0  0  0  0
   23.6753  -20.9149  -10.7233 C   0  0  0  0  0  0  0  0  0  0  0  0
   24.5874  -20.5446  -11.8661 C   0  0  1  0  0  0  0  0  0  0  0  0
   23.9002  -19.5502  -12.5904 O   0  0  0  0  0  0  0  0  0  0  0  0
   25.8712  -19.8874  -11.3666 C   0  0  2  0  0  0  0  0  0  0  0  0
   26.8115  -19.8583  -12.5031 N   0  0  0  0  0  0  0  0  0  0  0  0
   26.5337  -20.6383  -10.2947 C   0  0  0  0  0  0  0  0  0  0  0  0
   27.0977  -21.7483  -10.5591 O   0  0  0  0  0  0  0  0  0  0  0  0
   26.6299  -20.2613   -8.9305 N   0  0  0  0  0  0  0  0  0  0  0  0
   27.0179  -21.1749   -7.8830 C   0  0  1  0  0  0  0  0  0  0  0  0
   28.4287  -20.9822   -7.4152 C   0  0  0  0  0  0  0  0  0  0  0  0
   28.5556  -20.1058   -6.2283 C   0  0  0  0  0  0  0  0  0  0  0  0
   28.1889  -18.7619   -6.2410 C   0  0  0  0  0  0  0  0  0  0  0  0
   28.3005  -17.9514   -5.1409 C   0  0  0  0  0  0  0  0  0  0  0  0
   28.7918  -18.4517   -3.9552 C   0  0  0  0  0  0  0  0  0  0  0  0
   29.1622  -19.7746   -3.9107 C   0  0  0  0  0  0  0  0  0  0  0  0
   29.0412  -20.5696   -5.0283 C   0  0  0  0  0  0  0  0  0  0  0  0
   26.0103  -21.1735   -6.7974 C   0  0  0  0  0  0  0  0  0  0  0  0
   24.9934  -20.4730   -6.7995 O   0  0  0  0  0  0  0  0  0  0  0  0
   26.2047  -22.0047   -5.7017 O   0  0  0  0  0  0  0  0  0  0  0  0
  2  1  1  0
  3  2  1  0
  4  3  1  0
  4  5  1  0
  5  7  1  0
  5  6  1  6
  7  8  2  0
 10 12  1  0
 10  9  1  1
 11 10  1  0
 13  7  1  0
 12 13  1  6
 14 12  1  0
 14 15  2  0
 16 14  1  0
 17 25  1  0
 17 16  1  0
 17 18  1  1
 19 18  1  0
 20 19  2  0
 21 20  1  0
 22 21  2  0
 22 23  1  0
 23 24  2  0
 24 19  1  0
 25 27  1  0
 26 25  2  0
M  END
$$$$
