MTF.pdb
     RDKit          3D

 27 27  0  0  1  0  0  0  0  0999 V2000
   27.5546  -16.2094  -14.8580 C   0  0  0  0  0  0  0  0  0  0  0  0
   26.5245  -14.9548  -15.6707 S   0  0  0  0  0  0  0  0  0  0  0  0
   24.7900  -15.4334  -15.6606 C   0  0  0  0  0  0  0  0  0  0  0  0
   23.8842  -14.3466  -16.1797 C   0  0  0  0  0  0  0  0  0  0  0  0
   22.4262  -14.7650  -16.1553 C   0  0  2  0  0  0  0  0  0  0  0  0
   22.2794  -15.8350  -17.1199 N   0  0  0  0  0  0  0  0  0  0  0  0
   21.6574  -13.6004  -16.6311 C   0  0  0  0  0  0  0  0  0  0  0  0
   21.5336  -13.4164  -17.8640 O   0  0  0  0  0  0  0  0  0  0  0  0
   18.1143  -10.3216  -16.1871 C   0  0  0  0  0  0  0  0  0  0  0  0
   18.8934  -11.5544  -15.8024 C   0  0  1  0  0  0  0  0  0  0  0  0
   18.2451  -12.6269  -16.4468 O   0  0  0  0  0  0  0  0  0  0  0  0
   20.3103  -11.5200  -16.3688 C   0  0  2  0  0  0  0  0  0  0  0  0
   21.0385  -12.6597  -15.7793 N   0  0  0  0  0  0  0  0  0  0  0  0
   21.0571  -10.3118  -16.0027 C   0  0  0  0  0  0  0  0  0  0  0  0
   21.4855  -10.1729  -14.8122 O   0  0  0  0  0  0  0  0  0  0  0  0
   21.3789   -9.2239  -16.8543 N   0  0  0  0  0  0  0  0  0  0  0  0
   22.0076   -8.0122  -16.3863 C   0  0  1  0  0  0  0  0  0  0  0  0
   22.9110   -7.3782  -17.4003 C   0  0  0  0  0  0  0  0  0  0  0  0
   23.4225   -6.0466  -17.0027 C   0  0  0  0  0  0  0  0  0  0  0  0
   22.6561   -4.8868  -17.0933 C   0  0  0  0  0  0  0  0  0  0  0  0
   23.1270   -3.6546  -16.7197 C   0  0  0  0  0  0  0  0  0  0  0  0
   24.4072   -3.5184  -16.2296 C   0  0  0  0  0  0  0  0  0  0  0  0
   25.1885   -4.6447  -16.1280 C   0  0  0  0  0  0  0  0  0  0  0  0
   24.6942   -5.8719  -16.5093 C   0  0  0  0  0  0  0  0  0  0  0  0
   20.9964   -7.0944  -15.8126 C   0  0  0  0  0  0  0  0  0  0  0  0
   19.9285   -6.8111  -16.3641 O   0  0  0  0  0  0  0  0  0  0  0  0
   21.2479   -6.5068  -14.5793 O   0  0  0  0  0  0  0  0  0  0  0  0
  2  1  1  0
  3  2  1  0
  4  3  1  0
  4  5  1  0
  5  7  1  0
  5  6  1  6
  7  8  2  0
 10 12  1  0
 10  9  1  6
 11 10  1  0
 13  7  1  0
 12 13  1  1
 14 12  1  0
 14 15  2  0
 16 14  1  0
 17 25  1  0
 17 16  1  0
 17 18  1  6
 19 18  1  0
 20 19  2  0
 21 20  1  0
 22 21  2  0
 22 23  1  0
 23 24  2  0
 24 19  1  0
 25 27  1  0
 26 25  2  0
M  END
$$$$
