MTF.pdb
     RDKit          3D

 27 27  0  0  1  0  0  0  0  0999 V2000
   25.6306  -15.2465  -15.4683 C   0  0  0  0  0  0  0  0  0  0  0  0
   23.8293  -15.0218  -15.4931 S   0  0  0  0  0  0  0  0  0  0  0  0
   23.2417  -14.6722  -17.1574 C   0  0  0  0  0  0  0  0  0  0  0  0
   23.3426  -13.2116  -17.5145 C   0  0  0  0  0  0  0  0  0  0  0  0
   22.9243  -12.9492  -18.9489 C   0  0  2  0  0  0  0  0  0  0  0  0
   24.0324  -13.3506  -19.7903 N   0  0  0  0  0  0  0  0  0  0  0  0
   22.7557  -11.4892  -19.0664 C   0  0  0  0  0  0  0  0  0  0  0  0
   23.7271  -10.7936  -19.4428 O   0  0  0  0  0  0  0  0  0  0  0  0
   20.0778   -7.5412  -19.9501 C   0  0  0  0  0  0  0  0  0  0  0  0
   20.2941   -9.0278  -19.8157 C   0  0  1  0  0  0  0  0  0  0  0  0
   20.6315   -9.4784  -21.1075 O   0  0  0  0  0  0  0  0  0  0  0  0
   21.5006   -9.3400  -18.9346 C   0  0  2  0  0  0  0  0  0  0  0  0
   21.5538  -10.8063  -18.7793 N   0  0  0  0  0  0  0  0  0  0  0  0
   21.3981   -8.7796  -17.5829 C   0  0  0  0  0  0  0  0  0  0  0  0
   20.6229   -9.3240  -16.7326 O   0  0  0  0  0  0  0  0  0  0  0  0
   22.0920   -7.6495  -17.0793 N   0  0  0  0  0  0  0  0  0  0  0  0
   21.9343   -7.1611  -15.7305 C   0  0  1  0  0  0  0  0  0  0  0  0
   23.2273   -7.0512  -14.9805 C   0  0  0  0  0  0  0  0  0  0  0  0
   23.9777   -8.3241  -14.8835 C   0  0  0  0  0  0  0  0  0  0  0  0
   23.6266   -9.3407  -13.9980 C   0  0  0  0  0  0  0  0  0  0  0  0
   24.3173  -10.5219  -13.9120 C   0  0  0  0  0  0  0  0  0  0  0  0
   25.4102  -10.7490  -14.7192 C   0  0  0  0  0  0  0  0  0  0  0  0
   25.7818   -9.7649  -15.6038 C   0  0  0  0  0  0  0  0  0  0  0  0
   25.0729   -8.5865  -15.6727 C   0  0  0  0  0  0  0  0  0  0  0  0
   21.1174   -5.9256  -15.7210 C   0  0  0  0  0  0  0  0  0  0  0  0
   20.9106   -5.2264  -16.7176 O   0  0  0  0  0  0  0  0  0  0  0  0
   20.5411   -5.5126  -14.5266 O   0  0  0  0  0  0  0  0  0  0  0  0
  2  1  1  0
  3  2  1  0
  4  3  1  0
  4  5  1  0
  5  7  1  0
  5  6  1  6
  7  8  2  0
 10 12  1  0
 10  9  1  6
 11 10  1  0
 13  7  1  0
 12 13  1  1
 14 12  1  0
 14 15  2  0
 16 14  1  0
 17 25  1  0
 17 16  1  0
 17 18  1  6
 19 18  1  0
 20 19  2  0
 21 20  1  0
 22 21  2  0
 22 23  1  0
 23 24  2  0
 24 19  1  0
 25 27  1  0
 26 25  2  0
M  END
$$$$
