MTF.pdb
     RDKit          3D

 27 27  0  0  1  0  0  0  0  0999 V2000
   27.7365  -14.3041  -16.8628 C   0  0  0  0  0  0  0  0  0  0  0  0
   29.1768  -15.3860  -17.0880 S   0  0  0  0  0  0  0  0  0  0  0  0
   28.6822  -17.0087  -17.6877 C   0  0  0  0  0  0  0  0  0  0  0  0
   27.7392  -17.7134  -16.7468 C   0  0  0  0  0  0  0  0  0  0  0  0
   27.3922  -19.1081  -17.2323 C   0  0  2  0  0  0  0  0  0  0  0  0
   26.7723  -18.9590  -18.5324 N   0  0  0  0  0  0  0  0  0  0  0  0
   26.3832  -19.6302  -16.2925 C   0  0  0  0  0  0  0  0  0  0  0  0
   25.2366  -19.1257  -16.2899 O   0  0  0  0  0  0  0  0  0  0  0  0
   24.6299  -22.5583  -16.3221 C   0  0  0  0  0  0  0  0  0  0  0  0
   25.1477  -22.5300  -14.9057 C   0  0  1  0  0  0  0  0  0  0  0  0
   26.3462  -23.2707  -14.9272 O   0  0  0  0  0  0  0  0  0  0  0  0
   25.5360  -21.1166  -14.4803 C   0  0  2  0  0  0  0  0  0  0  0  0
   26.6221  -20.6788  -15.3777 N   0  0  0  0  0  0  0  0  0  0  0  0
   26.0661  -21.0420  -13.1146 C   0  0  0  0  0  0  0  0  0  0  0  0
   27.3228  -21.1069  -12.9225 O   0  0  0  0  0  0  0  0  0  0  0  0
   25.3142  -20.8978  -11.9204 N   0  0  0  0  0  0  0  0  0  0  0  0
   25.9098  -20.8974  -10.6059 C   0  0  1  0  0  0  0  0  0  0  0  0
   27.0547  -19.9399  -10.4696 C   0  0  0  0  0  0  0  0  0  0  0  0
   27.5938  -19.8370   -9.0943 C   0  0  0  0  0  0  0  0  0  0  0  0
   27.1008  -18.9319   -8.1570 C   0  0  0  0  0  0  0  0  0  0  0  0
   27.5953  -18.8402   -6.8816 C   0  0  0  0  0  0  0  0  0  0  0  0
   28.6232  -19.6614   -6.4734 C   0  0  0  0  0  0  0  0  0  0  0  0
   29.1314  -20.5656   -7.3754 C   0  0  0  0  0  0  0  0  0  0  0  0
   28.6187  -20.6397   -8.6512 C   0  0  0  0  0  0  0  0  0  0  0  0
   24.8654  -20.7506   -9.5660 C   0  0  0  0  0  0  0  0  0  0  0  0
   23.8179  -20.1159   -9.7235 O   0  0  0  0  0  0  0  0  0  0  0  0
   25.0592  -21.3570   -8.3314 O   0  0  0  0  0  0  0  0  0  0  0  0
  2  1  1  0
  3  2  1  0
  4  3  1  0
  4  5  1  0
  5  7  1  0
  5  6  1  6
  7  8  2  0
 10 12  1  0
 10  9  1  6
 11 10  1  0
 13  7  1  0
 12 13  1  6
 14 12  1  0
 14 15  2  0
 16 14  1  0
 17 25  1  0
 17 16  1  0
 17 18  1  6
 19 18  1  0
 20 19  2  0
 21 20  1  0
 22 21  2  0
 22 23  1  0
 23 24  2  0
 24 19  1  0
 25 27  1  0
 26 25  2  0
M  END
$$$$
