MPC.pdb
     RDKit          3D

 22 22  0  0  1  0  0  0  0  0999 V2000
   21.0509  -23.1205  -13.5688 C   0  0  0  0  0  0  0  0  0  0  0  0
   21.4063  -21.5772  -12.7199 S   0  0  0  0  0  0  0  0  0  0  0  0
   22.0208  -20.3790  -13.9194 C   0  0  0  0  0  0  0  0  0  0  0  0
   23.2580  -20.8919  -14.6418 C   0  0  0  0  0  0  0  0  0  0  0  0
   23.6210  -19.8545  -15.7224 C   0  0  2  0  0  0  0  0  0  0  0  0
   22.5107  -19.6761  -16.6043 N   0  0  0  0  0  0  0  0  0  0  0  0
   24.9093  -20.1422  -16.3309 C   0  0  0  0  0  0  0  0  0  0  0  0
   24.9853  -21.1718  -17.0936 O   0  0  0  0  0  0  0  0  0  0  0  0
   26.1276  -19.4005  -16.1795 N   0  0  0  0  0  0  0  0  0  0  0  0
   26.3158  -18.0988  -15.6044 C   0  0  0  0  0  0  0  0  0  0  0  0
   27.6706  -18.2448  -14.8938 C   0  0  0  0  0  0  0  0  0  0  0  0
   28.4501  -18.8408  -16.0820 C   0  0  0  0  0  0  0  0  0  0  0  0
   27.4485  -19.8566  -16.6209 C   0  0  1  0  0  0  0  0  0  0  0  0
   27.7971  -21.1875  -16.1351 C   0  0  0  0  0  0  0  0  0  0  0  0
   27.6935  -21.4907  -14.9332 O   0  0  0  0  0  0  0  0  0  0  0  0
   28.2640  -22.1544  -17.0548 N   0  0  0  0  0  0  0  0  0  0  0  0
   28.5738  -23.5069  -16.6733 C   0  0  1  0  0  0  0  0  0  0  0  0
   27.4501  -24.4164  -17.1827 C   0  0  0  0  0  0  0  0  0  0  0  0
   26.0257  -24.1965  -16.0840 S   0  0  0  0  0  0  0  0  0  0  0  0
   29.8686  -23.8921  -17.2561 C   0  0  0  0  0  0  0  0  0  0  0  0
   30.3537  -23.2519  -18.2160 O   0  0  0  0  0  0  0  0  0  0  0  0
   30.5486  -24.9754  -16.7295 O   0  0  0  0  0  0  0  0  0  0  0  0
  1  2  1  0
  2  3  1  0
  3  4  1  0
  5  7  1  0
  5  4  1  0
  5  6  1  6
  7  8  2  0
  9 13  1  0
  9  7  1  0
 10  9  1  0
 11 10  1  0
 11 12  1  0
 12 13  1  0
 13 14  1  1
 14 16  1  0
 14 15  2  0
 16 17  1  0
 17 20  1  0
 17 18  1  6
 19 18  1  0
 20 21  2  0
 20 22  1  0
M  END
$$$$
