MPC.pdb
     RDKit          3D

 22 22  0  0  1  0  0  0  0  0999 V2000
   21.2107  -16.6799  -15.3961 C   0  0  0  0  0  0  0  0  0  0  0  0
   20.6083  -17.9147  -16.5541 S   0  0  0  0  0  0  0  0  0  0  0  0
   21.9114  -19.1268  -16.8458 C   0  0  0  0  0  0  0  0  0  0  0  0
   22.6586  -19.4669  -15.5645 C   0  0  0  0  0  0  0  0  0  0  0  0
   23.4879  -20.7364  -15.8408 C   0  0  2  0  0  0  0  0  0  0  0  0
   22.6216  -21.7869  -16.2746 N   0  0  0  0  0  0  0  0  0  0  0  0
   24.3921  -21.0358  -14.7428 C   0  0  0  0  0  0  0  0  0  0  0  0
   23.8805  -21.5312  -13.6749 O   0  0  0  0  0  0  0  0  0  0  0  0
   25.8128  -20.8413  -14.7085 N   0  0  0  0  0  0  0  0  0  0  0  0
   26.7034  -20.5637  -15.7995 C   0  0  0  0  0  0  0  0  0  0  0  0
   27.7177  -19.6018  -15.1610 C   0  0  0  0  0  0  0  0  0  0  0  0
   28.0347  -20.4521  -13.9156 C   0  0  0  0  0  0  0  0  0  0  0  0
   26.6409  -20.9121  -13.5015 C   0  0  1  0  0  0  0  0  0  0  0  0
   26.1555  -20.0714  -12.4123 C   0  0  0  0  0  0  0  0  0  0  0  0
   25.4140  -19.0950  -12.6229 O   0  0  0  0  0  0  0  0  0  0  0  0
   26.5385  -20.3758  -11.0859 N   0  0  0  0  0  0  0  0  0  0  0  0
   25.6495  -20.2257   -9.9643 C   0  0  1  0  0  0  0  0  0  0  0  0
   24.4806  -21.2001  -10.1472 C   0  0  0  0  0  0  0  0  0  0  0  0
   23.4557  -21.1138   -8.6550 S   0  0  0  0  0  0  0  0  0  0  0  0
   26.3830  -20.5100   -8.7209 C   0  0  0  0  0  0  0  0  0  0  0  0
   26.4415  -19.6599   -7.8043 O   0  0  0  0  0  0  0  0  0  0  0  0
   27.0110  -21.7337   -8.5743 O   0  0  0  0  0  0  0  0  0  0  0  0
  1  2  1  0
  2  3  1  0
  3  4  1  0
  5  7  1  0
  5  4  1  0
  5  6  1  1
  7  8  2  0
  9 13  1  0
  9  7  1  0
 10  9  1  0
 11 10  1  0
 11 12  1  0
 12 13  1  0
 13 14  1  1
 14 16  1  0
 14 15  2  0
 16 17  1  0
 17 20  1  0
 17 18  1  6
 19 18  1  0
 20 21  2  0
 20 22  1  0
M  END
$$$$
