MPC.pdb
     RDKit          3D

 22 22  0  0  1  0  0  0  0  0999 V2000
   15.4184  -14.6033  -15.7465 C   0  0  0  0  0  0  0  0  0  0  0  0
   16.5247  -13.3735  -15.0447 S   0  0  0  0  0  0  0  0  0  0  0  0
   17.3236  -12.4728  -16.3872 C   0  0  0  0  0  0  0  0  0  0  0  0
   18.1726  -11.3231  -15.8647 C   0  0  0  0  0  0  0  0  0  0  0  0
   19.4367  -11.2504  -16.7436 C   0  0  2  0  0  0  0  0  0  0  0  0
   20.2534  -12.3975  -16.5002 N   0  0  0  0  0  0  0  0  0  0  0  0
   20.0793   -9.9498  -16.6523 C   0  0  0  0  0  0  0  0  0  0  0  0
   20.7636   -9.7021  -15.5949 O   0  0  0  0  0  0  0  0  0  0  0  0
   20.0405   -8.8909  -17.6191 N   0  0  0  0  0  0  0  0  0  0  0  0
   19.5158   -8.9191  -18.9549 C   0  0  0  0  0  0  0  0  0  0  0  0
   18.9067   -7.5157  -19.0999 C   0  0  0  0  0  0  0  0  0  0  0  0
   20.1347   -6.7199  -18.6166 C   0  0  0  0  0  0  0  0  0  0  0  0
   20.5690   -7.5406  -17.4068 C   0  0  1  0  0  0  0  0  0  0  0  0
   20.0763   -6.9075  -16.1881 C   0  0  0  0  0  0  0  0  0  0  0  0
   18.9151   -7.0912  -15.7815 O   0  0  0  0  0  0  0  0  0  0  0  0
   20.9416   -6.0652  -15.4530 N   0  0  0  0  0  0  0  0  0  0  0  0
   20.5752   -5.4850  -14.1881 C   0  0  1  0  0  0  0  0  0  0  0  0
   21.6902   -5.7901  -13.1816 C   0  0  0  0  0  0  0  0  0  0  0  0
   23.1847   -4.9311  -13.7412 S   0  0  0  0  0  0  0  0  0  0  0  0
   20.3960   -4.0339  -14.3522 C   0  0  0  0  0  0  0  0  0  0  0  0
   20.7429   -3.4624  -15.4103 O   0  0  0  0  0  0  0  0  0  0  0  0
   19.8369   -3.3033  -13.3195 O   0  0  0  0  0  0  0  0  0  0  0  0
  1  2  1  0
  2  3  1  0
  3  4  1  0
  5  7  1  0
  5  4  1  0
  5  6  1  1
  7  8  2  0
  9 13  1  0
  9  7  1  0
 10  9  1  0
 11 10  1  0
 11 12  1  0
 12 13  1  0
 13 14  1  1
 14 16  1  0
 14 15  2  0
 16 17  1  0
 17 20  1  0
 17 18  1  1
 19 18  1  0
 20 21  2  0
 20 22  1  0
M  END
$$$$
