MPC.pdb
     RDKit          3D

 22 22  0  0  1  0  0  0  0  0999 V2000
   20.5870  -16.8383  -18.6001 C   0  0  0  0  0  0  0  0  0  0  0  0
   20.9664  -18.0189  -17.2998 S   0  0  0  0  0  0  0  0  0  0  0  0
   22.5340  -18.8245  -17.6816 C   0  0  0  0  0  0  0  0  0  0  0  0
   23.0272  -19.6726  -16.5183 C   0  0  0  0  0  0  0  0  0  0  0  0
   24.3474  -20.3338  -16.9605 C   0  0  2  0  0  0  0  0  0  0  0  0
   24.0738  -21.3349  -17.9429 N   0  0  0  0  0  0  0  0  0  0  0  0
   25.1570  -20.7300  -15.8202 C   0  0  0  0  0  0  0  0  0  0  0  0
   24.8835  -21.8541  -15.2640 O   0  0  0  0  0  0  0  0  0  0  0  0
   26.2446  -20.0035  -15.2314 N   0  0  0  0  0  0  0  0  0  0  0  0
   26.9522  -18.8713  -15.7584 C   0  0  0  0  0  0  0  0  0  0  0  0
   27.2303  -18.0393  -14.4966 C   0  0  0  0  0  0  0  0  0  0  0  0
   27.8280  -19.1746  -13.6431 C   0  0  0  0  0  0  0  0  0  0  0  0
   26.8606  -20.3158  -13.9388 C   0  0  1  0  0  0  0  0  0  0  0  0
   25.8983  -20.4320  -12.8482 C   0  0  0  0  0  0  0  0  0  0  0  0
   24.7963  -19.8563  -12.8869 O   0  0  0  0  0  0  0  0  0  0  0  0
   26.2287  -21.2188  -11.7211 N   0  0  0  0  0  0  0  0  0  0  0  0
   25.3553  -21.3596  -10.5861 C   0  0  1  0  0  0  0  0  0  0  0  0
   26.1631  -21.9669   -9.4338 C   0  0  0  0  0  0  0  0  0  0  0  0
   25.0826  -22.0310   -7.9802 S   0  0  0  0  0  0  0  0  0  0  0  0
   24.8211  -20.0394  -10.2168 C   0  0  0  0  0  0  0  0  0  0  0  0
   25.5850  -19.0589  -10.0695 O   0  0  0  0  0  0  0  0  0  0  0  0
   23.4583  -19.8917  -10.0329 O   0  0  0  0  0  0  0  0  0  0  0  0
  1  2  1  0
  2  3  1  0
  3  4  1  0
  5  7  1  0
  5  4  1  0
  5  6  1  1
  7  8  2  0
  9 13  1  0
  9  7  1  0
 10  9  1  0
 11 10  1  0
 11 12  1  0
 12 13  1  0
 13 14  1  1
 14 16  1  0
 14 15  2  0
 16 17  1  0
 17 20  1  0
 17 18  1  1
 19 18  1  0
 20 21  2  0
 20 22  1  0
M  END
$$$$
