MPC.pdb
     RDKit          3D

 22 22  0  0  1  0  0  0  0  0999 V2000
   26.9179  -18.2025  -17.5341 C   0  0  0  0  0  0  0  0  0  0  0  0
   28.1216  -18.0709  -16.2065 S   0  0  0  0  0  0  0  0  0  0  0  0
   28.1122  -19.6032  -15.2557 C   0  0  0  0  0  0  0  0  0  0  0  0
   26.6950  -20.0812  -14.9755 C   0  0  0  0  0  0  0  0  0  0  0  0
   26.8040  -21.4091  -14.2004 C   0  0  2  0  0  0  0  0  0  0  0  0
   27.3117  -22.4263  -15.0662 N   0  0  0  0  0  0  0  0  0  0  0  0
   25.5808  -21.7083  -13.4745 C   0  0  0  0  0  0  0  0  0  0  0  0
   24.6603  -22.3430  -14.1050 O   0  0  0  0  0  0  0  0  0  0  0  0
   25.2731  -21.3743  -12.1139 N   0  0  0  0  0  0  0  0  0  0  0  0
   26.1538  -20.8795  -11.0941 C   0  0  0  0  0  0  0  0  0  0  0  0
   25.2520  -19.9008  -10.3257 C   0  0  0  0  0  0  0  0  0  0  0  0
   24.0599  -20.8554  -10.1199 C   0  0  0  0  0  0  0  0  0  0  0  0
   23.9501  -21.5020  -11.4967 C   0  0  1  0  0  0  0  0  0  0  0  0
   22.8881  -20.8505  -12.2561 C   0  0  0  0  0  0  0  0  0  0  0  0
   23.0459  -19.7265  -12.7653 O   0  0  0  0  0  0  0  0  0  0  0  0
   21.6504  -21.5147  -12.4157 N   0  0  0  0  0  0  0  0  0  0  0  0
   20.5959  -21.0070  -13.2531 C   0  0  1  0  0  0  0  0  0  0  0  0
   19.7853  -22.1982  -13.7759 C   0  0  0  0  0  0  0  0  0  0  0  0
   19.3004  -23.2015  -12.3466 S   0  0  0  0  0  0  0  0  0  0  0  0
   19.7477  -20.0961  -12.4684 C   0  0  0  0  0  0  0  0  0  0  0  0
   18.8552  -19.4164  -13.0232 O   0  0  0  0  0  0  0  0  0  0  0  0
   19.9478  -19.9979  -11.1033 O   0  0  0  0  0  0  0  0  0  0  0  0
  1  2  1  0
  2  3  1  0
  3  4  1  0
  5  7  1  0
  5  4  1  0
  5  6  1  6
  7  8  2  0
  9 13  1  0
  9  7  1  0
 10  9  1  0
 11 10  1  0
 11 12  1  0
 12 13  1  0
 13 14  1  6
 14 16  1  0
 14 15  2  0
 16 17  1  0
 17 20  1  0
 17 18  1  1
 19 18  1  0
 20 21  2  0
 20 22  1  0
M  END
$$$$
