MPC.pdb
     RDKit          3D

 22 22  0  0  1  0  0  0  0  0999 V2000
   17.0494  -17.2121  -16.9068 C   0  0  0  0  0  0  0  0  0  0  0  0
   17.8167  -15.7589  -16.1799 S   0  0  0  0  0  0  0  0  0  0  0  0
   18.8033  -14.9275  -17.4398 C   0  0  0  0  0  0  0  0  0  0  0  0
   19.5114  -13.7023  -16.8801 C   0  0  0  0  0  0  0  0  0  0  0  0
   20.4597  -13.1799  -17.9771 C   0  0  2  0  0  0  0  0  0  0  0  0
   21.5845  -14.0541  -18.0911 N   0  0  0  0  0  0  0  0  0  0  0  0
   20.7376  -11.7624  -17.8156 C   0  0  0  0  0  0  0  0  0  0  0  0
   21.5263  -11.4202  -16.8625 O   0  0  0  0  0  0  0  0  0  0  0  0
   20.2277  -10.6805  -18.6074 N   0  0  0  0  0  0  0  0  0  0  0  0
   19.4229  -10.7436  -19.7943 C   0  0  0  0  0  0  0  0  0  0  0  0
   18.4898   -9.5343  -19.6249 C   0  0  0  0  0  0  0  0  0  0  0  0
   19.5794   -8.4901  -19.3136 C   0  0  0  0  0  0  0  0  0  0  0  0
   20.4650   -9.2594  -18.3392 C   0  0  1  0  0  0  0  0  0  0  0  0
   20.1424   -8.8631  -16.9726 C   0  0  0  0  0  0  0  0  0  0  0  0
   19.1712   -9.3480  -16.3651 O   0  0  0  0  0  0  0  0  0  0  0  0
   20.9548   -7.9043  -16.3250 N   0  0  0  0  0  0  0  0  0  0  0  0
   20.7081   -7.4546  -14.9805 C   0  0  1  0  0  0  0  0  0  0  0  0
   22.0574   -7.3241  -14.2651 C   0  0  0  0  0  0  0  0  0  0  0  0
   22.6512   -8.9980  -13.9043 S   0  0  0  0  0  0  0  0  0  0  0  0
   20.0060   -6.1622  -15.0211 C   0  0  0  0  0  0  0  0  0  0  0  0
   19.9675   -5.4882  -16.0750 O   0  0  0  0  0  0  0  0  0  0  0  0
   19.3854   -5.6967  -13.8760 O   0  0  0  0  0  0  0  0  0  0  0  0
  1  2  1  0
  2  3  1  0
  3  4  1  0
  5  7  1  0
  5  4  1  0
  5  6  1  1
  7  8  2  0
  9 13  1  0
  9  7  1  0
 10  9  1  0
 11 10  1  0
 11 12  1  0
 12 13  1  0
 13 14  1  1
 14 16  1  0
 14 15  2  0
 16 17  1  0
 17 20  1  0
 17 18  1  1
 19 18  1  0
 20 21  2  0
 20 22  1  0
M  END
$$$$
