QHD.pdb
     RDKit          3D

 28 28  0  0  1  0  0  0  0  0999 V2000
   23.7876  -18.7837  -15.2435 N   0  0  0  0  0  0  0  0  0  0  0  0
   22.6225  -19.5934  -15.2308 C   0  0  0  0  0  0  0  0  0  0  0  0
   22.7649  -20.8275  -15.1554 O   0  0  0  0  0  0  0  0  0  0  0  0
   21.3008  -18.9864  -15.3035 C   0  0  0  0  0  0  0  0  0  0  0  0
   21.2155  -17.5160  -15.3541 C   0  0  0  0  0  0  0  0  0  0  0  0
   21.2828  -16.8459  -16.6710 C   0  0  2  0  0  0  0  0  0  0  0  0
   21.8620  -17.5747  -17.7451 N   0  0  0  0  0  0  0  0  0  0  0  0
   21.7968  -15.4394  -16.5821 C   0  0  0  0  0  0  0  0  0  0  0  0
   21.3693  -14.7214  -15.6493 O   0  0  0  0  0  0  0  0  0  0  0  0
   22.7221  -14.9015  -17.4847 N   0  0  0  0  0  0  0  0  0  0  0  0
   23.2709  -13.5774  -17.4610 C   0  0  1  0  0  0  0  0  0  0  0  0
   24.7298  -13.6091  -17.8332 C   0  0  0  0  0  0  0  0  0  0  0  0
   25.5482  -14.3569  -16.8452 C   0  0  0  0  0  0  0  0  0  0  0  0
   25.1633  -14.7353  -15.5799 C   0  0  0  0  0  0  0  0  0  0  0  0
   26.1628  -15.3863  -14.9913 N   0  0  0  0  0  0  0  0  0  0  0  0
   27.1741  -15.4215  -15.8743 C   0  0  0  0  0  0  0  0  0  0  0  0
   26.8078  -14.7969  -17.0054 N   0  0  0  0  0  0  0  0  0  0  0  0
   22.5023  -12.6540  -18.3417 C   0  0  0  0  0  0  0  0  0  0  0  0
   22.5036  -12.9025  -19.5684 O   0  0  0  0  0  0  0  0  0  0  0  0
   21.7941  -11.5376  -17.8392 N   0  0  0  0  0  0  0  0  0  0  0  0
   20.8626  -10.7926  -18.6382 C   0  0  1  0  0  0  0  0  0  0  0  0
   19.5139  -11.4284  -18.7311 C   0  0  0  0  0  0  0  0  0  0  0  0
   18.5363  -10.6469  -19.4886 C   0  0  0  0  0  0  0  0  0  0  0  0
   18.8867   -9.9633  -20.4743 O   0  0  0  0  0  0  0  0  0  0  0  0
   20.7499   -9.3739  -18.1822 C   0  0  0  0  0  0  0  0  0  0  0  0
   21.4214   -8.9686  -17.0407 O   0  0  0  0  0  0  0  0  0  0  0  0
   17.2052  -10.6524  -19.1246 O   0  0  0  0  0  0  0  0  0  0  0  0
   20.0652   -8.5108  -18.7901 O   0  0  0  0  0  0  0  0  0  0  0  0
  2  1  1  0
  2  3  2  0
  4  5  1  0
  4  2  1  0
  5  6  1  0
  6  8  1  0
  6  7  1  6
  8  9  2  0
 10 11  1  0
 10  8  1  0
 11 12  1  6
 13 12  1  0
 14 13  2  0
 15 14  1  0
 16 15  1  0
 16 17  2  0
 17 13  1  0
 18 11  1  0
 19 18  2  0
 20 18  1  0
 21 22  1  1
 21 20  1  0
 23 22  1  0
 24 23  2  0
 25 26  1  0
 25 21  1  0
 27 23  1  0
 28 25  2  0
M  END
$$$$
