QHD.pdb
     RDKit          3D

 28 28  0  0  1  0  0  0  0  0999 V2000
   17.5684  -14.8080  -16.8088 N   0  0  0  0  0  0  0  0  0  0  0  0
   18.6418  -15.7359  -16.8004 C   0  0  0  0  0  0  0  0  0  0  0  0
   18.4276  -16.8868  -17.2228 O   0  0  0  0  0  0  0  0  0  0  0  0
   19.9549  -15.3413  -16.3097 C   0  0  0  0  0  0  0  0  0  0  0  0
   20.1298  -13.9574  -15.8341 C   0  0  0  0  0  0  0  0  0  0  0  0
   20.1668  -12.8640  -16.8295 C   0  0  2  0  0  0  0  0  0  0  0  0
   21.0566  -13.0115  -17.9280 N   0  0  0  0  0  0  0  0  0  0  0  0
   20.2467  -11.5055  -16.1982 C   0  0  0  0  0  0  0  0  0  0  0  0
   19.5318  -11.2878  -15.1932 O   0  0  0  0  0  0  0  0  0  0  0  0
   21.0753  -10.4837  -16.6773 N   0  0  0  0  0  0  0  0  0  0  0  0
   21.1896   -9.1558  -16.1493 C   0  0  1  0  0  0  0  0  0  0  0  0
   22.4172   -8.4784  -16.6987 C   0  0  0  0  0  0  0  0  0  0  0  0
   22.6245   -7.1279  -16.1172 C   0  0  0  0  0  0  0  0  0  0  0  0
   21.8465   -6.5186  -15.1602 C   0  0  0  0  0  0  0  0  0  0  0  0
   22.3419   -5.3140  -14.8906 N   0  0  0  0  0  0  0  0  0  0  0  0
   23.4252   -5.1586  -15.6692 C   0  0  0  0  0  0  0  0  0  0  0  0
   23.6039   -6.2586  -16.4188 N   0  0  0  0  0  0  0  0  0  0  0  0
   19.9602   -8.3573  -16.4142 C   0  0  0  0  0  0  0  0  0  0  0  0
   19.3819   -8.5460  -17.5081 O   0  0  0  0  0  0  0  0  0  0  0  0
   19.4482   -7.4198  -15.4872 N   0  0  0  0  0  0  0  0  0  0  0  0
   18.2543   -6.6624  -15.7369 C   0  0  1  0  0  0  0  0  0  0  0  0
   17.0227   -7.5030  -15.8296 C   0  0  0  0  0  0  0  0  0  0  0  0
   15.7911   -6.7380  -16.0245 C   0  0  0  0  0  0  0  0  0  0  0  0
   15.0093   -6.5276  -15.0725 O   0  0  0  0  0  0  0  0  0  0  0  0
   18.0735   -5.5650  -14.7387 C   0  0  0  0  0  0  0  0  0  0  0  0
   18.9341   -5.4779  -13.6571 O   0  0  0  0  0  0  0  0  0  0  0  0
   15.4718   -6.2343  -17.2690 O   0  0  0  0  0  0  0  0  0  0  0  0
   17.1649   -4.6993  -14.8287 O   0  0  0  0  0  0  0  0  0  0  0  0
  2  1  1  0
  2  3  2  0
  4  5  1  0
  4  2  1  0
  5  6  1  0
  6  8  1  0
  6  7  1  6
  8  9  2  0
 10 11  1  0
 10  8  1  0
 11 12  1  6
 13 12  1  0
 14 13  2  0
 15 14  1  0
 16 15  1  0
 16 17  2  0
 17 13  1  0
 18 11  1  0
 19 18  2  0
 20 18  1  0
 21 22  1  1
 21 20  1  0
 23 22  1  0
 24 23  2  0
 25 26  1  0
 25 21  1  0
 27 23  1  0
 28 25  2  0
M  END
$$$$
