QHD.pdb
     RDKit          3D

 28 28  0  0  1  0  0  0  0  0999 V2000
   27.6418  -16.4983  -15.9912 N   0  0  0  0  0  0  0  0  0  0  0  0
   28.2099  -17.7295  -16.4091 C   0  0  0  0  0  0  0  0  0  0  0  0
   29.1035  -17.7009  -17.2748 O   0  0  0  0  0  0  0  0  0  0  0  0
   27.7532  -18.9866  -15.8331 C   0  0  0  0  0  0  0  0  0  0  0  0
   26.7820  -18.9292  -14.7261 C   0  0  0  0  0  0  0  0  0  0  0  0
   25.4068  -19.4198  -14.9620 C   0  0  2  0  0  0  0  0  0  0  0  0
   25.1667  -20.1343  -16.1671 N   0  0  0  0  0  0  0  0  0  0  0  0
   24.3628  -18.3778  -14.6890 C   0  0  0  0  0  0  0  0  0  0  0  0
   24.4066  -17.7848  -13.5868 O   0  0  0  0  0  0  0  0  0  0  0  0
   23.3548  -18.0433  -15.6013 N   0  0  0  0  0  0  0  0  0  0  0  0
   22.2949  -17.0997  -15.3981 C   0  0  1  0  0  0  0  0  0  0  0  0
   22.3598  -16.0090  -16.4344 C   0  0  0  0  0  0  0  0  0  0  0  0
   23.4336  -15.0235  -16.1501 C   0  0  0  0  0  0  0  0  0  0  0  0
   24.2159  -14.9660  -15.0201 C   0  0  0  0  0  0  0  0  0  0  0  0
   25.0662  -13.9484  -15.1239 N   0  0  0  0  0  0  0  0  0  0  0  0
   24.8267  -13.3642  -16.3093 C   0  0  0  0  0  0  0  0  0  0  0  0
   23.8343  -14.0128  -16.9400 N   0  0  0  0  0  0  0  0  0  0  0  0
   20.9641  -17.7691  -15.3920 C   0  0  0  0  0  0  0  0  0  0  0  0
   20.8134  -18.7460  -16.1598 O   0  0  0  0  0  0  0  0  0  0  0  0
   19.9004  -17.3389  -14.5651 N   0  0  0  0  0  0  0  0  0  0  0  0
   18.6364  -18.0183  -14.5197 C   0  0  1  0  0  0  0  0  0  0  0  0
   18.2032  -18.3810  -13.1367 C   0  0  0  0  0  0  0  0  0  0  0  0
   16.9942  -19.2032  -13.0861 C   0  0  0  0  0  0  0  0  0  0  0  0
   16.6608  -19.9140  -14.0583 O   0  0  0  0  0  0  0  0  0  0  0  0
   17.5669  -17.2498  -15.2260 C   0  0  0  0  0  0  0  0  0  0  0  0
   16.6651  -17.9212  -16.0348 O   0  0  0  0  0  0  0  0  0  0  0  0
   16.1991  -19.2067  -11.9581 O   0  0  0  0  0  0  0  0  0  0  0  0
   17.4382  -16.0023  -15.1242 O   0  0  0  0  0  0  0  0  0  0  0  0
  2  1  1  0
  2  3  2  0
  4  5  1  0
  4  2  1  0
  5  6  1  0
  6  8  1  0
  6  7  1  6
  8  9  2  0
 10 11  1  0
 10  8  1  0
 11 12  1  6
 13 12  1  0
 14 13  2  0
 15 14  1  0
 16 15  1  0
 16 17  2  0
 17 13  1  0
 18 11  1  0
 19 18  2  0
 20 18  1  0
 21 22  1  1
 21 20  1  0
 23 22  1  0
 24 23  2  0
 25 26  1  0
 25 21  1  0
 27 23  1  0
 28 25  2  0
M  END
$$$$
