EPE.pdb
     RDKit          3D

 26 26  0  0  1  0  0  0  0  0999 V2000
   11.4936  -14.6935   16.0743 N   0  0  0  0  0  0  0  0  0  0  0  0
   10.2274  -14.7529   16.7428 C   0  0  1  0  0  0  0  0  0  0  0  0
    9.5526  -16.0312   16.3320 C   0  0  0  0  0  0  0  0  0  0  0  0
    9.4967  -16.2444   14.8544 C   0  0  0  0  0  0  0  0  0  0  0  0
    8.8134  -17.5437   14.5242 C   0  0  0  0  0  0  0  0  0  0  0  0
    7.7374  -17.8996   15.0938 O   0  0  0  0  0  0  0  0  0  0  0  0
   10.2992  -14.5109   18.1798 C   0  0  0  0  0  0  0  0  0  0  0  0
   11.4055  -14.6431   18.7985 O   0  0  0  0  0  0  0  0  0  0  0  0
    9.3390  -18.4173   13.5685 O   0  0  0  0  0  0  0  0  0  0  0  0
    9.1843  -14.1172   19.0139 N   0  0  0  0  0  0  0  0  0  0  0  0
    7.8505  -13.9228   18.5169 C   0  0  0  0  0  0  0  0  0  0  0  0
    7.1150  -13.1798   19.5959 C   0  0  0  0  0  0  0  0  0  0  0  0
    8.2043  -12.7761   20.6066 C   0  0  0  0  0  0  0  0  0  0  0  0
    9.1783  -13.8836   20.4169 C   0  0  1  0  0  0  0  0  0  0  0  0
    8.9154  -15.0953   21.2250 C   0  0  0  0  0  0  0  0  0  0  0  0
    8.2649  -16.0873   20.7941 O   0  0  0  0  0  0  0  0  0  0  0  0
    9.4222  -15.1334   22.5450 N   0  0  0  0  0  0  0  0  0  0  0  0
   10.3546  -16.1744   23.0286 C   0  0  1  0  0  0  0  0  0  0  0  0
   11.4413  -16.3648   22.0515 C   0  0  0  0  0  0  0  0  0  0  0  0
   12.6238  -15.4743   22.1277 C   0  0  0  0  0  0  0  0  0  0  0  0
   13.8777  -15.9709   21.5314 C   0  0  0  0  0  0  0  0  0  0  0  0
   13.9222  -17.0901   20.9639 O   0  0  0  0  0  0  0  0  0  0  0  0
   10.6868  -15.9712   24.4264 C   0  0  0  0  0  0  0  0  0  0  0  0
   11.3165  -16.8049   25.0937 O   0  0  0  0  0  0  0  0  0  0  0  0
   15.0367  -15.2183   21.5751 O   0  0  0  0  0  0  0  0  0  0  0  0
   10.2899  -14.7875   25.0742 O   0  0  0  0  0  0  0  0  0  0  0  0
  2  1  1  1
  2  7  1  0
  3  2  1  0
  4  3  1  0
  5  4  1  0
  6  5  2  0
  7  8  2  0
  7 10  1  0
  9  5  1  0
 10 11  1  0
 11 12  1  0
 13 12  1  0
 14 10  1  0
 14 13  1  0
 15 16  2  0
 14 15  1  1
 17 15  1  0
 18 17  1  0
 18 23  1  0
 18 19  1  6
 20 21  1  0
 20 19  1  0
 21 22  2  0
 23 26  1  0
 24 23  2  0
 25 21  1  0
M  END
$$$$
