EPE.pdb
     RDKit          3D

 26 26  0  0  1  0  0  0  0  0999 V2000
    9.0833  -15.6041   15.5690 N   0  0  0  0  0  0  0  0  0  0  0  0
    8.2977  -15.5399   16.7658 C   0  0  1  0  0  0  0  0  0  0  0  0
    7.4866  -16.8022   16.8490 C   0  0  0  0  0  0  0  0  0  0  0  0
    7.7993  -17.6514   18.0377 C   0  0  0  0  0  0  0  0  0  0  0  0
    6.9547  -18.8966   18.0459 C   0  0  0  0  0  0  0  0  0  0  0  0
    6.0941  -19.1296   17.1437 O   0  0  0  0  0  0  0  0  0  0  0  0
    9.0599  -15.1996   17.9626 C   0  0  0  0  0  0  0  0  0  0  0  0
   10.3051  -15.4631   18.0270 O   0  0  0  0  0  0  0  0  0  0  0  0
    7.0858  -19.8554   19.0541 O   0  0  0  0  0  0  0  0  0  0  0  0
    8.5158  -14.5622   19.1421 N   0  0  0  0  0  0  0  0  0  0  0  0
    7.1231  -14.2493   19.3048 C   0  0  0  0  0  0  0  0  0  0  0  0
    7.0503  -13.2906   20.4593 C   0  0  0  0  0  0  0  0  0  0  0  0
    8.5155  -12.9210   20.7552 C   0  0  0  0  0  0  0  0  0  0  0  0
    9.2051  -14.1649   20.3211 C   0  0  1  0  0  0  0  0  0  0  0  0
    9.2929  -15.2250   21.3500 C   0  0  0  0  0  0  0  0  0  0  0  0
    8.3631  -16.0476   21.5777 O   0  0  0  0  0  0  0  0  0  0  0  0
   10.4819  -15.3120   22.1111 N   0  0  0  0  0  0  0  0  0  0  0  0
   10.7855  -16.4385   23.0198 C   0  0  1  0  0  0  0  0  0  0  0  0
   12.2064  -16.8102   22.8975 C   0  0  0  0  0  0  0  0  0  0  0  0
   13.2325  -15.8277   23.3204 C   0  0  0  0  0  0  0  0  0  0  0  0
   14.6443  -16.2013   23.1158 C   0  0  0  0  0  0  0  0  0  0  0  0
   15.5688  -15.3924   23.3754 O   0  0  0  0  0  0  0  0  0  0  0  0
   10.2235  -16.2134   24.3385 C   0  0  0  0  0  0  0  0  0  0  0  0
    9.7296  -15.1290   24.6804 O   0  0  0  0  0  0  0  0  0  0  0  0
   14.9903  -17.4518   22.6384 O   0  0  0  0  0  0  0  0  0  0  0  0
   10.2267  -17.2527   25.2862 O   0  0  0  0  0  0  0  0  0  0  0  0
  2  1  1  6
  2  7  1  0
  3  2  1  0
  4  3  1  0
  5  4  1  0
  6  5  2  0
  7  8  2  0
  7 10  1  0
  9  5  1  0
 10 11  1  0
 11 12  1  0
 13 12  1  0
 14 10  1  0
 14 13  1  0
 15 16  2  0
 14 15  1  1
 17 15  1  0
 18 17  1  0
 18 23  1  0
 18 19  1  1
 20 21  1  0
 20 19  1  0
 21 22  2  0
 23 26  1  0
 24 23  2  0
 25 21  1  0
M  END
$$$$
