EPE.pdb
     RDKit          3D

 26 26  0  0  1  0  0  0  0  0999 V2000
    8.3730  -14.6071   20.0493 N   0  0  0  0  0  0  0  0  0  0  0  0
    7.6683  -14.7115   21.2927 C   0  0  1  0  0  0  0  0  0  0  0  0
    6.8603  -15.9781   21.2560 C   0  0  0  0  0  0  0  0  0  0  0  0
    7.6814  -17.2237   21.1788 C   0  0  0  0  0  0  0  0  0  0  0  0
    6.8074  -18.4476   21.2285 C   0  0  0  0  0  0  0  0  0  0  0  0
    5.5494  -18.3801   21.0810 O   0  0  0  0  0  0  0  0  0  0  0  0
    8.5089  -14.5334   22.4719 C   0  0  0  0  0  0  0  0  0  0  0  0
    9.7737  -14.6629   22.3841 O   0  0  0  0  0  0  0  0  0  0  0  0
    7.3497  -19.7182   21.4389 O   0  0  0  0  0  0  0  0  0  0  0  0
    8.0258  -14.2093   23.7968 N   0  0  0  0  0  0  0  0  0  0  0  0
    6.6388  -13.9992   24.1070 C   0  0  0  0  0  0  0  0  0  0  0  0
    6.6159  -13.3380   25.4558 C   0  0  0  0  0  0  0  0  0  0  0  0
    8.0870  -12.9882   25.7463 C   0  0  0  0  0  0  0  0  0  0  0  0
    8.7793  -14.0686   24.9949 C   0  0  1  0  0  0  0  0  0  0  0  0
    8.9609  -15.3340   25.7407 C   0  0  0  0  0  0  0  0  0  0  0  0
    8.1297  -16.2832   25.7067 O   0  0  0  0  0  0  0  0  0  0  0  0
   10.1271  -15.4767   26.5282 N   0  0  0  0  0  0  0  0  0  0  0  0
   10.9631  -16.6965   26.5303 C   0  0  1  0  0  0  0  0  0  0  0  0
   12.2800  -16.4009   25.9383 C   0  0  0  0  0  0  0  0  0  0  0  0
   12.5882  -16.9442   24.5942 C   0  0  0  0  0  0  0  0  0  0  0  0
   13.8853  -16.5705   24.0003 C   0  0  0  0  0  0  0  0  0  0  0  0
   14.6892  -15.8324   24.6210 O   0  0  0  0  0  0  0  0  0  0  0  0
   10.8989  -17.3730   27.8123 C   0  0  0  0  0  0  0  0  0  0  0  0
   11.1667  -18.5756   27.9497 O   0  0  0  0  0  0  0  0  0  0  0  0
   14.2551  -17.0252   22.7481 O   0  0  0  0  0  0  0  0  0  0  0  0
   10.5202  -16.6570   28.9622 O   0  0  0  0  0  0  0  0  0  0  0  0
  2  1  1  6
  2  7  1  0
  3  2  1  0
  4  3  1  0
  5  4  1  0
  6  5  2  0
  7  8  2  0
  7 10  1  0
  9  5  1  0
 10 11  1  0
 11 12  1  0
 13 12  1  0
 14 10  1  0
 14 13  1  0
 15 16  2  0
 14 15  1  1
 17 15  1  0
 18 17  1  0
 18 23  1  0
 18 19  1  1
 20 21  1  0
 20 19  1  0
 21 22  2  0
 23 26  1  0
 24 23  2  0
 25 21  1  0
M  END
$$$$
