EPE.pdb
     RDKit          3D

 26 26  0  0  1  0  0  0  0  0999 V2000
    8.2730  -17.3038   17.0888 N   0  0  0  0  0  0  0  0  0  0  0  0
    7.7018  -16.9799   18.3626 C   0  0  1  0  0  0  0  0  0  0  0  0
    7.0392  -18.2191   18.8954 C   0  0  0  0  0  0  0  0  0  0  0  0
    7.9699  -19.3702   19.0972 C   0  0  0  0  0  0  0  0  0  0  0  0
    7.2544  -20.5364   19.7234 C   0  0  0  0  0  0  0  0  0  0  0  0
    6.5702  -21.3523   19.0343 O   0  0  0  0  0  0  0  0  0  0  0  0
    8.6227  -16.3138   19.2776 C   0  0  0  0  0  0  0  0  0  0  0  0
    9.8778  -16.3422   19.0587 O   0  0  0  0  0  0  0  0  0  0  0  0
    7.3163  -20.7713   21.0996 O   0  0  0  0  0  0  0  0  0  0  0  0
    8.2337  -15.5890   20.4680 N   0  0  0  0  0  0  0  0  0  0  0  0
    6.8717  -15.4491   20.9031 C   0  0  0  0  0  0  0  0  0  0  0  0
    6.8789  -14.3489   21.9261 C   0  0  0  0  0  0  0  0  0  0  0  0
    8.2915  -13.7423   21.8399 C   0  0  0  0  0  0  0  0  0  0  0  0
    9.0742  -14.9306   21.4077 C   0  0  1  0  0  0  0  0  0  0  0  0
    9.5455  -15.8043   22.5054 C   0  0  0  0  0  0  0  0  0  0  0  0
    8.9028  -16.8108   22.9138 O   0  0  0  0  0  0  0  0  0  0  0  0
   10.7786  -15.4867   23.1212 N   0  0  0  0  0  0  0  0  0  0  0  0
   11.6930  -16.5040   23.6832 C   0  0  1  0  0  0  0  0  0  0  0  0
   13.0807  -16.1995   23.2915 C   0  0  0  0  0  0  0  0  0  0  0  0
   14.1662  -17.0698   23.8028 C   0  0  0  0  0  0  0  0  0  0  0  0
   15.5483  -16.6981   23.4475 C   0  0  0  0  0  0  0  0  0  0  0  0
   15.8684  -15.4962   23.2762 O   0  0  0  0  0  0  0  0  0  0  0  0
   11.3922  -16.7646   25.0785 C   0  0  0  0  0  0  0  0  0  0  0  0
   10.7607  -15.9679   25.7881 O   0  0  0  0  0  0  0  0  0  0  0  0
   16.5306  -17.6595   23.2981 O   0  0  0  0  0  0  0  0  0  0  0  0
   11.8233  -17.9635   25.6744 O   0  0  0  0  0  0  0  0  0  0  0  0
  2  1  1  6
  2  7  1  0
  3  2  1  0
  4  3  1  0
  5  4  1  0
  6  5  2  0
  7  8  2  0
  7 10  1  0
  9  5  1  0
 10 11  1  0
 11 12  1  0
 13 12  1  0
 14 10  1  0
 14 13  1  0
 15 16  2  0
 14 15  1  1
 17 15  1  0
 18 17  1  0
 18 23  1  0
 18 19  1  1
 20 21  1  0
 20 19  1  0
 21 22  2  0
 23 26  1  0
 24 23  2  0
 25 21  1  0
M  END
$$$$
