EPE.pdb
     RDKit          3D

 26 26  0  0  1  0  0  0  0  0999 V2000
    9.4972  -15.3704   14.9338 N   0  0  0  0  0  0  0  0  0  0  0  0
    8.6739  -15.2735   16.1027 C   0  0  1  0  0  0  0  0  0  0  0  0
    7.9178  -16.5652   16.2383 C   0  0  0  0  0  0  0  0  0  0  0  0
    8.7834  -17.7545   16.4995 C   0  0  0  0  0  0  0  0  0  0  0  0
    7.9532  -18.9503   16.8802 C   0  0  0  0  0  0  0  0  0  0  0  0
    6.6906  -18.8854   16.9824 O   0  0  0  0  0  0  0  0  0  0  0  0
    9.3838  -14.8296   17.2977 C   0  0  0  0  0  0  0  0  0  0  0  0
   10.6519  -14.9354   17.3674 O   0  0  0  0  0  0  0  0  0  0  0  0
    8.5430  -20.1908   17.1371 O   0  0  0  0  0  0  0  0  0  0  0  0
    8.7607  -14.2535   18.4697 N   0  0  0  0  0  0  0  0  0  0  0  0
    7.3399  -14.1051   18.6218 C   0  0  0  0  0  0  0  0  0  0  0  0
    7.1473  -13.1549   19.7694 C   0  0  0  0  0  0  0  0  0  0  0  0
    8.5570  -12.6143   20.0719 C   0  0  0  0  0  0  0  0  0  0  0  0
    9.3906  -13.7713   19.6502 C   0  0  1  0  0  0  0  0  0  0  0  0
    9.5950  -14.8079   20.6866 C   0  0  0  0  0  0  0  0  0  0  0  0
    8.8545  -15.8229   20.8061 O   0  0  0  0  0  0  0  0  0  0  0  0
   10.6765  -14.6433   21.5832 N   0  0  0  0  0  0  0  0  0  0  0  0
   11.4468  -15.7738   22.1447 C   0  0  1  0  0  0  0  0  0  0  0  0
   12.8884  -15.5483   21.9370 C   0  0  0  0  0  0  0  0  0  0  0  0
   13.8423  -16.5633   22.4438 C   0  0  0  0  0  0  0  0  0  0  0  0
   15.2778  -16.2998   22.2328 C   0  0  0  0  0  0  0  0  0  0  0  0
   15.8525  -15.3524   22.8232 O   0  0  0  0  0  0  0  0  0  0  0  0
   10.9690  -16.1267   23.4686 C   0  0  0  0  0  0  0  0  0  0  0  0
   10.3256  -15.3415   24.1802 O   0  0  0  0  0  0  0  0  0  0  0  0
   16.0319  -17.0896   21.3849 O   0  0  0  0  0  0  0  0  0  0  0  0
   11.2333  -17.4064   23.9889 O   0  0  0  0  0  0  0  0  0  0  0  0
  2  1  1  6
  2  7  1  0
  3  2  1  0
  4  3  1  0
  5  4  1  0
  6  5  2  0
  7  8  2  0
  7 10  1  0
  9  5  1  0
 10 11  1  0
 11 12  1  0
 13 12  1  0
 14 10  1  0
 14 13  1  0
 15 16  2  0
 14 15  1  1
 17 15  1  0
 18 17  1  0
 18 23  1  0
 18 19  1  1
 20 21  1  0
 20 19  1  0
 21 22  2  0
 23 26  1  0
 24 23  2  0
 25 21  1  0
M  END
$$$$
