EPE.pdb
     RDKit          3D

 26 26  0  0  1  0  0  0  0  0999 V2000
   10.8581  -15.0363   15.9341 N   0  0  0  0  0  0  0  0  0  0  0  0
    9.6699  -14.9269   16.7278 C   0  0  1  0  0  0  0  0  0  0  0  0
    8.7669  -16.0704   16.3599 C   0  0  0  0  0  0  0  0  0  0  0  0
    9.2832  -17.4115   16.7681 C   0  0  0  0  0  0  0  0  0  0  0  0
    8.2893  -18.4927   16.4404 C   0  0  0  0  0  0  0  0  0  0  0  0
    7.9892  -19.4025   17.2716 O   0  0  0  0  0  0  0  0  0  0  0  0
    9.9194  -14.7539   18.1549 C   0  0  0  0  0  0  0  0  0  0  0  0
   11.0732  -14.9959   18.6389 O   0  0  0  0  0  0  0  0  0  0  0  0
    7.6501  -18.5382   15.1985 O   0  0  0  0  0  0  0  0  0  0  0  0
    8.9385  -14.3141   19.1236 N   0  0  0  0  0  0  0  0  0  0  0  0
    7.5699  -14.0273   18.7938 C   0  0  0  0  0  0  0  0  0  0  0  0
    7.0162  -13.2678   19.9659 C   0  0  0  0  0  0  0  0  0  0  0  0
    8.2411  -12.9555   20.8451 C   0  0  0  0  0  0  0  0  0  0  0  0
    9.1141  -14.1149   20.5209 C   0  0  1  0  0  0  0  0  0  0  0  0
    8.8733  -15.3279   21.3340 C   0  0  0  0  0  0  0  0  0  0  0  0
    8.4026  -16.3981   20.8585 O   0  0  0  0  0  0  0  0  0  0  0  0
    9.1895  -15.2748   22.7116 N   0  0  0  0  0  0  0  0  0  0  0  0
   10.2272  -16.1195   23.3412 C   0  0  1  0  0  0  0  0  0  0  0  0
   11.4646  -16.0698   22.5422 C   0  0  0  0  0  0  0  0  0  0  0  0
   12.6357  -16.8521   23.0042 C   0  0  0  0  0  0  0  0  0  0  0  0
   13.8456  -16.8101   22.1623 C   0  0  0  0  0  0  0  0  0  0  0  0
   14.8550  -17.4992   22.4500 O   0  0  0  0  0  0  0  0  0  0  0  0
   10.2978  -15.8836   24.7712 C   0  0  0  0  0  0  0  0  0  0  0  0
   10.6888  -16.7436   25.5739 O   0  0  0  0  0  0  0  0  0  0  0  0
   13.9018  -16.0166   21.0315 O   0  0  0  0  0  0  0  0  0  0  0  0
    9.9128  -14.6356   25.2934 O   0  0  0  0  0  0  0  0  0  0  0  0
  2  1  1  6
  2  7  1  0
  3  2  1  0
  4  3  1  0
  5  4  1  0
  6  5  2  0
  7  8  2  0
  7 10  1  0
  9  5  1  0
 10 11  1  0
 11 12  1  0
 13 12  1  0
 14 10  1  0
 14 13  1  0
 15 16  2  0
 14 15  1  1
 17 15  1  0
 18 17  1  0
 18 23  1  0
 18 19  1  6
 20 21  1  0
 20 19  1  0
 21 22  2  0
 23 26  1  0
 24 23  2  0
 25 21  1  0
M  END
$$$$
