EPE.pdb
     RDKit          3D

 26 26  0  0  1  0  0  0  0  0999 V2000
    8.7003  -17.4911   16.4353 N   0  0  0  0  0  0  0  0  0  0  0  0
    8.0185  -16.6572   17.3805 C   0  0  1  0  0  0  0  0  0  0  0  0
    6.8307  -17.4223   17.8924 C   0  0  0  0  0  0  0  0  0  0  0  0
    7.1835  -18.6244   18.7061 C   0  0  0  0  0  0  0  0  0  0  0  0
    5.9550  -19.2341   19.3251 C   0  0  0  0  0  0  0  0  0  0  0  0
    5.2603  -20.1053   18.7192 O   0  0  0  0  0  0  0  0  0  0  0  0
    8.8858  -16.0806   18.4024 C   0  0  0  0  0  0  0  0  0  0  0  0
   10.0589  -16.5438   18.5845 O   0  0  0  0  0  0  0  0  0  0  0  0
    5.5268  -18.8641   20.6029 O   0  0  0  0  0  0  0  0  0  0  0  0
    8.5286  -14.9816   19.2732 N   0  0  0  0  0  0  0  0  0  0  0  0
    7.2118  -14.4100   19.3313 C   0  0  0  0  0  0  0  0  0  0  0  0
    7.3644  -13.1013   20.0532 C   0  0  0  0  0  0  0  0  0  0  0  0
    8.8855  -12.8923   20.1694 C   0  0  0  0  0  0  0  0  0  0  0  0
    9.3535  -14.3031   20.2124 C   0  0  1  0  0  0  0  0  0  0  0  0
    9.3626  -14.9201   21.5576 C   0  0  0  0  0  0  0  0  0  0  0  0
    8.3362  -15.4168   22.0985 O   0  0  0  0  0  0  0  0  0  0  0  0
   10.5876  -14.9491   22.2643 N   0  0  0  0  0  0  0  0  0  0  0  0
   10.9417  -16.0067   23.2352 C   0  0  1  0  0  0  0  0  0  0  0  0
   10.6788  -17.3326   22.6479 C   0  0  0  0  0  0  0  0  0  0  0  0
   11.0141  -18.5370   23.4441 C   0  0  0  0  0  0  0  0  0  0  0  0
   10.7256  -19.8476   22.8329 C   0  0  0  0  0  0  0  0  0  0  0  0
   10.3077  -19.9296   21.6517 O   0  0  0  0  0  0  0  0  0  0  0  0
   12.2319  -15.7462   23.8458 C   0  0  0  0  0  0  0  0  0  0  0  0
   12.5671  -16.2302   24.9369 O   0  0  0  0  0  0  0  0  0  0  0  0
   10.9114  -21.0216   23.5391 O   0  0  0  0  0  0  0  0  0  0  0  0
   13.1588  -14.9137   23.1930 O   0  0  0  0  0  0  0  0  0  0  0  0
  2  1  1  1
  2  7  1  0
  3  2  1  0
  4  3  1  0
  5  4  1  0
  6  5  2  0
  7  8  2  0
  7 10  1  0
  9  5  1  0
 10 11  1  0
 11 12  1  0
 13 12  1  0
 14 10  1  0
 14 13  1  0
 15 16  2  0
 14 15  1  1
 17 15  1  0
 18 17  1  0
 18 23  1  0
 18 19  1  6
 20 21  1  0
 20 19  1  0
 21 22  2  0
 23 26  1  0
 24 23  2  0
 25 21  1  0
M  END
$$$$
