EPE.pdb
     RDKit          3D

 26 26  0  0  1  0  0  0  0  0999 V2000
    8.2510  -14.3075   21.0271 N   0  0  0  0  0  0  0  0  0  0  0  0
    7.4802  -14.0420   22.2057 C   0  0  1  0  0  0  0  0  0  0  0  0
    6.2572  -14.9139   22.1587 C   0  0  0  0  0  0  0  0  0  0  0  0
    6.4607  -16.2131   21.4499 C   0  0  0  0  0  0  0  0  0  0  0  0
    5.7443  -17.3303   22.1589 C   0  0  0  0  0  0  0  0  0  0  0  0
    5.7565  -17.4399   23.4225 O   0  0  0  0  0  0  0  0  0  0  0  0
    8.2473  -14.0974   23.4456 C   0  0  0  0  0  0  0  0  0  0  0  0
    9.4535  -14.5086   23.4363 O   0  0  0  0  0  0  0  0  0  0  0  0
    5.0293  -18.2991   21.4495 O   0  0  0  0  0  0  0  0  0  0  0  0
    7.7502  -13.7139   24.7493 N   0  0  0  0  0  0  0  0  0  0  0  0
    6.3838  -13.3492   25.0024 C   0  0  0  0  0  0  0  0  0  0  0  0
    6.3801  -12.6817   26.3483 C   0  0  0  0  0  0  0  0  0  0  0  0
    7.8681  -12.4958   26.6981 C   0  0  0  0  0  0  0  0  0  0  0  0
    8.4656  -13.6508   25.9769 C   0  0  1  0  0  0  0  0  0  0  0  0
    8.4751  -14.9242   26.7311 C   0  0  0  0  0  0  0  0  0  0  0  0
    7.4554  -15.6551   26.8687 O   0  0  0  0  0  0  0  0  0  0  0  0
    9.6925  -15.3334   27.3237 N   0  0  0  0  0  0  0  0  0  0  0  0
    9.9888  -16.7356   27.6884 C   0  0  1  0  0  0  0  0  0  0  0  0
   10.6500  -17.4162   26.5607 C   0  0  0  0  0  0  0  0  0  0  0  0
   11.9864  -16.9387   26.1330 C   0  0  0  0  0  0  0  0  0  0  0  0
   12.6217  -17.6440   25.0045 C   0  0  0  0  0  0  0  0  0  0  0  0
   12.0270  -18.5770   24.4109 O   0  0  0  0  0  0  0  0  0  0  0  0
   10.5802  -16.8189   29.0108 C   0  0  0  0  0  0  0  0  0  0  0  0
   10.9586  -15.8199   29.6398 O   0  0  0  0  0  0  0  0  0  0  0  0
   13.8855  -17.2957   24.5649 O   0  0  0  0  0  0  0  0  0  0  0  0
   10.7416  -18.0731   29.6265 O   0  0  0  0  0  0  0  0  0  0  0  0
  2  1  1  6
  2  7  1  0
  3  2  1  0
  4  3  1  0
  5  4  1  0
  6  5  2  0
  7  8  2  0
  7 10  1  0
  9  5  1  0
 10 11  1  0
 11 12  1  0
 13 12  1  0
 14 10  1  0
 14 13  1  0
 15 16  2  0
 14 15  1  1
 17 15  1  0
 18 17  1  0
 18 23  1  0
 18 19  1  6
 20 21  1  0
 20 19  1  0
 21 22  2  0
 23 26  1  0
 24 23  2  0
 25 21  1  0
M  END
$$$$
