EPE.pdb
     RDKit          3D

 26 26  0  0  1  0  0  0  0  0999 V2000
    8.0783  -13.9783   20.8912 N   0  0  0  0  0  0  0  0  0  0  0  0
    7.3425  -13.9754   22.1210 C   0  0  1  0  0  0  0  0  0  0  0  0
    6.4167  -15.1590   22.1032 C   0  0  0  0  0  0  0  0  0  0  0  0
    6.8928  -16.2935   21.2558 C   0  0  0  0  0  0  0  0  0  0  0  0
    7.0522  -17.5459   22.0745 C   0  0  0  0  0  0  0  0  0  0  0  0
    6.6587  -17.6152   23.2783 O   0  0  0  0  0  0  0  0  0  0  0  0
    8.1731  -13.8419   23.3131 C   0  0  0  0  0  0  0  0  0  0  0  0
    9.4350  -14.0031   23.2376 O   0  0  0  0  0  0  0  0  0  0  0  0
    7.6431  -18.6931   21.5379 O   0  0  0  0  0  0  0  0  0  0  0  0
    7.6824  -13.5301   24.6382 N   0  0  0  0  0  0  0  0  0  0  0  0
    6.2886  -13.3862   24.9555 C   0  0  0  0  0  0  0  0  0  0  0  0
    6.2410  -12.7148   26.2986 C   0  0  0  0  0  0  0  0  0  0  0  0
    7.6947  -12.2899   26.5766 C   0  0  0  0  0  0  0  0  0  0  0  0
    8.4352  -13.3415   25.8302 C   0  0  1  0  0  0  0  0  0  0  0  0
    8.6838  -14.5896   26.5858 C   0  0  0  0  0  0  0  0  0  0  0  0
    7.7971  -15.4645   26.7886 O   0  0  0  0  0  0  0  0  0  0  0  0
    9.9831  -14.8028   27.1025 N   0  0  0  0  0  0  0  0  0  0  0  0
   10.4500  -16.1085   27.6164 C   0  0  1  0  0  0  0  0  0  0  0  0
   11.5729  -16.5959   26.7959 C   0  0  0  0  0  0  0  0  0  0  0  0
   12.4073  -15.6025   26.0790 C   0  0  0  0  0  0  0  0  0  0  0  0
   13.4894  -16.1261   25.2248 C   0  0  0  0  0  0  0  0  0  0  0  0
   13.2770  -17.0657   24.4195 O   0  0  0  0  0  0  0  0  0  0  0  0
   10.5868  -16.0841   29.0607 C   0  0  0  0  0  0  0  0  0  0  0  0
   10.4858  -15.0428   29.7260 O   0  0  0  0  0  0  0  0  0  0  0  0
   14.7648  -15.5954   25.2819 O   0  0  0  0  0  0  0  0  0  0  0  0
   10.8444  -17.2777   29.7587 O   0  0  0  0  0  0  0  0  0  0  0  0
  2  1  1  6
  2  7  1  0
  3  2  1  0
  4  3  1  0
  5  4  1  0
  6  5  2  0
  7  8  2  0
  7 10  1  0
  9  5  1  0
 10 11  1  0
 11 12  1  0
 13 12  1  0
 14 10  1  0
 14 13  1  0
 15 16  2  0
 14 15  1  1
 17 15  1  0
 18 17  1  0
 18 23  1  0
 18 19  1  6
 20 21  1  0
 20 19  1  0
 21 22  2  0
 23 26  1  0
 24 23  2  0
 25 21  1  0
M  END
$$$$
