KKV.pdb
     RDKit          3D

 26 25  0  0  1  0  0  0  0  0999 V2000
    6.2970  -16.4752   19.8336 N   0  0  0  0  0  0  0  0  0  0  0  0
    6.9689  -15.4392   20.5651 C   0  0  1  0  0  0  0  0  0  0  0  0
    6.5264  -14.0427   20.1637 C   0  0  0  0  0  0  0  0  0  0  0  0
    7.5423  -13.2712   19.4046 C   0  0  0  0  0  0  0  0  0  0  0  0
    8.7226  -14.0261   18.9072 C   0  0  0  0  0  0  0  0  0  0  0  0
    9.7729  -13.1495   18.2644 C   0  0  0  0  0  0  0  0  0  0  0  0
   10.9791  -13.9128   17.9545 N   0  0  0  0  0  0  0  0  0  0  0  0
    6.7191  -15.6438   22.0123 C   0  0  0  0  0  0  0  0  0  0  0  0
    5.6770  -15.1757   22.5275 O   0  0  0  0  0  0  0  0  0  0  0  0
    7.6362  -16.3596   22.8281 N   0  0  0  0  0  0  0  0  0  0  0  0
    7.3430  -16.5142   24.2187 C   0  0  1  0  0  0  0  0  0  0  0  0
    7.6055  -17.9236   24.7033 C   0  0  0  0  0  0  0  0  0  0  0  0
    6.5793  -18.8252   24.0500 C   0  0  0  0  0  0  0  0  0  0  0  0
    6.8805  -20.2389   24.5111 C   0  0  0  0  0  0  0  0  0  0  0  0
    5.9488  -21.2505   23.8731 C   0  0  0  0  0  0  0  0  0  0  0  0
    6.2867  -22.6038   24.2777 N   0  0  0  0  0  0  0  0  0  0  0  0
    8.1004  -15.5254   25.0074 C   0  0  0  0  0  0  0  0  0  0  0  0
    9.3196  -15.3618   24.7934 O   0  0  0  0  0  0  0  0  0  0  0  0
    6.2518  -12.9323   27.8472 C   0  0  0  0  0  0  0  0  0  0  0  0
    7.5641  -12.6027   27.1685 C   0  0  2  0  0  0  0  0  0  0  0  0
    7.2602  -11.8395   25.8975 C   0  0  0  0  0  0  0  0  0  0  0  0
    8.3278  -13.8793   26.8520 C   0  0  2  0  0  0  0  0  0  0  0  0
    7.4971  -14.7284   26.0256 N   0  0  0  0  0  0  0  0  0  0  0  0
    8.7412  -14.5775   28.0962 C   0  0  0  0  0  0  0  0  0  0  0  0
    9.7247  -14.0516   28.8934 O   0  0  0  0  0  0  0  0  0  0  0  0
    8.2119  -15.6601   28.4581 O   0  0  0  0  0  0  0  0  0  0  0  0
  2  3  1  0
  2  1  1  6
  3  4  1  0
  4  5  1  0
  5  6  1  0
  6  7  1  0
  8  2  1  0
  8  9  2  0
 10  8  1  0
 11 10  1  0
 11 17  1  0
 11 12  1  1
 13 12  1  0
 13 14  1  0
 15 14  1  0
 16 15  1  0
 17 23  1  0
 18 17  2  0
 20 21  1  6
 20 19  1  0
 20 22  1  0
 22 24  1  0
 22 23  1  6
 24 26  2  0
 24 25  1  0
M  END
$$$$
