KKV.pdb
     RDKit          3D

 26 25  0  0  1  0  0  0  0  0999 V2000
   10.6176  -19.1379   21.1057 N   0  0  0  0  0  0  0  0  0  0  0  0
   11.8234  -18.5128   21.5696 C   0  0  1  0  0  0  0  0  0  0  0  0
   12.7753  -18.1450   20.4446 C   0  0  0  0  0  0  0  0  0  0  0  0
   12.1256  -17.4972   19.2777 C   0  0  0  0  0  0  0  0  0  0  0  0
   13.0244  -16.9814   18.2115 C   0  0  0  0  0  0  0  0  0  0  0  0
   12.2929  -16.2658   17.0991 C   0  0  0  0  0  0  0  0  0  0  0  0
   13.2287  -15.6100   16.1892 N   0  0  0  0  0  0  0  0  0  0  0  0
   11.4609  -17.2945   22.3333 C   0  0  0  0  0  0  0  0  0  0  0  0
   12.3699  -16.5498   22.7686 O   0  0  0  0  0  0  0  0  0  0  0  0
   10.1044  -16.9529   22.5822 N   0  0  0  0  0  0  0  0  0  0  0  0
    9.8209  -15.7862   23.3582 C   0  0  1  0  0  0  0  0  0  0  0  0
    8.4458  -15.2268   23.0648 C   0  0  0  0  0  0  0  0  0  0  0  0
    8.6139  -14.1294   22.0351 C   0  0  0  0  0  0  0  0  0  0  0  0
    7.5915  -14.3902   20.9449 C   0  0  0  0  0  0  0  0  0  0  0  0
    7.6822  -13.3666   19.8304 C   0  0  0  0  0  0  0  0  0  0  0  0
    6.7415  -13.6655   18.7650 N   0  0  0  0  0  0  0  0  0  0  0  0
    9.9853  -16.0819   24.7931 C   0  0  0  0  0  0  0  0  0  0  0  0
   10.1274  -17.2631   25.1721 O   0  0  0  0  0  0  0  0  0  0  0  0
   10.5015  -12.9888   27.5945 C   0  0  0  0  0  0  0  0  0  0  0  0
    9.8085  -14.2519   28.0593 C   0  0  2  0  0  0  0  0  0  0  0  0
   10.2100  -14.5101   29.4954 C   0  0  0  0  0  0  0  0  0  0  0  0
   10.2064  -15.4252   27.1772 C   0  0  2  0  0  0  0  0  0  0  0  0
    9.9904  -15.0637   25.7927 N   0  0  0  0  0  0  0  0  0  0  0  0
    9.4454  -16.6485   27.5390 C   0  0  0  0  0  0  0  0  0  0  0  0
    8.2634  -16.9422   26.9099 O   0  0  0  0  0  0  0  0  0  0  0  0
    9.8518  -17.4471   28.4223 O   0  0  0  0  0  0  0  0  0  0  0  0
  2  3  1  0
  2  1  1  6
  3  4  1  0
  4  5  1  0
  5  6  1  0
  6  7  1  0
  8  2  1  0
  8  9  2  0
 10  8  1  0
 11 10  1  0
 11 17  1  0
 11 12  1  1
 13 12  1  0
 13 14  1  0
 15 14  1  0
 16 15  1  0
 17 23  1  0
 18 17  2  0
 20 21  1  1
 20 19  1  0
 20 22  1  0
 22 24  1  0
 22 23  1  6
 24 26  2  0
 24 25  1  0
M  END
$$$$
