KKV.pdb
     RDKit          3D

 26 25  0  0  1  0  0  0  0  0999 V2000
    6.0122  -16.4299   19.5539 N   0  0  0  0  0  0  0  0  0  0  0  0
    7.1255  -15.8273   20.2301 C   0  0  1  0  0  0  0  0  0  0  0  0
    7.2208  -14.3284   20.0032 C   0  0  0  0  0  0  0  0  0  0  0  0
    7.4629  -13.9352   18.5925 C   0  0  0  0  0  0  0  0  0  0  0  0
    8.7473  -14.3742   17.9857 C   0  0  0  0  0  0  0  0  0  0  0  0
    8.8937  -13.9828   16.5331 C   0  0  0  0  0  0  0  0  0  0  0  0
    8.9811  -12.5324   16.3841 N   0  0  0  0  0  0  0  0  0  0  0  0
    7.0033  -16.1042   21.6818 C   0  0  0  0  0  0  0  0  0  0  0  0
    5.9021  -15.9207   22.2511 O   0  0  0  0  0  0  0  0  0  0  0  0
    8.1084  -16.5734   22.4416 N   0  0  0  0  0  0  0  0  0  0  0  0
    7.9439  -16.7623   23.8491 C   0  0  1  0  0  0  0  0  0  0  0  0
    8.6442  -18.0098   24.3425 C   0  0  0  0  0  0  0  0  0  0  0  0
    8.5056  -18.0403   25.8500 C   0  0  0  0  0  0  0  0  0  0  0  0
    9.2959  -19.2395   26.3391 C   0  0  0  0  0  0  0  0  0  0  0  0
    9.2626  -19.3584   27.8500 C   0  0  0  0  0  0  0  0  0  0  0  0
    9.9414  -20.5620   28.2971 N   0  0  0  0  0  0  0  0  0  0  0  0
    8.4036  -15.5652   24.5764 C   0  0  0  0  0  0  0  0  0  0  0  0
    9.5516  -15.1176   24.3742 O   0  0  0  0  0  0  0  0  0  0  0  0
    7.5419  -11.3644   26.8447 C   0  0  0  0  0  0  0  0  0  0  0  0
    7.0331  -12.6151   26.1602 C   0  0  2  0  0  0  0  0  0  0  0  0
    5.7896  -13.0791   26.8872 C   0  0  0  0  0  0  0  0  0  0  0  0
    8.0993  -13.6994   26.1858 C   0  0  2  0  0  0  0  0  0  0  0  0
    7.5847  -14.8771   25.5208 N   0  0  0  0  0  0  0  0  0  0  0  0
    8.5163  -14.0065   27.5781 C   0  0  0  0  0  0  0  0  0  0  0  0
    9.3748  -13.1720   28.2458 O   0  0  0  0  0  0  0  0  0  0  0  0
    8.1030  -15.0278   28.1857 O   0  0  0  0  0  0  0  0  0  0  0  0
  2  3  1  0
  2  1  1  6
  3  4  1  0
  4  5  1  0
  5  6  1  0
  6  7  1  0
  8  2  1  0
  8  9  2  0
 10  8  1  0
 11 10  1  0
 11 17  1  0
 11 12  1  1
 13 12  1  0
 13 14  1  0
 15 14  1  0
 16 15  1  0
 17 23  1  0
 18 17  2  0
 20 21  1  1
 20 19  1  0
 20 22  1  0
 22 24  1  0
 22 23  1  1
 24 26  2  0
 24 25  1  0
M  END
$$$$
