KKV.pdb
     RDKit          3D

 26 25  0  0  1  0  0  0  0  0999 V2000
   10.7231  -16.2833   20.1868 N   0  0  0  0  0  0  0  0  0  0  0  0
    9.4588  -16.4711   20.8396 C   0  0  1  0  0  0  0  0  0  0  0  0
    9.0828  -17.9338   21.0018 C   0  0  0  0  0  0  0  0  0  0  0  0
   10.0760  -18.7436   21.7509 C   0  0  0  0  0  0  0  0  0  0  0  0
    9.7911  -20.1966   21.8853 C   0  0  0  0  0  0  0  0  0  0  0  0
   10.8372  -20.9463   22.6780 C   0  0  0  0  0  0  0  0  0  0  0  0
   10.4862  -22.3578   22.8116 N   0  0  0  0  0  0  0  0  0  0  0  0
    9.5126  -15.8204   22.1709 C   0  0  0  0  0  0  0  0  0  0  0  0
   10.6250  -15.5124   22.6590 O   0  0  0  0  0  0  0  0  0  0  0  0
    8.3296  -15.5384   22.9056 N   0  0  0  0  0  0  0  0  0  0  0  0
    8.4291  -14.7424   24.0889 C   0  0  1  0  0  0  0  0  0  0  0  0
    7.1008  -14.1302   24.4774 C   0  0  0  0  0  0  0  0  0  0  0  0
    7.3489  -13.2293   25.6689 C   0  0  0  0  0  0  0  0  0  0  0  0
    6.0236  -12.5720   26.0055 C   0  0  0  0  0  0  0  0  0  0  0  0
    6.1677  -11.5478   27.1138 C   0  0  0  0  0  0  0  0  0  0  0  0
    4.8731  -11.0344   27.5260 N   0  0  0  0  0  0  0  0  0  0  0  0
    8.9937  -15.5434   25.1903 C   0  0  0  0  0  0  0  0  0  0  0  0
    8.8249  -16.7805   25.2093 O   0  0  0  0  0  0  0  0  0  0  0  0
   12.3243  -14.2741   27.3780 C   0  0  0  0  0  0  0  0  0  0  0  0
   11.2301  -14.9700   28.1590 C   0  0  2  0  0  0  0  0  0  0  0  0
   11.8810  -15.8301   29.2205 C   0  0  0  0  0  0  0  0  0  0  0  0
   10.3821  -15.8242   27.2293 C   0  0  2  0  0  0  0  0  0  0  0  0
    9.7399  -14.9635   26.2593 N   0  0  0  0  0  0  0  0  0  0  0  0
    9.3826  -16.6147   27.9925 C   0  0  0  0  0  0  0  0  0  0  0  0
    9.7321  -17.8122   28.5611 O   0  0  0  0  0  0  0  0  0  0  0  0
    8.1973  -16.2203   28.1424 O   0  0  0  0  0  0  0  0  0  0  0  0
  2  3  1  0
  2  1  1  1
  3  4  1  0
  4  5  1  0
  5  6  1  0
  6  7  1  0
  8  2  1  0
  8  9  2  0
 10  8  1  0
 11 10  1  0
 11 17  1  0
 11 12  1  1
 13 12  1  0
 13 14  1  0
 15 14  1  0
 16 15  1  0
 17 23  1  0
 18 17  2  0
 20 21  1  1
 20 19  1  0
 20 22  1  0
 22 24  1  0
 22 23  1  6
 24 26  2  0
 24 25  1  0
M  END
$$$$
