KKV.pdb
     RDKit          3D

 26 25  0  0  1  0  0  0  0  0999 V2000
    9.1547  -16.4452   19.8324 N   0  0  0  0  0  0  0  0  0  0  0  0
    8.6957  -15.1965   20.3709 C   0  0  1  0  0  0  0  0  0  0  0  0
    7.7372  -14.4650   19.4472 C   0  0  0  0  0  0  0  0  0  0  0  0
    7.9951  -14.6784   18.0011 C   0  0  0  0  0  0  0  0  0  0  0  0
    7.6027  -13.5783   17.0812 C   0  0  0  0  0  0  0  0  0  0  0  0
    7.8319  -13.9004   15.6223 C   0  0  0  0  0  0  0  0  0  0  0  0
    7.4335  -12.7852   14.7672 N   0  0  0  0  0  0  0  0  0  0  0  0
    8.0323  -15.4575   21.6712 C   0  0  0  0  0  0  0  0  0  0  0  0
    7.4263  -14.5253   22.2491 O   0  0  0  0  0  0  0  0  0  0  0  0
    8.0689  -16.7426   22.2762 N   0  0  0  0  0  0  0  0  0  0  0  0
    7.4698  -16.9134   23.5630 C   0  0  1  0  0  0  0  0  0  0  0  0
    7.5918  -18.3361   24.0642 C   0  0  0  0  0  0  0  0  0  0  0  0
    7.0360  -18.3690   25.4723 C   0  0  0  0  0  0  0  0  0  0  0  0
    7.2493  -19.7771   25.9954 C   0  0  0  0  0  0  0  0  0  0  0  0
    6.7156  -19.9418   27.4047 C   0  0  0  0  0  0  0  0  0  0  0  0
    7.7286  -20.4908   28.2890 N   0  0  0  0  0  0  0  0  0  0  0  0
    8.0500  -15.9550   24.5213 C   0  0  0  0  0  0  0  0  0  0  0  0
    9.2897  -15.8734   24.6456 O   0  0  0  0  0  0  0  0  0  0  0  0
    6.3567  -12.3834   25.0373 C   0  0  0  0  0  0  0  0  0  0  0  0
    6.8625  -12.9420   26.3502 C   0  0  2  0  0  0  0  0  0  0  0  0
    7.4919  -11.8106   27.1338 C   0  0  0  0  0  0  0  0  0  0  0  0
    7.8804  -14.0430   26.0960 C   0  0  2  0  0  0  0  0  0  0  0  0
    7.2483  -15.0969   25.3319 N   0  0  0  0  0  0  0  0  0  0  0  0
    8.4361  -14.5624   27.3719 C   0  0  0  0  0  0  0  0  0  0  0  0
    9.4470  -13.8934   28.0122 O   0  0  0  0  0  0  0  0  0  0  0  0
    8.0060  -15.6188   27.9030 O   0  0  0  0  0  0  0  0  0  0  0  0
  2  3  1  0
  2  1  1  6
  3  4  1  0
  4  5  1  0
  5  6  1  0
  6  7  1  0
  8  2  1  0
  8  9  2  0
 10  8  1  0
 11 10  1  0
 11 17  1  0
 11 12  1  1
 13 12  1  0
 13 14  1  0
 15 14  1  0
 16 15  1  0
 17 23  1  0
 18 17  2  0
 20 21  1  1
 20 19  1  0
 20 22  1  0
 22 24  1  0
 22 23  1  1
 24 26  2  0
 24 25  1  0
M  END
$$$$
