KKV.pdb
     RDKit          3D

 26 25  0  0  1  0  0  0  0  0999 V2000
    8.6160  -15.8948   19.5738 N   0  0  0  0  0  0  0  0  0  0  0  0
    8.1101  -14.7183   20.2217 C   0  0  1  0  0  0  0  0  0  0  0  0
    7.0656  -13.9859   19.3970 C   0  0  0  0  0  0  0  0  0  0  0  0
    7.1684  -14.2136   17.9339 C   0  0  0  0  0  0  0  0  0  0  0  0
    8.4765  -13.9051   17.2982 C   0  0  0  0  0  0  0  0  0  0  0  0
    8.4812  -14.1029   15.7997 C   0  0  0  0  0  0  0  0  0  0  0  0
    9.7663  -13.7188   15.2212 N   0  0  0  0  0  0  0  0  0  0  0  0
    7.5276  -15.1110   21.5276 C   0  0  0  0  0  0  0  0  0  0  0  0
    6.7088  -14.3465   22.0893 O   0  0  0  0  0  0  0  0  0  0  0  0
    7.8779  -16.3361   22.1562 N   0  0  0  0  0  0  0  0  0  0  0  0
    7.4200  -16.5804   23.4882 C   0  0  1  0  0  0  0  0  0  0  0  0
    7.6956  -18.0000   23.9343 C   0  0  0  0  0  0  0  0  0  0  0  0
    7.2298  -18.1217   25.3700 C   0  0  0  0  0  0  0  0  0  0  0  0
    7.4817  -19.5568   25.7928 C   0  0  0  0  0  0  0  0  0  0  0  0
    7.1357  -19.7837   27.2513 C   0  0  0  0  0  0  0  0  0  0  0  0
    7.2527  -21.1871   27.6065 N   0  0  0  0  0  0  0  0  0  0  0  0
    8.0164  -15.6011   24.4148 C   0  0  0  0  0  0  0  0  0  0  0  0
    9.2526  -15.4252   24.4224 O   0  0  0  0  0  0  0  0  0  0  0  0
    6.4453  -12.0325   25.2661 C   0  0  0  0  0  0  0  0  0  0  0  0
    6.8861  -12.7585   26.5192 C   0  0  2  0  0  0  0  0  0  0  0  0
    7.5124  -11.7477   27.4553 C   0  0  0  0  0  0  0  0  0  0  0  0
    7.8856  -13.8503   26.1704 C   0  0  2  0  0  0  0  0  0  0  0  0
    7.2349  -14.8268   25.3235 N   0  0  0  0  0  0  0  0  0  0  0  0
    8.4362  -14.4829   27.3964 C   0  0  0  0  0  0  0  0  0  0  0  0
    8.0277  -15.7357   27.7745 O   0  0  0  0  0  0  0  0  0  0  0  0
    9.2842  -13.9010   28.1212 O   0  0  0  0  0  0  0  0  0  0  0  0
  2  3  1  0
  2  1  1  6
  3  4  1  0
  4  5  1  0
  5  6  1  0
  6  7  1  0
  8  2  1  0
  8  9  2  0
 10  8  1  0
 11 10  1  0
 11 17  1  0
 11 12  1  1
 13 12  1  0
 13 14  1  0
 15 14  1  0
 16 15  1  0
 17 23  1  0
 18 17  2  0
 20 21  1  1
 20 19  1  0
 20 22  1  0
 22 24  1  0
 22 23  1  6
 24 26  2  0
 24 25  1  0
M  END
$$$$
