KKV.pdb
     RDKit          3D

 26 25  0  0  1  0  0  0  0  0999 V2000
   11.0218  -16.3761   19.9812 N   0  0  0  0  0  0  0  0  0  0  0  0
   10.2141  -17.0418   20.9631 C   0  0  1  0  0  0  0  0  0  0  0  0
   10.7610  -18.4013   21.3629 C   0  0  0  0  0  0  0  0  0  0  0  0
   11.9764  -18.8170   20.6192 C   0  0  0  0  0  0  0  0  0  0  0  0
   12.5008  -20.1795   20.9009 C   0  0  0  0  0  0  0  0  0  0  0  0
   13.7502  -20.5188   20.1208 C   0  0  0  0  0  0  0  0  0  0  0  0
   14.3080  -21.7989   20.5494 N   0  0  0  0  0  0  0  0  0  0  0  0
   10.1144  -16.1735   22.1610 C   0  0  0  0  0  0  0  0  0  0  0  0
   11.0563  -15.3932   22.4337 O   0  0  0  0  0  0  0  0  0  0  0  0
    8.9732  -16.2070   23.0068 N   0  0  0  0  0  0  0  0  0  0  0  0
    8.8858  -15.2669   24.0803 C   0  0  1  0  0  0  0  0  0  0  0  0
    7.4551  -14.8742   24.3790 C   0  0  0  0  0  0  0  0  0  0  0  0
    7.4915  -13.8357   25.4803 C   0  0  0  0  0  0  0  0  0  0  0  0
    6.0532  -13.4418   25.7595 C   0  0  0  0  0  0  0  0  0  0  0  0
    5.9663  -12.2415   26.6815 C   0  0  0  0  0  0  0  0  0  0  0  0
    4.5864  -11.8404   26.8927 N   0  0  0  0  0  0  0  0  0  0  0  0
    9.5563  -15.8044   25.2782 C   0  0  0  0  0  0  0  0  0  0  0  0
    9.9012  -17.0040   25.3119 O   0  0  0  0  0  0  0  0  0  0  0  0
   11.1553  -13.2966   28.2830 C   0  0  0  0  0  0  0  0  0  0  0  0
   10.5217  -14.6045   28.7068 C   0  0  2  0  0  0  0  0  0  0  0  0
   11.3074  -15.1522   29.8785 C   0  0  0  0  0  0  0  0  0  0  0  0
   10.5327  -15.5930   27.5511 C   0  0  2  0  0  0  0  0  0  0  0  0
    9.8371  -15.0053   26.4264 N   0  0  0  0  0  0  0  0  0  0  0  0
    9.9185  -16.8861   27.9476 C   0  0  0  0  0  0  0  0  0  0  0  0
   10.6970  -17.9040   28.4347 O   0  0  0  0  0  0  0  0  0  0  0  0
    8.6808  -17.0910   27.8522 O   0  0  0  0  0  0  0  0  0  0  0  0
  2  3  1  0
  2  1  1  6
  3  4  1  0
  4  5  1  0
  5  6  1  0
  6  7  1  0
  8  2  1  0
  8  9  2  0
 10  8  1  0
 11 10  1  0
 11 17  1  0
 11 12  1  1
 13 12  1  0
 13 14  1  0
 15 14  1  0
 16 15  1  0
 17 23  1  0
 18 17  2  0
 20 21  1  1
 20 19  1  0
 20 22  1  0
 22 24  1  0
 22 23  1  6
 24 26  2  0
 24 25  1  0
M  END
$$$$
