KKV.pdb
     RDKit          3D

 26 25  0  0  1  0  0  0  0  0999 V2000
    5.3721  -16.1429   20.1898 N   0  0  0  0  0  0  0  0  0  0  0  0
    6.5871  -15.7535   20.8470 C   0  0  1  0  0  0  0  0  0  0  0  0
    6.8514  -14.2595   20.7753 C   0  0  0  0  0  0  0  0  0  0  0  0
    7.1146  -13.7475   19.4070 C   0  0  0  0  0  0  0  0  0  0  0  0
    8.4638  -14.0118   18.8410 C   0  0  0  0  0  0  0  0  0  0  0  0
    8.6683  -13.4190   17.4657 C   0  0  0  0  0  0  0  0  0  0  0  0
   10.0210  -13.6743   16.9773 N   0  0  0  0  0  0  0  0  0  0  0  0
    6.5145  -16.1786   22.2658 C   0  0  0  0  0  0  0  0  0  0  0  0
    5.5116  -15.8669   22.9495 O   0  0  0  0  0  0  0  0  0  0  0  0
    7.5582  -16.9322   22.8672 N   0  0  0  0  0  0  0  0  0  0  0  0
    7.4804  -17.2194   24.2655 C   0  0  1  0  0  0  0  0  0  0  0  0
    7.8972  -18.6398   24.5796 C   0  0  0  0  0  0  0  0  0  0  0  0
    6.6920  -19.5268   24.3478 C   0  0  0  0  0  0  0  0  0  0  0  0
    7.1130  -20.5862   23.3467 C   0  0  0  0  0  0  0  0  0  0  0  0
    5.9472  -21.4593   22.9262 C   0  0  0  0  0  0  0  0  0  0  0  0
    6.3269  -22.3609   21.8527 N   0  0  0  0  0  0  0  0  0  0  0  0
    8.2819  -16.2439   25.0267 C   0  0  0  0  0  0  0  0  0  0  0  0
    9.3751  -15.8475   24.5718 O   0  0  0  0  0  0  0  0  0  0  0  0
    6.8561  -13.0155   26.5084 C   0  0  0  0  0  0  0  0  0  0  0  0
    7.7129  -13.6773   27.5665 C   0  0  2  0  0  0  0  0  0  0  0  0
    8.5024  -12.5996   28.2773 C   0  0  0  0  0  0  0  0  0  0  0  0
    8.6512  -14.6887   26.9265 C   0  0  2  0  0  0  0  0  0  0  0  0
    7.8620  -15.7182   26.2850 N   0  0  0  0  0  0  0  0  0  0  0  0
    9.5779  -15.2693   27.9319 C   0  0  0  0  0  0  0  0  0  0  0  0
   10.6972  -14.5813   28.3232 O   0  0  0  0  0  0  0  0  0  0  0  0
    9.3724  -16.3960   28.4527 O   0  0  0  0  0  0  0  0  0  0  0  0
  2  3  1  0
  2  1  1  1
  3  4  1  0
  4  5  1  0
  5  6  1  0
  6  7  1  0
  8  2  1  0
  8  9  2  0
 10  8  1  0
 11 10  1  0
 11 17  1  0
 11 12  1  6
 13 12  1  0
 13 14  1  0
 15 14  1  0
 16 15  1  0
 17 23  1  0
 18 17  2  0
 20 21  1  6
 20 19  1  0
 20 22  1  0
 22 24  1  0
 22 23  1  1
 24 26  2  0
 24 25  1  0
M  END
$$$$
