KKV.pdb
     RDKit          3D

 26 25  0  0  1  0  0  0  0  0999 V2000
    5.7308  -17.4905   20.1336 N   0  0  0  0  0  0  0  0  0  0  0  0
    6.6891  -16.6189   20.7515 C   0  0  1  0  0  0  0  0  0  0  0  0
    6.4824  -15.1569   20.3950 C   0  0  0  0  0  0  0  0  0  0  0  0
    7.3712  -14.6564   19.3167 C   0  0  0  0  0  0  0  0  0  0  0  0
    7.9507  -13.2998   19.5019 C   0  0  0  0  0  0  0  0  0  0  0  0
    8.6432  -12.7654   18.2692 C   0  0  0  0  0  0  0  0  0  0  0  0
    9.3204  -11.5023   18.5506 N   0  0  0  0  0  0  0  0  0  0  0  0
    6.6042  -16.7894   22.2221 C   0  0  0  0  0  0  0  0  0  0  0  0
    5.4833  -16.7497   22.7810 O   0  0  0  0  0  0  0  0  0  0  0  0
    7.7670  -16.9971   23.0117 N   0  0  0  0  0  0  0  0  0  0  0  0
    7.6307  -17.0550   24.4336 C   0  0  1  0  0  0  0  0  0  0  0  0
    8.1120  -18.3735   24.9992 C   0  0  0  0  0  0  0  0  0  0  0  0
    7.9446  -18.3091   26.5027 C   0  0  0  0  0  0  0  0  0  0  0  0
    8.4523  -19.6267   27.0576 C   0  0  0  0  0  0  0  0  0  0  0  0
    8.3337  -19.6854   28.5678 C   0  0  0  0  0  0  0  0  0  0  0  0
    8.7119  -20.9933   29.0737 N   0  0  0  0  0  0  0  0  0  0  0  0
    8.3316  -15.9164   25.0548 C   0  0  0  0  0  0  0  0  0  0  0  0
    9.5610  -15.7769   24.8873 O   0  0  0  0  0  0  0  0  0  0  0  0
    6.2919  -12.8741   27.2487 C   0  0  0  0  0  0  0  0  0  0  0  0
    7.6249  -12.6387   26.5711 C   0  0  2  0  0  0  0  0  0  0  0  0
    7.3597  -12.1433   25.1660 C   0  0  0  0  0  0  0  0  0  0  0  0
    8.4323  -13.9270   26.5368 C   0  0  2  0  0  0  0  0  0  0  0  0
    7.6609  -14.9443   25.8555 N   0  0  0  0  0  0  0  0  0  0  0  0
    8.8042  -14.3617   27.9077 C   0  0  0  0  0  0  0  0  0  0  0  0
    9.7298  -13.6564   28.6324 O   0  0  0  0  0  0  0  0  0  0  0  0
    8.2913  -15.3771   28.4451 O   0  0  0  0  0  0  0  0  0  0  0  0
  2  3  1  0
  2  1  1  6
  3  4  1  0
  4  5  1  0
  5  6  1  0
  6  7  1  0
  8  2  1  0
  8  9  2  0
 10  8  1  0
 11 10  1  0
 11 17  1  0
 11 12  1  1
 13 12  1  0
 13 14  1  0
 15 14  1  0
 16 15  1  0
 17 23  1  0
 18 17  2  0
 20 21  1  6
 20 19  1  0
 20 22  1  0
 22 24  1  0
 22 23  1  1
 24 26  2  0
 24 25  1  0
M  END
$$$$
