KKV.pdb
     RDKit          3D

 26 25  0  0  1  0  0  0  0  0999 V2000
    8.6718  -16.2235   19.8559 N   0  0  0  0  0  0  0  0  0  0  0  0
    8.2771  -14.9413   20.3659 C   0  0  1  0  0  0  0  0  0  0  0  0
    7.3195  -14.2029   19.4466 C   0  0  0  0  0  0  0  0  0  0  0  0
    7.2986  -14.7056   18.0502 C   0  0  0  0  0  0  0  0  0  0  0  0
    7.8083  -13.7855   16.9993 C   0  0  0  0  0  0  0  0  0  0  0  0
    8.1442  -14.4803   15.6996 C   0  0  0  0  0  0  0  0  0  0  0  0
    8.5114  -13.5159   14.6659 N   0  0  0  0  0  0  0  0  0  0  0  0
    7.6439  -15.1346   21.6927 C   0  0  0  0  0  0  0  0  0  0  0  0
    7.0462  -14.1750   22.2334 O   0  0  0  0  0  0  0  0  0  0  0  0
    7.7001  -16.3852   22.3648 N   0  0  0  0  0  0  0  0  0  0  0  0
    7.1389  -16.4866   23.6757 C   0  0  1  0  0  0  0  0  0  0  0  0
    7.1147  -17.9143   24.1766 C   0  0  0  0  0  0  0  0  0  0  0  0
    6.0931  -18.6666   23.3501 C   0  0  0  0  0  0  0  0  0  0  0  0
    6.1745  -20.1221   23.7705 C   0  0  0  0  0  0  0  0  0  0  0  0
    5.2211  -20.9926   22.9759 C   0  0  0  0  0  0  0  0  0  0  0  0
    5.4254  -22.4000   23.2705 N   0  0  0  0  0  0  0  0  0  0  0  0
    7.8658  -15.6034   24.6058 C   0  0  0  0  0  0  0  0  0  0  0  0
    9.1142  -15.5819   24.5951 O   0  0  0  0  0  0  0  0  0  0  0  0
    6.6509  -11.9388   25.5937 C   0  0  0  0  0  0  0  0  0  0  0  0
    7.1177  -12.7045   26.8133 C   0  0  2  0  0  0  0  0  0  0  0  0
    7.9076  -11.7584   27.6914 C   0  0  0  0  0  0  0  0  0  0  0  0
    7.9796  -13.8855   26.3947 C   0  0  2  0  0  0  0  0  0  0  0  0
    7.1999  -14.7533   25.5384 N   0  0  0  0  0  0  0  0  0  0  0  0
    8.4935  -14.6192   27.5797 C   0  0  0  0  0  0  0  0  0  0  0  0
    9.6377  -14.2044   28.2105 O   0  0  0  0  0  0  0  0  0  0  0  0
    7.9063  -15.6322   28.0403 O   0  0  0  0  0  0  0  0  0  0  0  0
  2  3  1  0
  2  1  1  6
  3  4  1  0
  4  5  1  0
  5  6  1  0
  6  7  1  0
  8  2  1  0
  8  9  2  0
 10  8  1  0
 11 10  1  0
 11 17  1  0
 11 12  1  1
 13 12  1  0
 13 14  1  0
 15 14  1  0
 16 15  1  0
 17 23  1  0
 18 17  2  0
 20 21  1  1
 20 19  1  0
 20 22  1  0
 22 24  1  0
 22 23  1  6
 24 26  2  0
 24 25  1  0
M  END
$$$$
