KKV.pdb
     RDKit          3D

 26 25  0  0  1  0  0  0  0  0999 V2000
    5.8851  -16.9667   20.0434 N   0  0  0  0  0  0  0  0  0  0  0  0
    7.1627  -16.8643   20.6892 C   0  0  1  0  0  0  0  0  0  0  0  0
    7.9987  -15.7043   20.1769 C   0  0  0  0  0  0  0  0  0  0  0  0
    7.4166  -14.9967   19.0091 C   0  0  0  0  0  0  0  0  0  0  0  0
    8.2181  -13.8856   18.4314 C   0  0  0  0  0  0  0  0  0  0  0  0
    7.5286  -13.1736   17.2902 C   0  0  0  0  0  0  0  0  0  0  0  0
    8.3915  -12.1474   16.7108 N   0  0  0  0  0  0  0  0  0  0  0  0
    6.9444  -16.7145   22.1483 C   0  0  0  0  0  0  0  0  0  0  0  0
    5.9110  -16.1360   22.5581 O   0  0  0  0  0  0  0  0  0  0  0  0
    7.8821  -17.2128   23.0922 N   0  0  0  0  0  0  0  0  0  0  0  0
    7.5526  -17.1586   24.4823 C   0  0  1  0  0  0  0  0  0  0  0  0
    7.9033  -18.4429   25.2018 C   0  0  0  0  0  0  0  0  0  0  0  0
    7.5385  -18.2590   26.6598 C   0  0  0  0  0  0  0  0  0  0  0  0
    7.8594  -19.5657   27.3606 C   0  0  0  0  0  0  0  0  0  0  0  0
    7.4737  -19.5289   28.8262 C   0  0  0  0  0  0  0  0  0  0  0  0
    7.7333  -20.8048   29.4698 N   0  0  0  0  0  0  0  0  0  0  0  0
    8.2052  -15.9956   25.1109 C   0  0  0  0  0  0  0  0  0  0  0  0
    9.4089  -15.7577   24.8792 O   0  0  0  0  0  0  0  0  0  0  0  0
    6.0742  -13.2888   27.6168 C   0  0  0  0  0  0  0  0  0  0  0  0
    7.2429  -12.8386   26.7664 C   0  0  2  0  0  0  0  0  0  0  0  0
    6.7034  -12.3675   25.4333 C   0  0  0  0  0  0  0  0  0  0  0  0
    8.2217  -13.9856   26.5681 C   0  0  2  0  0  0  0  0  0  0  0  0
    7.5153  -15.1086   25.9902 N   0  0  0  0  0  0  0  0  0  0  0  0
    8.8723  -14.3609   27.8496 C   0  0  0  0  0  0  0  0  0  0  0  0
    9.7601  -13.5084   28.4534 O   0  0  0  0  0  0  0  0  0  0  0  0
    8.6360  -15.4579   28.4188 O   0  0  0  0  0  0  0  0  0  0  0  0
  2  3  1  0
  2  1  1  6
  3  4  1  0
  4  5  1  0
  5  6  1  0
  6  7  1  0
  8  2  1  0
  8  9  2  0
 10  8  1  0
 11 10  1  0
 11 17  1  0
 11 12  1  1
 13 12  1  0
 13 14  1  0
 15 14  1  0
 16 15  1  0
 17 23  1  0
 18 17  2  0
 20 21  1  6
 20 19  1  0
 20 22  1  0
 22 24  1  0
 22 23  1  1
 24 26  2  0
 24 25  1  0
M  END
$$$$
