LKS.pdb
     RDKit          3D

 24 23  0  0  1  0  0  0  0  0999 V2000
    7.3744  -13.6169   18.5269 C   0  0  0  0  0  0  0  0  0  0  0  0
    7.1798  -13.2963   20.0018 C   0  0  2  0  0  0  0  0  0  0  0  0
    7.7031  -11.8900   20.3025 C   0  0  0  0  0  0  0  0  0  0  0  0
    8.0132  -14.2540   20.7864 C   0  0  0  0  0  0  0  0  0  0  0  0
    7.5918  -15.6852   20.6295 C   0  0  2  0  0  0  0  0  0  0  0  0
    6.2299  -15.9325   20.9784 N   0  0  0  0  0  0  0  0  0  0  0  0
    8.5443  -16.5368   21.3995 C   0  0  0  0  0  0  0  0  0  0  0  0
    8.3108  -16.8153   22.6027 O   0  0  0  0  0  0  0  0  0  0  0  0
    9.7269  -17.0498   20.8011 N   0  0  0  0  0  0  0  0  0  0  0  0
   10.6203  -17.9748   21.4912 C   0  0  1  0  0  0  0  0  0  0  0  0
   11.1241  -19.0305   20.5713 C   0  0  0  0  0  0  0  0  0  0  0  0
   11.3072  -20.3561   21.2386 C   0  0  0  0  0  0  0  0  0  0  0  0
   11.7319  -21.3985   20.2277 C   0  0  0  0  0  0  0  0  0  0  0  0
   11.8934  -22.7368   20.9629 C   0  0  0  0  0  0  0  0  0  0  0  0
   12.0921  -23.8203   20.0513 N   0  0  0  0  0  0  0  0  0  0  0  0
   11.6677  -17.1527   22.1325 C   0  0  0  0  0  0  0  0  0  0  0  0
   12.1629  -16.2005   21.4853 O   0  0  0  0  0  0  0  0  0  0  0  0
   12.8720  -17.8990   25.9311 O   0  0  0  0  0  0  0  0  0  0  0  0
   13.1165  -16.5975   25.5356 C   0  0  0  0  0  0  0  0  0  0  0  0
   13.1692  -16.5455   24.0110 C   0  0  2  0  0  0  0  0  0  0  0  0
   12.1337  -17.3958   23.4450 N   0  0  0  0  0  0  0  0  0  0  0  0
   14.4981  -16.9745   23.5718 C   0  0  0  0  0  0  0  0  0  0  0  0
   14.7057  -17.9977   22.8706 O   0  0  0  0  0  0  0  0  0  0  0  0
   15.6096  -16.2270   23.9364 O   0  0  0  0  0  0  0  0  0  0  0  0
  2  1  1  6
  2  3  1  0
  4  2  1  0
  4  5  1  0
  5  7  1  0
  5  6  1  1
  7  8  2  0
  9 10  1  0
  9  7  1  0
 11 12  1  0
 10 11  1  6
 13 14  1  0
 13 12  1  0
 15 14  1  0
 16 17  2  0
 16 10  1  0
 18 19  1  0
 20 19  1  1
 20 22  1  0
 20 21  1  0
 21 16  1  0
 22 24  1  0
 23 22  2  0
M  END
$$$$
