LKS.pdb
     RDKit          3D

 24 23  0  0  1  0  0  0  0  0999 V2000
    9.3727  -12.0718   19.5790 C   0  0  0  0  0  0  0  0  0  0  0  0
    8.2253  -13.0296   19.2923 C   0  0  2  0  0  0  0  0  0  0  0  0
    6.9052  -12.4173   19.7656 C   0  0  0  0  0  0  0  0  0  0  0  0
    8.4538  -14.2635   20.1003 C   0  0  0  0  0  0  0  0  0  0  0  0
    9.7701  -14.9276   19.8231 C   0  0  2  0  0  0  0  0  0  0  0  0
    9.9842  -15.2439   18.4476 N   0  0  0  0  0  0  0  0  0  0  0  0
    9.8835  -16.1218   20.7099 C   0  0  0  0  0  0  0  0  0  0  0  0
    9.2564  -16.1611   21.7986 O   0  0  0  0  0  0  0  0  0  0  0  0
   10.6934  -17.2336   20.3526 N   0  0  0  0  0  0  0  0  0  0  0  0
   10.7815  -18.4384   21.1715 C   0  0  1  0  0  0  0  0  0  0  0  0
   11.2466  -19.6046   20.3727 C   0  0  0  0  0  0  0  0  0  0  0  0
   11.2410  -20.8868   21.1421 C   0  0  0  0  0  0  0  0  0  0  0  0
   11.7773  -22.0141   20.2875 C   0  0  0  0  0  0  0  0  0  0  0  0
   11.6693  -23.3161   21.0944 C   0  0  0  0  0  0  0  0  0  0  0  0
   12.1397  -24.4412   20.3481 N   0  0  0  0  0  0  0  0  0  0  0  0
   11.6285  -18.0992   22.3341 C   0  0  0  0  0  0  0  0  0  0  0  0
   12.6436  -17.3876   22.1493 O   0  0  0  0  0  0  0  0  0  0  0  0
   10.2746  -17.6551   25.9416 O   0  0  0  0  0  0  0  0  0  0  0  0
   11.5009  -18.2795   26.0697 C   0  0  0  0  0  0  0  0  0  0  0  0
   12.2390  -18.1982   24.7361 C   0  0  2  0  0  0  0  0  0  0  0  0
   11.3413  -18.5438   23.6450 N   0  0  0  0  0  0  0  0  0  0  0  0
   13.3868  -19.1058   24.7781 C   0  0  0  0  0  0  0  0  0  0  0  0
   13.5449  -20.0696   23.9857 O   0  0  0  0  0  0  0  0  0  0  0  0
   14.3714  -18.9139   25.7378 O   0  0  0  0  0  0  0  0  0  0  0  0
  2  1  1  1
  2  3  1  0
  4  2  1  0
  4  5  1  0
  5  7  1  0
  5  6  1  6
  7  8  2  0
  9 10  1  0
  9  7  1  0
 11 12  1  0
 10 11  1  6
 13 14  1  0
 13 12  1  0
 15 14  1  0
 16 17  2  0
 16 10  1  0
 18 19  1  0
 20 19  1  1
 20 22  1  0
 20 21  1  0
 21 16  1  0
 22 24  1  0
 23 22  2  0
M  END
$$$$
