LKS.pdb
     RDKit          3D

 24 23  0  0  1  0  0  0  0  0999 V2000
    9.5363  -14.1549   19.3079 C   0  0  0  0  0  0  0  0  0  0  0  0
    8.0973  -13.7581   19.0115 C   0  0  2  0  0  0  0  0  0  0  0  0
    7.9932  -12.2372   18.8789 C   0  0  0  0  0  0  0  0  0  0  0  0
    7.2675  -14.1561   20.1865 C   0  0  0  0  0  0  0  0  0  0  0  0
    7.5457  -15.5471   20.6747 C   0  0  2  0  0  0  0  0  0  0  0  0
    6.9482  -16.5726   19.8816 N   0  0  0  0  0  0  0  0  0  0  0  0
    7.1439  -15.6247   22.1092 C   0  0  0  0  0  0  0  0  0  0  0  0
    6.0075  -15.2254   22.4687 O   0  0  0  0  0  0  0  0  0  0  0  0
    8.0238  -16.1458   23.0961 N   0  0  0  0  0  0  0  0  0  0  0  0
    7.6156  -16.3578   24.4811 C   0  0  1  0  0  0  0  0  0  0  0  0
    7.7941  -17.7781   24.8880 C   0  0  0  0  0  0  0  0  0  0  0  0
    6.7587  -18.6911   24.3133 C   0  0  0  0  0  0  0  0  0  0  0  0
    7.0472  -20.1239   24.7039 C   0  0  0  0  0  0  0  0  0  0  0  0
    5.9592  -21.0142   24.0861 C   0  0  0  0  0  0  0  0  0  0  0  0
    6.1665  -22.3945   24.3958 N   0  0  0  0  0  0  0  0  0  0  0  0
    8.3597  -15.3757   25.2970 C   0  0  0  0  0  0  0  0  0  0  0  0
    9.6121  -15.3822   25.2491 O   0  0  0  0  0  0  0  0  0  0  0  0
    6.3796  -12.6934   27.5358 O   0  0  0  0  0  0  0  0  0  0  0  0
    7.6851  -12.2951   27.3190 C   0  0  0  0  0  0  0  0  0  0  0  0
    8.5161  -13.5148   26.9294 C   0  0  2  0  0  0  0  0  0  0  0  0
    7.7176  -14.4296   26.1286 N   0  0  0  0  0  0  0  0  0  0  0  0
    8.9944  -14.1668   28.1497 C   0  0  0  0  0  0  0  0  0  0  0  0
    8.7024  -15.3470   28.4719 O   0  0  0  0  0  0  0  0  0  0  0  0
    9.8189  -13.4645   29.0181 O   0  0  0  0  0  0  0  0  0  0  0  0
  2  1  1  1
  2  3  1  0
  4  2  1  0
  4  5  1  0
  5  7  1  0
  5  6  1  6
  7  8  2  0
  9 10  1  0
  9  7  1  0
 11 12  1  0
 10 11  1  1
 13 14  1  0
 13 12  1  0
 15 14  1  0
 16 17  2  0
 16 10  1  0
 18 19  1  0
 20 19  1  1
 20 22  1  0
 20 21  1  0
 21 16  1  0
 22 24  1  0
 23 22  2  0
M  END
$$$$
