LKS.pdb
     RDKit          3D

 24 23  0  0  1  0  0  0  0  0999 V2000
    6.8733  -10.7673   25.4891 C   0  0  0  0  0  0  0  0  0  0  0  0
    6.4077  -12.2068   25.6542 C   0  0  2  0  0  0  0  0  0  0  0  0
    5.7800  -12.3957   27.0370 C   0  0  0  0  0  0  0  0  0  0  0  0
    7.6151  -13.0820   25.5948 C   0  0  0  0  0  0  0  0  0  0  0  0
    7.3570  -14.4195   24.9663 C   0  0  2  0  0  0  0  0  0  0  0  0
    6.3895  -15.2101   25.6567 N   0  0  0  0  0  0  0  0  0  0  0  0
    8.6649  -15.1202   24.8120 C   0  0  0  0  0  0  0  0  0  0  0  0
    9.6829  -14.4821   24.4427 O   0  0  0  0  0  0  0  0  0  0  0  0
    8.7939  -16.5109   25.0752 N   0  0  0  0  0  0  0  0  0  0  0  0
   10.0707  -17.2126   24.9903 C   0  0  1  0  0  0  0  0  0  0  0  0
   10.0481  -18.4772   25.7744 C   0  0  0  0  0  0  0  0  0  0  0  0
   10.7041  -18.3536   27.1124 C   0  0  0  0  0  0  0  0  0  0  0  0
   10.6441  -19.6730   27.8503 C   0  0  0  0  0  0  0  0  0  0  0  0
   11.1989  -19.4529   29.2651 C   0  0  0  0  0  0  0  0  0  0  0  0
   11.0065  -20.6025   30.0932 N   0  0  0  0  0  0  0  0  0  0  0  0
   10.3704  -17.3740   23.5522 C   0  0  0  0  0  0  0  0  0  0  0  0
    9.4437  -17.7179   22.7814 O   0  0  0  0  0  0  0  0  0  0  0  0
   12.6683  -15.2954   20.9214 O   0  0  0  0  0  0  0  0  0  0  0  0
   11.6204  -16.1833   20.7687 C   0  0  0  0  0  0  0  0  0  0  0  0
   11.9029  -17.4300   21.6028 C   0  0  2  0  0  0  0  0  0  0  0  0
   11.6580  -17.1569   23.0103 N   0  0  0  0  0  0  0  0  0  0  0  0
   13.2912  -17.8386   21.3819 C   0  0  0  0  0  0  0  0  0  0  0  0
   14.1544  -17.9029   22.2944 O   0  0  0  0  0  0  0  0  0  0  0  0
   13.7046  -18.1798   20.1013 O   0  0  0  0  0  0  0  0  0  0  0  0
  2  1  1  1
  2  3  1  0
  4  2  1  0
  4  5  1  0
  5  7  1  0
  5  6  1  1
  7  8  2  0
  9 10  1  0
  9  7  1  0
 11 12  1  0
 10 11  1  6
 13 14  1  0
 13 12  1  0
 15 14  1  0
 16 17  2  0
 16 10  1  0
 18 19  1  0
 20 19  1  6
 20 22  1  0
 20 21  1  0
 21 16  1  0
 22 24  1  0
 23 22  2  0
M  END
$$$$
