LKS.pdb
     RDKit          3D

 24 23  0  0  1  0  0  0  0  0999 V2000
    8.5817  -11.7896   20.5640 C   0  0  0  0  0  0  0  0  0  0  0  0
    8.2970  -13.1510   19.9462 C   0  0  2  0  0  0  0  0  0  0  0  0
    7.3980  -12.9881   18.7186 C   0  0  0  0  0  0  0  0  0  0  0  0
    7.5339  -13.9516   20.9484 C   0  0  0  0  0  0  0  0  0  0  0  0
    7.9061  -15.4048   20.9653 C   0  0  2  0  0  0  0  0  0  0  0  0
    6.9645  -16.2544   20.3102 N   0  0  0  0  0  0  0  0  0  0  0  0
    8.1505  -15.8049   22.3815 C   0  0  0  0  0  0  0  0  0  0  0  0
    7.2267  -15.7197   23.2297 O   0  0  0  0  0  0  0  0  0  0  0  0
    9.4185  -16.2873   22.8049 N   0  0  0  0  0  0  0  0  0  0  0  0
    9.6489  -16.8263   24.1414 C   0  0  1  0  0  0  0  0  0  0  0  0
   10.6108  -17.9614   24.1102 C   0  0  0  0  0  0  0  0  0  0  0  0
   10.0182  -19.2222   23.5670 C   0  0  0  0  0  0  0  0  0  0  0  0
   11.0594  -20.3192   23.5324 C   0  0  0  0  0  0  0  0  0  0  0  0
   10.3842  -21.6006   23.0224 C   0  0  0  0  0  0  0  0  0  0  0  0
   11.3101  -22.6862   22.9320 N   0  0  0  0  0  0  0  0  0  0  0  0
   10.0525  -15.6881   24.9933 C   0  0  0  0  0  0  0  0  0  0  0  0
   10.9856  -14.9479   24.6027 O   0  0  0  0  0  0  0  0  0  0  0  0
    7.7181  -13.9297   27.6362 O   0  0  0  0  0  0  0  0  0  0  0  0
    8.9219  -13.3024   27.3769 C   0  0  0  0  0  0  0  0  0  0  0  0
    9.9806  -14.3636   27.0891 C   0  0  2  0  0  0  0  0  0  0  0  0
    9.4302  -15.3999   26.2296 N   0  0  0  0  0  0  0  0  0  0  0  0
   10.4399  -14.9260   28.3603 C   0  0  0  0  0  0  0  0  0  0  0  0
   10.3868  -16.1505   28.6425 O   0  0  0  0  0  0  0  0  0  0  0  0
   10.9687  -14.0813   29.3267 O   0  0  0  0  0  0  0  0  0  0  0  0
  2  1  1  1
  2  3  1  0
  4  2  1  0
  4  5  1  0
  5  7  1  0
  5  6  1  1
  7  8  2  0
  9 10  1  0
  9  7  1  0
 11 12  1  0
 10 11  1  6
 13 14  1  0
 13 12  1  0
 15 14  1  0
 16 17  2  0
 16 10  1  0
 18 19  1  0
 20 19  1  1
 20 22  1  0
 20 21  1  0
 21 16  1  0
 22 24  1  0
 23 22  2  0
M  END
$$$$
