LKS.pdb
     RDKit          3D

 24 23  0  0  1  0  0  0  0  0999 V2000
    5.3916  -13.0448   26.3360 C   0  0  0  0  0  0  0  0  0  0  0  0
    6.5396  -13.4394   27.2540 C   0  0  2  0  0  0  0  0  0  0  0  0
    7.3877  -12.2095   27.5854 C   0  0  0  0  0  0  0  0  0  0  0  0
    7.4133  -14.3881   26.5031 C   0  0  0  0  0  0  0  0  0  0  0  0
    6.6506  -15.3811   25.6767 C   0  0  2  0  0  0  0  0  0  0  0  0
    6.3275  -16.5875   26.3679 N   0  0  0  0  0  0  0  0  0  0  0  0
    7.4185  -15.6278   24.4217 C   0  0  0  0  0  0  0  0  0  0  0  0
    8.0763  -16.6898   24.2829 O   0  0  0  0  0  0  0  0  0  0  0  0
    7.4270  -14.6807   23.3622 N   0  0  0  0  0  0  0  0  0  0  0  0
    8.0526  -14.9497   22.0714 C   0  0  1  0  0  0  0  0  0  0  0  0
    7.8191  -13.8358   21.1126 C   0  0  0  0  0  0  0  0  0  0  0  0
    8.4240  -14.0789   19.7669 C   0  0  0  0  0  0  0  0  0  0  0  0
    8.1716  -12.8972   18.8566 C   0  0  0  0  0  0  0  0  0  0  0  0
    8.6716  -13.2632   17.4516 C   0  0  0  0  0  0  0  0  0  0  0  0
    8.0786  -14.4750   16.9784 N   0  0  0  0  0  0  0  0  0  0  0  0
    9.4732  -15.2522   22.3441 C   0  0  0  0  0  0  0  0  0  0  0  0
   10.1014  -14.5148   23.1395 O   0  0  0  0  0  0  0  0  0  0  0  0
   10.8738  -18.5091   23.1670 O   0  0  0  0  0  0  0  0  0  0  0  0
   11.8296  -18.0302   22.2911 C   0  0  0  0  0  0  0  0  0  0  0  0
   11.5631  -16.5503   22.0290 C   0  0  2  0  0  0  0  0  0  0  0  0
   10.1523  -16.3382   21.7455 N   0  0  0  0  0  0  0  0  0  0  0  0
   12.3948  -16.1147   20.9059 C   0  0  0  0  0  0  0  0  0  0  0  0
   11.9316  -15.6659   19.8261 O   0  0  0  0  0  0  0  0  0  0  0  0
   13.7768  -16.1910   21.0127 O   0  0  0  0  0  0  0  0  0  0  0  0
  2  1  1  6
  2  3  1  0
  4  2  1  0
  4  5  1  0
  5  7  1  0
  5  6  1  1
  7  8  2  0
  9 10  1  0
  9  7  1  0
 11 12  1  0
 10 11  1  6
 13 14  1  0
 13 12  1  0
 15 14  1  0
 16 17  2  0
 16 10  1  0
 18 19  1  0
 20 19  1  6
 20 22  1  0
 20 21  1  0
 21 16  1  0
 22 24  1  0
 23 22  2  0
M  END
$$$$
