LKS.pdb
     RDKit          3D

 24 23  0  0  1  0  0  0  0  0999 V2000
    7.2594  -11.2187   25.1361 C   0  0  0  0  0  0  0  0  0  0  0  0
    6.5749  -12.1884   26.0887 C   0  0  2  0  0  0  0  0  0  0  0  0
    6.8310  -11.7642   27.5365 C   0  0  0  0  0  0  0  0  0  0  0  0
    7.2079  -13.5272   25.9029 C   0  0  0  0  0  0  0  0  0  0  0  0
    7.2172  -13.9945   24.4774 C   0  0  2  0  0  0  0  0  0  0  0  0
    5.9210  -14.0861   23.8865 N   0  0  0  0  0  0  0  0  0  0  0  0
    7.9673  -15.2825   24.4159 C   0  0  0  0  0  0  0  0  0  0  0  0
    7.7349  -16.1888   25.2553 O   0  0  0  0  0  0  0  0  0  0  0  0
    8.9527  -15.5170   23.4191 N   0  0  0  0  0  0  0  0  0  0  0  0
    9.6413  -16.7962   23.2790 C   0  0  1  0  0  0  0  0  0  0  0  0
   10.1726  -16.9783   21.9009 C   0  0  0  0  0  0  0  0  0  0  0  0
   10.7476  -18.3383   21.6651 C   0  0  0  0  0  0  0  0  0  0  0  0
   11.2762  -18.4470   20.2518 C   0  0  0  0  0  0  0  0  0  0  0  0
   11.7782  -19.8826   20.0403 C   0  0  0  0  0  0  0  0  0  0  0  0
   12.2890  -20.0749   18.7187 N   0  0  0  0  0  0  0  0  0  0  0  0
   10.6556  -16.8510   24.3523 C   0  0  0  0  0  0  0  0  0  0  0  0
   11.4666  -15.9014   24.4601 O   0  0  0  0  0  0  0  0  0  0  0  0
   10.3951  -19.6409   27.0368 O   0  0  0  0  0  0  0  0  0  0  0  0
   11.5453  -18.9378   27.3410 C   0  0  0  0  0  0  0  0  0  0  0  0
   11.8736  -18.0011   26.1814 C   0  0  2  0  0  0  0  0  0  0  0  0
   10.7488  -17.9292   25.2620 N   0  0  0  0  0  0  0  0  0  0  0  0
   13.0739  -18.4946   25.5040 C   0  0  0  0  0  0  0  0  0  0  0  0
   13.1017  -18.8402   24.2950 O   0  0  0  0  0  0  0  0  0  0  0  0
   14.2626  -18.5966   26.2138 O   0  0  0  0  0  0  0  0  0  0  0  0
  2  1  1  6
  2  3  1  0
  4  2  1  0
  4  5  1  0
  5  7  1  0
  5  6  1  1
  7  8  2  0
  9 10  1  0
  9  7  1  0
 11 12  1  0
 10 11  1  6
 13 14  1  0
 13 12  1  0
 15 14  1  0
 16 17  2  0
 16 10  1  0
 18 19  1  0
 20 19  1  1
 20 22  1  0
 20 21  1  0
 21 16  1  0
 22 24  1  0
 23 22  2  0
M  END
$$$$
