LKS.pdb
     RDKit          3D

 24 23  0  0  1  0  0  0  0  0999 V2000
    8.1361  -12.9651   18.1032 C   0  0  0  0  0  0  0  0  0  0  0  0
    7.2297  -13.1676   19.3089 C   0  0  2  0  0  0  0  0  0  0  0  0
    7.1721  -11.8832   20.1388 C   0  0  0  0  0  0  0  0  0  0  0  0
    7.8482  -14.2200   20.1676 C   0  0  0  0  0  0  0  0  0  0  0  0
    7.9255  -15.5649   19.5074 C   0  0  2  0  0  0  0  0  0  0  0  0
    6.6552  -16.1208   19.1684 N   0  0  0  0  0  0  0  0  0  0  0  0
    8.7301  -16.4661   20.3826 C   0  0  0  0  0  0  0  0  0  0  0  0
    8.2745  -16.8390   21.4931 O   0  0  0  0  0  0  0  0  0  0  0  0
   10.0176  -16.9218   19.9894 N   0  0  0  0  0  0  0  0  0  0  0  0
   10.7745  -17.9027   20.7608 C   0  0  1  0  0  0  0  0  0  0  0  0
   11.4737  -18.8696   19.8717 C   0  0  0  0  0  0  0  0  0  0  0  0
   12.1961  -19.9437   20.6203 C   0  0  0  0  0  0  0  0  0  0  0  0
   12.8157  -20.9304   19.6553 C   0  0  0  0  0  0  0  0  0  0  0  0
   13.5797  -21.9812   20.4738 C   0  0  0  0  0  0  0  0  0  0  0  0
   14.1431  -22.9953   19.6380 N   0  0  0  0  0  0  0  0  0  0  0  0
   11.6553  -17.1389   21.6690 C   0  0  0  0  0  0  0  0  0  0  0  0
   12.4025  -16.2591   21.1804 O   0  0  0  0  0  0  0  0  0  0  0  0
   11.5379  -17.7455   25.6628 O   0  0  0  0  0  0  0  0  0  0  0  0
   12.0947  -16.5261   25.3269 C   0  0  0  0  0  0  0  0  0  0  0  0
   12.6116  -16.5967   23.8924 C   0  0  2  0  0  0  0  0  0  0  0  0
   11.6898  -17.3593   23.0651 N   0  0  0  0  0  0  0  0  0  0  0  0
   13.9399  -17.2118   23.9012 C   0  0  0  0  0  0  0  0  0  0  0  0
   14.2063  -18.3075   23.3442 O   0  0  0  0  0  0  0  0  0  0  0  0
   14.9829  -16.5697   24.5547 O   0  0  0  0  0  0  0  0  0  0  0  0
  2  1  1  6
  2  3  1  0
  4  2  1  0
  4  5  1  0
  5  7  1  0
  5  6  1  1
  7  8  2  0
  9 10  1  0
  9  7  1  0
 11 12  1  0
 10 11  1  6
 13 14  1  0
 13 12  1  0
 15 14  1  0
 16 17  2  0
 16 10  1  0
 18 19  1  0
 20 19  1  1
 20 22  1  0
 20 21  1  0
 21 16  1  0
 22 24  1  0
 23 22  2  0
M  END
$$$$
