LKS.pdb
     RDKit          3D

 24 23  0  0  1  0  0  0  0  0999 V2000
    7.7804  -13.7558   18.5196 C   0  0  0  0  0  0  0  0  0  0  0  0
    7.7168  -13.3518   19.9855 C   0  0  2  0  0  0  0  0  0  0  0  0
    7.5825  -11.8318   20.1014 C   0  0  0  0  0  0  0  0  0  0  0  0
    9.0163  -13.7289   20.6151 C   0  0  0  0  0  0  0  0  0  0  0  0
    9.2528  -15.2096   20.6635 C   0  0  2  0  0  0  0  0  0  0  0  0
    8.0791  -15.9782   20.9265 N   0  0  0  0  0  0  0  0  0  0  0  0
   10.3429  -15.4736   21.6470 C   0  0  0  0  0  0  0  0  0  0  0  0
   11.4190  -14.8269   21.5851 O   0  0  0  0  0  0  0  0  0  0  0  0
   10.1964  -16.4514   22.6680 N   0  0  0  0  0  0  0  0  0  0  0  0
   11.2349  -16.7164   23.6585 C   0  0  1  0  0  0  0  0  0  0  0  0
   10.7537  -17.6501   24.7126 C   0  0  0  0  0  0  0  0  0  0  0  0
   11.8474  -18.1525   25.6000 C   0  0  0  0  0  0  0  0  0  0  0  0
   11.5899  -17.7435   27.0336 C   0  0  0  0  0  0  0  0  0  0  0  0
   12.6849  -18.3677   27.9107 C   0  0  0  0  0  0  0  0  0  0  0  0
   12.4619  -18.1086   29.2990 N   0  0  0  0  0  0  0  0  0  0  0  0
   12.4247  -17.1760   22.9121 C   0  0  0  0  0  0  0  0  0  0  0  0
   12.3837  -18.2945   22.3480 O   0  0  0  0  0  0  0  0  0  0  0  0
   14.8375  -15.1609   20.5617 O   0  0  0  0  0  0  0  0  0  0  0  0
   14.7304  -16.5364   20.6416 C   0  0  0  0  0  0  0  0  0  0  0  0
   14.7610  -16.9504   22.1104 C   0  0  2  0  0  0  0  0  0  0  0  0
   13.6063  -16.4068   22.8081 N   0  0  0  0  0  0  0  0  0  0  0  0
   16.0084  -16.4708   22.7080 C   0  0  0  0  0  0  0  0  0  0  0  0
   17.1510  -16.7811   22.2838 O   0  0  0  0  0  0  0  0  0  0  0  0
   15.9551  -15.6237   23.8065 O   0  0  0  0  0  0  0  0  0  0  0  0
  2  1  1  6
  2  3  1  0
  4  2  1  0
  4  5  1  0
  5  7  1  0
  5  6  1  1
  7  8  2  0
  9 10  1  0
  9  7  1  0
 11 12  1  0
 10 11  1  1
 13 14  1  0
 13 12  1  0
 15 14  1  0
 16 17  2  0
 16 10  1  0
 18 19  1  0
 20 19  1  6
 20 22  1  0
 20 21  1  0
 21 16  1  0
 22 24  1  0
 23 22  2  0
M  END
$$$$
