LKS.pdb
     RDKit          3D

 24 23  0  0  1  0  0  0  0  0999 V2000
    7.9602  -13.2295   18.4795 C   0  0  0  0  0  0  0  0  0  0  0  0
    7.3817  -13.1941   19.8867 C   0  0  2  0  0  0  0  0  0  0  0  0
    7.6428  -11.8271   20.5229 C   0  0  0  0  0  0  0  0  0  0  0  0
    8.1142  -14.2071   20.7021 C   0  0  0  0  0  0  0  0  0  0  0  0
    7.8775  -15.6205   20.2582 C   0  0  2  0  0  0  0  0  0  0  0  0
    6.5011  -15.9979   20.2268 N   0  0  0  0  0  0  0  0  0  0  0  0
    8.6990  -16.5209   21.1182 C   0  0  0  0  0  0  0  0  0  0  0  0
    8.2530  -16.9165   22.2248 O   0  0  0  0  0  0  0  0  0  0  0  0
    9.9922  -16.9507   20.7148 N   0  0  0  0  0  0  0  0  0  0  0  0
   10.7315  -17.9916   21.4218 C   0  0  1  0  0  0  0  0  0  0  0  0
   11.6192  -18.7490   20.4983 C   0  0  0  0  0  0  0  0  0  0  0  0
   12.3291  -19.8856   21.1619 C   0  0  0  0  0  0  0  0  0  0  0  0
   13.4494  -20.3914   20.2800 C   0  0  0  0  0  0  0  0  0  0  0  0
   14.1571  -21.5364   21.0191 C   0  0  0  0  0  0  0  0  0  0  0  0
   14.1259  -22.7511   20.2656 N   0  0  0  0  0  0  0  0  0  0  0  0
   11.4209  -17.3301   22.5492 C   0  0  0  0  0  0  0  0  0  0  0  0
   12.0917  -16.2967   22.3187 O   0  0  0  0  0  0  0  0  0  0  0  0
   11.0123  -18.6985   26.3390 O   0  0  0  0  0  0  0  0  0  0  0  0
   11.4350  -17.3840   26.2805 C   0  0  0  0  0  0  0  0  0  0  0  0
   12.0973  -17.1372   24.9277 C   0  0  2  0  0  0  0  0  0  0  0  0
   11.3551  -17.8142   23.8758 N   0  0  0  0  0  0  0  0  0  0  0  0
   13.4791  -17.6170   24.9865 C   0  0  0  0  0  0  0  0  0  0  0  0
   13.9162  -18.5746   24.2982 O   0  0  0  0  0  0  0  0  0  0  0  0
   14.3790  -16.9969   25.8426 O   0  0  0  0  0  0  0  0  0  0  0  0
  2  1  1  6
  2  3  1  0
  4  2  1  0
  4  5  1  0
  5  7  1  0
  5  6  1  1
  7  8  2  0
  9 10  1  0
  9  7  1  0
 11 12  1  0
 10 11  1  6
 13 14  1  0
 13 12  1  0
 15 14  1  0
 16 17  2  0
 16 10  1  0
 18 19  1  0
 20 19  1  1
 20 22  1  0
 20 21  1  0
 21 16  1  0
 22 24  1  0
 23 22  2  0
M  END
$$$$
