WFI.pdb
     RDKit          3D

 34 36  0  0  1  0  0  0  0  0999 V2000
   26.1120  -21.7914  -12.8088 N   0  0  0  0  0  0  0  0  0  0  0  0
   25.4521  -20.9344  -11.8779 C   0  0  1  0  0  0  0  0  0  0  0  0
   23.9711  -21.1472  -11.7359 C   0  0  0  0  0  0  0  0  0  0  0  0
   23.2445  -20.3536  -12.7256 C   0  0  0  0  0  0  0  0  0  0  0  0
   23.5836  -20.2947  -14.0587 C   0  0  0  0  0  0  0  0  0  0  0  0
   22.6801  -19.5085  -14.6515 N   0  0  0  0  0  0  0  0  0  0  0  0
   21.7804  -19.0619  -13.7654 C   0  0  0  0  0  0  0  0  0  0  0  0
   20.6723  -18.2259  -13.8889 C   0  0  0  0  0  0  0  0  0  0  0  0
   19.9262  -17.9362  -12.7478 C   0  0  0  0  0  0  0  0  0  0  0  0
   20.2826  -18.4667  -11.5381 C   0  0  0  0  0  0  0  0  0  0  0  0
   21.3616  -19.2854  -11.3960 C   0  0  0  0  0  0  0  0  0  0  0  0
   22.1231  -19.5889  -12.5288 C   0  0  0  0  0  0  0  0  0  0  0  0
   26.0743  -21.1521  -10.5233 C   0  0  0  0  0  0  0  0  0  0  0  0
   25.9679  -22.2681   -9.9309 O   0  0  0  0  0  0  0  0  0  0  0  0
   26.7938  -20.1090   -9.8864 N   0  0  0  0  0  0  0  0  0  0  0  0
   27.3645  -20.2598   -8.5731 C   0  0  1  0  0  0  0  0  0  0  0  0
   28.5776  -19.4403   -8.3477 C   0  0  0  0  0  0  0  0  0  0  0  0
   29.1290  -19.4401   -6.9890 C   0  0  0  0  0  0  0  0  0  0  0  0
   29.0110  -18.4391   -6.0651 C   0  0  0  0  0  0  0  0  0  0  0  0
   29.5583  -18.4557   -4.8021 C   0  0  0  0  0  0  0  0  0  0  0  0
   30.2948  -19.5543   -4.3985 C   0  0  0  0  0  0  0  0  0  0  0  0
   30.4375  -20.5841   -5.2963 C   0  0  0  0  0  0  0  0  0  0  0  0
   29.8841  -20.5552   -6.5564 C   0  0  0  0  0  0  0  0  0  0  0  0
   26.2895  -20.0566   -7.5363 C   0  0  0  0  0  0  0  0  0  0  0  0
   25.4219  -19.1651   -7.7078 O   0  0  0  0  0  0  0  0  0  0  0  0
   22.5215  -22.9968   -6.2920 C   0  0  0  0  0  0  0  0  0  0  0  0
   23.5157  -21.8401   -6.3744 C   0  0  0  0  0  0  0  0  0  0  0  0
   24.4196  -21.8130   -5.1833 C   0  0  2  0  0  0  0  0  0  0  0  0
   23.5683  -21.7726   -3.9185 C   0  0  0  0  0  0  0  0  0  0  0  0
   25.5212  -20.8052   -5.1847 C   0  0  2  0  0  0  0  0  0  0  0  0
   26.2752  -20.8556   -6.4135 N   0  0  0  0  0  0  0  0  0  0  0  0
   26.2607  -20.7738   -3.9270 C   0  0  0  0  0  0  0  0  0  0  0  0
   27.3916  -21.6442   -3.8986 O   0  0  0  0  0  0  0  0  0  0  0  0
   26.1015  -20.1464   -2.8753 O   0  0  0  0  0  0  0  0  0  0  0  0
  2  1  1  6
  3  2  1  0
  4  3  1  0
  5  4  2  0
  6  5  1  0
  7  6  1  0
  7 12  2  0
  8  7  1  0
  9  8  2  0
  9 10  1  0
 10 11  2  0
 11 12  1  0
 12  4  1  0
 13 14  2  0
 13  2  1  0
 15 13  1  0
 16 15  1  0
 17 18  1  0
 16 17  1  1
 18 23  1  0
 19 18  2  0
 19 20  1  0
 20 21  2  0
 21 22  1  0
 23 22  2  0
 24 16  1  0
 25 24  2  0
 26 27  1  0
 27 28  1  0
 28 29  1  1
 28 30  1  0
 30 31  1  6
 30 32  1  0
 31 24  1  0
 32 33  1  0
 34 32  2  0
M  END
$$$$
