WFI.pdb
     RDKit          3D

 34 36  0  0  1  0  0  0  0  0999 V2000
   27.4426  -21.1224  -13.5100 N   0  0  0  0  0  0  0  0  0  0  0  0
   26.6521  -20.4290  -12.5452 C   0  0  1  0  0  0  0  0  0  0  0  0
   25.1640  -20.5694  -12.7024 C   0  0  0  0  0  0  0  0  0  0  0  0
   24.6956  -19.7868  -13.8450 C   0  0  0  0  0  0  0  0  0  0  0  0
   25.5173  -19.3386  -14.8547 C   0  0  0  0  0  0  0  0  0  0  0  0
   24.7366  -18.6996  -15.7313 N   0  0  0  0  0  0  0  0  0  0  0  0
   23.4577  -18.7168  -15.3335 C   0  0  0  0  0  0  0  0  0  0  0  0
   22.2922  -18.1917  -15.8885 C   0  0  0  0  0  0  0  0  0  0  0  0
   21.0896  -18.3746  -15.2080 C   0  0  0  0  0  0  0  0  0  0  0  0
   21.0653  -19.0567  -14.0223 C   0  0  0  0  0  0  0  0  0  0  0  0
   22.1927  -19.5775  -13.4631 C   0  0  0  0  0  0  0  0  0  0  0  0
   23.4095  -19.4054  -14.1302 C   0  0  0  0  0  0  0  0  0  0  0  0
   27.0163  -20.9543  -11.1811 C   0  0  0  0  0  0  0  0  0  0  0  0
   26.7173  -22.1380  -10.8392 O   0  0  0  0  0  0  0  0  0  0  0  0
   27.7042  -20.1309  -10.2536 N   0  0  0  0  0  0  0  0  0  0  0  0
   27.5771  -20.3048   -8.8298 C   0  0  1  0  0  0  0  0  0  0  0  0
   28.5855  -19.5597   -8.0413 C   0  0  0  0  0  0  0  0  0  0  0  0
   28.5233  -19.7091   -6.5839 C   0  0  0  0  0  0  0  0  0  0  0  0
   28.8975  -20.8096   -5.8639 C   0  0  0  0  0  0  0  0  0  0  0  0
   28.8076  -20.9314   -4.4957 C   0  0  0  0  0  0  0  0  0  0  0  0
   28.3024  -19.8790   -3.7546 C   0  0  0  0  0  0  0  0  0  0  0  0
   27.9151  -18.7525   -4.4388 C   0  0  0  0  0  0  0  0  0  0  0  0
   28.0110  -18.6434   -5.8077 C   0  0  0  0  0  0  0  0  0  0  0  0
   26.1538  -20.0267   -8.4190 C   0  0  0  0  0  0  0  0  0  0  0  0
   25.6115  -18.9442   -8.7525 O   0  0  0  0  0  0  0  0  0  0  0  0
   20.8581  -20.7261   -9.3629 C   0  0  0  0  0  0  0  0  0  0  0  0
   21.6977  -20.8100   -8.0897 C   0  0  0  0  0  0  0  0  0  0  0  0
   23.1549  -20.9267   -8.4051 C   0  0  2  0  0  0  0  0  0  0  0  0
   23.3450  -22.0026   -9.4692 C   0  0  0  0  0  0  0  0  0  0  0  0
   24.0941  -21.0650   -7.2527 C   0  0  2  0  0  0  0  0  0  0  0  0
   25.4678  -20.9679   -7.6823 N   0  0  0  0  0  0  0  0  0  0  0  0
   23.7316  -22.1576   -6.3557 C   0  0  0  0  0  0  0  0  0  0  0  0
   22.7516  -21.8045   -5.3799 O   0  0  0  0  0  0  0  0  0  0  0  0
   24.1077  -23.3306   -6.2671 O   0  0  0  0  0  0  0  0  0  0  0  0
  2  1  1  6
  3  2  1  0
  4  3  1  0
  5  4  2  0
  6  5  1  0
  7  6  1  0
  7 12  2  0
  8  7  1  0
  9  8  2  0
  9 10  1  0
 10 11  2  0
 11 12  1  0
 12  4  1  0
 13 14  2  0
 13  2  1  0
 15 13  1  0
 16 15  1  0
 17 18  1  0
 16 17  1  1
 18 23  1  0
 19 18  2  0
 19 20  1  0
 20 21  2  0
 21 22  1  0
 23 22  2  0
 24 16  1  0
 25 24  2  0
 26 27  1  0
 27 28  1  0
 28 29  1  6
 28 30  1  0
 30 31  1  6
 30 32  1  0
 31 24  1  0
 32 33  1  0
 34 32  2  0
M  END
$$$$
