WFI.pdb
     RDKit          3D

 34 36  0  0  1  0  0  0  0  0999 V2000
   26.3291  -22.9789  -11.6875 N   0  0  0  0  0  0  0  0  0  0  0  0
   25.8900  -21.7693  -11.0706 C   0  0  1  0  0  0  0  0  0  0  0  0
   26.7704  -20.5712  -11.2900 C   0  0  0  0  0  0  0  0  0  0  0  0
   27.9088  -20.5999  -10.3732 C   0  0  0  0  0  0  0  0  0  0  0  0
   29.1761  -20.9959  -10.7379 C   0  0  0  0  0  0  0  0  0  0  0  0
   29.9494  -20.8552   -9.6570 N   0  0  0  0  0  0  0  0  0  0  0  0
   29.2412  -20.3892   -8.6201 C   0  0  0  0  0  0  0  0  0  0  0  0
   29.5860  -20.0893   -7.3035 C   0  0  0  0  0  0  0  0  0  0  0  0
   28.5927  -19.6207   -6.4452 C   0  0  0  0  0  0  0  0  0  0  0  0
   27.3107  -19.4619   -6.8960 C   0  0  0  0  0  0  0  0  0  0  0  0
   26.9532  -19.7493   -8.1783 C   0  0  0  0  0  0  0  0  0  0  0  0
   27.9350  -20.2202   -9.0556 C   0  0  0  0  0  0  0  0  0  0  0  0
   24.5260  -21.4369  -11.6169 C   0  0  0  0  0  0  0  0  0  0  0  0
   24.1322  -21.9209  -12.7206 O   0  0  0  0  0  0  0  0  0  0  0  0
   23.6555  -20.5750  -10.9021 N   0  0  0  0  0  0  0  0  0  0  0  0
   22.2972  -20.3382  -11.3171 C   0  0  1  0  0  0  0  0  0  0  0  0
   21.4688  -19.6527  -10.2984 C   0  0  0  0  0  0  0  0  0  0  0  0
   20.0454  -19.4877  -10.6097 C   0  0  0  0  0  0  0  0  0  0  0  0
   19.0589  -20.4140  -10.4140 C   0  0  0  0  0  0  0  0  0  0  0  0
   17.7318  -20.2407  -10.7363 C   0  0  0  0  0  0  0  0  0  0  0  0
   17.3244  -19.0489  -11.3069 C   0  0  0  0  0  0  0  0  0  0  0  0
   18.2841  -18.0895  -11.5202 C   0  0  0  0  0  0  0  0  0  0  0  0
   19.6081  -18.2753  -11.1924 C   0  0  0  0  0  0  0  0  0  0  0  0
   22.2985  -19.6573  -12.6617 C   0  0  0  0  0  0  0  0  0  0  0  0
   23.0479  -18.6686  -12.8564 O   0  0  0  0  0  0  0  0  0  0  0  0
   23.7202  -21.5921  -17.0593 C   0  0  0  0  0  0  0  0  0  0  0  0
   23.2306  -20.6648  -15.9488 C   0  0  0  0  0  0  0  0  0  0  0  0
   21.7576  -20.4258  -16.0487 C   0  0  2  0  0  0  0  0  0  0  0  0
   21.4353  -19.9086  -17.4468 C   0  0  0  0  0  0  0  0  0  0  0  0
   21.1207  -19.6240  -14.9623 C   0  0  2  0  0  0  0  0  0  0  0  0
   21.4753  -20.1324  -13.6597 N   0  0  0  0  0  0  0  0  0  0  0  0
   19.7153  -19.3314  -15.2249 C   0  0  0  0  0  0  0  0  0  0  0  0
   19.5093  -18.2633  -16.1490 O   0  0  0  0  0  0  0  0  0  0  0  0
   18.6630  -19.8209  -14.8028 O   0  0  0  0  0  0  0  0  0  0  0  0
  2  1  1  6
  3  2  1  0
  4  3  1  0
  5  4  2  0
  6  5  1  0
  7  6  1  0
  7 12  2  0
  8  7  1  0
  9  8  2  0
  9 10  1  0
 10 11  2  0
 11 12  1  0
 12  4  1  0
 13 14  2  0
 13  2  1  0
 15 13  1  0
 16 15  1  0
 17 18  1  0
 16 17  1  1
 18 23  1  0
 19 18  2  0
 19 20  1  0
 20 21  2  0
 21 22  1  0
 23 22  2  0
 24 16  1  0
 25 24  2  0
 26 27  1  0
 27 28  1  0
 28 29  1  6
 28 30  1  0
 30 31  1  1
 30 32  1  0
 31 24  1  0
 32 33  1  0
 34 32  2  0
M  END
$$$$
