WFI.pdb
     RDKit          3D

 34 36  0  0  1  0  0  0  0  0999 V2000
   26.6069  -21.7989  -13.0407 N   0  0  0  0  0  0  0  0  0  0  0  0
   25.9023  -20.8535  -12.2367 C   0  0  1  0  0  0  0  0  0  0  0  0
   24.4034  -20.9092  -12.3315 C   0  0  0  0  0  0  0  0  0  0  0  0
   23.9548  -20.3982  -13.6257 C   0  0  0  0  0  0  0  0  0  0  0  0
   24.6017  -20.6502  -14.8146 C   0  0  0  0  0  0  0  0  0  0  0  0
   23.8869  -20.0566  -15.7752 N   0  0  0  0  0  0  0  0  0  0  0  0
   22.8158  -19.4383  -15.2610 C   0  0  0  0  0  0  0  0  0  0  0  0
   21.7925  -18.6903  -15.8402 C   0  0  0  0  0  0  0  0  0  0  0  0
   20.8056  -18.1584  -15.0120 C   0  0  0  0  0  0  0  0  0  0  0  0
   20.8500  -18.3726  -13.6614 C   0  0  0  0  0  0  0  0  0  0  0  0
   21.8411  -19.1003  -13.0758 C   0  0  0  0  0  0  0  0  0  0  0  0
   22.8406  -19.6431  -13.8893 C   0  0  0  0  0  0  0  0  0  0  0  0
   26.2759  -21.0966  -10.7977 C   0  0  0  0  0  0  0  0  0  0  0  0
   26.0411  -22.2132  -10.2449 O   0  0  0  0  0  0  0  0  0  0  0  0
   26.9006  -20.0771  -10.0349 N   0  0  0  0  0  0  0  0  0  0  0  0
   27.2102  -20.2427   -8.6385 C   0  0  1  0  0  0  0  0  0  0  0  0
   28.3520  -19.4209   -8.1749 C   0  0  0  0  0  0  0  0  0  0  0  0
   28.6414  -19.4472   -6.7376 C   0  0  0  0  0  0  0  0  0  0  0  0
   28.3560  -18.4618   -5.8338 C   0  0  0  0  0  0  0  0  0  0  0  0
   28.6593  -18.5031   -4.4917 C   0  0  0  0  0  0  0  0  0  0  0  0
   29.3057  -19.6125   -3.9782 C   0  0  0  0  0  0  0  0  0  0  0  0
   29.6106  -20.6274   -4.8523 C   0  0  0  0  0  0  0  0  0  0  0  0
   29.3008  -20.5736   -6.1925 C   0  0  0  0  0  0  0  0  0  0  0  0
   25.9551  -20.0581   -7.8245 C   0  0  0  0  0  0  0  0  0  0  0  0
   25.2755  -19.0108   -7.9600 O   0  0  0  0  0  0  0  0  0  0  0  0
   20.8847  -22.3601   -6.3331 C   0  0  0  0  0  0  0  0  0  0  0  0
   22.0850  -21.7456   -5.6157 C   0  0  0  0  0  0  0  0  0  0  0  0
   23.3068  -21.7720   -6.4778 C   0  0  2  0  0  0  0  0  0  0  0  0
   23.5460  -23.2019   -6.9513 C   0  0  0  0  0  0  0  0  0  0  0  0
   24.5356  -21.1155   -5.9410 C   0  0  2  0  0  0  0  0  0  0  0  0
   25.5715  -21.0451   -6.9424 N   0  0  0  0  0  0  0  0  0  0  0  0
   24.8985  -21.5956   -4.6115 C   0  0  0  0  0  0  0  0  0  0  0  0
   23.9649  -21.2388   -3.5924 O   0  0  0  0  0  0  0  0  0  0  0  0
   25.8580  -22.2474   -4.1875 O   0  0  0  0  0  0  0  0  0  0  0  0
  2  1  1  6
  3  2  1  0
  4  3  1  0
  5  4  2  0
  6  5  1  0
  7  6  1  0
  7 12  2  0
  8  7  1  0
  9  8  2  0
  9 10  1  0
 10 11  2  0
 11 12  1  0
 12  4  1  0
 13 14  2  0
 13  2  1  0
 15 13  1  0
 16 15  1  0
 17 18  1  0
 16 17  1  1
 18 23  1  0
 19 18  2  0
 19 20  1  0
 20 21  2  0
 21 22  1  0
 23 22  2  0
 24 16  1  0
 25 24  2  0
 26 27  1  0
 27 28  1  0
 28 29  1  1
 28 30  1  0
 30 31  1  6
 30 32  1  0
 31 24  1  0
 32 33  1  0
 34 32  2  0
M  END
$$$$
