WFI.pdb
     RDKit          3D

 34 36  0  0  1  0  0  0  0  0999 V2000
   24.5612  -22.6747  -13.0694 N   0  0  0  0  0  0  0  0  0  0  0  0
   24.9512  -21.4065  -12.5439 C   0  0  1  0  0  0  0  0  0  0  0  0
   23.8296  -20.5313  -12.0592 C   0  0  0  0  0  0  0  0  0  0  0  0
   22.9679  -20.1420  -13.1742 C   0  0  0  0  0  0  0  0  0  0  0  0
   21.7539  -20.7319  -13.4461 C   0  0  0  0  0  0  0  0  0  0  0  0
   21.2450  -20.0950  -14.5051 N   0  0  0  0  0  0  0  0  0  0  0  0
   22.0717  -19.1278  -14.9239 C   0  0  0  0  0  0  0  0  0  0  0  0
   21.9947  -18.2121  -15.9715 C   0  0  0  0  0  0  0  0  0  0  0  0
   23.0500  -17.3203  -16.1552 C   0  0  0  0  0  0  0  0  0  0  0  0
   24.1326  -17.3516  -15.3192 C   0  0  0  0  0  0  0  0  0  0  0  0
   24.2273  -18.2384  -14.2899 C   0  0  0  0  0  0  0  0  0  0  0  0
   23.1788  -19.1414  -14.0881 C   0  0  0  0  0  0  0  0  0  0  0  0
   25.8739  -21.6498  -11.3782 C   0  0  0  0  0  0  0  0  0  0  0  0
   25.6302  -22.5661  -10.5365 O   0  0  0  0  0  0  0  0  0  0  0  0
   27.0361  -20.8560  -11.2032 N   0  0  0  0  0  0  0  0  0  0  0  0
   27.9224  -21.0279  -10.0814 C   0  0  1  0  0  0  0  0  0  0  0  0
   29.3398  -20.7220  -10.3834 C   0  0  0  0  0  0  0  0  0  0  0  0
   30.3222  -21.0665   -9.3507 C   0  0  0  0  0  0  0  0  0  0  0  0
   30.7791  -20.2443   -8.3584 C   0  0  0  0  0  0  0  0  0  0  0  0
   31.7199  -20.5870   -7.4137 C   0  0  0  0  0  0  0  0  0  0  0  0
   32.2719  -21.8546   -7.4376 C   0  0  0  0  0  0  0  0  0  0  0  0
   31.8398  -22.7139   -8.4184 C   0  0  0  0  0  0  0  0  0  0  0  0
   30.8976  -22.3586   -9.3569 C   0  0  0  0  0  0  0  0  0  0  0  0
   27.3754  -20.2769   -8.8946 C   0  0  0  0  0  0  0  0  0  0  0  0
   26.7001  -19.2340   -9.0771 O   0  0  0  0  0  0  0  0  0  0  0  0
   29.8640  -20.9245   -3.6321 C   0  0  0  0  0  0  0  0  0  0  0  0
   29.4272  -21.3471   -5.0333 C   0  0  0  0  0  0  0  0  0  0  0  0
   27.9697  -21.0916   -5.2497 C   0  0  2  0  0  0  0  0  0  0  0  0
   27.2463  -22.4292   -5.3680 C   0  0  0  0  0  0  0  0  0  0  0  0
   27.5982  -20.1237   -6.3240 C   0  0  2  0  0  0  0  0  0  0  0  0
   27.6250  -20.7486   -7.6239 N   0  0  0  0  0  0  0  0  0  0  0  0
   28.2554  -18.8296   -6.1715 C   0  0  0  0  0  0  0  0  0  0  0  0
   27.7908  -18.0725   -5.0543 O   0  0  0  0  0  0  0  0  0  0  0  0
   29.1336  -18.2527   -6.8205 O   0  0  0  0  0  0  0  0  0  0  0  0
  2  1  1  1
  3  2  1  0
  4  3  1  0
  5  4  2  0
  6  5  1  0
  7  6  1  0
  7 12  2  0
  8  7  1  0
  9  8  2  0
  9 10  1  0
 10 11  2  0
 11 12  1  0
 12  4  1  0
 13 14  2  0
 13  2  1  0
 15 13  1  0
 16 15  1  0
 17 18  1  0
 16 17  1  6
 18 23  1  0
 19 18  2  0
 19 20  1  0
 20 21  2  0
 21 22  1  0
 23 22  2  0
 24 16  1  0
 25 24  2  0
 26 27  1  0
 27 28  1  0
 28 29  1  6
 28 30  1  0
 30 31  1  6
 30 32  1  0
 31 24  1  0
 32 33  1  0
 34 32  2  0
M  END
$$$$
