WFI.pdb
     RDKit          3D

 34 36  0  0  1  0  0  0  0  0999 V2000
   25.9534  -22.0936  -12.6077 N   0  0  0  0  0  0  0  0  0  0  0  0
   26.0912  -20.8678  -11.8900 C   0  0  1  0  0  0  0  0  0  0  0  0
   24.8939  -19.9598  -11.9189 C   0  0  0  0  0  0  0  0  0  0  0  0
   24.6462  -19.4854  -13.2794 C   0  0  0  0  0  0  0  0  0  0  0  0
   23.5129  -19.7865  -14.0010 C   0  0  0  0  0  0  0  0  0  0  0  0
   23.6231  -19.1534  -15.1728 N   0  0  0  0  0  0  0  0  0  0  0  0
   24.7689  -18.4627  -15.2370 C   0  0  0  0  0  0  0  0  0  0  0  0
   25.3323  -17.6643  -16.2306 C   0  0  0  0  0  0  0  0  0  0  0  0
   26.5739  -17.0785  -15.9898 C   0  0  0  0  0  0  0  0  0  0  0  0
   27.2164  -17.2889  -14.8003 C   0  0  0  0  0  0  0  0  0  0  0  0
   26.6832  -18.0654  -13.8167 C   0  0  0  0  0  0  0  0  0  0  0  0
   25.4380  -18.6619  -14.0382 C   0  0  0  0  0  0  0  0  0  0  0  0
   26.3733  -21.2019  -10.4484 C   0  0  0  0  0  0  0  0  0  0  0  0
   25.6900  -22.0787   -9.8387 O   0  0  0  0  0  0  0  0  0  0  0  0
   27.4132  -20.5399   -9.7471 N   0  0  0  0  0  0  0  0  0  0  0  0
   27.5627  -20.6420   -8.3186 C   0  0  1  0  0  0  0  0  0  0  0  0
   28.7674  -19.9610   -7.7906 C   0  0  0  0  0  0  0  0  0  0  0  0
   28.9003  -19.8950   -6.3318 C   0  0  0  0  0  0  0  0  0  0  0  0
   29.3981  -20.8735   -5.5168 C   0  0  0  0  0  0  0  0  0  0  0  0
   29.4911  -20.7937   -4.1457 C   0  0  0  0  0  0  0  0  0  0  0  0
   29.0553  -19.6491   -3.5037 C   0  0  0  0  0  0  0  0  0  0  0  0
   28.5484  -18.6398   -4.2856 C   0  0  0  0  0  0  0  0  0  0  0  0
   28.4616  -18.7322   -5.6563 C   0  0  0  0  0  0  0  0  0  0  0  0
   26.2797  -20.2167   -7.6517 C   0  0  0  0  0  0  0  0  0  0  0  0
   25.5835  -19.3075   -8.1672 O   0  0  0  0  0  0  0  0  0  0  0  0
   21.1040  -21.8907   -6.7560 C   0  0  0  0  0  0  0  0  0  0  0  0
   22.1789  -21.3206   -5.8327 C   0  0  0  0  0  0  0  0  0  0  0  0
   23.5359  -21.4129   -6.4546 C   0  0  2  0  0  0  0  0  0  0  0  0
   23.7987  -22.8615   -6.8531 C   0  0  0  0  0  0  0  0  0  0  0  0
   24.6714  -20.7908   -5.7114 C   0  0  2  0  0  0  0  0  0  0  0  0
   25.8892  -20.8348   -6.4834 N   0  0  0  0  0  0  0  0  0  0  0  0
   24.7297  -21.2087   -4.3143 C   0  0  0  0  0  0  0  0  0  0  0  0
   25.8154  -22.0863   -4.0174 O   0  0  0  0  0  0  0  0  0  0  0  0
   24.0222  -20.9587   -3.3334 O   0  0  0  0  0  0  0  0  0  0  0  0
  2  1  1  6
  3  2  1  0
  4  3  1  0
  5  4  2  0
  6  5  1  0
  7  6  1  0
  7 12  2  0
  8  7  1  0
  9  8  2  0
  9 10  1  0
 10 11  2  0
 11 12  1  0
 12  4  1  0
 13 14  2  0
 13  2  1  0
 15 13  1  0
 16 15  1  0
 17 18  1  0
 16 17  1  1
 18 23  1  0
 19 18  2  0
 19 20  1  0
 20 21  2  0
 21 22  1  0
 23 22  2  0
 24 16  1  0
 25 24  2  0
 26 27  1  0
 27 28  1  0
 28 29  1  1
 28 30  1  0
 30 31  1  6
 30 32  1  0
 31 24  1  0
 32 33  1  0
 34 32  2  0
M  END
$$$$
