WFI.pdb
     RDKit          3D

 34 36  0  0  1  0  0  0  0  0999 V2000
   25.8081  -22.1240  -12.5199 N   0  0  0  0  0  0  0  0  0  0  0  0
   25.6938  -20.9066  -11.7842 C   0  0  1  0  0  0  0  0  0  0  0  0
   24.2936  -20.4007  -11.5785 C   0  0  0  0  0  0  0  0  0  0  0  0
   23.7436  -19.8961  -12.8356 C   0  0  0  0  0  0  0  0  0  0  0  0
   24.0126  -18.6442  -13.3415 C   0  0  0  0  0  0  0  0  0  0  0  0
   23.3711  -18.5552  -14.5105 N   0  0  0  0  0  0  0  0  0  0  0  0
   22.7060  -19.6867  -14.7779 C   0  0  0  0  0  0  0  0  0  0  0  0
   21.8996  -20.0744  -15.8463 C   0  0  0  0  0  0  0  0  0  0  0  0
   21.3292  -21.3460  -15.8229 C   0  0  0  0  0  0  0  0  0  0  0  0
   21.5630  -22.1871  -14.7695 C   0  0  0  0  0  0  0  0  0  0  0  0
   22.3475  -21.8276  -13.7160 C   0  0  0  0  0  0  0  0  0  0  0  0
   22.9297  -20.5561  -13.7204 C   0  0  0  0  0  0  0  0  0  0  0  0
   26.3018  -21.1264  -10.4235 C   0  0  0  0  0  0  0  0  0  0  0  0
   25.8962  -22.0653   -9.6743 O   0  0  0  0  0  0  0  0  0  0  0  0
   27.3435  -20.2846   -9.9569 N   0  0  0  0  0  0  0  0  0  0  0  0
   27.8321  -20.3446   -8.6038 C   0  0  1  0  0  0  0  0  0  0  0  0
   29.1103  -19.6262   -8.3943 C   0  0  0  0  0  0  0  0  0  0  0  0
   29.6310  -19.5948   -7.0239 C   0  0  0  0  0  0  0  0  0  0  0  0
   30.3354  -20.5868   -6.4001 C   0  0  0  0  0  0  0  0  0  0  0  0
   30.7940  -20.5399   -5.1030 C   0  0  0  0  0  0  0  0  0  0  0  0
   30.5410  -19.4173   -4.3363 C   0  0  0  0  0  0  0  0  0  0  0  0
   29.8367  -18.3954   -4.9249 C   0  0  0  0  0  0  0  0  0  0  0  0
   29.3843  -18.4548   -6.2237 C   0  0  0  0  0  0  0  0  0  0  0  0
   26.7349  -19.9263   -7.6588 C   0  0  0  0  0  0  0  0  0  0  0  0
   26.1252  -18.8460   -7.8544 O   0  0  0  0  0  0  0  0  0  0  0  0
   24.5007  -23.9786   -4.0537 C   0  0  0  0  0  0  0  0  0  0  0  0
   25.4584  -22.8096   -4.2756 C   0  0  0  0  0  0  0  0  0  0  0  0
   24.8099  -21.7163   -5.0636 C   0  0  2  0  0  0  0  0  0  0  0  0
   24.1250  -22.3260   -6.2824 C   0  0  0  0  0  0  0  0  0  0  0  0
   25.6454  -20.5234   -5.3922 C   0  0  2  0  0  0  0  0  0  0  0  0
   26.4166  -20.7389   -6.5922 N   0  0  0  0  0  0  0  0  0  0  0  0
   26.3300  -19.9738   -4.2265 C   0  0  0  0  0  0  0  0  0  0  0  0
   27.7462  -20.1498   -4.2505 O   0  0  0  0  0  0  0  0  0  0  0  0
   25.9282  -19.3886   -3.2159 O   0  0  0  0  0  0  0  0  0  0  0  0
  2  1  1  6
  3  2  1  0
  4  3  1  0
  5  4  2  0
  6  5  1  0
  7  6  1  0
  7 12  2  0
  8  7  1  0
  9  8  2  0
  9 10  1  0
 10 11  2  0
 11 12  1  0
 12  4  1  0
 13 14  2  0
 13  2  1  0
 15 13  1  0
 16 15  1  0
 17 18  1  0
 16 17  1  6
 18 23  1  0
 19 18  2  0
 19 20  1  0
 20 21  2  0
 21 22  1  0
 23 22  2  0
 24 16  1  0
 25 24  2  0
 26 27  1  0
 27 28  1  0
 28 29  1  6
 28 30  1  0
 30 31  1  6
 30 32  1  0
 31 24  1  0
 32 33  1  0
 34 32  2  0
M  END
$$$$
