WFI.pdb
     RDKit          3D

 34 36  0  0  1  0  0  0  0  0999 V2000
   26.1224  -20.0554  -12.8603 N   0  0  0  0  0  0  0  0  0  0  0  0
   25.2513  -20.2934  -11.7553 C   0  0  1  0  0  0  0  0  0  0  0  0
   24.2667  -21.4147  -11.9340 C   0  0  0  0  0  0  0  0  0  0  0  0
   23.2578  -21.0542  -12.9287 C   0  0  0  0  0  0  0  0  0  0  0  0
   23.2819  -21.4868  -14.2356 C   0  0  0  0  0  0  0  0  0  0  0  0
   22.1912  -20.9892  -14.8261 N   0  0  0  0  0  0  0  0  0  0  0  0
   21.4708  -20.2607  -13.9632 C   0  0  0  0  0  0  0  0  0  0  0  0
   20.2817  -19.5467  -14.0977 C   0  0  0  0  0  0  0  0  0  0  0  0
   19.7836  -18.8674  -12.9871 C   0  0  0  0  0  0  0  0  0  0  0  0
   20.4554  -18.9079  -11.7959 C   0  0  0  0  0  0  0  0  0  0  0  0
   21.6187  -19.5995  -11.6437 C   0  0  0  0  0  0  0  0  0  0  0  0
   22.1350  -20.2883  -12.7456 C   0  0  0  0  0  0  0  0  0  0  0  0
   26.1009  -20.6216  -10.5554 C   0  0  0  0  0  0  0  0  0  0  0  0
   26.5820  -21.7840  -10.3980 O   0  0  0  0  0  0  0  0  0  0  0  0
   26.3793  -19.6314   -9.5790 N   0  0  0  0  0  0  0  0  0  0  0  0
   26.8447  -19.9646   -8.2577 C   0  0  1  0  0  0  0  0  0  0  0  0
   27.3298  -18.8008   -7.4805 C   0  0  0  0  0  0  0  0  0  0  0  0
   28.3584  -19.0666   -6.4698 C   0  0  0  0  0  0  0  0  0  0  0  0
   29.6167  -19.5497   -6.6995 C   0  0  0  0  0  0  0  0  0  0  0  0
   30.5564  -19.8113   -5.7281 C   0  0  0  0  0  0  0  0  0  0  0  0
   30.2400  -19.5816   -4.4017 C   0  0  0  0  0  0  0  0  0  0  0  0
   28.9854  -19.0948   -4.1262 C   0  0  0  0  0  0  0  0  0  0  0  0
   28.0552  -18.8367   -5.1075 C   0  0  0  0  0  0  0  0  0  0  0  0
   25.7911  -20.7760   -7.5482 C   0  0  0  0  0  0  0  0  0  0  0  0
   24.9862  -21.4697   -8.2175 O   0  0  0  0  0  0  0  0  0  0  0  0
   27.7569  -25.0035   -4.8012 C   0  0  0  0  0  0  0  0  0  0  0  0
   26.5708  -24.0723   -4.5586 C   0  0  0  0  0  0  0  0  0  0  0  0
   26.6840  -22.8228   -5.3727 C   0  0  2  0  0  0  0  0  0  0  0  0
   28.1044  -22.2809   -5.2500 C   0  0  0  0  0  0  0  0  0  0  0  0
   25.6356  -21.7792   -5.1712 C   0  0  2  0  0  0  0  0  0  0  0  0
   25.7279  -20.7442   -6.1719 N   0  0  0  0  0  0  0  0  0  0  0  0
   25.5018  -21.3738   -3.7756 C   0  0  0  0  0  0  0  0  0  0  0  0
   25.9855  -20.0582   -3.5061 O   0  0  0  0  0  0  0  0  0  0  0  0
   25.0569  -21.9445   -2.7749 O   0  0  0  0  0  0  0  0  0  0  0  0
  2  1  1  6
  3  2  1  0
  4  3  1  0
  5  4  2  0
  6  5  1  0
  7  6  1  0
  7 12  2  0
  8  7  1  0
  9  8  2  0
  9 10  1  0
 10 11  2  0
 11 12  1  0
 12  4  1  0
 13 14  2  0
 13  2  1  0
 15 13  1  0
 16 15  1  0
 17 18  1  0
 16 17  1  1
 18 23  1  0
 19 18  2  0
 19 20  1  0
 20 21  2  0
 21 22  1  0
 23 22  2  0
 24 16  1  0
 25 24  2  0
 26 27  1  0
 27 28  1  0
 28 29  1  1
 28 30  1  0
 30 31  1  6
 30 32  1  0
 31 24  1  0
 32 33  1  0
 34 32  2  0
M  END
$$$$
