WFI.pdb
     RDKit          3D

 34 36  0  0  1  0  0  0  0  0999 V2000
   26.7973  -21.7260  -13.6780 N   0  0  0  0  0  0  0  0  0  0  0  0
   26.8084  -20.5707  -12.8402 C   0  0  1  0  0  0  0  0  0  0  0  0
   25.6366  -19.6429  -12.9974 C   0  0  0  0  0  0  0  0  0  0  0  0
   25.6741  -18.9907  -14.3052 C   0  0  0  0  0  0  0  0  0  0  0  0
   24.5922  -18.9117  -15.1530 C   0  0  0  0  0  0  0  0  0  0  0  0
   24.9920  -18.2195  -16.2240 N   0  0  0  0  0  0  0  0  0  0  0  0
   26.2743  -17.8517  -16.1040 C   0  0  0  0  0  0  0  0  0  0  0  0
   27.1308  -17.1374  -16.9396 C   0  0  0  0  0  0  0  0  0  0  0  0
   28.4438  -16.9250  -16.5227 C   0  0  0  0  0  0  0  0  0  0  0  0
   28.8716  -17.4111  -15.3175 C   0  0  0  0  0  0  0  0  0  0  0  0
   28.0508  -18.1115  -14.4865 C   0  0  0  0  0  0  0  0  0  0  0  0
   26.7295  -18.3350  -14.8860 C   0  0  0  0  0  0  0  0  0  0  0  0
   26.8310  -21.0354  -11.4074 C   0  0  0  0  0  0  0  0  0  0  0  0
   26.3182  -22.1467  -11.0763 O   0  0  0  0  0  0  0  0  0  0  0  0
   27.4302  -20.2353  -10.4014 N   0  0  0  0  0  0  0  0  0  0  0  0
   27.2778  -20.5227   -8.9987 C   0  0  1  0  0  0  0  0  0  0  0  0
   28.3751  -19.9958   -8.1549 C   0  0  0  0  0  0  0  0  0  0  0  0
   28.1772  -20.0575   -6.7032 C   0  0  0  0  0  0  0  0  0  0  0  0
   27.5095  -19.1443   -5.9353 C   0  0  0  0  0  0  0  0  0  0  0  0
   27.3575  -19.2155   -4.5690 C   0  0  0  0  0  0  0  0  0  0  0  0
   27.9112  -20.2799   -3.8814 C   0  0  0  0  0  0  0  0  0  0  0  0
   28.5903  -21.2219   -4.6152 C   0  0  0  0  0  0  0  0  0  0  0  0
   28.7344  -21.1390   -5.9816 C   0  0  0  0  0  0  0  0  0  0  0  0
   25.9037  -20.0965   -8.5492 C   0  0  0  0  0  0  0  0  0  0  0  0
   25.6120  -18.8755   -8.5164 O   0  0  0  0  0  0  0  0  0  0  0  0
   20.5183  -20.2730  -10.0434 C   0  0  0  0  0  0  0  0  0  0  0  0
   21.2646  -20.5608   -8.7422 C   0  0  0  0  0  0  0  0  0  0  0  0
   22.7143  -20.8287   -8.9937 C   0  0  2  0  0  0  0  0  0  0  0  0
   22.8385  -21.9752   -9.9918 C   0  0  0  0  0  0  0  0  0  0  0  0
   23.5964  -20.9885   -7.7998 C   0  0  2  0  0  0  0  0  0  0  0  0
   24.9860  -21.0565   -8.1809 N   0  0  0  0  0  0  0  0  0  0  0  0
   23.0950  -21.9813   -6.8550 C   0  0  0  0  0  0  0  0  0  0  0  0
   23.9775  -23.0845   -6.6518 O   0  0  0  0  0  0  0  0  0  0  0  0
   22.0534  -22.0621   -6.1963 O   0  0  0  0  0  0  0  0  0  0  0  0
  2  1  1  6
  3  2  1  0
  4  3  1  0
  5  4  2  0
  6  5  1  0
  7  6  1  0
  7 12  2  0
  8  7  1  0
  9  8  2  0
  9 10  1  0
 10 11  2  0
 11 12  1  0
 12  4  1  0
 13 14  2  0
 13  2  1  0
 15 13  1  0
 16 15  1  0
 17 18  1  0
 16 17  1  1
 18 23  1  0
 19 18  2  0
 19 20  1  0
 20 21  2  0
 21 22  1  0
 23 22  2  0
 24 16  1  0
 25 24  2  0
 26 27  1  0
 27 28  1  0
 28 29  1  1
 28 30  1  0
 30 31  1  6
 30 32  1  0
 31 24  1  0
 32 33  1  0
 34 32  2  0
M  END
$$$$
