WFI.pdb
     RDKit          3D

 34 36  0  0  1  0  0  0  0  0999 V2000
   25.9417  -22.0250  -13.3133 N   0  0  0  0  0  0  0  0  0  0  0  0
   25.6603  -20.8590  -12.5401 C   0  0  1  0  0  0  0  0  0  0  0  0
   24.2479  -20.3514  -12.6204 C   0  0  0  0  0  0  0  0  0  0  0  0
   23.9732  -19.8162  -13.9529 C   0  0  0  0  0  0  0  0  0  0  0  0
   24.2104  -18.5098  -14.3173 C   0  0  0  0  0  0  0  0  0  0  0  0
   23.8746  -18.4027  -15.6065 N   0  0  0  0  0  0  0  0  0  0  0  0
   23.4352  -19.5742  -16.0848 C   0  0  0  0  0  0  0  0  0  0  0  0
   22.9721  -19.9642  -17.3400 C   0  0  0  0  0  0  0  0  0  0  0  0
   22.5678  -21.2860  -17.5194 C   0  0  0  0  0  0  0  0  0  0  0  0
   22.6290  -22.1728  -16.4794 C   0  0  0  0  0  0  0  0  0  0  0  0
   23.0782  -21.8119  -15.2454 C   0  0  0  0  0  0  0  0  0  0  0  0
   23.4891  -20.4904  -15.0446 C   0  0  0  0  0  0  0  0  0  0  0  0
   25.9469  -21.1782  -11.0960 C   0  0  0  0  0  0  0  0  0  0  0  0
   25.4980  -22.2373  -10.5629 O   0  0  0  0  0  0  0  0  0  0  0  0
   26.7283  -20.2966  -10.3062 N   0  0  0  0  0  0  0  0  0  0  0  0
   26.7370  -20.3570   -8.8676 C   0  0  1  0  0  0  0  0  0  0  0  0
   27.6921  -19.4195   -8.2329 C   0  0  0  0  0  0  0  0  0  0  0  0
   27.8895  -19.5595   -6.7866 C   0  0  0  0  0  0  0  0  0  0  0  0
   27.2831  -20.4724   -5.9690 C   0  0  0  0  0  0  0  0  0  0  0  0
   27.4702  -20.5675   -4.6086 C   0  0  0  0  0  0  0  0  0  0  0  0
   28.3314  -19.6863   -3.9810 C   0  0  0  0  0  0  0  0  0  0  0  0
   28.9630  -18.7526   -4.7661 C   0  0  0  0  0  0  0  0  0  0  0  0
   28.7675  -18.6687   -6.1261 C   0  0  0  0  0  0  0  0  0  0  0  0
   25.3253  -20.2303   -8.3549 C   0  0  0  0  0  0  0  0  0  0  0  0
   24.5546  -19.3784   -8.8622 O   0  0  0  0  0  0  0  0  0  0  0  0
   21.2192  -20.6445   -9.6070 C   0  0  0  0  0  0  0  0  0  0  0  0
   22.3467  -20.2900   -8.6396 C   0  0  0  0  0  0  0  0  0  0  0  0
   22.5069  -21.3362   -7.5829 C   0  0  2  0  0  0  0  0  0  0  0  0
   21.1662  -21.5428   -6.8857 C   0  0  0  0  0  0  0  0  0  0  0  0
   23.6473  -21.1779   -6.6324 C   0  0  2  0  0  0  0  0  0  0  0  0
   24.9011  -21.0544   -7.3350 N   0  0  0  0  0  0  0  0  0  0  0  0
   23.5796  -22.1060   -5.5082 C   0  0  0  0  0  0  0  0  0  0  0  0
   24.2643  -23.3381   -5.7326 O   0  0  0  0  0  0  0  0  0  0  0  0
   23.0423  -22.0417   -4.3981 O   0  0  0  0  0  0  0  0  0  0  0  0
  2  1  1  6
  3  2  1  0
  4  3  1  0
  5  4  2  0
  6  5  1  0
  7  6  1  0
  7 12  2  0
  8  7  1  0
  9  8  2  0
  9 10  1  0
 10 11  2  0
 11 12  1  0
 12  4  1  0
 13 14  2  0
 13  2  1  0
 15 13  1  0
 16 15  1  0
 17 18  1  0
 16 17  1  1
 18 23  1  0
 19 18  2  0
 19 20  1  0
 20 21  2  0
 21 22  1  0
 23 22  2  0
 24 16  1  0
 25 24  2  0
 26 27  1  0
 27 28  1  0
 28 29  1  1
 28 30  1  0
 30 31  1  6
 30 32  1  0
 31 24  1  0
 32 33  1  0
 34 32  2  0
M  END
$$$$
