NIK.pdb
     RDKit          3D

 26 25  0  0  1  0  0  0  0  0999 V2000
    7.3713  -18.0581   19.1766 N   0  0  0  0  0  0  0  0  0  0  0  0
    6.6983  -17.3903   20.2348 C   0  0  0  0  0  0  0  0  0  0  0  0
    5.4538  -17.2519   20.1317 O   0  0  0  0  0  0  0  0  0  0  0  0
    7.4819  -16.9000   21.3843 C   0  0  0  0  0  0  0  0  0  0  0  0
    7.2679  -15.4240   21.6359 C   0  0  2  0  0  0  0  0  0  0  0  0
    7.6200  -14.6155   20.4994 N   0  0  0  0  0  0  0  0  0  0  0  0
    8.0612  -15.0533   22.8308 C   0  0  0  0  0  0  0  0  0  0  0  0
    9.2954  -14.8588   22.7136 O   0  0  0  0  0  0  0  0  0  0  0  0
    6.0312  -11.4378   26.0005 C   0  0  0  0  0  0  0  0  0  0  0  0
    6.9866  -12.3585   25.3868 C   0  0  0  0  0  0  0  0  0  0  0  0
    7.5028  -13.5315   26.0694 C   0  0  2  0  0  0  0  0  0  0  0  0
    8.1000  -13.2272   27.4414 C   0  0  0  0  0  0  0  0  0  0  0  0
    8.2920  -14.5083   25.3029 C   0  0  2  0  0  0  0  0  0  0  0  0
    7.4725  -14.9110   24.1035 N   0  0  0  0  0  0  0  0  0  0  0  0
    8.8103  -15.7252   25.9120 C   0  0  0  0  0  0  0  0  0  0  0  0
    7.9783  -16.6236   26.3668 O   0  0  0  0  0  0  0  0  0  0  0  0
   10.1529  -16.1273   26.0925 N   0  0  0  0  0  0  0  0  0  0  0  0
   10.5072  -17.3941   26.7384 C   0  0  1  0  0  0  0  0  0  0  0  0
   11.7720  -17.9066   26.1019 C   0  0  0  0  0  0  0  0  0  0  0  0
   11.6073  -18.2267   24.6631 C   0  0  0  0  0  0  0  0  0  0  0  0
   12.9402  -18.7171   24.0534 C   0  0  0  0  0  0  0  0  0  0  0  0
   12.6104  -19.0673   22.5993 C   0  0  0  0  0  0  0  0  0  0  0  0
   13.8207  -19.4849   21.9198 N   0  0  0  0  0  0  0  0  0  0  0  0
   10.7227  -17.1690   28.1663 C   0  0  0  0  0  0  0  0  0  0  0  0
   10.8598  -18.1385   29.1429 O   0  0  0  0  0  0  0  0  0  0  0  0
   10.7965  -15.9751   28.5946 O   0  0  0  0  0  0  0  0  0  0  0  0
  1  2  1  0
  2  3  2  0
  4  5  1  0
  4  2  1  0
  5  7  1  0
  5  6  1  6
  7 14  1  0
  7  8  2  0
 10 11  1  0
 10  9  1  0
 11 13  1  0
 11 12  1  1
 13 15  1  0
 13 14  1  6
 15 16  2  0
 17 18  1  0
 17 15  1  0
 18 24  1  0
 18 19  1  6
 20 19  1  0
 21 20  1  0
 22 21  1  0
 23 22  1  0
 24 25  1  0
 26 24  2  0
M  END
$$$$
