NIK.pdb
     RDKit          3D

 26 25  0  0  1  0  0  0  0  0999 V2000
    4.4463  -20.7726   25.7123 N   0  0  0  0  0  0  0  0  0  0  0  0
    5.8609  -20.7799   25.5800 C   0  0  0  0  0  0  0  0  0  0  0  0
    6.4771  -21.7830   26.0188 O   0  0  0  0  0  0  0  0  0  0  0  0
    6.5258  -19.6271   24.9438 C   0  0  0  0  0  0  0  0  0  0  0  0
    5.5490  -18.5308   24.5810 C   0  0  2  0  0  0  0  0  0  0  0  0
    4.6973  -18.8949   23.4803 N   0  0  0  0  0  0  0  0  0  0  0  0
    6.3349  -17.3124   24.2775 C   0  0  0  0  0  0  0  0  0  0  0  0
    6.6953  -17.0913   23.0959 O   0  0  0  0  0  0  0  0  0  0  0  0
    5.6809  -12.6563   27.0003 C   0  0  0  0  0  0  0  0  0  0  0  0
    6.1506  -13.5324   25.9285 C   0  0  0  0  0  0  0  0  0  0  0  0
    7.4351  -14.2085   25.9670 C   0  0  2  0  0  0  0  0  0  0  0  0
    8.6205  -13.2602   26.1314 C   0  0  0  0  0  0  0  0  0  0  0  0
    7.6951  -15.2926   25.0070 C   0  0  2  0  0  0  0  0  0  0  0  0
    6.6944  -16.3869   25.2780 N   0  0  0  0  0  0  0  0  0  0  0  0
    9.0065  -15.9139   24.8860 C   0  0  0  0  0  0  0  0  0  0  0  0
    9.4012  -16.7686   25.7915 O   0  0  0  0  0  0  0  0  0  0  0  0
    9.9816  -15.7439   23.8774 N   0  0  0  0  0  0  0  0  0  0  0  0
   11.0545  -16.7176   23.6582 C   0  0  1  0  0  0  0  0  0  0  0  0
   11.4453  -16.6645   22.2049 C   0  0  0  0  0  0  0  0  0  0  0  0
   12.6187  -17.5151   21.8896 C   0  0  0  0  0  0  0  0  0  0  0  0
   13.0184  -17.3707   20.4036 C   0  0  0  0  0  0  0  0  0  0  0  0
   14.1656  -18.3646   20.1992 C   0  0  0  0  0  0  0  0  0  0  0  0
   14.4679  -18.4645   18.7851 N   0  0  0  0  0  0  0  0  0  0  0  0
   12.2017  -16.3750   24.4964 C   0  0  0  0  0  0  0  0  0  0  0  0
   13.1983  -17.2341   24.9220 O   0  0  0  0  0  0  0  0  0  0  0  0
   12.3325  -15.1763   24.8967 O   0  0  0  0  0  0  0  0  0  0  0  0
  1  2  1  0
  2  3  2  0
  4  5  1  0
  4  2  1  0
  5  7  1  0
  5  6  1  6
  7 14  1  0
  7  8  2  0
 10 11  1  0
 10  9  1  0
 11 13  1  0
 11 12  1  6
 13 15  1  0
 13 14  1  1
 15 16  2  0
 17 18  1  0
 17 15  1  0
 18 24  1  0
 18 19  1  6
 20 19  1  0
 21 20  1  0
 22 21  1  0
 23 22  1  0
 24 25  1  0
 26 24  2  0
M  END
$$$$
