NIK.pdb
     RDKit          3D

 26 25  0  0  1  0  0  0  0  0999 V2000
    6.8369  -17.0451   19.0330 N   0  0  0  0  0  0  0  0  0  0  0  0
    7.1232  -17.8475   20.1701 C   0  0  0  0  0  0  0  0  0  0  0  0
    6.9258  -19.0841   20.0693 O   0  0  0  0  0  0  0  0  0  0  0  0
    7.6305  -17.1987   21.3939 C   0  0  0  0  0  0  0  0  0  0  0  0
    7.6054  -15.6896   21.2949 C   0  0  2  0  0  0  0  0  0  0  0  0
    8.2373  -15.2064   20.0963 N   0  0  0  0  0  0  0  0  0  0  0  0
    8.2615  -15.1498   22.5083 C   0  0  0  0  0  0  0  0  0  0  0  0
    9.5147  -15.1102   22.5640 O   0  0  0  0  0  0  0  0  0  0  0  0
    6.9925  -11.3238   27.2246 C   0  0  0  0  0  0  0  0  0  0  0  0
    7.7962  -12.3534   26.5681 C   0  0  0  0  0  0  0  0  0  0  0  0
    7.3323  -13.0996   25.4121 C   0  0  2  0  0  0  0  0  0  0  0  0
    5.8741  -13.5408   25.5141 C   0  0  0  0  0  0  0  0  0  0  0  0
    8.2069  -14.1338   24.8378 C   0  0  2  0  0  0  0  0  0  0  0  0
    7.5208  -14.6762   23.6100 N   0  0  0  0  0  0  0  0  0  0  0  0
    8.6714  -15.2697   25.6218 C   0  0  0  0  0  0  0  0  0  0  0  0
    7.9053  -16.3195   25.7525 O   0  0  0  0  0  0  0  0  0  0  0  0
    9.9003  -15.4405   26.2983 N   0  0  0  0  0  0  0  0  0  0  0  0
   10.2286  -16.6733   27.0192 C   0  0  1  0  0  0  0  0  0  0  0  0
   11.4872  -17.2443   26.4213 C   0  0  0  0  0  0  0  0  0  0  0  0
   11.9505  -18.4725   27.1117 C   0  0  0  0  0  0  0  0  0  0  0  0
   13.2279  -19.0296   26.4435 C   0  0  0  0  0  0  0  0  0  0  0  0
   13.5389  -20.3277   27.1944 C   0  0  0  0  0  0  0  0  0  0  0  0
   14.6942  -20.9647   26.5939 N   0  0  0  0  0  0  0  0  0  0  0  0
   10.4409  -16.3689   28.4328 C   0  0  0  0  0  0  0  0  0  0  0  0
   10.4487  -15.1143   29.0144 O   0  0  0  0  0  0  0  0  0  0  0  0
   10.6433  -17.3267   29.2427 O   0  0  0  0  0  0  0  0  0  0  0  0
  1  2  1  0
  2  3  2  0
  4  5  1  0
  4  2  1  0
  5  7  1  0
  5  6  1  6
  7 14  1  0
  7  8  2  0
 10 11  1  0
 10  9  1  0
 11 13  1  0
 11 12  1  1
 13 15  1  0
 13 14  1  6
 15 16  2  0
 17 18  1  0
 17 15  1  0
 18 24  1  0
 18 19  1  6
 20 19  1  0
 21 20  1  0
 22 21  1  0
 23 22  1  0
 24 25  1  0
 26 24  2  0
M  END
$$$$
