SLQ.pdb
     RDKit          3D

 24 23  0  0  1  0  0  0  0  0999 V2000
    7.4700  -17.3091   20.9839 O   0  0  0  0  0  0  0  0  0  0  0  0
    6.5071  -16.3047   21.0734 C   0  0  0  0  0  0  0  0  0  0  0  0
    7.1638  -14.9401   21.1476 C   0  0  2  0  0  0  0  0  0  0  0  0
    8.0205  -14.6936   20.0205 N   0  0  0  0  0  0  0  0  0  0  0  0
    7.9516  -14.7979   22.3875 C   0  0  0  0  0  0  0  0  0  0  0  0
    9.1846  -14.9465   22.3780 O   0  0  0  0  0  0  0  0  0  0  0  0
    8.0408  -11.4422   25.6857 C   0  0  0  0  0  0  0  0  0  0  0  0
    6.8470  -12.3500   25.7576 C   0  0  2  0  0  0  0  0  0  0  0  0
    5.9805  -11.8299   26.9165 C   0  0  0  0  0  0  0  0  0  0  0  0
    7.2723  -13.7516   25.9918 C   0  0  0  0  0  0  0  0  0  0  0  0
    7.9470  -14.4769   24.8822 C   0  0  2  0  0  0  0  0  0  0  0  0
    7.2831  -14.4844   23.6156 N   0  0  0  0  0  0  0  0  0  0  0  0
    8.4123  -15.8131   25.3020 C   0  0  0  0  0  0  0  0  0  0  0  0
    7.6058  -16.7677   25.2811 O   0  0  0  0  0  0  0  0  0  0  0  0
   11.5109  -21.0417   24.6788 N   0  0  0  0  0  0  0  0  0  0  0  0
   12.1946  -19.7950   24.6105 C   0  0  0  0  0  0  0  0  0  0  0  0
   12.8162  -19.4445   23.5890 O   0  0  0  0  0  0  0  0  0  0  0  0
   12.1339  -18.9209   25.8233 C   0  0  0  0  0  0  0  0  0  0  0  0
   11.5153  -17.6169   25.4206 C   0  0  0  0  0  0  0  0  0  0  0  0
   10.1993  -17.4242   26.0863 C   0  0  2  0  0  0  0  0  0  0  0  0
    9.7360  -16.0634   25.7290 N   0  0  0  0  0  0  0  0  0  0  0  0
   10.3517  -17.4434   27.5596 C   0  0  0  0  0  0  0  0  0  0  0  0
   10.2810  -16.4462   28.3113 O   0  0  0  0  0  0  0  0  0  0  0  0
   10.5993  -18.6591   28.2319 O   0  0  0  0  0  0  0  0  0  0  0  0
  2  1  1  0
  3  4  1  6
  3  2  1  0
  5  3  1  0
  6  5  2  0
  8  7  1  1
  8 10  1  0
  9  8  1  0
 11 10  1  1
 11 12  1  0
 12  5  1  0
 13 11  1  0
 14 13  2  0
 16 15  1  0
 16 18  1  0
 17 16  2  0
 20 19  1  6
 19 18  1  0
 20 21  1  0
 21 13  1  0
 22 24  1  0
 22 20  1  0
 23 22  2  0
M  END
$$$$
