SLQ.pdb
     RDKit          3D

 24 23  0  0  1  0  0  0  0  0999 V2000
    8.6627  -17.7935   21.7481 O   0  0  0  0  0  0  0  0  0  0  0  0
    7.5071  -17.0829   21.4259 C   0  0  0  0  0  0  0  0  0  0  0  0
    7.8091  -15.6028   21.2955 C   0  0  2  0  0  0  0  0  0  0  0  0
    8.7072  -15.3311   20.2071 N   0  0  0  0  0  0  0  0  0  0  0  0
    8.3924  -15.0691   22.5417 C   0  0  0  0  0  0  0  0  0  0  0  0
    9.5738  -14.6879   22.5786 O   0  0  0  0  0  0  0  0  0  0  0  0
    7.6376  -11.4664   25.3685 C   0  0  0  0  0  0  0  0  0  0  0  0
    6.5527  -12.5035   25.4140 C   0  0  2  0  0  0  0  0  0  0  0  0
    5.4973  -11.9787   26.4014 C   0  0  0  0  0  0  0  0  0  0  0  0
    7.0995  -13.8096   25.8559 C   0  0  0  0  0  0  0  0  0  0  0  0
    8.0762  -14.4993   24.9711 C   0  0  2  0  0  0  0  0  0  0  0  0
    7.5834  -14.9908   23.7219 N   0  0  0  0  0  0  0  0  0  0  0  0
    8.8806  -15.4924   25.7094 C   0  0  0  0  0  0  0  0  0  0  0  0
    9.1972  -15.2525   26.8945 O   0  0  0  0  0  0  0  0  0  0  0  0
    8.9099  -21.8333   25.4161 N   0  0  0  0  0  0  0  0  0  0  0  0
    8.5007  -20.7560   24.5804 C   0  0  0  0  0  0  0  0  0  0  0  0
    8.0959  -20.9471   23.4174 O   0  0  0  0  0  0  0  0  0  0  0  0
    8.5780  -19.3795   25.1617 C   0  0  0  0  0  0  0  0  0  0  0  0
   10.0217  -18.9813   25.2120 C   0  0  0  0  0  0  0  0  0  0  0  0
   10.1853  -17.6551   25.8651 C   0  0  2  0  0  0  0  0  0  0  0  0
    9.3113  -16.7089   25.1337 N   0  0  0  0  0  0  0  0  0  0  0  0
   11.5717  -17.1599   25.7010 C   0  0  0  0  0  0  0  0  0  0  0  0
   11.9139  -16.1673   25.0213 O   0  0  0  0  0  0  0  0  0  0  0  0
   12.6420  -17.8208   26.3405 O   0  0  0  0  0  0  0  0  0  0  0  0
  2  1  1  0
  3  4  1  6
  3  2  1  0
  5  3  1  0
  6  5  2  0
  8  7  1  1
  8 10  1  0
  9  8  1  0
 11 10  1  1
 11 12  1  0
 12  5  1  0
 13 11  1  0
 14 13  2  0
 16 15  1  0
 16 18  1  0
 17 16  2  0
 20 19  1  6
 19 18  1  0
 20 21  1  0
 21 13  1  0
 22 24  1  0
 22 20  1  0
 23 22  2  0
M  END
$$$$
