SLQ.pdb
     RDKit          3D

 24 23  0  0  1  0  0  0  0  0999 V2000
    9.5998  -19.7805   20.7805 O   0  0  0  0  0  0  0  0  0  0  0  0
    8.4096  -19.5501   20.0917 C   0  0  0  0  0  0  0  0  0  0  0  0
    8.6093  -18.4996   19.0167 C   0  0  2  0  0  0  0  0  0  0  0  0
    9.2533  -19.0390   17.8508 N   0  0  0  0  0  0  0  0  0  0  0  0
    9.4087  -17.3674   19.5241 C   0  0  0  0  0  0  0  0  0  0  0  0
   10.5755  -17.1890   19.1376 O   0  0  0  0  0  0  0  0  0  0  0  0
    8.1064  -12.8765   19.4076 C   0  0  0  0  0  0  0  0  0  0  0  0
    7.5761  -13.7251   20.5270 C   0  0  2  0  0  0  0  0  0  0  0  0
    6.5666  -12.8504   21.2886 C   0  0  0  0  0  0  0  0  0  0  0  0
    8.6802  -14.1670   21.4133 C   0  0  0  0  0  0  0  0  0  0  0  0
    9.5175  -15.3157   20.9751 C   0  0  2  0  0  0  0  0  0  0  0  0
    8.8290  -16.4647   20.4741 N   0  0  0  0  0  0  0  0  0  0  0  0
   10.5567  -15.6489   21.9688 C   0  0  0  0  0  0  0  0  0  0  0  0
   11.3129  -14.7422   22.3790 O   0  0  0  0  0  0  0  0  0  0  0  0
   11.1037  -21.8440   25.1521 N   0  0  0  0  0  0  0  0  0  0  0  0
   11.4183  -20.4650   25.3120 C   0  0  0  0  0  0  0  0  0  0  0  0
   11.6367  -19.9694   26.4343 O   0  0  0  0  0  0  0  0  0  0  0  0
   11.4754  -19.6337   24.0693 C   0  0  0  0  0  0  0  0  0  0  0  0
   11.1858  -18.2140   24.4511 C   0  0  0  0  0  0  0  0  0  0  0  0
   11.7881  -17.2671   23.4750 C   0  0  2  0  0  0  0  0  0  0  0  0
   10.7363  -16.9539   22.4803 N   0  0  0  0  0  0  0  0  0  0  0  0
   12.8916  -17.9167   22.7303 C   0  0  0  0  0  0  0  0  0  0  0  0
   12.7873  -18.4748   21.6158 O   0  0  0  0  0  0  0  0  0  0  0  0
   14.1948  -17.9413   23.2707 O   0  0  0  0  0  0  0  0  0  0  0  0
  2  1  1  0
  3  4  1  6
  3  2  1  0
  5  3  1  0
  6  5  2  0
  8  7  1  6
  8 10  1  0
  9  8  1  0
 11 10  1  1
 11 12  1  0
 12  5  1  0
 13 11  1  0
 14 13  2  0
 16 15  1  0
 16 18  1  0
 17 16  2  0
 20 19  1  1
 19 18  1  0
 20 21  1  0
 21 13  1  0
 22 24  1  0
 22 20  1  0
 23 22  2  0
M  END
$$$$
