SLQ.pdb
     RDKit          3D

 24 23  0  0  1  0  0  0  0  0999 V2000
    7.0486  -17.9810   23.2346 O   0  0  0  0  0  0  0  0  0  0  0  0
    7.4609  -17.5234   21.9837 C   0  0  0  0  0  0  0  0  0  0  0  0
    7.2234  -16.0314   21.8558 C   0  0  2  0  0  0  0  0  0  0  0  0
    7.6548  -15.5254   20.5818 N   0  0  0  0  0  0  0  0  0  0  0  0
    7.9197  -15.2903   22.9256 C   0  0  0  0  0  0  0  0  0  0  0  0
    9.1146  -14.9735   22.8058 O   0  0  0  0  0  0  0  0  0  0  0  0
    7.1634  -11.3519   24.7571 C   0  0  0  0  0  0  0  0  0  0  0  0
    6.2419  -12.3618   25.3780 C   0  0  2  0  0  0  0  0  0  0  0  0
    5.3504  -11.5839   26.3600 C   0  0  0  0  0  0  0  0  0  0  0  0
    7.0185  -13.4151   26.0762 C   0  0  0  0  0  0  0  0  0  0  0  0
    7.8390  -14.3452   25.2551 C   0  0  2  0  0  0  0  0  0  0  0  0
    7.2059  -14.9332   24.1156 N   0  0  0  0  0  0  0  0  0  0  0  0
    8.5587  -15.3264   26.0904 C   0  0  0  0  0  0  0  0  0  0  0  0
    9.1168  -14.9340   27.1377 O   0  0  0  0  0  0  0  0  0  0  0  0
    7.5937  -21.4913   27.4851 N   0  0  0  0  0  0  0  0  0  0  0  0
    6.9166  -20.4704   26.7600 C   0  0  0  0  0  0  0  0  0  0  0  0
    5.9529  -20.7274   26.0130 O   0  0  0  0  0  0  0  0  0  0  0  0
    7.4146  -19.0703   26.9347 C   0  0  0  0  0  0  0  0  0  0  0  0
    8.7956  -18.9973   26.3580 C   0  0  0  0  0  0  0  0  0  0  0  0
    9.4006  -17.6592   26.5936 C   0  0  2  0  0  0  0  0  0  0  0  0
    8.6459  -16.6970   25.7577 N   0  0  0  0  0  0  0  0  0  0  0  0
   10.8010  -17.6272   26.1117 C   0  0  0  0  0  0  0  0  0  0  0  0
   11.7551  -18.2672   26.6062 O   0  0  0  0  0  0  0  0  0  0  0  0
   11.1527  -16.8261   25.0047 O   0  0  0  0  0  0  0  0  0  0  0  0
  2  1  1  0
  3  4  1  6
  3  2  1  0
  5  3  1  0
  6  5  2  0
  8  7  1  1
  8 10  1  0
  9  8  1  0
 11 10  1  1
 11 12  1  0
 12  5  1  0
 13 11  1  0
 14 13  2  0
 16 15  1  0
 16 18  1  0
 17 16  2  0
 20 19  1  6
 19 18  1  0
 20 21  1  0
 21 13  1  0
 22 24  1  0
 22 20  1  0
 23 22  2  0
M  END
$$$$
