SLQ.pdb
     RDKit          3D

 24 23  0  0  1  0  0  0  0  0999 V2000
    7.8031  -17.7347   23.0476 O   0  0  0  0  0  0  0  0  0  0  0  0
    7.0988  -17.2040   21.9676 C   0  0  0  0  0  0  0  0  0  0  0  0
    7.4419  -15.7399   21.7738 C   0  0  2  0  0  0  0  0  0  0  0  0
    8.2423  -15.5259   20.5996 N   0  0  0  0  0  0  0  0  0  0  0  0
    8.1601  -15.2040   22.9466 C   0  0  0  0  0  0  0  0  0  0  0  0
    9.3906  -15.0383   22.9175 O   0  0  0  0  0  0  0  0  0  0  0  0
    7.4578  -11.3185   25.1900 C   0  0  0  0  0  0  0  0  0  0  0  0
    6.5115  -12.4084   25.6036 C   0  0  2  0  0  0  0  0  0  0  0  0
    5.5326  -11.7713   26.6037 C   0  0  0  0  0  0  0  0  0  0  0  0
    7.2529  -13.5349   26.2211 C   0  0  0  0  0  0  0  0  0  0  0  0
    8.0545  -14.4200   25.3342 C   0  0  2  0  0  0  0  0  0  0  0  0
    7.4262  -14.8719   24.1316 N   0  0  0  0  0  0  0  0  0  0  0  0
    8.7117  -15.5047   26.0890 C   0  0  0  0  0  0  0  0  0  0  0  0
    9.3497  -15.2189   27.1252 O   0  0  0  0  0  0  0  0  0  0  0  0
    8.2850  -20.4903   28.2828 N   0  0  0  0  0  0  0  0  0  0  0  0
    7.1048  -20.1279   27.5743 C   0  0  0  0  0  0  0  0  0  0  0  0
    5.9792  -20.5274   27.9299 O   0  0  0  0  0  0  0  0  0  0  0  0
    7.2755  -19.2430   26.3799 C   0  0  0  0  0  0  0  0  0  0  0  0
    8.7326  -19.2155   26.0316 C   0  0  0  0  0  0  0  0  0  0  0  0
    9.3532  -17.9272   26.4406 C   0  0  2  0  0  0  0  0  0  0  0  0
    8.6520  -16.8593   25.6911 N   0  0  0  0  0  0  0  0  0  0  0  0
   10.7724  -17.8745   26.0195 C   0  0  0  0  0  0  0  0  0  0  0  0
   11.2573  -17.0675   25.1961 O   0  0  0  0  0  0  0  0  0  0  0  0
   11.7066  -18.7854   26.5567 O   0  0  0  0  0  0  0  0  0  0  0  0
  2  1  1  0
  3  4  1  6
  3  2  1  0
  5  3  1  0
  6  5  2  0
  8  7  1  1
  8 10  1  0
  9  8  1  0
 11 10  1  1
 11 12  1  0
 12  5  1  0
 13 11  1  0
 14 13  2  0
 16 15  1  0
 16 18  1  0
 17 16  2  0
 20 19  1  6
 19 18  1  0
 20 21  1  0
 21 13  1  0
 22 24  1  0
 22 20  1  0
 23 22  2  0
M  END
$$$$
