SLQ.pdb
     RDKit          3D

 24 23  0  0  1  0  0  0  0  0999 V2000
    8.5419  -14.6952   19.9121 O   0  0  0  0  0  0  0  0  0  0  0  0
    7.3897  -15.0610   20.6069 C   0  0  0  0  0  0  0  0  0  0  0  0
    7.7241  -16.0328   21.7217 C   0  0  2  0  0  0  0  0  0  0  0  0
    6.5564  -16.7135   22.2099 N   0  0  0  0  0  0  0  0  0  0  0  0
    8.3809  -15.3414   22.8482 C   0  0  0  0  0  0  0  0  0  0  0  0
    9.5287  -14.8821   22.7302 O   0  0  0  0  0  0  0  0  0  0  0  0
    7.5281  -11.5646   24.8607 C   0  0  0  0  0  0  0  0  0  0  0  0
    6.6536  -12.6864   25.3416 C   0  0  2  0  0  0  0  0  0  0  0  0
    5.6042  -12.0475   26.2662 C   0  0  0  0  0  0  0  0  0  0  0  0
    7.4589  -13.7014   26.0636 C   0  0  0  0  0  0  0  0  0  0  0  0
    8.2866  -14.6427   25.2626 C   0  0  2  0  0  0  0  0  0  0  0  0
    7.6833  -15.1999   24.0918 N   0  0  0  0  0  0  0  0  0  0  0  0
    8.9476  -15.6526   26.1120 C   0  0  0  0  0  0  0  0  0  0  0  0
    9.3714  -15.3114   27.2373 O   0  0  0  0  0  0  0  0  0  0  0  0
    7.6526  -21.3558   26.9434 N   0  0  0  0  0  0  0  0  0  0  0  0
    7.2335  -20.2852   27.7828 C   0  0  0  0  0  0  0  0  0  0  0  0
    6.2795  -20.4093   28.5748 O   0  0  0  0  0  0  0  0  0  0  0  0
    7.9915  -18.9999   27.6722 C   0  0  0  0  0  0  0  0  0  0  0  0
    9.0648  -19.1854   26.6433 C   0  0  0  0  0  0  0  0  0  0  0  0
    9.9005  -17.9612   26.5195 C   0  0  2  0  0  0  0  0  0  0  0  0
    9.1241  -16.9953   25.7083 N   0  0  0  0  0  0  0  0  0  0  0  0
   11.1390  -18.2492   25.7597 C   0  0  0  0  0  0  0  0  0  0  0  0
   11.3940  -17.8444   24.6040 O   0  0  0  0  0  0  0  0  0  0  0  0
   12.1558  -19.0417   26.3334 O   0  0  0  0  0  0  0  0  0  0  0  0
  2  1  1  0
  3  4  1  1
  3  2  1  0
  5  3  1  0
  6  5  2  0
  8  7  1  1
  8 10  1  0
  9  8  1  0
 11 10  1  1
 11 12  1  0
 12  5  1  0
 13 11  1  0
 14 13  2  0
 16 15  1  0
 16 18  1  0
 17 16  2  0
 20 19  1  6
 19 18  1  0
 20 21  1  0
 21 13  1  0
 22 24  1  0
 22 20  1  0
 23 22  2  0
M  END
$$$$
