SLQ.pdb
     RDKit          3D

 24 23  0  0  1  0  0  0  0  0999 V2000
    6.9949  -16.9323   21.3677 O   0  0  0  0  0  0  0  0  0  0  0  0
    7.3943  -16.0127   20.3988 C   0  0  0  0  0  0  0  0  0  0  0  0
    7.2213  -14.5940   20.9052 C   0  0  2  0  0  0  0  0  0  0  0  0
    7.6329  -13.6212   19.9309 N   0  0  0  0  0  0  0  0  0  0  0  0
    7.9858  -14.3784   22.1492 C   0  0  0  0  0  0  0  0  0  0  0  0
    9.2214  -14.2562   22.1231 O   0  0  0  0  0  0  0  0  0  0  0  0
    7.7407  -11.2937   25.6851 C   0  0  0  0  0  0  0  0  0  0  0  0
    6.6520  -12.3270   25.6480 C   0  0  2  0  0  0  0  0  0  0  0  0
    5.6947  -11.9847   26.8015 C   0  0  0  0  0  0  0  0  0  0  0  0
    7.2202  -13.6878   25.8073 C   0  0  0  0  0  0  0  0  0  0  0  0
    7.9638  -14.2783   24.6624 C   0  0  2  0  0  0  0  0  0  0  0  0
    7.2913  -14.3098   23.4007 N   0  0  0  0  0  0  0  0  0  0  0  0
    8.5895  -15.5665   25.0193 C   0  0  0  0  0  0  0  0  0  0  0  0
    7.8867  -16.6001   25.0183 O   0  0  0  0  0  0  0  0  0  0  0  0
   14.8790  -16.7894   25.3552 N   0  0  0  0  0  0  0  0  0  0  0  0
   14.1770  -17.9011   24.8096 C   0  0  0  0  0  0  0  0  0  0  0  0
   14.6996  -18.6555   23.9666 O   0  0  0  0  0  0  0  0  0  0  0  0
   12.7793  -18.1249   25.2944 C   0  0  0  0  0  0  0  0  0  0  0  0
   12.0118  -16.8544   25.0896 C   0  0  0  0  0  0  0  0  0  0  0  0
   10.6046  -17.0031   25.5478 C   0  0  2  0  0  0  0  0  0  0  0  0
    9.9549  -15.6848   25.3639 N   0  0  0  0  0  0  0  0  0  0  0  0
   10.5564  -17.2973   26.9988 C   0  0  0  0  0  0  0  0  0  0  0  0
   10.1987  -16.4976   27.8915 O   0  0  0  0  0  0  0  0  0  0  0  0
   10.9336  -18.5697   27.4781 O   0  0  0  0  0  0  0  0  0  0  0  0
  2  1  1  0
  3  4  1  6
  3  2  1  0
  5  3  1  0
  6  5  2  0
  8  7  1  1
  8 10  1  0
  9  8  1  0
 11 10  1  1
 11 12  1  0
 12  5  1  0
 13 11  1  0
 14 13  2  0
 16 15  1  0
 16 18  1  0
 17 16  2  0
 20 19  1  1
 19 18  1  0
 20 21  1  0
 21 13  1  0
 22 24  1  0
 22 20  1  0
 23 22  2  0
M  END
$$$$
