SLQ.pdb
     RDKit          3D

 24 23  0  0  1  0  0  0  0  0999 V2000
    6.4854  -16.0208   19.0908 O   0  0  0  0  0  0  0  0  0  0  0  0
    7.3245  -15.7544   20.1720 C   0  0  0  0  0  0  0  0  0  0  0  0
    7.1539  -14.3225   20.6405 C   0  0  2  0  0  0  0  0  0  0  0  0
    7.6010  -13.3773   19.6548 N   0  0  0  0  0  0  0  0  0  0  0  0
    7.8885  -14.0854   21.8985 C   0  0  0  0  0  0  0  0  0  0  0  0
    9.0929  -13.7826   21.8842 O   0  0  0  0  0  0  0  0  0  0  0  0
    7.5084  -11.3576   25.7763 C   0  0  0  0  0  0  0  0  0  0  0  0
    6.4601  -12.4150   25.5822 C   0  0  2  0  0  0  0  0  0  0  0  0
    5.4611  -12.2475   26.7391 C   0  0  0  0  0  0  0  0  0  0  0  0
    7.0742  -13.7651   25.5938 C   0  0  0  0  0  0  0  0  0  0  0  0
    7.8738  -14.1846   24.4118 C   0  0  2  0  0  0  0  0  0  0  0  0
    7.2012  -14.2068   23.1500 N   0  0  0  0  0  0  0  0  0  0  0  0
    8.6472  -15.4128   24.6794 C   0  0  0  0  0  0  0  0  0  0  0  0
    8.0440  -16.5060   24.7366 O   0  0  0  0  0  0  0  0  0  0  0  0
   14.6000  -15.8851   23.6226 N   0  0  0  0  0  0  0  0  0  0  0  0
   14.4918  -17.1175   24.3268 C   0  0  0  0  0  0  0  0  0  0  0  0
   15.4755  -17.8638   24.4950 O   0  0  0  0  0  0  0  0  0  0  0  0
   13.1406  -17.4786   24.8582 C   0  0  0  0  0  0  0  0  0  0  0  0
   12.1977  -16.3662   24.5135 C   0  0  0  0  0  0  0  0  0  0  0  0
   10.8237  -16.6636   24.9991 C   0  0  2  0  0  0  0  0  0  0  0  0
   10.0467  -15.4086   24.8749 N   0  0  0  0  0  0  0  0  0  0  0  0
   10.8420  -17.0063   26.4400 C   0  0  0  0  0  0  0  0  0  0  0  0
   10.5604  -16.2268   27.3767 O   0  0  0  0  0  0  0  0  0  0  0  0
   11.1991  -18.3065   26.8560 O   0  0  0  0  0  0  0  0  0  0  0  0
  2  1  1  0
  3  4  1  6
  3  2  1  0
  5  3  1  0
  6  5  2  0
  8  7  1  1
  8 10  1  0
  9  8  1  0
 11 10  1  1
 11 12  1  0
 12  5  1  0
 13 11  1  0
 14 13  2  0
 16 15  1  0
 16 18  1  0
 17 16  2  0
 20 19  1  1
 19 18  1  0
 20 21  1  0
 21 13  1  0
 22 24  1  0
 22 20  1  0
 23 22  2  0
M  END
$$$$
