SLQ.pdb
     RDKit          3D

 24 23  0  0  1  0  0  0  0  0999 V2000
    8.5374  -17.9261   22.7181 O   0  0  0  0  0  0  0  0  0  0  0  0
    7.2318  -17.9044   22.2292 C   0  0  0  0  0  0  0  0  0  0  0  0
    6.9094  -16.5508   21.6269 C   0  0  2  0  0  0  0  0  0  0  0  0
    7.4220  -16.4209   20.2907 N   0  0  0  0  0  0  0  0  0  0  0  0
    7.4540  -15.4583   22.4565 C   0  0  0  0  0  0  0  0  0  0  0  0
    8.4941  -14.8660   22.1251 O   0  0  0  0  0  0  0  0  0  0  0  0
    7.8308  -11.5352   25.4668 C   0  0  0  0  0  0  0  0  0  0  0  0
    6.4267  -11.9802   25.7585 C   0  0  2  0  0  0  0  0  0  0  0  0
    6.1930  -11.7128   27.2545 C   0  0  0  0  0  0  0  0  0  0  0  0
    6.2593  -13.4186   25.4373 C   0  0  0  0  0  0  0  0  0  0  0  0
    7.2553  -14.0591   24.5372 C   0  0  2  0  0  0  0  0  0  0  0  0
    6.7722  -15.0785   23.6582 N   0  0  0  0  0  0  0  0  0  0  0  0
    8.4799  -14.4501   25.2624 C   0  0  0  0  0  0  0  0  0  0  0  0
    9.0574  -13.6004   25.9743 O   0  0  0  0  0  0  0  0  0  0  0  0
   10.8222  -20.5101   27.0211 N   0  0  0  0  0  0  0  0  0  0  0  0
   10.8601  -19.3199   27.8011 C   0  0  0  0  0  0  0  0  0  0  0  0
   10.5767  -19.3234   29.0146 O   0  0  0  0  0  0  0  0  0  0  0  0
   11.2564  -18.0603   27.0977 C   0  0  0  0  0  0  0  0  0  0  0  0
   10.0626  -17.5587   26.3436 C   0  0  0  0  0  0  0  0  0  0  0  0
   10.2371  -16.1327   25.9587 C   0  0  2  0  0  0  0  0  0  0  0  0
    9.0319  -15.7487   25.1878 N   0  0  0  0  0  0  0  0  0  0  0  0
   11.3902  -15.9767   25.0421 C   0  0  0  0  0  0  0  0  0  0  0  0
   12.5900  -15.9057   25.3883 O   0  0  0  0  0  0  0  0  0  0  0  0
   11.1837  -15.8953   23.6487 O   0  0  0  0  0  0  0  0  0  0  0  0
  2  1  1  0
  3  4  1  6
  3  2  1  0
  5  3  1  0
  6  5  2  0
  8  7  1  1
  8 10  1  0
  9  8  1  0
 11 10  1  1
 11 12  1  0
 12  5  1  0
 13 11  1  0
 14 13  2  0
 16 15  1  0
 16 18  1  0
 17 16  2  0
 20 19  1  6
 19 18  1  0
 20 21  1  0
 21 13  1  0
 22 24  1  0
 22 20  1  0
 23 22  2  0
M  END
$$$$
