SLQ.pdb
     RDKit          3D

 24 23  0  0  1  0  0  0  0  0999 V2000
    7.0425  -17.2389   22.4620 O   0  0  0  0  0  0  0  0  0  0  0  0
    6.8185  -16.2492   21.5059 C   0  0  0  0  0  0  0  0  0  0  0  0
    8.0449  -15.3717   21.3479 C   0  0  2  0  0  0  0  0  0  0  0  0
    9.0086  -15.9505   20.4527 N   0  0  0  0  0  0  0  0  0  0  0  0
    8.6911  -15.1244   22.6516 C   0  0  0  0  0  0  0  0  0  0  0  0
    9.8304  -15.5580   22.8891 O   0  0  0  0  0  0  0  0  0  0  0  0
    6.4740  -11.0305   25.5062 C   0  0  0  0  0  0  0  0  0  0  0  0
    6.7112  -12.4999   25.7043 C   0  0  2  0  0  0  0  0  0  0  0  0
    6.1836  -12.8350   27.1091 C   0  0  0  0  0  0  0  0  0  0  0  0
    8.1555  -12.8149   25.5835 C   0  0  0  0  0  0  0  0  0  0  0  0
    8.5442  -14.1006   24.9444 C   0  0  2  0  0  0  0  0  0  0  0  0
    7.9931  -14.3746   23.6536 N   0  0  0  0  0  0  0  0  0  0  0  0
    8.4265  -15.2366   25.8793 C   0  0  0  0  0  0  0  0  0  0  0  0
    9.0527  -15.1966   26.9602 O   0  0  0  0  0  0  0  0  0  0  0  0
    6.1202  -20.5397   24.4677 N   0  0  0  0  0  0  0  0  0  0  0  0
    7.1152  -21.0375   25.3558 C   0  0  0  0  0  0  0  0  0  0  0  0
    7.1314  -22.2295   25.7187 O   0  0  0  0  0  0  0  0  0  0  0  0
    8.1443  -20.0633   25.8360 C   0  0  0  0  0  0  0  0  0  0  0  0
    7.8166  -18.7224   25.2530 C   0  0  0  0  0  0  0  0  0  0  0  0
    7.8508  -17.6649   26.2984 C   0  0  2  0  0  0  0  0  0  0  0  0
    7.6333  -16.3737   25.6060 N   0  0  0  0  0  0  0  0  0  0  0  0
    9.1933  -17.5883   26.9197 C   0  0  0  0  0  0  0  0  0  0  0  0
    9.4229  -17.3955   28.1340 O   0  0  0  0  0  0  0  0  0  0  0  0
   10.3516  -17.7377   26.1278 O   0  0  0  0  0  0  0  0  0  0  0  0
  2  1  1  0
  3  4  1  6
  3  2  1  0
  5  3  1  0
  6  5  2  0
  8  7  1  1
  8 10  1  0
  9  8  1  0
 11 10  1  1
 11 12  1  0
 12  5  1  0
 13 11  1  0
 14 13  2  0
 16 15  1  0
 16 18  1  0
 17 16  2  0
 20 19  1  6
 19 18  1  0
 20 21  1  0
 21 13  1  0
 22 24  1  0
 22 20  1  0
 23 22  2  0
M  END
$$$$
