SLQ.pdb
     RDKit          3D

 24 23  0  0  1  0  0  0  0  0999 V2000
    6.1003  -18.0183   21.7390 O   0  0  0  0  0  0  0  0  0  0  0  0
    7.0326  -17.4839   22.6273 C   0  0  0  0  0  0  0  0  0  0  0  0
    7.3656  -16.0523   22.2550 C   0  0  2  0  0  0  0  0  0  0  0  0
    8.1526  -15.9778   21.0550 N   0  0  0  0  0  0  0  0  0  0  0  0
    8.0929  -15.3762   23.3469 C   0  0  0  0  0  0  0  0  0  0  0  0
    9.3306  -15.2765   23.3203 O   0  0  0  0  0  0  0  0  0  0  0  0
    7.2491  -11.2768   25.0264 C   0  0  0  0  0  0  0  0  0  0  0  0
    6.3773  -12.3084   25.6824 C   0  0  2  0  0  0  0  0  0  0  0  0
    5.4555  -11.5426   26.6457 C   0  0  0  0  0  0  0  0  0  0  0  0
    7.2042  -13.3037   26.4075 C   0  0  0  0  0  0  0  0  0  0  0  0
    7.9928  -14.2794   25.6082 C   0  0  2  0  0  0  0  0  0  0  0  0
    7.3596  -14.8292   24.4498 N   0  0  0  0  0  0  0  0  0  0  0  0
    8.6302  -15.3010   26.4616 C   0  0  0  0  0  0  0  0  0  0  0  0
    9.3288  -14.9294   27.4292 O   0  0  0  0  0  0  0  0  0  0  0  0
    6.6294  -20.9921   26.9657 N   0  0  0  0  0  0  0  0  0  0  0  0
    7.6804  -21.1106   27.9184 C   0  0  0  0  0  0  0  0  0  0  0  0
    7.8123  -22.1290   28.6243 O   0  0  0  0  0  0  0  0  0  0  0  0
    8.6233  -19.9547   28.0355 C   0  0  0  0  0  0  0  0  0  0  0  0
    8.1558  -18.8824   27.0990 C   0  0  0  0  0  0  0  0  0  0  0  0
    9.0525  -17.6972   27.1572 C   0  0  2  0  0  0  0  0  0  0  0  0
    8.4856  -16.6880   26.2330 N   0  0  0  0  0  0  0  0  0  0  0  0
   10.3981  -18.0346   26.6378 C   0  0  0  0  0  0  0  0  0  0  0  0
   11.2526  -18.7303   27.2295 O   0  0  0  0  0  0  0  0  0  0  0  0
   10.8107  -17.5611   25.3743 O   0  0  0  0  0  0  0  0  0  0  0  0
  2  1  1  0
  3  4  1  6
  3  2  1  0
  5  3  1  0
  6  5  2  0
  8  7  1  1
  8 10  1  0
  9  8  1  0
 11 10  1  1
 11 12  1  0
 12  5  1  0
 13 11  1  0
 14 13  2  0
 16 15  1  0
 16 18  1  0
 17 16  2  0
 20 19  1  6
 19 18  1  0
 20 21  1  0
 21 13  1  0
 22 24  1  0
 22 20  1  0
 23 22  2  0
M  END
$$$$
