YAP.pdb
     RDKit          3D

 25 26  0  0  1  0  0  0  0  0999 V2000
    8.5853  -13.8938   15.5205 O   0  0  0  0  0  0  0  0  0  0  0  0
    8.3746  -13.9195   16.8895 C   0  0  0  0  0  0  0  0  0  0  0  0
    9.1138  -14.8042   17.6866 C   0  0  0  0  0  0  0  0  0  0  0  0
    8.8982  -14.8254   19.0483 C   0  0  0  0  0  0  0  0  0  0  0  0
    7.9634  -13.9875   19.6611 C   0  0  0  0  0  0  0  0  0  0  0  0
    7.7213  -14.0222   21.1212 C   0  0  0  0  0  0  0  0  0  0  0  0
    7.3134  -15.4266   21.5749 C   0  0  2  0  0  0  0  0  0  0  0  0
    6.0207  -15.7641   20.9699 N   0  0  0  0  0  0  0  0  0  0  0  0
    7.1922  -15.4688   23.0568 C   0  0  0  0  0  0  0  0  0  0  0  0
    6.5074  -14.5777   23.5987 O   0  0  0  0  0  0  0  0  0  0  0  0
    7.2470  -13.1208   18.8520 C   0  0  0  0  0  0  0  0  0  0  0  0
    7.4514  -13.0907   17.4875 C   0  0  0  0  0  0  0  0  0  0  0  0
    7.3585  -17.7166   25.8594 C   0  0  0  0  0  0  0  0  0  0  0  0
    7.8700  -16.3924   25.2589 C   0  0  2  0  0  0  0  0  0  0  0  0
    7.8191  -16.4740   23.8006 N   0  0  0  0  0  0  0  0  0  0  0  0
    9.2363  -16.0980   25.7563 C   0  0  0  0  0  0  0  0  0  0  0  0
   10.2666  -16.4925   25.1013 O   0  0  0  0  0  0  0  0  0  0  0  0
    9.4676  -15.3877   26.9427 N   0  0  0  0  0  0  0  0  0  0  0  0
    8.4984  -14.6625   27.7418 C   0  0  0  0  0  0  0  0  0  0  0  0
    9.2860  -13.5729   28.4340 C   0  0  0  0  0  0  0  0  0  0  0  0
   10.6897  -13.7415   27.9111 C   0  0  0  0  0  0  0  0  0  0  0  0
   10.7678  -15.2243   27.6084 C   0  0  1  0  0  0  0  0  0  0  0  0
   10.7412  -15.9117   28.9401 C   0  0  0  0  0  0  0  0  0  0  0  0
   11.6827  -15.8976   29.7598 O   0  0  0  0  0  0  0  0  0  0  0  0
    9.5826  -16.6071   29.2688 O   0  0  0  0  0  0  0  0  0  0  0  0
  2  1  1  0
  2 12  2  0
  3  2  1  0
  4  3  2  0
  4  5  1  0
  5 11  2  0
  6  5  1  0
  6  7  1  0
  7  8  1  6
  9 15  1  0
  9  7  1  0
 10  9  2  0
 11 12  1  0
 14 13  1  1
 14 16  1  0
 14 15  1  0
 16 17  2  0
 18 22  1  0
 18 16  1  0
 19 18  1  0
 20 19  1  0
 20 21  1  0
 21 22  1  0
 22 23  1  1
 23 24  2  0
 23 25  1  0
M  END
$$$$
