YAP.pdb
     RDKit          3D

 25 26  0  0  1  0  0  0  0  0999 V2000
   11.3234  -14.4372   30.6995 O   0  0  0  0  0  0  0  0  0  0  0  0
   10.7292  -15.1952   29.7037 C   0  0  0  0  0  0  0  0  0  0  0  0
   10.6072  -16.5816   29.8697 C   0  0  0  0  0  0  0  0  0  0  0  0
   10.0159  -17.3302   28.8742 C   0  0  0  0  0  0  0  0  0  0  0  0
    9.5307  -16.7472   27.7011 C   0  0  0  0  0  0  0  0  0  0  0  0
    8.9104  -17.5539   26.6260 C   0  0  0  0  0  0  0  0  0  0  0  0
    7.3997  -17.3123   26.5630 C   0  0  2  0  0  0  0  0  0  0  0  0
    6.7133  -18.6076   26.5190 N   0  0  0  0  0  0  0  0  0  0  0  0
    7.0586  -16.5300   25.3448 C   0  0  0  0  0  0  0  0  0  0  0  0
    6.7139  -17.1724   24.3322 O   0  0  0  0  0  0  0  0  0  0  0  0
    9.6614  -15.3751   27.5618 C   0  0  0  0  0  0  0  0  0  0  0  0
   10.2529  -14.6141   28.5495 C   0  0  0  0  0  0  0  0  0  0  0  0
    7.1966  -12.8823   24.3858 C   0  0  0  0  0  0  0  0  0  0  0  0
    7.0055  -14.3844   24.0977 C   0  0  2  0  0  0  0  0  0  0  0  0
    7.1194  -15.1325   25.3480 N   0  0  0  0  0  0  0  0  0  0  0  0
    7.9849  -14.8399   23.0808 C   0  0  0  0  0  0  0  0  0  0  0  0
    8.8526  -15.7397   23.3700 O   0  0  0  0  0  0  0  0  0  0  0  0
    8.0121  -14.3221   21.7782 N   0  0  0  0  0  0  0  0  0  0  0  0
    7.3421  -13.1338   21.2855 C   0  0  0  0  0  0  0  0  0  0  0  0
    7.1043  -13.3899   19.8142 C   0  0  0  0  0  0  0  0  0  0  0  0
    7.6347  -14.7830   19.5905 C   0  0  0  0  0  0  0  0  0  0  0  0
    8.7262  -14.9069   20.6344 C   0  0  1  0  0  0  0  0  0  0  0  0
    9.8163  -13.9775   20.1932 C   0  0  0  0  0  0  0  0  0  0  0  0
    9.8942  -12.7757   20.5217 O   0  0  0  0  0  0  0  0  0  0  0  0
   10.7987  -14.5057   19.3625 O   0  0  0  0  0  0  0  0  0  0  0  0
  2  1  1  0
  2 12  2  0
  3  2  1  0
  4  3  2  0
  4  5  1  0
  5 11  2  0
  6  5  1  0
  6  7  1  0
  7  8  1  6
  9 15  1  0
  9  7  1  0
 10  9  2  0
 11 12  1  0
 14 13  1  1
 14 16  1  0
 14 15  1  0
 16 17  2  0
 18 22  1  0
 18 16  1  0
 19 18  1  0
 20 19  1  0
 20 21  1  0
 21 22  1  0
 22 23  1  6
 23 24  2  0
 23 25  1  0
M  END
$$$$
