YAP.pdb
     RDKit          3D

 25 26  0  0  1  0  0  0  0  0999 V2000
    7.7244  -22.8514   28.9937 O   0  0  0  0  0  0  0  0  0  0  0  0
    8.0951  -21.6518   28.4080 C   0  0  0  0  0  0  0  0  0  0  0  0
    9.3924  -21.1587   28.6033 C   0  0  0  0  0  0  0  0  0  0  0  0
    9.7544  -19.9637   28.0185 C   0  0  0  0  0  0  0  0  0  0  0  0
    8.8651  -19.2268   27.2325 C   0  0  0  0  0  0  0  0  0  0  0  0
    9.2497  -17.9360   26.6182 C   0  0  0  0  0  0  0  0  0  0  0  0
    9.2612  -18.0389   25.0905 C   0  0  2  0  0  0  0  0  0  0  0  0
   10.4806  -18.7374   24.6710 N   0  0  0  0  0  0  0  0  0  0  0  0
    9.2374  -16.6794   24.4875 C   0  0  0  0  0  0  0  0  0  0  0  0
   10.1870  -15.9175   24.7607 O   0  0  0  0  0  0  0  0  0  0  0  0
    7.5895  -19.7363   27.0531 C   0  0  0  0  0  0  0  0  0  0  0  0
    7.2134  -20.9303   27.6342 C   0  0  0  0  0  0  0  0  0  0  0  0
    6.7142  -14.7232   22.4746 C   0  0  0  0  0  0  0  0  0  0  0  0
    7.8340  -14.8733   23.5231 C   0  0  2  0  0  0  0  0  0  0  0  0
    8.1920  -16.2849   23.6459 N   0  0  0  0  0  0  0  0  0  0  0  0
    7.4056  -14.2891   24.8176 C   0  0  0  0  0  0  0  0  0  0  0  0
    7.2782  -15.0313   25.8564 O   0  0  0  0  0  0  0  0  0  0  0  0
    7.1243  -12.9240   24.9700 N   0  0  0  0  0  0  0  0  0  0  0  0
    7.0829  -11.9093   23.9345 C   0  0  0  0  0  0  0  0  0  0  0  0
    7.4318  -10.6131   24.6307 C   0  0  0  0  0  0  0  0  0  0  0  0
    7.7052  -11.0203   26.0561 C   0  0  0  0  0  0  0  0  0  0  0  0
    6.8284  -12.2428   26.2383 C   0  0  1  0  0  0  0  0  0  0  0  0
    5.4178  -11.7361   26.2202 C   0  0  0  0  0  0  0  0  0  0  0  0
    4.6698  -11.7684   25.2213 O   0  0  0  0  0  0  0  0  0  0  0  0
    4.9251  -11.1971   27.4038 O   0  0  0  0  0  0  0  0  0  0  0  0
  2  1  1  0
  2 12  2  0
  3  2  1  0
  4  3  2  0
  4  5  1  0
  5 11  2  0
  6  5  1  0
  6  7  1  0
  7  8  1  1
  9 15  1  0
  9  7  1  0
 10  9  2  0
 11 12  1  0
 14 13  1  6
 14 16  1  0
 14 15  1  0
 16 17  2  0
 18 22  1  0
 18 16  1  0
 19 18  1  0
 20 19  1  0
 20 21  1  0
 21 22  1  0
 22 23  1  6
 23 24  2  0
 23 25  1  0
M  END
$$$$
