YAP.pdb
     RDKit          3D

 25 26  0  0  1  0  0  0  0  0999 V2000
   11.4209  -17.5668   30.9934 O   0  0  0  0  0  0  0  0  0  0  0  0
   11.7014  -17.2357   29.6777 C   0  0  0  0  0  0  0  0  0  0  0  0
   11.1400  -16.0784   29.1210 C   0  0  0  0  0  0  0  0  0  0  0  0
   11.4224  -15.7554   27.8106 C   0  0  0  0  0  0  0  0  0  0  0  0
   12.2557  -16.5481   27.0178 C   0  0  0  0  0  0  0  0  0  0  0  0
   12.5455  -16.2090   25.6061 C   0  0  0  0  0  0  0  0  0  0  0  0
   11.7274  -17.0856   24.6538 C   0  0  2  0  0  0  0  0  0  0  0  0
   12.5976  -17.5456   23.5665 N   0  0  0  0  0  0  0  0  0  0  0  0
   10.5967  -16.3040   24.0856 C   0  0  0  0  0  0  0  0  0  0  0  0
   10.8810  -15.2653   23.4555 O   0  0  0  0  0  0  0  0  0  0  0  0
   12.7997  -17.6856   27.5916 C   0  0  0  0  0  0  0  0  0  0  0  0
   12.5239  -18.0216   28.9014 C   0  0  0  0  0  0  0  0  0  0  0  0
    6.8516  -16.6143   23.9172 C   0  0  0  0  0  0  0  0  0  0  0  0
    8.1653  -15.8120   23.9966 C   0  0  2  0  0  0  0  0  0  0  0  0
    9.2743  -16.7289   24.2518 N   0  0  0  0  0  0  0  0  0  0  0  0
    8.0598  -14.7575   25.0347 C   0  0  0  0  0  0  0  0  0  0  0  0
    8.6978  -14.8683   26.1424 O   0  0  0  0  0  0  0  0  0  0  0  0
    7.2746  -13.6088   24.8625 N   0  0  0  0  0  0  0  0  0  0  0  0
    6.4783  -13.2481   23.7051 C   0  0  0  0  0  0  0  0  0  0  0  0
    6.4237  -11.7369   23.7126 C   0  0  0  0  0  0  0  0  0  0  0  0
    7.2718  -11.3416   24.8944 C   0  0  0  0  0  0  0  0  0  0  0  0
    7.1187  -12.5189   25.8362 C   0  0  1  0  0  0  0  0  0  0  0  0
    5.6995  -12.4721   26.3162 C   0  0  0  0  0  0  0  0  0  0  0  0
    5.2879  -11.7257   27.2283 O   0  0  0  0  0  0  0  0  0  0  0  0
    4.7936  -13.3235   25.6929 O   0  0  0  0  0  0  0  0  0  0  0  0
  2  1  1  0
  2 12  2  0
  3  2  1  0
  4  3  2  0
  4  5  1  0
  5 11  2  0
  6  5  1  0
  6  7  1  0
  7  8  1  6
  9 15  1  0
  9  7  1  0
 10  9  2  0
 11 12  1  0
 14 13  1  1
 14 16  1  0
 14 15  1  0
 16 17  2  0
 18 22  1  0
 18 16  1  0
 19 18  1  0
 20 19  1  0
 20 21  1  0
 21 22  1  0
 22 23  1  6
 23 24  2  0
 23 25  1  0
M  END
$$$$
