YAP.pdb
     RDKit          3D

 25 26  0  0  1  0  0  0  0  0999 V2000
    5.6568  -10.2912   27.4007 O   0  0  0  0  0  0  0  0  0  0  0  0
    6.1668  -11.5338   27.0616 C   0  0  0  0  0  0  0  0  0  0  0  0
    5.7176  -12.1714   25.8971 C   0  0  0  0  0  0  0  0  0  0  0  0
    6.2285  -13.4086   25.5661 C   0  0  0  0  0  0  0  0  0  0  0  0
    7.1855  -14.0482   26.3576 C   0  0  0  0  0  0  0  0  0  0  0  0
    7.7216  -15.3836   26.0099 C   0  0  0  0  0  0  0  0  0  0  0  0
    6.7305  -16.1615   25.1397 C   0  0  2  0  0  0  0  0  0  0  0  0
    6.3848  -17.4147   25.8186 N   0  0  0  0  0  0  0  0  0  0  0  0
    7.3419  -16.4668   23.8187 C   0  0  0  0  0  0  0  0  0  0  0  0
    7.8799  -17.5844   23.6837 O   0  0  0  0  0  0  0  0  0  0  0  0
    7.6147  -13.3966   27.5023 C   0  0  0  0  0  0  0  0  0  0  0  0
    7.1102  -12.1589   27.8464 C   0  0  0  0  0  0  0  0  0  0  0  0
    8.0209  -14.5045   20.6742 C   0  0  0  0  0  0  0  0  0  0  0  0
    8.0315  -15.7838   21.5340 C   0  0  2  0  0  0  0  0  0  0  0  0
    7.3037  -15.5344   22.7766 N   0  0  0  0  0  0  0  0  0  0  0  0
    9.4265  -16.2241   21.7803 C   0  0  0  0  0  0  0  0  0  0  0  0
   10.0031  -15.9658   22.8970 O   0  0  0  0  0  0  0  0  0  0  0  0
   10.1713  -16.9312   20.8258 N   0  0  0  0  0  0  0  0  0  0  0  0
    9.8055  -17.2127   19.4508 C   0  0  0  0  0  0  0  0  0  0  0  0
   10.5246  -18.4959   19.1005 C   0  0  0  0  0  0  0  0  0  0  0  0
   11.2304  -18.8846   20.3744 C   0  0  0  0  0  0  0  0  0  0  0  0
   11.4859  -17.5505   21.0464 C   0  0  1  0  0  0  0  0  0  0  0  0
   12.5147  -16.8617   20.2016 C   0  0  0  0  0  0  0  0  0  0  0  0
   13.7439  -16.8995   20.4165 O   0  0  0  0  0  0  0  0  0  0  0  0
   12.0520  -16.1363   19.1090 O   0  0  0  0  0  0  0  0  0  0  0  0
  2  1  1  0
  2 12  2  0
  3  2  1  0
  4  3  2  0
  4  5  1  0
  5 11  2  0
  6  5  1  0
  6  7  1  0
  7  8  1  1
  9 15  1  0
  9  7  1  0
 10  9  2  0
 11 12  1  0
 14 13  1  6
 14 16  1  0
 14 15  1  0
 16 17  2  0
 18 22  1  0
 18 16  1  0
 19 18  1  0
 20 19  1  0
 20 21  1  0
 21 22  1  0
 22 23  1  6
 23 24  2  0
 23 25  1  0
M  END
$$$$
