YAP.pdb
     RDKit          3D

 25 26  0  0  1  0  0  0  0  0999 V2000
   10.3295  -14.5113   30.5770 O   0  0  0  0  0  0  0  0  0  0  0  0
   10.0375  -14.7202   29.2389 C   0  0  0  0  0  0  0  0  0  0  0  0
   10.2865  -15.9740   28.6643 C   0  0  0  0  0  0  0  0  0  0  0  0
    9.9946  -16.1747   27.3317 C   0  0  0  0  0  0  0  0  0  0  0  0
    9.4542  -15.1635   26.5337 C   0  0  0  0  0  0  0  0  0  0  0  0
    9.1560  -15.3753   25.0991 C   0  0  0  0  0  0  0  0  0  0  0  0
    7.6878  -15.0656   24.7940 C   0  0  2  0  0  0  0  0  0  0  0  0
    6.8448  -16.0738   25.4452 N   0  0  0  0  0  0  0  0  0  0  0  0
    7.4540  -15.0990   23.3255 C   0  0  0  0  0  0  0  0  0  0  0  0
    7.1487  -16.1987   22.8213 O   0  0  0  0  0  0  0  0  0  0  0  0
    9.2154  -13.9340   27.1255 C   0  0  0  0  0  0  0  0  0  0  0  0
    9.5047  -13.7189   28.4577 C   0  0  0  0  0  0  0  0  0  0  0  0
    7.9580  -12.6384   20.5151 C   0  0  0  0  0  0  0  0  0  0  0  0
    7.5964  -14.0204   21.0943 C   0  0  2  0  0  0  0  0  0  0  0  0
    7.5685  -13.9382   22.5532 N   0  0  0  0  0  0  0  0  0  0  0  0
    8.5526  -15.0455   20.6089 C   0  0  0  0  0  0  0  0  0  0  0  0
    9.3542  -15.6263   21.4252 O   0  0  0  0  0  0  0  0  0  0  0  0
    8.6276  -15.4255   19.2615 N   0  0  0  0  0  0  0  0  0  0  0  0
    7.8877  -14.8703   18.1442 C   0  0  0  0  0  0  0  0  0  0  0  0
    7.7846  -15.9925   17.1359 C   0  0  0  0  0  0  0  0  0  0  0  0
    8.4580  -17.1599   17.8109 C   0  0  0  0  0  0  0  0  0  0  0  0
    9.4760  -16.4938   18.7146 C   0  0  1  0  0  0  0  0  0  0  0  0
   10.5041  -15.9010   17.7990 C   0  0  0  0  0  0  0  0  0  0  0  0
   10.3877  -14.7963   17.2292 O   0  0  0  0  0  0  0  0  0  0  0  0
   11.6590  -16.6444   17.5806 O   0  0  0  0  0  0  0  0  0  0  0  0
  2  1  1  0
  2 12  2  0
  3  2  1  0
  4  3  2  0
  4  5  1  0
  5 11  2  0
  6  5  1  0
  6  7  1  0
  7  8  1  1
  9 15  1  0
  9  7  1  0
 10  9  2  0
 11 12  1  0
 14 13  1  6
 14 16  1  0
 14 15  1  0
 16 17  2  0
 18 22  1  0
 18 16  1  0
 19 18  1  0
 20 19  1  0
 20 21  1  0
 21 22  1  0
 22 23  1  6
 23 24  2  0
 23 25  1  0
M  END
$$$$
