YAP.pdb
     RDKit          3D

 25 26  0  0  1  0  0  0  0  0999 V2000
   11.2667  -14.6226   31.1556 O   0  0  0  0  0  0  0  0  0  0  0  0
   10.7180  -15.3197   30.0915 C   0  0  0  0  0  0  0  0  0  0  0  0
   10.3012  -14.6226   28.9493 C   0  0  0  0  0  0  0  0  0  0  0  0
    9.7549  -15.3225   27.8944 C   0  0  0  0  0  0  0  0  0  0  0  0
    9.6050  -16.7110   27.9280 C   0  0  0  0  0  0  0  0  0  0  0  0
    9.0037  -17.4597   26.8013 C   0  0  0  0  0  0  0  0  0  0  0  0
    7.4928  -17.2211   26.7302 C   0  0  2  0  0  0  0  0  0  0  0  0
    6.8050  -18.5155   26.7811 N   0  0  0  0  0  0  0  0  0  0  0  0
    7.1454  -16.5258   25.4621 C   0  0  0  0  0  0  0  0  0  0  0  0
    6.8781  -17.2400   24.4746 O   0  0  0  0  0  0  0  0  0  0  0  0
   10.0262  -17.3771   29.0672 C   0  0  0  0  0  0  0  0  0  0  0  0
   10.5730  -16.6887   30.1311 C   0  0  0  0  0  0  0  0  0  0  0  0
    7.2306  -12.9372   24.3077 C   0  0  0  0  0  0  0  0  0  0  0  0
    7.0485  -14.4535   24.0990 C   0  0  2  0  0  0  0  0  0  0  0  0
    7.1167  -15.1289   25.3932 N   0  0  0  0  0  0  0  0  0  0  0  0
    8.0636  -14.9651   23.1458 C   0  0  0  0  0  0  0  0  0  0  0  0
    9.0028  -15.7406   23.5490 O   0  0  0  0  0  0  0  0  0  0  0  0
    8.0490  -14.6351   21.7832 N   0  0  0  0  0  0  0  0  0  0  0  0
    7.3420  -13.5404   21.1466 C   0  0  0  0  0  0  0  0  0  0  0  0
    7.0755  -14.0051   19.7324 C   0  0  0  0  0  0  0  0  0  0  0  0
    7.6308  -15.4059   19.6922 C   0  0  0  0  0  0  0  0  0  0  0  0
    8.7488  -15.3618   20.7143 C   0  0  1  0  0  0  0  0  0  0  0  0
    9.8078  -14.4838   20.1189 C   0  0  0  0  0  0  0  0  0  0  0  0
   10.6004  -14.8431   19.2238 O   0  0  0  0  0  0  0  0  0  0  0  0
    9.8997  -13.1850   20.6076 O   0  0  0  0  0  0  0  0  0  0  0  0
  2  1  1  0
  2 12  2  0
  3  2  1  0
  4  3  2  0
  4  5  1  0
  5 11  2  0
  6  5  1  0
  6  7  1  0
  7  8  1  6
  9 15  1  0
  9  7  1  0
 10  9  2  0
 11 12  1  0
 14 13  1  1
 14 16  1  0
 14 15  1  0
 16 17  2  0
 18 22  1  0
 18 16  1  0
 19 18  1  0
 20 19  1  0
 20 21  1  0
 21 22  1  0
 22 23  1  6
 23 24  2  0
 23 25  1  0
M  END
$$$$
