YAP.pdb
     RDKit          3D

 25 26  0  0  1  0  0  0  0  0999 V2000
    6.8889  -27.0179   21.5094 O   0  0  0  0  0  0  0  0  0  0  0  0
    6.9546  -25.6619   21.2332 C   0  0  0  0  0  0  0  0  0  0  0  0
    7.0722  -25.2317   19.9045 C   0  0  0  0  0  0  0  0  0  0  0  0
    7.1382  -23.8807   19.6367 C   0  0  0  0  0  0  0  0  0  0  0  0
    7.0896  -22.9233   20.6528 C   0  0  0  0  0  0  0  0  0  0  0  0
    7.1767  -21.4736   20.3656 C   0  0  0  0  0  0  0  0  0  0  0  0
    5.8135  -20.7984   20.5400 C   0  0  2  0  0  0  0  0  0  0  0  0
    5.0666  -20.9050   19.2824 N   0  0  0  0  0  0  0  0  0  0  0  0
    5.9957  -19.3636   20.8871 C   0  0  0  0  0  0  0  0  0  0  0  0
    6.3015  -18.5867   19.9599 O   0  0  0  0  0  0  0  0  0  0  0  0
    6.9713  -23.3738   21.9574 C   0  0  0  0  0  0  0  0  0  0  0  0
    6.9060  -24.7231   22.2396 C   0  0  0  0  0  0  0  0  0  0  0  0
    5.8680  -17.3196   24.0578 C   0  0  0  0  0  0  0  0  0  0  0  0
    6.0654  -17.5143   22.5415 C   0  0  2  0  0  0  0  0  0  0  0  0
    5.8227  -18.9145   22.2006 N   0  0  0  0  0  0  0  0  0  0  0  0
    7.4215  -17.0666   22.1397 C   0  0  0  0  0  0  0  0  0  0  0  0
    8.2798  -17.9097   21.6939 O   0  0  0  0  0  0  0  0  0  0  0  0
    7.8266  -15.7271   22.2238 N   0  0  0  0  0  0  0  0  0  0  0  0
    7.0979  -14.6186   22.8103 C   0  0  0  0  0  0  0  0  0  0  0  0
    7.5754  -13.3897   22.0697 C   0  0  0  0  0  0  0  0  0  0  0  0
    8.5401  -13.9272   21.0437 C   0  0  0  0  0  0  0  0  0  0  0  0
    9.0870  -15.1751   21.7070 C   0  0  1  0  0  0  0  0  0  0  0  0
    9.9299  -14.6913   22.8482 C   0  0  0  0  0  0  0  0  0  0  0  0
   11.0852  -14.2340   22.7272 O   0  0  0  0  0  0  0  0  0  0  0  0
    9.3723  -14.7636   24.1202 O   0  0  0  0  0  0  0  0  0  0  0  0
  2  1  1  0
  2 12  2  0
  3  2  1  0
  4  3  2  0
  4  5  1  0
  5 11  2  0
  6  5  1  0
  6  7  1  0
  7  8  1  6
  9 15  1  0
  9  7  1  0
 10  9  2  0
 11 12  1  0
 14 13  1  1
 14 16  1  0
 14 15  1  0
 16 17  2  0
 18 22  1  0
 18 16  1  0
 19 18  1  0
 20 19  1  0
 20 21  1  0
 21 22  1  0
 22 23  1  1
 23 24  2  0
 23 25  1  0
M  END
$$$$
