YAP.pdb
     RDKit          3D

 25 26  0  0  1  0  0  0  0  0999 V2000
    8.0363  -13.8782   15.2378 O   0  0  0  0  0  0  0  0  0  0  0  0
    7.9912  -13.8148   16.6210 C   0  0  0  0  0  0  0  0  0  0  0  0
    6.7611  -13.9475   17.2796 C   0  0  0  0  0  0  0  0  0  0  0  0
    6.7232  -13.8823   18.6564 C   0  0  0  0  0  0  0  0  0  0  0  0
    7.8778  -13.6892   19.4186 C   0  0  0  0  0  0  0  0  0  0  0  0
    7.8338  -13.6033   20.8959 C   0  0  0  0  0  0  0  0  0  0  0  0
    8.7329  -14.6667   21.5327 C   0  0  2  0  0  0  0  0  0  0  0  0
    8.3463  -15.9848   21.0187 N   0  0  0  0  0  0  0  0  0  0  0  0
    8.5769  -14.6473   23.0118 C   0  0  0  0  0  0  0  0  0  0  0  0
    8.9725  -13.6285   23.6138 O   0  0  0  0  0  0  0  0  0  0  0  0
    9.0813  -13.5628   18.7444 C   0  0  0  0  0  0  0  0  0  0  0  0
    9.1333  -13.6242   17.3666 C   0  0  0  0  0  0  0  0  0  0  0  0
    6.9735  -16.8573   25.6015 C   0  0  0  0  0  0  0  0  0  0  0  0
    7.9212  -15.7298   25.1472 C   0  0  2  0  0  0  0  0  0  0  0  0
    8.0035  -15.7292   23.6881 N   0  0  0  0  0  0  0  0  0  0  0  0
    9.2516  -15.8911   25.7835 C   0  0  0  0  0  0  0  0  0  0  0  0
   10.1846  -16.5382   25.1862 O   0  0  0  0  0  0  0  0  0  0  0  0
    9.5521  -15.3551   27.0437 N   0  0  0  0  0  0  0  0  0  0  0  0
    8.6980  -14.5358   27.8821 C   0  0  0  0  0  0  0  0  0  0  0  0
    9.6411  -13.6900   28.7079 C   0  0  0  0  0  0  0  0  0  0  0  0
   11.0124  -14.0760   28.2153 C   0  0  0  0  0  0  0  0  0  0  0  0
   10.8241  -15.5103   27.7637 C   0  0  1  0  0  0  0  0  0  0  0  0
   10.6001  -16.3032   29.0158 C   0  0  0  0  0  0  0  0  0  0  0  0
    9.4773  -16.6365   29.4479 O   0  0  0  0  0  0  0  0  0  0  0  0
   11.7294  -16.6852   29.7319 O   0  0  0  0  0  0  0  0  0  0  0  0
  2  1  1  0
  2 12  2  0
  3  2  1  0
  4  3  2  0
  4  5  1  0
  5 11  2  0
  6  5  1  0
  6  7  1  0
  7  8  1  6
  9 15  1  0
  9  7  1  0
 10  9  2  0
 11 12  1  0
 14 13  1  6
 14 16  1  0
 14 15  1  0
 16 17  2  0
 18 22  1  0
 18 16  1  0
 19 18  1  0
 20 19  1  0
 20 21  1  0
 21 22  1  0
 22 23  1  1
 23 24  2  0
 23 25  1  0
M  END
$$$$
