YAP.pdb
     RDKit          3D

 25 26  0  0  1  0  0  0  0  0999 V2000
    8.9406  -13.4607   15.6617 O   0  0  0  0  0  0  0  0  0  0  0  0
    8.5685  -13.6474   16.9831 C   0  0  0  0  0  0  0  0  0  0  0  0
    7.4245  -13.0056   17.4767 C   0  0  0  0  0  0  0  0  0  0  0  0
    7.0605  -13.1949   18.7931 C   0  0  0  0  0  0  0  0  0  0  0  0
    7.7987  -14.0114   19.6533 C   0  0  0  0  0  0  0  0  0  0  0  0
    7.4160  -14.2013   21.0708 C   0  0  0  0  0  0  0  0  0  0  0  0
    7.1771  -15.6819   21.3794 C   0  0  2  0  0  0  0  0  0  0  0  0
    5.9845  -16.1315   20.6539 N   0  0  0  0  0  0  0  0  0  0  0  0
    6.9685  -15.8713   22.8398 C   0  0  0  0  0  0  0  0  0  0  0  0
    5.8747  -15.5012   23.3126 O   0  0  0  0  0  0  0  0  0  0  0  0
    8.9240  -14.6360   19.1410 C   0  0  0  0  0  0  0  0  0  0  0  0
    9.3007  -14.4538   17.8259 C   0  0  0  0  0  0  0  0  0  0  0  0
    7.1965  -17.4814   25.7220 C   0  0  0  0  0  0  0  0  0  0  0  0
    7.9312  -16.2824   25.0906 C   0  0  2  0  0  0  0  0  0  0  0  0
    7.9619  -16.4472   23.6388 N   0  0  0  0  0  0  0  0  0  0  0  0
    9.2912  -16.1525   25.6688 C   0  0  0  0  0  0  0  0  0  0  0  0
   10.3124  -16.6071   25.0390 O   0  0  0  0  0  0  0  0  0  0  0  0
    9.5261  -15.5383   26.9070 N   0  0  0  0  0  0  0  0  0  0  0  0
    8.5479  -14.9477   27.8003 C   0  0  0  0  0  0  0  0  0  0  0  0
    9.2973  -13.8785   28.5632 C   0  0  0  0  0  0  0  0  0  0  0  0
   10.6875  -13.9141   27.9815 C   0  0  0  0  0  0  0  0  0  0  0  0
   10.8392  -15.3565   27.5420 C   0  0  1  0  0  0  0  0  0  0  0  0
   10.9028  -16.1605   28.8054 C   0  0  0  0  0  0  0  0  0  0  0  0
    9.9316  -16.7633   29.3073 O   0  0  0  0  0  0  0  0  0  0  0  0
   12.1337  -16.2292   29.4490 O   0  0  0  0  0  0  0  0  0  0  0  0
  2  1  1  0
  2 12  2  0
  3  2  1  0
  4  3  2  0
  4  5  1  0
  5 11  2  0
  6  5  1  0
  6  7  1  0
  7  8  1  6
  9 15  1  0
  9  7  1  0
 10  9  2  0
 11 12  1  0
 14 13  1  1
 14 16  1  0
 14 15  1  0
 16 17  2  0
 18 22  1  0
 18 16  1  0
 19 18  1  0
 20 19  1  0
 20 21  1  0
 21 22  1  0
 22 23  1  1
 23 24  2  0
 23 25  1  0
M  END
$$$$
