MRF.pdb
     RDKit          3D

 31 31  0  0  1  0  0  0  0  0999 V2000
    2.8145  -18.2428   19.7854 C   0  0  0  0  0  0  0  0  0  0  0  0
    2.8000  -19.7365   20.7761 S   0  0  0  0  0  0  0  0  0  0  0  0
    3.9511  -19.7248   22.1386 C   0  0  0  0  0  0  0  0  0  0  0  0
    5.2736  -19.1022   21.8650 C   0  0  0  0  0  0  0  0  0  0  0  0
    6.2170  -19.0697   23.0187 C   0  0  2  0  0  0  0  0  0  0  0  0
    5.6044  -18.6769   24.2557 N   0  0  0  0  0  0  0  0  0  0  0  0
    7.4041  -18.2144   22.7769 C   0  0  0  0  0  0  0  0  0  0  0  0
    8.4753  -18.7058   22.3297 O   0  0  0  0  0  0  0  0  0  0  0  0
    8.2228  -12.0560   18.5867 N   0  0  0  0  0  0  0  0  0  0  0  0
    7.8284  -13.3022   18.0466 C   0  0  0  0  0  0  0  0  0  0  0  0
    8.2371  -13.7377   16.9231 N   0  0  0  0  0  0  0  0  0  0  0  0
    6.9262  -14.1099   18.7974 N   0  0  0  0  0  0  0  0  0  0  0  0
    6.8395  -14.0523   20.2397 C   0  0  0  0  0  0  0  0  0  0  0  0
    8.1343  -14.5260   20.8387 C   0  0  0  0  0  0  0  0  0  0  0  0
    8.1268  -14.6312   22.3322 C   0  0  0  0  0  0  0  0  0  0  0  0
    8.5337  -15.9510   22.8931 C   0  0  2  0  0  0  0  0  0  0  0  0
    7.3937  -16.8298   23.0317 N   0  0  0  0  0  0  0  0  0  0  0  0
    9.2459  -15.7251   24.1457 C   0  0  0  0  0  0  0  0  0  0  0  0
   10.3024  -15.0696   24.1649 O   0  0  0  0  0  0  0  0  0  0  0  0
    8.0012  -14.6553   16.5387 N   0  0  0  0  0  0  0  0  0  0  0  0
    8.7391  -16.2507   25.3503 C   0  0  1  0  0  0  0  0  0  0  0  0
    9.4872  -16.0523   26.5834 C   0  0  0  0  0  0  0  0  0  0  0  0
    8.5691  -15.3473   27.5398 C   0  0  0  0  0  0  0  0  0  0  0  0
    8.0418  -14.0620   27.0803 C   0  0  0  0  0  0  0  0  0  0  0  0
    6.7721  -13.9560   26.5644 C   0  0  0  0  0  0  0  0  0  0  0  0
    6.3305  -12.7244   26.1491 C   0  0  0  0  0  0  0  0  0  0  0  0
    7.0922  -11.5811   26.2201 C   0  0  0  0  0  0  0  0  0  0  0  0
    8.3606  -11.7219   26.7424 C   0  0  0  0  0  0  0  0  0  0  0  0
    8.8331  -12.9423   27.1676 C   0  0  0  0  0  0  0  0  0  0  0  0
    9.9880  -17.3056   27.1453 O   0  0  0  0  0  0  0  0  0  0  0  0
   10.6364  -17.4016   28.2291 O   0  0  0  0  0  0  0  0  0  0  0  0
  1  2  1  0
  3  2  1  0
  4  3  1  0
  5  4  1  0
  5  6  1  1
  7  8  2  0
  7  5  1  0
 10 12  1  0
 10  9  1  0
 11 10  2  0
 13 12  1  0
 14 13  1  0
 14 15  1  0
 16 15  1  1
 16 17  1  0
 17  7  1  0
 18 20  1  0
 18 16  1  0
 19 18  2  0
 21 22  1  6
 21 20  1  0
 22 23  1  0
 23 24  2  0
 23 28  1  0
 24 25  1  0
 25 26  2  0
 27 26  1  0
 28 27  2  0
 29 21  1  0
 30 29  2  0
 31 29  1  0
M  END
$$$$
