MRF.pdb
     RDKit          3D

 31 31  0  0  1  0  0  0  0  0999 V2000
    8.4779  -11.3163   20.3155 C   0  0  0  0  0  0  0  0  0  0  0  0
    8.4978  -12.1614   18.7350 S   0  0  0  0  0  0  0  0  0  0  0  0
    8.1642  -13.9109   18.8337 C   0  0  0  0  0  0  0  0  0  0  0  0
    7.8946  -14.4438   20.1956 C   0  0  0  0  0  0  0  0  0  0  0  0
    7.5435  -15.8911   20.2589 C   0  0  2  0  0  0  0  0  0  0  0  0
    6.3903  -16.2410   19.4797 N   0  0  0  0  0  0  0  0  0  0  0  0
    7.3558  -16.3853   21.6445 C   0  0  0  0  0  0  0  0  0  0  0  0
    6.2567  -16.2324   22.2426 O   0  0  0  0  0  0  0  0  0  0  0  0
    6.6251  -20.4499   26.5908 N   0  0  0  0  0  0  0  0  0  0  0  0
    6.4412  -21.7565   26.0815 C   0  0  0  0  0  0  0  0  0  0  0  0
    5.5215  -22.5394   26.4816 N   0  0  0  0  0  0  0  0  0  0  0  0
    7.3321  -22.2203   25.0710 N   0  0  0  0  0  0  0  0  0  0  0  0
    8.3233  -21.3691   24.4511 C   0  0  0  0  0  0  0  0  0  0  0  0
    7.8202  -19.9528   24.4230 C   0  0  0  0  0  0  0  0  0  0  0  0
    8.7415  -18.9789   23.7563 C   0  0  0  0  0  0  0  0  0  0  0  0
    8.2612  -17.5692   23.6917 C   0  0  2  0  0  0  0  0  0  0  0  0
    8.3821  -17.0407   22.3511 N   0  0  0  0  0  0  0  0  0  0  0  0
    8.9807  -16.7858   24.6896 C   0  0  0  0  0  0  0  0  0  0  0  0
   10.1317  -16.3734   24.4623 O   0  0  0  0  0  0  0  0  0  0  0  0
    5.4064  -23.5048   26.1651 N   0  0  0  0  0  0  0  0  0  0  0  0
    8.3737  -16.4885   25.9254 C   0  0  2  0  0  0  0  0  0  0  0  0
    9.1406  -15.7852   26.9437 C   0  0  0  0  0  0  0  0  0  0  0  0
    8.1726  -14.9154   27.6930 C   0  0  0  0  0  0  0  0  0  0  0  0
    7.6437  -13.7710   26.9502 C   0  0  0  0  0  0  0  0  0  0  0  0
    8.4514  -12.7169   26.5953 C   0  0  0  0  0  0  0  0  0  0  0  0
    7.9004  -11.6701   25.8988 C   0  0  0  0  0  0  0  0  0  0  0  0
    6.5755  -11.6154   25.5328 C   0  0  0  0  0  0  0  0  0  0  0  0
    5.7928  -12.6883   25.9041 C   0  0  0  0  0  0  0  0  0  0  0  0
    6.3147  -13.7529   26.6027 C   0  0  0  0  0  0  0  0  0  0  0  0
    9.8508  -16.6947   27.8413 O   0  0  0  0  0  0  0  0  0  0  0  0
    9.7491  -17.9570   27.8169 O   0  0  0  0  0  0  0  0  0  0  0  0
  1  2  1  0
  3  2  1  0
  4  3  1  0
  5  4  1  0
  5  6  1  6
  7  8  2  0
  7  5  1  0
 10 12  1  0
 10  9  1  0
 11 10  2  0
 13 12  1  0
 14 13  1  0
 14 15  1  0
 16 15  1  6
 16 17  1  0
 17  7  1  0
 18 20  1  0
 18 16  1  0
 19 18  2  0
 21 22  1  6
 21 20  1  0
 22 23  1  0
 23 24  2  0
 23 28  1  0
 24 25  1  0
 25 26  2  0
 27 26  1  0
 28 27  2  0
 29 21  1  0
 30 29  2  0
 31 29  1  0
M  END
$$$$
