MRF.pdb
     RDKit          3D

 31 31  0  0  1  0  0  0  0  0999 V2000
    6.7557  -11.3677   26.5346 C   0  0  0  0  0  0  0  0  0  0  0  0
    6.1660  -12.6584   27.6295 S   0  0  0  0  0  0  0  0  0  0  0  0
    5.3993  -14.0358   26.7947 C   0  0  0  0  0  0  0  0  0  0  0  0
    6.3285  -15.0489   26.2275 C   0  0  0  0  0  0  0  0  0  0  0  0
    7.2061  -14.5658   25.1237 C   0  0  2  0  0  0  0  0  0  0  0  0
    6.5228  -13.7606   24.1519 N   0  0  0  0  0  0  0  0  0  0  0  0
    7.9197  -15.6616   24.4243 C   0  0  0  0  0  0  0  0  0  0  0  0
    8.5524  -16.5387   25.0721 O   0  0  0  0  0  0  0  0  0  0  0  0
    7.9210  -14.7062   17.0097 N   0  0  0  0  0  0  0  0  0  0  0  0
    8.9569  -14.0572   17.7210 C   0  0  0  0  0  0  0  0  0  0  0  0
    9.0444  -12.7924   17.8289 N   0  0  0  0  0  0  0  0  0  0  0  0
    9.9540  -14.8599   18.3466 N   0  0  0  0  0  0  0  0  0  0  0  0
    9.8290  -16.2936   18.4878 C   0  0  0  0  0  0  0  0  0  0  0  0
    9.9433  -16.6657   19.9398 C   0  0  0  0  0  0  0  0  0  0  0  0
    8.8965  -16.0586   20.8214 C   0  0  0  0  0  0  0  0  0  0  0  0
    8.9217  -16.4854   22.2494 C   0  0  2  0  0  0  0  0  0  0  0  0
    7.9260  -15.7752   23.0210 N   0  0  0  0  0  0  0  0  0  0  0  0
   10.2772  -16.3192   22.7614 C   0  0  0  0  0  0  0  0  0  0  0  0
   10.9688  -15.3440   22.4192 O   0  0  0  0  0  0  0  0  0  0  0  0
    9.7971  -12.3051   18.3202 N   0  0  0  0  0  0  0  0  0  0  0  0
   10.8163  -17.2675   23.6526 C   0  0  1  0  0  0  0  0  0  0  0  0
   11.2627  -16.8334   24.9687 C   0  0  0  0  0  0  0  0  0  0  0  0
   10.0597  -16.2757   25.6733 C   0  0  0  0  0  0  0  0  0  0  0  0
   10.3076  -15.7145   27.0018 C   0  0  0  0  0  0  0  0  0  0  0  0
   10.6201  -16.5219   28.0694 C   0  0  0  0  0  0  0  0  0  0  0  0
   10.8427  -15.9398   29.2926 C   0  0  0  0  0  0  0  0  0  0  0  0
   10.7700  -14.5838   29.5126 C   0  0  0  0  0  0  0  0  0  0  0  0
   10.4544  -13.8025   28.4211 C   0  0  0  0  0  0  0  0  0  0  0  0
   10.2256  -14.3550   27.1818 C   0  0  0  0  0  0  0  0  0  0  0  0
   11.8823  -17.9123   25.7365 O   0  0  0  0  0  0  0  0  0  0  0  0
   11.6150  -19.1425   25.5964 O   0  0  0  0  0  0  0  0  0  0  0  0
  1  2  1  0
  3  2  1  0
  4  3  1  0
  5  4  1  0
  5  6  1  6
  7  8  2  0
  7  5  1  0
 10 12  1  0
 10  9  1  0
 11 10  2  0
 13 12  1  0
 14 13  1  0
 14 15  1  0
 16 15  1  6
 16 17  1  0
 17  7  1  0
 18 20  1  0
 18 16  1  0
 19 18  2  0
 21 22  1  6
 21 20  1  0
 22 23  1  0
 23 24  2  0
 23 28  1  0
 24 25  1  0
 25 26  2  0
 27 26  1  0
 28 27  2  0
 29 21  1  0
 30 29  2  0
 31 29  1  0
M  END
$$$$
