MRF.pdb
     RDKit          3D

 31 31  0  0  1  0  0  0  0  0999 V2000
    6.5578  -12.1859   25.4309 C   0  0  0  0  0  0  0  0  0  0  0  0
    6.3075  -13.3425   26.7771 S   0  0  0  0  0  0  0  0  0  0  0  0
    6.5239  -15.0542   26.3242 C   0  0  0  0  0  0  0  0  0  0  0  0
    6.0683  -15.4261   24.9583 C   0  0  0  0  0  0  0  0  0  0  0  0
    6.2421  -16.8611   24.5941 C   0  0  2  0  0  0  0  0  0  0  0  0
    5.6758  -17.7724   25.5472 N   0  0  0  0  0  0  0  0  0  0  0  0
    7.6571  -17.2342   24.3539 C   0  0  0  0  0  0  0  0  0  0  0  0
    8.2349  -18.0844   25.0836 O   0  0  0  0  0  0  0  0  0  0  0  0
   13.2873  -18.4548   20.1171 N   0  0  0  0  0  0  0  0  0  0  0  0
   12.6670  -18.7448   18.8796 C   0  0  0  0  0  0  0  0  0  0  0  0
   13.0435  -19.6882   18.1133 N   0  0  0  0  0  0  0  0  0  0  0  0
   11.5665  -17.9384   18.4690 N   0  0  0  0  0  0  0  0  0  0  0  0
   10.9972  -16.9065   19.3070 C   0  0  0  0  0  0  0  0  0  0  0  0
   10.7013  -17.4728   20.6678 C   0  0  0  0  0  0  0  0  0  0  0  0
   10.1662  -16.4793   21.6517 C   0  0  0  0  0  0  0  0  0  0  0  0
    9.7754  -17.0273   22.9818 C   0  0  2  0  0  0  0  0  0  0  0  0
    8.4153  -16.6648   23.3131 N   0  0  0  0  0  0  0  0  0  0  0  0
   10.7499  -16.5845   23.9725 C   0  0  0  0  0  0  0  0  0  0  0  0
   10.7758  -15.4002   24.3508 O   0  0  0  0  0  0  0  0  0  0  0  0
   12.6765  -19.8500   17.1728 N   0  0  0  0  0  0  0  0  0  0  0  0
   11.6742  -17.5005   24.5117 C   0  0  1  0  0  0  0  0  0  0  0  0
   12.2585  -17.2354   25.8186 C   0  0  0  0  0  0  0  0  0  0  0  0
   11.1167  -17.0083   26.7669 C   0  0  0  0  0  0  0  0  0  0  0  0
   11.0020  -15.6530   27.3068 C   0  0  0  0  0  0  0  0  0  0  0  0
   10.4710  -14.6301   26.5577 C   0  0  0  0  0  0  0  0  0  0  0  0
   10.3881  -13.3789   27.1163 C   0  0  0  0  0  0  0  0  0  0  0  0
   10.8095  -13.0880   28.3931 C   0  0  0  0  0  0  0  0  0  0  0  0
   11.3370  -14.1361   29.1175 C   0  0  0  0  0  0  0  0  0  0  0  0
   11.4340  -15.4019   28.5865 C   0  0  0  0  0  0  0  0  0  0  0  0
   13.1286  -18.3178   26.2756 O   0  0  0  0  0  0  0  0  0  0  0  0
   13.2105  -19.4570   25.7281 O   0  0  0  0  0  0  0  0  0  0  0  0
  1  2  1  0
  3  2  1  0
  4  3  1  0
  5  4  1  0
  5  6  1  1
  7  8  2  0
  7  5  1  0
 10 12  1  0
 10  9  1  0
 11 10  2  0
 13 12  1  0
 14 13  1  0
 14 15  1  0
 16 15  1  6
 16 17  1  0
 17  7  1  0
 18 20  1  0
 18 16  1  0
 19 18  2  0
 21 22  1  1
 21 20  1  0
 22 23  1  0
 23 24  2  0
 23 28  1  0
 24 25  1  0
 25 26  2  0
 27 26  1  0
 28 27  2  0
 29 21  1  0
 30 29  2  0
 31 29  1  0
M  END
$$$$
