MRF.pdb
     RDKit          3D

 31 31  0  0  1  0  0  0  0  0999 V2000
    8.6153  -11.6501   20.2980 C   0  0  0  0  0  0  0  0  0  0  0  0
    9.1899  -12.3709   18.7609 S   0  0  0  0  0  0  0  0  0  0  0  0
    9.0967  -14.1514   18.7049 C   0  0  0  0  0  0  0  0  0  0  0  0
    8.2090  -14.7863   19.7151 C   0  0  0  0  0  0  0  0  0  0  0  0
    8.1290  -16.2735   19.6526 C   0  0  2  0  0  0  0  0  0  0  0  0
    7.7321  -16.7777   18.3689 N   0  0  0  0  0  0  0  0  0  0  0  0
    7.2444  -16.8537   20.6918 C   0  0  0  0  0  0  0  0  0  0  0  0
    5.9917  -16.8517   20.5499 O   0  0  0  0  0  0  0  0  0  0  0  0
    7.8199  -20.7560   27.0226 N   0  0  0  0  0  0  0  0  0  0  0  0
    6.6748  -21.5860   27.0184 C   0  0  0  0  0  0  0  0  0  0  0  0
    6.1761  -22.0940   28.0730 N   0  0  0  0  0  0  0  0  0  0  0  0
    6.0493  -21.8694   25.7701 N   0  0  0  0  0  0  0  0  0  0  0  0
    6.6049  -21.4482   24.5031 C   0  0  0  0  0  0  0  0  0  0  0  0
    6.3960  -19.9694   24.3315 C   0  0  0  0  0  0  0  0  0  0  0  0
    7.0821  -19.3789   23.1389 C   0  0  0  0  0  0  0  0  0  0  0  0
    6.9503  -17.9029   22.9777 C   0  0  2  0  0  0  0  0  0  0  0  0
    7.7528  -17.4278   21.8725 N   0  0  0  0  0  0  0  0  0  0  0  0
    7.2785  -17.2646   24.2473 C   0  0  0  0  0  0  0  0  0  0  0  0
    6.6449  -17.5447   25.2801 O   0  0  0  0  0  0  0  0  0  0  0  0
    5.4214  -22.7837   28.0809 N   0  0  0  0  0  0  0  0  0  0  0  0
    8.3218  -16.3206   24.3138 C   0  0  2  0  0  0  0  0  0  0  0  0
    8.5706  -15.6223   25.5668 C   0  0  0  0  0  0  0  0  0  0  0  0
    7.2287  -15.2813   26.1479 C   0  0  0  0  0  0  0  0  0  0  0  0
    6.9553  -13.8535   26.3152 C   0  0  0  0  0  0  0  0  0  0  0  0
    5.6812  -13.3526   26.1919 C   0  0  0  0  0  0  0  0  0  0  0  0
    5.4844  -12.0044   26.3595 C   0  0  0  0  0  0  0  0  0  0  0  0
    6.4975  -11.1190   26.6458 C   0  0  0  0  0  0  0  0  0  0  0  0
    7.7631  -11.6537   26.7628 C   0  0  0  0  0  0  0  0  0  0  0  0
    7.9938  -13.0006   26.6007 C   0  0  0  0  0  0  0  0  0  0  0  0
    9.3750  -16.4099   26.4996 O   0  0  0  0  0  0  0  0  0  0  0  0
    9.7479  -16.0131   27.6432 O   0  0  0  0  0  0  0  0  0  0  0  0
  1  2  1  0
  3  2  1  0
  4  3  1  0
  5  4  1  0
  5  6  1  6
  7  8  2  0
  7  5  1  0
 10 12  1  0
 10  9  1  0
 11 10  2  0
 13 12  1  0
 14 13  1  0
 14 15  1  0
 16 15  1  1
 16 17  1  0
 17  7  1  0
 18 20  1  0
 18 16  1  0
 19 18  2  0
 21 22  1  6
 21 20  1  0
 22 23  1  0
 23 24  2  0
 23 28  1  0
 24 25  1  0
 25 26  2  0
 27 26  1  0
 28 27  2  0
 29 21  1  0
 30 29  2  0
 31 29  1  0
M  END
$$$$
