MRF.pdb
     RDKit          3D

 31 31  0  0  1  0  0  0  0  0999 V2000
    8.0863  -11.1050   19.3267 C   0  0  0  0  0  0  0  0  0  0  0  0
    7.3131  -12.3849   18.3384 S   0  0  0  0  0  0  0  0  0  0  0  0
    7.5759  -14.0411   18.9464 C   0  0  0  0  0  0  0  0  0  0  0  0
    7.5301  -14.2044   20.4238 C   0  0  0  0  0  0  0  0  0  0  0  0
    8.4200  -15.2638   20.9787 C   0  0  2  0  0  0  0  0  0  0  0  0
    8.6013  -16.3849   20.1012 N   0  0  0  0  0  0  0  0  0  0  0  0
    7.9803  -15.7580   22.3060 C   0  0  0  0  0  0  0  0  0  0  0  0
    7.6115  -14.9555   23.2055 O   0  0  0  0  0  0  0  0  0  0  0  0
    4.8952  -22.5805   25.8364 N   0  0  0  0  0  0  0  0  0  0  0  0
    5.8697  -22.3803   26.8417 C   0  0  0  0  0  0  0  0  0  0  0  0
    5.6619  -22.6199   28.0739 N   0  0  0  0  0  0  0  0  0  0  0  0
    7.1478  -21.8831   26.4555 N   0  0  0  0  0  0  0  0  0  0  0  0
    7.4132  -21.3455   25.1396 C   0  0  0  0  0  0  0  0  0  0  0  0
    7.2678  -19.8496   25.1710 C   0  0  0  0  0  0  0  0  0  0  0  0
    7.5805  -19.1672   23.8756 C   0  0  0  0  0  0  0  0  0  0  0  0
    7.5968  -17.6771   23.9130 C   0  0  2  0  0  0  0  0  0  0  0  0
    7.9535  -17.1294   22.6230 N   0  0  0  0  0  0  0  0  0  0  0  0
    8.4832  -17.2479   24.9888 C   0  0  0  0  0  0  0  0  0  0  0  0
    9.7180  -17.3003   24.8517 O   0  0  0  0  0  0  0  0  0  0  0  0
    6.3436  -22.4540   28.8177 N   0  0  0  0  0  0  0  0  0  0  0  0
    7.9439  -16.7679   26.1984 C   0  0  2  0  0  0  0  0  0  0  0  0
    8.8426  -16.4240   27.2910 C   0  0  0  0  0  0  0  0  0  0  0  0
    8.2898  -15.1849   27.9344 C   0  0  0  0  0  0  0  0  0  0  0  0
    8.1721  -14.0166   27.0611 C   0  0  0  0  0  0  0  0  0  0  0  0
    9.2813  -13.3068   26.6671 C   0  0  0  0  0  0  0  0  0  0  0  0
    9.1104  -12.2193   25.8469 C   0  0  0  0  0  0  0  0  0  0  0  0
    7.8826  -11.7959   25.3934 C   0  0  0  0  0  0  0  0  0  0  0  0
    6.7908  -12.5296   25.8071 C   0  0  0  0  0  0  0  0  0  0  0  0
    6.9283  -13.6247   26.6289 C   0  0  0  0  0  0  0  0  0  0  0  0
    8.9930  -17.5097   28.2585 O   0  0  0  0  0  0  0  0  0  0  0  0
    8.3685  -18.6106   28.2096 O   0  0  0  0  0  0  0  0  0  0  0  0
  1  2  1  0
  3  2  1  0
  4  3  1  0
  5  4  1  0
  5  6  1  6
  7  8  2  0
  7  5  1  0
 10 12  1  0
 10  9  1  0
 11 10  2  0
 13 12  1  0
 14 13  1  0
 14 15  1  0
 16 15  1  6
 16 17  1  0
 17  7  1  0
 18 20  1  0
 18 16  1  0
 19 18  2  0
 21 22  1  6
 21 20  1  0
 22 23  1  0
 23 24  2  0
 23 28  1  0
 24 25  1  0
 25 26  2  0
 27 26  1  0
 28 27  2  0
 29 21  1  0
 30 29  2  0
 31 29  1  0
M  END
$$$$
