MRF.pdb
     RDKit          3D

 31 31  0  0  1  0  0  0  0  0999 V2000
    8.8878  -18.4832   28.7121 C   0  0  0  0  0  0  0  0  0  0  0  0
    7.5442  -19.6674   28.7833 S   0  0  0  0  0  0  0  0  0  0  0  0
    6.8662  -20.1048   27.1924 C   0  0  0  0  0  0  0  0  0  0  0  0
    7.4260  -19.3725   26.0254 C   0  0  0  0  0  0  0  0  0  0  0  0
    6.8293  -19.7210   24.7046 C   0  0  2  0  0  0  0  0  0  0  0  0
    6.8902  -21.1208   24.3938 N   0  0  0  0  0  0  0  0  0  0  0  0
    7.4149  -18.9525   23.5795 C   0  0  0  0  0  0  0  0  0  0  0  0
    8.3090  -19.4567   22.8477 O   0  0  0  0  0  0  0  0  0  0  0  0
    8.8356  -14.3750   17.8651 N   0  0  0  0  0  0  0  0  0  0  0  0
    8.0837  -13.3085   18.4105 C   0  0  0  0  0  0  0  0  0  0  0  0
    8.4291  -12.0878   18.3117 N   0  0  0  0  0  0  0  0  0  0  0  0
    6.8800  -13.6165   19.1078 N   0  0  0  0  0  0  0  0  0  0  0  0
    6.7641  -13.5257   20.5464 C   0  0  0  0  0  0  0  0  0  0  0  0
    7.6623  -14.5470   21.1867 C   0  0  0  0  0  0  0  0  0  0  0  0
    6.9424  -15.6314   21.9265 C   0  0  0  0  0  0  0  0  0  0  0  0
    7.8050  -16.6638   22.5684 C   0  0  2  0  0  0  0  0  0  0  0  0
    7.0068  -17.6394   23.2772 N   0  0  0  0  0  0  0  0  0  0  0  0
    8.7839  -15.9918   23.4154 C   0  0  0  0  0  0  0  0  0  0  0  0
    9.7065  -15.3266   22.9129 O   0  0  0  0  0  0  0  0  0  0  0  0
    7.9666  -11.3156   18.7966 N   0  0  0  0  0  0  0  0  0  0  0  0
    8.6908  -16.0915   24.8174 C   0  0  1  0  0  0  0  0  0  0  0  0
    9.7255  -15.4867   25.6439 C   0  0  0  0  0  0  0  0  0  0  0  0
    9.0252  -14.7803   26.7688 C   0  0  0  0  0  0  0  0  0  0  0  0
    8.1722  -13.6574   26.3780 C   0  0  0  0  0  0  0  0  0  0  0  0
    6.8169  -13.8159   26.2128 C   0  0  0  0  0  0  0  0  0  0  0  0
    6.0663  -12.7269   25.8453 C   0  0  0  0  0  0  0  0  0  0  0  0
    6.5973  -11.4761   25.6312 C   0  0  0  0  0  0  0  0  0  0  0  0
    7.9595  -11.3512   25.8053 C   0  0  0  0  0  0  0  0  0  0  0  0
    8.7399  -12.4232   26.1732 C   0  0  0  0  0  0  0  0  0  0  0  0
   10.6906  -16.4651   26.1425 O   0  0  0  0  0  0  0  0  0  0  0  0
   11.6667  -16.1925   26.9022 O   0  0  0  0  0  0  0  0  0  0  0  0
  1  2  1  0
  3  2  1  0
  4  3  1  0
  5  4  1  0
  5  6  1  6
  7  8  2  0
  7  5  1  0
 10 12  1  0
 10  9  1  0
 11 10  2  0
 13 12  1  0
 14 13  1  0
 14 15  1  0
 16 15  1  1
 16 17  1  0
 17  7  1  0
 18 20  1  0
 18 16  1  0
 19 18  2  0
 21 22  1  6
 21 20  1  0
 22 23  1  0
 23 24  2  0
 23 28  1  0
 24 25  1  0
 25 26  2  0
 27 26  1  0
 28 27  2  0
 29 21  1  0
 30 29  2  0
 31 29  1  0
M  END
$$$$
