MRF.pdb
     RDKit          3D

 31 31  0  0  1  0  0  0  0  0999 V2000
    8.5048  -11.2544   20.6071 C   0  0  0  0  0  0  0  0  0  0  0  0
    8.5163  -11.9050   18.9370 S   0  0  0  0  0  0  0  0  0  0  0  0
    7.4440  -13.3087   18.6886 C   0  0  0  0  0  0  0  0  0  0  0  0
    7.3721  -14.2770   19.8150 C   0  0  0  0  0  0  0  0  0  0  0  0
    8.0335  -15.5908   19.5731 C   0  0  2  0  0  0  0  0  0  0  0  0
    7.4576  -16.3377   18.4913 N   0  0  0  0  0  0  0  0  0  0  0  0
    8.0802  -16.4509   20.7803 C   0  0  0  0  0  0  0  0  0  0  0  0
    7.0236  -16.9256   21.2777 O   0  0  0  0  0  0  0  0  0  0  0  0
   10.1973  -22.2127   21.5338 N   0  0  0  0  0  0  0  0  0  0  0  0
   10.3376  -22.5253   22.9059 C   0  0  0  0  0  0  0  0  0  0  0  0
    9.5822  -23.3476   23.5160 N   0  0  0  0  0  0  0  0  0  0  0  0
   11.3757  -21.8857   23.6429 N   0  0  0  0  0  0  0  0  0  0  0  0
   11.8411  -20.5503   23.3408 C   0  0  0  0  0  0  0  0  0  0  0  0
   10.7192  -19.5708   23.5450 C   0  0  0  0  0  0  0  0  0  0  0  0
   10.5219  -18.6073   22.4160 C   0  0  0  0  0  0  0  0  0  0  0  0
    9.4122  -17.6265   22.5848 C   0  0  2  0  0  0  0  0  0  0  0  0
    9.2906  -16.7754   21.4220 N   0  0  0  0  0  0  0  0  0  0  0  0
    9.6286  -16.8869   23.8231 C   0  0  0  0  0  0  0  0  0  0  0  0
   10.6221  -16.1511   23.9565 O   0  0  0  0  0  0  0  0  0  0  0  0
    9.6794  -23.5992   24.5023 N   0  0  0  0  0  0  0  0  0  0  0  0
    8.7083  -17.0011   24.8833 C   0  0  2  0  0  0  0  0  0  0  0  0
    8.9441  -16.2583   26.1131 C   0  0  0  0  0  0  0  0  0  0  0  0
    7.6264  -15.6654   26.5218 C   0  0  0  0  0  0  0  0  0  0  0  0
    7.4644  -14.2362   26.2527 C   0  0  0  0  0  0  0  0  0  0  0  0
    6.2659  -13.7249   25.8148 C   0  0  0  0  0  0  0  0  0  0  0  0
    6.1722  -12.3759   25.5786 C   0  0  0  0  0  0  0  0  0  0  0  0
    7.2176  -11.4996   25.7565 C   0  0  0  0  0  0  0  0  0  0  0  0
    8.4054  -12.0446   26.1963 C   0  0  0  0  0  0  0  0  0  0  0  0
    8.5320  -13.3926   26.4422 C   0  0  0  0  0  0  0  0  0  0  0  0
    9.5101  -17.0908   27.1733 O   0  0  0  0  0  0  0  0  0  0  0  0
    9.8228  -16.6740   28.3277 O   0  0  0  0  0  0  0  0  0  0  0  0
  1  2  1  0
  3  2  1  0
  4  3  1  0
  5  4  1  0
  5  6  1  6
  7  8  2  0
  7  5  1  0
 10 12  1  0
 10  9  1  0
 11 10  2  0
 13 12  1  0
 14 13  1  0
 14 15  1  0
 16 15  1  6
 16 17  1  0
 17  7  1  0
 18 20  1  0
 18 16  1  0
 19 18  2  0
 21 22  1  1
 21 20  1  0
 22 23  1  0
 23 24  2  0
 23 28  1  0
 24 25  1  0
 25 26  2  0
 27 26  1  0
 28 27  2  0
 29 21  1  0
 30 29  2  0
 31 29  1  0
M  END
$$$$
