MRF.pdb
     RDKit          3D

 31 31  0  0  1  0  0  0  0  0999 V2000
    7.7537  -11.5135   19.9387 C   0  0  0  0  0  0  0  0  0  0  0  0
    8.1676  -12.3316   18.3986 S   0  0  0  0  0  0  0  0  0  0  0  0
    7.4531  -13.9557   18.2150 C   0  0  0  0  0  0  0  0  0  0  0  0
    7.0265  -14.6225   19.4739 C   0  0  0  0  0  0  0  0  0  0  0  0
    8.1273  -15.1947   20.3003 C   0  0  2  0  0  0  0  0  0  0  0  0
    8.9804  -16.0977   19.5816 N   0  0  0  0  0  0  0  0  0  0  0  0
    7.6438  -15.8662   21.5309 C   0  0  0  0  0  0  0  0  0  0  0  0
    6.8085  -15.3038   22.2893 O   0  0  0  0  0  0  0  0  0  0  0  0
    4.4670  -21.7834   23.1399 N   0  0  0  0  0  0  0  0  0  0  0  0
    4.9665  -22.4455   24.2855 C   0  0  0  0  0  0  0  0  0  0  0  0
    4.2260  -23.0719   25.1090 N   0  0  0  0  0  0  0  0  0  0  0  0
    6.3694  -22.4074   24.5310 N   0  0  0  0  0  0  0  0  0  0  0  0
    7.2928  -21.6870   23.6828 C   0  0  0  0  0  0  0  0  0  0  0  0
    7.1419  -20.2100   23.9189 C   0  0  0  0  0  0  0  0  0  0  0  0
    7.7784  -19.3454   22.8755 C   0  0  0  0  0  0  0  0  0  0  0  0
    7.6337  -17.8749   23.0728 C   0  0  2  0  0  0  0  0  0  0  0  0
    8.0878  -17.1479   21.9082 N   0  0  0  0  0  0  0  0  0  0  0  0
    8.3301  -17.4986   24.2977 C   0  0  0  0  0  0  0  0  0  0  0  0
    9.5714  -17.4285   24.3252 O   0  0  0  0  0  0  0  0  0  0  0  0
    4.5758  -23.6570   25.8710 N   0  0  0  0  0  0  0  0  0  0  0  0
    7.5977  -17.2098   25.4657 C   0  0  2  0  0  0  0  0  0  0  0  0
    8.3127  -16.8863   26.6920 C   0  0  0  0  0  0  0  0  0  0  0  0
    7.4835  -15.8700   27.4231 C   0  0  0  0  0  0  0  0  0  0  0  0
    7.5120  -14.5147   26.8721 C   0  0  0  0  0  0  0  0  0  0  0  0
    6.4220  -13.9864   26.2224 C   0  0  0  0  0  0  0  0  0  0  0  0
    6.5061  -12.7094   25.7260 C   0  0  0  0  0  0  0  0  0  0  0  0
    7.6280  -11.9219   25.8424 C   0  0  0  0  0  0  0  0  0  0  0  0
    8.7035  -12.4816   26.4993 C   0  0  0  0  0  0  0  0  0  0  0  0
    8.6512  -13.7590   27.0084 C   0  0  0  0  0  0  0  0  0  0  0  0
    8.5714  -18.0635   27.5194 O   0  0  0  0  0  0  0  0  0  0  0  0
    9.2622  -18.0609   28.5811 O   0  0  0  0  0  0  0  0  0  0  0  0
  1  2  1  0
  3  2  1  0
  4  3  1  0
  5  4  1  0
  5  6  1  6
  7  8  2  0
  7  5  1  0
 10 12  1  0
 10  9  1  0
 11 10  2  0
 13 12  1  0
 14 13  1  0
 14 15  1  0
 16 15  1  6
 16 17  1  0
 17  7  1  0
 18 20  1  0
 18 16  1  0
 19 18  2  0
 21 22  1  6
 21 20  1  0
 22 23  1  0
 23 24  2  0
 23 28  1  0
 24 25  1  0
 25 26  2  0
 27 26  1  0
 28 27  2  0
 29 21  1  0
 30 29  2  0
 31 29  1  0
M  END
$$$$
