MRF.pdb
     RDKit          3D

 31 31  0  0  1  0  0  0  0  0999 V2000
    7.4417  -15.8039   29.0799 C   0  0  0  0  0  0  0  0  0  0  0  0
    8.4196  -17.2933   29.2748 S   0  0  0  0  0  0  0  0  0  0  0  0
    7.8096  -18.6971   28.3589 C   0  0  0  0  0  0  0  0  0  0  0  0
    6.7348  -18.4101   27.3719 C   0  0  0  0  0  0  0  0  0  0  0  0
    6.7306  -19.2774   26.1596 C   0  0  2  0  0  0  0  0  0  0  0  0
    7.2127  -20.6079   26.3987 N   0  0  0  0  0  0  0  0  0  0  0  0
    7.4794  -18.6918   25.0214 C   0  0  0  0  0  0  0  0  0  0  0  0
    8.5536  -19.2130   24.6169 O   0  0  0  0  0  0  0  0  0  0  0  0
    7.4772  -12.0328   19.6890 N   0  0  0  0  0  0  0  0  0  0  0  0
    7.8058  -13.2094   18.9763 C   0  0  0  0  0  0  0  0  0  0  0  0
    8.8141  -13.3010   18.2056 N   0  0  0  0  0  0  0  0  0  0  0  0
    6.9641  -14.3490   19.1271 N   0  0  0  0  0  0  0  0  0  0  0  0
    6.3337  -14.6954   20.3816 C   0  0  0  0  0  0  0  0  0  0  0  0
    7.3543  -15.3004   21.3048 C   0  0  0  0  0  0  0  0  0  0  0  0
    6.7778  -15.9951   22.4993 C   0  0  0  0  0  0  0  0  0  0  0  0
    7.6894  -16.9406   23.2042 C   0  0  2  0  0  0  0  0  0  0  0  0
    7.0338  -17.5400   24.3453 N   0  0  0  0  0  0  0  0  0  0  0  0
    8.9180  -16.2340   23.5481 C   0  0  0  0  0  0  0  0  0  0  0  0
    9.6622  -15.7864   22.6580 O   0  0  0  0  0  0  0  0  0  0  0  0
    9.1150  -14.1644   17.7481 N   0  0  0  0  0  0  0  0  0  0  0  0
    9.2730  -16.0520   24.8991 C   0  0  1  0  0  0  0  0  0  0  0  0
   10.5143  -15.3630   25.2218 C   0  0  0  0  0  0  0  0  0  0  0  0
   10.1572  -14.2348   26.1461 C   0  0  0  0  0  0  0  0  0  0  0  0
    8.7326  -13.9110   26.2292 C   0  0  0  0  0  0  0  0  0  0  0  0
    7.9644  -14.3408   27.2849 C   0  0  0  0  0  0  0  0  0  0  0  0
    6.6332  -14.0067   27.3100 C   0  0  0  0  0  0  0  0  0  0  0  0
    6.0191  -13.2604   26.3311 C   0  0  0  0  0  0  0  0  0  0  0  0
    6.8176  -12.8452   25.2864 C   0  0  0  0  0  0  0  0  0  0  0  0
    8.1553  -13.1632   25.2317 C   0  0  0  0  0  0  0  0  0  0  0  0
   11.5114  -16.2504   25.8183 O   0  0  0  0  0  0  0  0  0  0  0  0
   12.6957  -15.9103   26.1117 O   0  0  0  0  0  0  0  0  0  0  0  0
  1  2  1  0
  3  2  1  0
  4  3  1  0
  5  4  1  0
  5  6  1  1
  7  8  2  0
  7  5  1  0
 10 12  1  0
 10  9  1  0
 11 10  2  0
 13 12  1  0
 14 13  1  0
 14 15  1  0
 16 15  1  1
 16 17  1  0
 17  7  1  0
 18 20  1  0
 18 16  1  0
 19 18  2  0
 21 22  1  1
 21 20  1  0
 22 23  1  0
 23 24  2  0
 23 28  1  0
 24 25  1  0
 25 26  2  0
 27 26  1  0
 28 27  2  0
 29 21  1  0
 30 29  2  0
 31 29  1  0
M  END
$$$$
