VHH.pdb
     RDKit          3D

 28 29  0  0  1  0  0  0  0  0999 V2000
   45.9276  -12.8876   -6.7752 C   0  0  0  0  0  0  0  0  0  0  0  0
   46.9490  -11.8075   -6.8969 C   0  0  2  0  0  0  0  0  0  0  0  0
   48.2383  -12.3011   -6.2696 C   0  0  0  0  0  0  0  0  0  0  0  0
   46.5710  -10.5269   -6.2094 C   0  0  2  0  0  0  0  0  0  0  0  0
   46.2665  -10.8208   -4.8278 N   0  0  0  0  0  0  0  0  0  0  0  0
   45.4180   -9.8524   -6.8498 C   0  0  0  0  0  0  0  0  0  0  0  0
   45.5508   -9.4833   -8.0446 O   0  0  0  0  0  0  0  0  0  0  0  0
   44.2008   -9.6059   -6.2040 N   0  0  0  0  0  0  0  0  0  0  0  0
   43.1415   -8.8642   -6.9017 C   0  0  1  0  0  0  0  0  0  0  0  0
   41.9511   -9.7488   -7.0471 C   0  0  0  0  0  0  0  0  0  0  0  0
   41.8230  -10.5444   -8.2514 C   0  0  0  0  0  0  0  0  0  0  0  0
   42.7651  -10.5008   -9.2911 C   0  0  0  0  0  0  0  0  0  0  0  0
   42.4142  -11.3269  -10.2835 N   0  0  0  0  0  0  0  0  0  0  0  0
   41.2668  -11.9027   -9.9078 C   0  0  0  0  0  0  0  0  0  0  0  0
   40.9195  -11.4325   -8.6962 N   0  0  0  0  0  0  0  0  0  0  0  0
   42.9387   -7.5620   -6.2659 C   0  0  0  0  0  0  0  0  0  0  0  0
   42.6155   -7.5321   -5.0415 O   0  0  0  0  0  0  0  0  0  0  0  0
   43.0756   -6.3041   -6.8935 N   0  0  0  0  0  0  0  0  0  0  0  0
   42.8239   -5.0559   -6.2175 C   0  0  1  0  0  0  0  0  0  0  0  0
   44.0988   -4.3196   -5.8807 C   0  0  0  0  0  0  0  0  0  0  0  0
   43.8433   -3.0419   -5.1709 C   0  0  0  0  0  0  0  0  0  0  0  0
   43.2049   -2.9914   -3.9500 C   0  0  0  0  0  0  0  0  0  0  0  0
   43.1169   -1.7079   -3.5570 N   0  0  0  0  0  0  0  0  0  0  0  0
   43.6910   -0.9598   -4.5154 C   0  0  0  0  0  0  0  0  0  0  0  0
   44.1374   -1.7769   -5.5065 N   0  0  0  0  0  0  0  0  0  0  0  0
   41.8321   -4.2087   -6.8975 C   0  0  0  0  0  0  0  0  0  0  0  0
   41.0007   -3.3488   -6.2087 O   0  0  0  0  0  0  0  0  0  0  0  0
   41.6896   -4.2256   -8.1653 O   0  0  0  0  0  0  0  0  0  0  0  0
  2  1  1  1
  2  3  1  0
  4  2  1  0
  4  5  1  1
  6  8  1  0
  6  4  1  0
  7  6  2  0
  9  8  1  0
  9 10  1  1
 11 12  2  0
 11 10  1  0
 13 12  1  0
 14 15  2  0
 14 13  1  0
 15 11  1  0
 16 18  1  0
 16  9  1  0
 17 16  2  0
 19 18  1  0
 19 26  1  0
 20 21  1  0
 19 20  1  6
 21 25  1  0
 22 21  2  0
 22 23  1  0
 23 24  1  0
 25 24  2  0
 26 27  1  0
 28 26  2  0
M  END
$$$$
