VHH.pdb
     RDKit          3D

 28 29  0  0  1  0  0  0  0  0999 V2000
   25.3650  -17.3962  -16.0613 C   0  0  0  0  0  0  0  0  0  0  0  0
   26.4813  -17.3583  -15.0729 C   0  0  2  0  0  0  0  0  0  0  0  0
   27.5589  -16.4361  -15.6096 C   0  0  0  0  0  0  0  0  0  0  0  0
   27.1155  -18.6947  -14.8137 C   0  0  2  0  0  0  0  0  0  0  0  0
   27.6585  -19.1933  -16.0564 N   0  0  0  0  0  0  0  0  0  0  0  0
   26.1649  -19.6785  -14.2453 C   0  0  0  0  0  0  0  0  0  0  0  0
   25.8032  -20.6305  -14.9829 O   0  0  0  0  0  0  0  0  0  0  0  0
   25.6523  -19.6068  -12.9447 N   0  0  0  0  0  0  0  0  0  0  0  0
   24.6829  -20.6113  -12.4859 C   0  0  1  0  0  0  0  0  0  0  0  0
   25.1383  -21.1553  -11.1754 C   0  0  0  0  0  0  0  0  0  0  0  0
   26.5619  -21.2571  -10.9253 C   0  0  0  0  0  0  0  0  0  0  0  0
   27.1780  -20.6713   -9.8083 C   0  0  0  0  0  0  0  0  0  0  0  0
   28.4941  -20.9125   -9.8122 N   0  0  0  0  0  0  0  0  0  0  0  0
   28.7415  -21.6408  -10.9066 C   0  0  0  0  0  0  0  0  0  0  0  0
   27.5864  -21.8429  -11.5658 N   0  0  0  0  0  0  0  0  0  0  0  0
   23.3263  -20.0671  -12.5540 C   0  0  0  0  0  0  0  0  0  0  0  0
   23.1844  -18.8186  -12.7138 O   0  0  0  0  0  0  0  0  0  0  0  0
   22.1299  -20.8123  -12.4629 N   0  0  0  0  0  0  0  0  0  0  0  0
   21.0851  -20.7474  -13.4541 C   0  0  1  0  0  0  0  0  0  0  0  0
   21.5973  -21.0328  -14.8458 C   0  0  0  0  0  0  0  0  0  0  0  0
   21.7601  -19.7983  -15.6528 C   0  0  0  0  0  0  0  0  0  0  0  0
   21.4340  -18.5505  -15.1657 C   0  0  0  0  0  0  0  0  0  0  0  0
   21.6867  -17.6322  -16.1157 N   0  0  0  0  0  0  0  0  0  0  0  0
   22.1650  -18.2905  -17.1860 C   0  0  0  0  0  0  0  0  0  0  0  0
   22.2107  -19.6200  -16.9037 N   0  0  0  0  0  0  0  0  0  0  0  0
   19.8943  -21.5375  -13.1056 C   0  0  0  0  0  0  0  0  0  0  0  0
   18.6133  -21.0461  -13.2559 O   0  0  0  0  0  0  0  0  0  0  0  0
   19.9856  -22.7237  -12.6444 O   0  0  0  0  0  0  0  0  0  0  0  0
  2  1  1  6
  2  3  1  0
  4  2  1  0
  4  5  1  6
  6  8  1  0
  6  4  1  0
  7  6  2  0
  9  8  1  0
  9 10  1  1
 11 12  2  0
 11 10  1  0
 13 12  1  0
 14 15  2  0
 14 13  1  0
 15 11  1  0
 16 18  1  0
 16  9  1  0
 17 16  2  0
 19 18  1  0
 19 26  1  0
 20 21  1  0
 19 20  1  6
 21 25  1  0
 22 21  2  0
 22 23  1  0
 23 24  1  0
 25 24  2  0
 26 27  1  0
 28 26  2  0
M  END
$$$$
