VHH.pdb
     RDKit          3D

 28 29  0  0  1  0  0  0  0  0999 V2000
   22.7264  -16.0357  -16.0236 C   0  0  0  0  0  0  0  0  0  0  0  0
   21.2755  -15.8120  -15.7598 C   0  0  2  0  0  0  0  0  0  0  0  0
   20.5205  -17.0610  -16.1714 C   0  0  0  0  0  0  0  0  0  0  0  0
   20.6866  -14.6558  -16.5162 C   0  0  2  0  0  0  0  0  0  0  0  0
   20.8189  -14.9184  -17.9308 N   0  0  0  0  0  0  0  0  0  0  0  0
   21.3291  -13.3645  -16.1783 C   0  0  0  0  0  0  0  0  0  0  0  0
   21.2113  -12.9479  -14.9977 O   0  0  0  0  0  0  0  0  0  0  0  0
   22.0529  -12.5902  -17.0926 N   0  0  0  0  0  0  0  0  0  0  0  0
   22.7036  -11.3509  -16.6455 C   0  0  1  0  0  0  0  0  0  0  0  0
   24.0661  -11.2800  -17.2449 C   0  0  0  0  0  0  0  0  0  0  0  0
   25.1074  -12.1267  -16.6988 C   0  0  0  0  0  0  0  0  0  0  0  0
   24.9124  -12.9300  -15.5642 C   0  0  0  0  0  0  0  0  0  0  0  0
   26.0256  -13.6111  -15.2688 N   0  0  0  0  0  0  0  0  0  0  0  0
   26.9348  -13.2656  -16.1871 C   0  0  0  0  0  0  0  0  0  0  0  0
   26.3819  -12.3809  -17.0364 N   0  0  0  0  0  0  0  0  0  0  0  0
   21.8128  -10.2104  -16.8619 C   0  0  0  0  0  0  0  0  0  0  0  0
   20.9066  -10.3109  -17.7412 O   0  0  0  0  0  0  0  0  0  0  0  0
   21.8590   -8.9807  -16.1685 N   0  0  0  0  0  0  0  0  0  0  0  0
   20.8955   -7.9273  -16.3697 C   0  0  1  0  0  0  0  0  0  0  0  0
   19.4770   -8.4005  -16.1584 C   0  0  0  0  0  0  0  0  0  0  0  0
   18.4886   -7.3019  -16.2916 C   0  0  0  0  0  0  0  0  0  0  0  0
   18.8480   -6.0300  -16.6837 C   0  0  0  0  0  0  0  0  0  0  0  0
   17.7481   -5.2561  -16.7136 N   0  0  0  0  0  0  0  0  0  0  0  0
   16.7103   -6.0279  -16.3460 C   0  0  0  0  0  0  0  0  0  0  0  0
   17.1630   -7.2837  -16.0866 N   0  0  0  0  0  0  0  0  0  0  0  0
   21.2079   -6.6956  -15.6288 C   0  0  0  0  0  0  0  0  0  0  0  0
   20.7631   -5.4551  -16.0394 O   0  0  0  0  0  0  0  0  0  0  0  0
   21.9095   -6.7114  -14.5632 O   0  0  0  0  0  0  0  0  0  0  0  0
  2  1  1  6
  2  3  1  0
  4  2  1  0
  4  5  1  6
  6  8  1  0
  6  4  1  0
  7  6  2  0
  9  8  1  0
  9 10  1  6
 11 12  2  0
 11 10  1  0
 13 12  1  0
 14 15  2  0
 14 13  1  0
 15 11  1  0
 16 18  1  0
 16  9  1  0
 17 16  2  0
 19 18  1  0
 19 26  1  0
 20 21  1  0
 19 20  1  1
 21 25  1  0
 22 21  2  0
 22 23  1  0
 23 24  1  0
 25 24  2  0
 26 27  1  0
 28 26  2  0
M  END
$$$$
