VHH.pdb
     RDKit          3D

 28 29  0  0  1  0  0  0  0  0999 V2000
   18.5797  -28.4383  -13.7720 C   0  0  0  0  0  0  0  0  0  0  0  0
   19.5037  -28.6333  -12.6174 C   0  0  2  0  0  0  0  0  0  0  0  0
   19.0548  -27.7220  -11.4917 C   0  0  0  0  0  0  0  0  0  0  0  0
   20.9385  -28.3085  -12.9196 C   0  0  2  0  0  0  0  0  0  0  0  0
   21.7333  -28.6137  -11.7521 N   0  0  0  0  0  0  0  0  0  0  0  0
   21.1346  -26.8931  -13.3101 C   0  0  0  0  0  0  0  0  0  0  0  0
   21.4099  -26.0714  -12.3989 O   0  0  0  0  0  0  0  0  0  0  0  0
   21.0313  -26.4249  -14.6253 N   0  0  0  0  0  0  0  0  0  0  0  0
   21.3423  -25.0208  -14.9267 C   0  0  1  0  0  0  0  0  0  0  0  0
   22.1989  -24.9690  -16.1450 C   0  0  0  0  0  0  0  0  0  0  0  0
   23.6346  -25.0843  -15.9869 C   0  0  0  0  0  0  0  0  0  0  0  0
   24.2521  -25.1849  -14.7302 C   0  0  0  0  0  0  0  0  0  0  0  0
   25.5804  -25.2799  -14.8611 N   0  0  0  0  0  0  0  0  0  0  0  0
   25.8342  -25.2430  -16.1739 C   0  0  0  0  0  0  0  0  0  0  0  0
   24.6711  -25.1264  -16.8395 N   0  0  0  0  0  0  0  0  0  0  0  0
   20.1142  -24.2253  -14.9332 C   0  0  0  0  0  0  0  0  0  0  0  0
   19.0843  -24.7099  -15.4889 O   0  0  0  0  0  0  0  0  0  0  0  0
   19.9557  -22.9426  -14.3634 N   0  0  0  0  0  0  0  0  0  0  0  0
   18.7282  -22.1911  -14.4458 C   0  0  1  0  0  0  0  0  0  0  0  0
   18.2672  -21.6973  -13.0951 C   0  0  0  0  0  0  0  0  0  0  0  0
   17.7439  -22.7920  -12.2410 C   0  0  0  0  0  0  0  0  0  0  0  0
   17.6986  -24.1024  -12.6671 C   0  0  0  0  0  0  0  0  0  0  0  0
   17.1795  -24.8620  -11.6857 N   0  0  0  0  0  0  0  0  0  0  0  0
   16.9014  -24.0434  -10.6560 C   0  0  0  0  0  0  0  0  0  0  0  0
   17.2471  -22.7727  -10.9951 N   0  0  0  0  0  0  0  0  0  0  0  0
   18.7538  -21.1333  -15.4676 C   0  0  0  0  0  0  0  0  0  0  0  0
   17.6057  -20.5094  -15.9121 O   0  0  0  0  0  0  0  0  0  0  0  0
   19.8446  -20.7366  -15.9974 O   0  0  0  0  0  0  0  0  0  0  0  0
  2  1  1  6
  2  3  1  0
  4  2  1  0
  4  5  1  1
  6  8  1  0
  6  4  1  0
  7  6  2  0
  9  8  1  0
  9 10  1  6
 11 12  2  0
 11 10  1  0
 13 12  1  0
 14 15  2  0
 14 13  1  0
 15 11  1  0
 16 18  1  0
 16  9  1  0
 17 16  2  0
 19 18  1  0
 19 26  1  0
 20 21  1  0
 19 20  1  1
 21 25  1  0
 22 21  2  0
 22 23  1  0
 23 24  1  0
 25 24  2  0
 26 27  1  0
 28 26  2  0
M  END
$$$$
