VHH.pdb
     RDKit          3D

 28 29  0  0  1  0  0  0  0  0999 V2000
   18.5769  -12.4644  -17.4063 C   0  0  0  0  0  0  0  0  0  0  0  0
   19.3758  -11.3561  -16.8079 C   0  0  2  0  0  0  0  0  0  0  0  0
   19.0330  -10.0743  -17.5422 C   0  0  0  0  0  0  0  0  0  0  0  0
   20.8618  -11.5509  -16.9043 C   0  0  2  0  0  0  0  0  0  0  0  0
   21.2130  -12.7582  -16.1925 N   0  0  0  0  0  0  0  0  0  0  0  0
   21.6256  -10.4030  -16.3626 C   0  0  0  0  0  0  0  0  0  0  0  0
   21.6008  -10.2236  -15.1182 O   0  0  0  0  0  0  0  0  0  0  0  0
   22.3661   -9.5158  -17.1526 N   0  0  0  0  0  0  0  0  0  0  0  0
   23.0154   -8.3532  -16.5315 C   0  0  1  0  0  0  0  0  0  0  0  0
   24.4447   -8.3193  -16.9519 C   0  0  0  0  0  0  0  0  0  0  0  0
   25.3373   -9.3460  -16.4531 C   0  0  0  0  0  0  0  0  0  0  0  0
   24.9423  -10.2915  -15.4936 C   0  0  0  0  0  0  0  0  0  0  0  0
   25.9496  -11.1239  -15.2059 N   0  0  0  0  0  0  0  0  0  0  0  0
   26.9859  -10.7371  -15.9581 C   0  0  0  0  0  0  0  0  0  0  0  0
   26.6150   -9.6774  -16.6991 N   0  0  0  0  0  0  0  0  0  0  0  0
   22.2169   -7.1492  -16.7637 C   0  0  0  0  0  0  0  0  0  0  0  0
   21.4182   -7.1352  -17.7468 O   0  0  0  0  0  0  0  0  0  0  0  0
   22.2431   -5.9745  -15.9799 N   0  0  0  0  0  0  0  0  0  0  0  0
   21.1083   -5.0966  -15.8396 C   0  0  1  0  0  0  0  0  0  0  0  0
   19.8859   -5.8184  -15.3243 C   0  0  0  0  0  0  0  0  0  0  0  0
   18.8282   -5.9476  -16.3568 C   0  0  0  0  0  0  0  0  0  0  0  0
   18.9928   -5.4811  -17.6437 C   0  0  0  0  0  0  0  0  0  0  0  0
   17.8748   -5.7375  -18.3465 N   0  0  0  0  0  0  0  0  0  0  0  0
   17.0177   -6.3564  -17.5157 C   0  0  0  0  0  0  0  0  0  0  0  0
   17.6012   -6.4862  -16.2943 N   0  0  0  0  0  0  0  0  0  0  0  0
   21.4068   -3.8646  -15.0934 C   0  0  0  0  0  0  0  0  0  0  0  0
   22.1528   -3.8681  -13.9321 O   0  0  0  0  0  0  0  0  0  0  0  0
   20.9891   -2.7240  -15.4840 O   0  0  0  0  0  0  0  0  0  0  0  0
  2  1  1  6
  2  3  1  0
  4  2  1  0
  4  5  1  1
  6  8  1  0
  6  4  1  0
  7  6  2  0
  9  8  1  0
  9 10  1  6
 11 12  2  0
 11 10  1  0
 13 12  1  0
 14 15  2  0
 14 13  1  0
 15 11  1  0
 16 18  1  0
 16  9  1  0
 17 16  2  0
 19 18  1  0
 19 26  1  0
 20 21  1  0
 19 20  1  1
 21 25  1  0
 22 21  2  0
 22 23  1  0
 23 24  1  0
 25 24  2  0
 26 27  1  0
 28 26  2  0
M  END
$$$$
