VHH.pdb
     RDKit          3D

 28 29  0  0  1  0  0  0  0  0999 V2000
   24.7181  -15.3711  -16.7170 C   0  0  0  0  0  0  0  0  0  0  0  0
   25.8850  -15.5748  -15.8106 C   0  0  2  0  0  0  0  0  0  0  0  0
   26.7571  -14.3359  -15.8743 C   0  0  0  0  0  0  0  0  0  0  0  0
   26.7432  -16.7530  -16.1723 C   0  0  2  0  0  0  0  0  0  0  0  0
   27.1462  -16.6197  -17.5535 N   0  0  0  0  0  0  0  0  0  0  0  0
   26.0527  -18.0477  -15.9688 C   0  0  0  0  0  0  0  0  0  0  0  0
   25.4758  -18.5612  -16.9612 O   0  0  0  0  0  0  0  0  0  0  0  0
   26.0076  -18.7239  -14.7440 N   0  0  0  0  0  0  0  0  0  0  0  0
   25.2331  -19.9669  -14.6246 C   0  0  1  0  0  0  0  0  0  0  0  0
   26.0897  -21.0080  -13.9898 C   0  0  0  0  0  0  0  0  0  0  0  0
   27.1900  -21.5597  -14.7545 C   0  0  0  0  0  0  0  0  0  0  0  0
   27.4040  -21.2473  -16.1062 C   0  0  0  0  0  0  0  0  0  0  0  0
   28.4824  -21.8857  -16.5751 N   0  0  0  0  0  0  0  0  0  0  0  0
   28.9693  -22.6031  -15.5566 C   0  0  0  0  0  0  0  0  0  0  0  0
   28.1951  -22.4048  -14.4745 N   0  0  0  0  0  0  0  0  0  0  0  0
   23.9364  -19.6924  -14.0047 C   0  0  0  0  0  0  0  0  0  0  0  0
   23.8688  -19.6504  -12.7405 O   0  0  0  0  0  0  0  0  0  0  0  0
   22.7240  -19.4583  -14.6904 N   0  0  0  0  0  0  0  0  0  0  0  0
   21.4378  -19.8514  -14.1713 C   0  0  1  0  0  0  0  0  0  0  0  0
   20.3675  -19.8575  -15.2368 C   0  0  0  0  0  0  0  0  0  0  0  0
   20.3319  -18.5915  -16.0099 C   0  0  0  0  0  0  0  0  0  0  0  0
   20.2847  -17.3560  -15.4001 C   0  0  0  0  0  0  0  0  0  0  0  0
   20.2612  -16.4025  -16.3487 N   0  0  0  0  0  0  0  0  0  0  0  0
   20.2932  -17.0268  -17.5391 C   0  0  0  0  0  0  0  0  0  0  0  0
   20.3366  -18.3703  -17.3330 N   0  0  0  0  0  0  0  0  0  0  0  0
   21.4757  -21.0947  -13.3862 C   0  0  0  0  0  0  0  0  0  0  0  0
   20.9536  -21.1781  -12.1112 O   0  0  0  0  0  0  0  0  0  0  0  0
   21.9958  -22.1650  -13.8466 O   0  0  0  0  0  0  0  0  0  0  0  0
  2  1  1  6
  2  3  1  0
  4  2  1  0
  4  5  1  6
  6  8  1  0
  6  4  1  0
  7  6  2  0
  9  8  1  0
  9 10  1  1
 11 12  2  0
 11 10  1  0
 13 12  1  0
 14 15  2  0
 14 13  1  0
 15 11  1  0
 16 18  1  0
 16  9  1  0
 17 16  2  0
 19 18  1  0
 19 26  1  0
 20 21  1  0
 19 20  1  6
 21 25  1  0
 22 21  2  0
 22 23  1  0
 23 24  1  0
 25 24  2  0
 26 27  1  0
 28 26  2  0
M  END
$$$$
