VHH.pdb
     RDKit          3D

 28 29  0  0  1  0  0  0  0  0999 V2000
   26.8581  -16.4541  -15.4670 C   0  0  0  0  0  0  0  0  0  0  0  0
   25.8910  -15.3962  -15.8798 C   0  0  2  0  0  0  0  0  0  0  0  0
   26.0362  -14.2238  -14.9290 C   0  0  0  0  0  0  0  0  0  0  0  0
   24.4545  -15.8328  -15.8459 C   0  0  2  0  0  0  0  0  0  0  0  0
   24.3076  -16.9925  -16.6951 N   0  0  0  0  0  0  0  0  0  0  0  0
   23.5221  -14.7663  -16.2791 C   0  0  0  0  0  0  0  0  0  0  0  0
   23.4961  -14.4787  -17.5030 O   0  0  0  0  0  0  0  0  0  0  0  0
   22.6767  -14.0680  -15.4090 N   0  0  0  0  0  0  0  0  0  0  0  0
   21.8365  -12.9787  -15.9252 C   0  0  1  0  0  0  0  0  0  0  0  0
   20.4047  -13.3393  -15.7243 C   0  0  0  0  0  0  0  0  0  0  0  0
   19.3884  -12.3865  -16.1231 C   0  0  0  0  0  0  0  0  0  0  0  0
   19.7000  -11.1111  -16.6198 C   0  0  0  0  0  0  0  0  0  0  0  0
   18.5853  -10.4315  -16.9132 N   0  0  0  0  0  0  0  0  0  0  0  0
   17.5613  -11.2395  -16.6170 C   0  0  0  0  0  0  0  0  0  0  0  0
   18.0460  -12.4029  -16.1467 N   0  0  0  0  0  0  0  0  0  0  0  0
   22.2898  -11.6965  -15.3852 C   0  0  0  0  0  0  0  0  0  0  0  0
   22.4814  -11.6014  -14.1367 O   0  0  0  0  0  0  0  0  0  0  0  0
   22.5471  -10.5271  -16.1345 N   0  0  0  0  0  0  0  0  0  0  0  0
   22.9284   -9.2743  -15.5318 C   0  0  1  0  0  0  0  0  0  0  0  0
   24.0327   -8.5836  -16.2960 C   0  0  0  0  0  0  0  0  0  0  0  0
   25.3163   -9.3250  -16.2290 C   0  0  0  0  0  0  0  0  0  0  0  0
   25.4441  -10.5185  -15.5510 C   0  0  0  0  0  0  0  0  0  0  0  0
   26.7128  -10.9508  -15.6650 N   0  0  0  0  0  0  0  0  0  0  0  0
   27.3756  -10.0438  -16.4037 C   0  0  0  0  0  0  0  0  0  0  0  0
   26.5201   -9.0453  -16.7507 N   0  0  0  0  0  0  0  0  0  0  0  0
   21.7889   -8.3905  -15.2417 C   0  0  0  0  0  0  0  0  0  0  0  0
   21.8137   -7.4678  -14.2156 O   0  0  0  0  0  0  0  0  0  0  0  0
   20.7140   -8.4321  -15.9280 O   0  0  0  0  0  0  0  0  0  0  0  0
  2  1  1  1
  2  3  1  0
  4  2  1  0
  4  5  1  6
  6  8  1  0
  6  4  1  0
  7  6  2  0
  9  8  1  0
  9 10  1  1
 11 12  2  0
 11 10  1  0
 13 12  1  0
 14 15  2  0
 14 13  1  0
 15 11  1  0
 16 18  1  0
 16  9  1  0
 17 16  2  0
 19 18  1  0
 19 26  1  0
 20 21  1  0
 19 20  1  6
 21 25  1  0
 22 21  2  0
 22 23  1  0
 23 24  1  0
 25 24  2  0
 26 27  1  0
 28 26  2  0
M  END
$$$$
