VHH.pdb
     RDKit          3D

 28 29  0  0  1  0  0  0  0  0999 V2000
   21.6145   -8.8163  -20.5757 C   0  0  0  0  0  0  0  0  0  0  0  0
   22.3139   -9.8019  -19.7016 C   0  0  2  0  0  0  0  0  0  0  0  0
   23.1460  -10.7118  -20.5842 C   0  0  0  0  0  0  0  0  0  0  0  0
   21.3902  -10.6707  -18.8971 C   0  0  2  0  0  0  0  0  0  0  0  0
   20.6327  -11.4998  -19.8062 N   0  0  0  0  0  0  0  0  0  0  0  0
   20.4704   -9.8877  -18.0396 C   0  0  0  0  0  0  0  0  0  0  0  0
   19.3692   -9.5380  -18.5359 O   0  0  0  0  0  0  0  0  0  0  0  0
   20.7574   -9.5193  -16.7200 N   0  0  0  0  0  0  0  0  0  0  0  0
   19.7934   -8.7097  -15.9621 C   0  0  1  0  0  0  0  0  0  0  0  0
   19.4536   -9.4240  -14.6992 C   0  0  0  0  0  0  0  0  0  0  0  0
   18.5693  -10.5697  -14.7686 C   0  0  0  0  0  0  0  0  0  0  0  0
   18.0166  -11.0273  -15.9752 C   0  0  0  0  0  0  0  0  0  0  0  0
   17.2388  -12.0957  -15.7651 N   0  0  0  0  0  0  0  0  0  0  0  0
   17.2769  -12.3380  -14.4501 C   0  0  0  0  0  0  0  0  0  0  0  0
   18.0712  -11.4256  -13.8617 N   0  0  0  0  0  0  0  0  0  0  0  0
   20.2751   -7.3327  -15.8479 C   0  0  0  0  0  0  0  0  0  0  0  0
   21.4865   -7.0920  -16.1292 O   0  0  0  0  0  0  0  0  0  0  0  0
   19.5056   -6.2167  -15.4512 N   0  0  0  0  0  0  0  0  0  0  0  0
   19.9989   -4.8630  -15.5010 C   0  0  1  0  0  0  0  0  0  0  0  0
   20.6580   -4.5417  -16.8213 C   0  0  0  0  0  0  0  0  0  0  0  0
   21.1471   -3.1422  -16.8835 C   0  0  0  0  0  0  0  0  0  0  0  0
   22.1491   -2.6739  -16.0605 C   0  0  0  0  0  0  0  0  0  0  0  0
   22.3767   -1.3788  -16.3445 N   0  0  0  0  0  0  0  0  0  0  0  0
   21.5311   -1.0351  -17.3317 C   0  0  0  0  0  0  0  0  0  0  0  0
   20.7758   -2.1161  -17.6637 N   0  0  0  0  0  0  0  0  0  0  0  0
   19.0032   -3.8592  -15.0952 C   0  0  0  0  0  0  0  0  0  0  0  0
   19.3451   -2.7273  -14.3831 O   0  0  0  0  0  0  0  0  0  0  0  0
   17.7664   -3.9844  -15.3826 O   0  0  0  0  0  0  0  0  0  0  0  0
  2  1  1  6
  2  3  1  0
  4  2  1  0
  4  5  1  6
  6  8  1  0
  6  4  1  0
  7  6  2  0
  9  8  1  0
  9 10  1  1
 11 12  2  0
 11 10  1  0
 13 12  1  0
 14 15  2  0
 14 13  1  0
 15 11  1  0
 16 18  1  0
 16  9  1  0
 17 16  2  0
 19 18  1  0
 19 26  1  0
 20 21  1  0
 19 20  1  6
 21 25  1  0
 22 21  2  0
 22 23  1  0
 23 24  1  0
 25 24  2  0
 26 27  1  0
 28 26  2  0
M  END
$$$$
