VHH.pdb
     RDKit          3D

 28 29  0  0  1  0  0  0  0  0999 V2000
   26.2908  -13.5319  -15.4972 C   0  0  0  0  0  0  0  0  0  0  0  0
   25.0450  -14.3170  -15.7349 C   0  0  2  0  0  0  0  0  0  0  0  0
   25.3172  -15.7621  -15.3645 C   0  0  0  0  0  0  0  0  0  0  0  0
   24.5699  -14.2954  -17.1594 C   0  0  2  0  0  0  0  0  0  0  0  0
   25.5838  -14.9035  -17.9902 N   0  0  0  0  0  0  0  0  0  0  0  0
   24.2726  -12.9270  -17.6427 C   0  0  0  0  0  0  0  0  0  0  0  0
   24.8372  -12.5487  -18.7007 O   0  0  0  0  0  0  0  0  0  0  0  0
   23.4061  -12.0408  -16.9922 N   0  0  0  0  0  0  0  0  0  0  0  0
   23.1290  -10.7246  -17.5838 C   0  0  1  0  0  0  0  0  0  0  0  0
   22.5989  -10.9193  -18.9629 C   0  0  0  0  0  0  0  0  0  0  0  0
   22.1458   -9.7574  -19.7006 C   0  0  0  0  0  0  0  0  0  0  0  0
   20.7864   -9.4495  -19.8673 C   0  0  0  0  0  0  0  0  0  0  0  0
   20.6387   -8.3298  -20.5848 N   0  0  0  0  0  0  0  0  0  0  0  0
   21.8720   -7.9080  -20.8850 C   0  0  0  0  0  0  0  0  0  0  0  0
   22.7658   -8.7626  -20.3555 N   0  0  0  0  0  0  0  0  0  0  0  0
   22.3274   -9.9190  -16.6621 C   0  0  0  0  0  0  0  0  0  0  0  0
   21.2443  -10.4056  -16.2210 O   0  0  0  0  0  0  0  0  0  0  0  0
   22.6500   -8.6243  -16.1989 N   0  0  0  0  0  0  0  0  0  0  0  0
   21.7782   -7.8528  -15.3486 C   0  0  1  0  0  0  0  0  0  0  0  0
   20.6720   -7.1777  -16.1241 C   0  0  0  0  0  0  0  0  0  0  0  0
   21.1892   -6.3428  -17.2363 C   0  0  0  0  0  0  0  0  0  0  0  0
   20.8333   -6.5619  -18.5501 C   0  0  0  0  0  0  0  0  0  0  0  0
   21.4538   -5.6555  -19.3266 N   0  0  0  0  0  0  0  0  0  0  0  0
   22.1901   -4.8763  -18.5152 C   0  0  0  0  0  0  0  0  0  0  0  0
   22.0289   -5.2967  -17.2320 N   0  0  0  0  0  0  0  0  0  0  0  0
   21.2892   -8.5972  -14.1779 C   0  0  0  0  0  0  0  0  0  0  0  0
   21.6441   -9.9091  -13.9371 O   0  0  0  0  0  0  0  0  0  0  0  0
   20.5082   -8.0648  -13.3208 O   0  0  0  0  0  0  0  0  0  0  0  0
  2  1  1  6
  2  3  1  0
  4  2  1  0
  4  5  1  6
  6  8  1  0
  6  4  1  0
  7  6  2  0
  9  8  1  0
  9 10  1  6
 11 12  2  0
 11 10  1  0
 13 12  1  0
 14 15  2  0
 14 13  1  0
 15 11  1  0
 16 18  1  0
 16  9  1  0
 17 16  2  0
 19 18  1  0
 19 26  1  0
 20 21  1  0
 19 20  1  6
 21 25  1  0
 22 21  2  0
 22 23  1  0
 23 24  1  0
 25 24  2  0
 26 27  1  0
 28 26  2  0
M  END
$$$$
