EVY.pdb
     RDKit          3D

 29 29  0  0  1  0  0  0  0  0999 V2000
   11.5141  -17.2410   18.0308 N   0  0  0  0  0  0  0  0  0  0  0  0
   10.4401  -17.6011   18.9427 C   0  0  1  0  0  0  0  0  0  0  0  0
   10.8087  -18.8344   19.7049 C   0  0  0  0  0  0  0  0  0  0  0  0
   11.5973  -19.8382   18.9262 C   0  0  0  0  0  0  0  0  0  0  0  0
   12.5320  -20.5495   19.8105 C   0  0  0  0  0  0  0  0  0  0  0  0
   13.7674  -20.6411   19.6211 O   0  0  0  0  0  0  0  0  0  0  0  0
   10.1892  -16.4940   19.9179 C   0  0  0  0  0  0  0  0  0  0  0  0
   11.1836  -15.8530   20.3283 O   0  0  0  0  0  0  0  0  0  0  0  0
   12.0458  -21.1887   20.9673 O   0  0  0  0  0  0  0  0  0  0  0  0
    7.2083  -13.7836   19.4983 C   0  0  0  0  0  0  0  0  0  0  0  0
    7.2688  -14.4263   20.8522 C   0  0  2  0  0  0  0  0  0  0  0  0
    7.0154  -13.3579   21.8974 C   0  0  0  0  0  0  0  0  0  0  0  0
    8.6127  -15.0476   21.1578 C   0  0  2  0  0  0  0  0  0  0  0  0
    8.8813  -16.2024   20.3406 N   0  0  0  0  0  0  0  0  0  0  0  0
    8.7471  -15.4093   22.5807 C   0  0  0  0  0  0  0  0  0  0  0  0
    8.2947  -16.5264   22.9428 O   0  0  0  0  0  0  0  0  0  0  0  0
   11.0520  -16.3587   30.9281 O   0  0  0  0  0  0  0  0  0  0  0  0
   10.8294  -15.7703   29.6851 C   0  0  0  0  0  0  0  0  0  0  0  0
   10.1679  -14.5813   29.5488 C   0  0  0  0  0  0  0  0  0  0  0  0
    9.9682  -14.0317   28.2903 C   0  0  0  0  0  0  0  0  0  0  0  0
   10.4130  -14.6347   27.1248 C   0  0  0  0  0  0  0  0  0  0  0  0
   10.1996  -14.0645   25.7776 C   0  0  0  0  0  0  0  0  0  0  0  0
    9.4549  -15.0154   24.9151 C   0  0  2  0  0  0  0  0  0  0  0  0
    9.3577  -14.5507   23.5394 N   0  0  0  0  0  0  0  0  0  0  0  0
    8.0730  -15.1953   25.4333 C   0  0  0  0  0  0  0  0  0  0  0  0
    7.8110  -16.3163   26.2244 O   0  0  0  0  0  0  0  0  0  0  0  0
   11.0880  -15.8521   27.2929 C   0  0  0  0  0  0  0  0  0  0  0  0
   11.2838  -16.3937   28.5451 C   0  0  0  0  0  0  0  0  0  0  0  0
    7.1149  -14.4303   25.2243 O   0  0  0  0  0  0  0  0  0  0  0  0
  2  1  1  6
  2  3  1  0
  3  4  1  0
  4  5  1  0
  5  6  2  0
  5  9  1  0
  7  8  2  0
  7  2  1  0
 11 10  1  6
 11 13  1  0
 12 11  1  0
 13 14  1  6
 14  7  1  0
 15 24  1  0
 15 13  1  0
 16 15  2  0
 18 17  1  0
 19 18  2  0
 20 19  1  0
 21 27  1  0
 21 20  2  0
 23 22  1  1
 22 21  1  0
 23 25  1  0
 23 24  1  0
 25 26  1  0
 27 28  2  0
 28 18  1  0
 29 25  2  0
M  END
$$$$
