EVY.pdb
     RDKit          3D

 29 29  0  0  1  0  0  0  0  0999 V2000
   10.3812  -17.0818   17.4801 N   0  0  0  0  0  0  0  0  0  0  0  0
   10.2790  -17.6253   18.8251 C   0  0  1  0  0  0  0  0  0  0  0  0
   11.5385  -18.3500   19.1806 C   0  0  0  0  0  0  0  0  0  0  0  0
   11.6576  -19.7208   18.5952 C   0  0  0  0  0  0  0  0  0  0  0  0
   13.0506  -20.1857   18.6645 C   0  0  0  0  0  0  0  0  0  0  0  0
   13.6934  -20.6668   17.7023 O   0  0  0  0  0  0  0  0  0  0  0  0
   10.0637  -16.5265   19.8179 C   0  0  0  0  0  0  0  0  0  0  0  0
   11.0625  -15.8486   20.1509 O   0  0  0  0  0  0  0  0  0  0  0  0
   13.7525  -20.1018   19.8825 O   0  0  0  0  0  0  0  0  0  0  0  0
    7.0339  -13.9130   19.5650 C   0  0  0  0  0  0  0  0  0  0  0  0
    7.1707  -14.5286   20.9260 C   0  0  2  0  0  0  0  0  0  0  0  0
    6.9633  -13.4417   21.9623 C   0  0  0  0  0  0  0  0  0  0  0  0
    8.5340  -15.1336   21.1725 C   0  0  2  0  0  0  0  0  0  0  0  0
    8.7824  -16.2825   20.3407 N   0  0  0  0  0  0  0  0  0  0  0  0
    8.7328  -15.4979   22.5872 C   0  0  0  0  0  0  0  0  0  0  0  0
    8.3365  -16.6334   22.9574 O   0  0  0  0  0  0  0  0  0  0  0  0
   10.8030  -16.1707   31.0269 O   0  0  0  0  0  0  0  0  0  0  0  0
   10.6302  -15.6237   29.7574 C   0  0  0  0  0  0  0  0  0  0  0  0
   10.2584  -14.3215   29.5687 C   0  0  0  0  0  0  0  0  0  0  0  0
   10.0974  -13.8184   28.2853 C   0  0  0  0  0  0  0  0  0  0  0  0
   10.2972  -14.5810   27.1459 C   0  0  0  0  0  0  0  0  0  0  0  0
   10.1212  -14.0602   25.7736 C   0  0  0  0  0  0  0  0  0  0  0  0
    9.4415  -15.0609   24.9136 C   0  0  2  0  0  0  0  0  0  0  0  0
    9.3441  -14.6218   23.5296 N   0  0  0  0  0  0  0  0  0  0  0  0
    8.0620  -15.3047   25.4117 C   0  0  0  0  0  0  0  0  0  0  0  0
    7.8273  -16.4694   26.1463 O   0  0  0  0  0  0  0  0  0  0  0  0
   10.6780  -15.9121   27.3677 C   0  0  0  0  0  0  0  0  0  0  0  0
   10.8365  -16.4067   28.6443 C   0  0  0  0  0  0  0  0  0  0  0  0
    7.0837  -14.5581   25.2320 O   0  0  0  0  0  0  0  0  0  0  0  0
  2  1  1  6
  2  3  1  0
  3  4  1  0
  4  5  1  0
  5  6  2  0
  5  9  1  0
  7  8  2  0
  7  2  1  0
 11 10  1  6
 11 13  1  0
 12 11  1  0
 13 14  1  6
 14  7  1  0
 15 24  1  0
 15 13  1  0
 16 15  2  0
 18 17  1  0
 19 18  2  0
 20 19  1  0
 21 27  1  0
 21 20  2  0
 23 22  1  1
 22 21  1  0
 23 25  1  0
 23 24  1  0
 25 26  1  0
 27 28  2  0
 28 18  1  0
 29 25  2  0
M  END
$$$$
