EVY.pdb
     RDKit          3D

 29 29  0  0  1  0  0  0  0  0999 V2000
   10.9362  -17.1627   17.5220 N   0  0  0  0  0  0  0  0  0  0  0  0
   10.1208  -17.6107   18.6397 C   0  0  1  0  0  0  0  0  0  0  0  0
   10.7745  -18.7743   19.3153 C   0  0  0  0  0  0  0  0  0  0  0  0
   10.8224  -20.0256   18.4981 C   0  0  0  0  0  0  0  0  0  0  0  0
   12.1431  -20.1741   17.8696 C   0  0  0  0  0  0  0  0  0  0  0  0
   12.3455  -20.2307   16.6342 O   0  0  0  0  0  0  0  0  0  0  0  0
    9.9542  -16.5097   19.6394 C   0  0  0  0  0  0  0  0  0  0  0  0
   10.9924  -15.9378   20.0433 O   0  0  0  0  0  0  0  0  0  0  0  0
   13.2927  -20.2623   18.6782 O   0  0  0  0  0  0  0  0  0  0  0  0
    7.1432  -13.6128   19.3583 C   0  0  0  0  0  0  0  0  0  0  0  0
    7.1882  -14.2920   20.6950 C   0  0  2  0  0  0  0  0  0  0  0  0
    7.0305  -13.2354   21.7706 C   0  0  0  0  0  0  0  0  0  0  0  0
    8.4927  -15.0104   20.9552 C   0  0  2  0  0  0  0  0  0  0  0  0
    8.6737  -16.1480   20.0913 N   0  0  0  0  0  0  0  0  0  0  0  0
    8.6229  -15.4341   22.3612 C   0  0  0  0  0  0  0  0  0  0  0  0
    8.2340  -16.5935   22.6583 O   0  0  0  0  0  0  0  0  0  0  0  0
   10.7734  -16.4133   30.8093 O   0  0  0  0  0  0  0  0  0  0  0  0
   10.5505  -15.8830   29.5405 C   0  0  0  0  0  0  0  0  0  0  0  0
   10.8497  -16.5731   28.3986 C   0  0  0  0  0  0  0  0  0  0  0  0
   10.6112  -16.0055   27.1549 C   0  0  0  0  0  0  0  0  0  0  0  0
   10.0706  -14.7399   26.9947 C   0  0  0  0  0  0  0  0  0  0  0  0
    9.8193  -14.1201   25.6763 C   0  0  0  0  0  0  0  0  0  0  0  0
    9.2440  -15.1087   24.7305 C   0  0  2  0  0  0  0  0  0  0  0  0
    9.1613  -14.5891   23.3737 N   0  0  0  0  0  0  0  0  0  0  0  0
    7.8701  -15.4816   25.1595 C   0  0  0  0  0  0  0  0  0  0  0  0
    6.8332  -14.5864   24.8863 O   0  0  0  0  0  0  0  0  0  0  0  0
    9.7730  -14.0545   28.1811 C   0  0  0  0  0  0  0  0  0  0  0  0
   10.0117  -14.6227   29.4139 C   0  0  0  0  0  0  0  0  0  0  0  0
    7.5539  -16.5307   25.7478 O   0  0  0  0  0  0  0  0  0  0  0  0
  2  1  1  6
  2  3  1  0
  3  4  1  0
  4  5  1  0
  5  6  2  0
  5  9  1  0
  7  8  2  0
  7  2  1  0
 11 10  1  6
 11 13  1  0
 12 11  1  0
 13 14  1  6
 14  7  1  0
 15 24  1  0
 15 13  1  0
 16 15  2  0
 18 17  1  0
 19 18  2  0
 20 19  1  0
 21 27  1  0
 21 20  2  0
 23 22  1  1
 22 21  1  0
 23 25  1  0
 23 24  1  0
 25 26  1  0
 27 28  2  0
 28 18  1  0
 29 25  2  0
M  END
$$$$
