EVY.pdb
     RDKit          3D

 29 29  0  0  1  0  0  0  0  0999 V2000
   10.4193  -16.9241   17.5925 N   0  0  0  0  0  0  0  0  0  0  0  0
   10.5300  -17.4632   18.9387 C   0  0  1  0  0  0  0  0  0  0  0  0
   11.9341  -17.9104   19.1963 C   0  0  0  0  0  0  0  0  0  0  0  0
   12.4040  -19.0295   18.3230 C   0  0  0  0  0  0  0  0  0  0  0  0
   13.6501  -19.6016   18.8534 C   0  0  0  0  0  0  0  0  0  0  0  0
   14.7428  -18.9926   18.9270 O   0  0  0  0  0  0  0  0  0  0  0  0
   10.1671  -16.4218   19.9502 C   0  0  0  0  0  0  0  0  0  0  0  0
   11.1065  -15.8062   20.5040 O   0  0  0  0  0  0  0  0  0  0  0  0
   13.6612  -20.9286   19.3248 O   0  0  0  0  0  0  0  0  0  0  0  0
    7.0091  -13.8652   19.4578 C   0  0  0  0  0  0  0  0  0  0  0  0
    7.0868  -14.5164   20.8069 C   0  0  2  0  0  0  0  0  0  0  0  0
    6.7710  -13.4710   21.8583 C   0  0  0  0  0  0  0  0  0  0  0  0
    8.4562  -15.0744   21.1216 C   0  0  2  0  0  0  0  0  0  0  0  0
    8.8192  -16.1609   20.2491 N   0  0  0  0  0  0  0  0  0  0  0  0
    8.5691  -15.5112   22.5251 C   0  0  0  0  0  0  0  0  0  0  0  0
    8.2908  -16.7105   22.7860 O   0  0  0  0  0  0  0  0  0  0  0  0
   10.7837  -16.4076   30.9734 O   0  0  0  0  0  0  0  0  0  0  0  0
   10.4471  -15.8861   29.7263 C   0  0  0  0  0  0  0  0  0  0  0  0
   10.1926  -16.6849   28.6461 C   0  0  0  0  0  0  0  0  0  0  0  0
    9.8611  -16.1218   27.4217 C   0  0  0  0  0  0  0  0  0  0  0  0
    9.7693  -14.7540   27.2209 C   0  0  0  0  0  0  0  0  0  0  0  0
    9.4254  -14.1409   25.9203 C   0  0  0  0  0  0  0  0  0  0  0  0
    9.0972  -15.1838   24.9167 C   0  0  2  0  0  0  0  0  0  0  0  0
    8.9722  -14.6360   23.5742 N   0  0  0  0  0  0  0  0  0  0  0  0
    7.8064  -15.8345   25.2644 C   0  0  0  0  0  0  0  0  0  0  0  0
    7.8475  -17.1153   25.8205 O   0  0  0  0  0  0  0  0  0  0  0  0
   10.0347  -13.9583   28.3444 C   0  0  0  0  0  0  0  0  0  0  0  0
   10.3635  -14.5225   29.5581 C   0  0  0  0  0  0  0  0  0  0  0  0
    6.6775  -15.3380   25.1033 O   0  0  0  0  0  0  0  0  0  0  0  0
  2  1  1  6
  2  3  1  0
  3  4  1  0
  4  5  1  0
  5  6  2  0
  5  9  1  0
  7  8  2  0
  7  2  1  0
 11 10  1  6
 11 13  1  0
 12 11  1  0
 13 14  1  6
 14  7  1  0
 15 24  1  0
 15 13  1  0
 16 15  2  0
 18 17  1  0
 19 18  2  0
 20 19  1  0
 21 27  1  0
 21 20  2  0
 23 22  1  1
 22 21  1  0
 23 25  1  0
 23 24  1  0
 25 26  1  0
 27 28  2  0
 28 18  1  0
 29 25  2  0
M  END
$$$$
