EVY.pdb
     RDKit          3D

 29 29  0  0  1  0  0  0  0  0999 V2000
    8.6222  -19.3616   19.2024 N   0  0  0  0  0  0  0  0  0  0  0  0
    8.1451  -18.6739   20.3916 C   0  0  1  0  0  0  0  0  0  0  0  0
    8.5903  -19.4054   21.6182 C   0  0  0  0  0  0  0  0  0  0  0  0
   10.0368  -19.7840   21.6300 C   0  0  0  0  0  0  0  0  0  0  0  0
   10.3519  -20.5568   22.8403 C   0  0  0  0  0  0  0  0  0  0  0  0
   11.1054  -20.1669   23.7626 O   0  0  0  0  0  0  0  0  0  0  0  0
    8.6884  -17.2804   20.4428 C   0  0  0  0  0  0  0  0  0  0  0  0
    9.7817  -17.0681   19.8702 O   0  0  0  0  0  0  0  0  0  0  0  0
    9.7863  -21.8343   23.0172 O   0  0  0  0  0  0  0  0  0  0  0  0
    6.3118  -14.1233   19.7392 C   0  0  0  0  0  0  0  0  0  0  0  0
    7.1764  -13.9549   20.9533 C   0  0  2  0  0  0  0  0  0  0  0  0
    7.7106  -12.5362   20.9634 C   0  0  0  0  0  0  0  0  0  0  0  0
    8.3672  -14.8861   20.9712 C   0  0  2  0  0  0  0  0  0  0  0  0
    7.9816  -16.2664   21.1111 N   0  0  0  0  0  0  0  0  0  0  0  0
    9.3317  -14.5347   22.0294 C   0  0  0  0  0  0  0  0  0  0  0  0
    9.8322  -13.3804   22.0010 O   0  0  0  0  0  0  0  0  0  0  0  0
   10.0472  -16.2628   30.3488 O   0  0  0  0  0  0  0  0  0  0  0  0
   10.0299  -15.7132   29.0688 C   0  0  0  0  0  0  0  0  0  0  0  0
   10.9500  -14.7881   28.6597 C   0  0  0  0  0  0  0  0  0  0  0  0
   10.8945  -14.2665   27.3748 C   0  0  0  0  0  0  0  0  0  0  0  0
    9.9314  -14.6387   26.4508 C   0  0  0  0  0  0  0  0  0  0  0  0
    9.8558  -14.0850   25.0822 C   0  0  0  0  0  0  0  0  0  0  0  0
   10.5779  -14.9555   24.1211 C   0  0  2  0  0  0  0  0  0  0  0  0
    9.7094  -15.4428   23.0599 N   0  0  0  0  0  0  0  0  0  0  0  0
   11.1386  -16.1369   24.8286 C   0  0  0  0  0  0  0  0  0  0  0  0
   10.6324  -17.3970   24.5017 O   0  0  0  0  0  0  0  0  0  0  0  0
    9.0009  -15.5884   26.8959 C   0  0  0  0  0  0  0  0  0  0  0  0
    9.0604  -16.1033   28.1729 C   0  0  0  0  0  0  0  0  0  0  0  0
   12.0282  -16.1070   25.6972 O   0  0  0  0  0  0  0  0  0  0  0  0
  2  1  1  6
  2  3  1  0
  3  4  1  0
  4  5  1  0
  5  6  2  0
  5  9  1  0
  7  8  2  0
  7  2  1  0
 11 10  1  6
 11 13  1  0
 12 11  1  0
 13 14  1  1
 14  7  1  0
 15 24  1  0
 15 13  1  0
 16 15  2  0
 18 17  1  0
 19 18  2  0
 20 19  1  0
 21 27  1  0
 21 20  2  0
 23 22  1  1
 22 21  1  0
 23 25  1  0
 23 24  1  0
 25 26  1  0
 27 28  2  0
 28 18  1  0
 29 25  2  0
M  END
$$$$
