EVY.pdb
     RDKit          3D

 29 29  0  0  1  0  0  0  0  0999 V2000
    8.3979  -18.0882   18.5128 N   0  0  0  0  0  0  0  0  0  0  0  0
    9.5273  -17.9735   19.4216 C   0  0  1  0  0  0  0  0  0  0  0  0
   10.8021  -18.2534   18.6905 C   0  0  0  0  0  0  0  0  0  0  0  0
   11.1136  -19.7047   18.5099 C   0  0  0  0  0  0  0  0  0  0  0  0
   12.5059  -19.8765   18.0700 C   0  0  0  0  0  0  0  0  0  0  0  0
   12.8965  -19.7946   16.8821 O   0  0  0  0  0  0  0  0  0  0  0  0
    9.5987  -16.5931   19.9950 C   0  0  0  0  0  0  0  0  0  0  0  0
   10.4794  -15.8270   19.5417 O   0  0  0  0  0  0  0  0  0  0  0  0
   13.5069  -20.1543   19.0209 O   0  0  0  0  0  0  0  0  0  0  0  0
    7.3110  -13.9583   19.5914 C   0  0  0  0  0  0  0  0  0  0  0  0
    7.4636  -14.0781   21.0788 C   0  0  2  0  0  0  0  0  0  0  0  0
    7.5767  -12.6822   21.6591 C   0  0  0  0  0  0  0  0  0  0  0  0
    8.7021  -14.8406   21.4916 C   0  0  2  0  0  0  0  0  0  0  0  0
    8.7016  -16.1942   21.0003 N   0  0  0  0  0  0  0  0  0  0  0  0
    8.8886  -14.8478   22.9540 C   0  0  0  0  0  0  0  0  0  0  0  0
    8.2458  -14.0008   23.6272 O   0  0  0  0  0  0  0  0  0  0  0  0
    6.1447  -10.8050   26.7734 O   0  0  0  0  0  0  0  0  0  0  0  0
    6.7056  -12.0524   26.5089 C   0  0  0  0  0  0  0  0  0  0  0  0
    5.9651  -13.0994   26.0345 C   0  0  0  0  0  0  0  0  0  0  0  0
    6.5656  -14.3255   25.7852 C   0  0  0  0  0  0  0  0  0  0  0  0
    7.9148  -14.5608   25.9951 C   0  0  0  0  0  0  0  0  0  0  0  0
    8.5655  -15.8639   25.7419 C   0  0  0  0  0  0  0  0  0  0  0  0
    9.8723  -15.6771   25.0635 C   0  0  2  0  0  0  0  0  0  0  0  0
    9.7578  -15.7623   23.6152 N   0  0  0  0  0  0  0  0  0  0  0  0
   10.8287  -16.7256   25.5068 C   0  0  0  0  0  0  0  0  0  0  0  0
   11.1844  -16.7589   26.8571 O   0  0  0  0  0  0  0  0  0  0  0  0
    8.6507  -13.4709   26.4814 C   0  0  0  0  0  0  0  0  0  0  0  0
    8.0495  -12.2553   26.7272 C   0  0  0  0  0  0  0  0  0  0  0  0
   11.3494  -17.5874   24.7767 O   0  0  0  0  0  0  0  0  0  0  0  0
  2  1  1  6
  2  3  1  0
  3  4  1  0
  4  5  1  0
  5  6  2  0
  5  9  1  0
  7  8  2  0
  7  2  1  0
 11 10  1  6
 11 13  1  0
 12 11  1  0
 13 14  1  1
 14  7  1  0
 15 24  1  0
 15 13  1  0
 16 15  2  0
 18 17  1  0
 19 18  2  0
 20 19  1  0
 21 27  1  0
 21 20  2  0
 23 22  1  1
 22 21  1  0
 23 25  1  0
 23 24  1  0
 25 26  1  0
 27 28  2  0
 28 18  1  0
 29 25  2  0
M  END
$$$$
