EVY.pdb
     RDKit          3D

 29 29  0  0  1  0  0  0  0  0999 V2000
   10.7786  -16.7988   17.4293 N   0  0  0  0  0  0  0  0  0  0  0  0
   10.5772  -17.5099   18.6817 C   0  0  1  0  0  0  0  0  0  0  0  0
   11.7758  -18.3498   18.9911 C   0  0  0  0  0  0  0  0  0  0  0  0
   11.8299  -19.6545   18.2625 C   0  0  0  0  0  0  0  0  0  0  0  0
   12.2894  -20.7224   19.1623 C   0  0  0  0  0  0  0  0  0  0  0  0
   13.4856  -21.0622   19.3177 O   0  0  0  0  0  0  0  0  0  0  0  0
   10.3691  -16.5425   19.8044 C   0  0  0  0  0  0  0  0  0  0  0  0
   11.2170  -15.6314   19.9430 O   0  0  0  0  0  0  0  0  0  0  0  0
   11.3495  -21.4419   19.9253 O   0  0  0  0  0  0  0  0  0  0  0  0
    6.8548  -14.7906   20.6166 C   0  0  0  0  0  0  0  0  0  0  0  0
    7.4907  -15.4276   21.8166 C   0  0  2  0  0  0  0  0  0  0  0  0
    7.3132  -14.4961   22.9994 C   0  0  0  0  0  0  0  0  0  0  0  0
    8.9739  -15.6672   21.6489 C   0  0  2  0  0  0  0  0  0  0  0  0
    9.2582  -16.6699   20.6553 N   0  0  0  0  0  0  0  0  0  0  0  0
    9.6247  -16.0348   22.9197 C   0  0  0  0  0  0  0  0  0  0  0  0
    9.6022  -17.2472   23.2560 O   0  0  0  0  0  0  0  0  0  0  0  0
    9.6217  -16.0262   31.1290 O   0  0  0  0  0  0  0  0  0  0  0  0
   10.0238  -15.6147   29.8603 C   0  0  0  0  0  0  0  0  0  0  0  0
   10.0462  -14.2975   29.4937 C   0  0  0  0  0  0  0  0  0  0  0  0
   10.4537  -13.9328   28.2182 C   0  0  0  0  0  0  0  0  0  0  0  0
   10.8524  -14.8529   27.2620 C   0  0  0  0  0  0  0  0  0  0  0  0
   11.2807  -14.4788   25.8974 C   0  0  0  0  0  0  0  0  0  0  0  0
   10.9774  -15.5659   24.9336 C   0  0  2  0  0  0  0  0  0  0  0  0
   10.2623  -15.0800   23.7629 N   0  0  0  0  0  0  0  0  0  0  0  0
   10.1325  -16.6011   25.5855 C   0  0  0  0  0  0  0  0  0  0  0  0
    8.8108  -16.7350   25.1536 O   0  0  0  0  0  0  0  0  0  0  0  0
   10.8202  -16.1958   27.6639 C   0  0  0  0  0  0  0  0  0  0  0  0
   10.4147  -16.5527   28.9319 C   0  0  0  0  0  0  0  0  0  0  0  0
   10.4978  -17.3693   26.4928 O   0  0  0  0  0  0  0  0  0  0  0  0
  2  1  1  6
  2  3  1  0
  3  4  1  0
  4  5  1  0
  5  6  2  0
  5  9  1  0
  7  8  2  0
  7  2  1  0
 11 10  1  6
 11 13  1  0
 12 11  1  0
 13 14  1  6
 14  7  1  0
 15 24  1  0
 15 13  1  0
 16 15  2  0
 18 17  1  0
 19 18  2  0
 20 19  1  0
 21 27  1  0
 21 20  2  0
 23 22  1  1
 22 21  1  0
 23 25  1  0
 23 24  1  0
 25 26  1  0
 27 28  2  0
 28 18  1  0
 29 25  2  0
M  END
$$$$
