EVY.pdb
     RDKit          3D

 29 29  0  0  1  0  0  0  0  0999 V2000
   11.0271  -17.4566   17.7965 N   0  0  0  0  0  0  0  0  0  0  0  0
   10.0198  -17.6951   18.8179 C   0  0  1  0  0  0  0  0  0  0  0  0
   10.3898  -18.8956   19.6302 C   0  0  0  0  0  0  0  0  0  0  0  0
   10.4807  -20.1711   18.8552 C   0  0  0  0  0  0  0  0  0  0  0  0
   11.4662  -21.0723   19.4700 C   0  0  0  0  0  0  0  0  0  0  0  0
   11.6032  -21.2488   20.7032 O   0  0  0  0  0  0  0  0  0  0  0  0
    9.9124  -16.5148   19.7316 C   0  0  0  0  0  0  0  0  0  0  0  0
   10.9769  -15.9419   20.0586 O   0  0  0  0  0  0  0  0  0  0  0  0
   12.3401  -21.8116   18.6498 O   0  0  0  0  0  0  0  0  0  0  0  0
    7.1764  -13.5452   19.3924 C   0  0  0  0  0  0  0  0  0  0  0  0
    7.2483  -14.1573   20.7600 C   0  0  2  0  0  0  0  0  0  0  0  0
    7.1649  -13.0430   21.7845 C   0  0  0  0  0  0  0  0  0  0  0  0
    8.5373  -14.9063   21.0110 C   0  0  2  0  0  0  0  0  0  0  0  0
    8.6562  -16.0833   20.1901 N   0  0  0  0  0  0  0  0  0  0  0  0
    8.6978  -15.2767   22.4290 C   0  0  0  0  0  0  0  0  0  0  0  0
    8.1936  -16.3660   22.8069 O   0  0  0  0  0  0  0  0  0  0  0  0
   10.5813  -15.9809   30.9309 O   0  0  0  0  0  0  0  0  0  0  0  0
   10.5083  -15.4887   29.6297 C   0  0  0  0  0  0  0  0  0  0  0  0
    9.6563  -14.4785   29.2787 C   0  0  0  0  0  0  0  0  0  0  0  0
    9.6165  -14.0195   27.9696 C   0  0  0  0  0  0  0  0  0  0  0  0
   10.4140  -14.5402   26.9634 C   0  0  0  0  0  0  0  0  0  0  0  0
   10.3757  -14.0665   25.5635 C   0  0  0  0  0  0  0  0  0  0  0  0
    9.4545  -14.8991   24.7506 C   0  0  2  0  0  0  0  0  0  0  0  0
    9.3887  -14.4559   23.3661 N   0  0  0  0  0  0  0  0  0  0  0  0
    8.0805  -14.8344   25.3149 C   0  0  0  0  0  0  0  0  0  0  0  0
    7.6552  -15.8893   26.1258 O   0  0  0  0  0  0  0  0  0  0  0  0
   11.2782  -15.5743   27.3503 C   0  0  0  0  0  0  0  0  0  0  0  0
   11.3139  -16.0265   28.6517 C   0  0  0  0  0  0  0  0  0  0  0  0
    7.2627  -13.9160   25.1288 O   0  0  0  0  0  0  0  0  0  0  0  0
  2  1  1  6
  2  3  1  0
  3  4  1  0
  4  5  1  0
  5  6  2  0
  5  9  1  0
  7  8  2  0
  7  2  1  0
 11 10  1  6
 11 13  1  0
 12 11  1  0
 13 14  1  6
 14  7  1  0
 15 24  1  0
 15 13  1  0
 16 15  2  0
 18 17  1  0
 19 18  2  0
 20 19  1  0
 21 27  1  0
 21 20  2  0
 23 22  1  1
 22 21  1  0
 23 25  1  0
 23 24  1  0
 25 26  1  0
 27 28  2  0
 28 18  1  0
 29 25  2  0
M  END
$$$$
