NYQ.pdb
     RDKit          3D

 30 30  0  0  1  0  0  0  0  0999 V2000
   12.8566  -17.3410   17.7735 N   0  0  0  0  0  0  0  0  0  0  0  0
   11.7132  -17.7275   18.5047 C   0  0  0  0  0  0  0  0  0  0  0  0
   11.2229  -18.8596   18.2592 O   0  0  0  0  0  0  0  0  0  0  0  0
   11.0518  -16.9010   19.5350 C   0  0  0  0  0  0  0  0  0  0  0  0
   10.9177  -17.7270   20.7929 C   0  0  2  0  0  0  0  0  0  0  0  0
    9.9355  -18.7389   20.5531 N   0  0  0  0  0  0  0  0  0  0  0  0
   10.5426  -16.8960   21.9660 C   0  0  0  0  0  0  0  0  0  0  0  0
   11.4441  -16.1598   22.4581 O   0  0  0  0  0  0  0  0  0  0  0  0
    7.3611  -12.5769   18.5375 O   0  0  0  0  0  0  0  0  0  0  0  0
    7.4883  -13.1884   19.7715 C   0  0  0  0  0  0  0  0  0  0  0  0
    6.8115  -14.3676   20.0007 C   0  0  0  0  0  0  0  0  0  0  0  0
    6.8998  -15.0323   21.2255 C   0  0  0  0  0  0  0  0  0  0  0  0
    7.6794  -14.4978   22.2238 C   0  0  0  0  0  0  0  0  0  0  0  0
    7.7691  -15.2006   23.5069 C   0  0  0  0  0  0  0  0  0  0  0  0
    8.9868  -16.0340   23.6681 C   0  0  2  0  0  0  0  0  0  0  0  0
    9.2671  -16.8881   22.5413 N   0  0  0  0  0  0  0  0  0  0  0  0
    8.8270  -16.8697   24.9128 C   0  0  0  0  0  0  0  0  0  0  0  0
    7.8936  -17.7042   24.9639 O   0  0  0  0  0  0  0  0  0  0  0  0
    8.3600  -13.3177   22.0018 C   0  0  0  0  0  0  0  0  0  0  0  0
    8.2701  -12.6632   20.7892 C   0  0  0  0  0  0  0  0  0  0  0  0
   10.1943  -20.8974   24.7933 N   0  0  0  0  0  0  0  0  0  0  0  0
   11.4518  -20.3741   25.2028 C   0  0  0  0  0  0  0  0  0  0  0  0
   12.5250  -20.7639   24.6923 O   0  0  0  0  0  0  0  0  0  0  0  0
   11.4116  -19.3246   26.2862 C   0  0  0  0  0  0  0  0  0  0  0  0
    9.9996  -19.0561   26.6829 C   0  0  0  0  0  0  0  0  0  0  0  0
    9.7216  -17.6684   27.1485 C   0  0  2  0  0  0  0  0  0  0  0  0
    9.7051  -16.7280   26.0129 N   0  0  0  0  0  0  0  0  0  0  0  0
   10.5816  -17.1721   28.2275 C   0  0  0  0  0  0  0  0  0  0  0  0
   11.3047  -16.1637   28.0612 O   0  0  0  0  0  0  0  0  0  0  0  0
   10.6298  -17.7940   29.4682 O   0  0  0  0  0  0  0  0  0  0  0  0
  1  2  1  0
  2  3  2  0
  4  5  1  0
  4  2  1  0
  5  7  1  0
  5  6  1  6
  7  8  2  0
  9 10  1  0
 10 11  2  0
 10 20  1  0
 11 12  1  0
 12 13  2  0
 13 14  1  0
 15 14  1  6
 16 15  1  0
 16  7  1  0
 17 15  1  0
 17 27  1  0
 18 17  2  0
 19 13  1  0
 20 19  2  0
 21 22  1  0
 22 24  1  0
 22 23  2  0
 24 25  1  0
 26 25  1  6
 26 27  1  0
 26 28  1  0
 28 30  1  0
 29 28  2  0
M  END
$$$$
