NYQ.pdb
     RDKit          3D

 30 30  0  0  1  0  0  0  0  0999 V2000
    9.1685  -19.8582   18.5247 N   0  0  0  0  0  0  0  0  0  0  0  0
    9.8656  -18.6374   18.4015 C   0  0  0  0  0  0  0  0  0  0  0  0
   10.0308  -18.1780   17.2422 O   0  0  0  0  0  0  0  0  0  0  0  0
   10.4142  -17.8616   19.5325 C   0  0  0  0  0  0  0  0  0  0  0  0
    9.2616  -17.2397   20.2858 C   0  0  2  0  0  0  0  0  0  0  0  0
    8.6119  -16.3133   19.4107 N   0  0  0  0  0  0  0  0  0  0  0  0
    9.7112  -16.5631   21.5297 C   0  0  0  0  0  0  0  0  0  0  0  0
   10.8583  -16.0331   21.5110 O   0  0  0  0  0  0  0  0  0  0  0  0
   10.7774  -14.0827   29.8900 O   0  0  0  0  0  0  0  0  0  0  0  0
   10.2260  -14.5104   28.6959 C   0  0  0  0  0  0  0  0  0  0  0  0
    9.9278  -13.5733   27.7295 C   0  0  0  0  0  0  0  0  0  0  0  0
    9.3699  -13.9426   26.5039 C   0  0  0  0  0  0  0  0  0  0  0  0
    9.1131  -15.2704   26.2570 C   0  0  0  0  0  0  0  0  0  0  0  0
    8.5285  -15.6522   24.9683 C   0  0  0  0  0  0  0  0  0  0  0  0
    9.5218  -15.9624   23.9097 C   0  0  2  0  0  0  0  0  0  0  0  0
    8.9437  -16.4851   22.6971 N   0  0  0  0  0  0  0  0  0  0  0  0
   10.5148  -16.9503   24.4673 C   0  0  0  0  0  0  0  0  0  0  0  0
   10.1706  -18.1492   24.5883 O   0  0  0  0  0  0  0  0  0  0  0  0
    9.4090  -16.2144   27.2197 C   0  0  0  0  0  0  0  0  0  0  0  0
    9.9606  -15.8453   28.4305 C   0  0  0  0  0  0  0  0  0  0  0  0
   16.2267  -16.7068   22.9112 N   0  0  0  0  0  0  0  0  0  0  0  0
   16.4668  -17.7152   23.8850 C   0  0  0  0  0  0  0  0  0  0  0  0
   17.5644  -18.3102   23.9598 O   0  0  0  0  0  0  0  0  0  0  0  0
   15.3211  -18.0217   24.8179 C   0  0  0  0  0  0  0  0  0  0  0  0
   14.1505  -17.1593   24.4873 C   0  0  0  0  0  0  0  0  0  0  0  0
   12.8824  -17.5115   25.1856 C   0  0  2  0  0  0  0  0  0  0  0  0
   11.8159  -16.5496   24.8521 N   0  0  0  0  0  0  0  0  0  0  0  0
   12.9830  -17.7004   26.6363 C   0  0  0  0  0  0  0  0  0  0  0  0
   13.7270  -18.5837   27.1196 O   0  0  0  0  0  0  0  0  0  0  0  0
   12.2638  -16.9146   27.5271 O   0  0  0  0  0  0  0  0  0  0  0  0
  1  2  1  0
  2  3  2  0
  4  5  1  0
  4  2  1  0
  5  7  1  0
  5  6  1  6
  7  8  2  0
  9 10  1  0
 10 11  2  0
 10 20  1  0
 11 12  1  0
 12 13  2  0
 13 14  1  0
 15 14  1  1
 16 15  1  0
 16  7  1  0
 17 15  1  0
 17 27  1  0
 18 17  2  0
 19 13  1  0
 20 19  2  0
 21 22  1  0
 22 24  1  0
 22 23  2  0
 24 25  1  0
 26 25  1  1
 26 27  1  0
 26 28  1  0
 28 30  1  0
 29 28  2  0
M  END
$$$$
