NYQ.pdb
     RDKit          3D

 30 30  0  0  1  0  0  0  0  0999 V2000
   10.2353  -16.5280   10.8740 N   0  0  0  0  0  0  0  0  0  0  0  0
   11.1215  -16.2132   11.9261 C   0  0  0  0  0  0  0  0  0  0  0  0
   12.2609  -16.7458   11.9038 O   0  0  0  0  0  0  0  0  0  0  0  0
   10.8091  -15.3059   13.0491 C   0  0  0  0  0  0  0  0  0  0  0  0
   10.5596  -16.1435   14.2816 C   0  0  2  0  0  0  0  0  0  0  0  0
    9.4299  -16.9820   14.0233 N   0  0  0  0  0  0  0  0  0  0  0  0
   10.3290  -15.3048   15.4861 C   0  0  0  0  0  0  0  0  0  0  0  0
   11.2915  -14.5845   15.8754 O   0  0  0  0  0  0  0  0  0  0  0  0
    7.3979  -11.9916   23.0606 O   0  0  0  0  0  0  0  0  0  0  0  0
    7.4584  -12.6363   21.8385 C   0  0  0  0  0  0  0  0  0  0  0  0
    7.6905  -11.8877   20.7041 C   0  0  0  0  0  0  0  0  0  0  0  0
    7.7624  -12.4805   19.4419 C   0  0  0  0  0  0  0  0  0  0  0  0
    7.5980  -13.8408   19.3296 C   0  0  0  0  0  0  0  0  0  0  0  0
    7.6757  -14.4575   18.0022 C   0  0  0  0  0  0  0  0  0  0  0  0
    9.0548  -14.6132   17.4758 C   0  0  2  0  0  0  0  0  0  0  0  0
    9.1237  -15.2733   16.1963 N   0  0  0  0  0  0  0  0  0  0  0  0
    9.8643  -15.3817   18.4893 C   0  0  0  0  0  0  0  0  0  0  0  0
    9.7489  -16.6287   18.5340 O   0  0  0  0  0  0  0  0  0  0  0  0
    7.3653  -14.5968   20.4607 C   0  0  0  0  0  0  0  0  0  0  0  0
    7.2948  -14.0070   21.7073 C   0  0  0  0  0  0  0  0  0  0  0  0
   15.3183  -13.5324   18.0283 N   0  0  0  0  0  0  0  0  0  0  0  0
   15.1264  -14.5671   18.9851 C   0  0  0  0  0  0  0  0  0  0  0  0
   16.0271  -14.8968   19.7878 O   0  0  0  0  0  0  0  0  0  0  0  0
   13.7757  -15.2394   18.9721 C   0  0  0  0  0  0  0  0  0  0  0  0
   13.0285  -14.9054   20.2185 C   0  0  0  0  0  0  0  0  0  0  0  0
   11.6438  -15.4496   20.2964 C   0  0  2  0  0  0  0  0  0  0  0  0
   10.7432  -14.7240   19.3818 N   0  0  0  0  0  0  0  0  0  0  0  0
   11.0661  -15.5363   21.6413 C   0  0  0  0  0  0  0  0  0  0  0  0
   10.0931  -14.8205   21.9706 O   0  0  0  0  0  0  0  0  0  0  0  0
   11.5691  -16.4082   22.5979 O   0  0  0  0  0  0  0  0  0  0  0  0
  1  2  1  0
  2  3  2  0
  4  5  1  0
  4  2  1  0
  5  7  1  0
  5  6  1  6
  7  8  2  0
  9 10  1  0
 10 11  2  0
 10 20  1  0
 11 12  1  0
 12 13  2  0
 13 14  1  0
 15 14  1  1
 16 15  1  0
 16  7  1  0
 17 15  1  0
 17 27  1  0
 18 17  2  0
 19 13  1  0
 20 19  2  0
 21 22  1  0
 22 24  1  0
 22 23  2  0
 24 25  1  0
 26 25  1  1
 26 27  1  0
 26 28  1  0
 28 30  1  0
 29 28  2  0
M  END
$$$$
