NYQ.pdb
     RDKit          3D

 30 30  0  0  1  0  0  0  0  0999 V2000
    6.6319  -16.5025   18.2091 N   0  0  0  0  0  0  0  0  0  0  0  0
    6.9529  -17.5649   19.0808 C   0  0  0  0  0  0  0  0  0  0  0  0
    6.4164  -18.6806   18.8578 O   0  0  0  0  0  0  0  0  0  0  0  0
    7.8711  -17.4621   20.2334 C   0  0  0  0  0  0  0  0  0  0  0  0
    8.2365  -16.0083   20.4218 C   0  0  2  0  0  0  0  0  0  0  0  0
    9.0640  -15.6159   19.3230 N   0  0  0  0  0  0  0  0  0  0  0  0
    8.9302  -15.7727   21.7143 C   0  0  0  0  0  0  0  0  0  0  0  0
   10.1472  -16.1067   21.7805 O   0  0  0  0  0  0  0  0  0  0  0  0
   10.7465  -14.6994   30.2335 O   0  0  0  0  0  0  0  0  0  0  0  0
   10.1577  -14.6027   28.9857 C   0  0  0  0  0  0  0  0  0  0  0  0
    9.3581  -15.6369   28.5473 C   0  0  0  0  0  0  0  0  0  0  0  0
    8.7364  -15.5980   27.2977 C   0  0  0  0  0  0  0  0  0  0  0  0
    8.9267  -14.5035   26.4878 C   0  0  0  0  0  0  0  0  0  0  0  0
    8.2705  -14.4677   25.1777 C   0  0  0  0  0  0  0  0  0  0  0  0
    9.0212  -15.1510   24.0947 C   0  0  2  0  0  0  0  0  0  0  0  0
    8.3158  -15.2111   22.8391 N   0  0  0  0  0  0  0  0  0  0  0  0
    9.3555  -16.5462   24.5580 C   0  0  0  0  0  0  0  0  0  0  0  0
    8.4405  -17.4007   24.6095 O   0  0  0  0  0  0  0  0  0  0  0  0
    9.7258  -13.4642   26.9199 C   0  0  0  0  0  0  0  0  0  0  0  0
   10.3391  -13.5063   28.1563 C   0  0  0  0  0  0  0  0  0  0  0  0
   12.1446  -20.3774   21.9231 N   0  0  0  0  0  0  0  0  0  0  0  0
   12.4257  -21.0936   23.1192 C   0  0  0  0  0  0  0  0  0  0  0  0
   12.9414  -22.2328   23.0988 O   0  0  0  0  0  0  0  0  0  0  0  0
   12.0650  -20.3976   24.4085 C   0  0  0  0  0  0  0  0  0  0  0  0
   11.4884  -19.0536   24.1177 C   0  0  0  0  0  0  0  0  0  0  0  0
   11.0519  -18.2758   25.3112 C   0  0  2  0  0  0  0  0  0  0  0  0
   10.6728  -16.9024   24.9317 N   0  0  0  0  0  0  0  0  0  0  0  0
   11.9826  -18.2684   26.4443 C   0  0  0  0  0  0  0  0  0  0  0  0
   12.4747  -17.1969   26.8652 O   0  0  0  0  0  0  0  0  0  0  0  0
   12.3539  -19.4390   27.0926 O   0  0  0  0  0  0  0  0  0  0  0  0
  1  2  1  0
  2  3  2  0
  4  5  1  0
  4  2  1  0
  5  7  1  0
  5  6  1  6
  7  8  2  0
  9 10  1  0
 10 11  2  0
 10 20  1  0
 11 12  1  0
 12 13  2  0
 13 14  1  0
 15 14  1  1
 16 15  1  0
 16  7  1  0
 17 15  1  0
 17 27  1  0
 18 17  2  0
 19 13  1  0
 20 19  2  0
 21 22  1  0
 22 24  1  0
 22 23  2  0
 24 25  1  0
 26 25  1  6
 26 27  1  0
 26 28  1  0
 28 30  1  0
 29 28  2  0
M  END
$$$$
