NYQ.pdb
     RDKit          3D

 30 30  0  0  1  0  0  0  0  0999 V2000
   11.5122  -19.3432   18.0894 N   0  0  0  0  0  0  0  0  0  0  0  0
   11.1134  -17.9973   17.9443 C   0  0  0  0  0  0  0  0  0  0  0  0
   11.3337  -17.4431   16.8367 O   0  0  0  0  0  0  0  0  0  0  0  0
   10.4577  -17.1938   18.9962 C   0  0  0  0  0  0  0  0  0  0  0  0
   10.3574  -18.0375   20.2455 C   0  0  2  0  0  0  0  0  0  0  0  0
    9.1551  -18.8080   20.1616 N   0  0  0  0  0  0  0  0  0  0  0  0
   10.3669  -17.2083   21.4782 C   0  0  0  0  0  0  0  0  0  0  0  0
   11.4377  -16.5932   21.7465 O   0  0  0  0  0  0  0  0  0  0  0  0
    7.0188  -12.3542   18.9016 O   0  0  0  0  0  0  0  0  0  0  0  0
    7.2704  -13.0986   20.0397 C   0  0  0  0  0  0  0  0  0  0  0  0
    8.2677  -12.6840   20.8968 C   0  0  0  0  0  0  0  0  0  0  0  0
    8.5689  -13.3929   22.0615 C   0  0  0  0  0  0  0  0  0  0  0  0
    7.8542  -14.5291   22.3587 C   0  0  0  0  0  0  0  0  0  0  0  0
    8.1741  -15.2683   23.5832 C   0  0  0  0  0  0  0  0  0  0  0  0
    9.3399  -16.1795   23.4652 C   0  0  2  0  0  0  0  0  0  0  0  0
    9.2718  -17.0771   22.3394 N   0  0  0  0  0  0  0  0  0  0  0  0
    9.4521  -16.9725   24.7424 C   0  0  0  0  0  0  0  0  0  0  0  0
    8.4762  -17.6680   25.1089 O   0  0  0  0  0  0  0  0  0  0  0  0
    6.8543  -14.9503   21.5055 C   0  0  0  0  0  0  0  0  0  0  0  0
    6.5593  -14.2467   20.3546 C   0  0  0  0  0  0  0  0  0  0  0  0
   13.9727  -20.9586   26.1750 N   0  0  0  0  0  0  0  0  0  0  0  0
   13.8903  -19.6917   25.5340 C   0  0  0  0  0  0  0  0  0  0  0  0
   14.9047  -19.1133   25.0859 O   0  0  0  0  0  0  0  0  0  0  0  0
   12.5101  -19.0911   25.4284 C   0  0  0  0  0  0  0  0  0  0  0  0
   12.1334  -18.4499   26.7207 C   0  0  0  0  0  0  0  0  0  0  0  0
   10.8064  -17.7727   26.7330 C   0  0  2  0  0  0  0  0  0  0  0  0
   10.6297  -16.9443   25.5260 N   0  0  0  0  0  0  0  0  0  0  0  0
   10.4901  -17.0086   27.9439 C   0  0  0  0  0  0  0  0  0  0  0  0
   10.2732  -15.7769   27.8887 O   0  0  0  0  0  0  0  0  0  0  0  0
   10.4184  -17.6137   29.1918 O   0  0  0  0  0  0  0  0  0  0  0  0
  1  2  1  0
  2  3  2  0
  4  5  1  0
  4  2  1  0
  5  7  1  0
  5  6  1  6
  7  8  2  0
  9 10  1  0
 10 11  2  0
 10 20  1  0
 11 12  1  0
 12 13  2  0
 13 14  1  0
 15 14  1  1
 16 15  1  0
 16  7  1  0
 17 15  1  0
 17 27  1  0
 18 17  2  0
 19 13  1  0
 20 19  2  0
 21 22  1  0
 22 24  1  0
 22 23  2  0
 24 25  1  0
 26 25  1  1
 26 27  1  0
 26 28  1  0
 28 30  1  0
 29 28  2  0
M  END
$$$$
