NYQ.pdb
     RDKit          3D

 30 30  0  0  1  0  0  0  0  0999 V2000
   10.9846  -19.2352   18.3583 N   0  0  0  0  0  0  0  0  0  0  0  0
   10.1888  -18.1480   17.9387 C   0  0  0  0  0  0  0  0  0  0  0  0
    9.9056  -18.0745   16.7153 O   0  0  0  0  0  0  0  0  0  0  0  0
    9.6654  -17.0924   18.8297 C   0  0  0  0  0  0  0  0  0  0  0  0
   10.2524  -17.2984   20.2065 C   0  0  2  0  0  0  0  0  0  0  0  0
    9.7585  -18.5409   20.7148 N   0  0  0  0  0  0  0  0  0  0  0  0
    9.9161  -16.1816   21.1268 C   0  0  0  0  0  0  0  0  0  0  0  0
   10.7212  -15.2083   21.1646 O   0  0  0  0  0  0  0  0  0  0  0  0
    6.5415  -11.1384   27.4653 O   0  0  0  0  0  0  0  0  0  0  0  0
    6.6831  -12.0992   26.4806 C   0  0  0  0  0  0  0  0  0  0  0  0
    7.1734  -11.7200   25.2490 C   0  0  0  0  0  0  0  0  0  0  0  0
    7.3391  -12.6434   24.2148 C   0  0  0  0  0  0  0  0  0  0  0  0
    7.0056  -13.9595   24.4311 C   0  0  0  0  0  0  0  0  0  0  0  0
    7.1827  -14.9244   23.3422 C   0  0  0  0  0  0  0  0  0  0  0  0
    8.5852  -15.0830   22.8826 C   0  0  2  0  0  0  0  0  0  0  0  0
    8.7756  -16.1542   21.9371 N   0  0  0  0  0  0  0  0  0  0  0  0
    9.4566  -15.3105   24.0917 C   0  0  0  0  0  0  0  0  0  0  0  0
    9.4107  -14.4845   25.0330 O   0  0  0  0  0  0  0  0  0  0  0  0
    6.5141  -14.3467   25.6615 C   0  0  0  0  0  0  0  0  0  0  0  0
    6.3516  -13.4306   26.6818 C   0  0  0  0  0  0  0  0  0  0  0  0
    9.1640  -19.0256   28.0212 N   0  0  0  0  0  0  0  0  0  0  0  0
   10.0807  -18.1763   28.7003 C   0  0  0  0  0  0  0  0  0  0  0  0
   10.4127  -18.3820   29.8885 O   0  0  0  0  0  0  0  0  0  0  0  0
   10.6254  -17.0170   27.9027 C   0  0  0  0  0  0  0  0  0  0  0  0
   10.0413  -17.0236   26.5308 C   0  0  0  0  0  0  0  0  0  0  0  0
   11.0139  -16.8067   25.4232 C   0  0  2  0  0  0  0  0  0  0  0  0
   10.3167  -16.4303   24.1797 N   0  0  0  0  0  0  0  0  0  0  0  0
   11.9620  -17.8991   25.1824 C   0  0  0  0  0  0  0  0  0  0  0  0
   11.6567  -18.8650   24.4468 O   0  0  0  0  0  0  0  0  0  0  0  0
   13.2271  -17.9082   25.7550 O   0  0  0  0  0  0  0  0  0  0  0  0
  1  2  1  0
  2  3  2  0
  4  5  1  0
  4  2  1  0
  5  7  1  0
  5  6  1  1
  7  8  2  0
  9 10  1  0
 10 11  2  0
 10 20  1  0
 11 12  1  0
 12 13  2  0
 13 14  1  0
 15 14  1  1
 16 15  1  0
 16  7  1  0
 17 15  1  0
 17 27  1  0
 18 17  2  0
 19 13  1  0
 20 19  2  0
 21 22  1  0
 22 24  1  0
 22 23  2  0
 24 25  1  0
 26 25  1  1
 26 27  1  0
 26 28  1  0
 28 30  1  0
 29 28  2  0
M  END
$$$$
