NYQ.pdb
     RDKit          3D

 30 30  0  0  1  0  0  0  0  0999 V2000
   12.8154  -18.8830   17.8377 N   0  0  0  0  0  0  0  0  0  0  0  0
   11.6414  -18.1570   18.1313 C   0  0  0  0  0  0  0  0  0  0  0  0
   10.6448  -18.3393   17.3857 O   0  0  0  0  0  0  0  0  0  0  0  0
   11.4982  -17.2007   19.2480 C   0  0  0  0  0  0  0  0  0  0  0  0
   10.5699  -17.8053   20.2754 C   0  0  2  0  0  0  0  0  0  0  0  0
    9.3628  -18.1858   19.6089 N   0  0  0  0  0  0  0  0  0  0  0  0
   10.2831  -16.8632   21.3879 C   0  0  0  0  0  0  0  0  0  0  0  0
   11.2624  -16.5046   22.1017 O   0  0  0  0  0  0  0  0  0  0  0  0
    6.5951  -11.7114   27.4613 O   0  0  0  0  0  0  0  0  0  0  0  0
    6.8019  -12.4943   26.3400 C   0  0  0  0  0  0  0  0  0  0  0  0
    7.5574  -11.9850   25.3052 C   0  0  0  0  0  0  0  0  0  0  0  0
    7.8016  -12.7266   24.1476 C   0  0  0  0  0  0  0  0  0  0  0  0
    7.2762  -13.9924   24.0389 C   0  0  0  0  0  0  0  0  0  0  0  0
    7.5368  -14.7665   22.8218 C   0  0  0  0  0  0  0  0  0  0  0  0
    8.8029  -15.5409   22.8444 C   0  0  2  0  0  0  0  0  0  0  0  0
    9.0090  -16.3634   21.6787 N   0  0  0  0  0  0  0  0  0  0  0  0
    8.8093  -16.4016   24.0822 C   0  0  0  0  0  0  0  0  0  0  0  0
    7.9137  -17.2672   24.2202 O   0  0  0  0  0  0  0  0  0  0  0  0
    6.5188  -14.5090   25.0707 C   0  0  0  0  0  0  0  0  0  0  0  0
    6.2795  -13.7726   26.2140 C   0  0  0  0  0  0  0  0  0  0  0  0
   13.3452  -19.5139   24.9120 N   0  0  0  0  0  0  0  0  0  0  0  0
   12.8036  -19.9605   26.1489 C   0  0  0  0  0  0  0  0  0  0  0  0
   13.2925  -20.9295   26.7703 O   0  0  0  0  0  0  0  0  0  0  0  0
   11.6082  -19.1966   26.6630 C   0  0  0  0  0  0  0  0  0  0  0  0
   11.2621  -18.0963   25.7181 C   0  0  0  0  0  0  0  0  0  0  0  0
   10.0748  -17.2803   26.0979 C   0  0  2  0  0  0  0  0  0  0  0  0
    9.8003  -16.2492   25.0804 N   0  0  0  0  0  0  0  0  0  0  0  0
   10.1051  -16.6951   27.4421 C   0  0  0  0  0  0  0  0  0  0  0  0
   10.1569  -17.4232   28.4593 O   0  0  0  0  0  0  0  0  0  0  0  0
   10.0780  -15.3212   27.6417 O   0  0  0  0  0  0  0  0  0  0  0  0
  1  2  1  0
  2  3  2  0
  4  5  1  0
  4  2  1  0
  5  7  1  0
  5  6  1  6
  7  8  2  0
  9 10  1  0
 10 11  2  0
 10 20  1  0
 11 12  1  0
 12 13  2  0
 13 14  1  0
 15 14  1  6
 16 15  1  0
 16  7  1  0
 17 15  1  0
 17 27  1  0
 18 17  2  0
 19 13  1  0
 20 19  2  0
 21 22  1  0
 22 24  1  0
 22 23  2  0
 24 25  1  0
 26 25  1  6
 26 27  1  0
 26 28  1  0
 28 30  1  0
 29 28  2  0
M  END
$$$$
