NYQ.pdb
     RDKit          3D

 30 30  0  0  1  0  0  0  0  0999 V2000
   10.2864  -19.0077   17.3449 N   0  0  0  0  0  0  0  0  0  0  0  0
   11.1091  -17.8720   17.5027 C   0  0  0  0  0  0  0  0  0  0  0  0
   11.9675  -17.6491   16.6107 O   0  0  0  0  0  0  0  0  0  0  0  0
   11.0355  -16.9282   18.6367 C   0  0  0  0  0  0  0  0  0  0  0  0
   10.0789  -17.4908   19.6620 C   0  0  2  0  0  0  0  0  0  0  0  0
    8.8167  -17.6962   19.0211 N   0  0  0  0  0  0  0  0  0  0  0  0
    9.9334  -16.5937   20.8373 C   0  0  0  0  0  0  0  0  0  0  0  0
   10.9929  -16.2689   21.4447 O   0  0  0  0  0  0  0  0  0  0  0  0
    6.8459  -12.0793   27.7214 O   0  0  0  0  0  0  0  0  0  0  0  0
    6.9959  -12.6696   26.4797 C   0  0  0  0  0  0  0  0  0  0  0  0
    6.4294  -13.9073   26.2605 C   0  0  0  0  0  0  0  0  0  0  0  0
    6.5460  -14.5543   25.0287 C   0  0  0  0  0  0  0  0  0  0  0  0
    7.2414  -13.9422   24.0129 C   0  0  0  0  0  0  0  0  0  0  0  0
    7.3595  -14.6256   22.7217 C   0  0  0  0  0  0  0  0  0  0  0  0
    8.6439  -15.3417   22.5197 C   0  0  2  0  0  0  0  0  0  0  0  0
    8.7069  -16.1006   21.2958 N   0  0  0  0  0  0  0  0  0  0  0  0
    8.8664  -16.2560   23.6976 C   0  0  0  0  0  0  0  0  0  0  0  0
    8.1034  -17.2380   23.8521 O   0  0  0  0  0  0  0  0  0  0  0  0
    7.8114  -12.7030   24.2248 C   0  0  0  0  0  0  0  0  0  0  0  0
    7.6939  -12.0663   25.4445 C   0  0  0  0  0  0  0  0  0  0  0  0
   13.8273  -18.8178   24.6225 N   0  0  0  0  0  0  0  0  0  0  0  0
   13.4757  -19.0780   25.9758 C   0  0  0  0  0  0  0  0  0  0  0  0
   14.1275  -19.8770   26.6834 O   0  0  0  0  0  0  0  0  0  0  0  0
   12.2733  -18.3341   26.5027 C   0  0  0  0  0  0  0  0  0  0  0  0
   11.7225  -17.4410   25.4434 C   0  0  0  0  0  0  0  0  0  0  0  0
   10.3093  -17.0131   25.6422 C   0  0  2  0  0  0  0  0  0  0  0  0
    9.9123  -16.0254   24.6220 N   0  0  0  0  0  0  0  0  0  0  0  0
    9.9676  -16.5424   26.9883 C   0  0  0  0  0  0  0  0  0  0  0  0
    9.7572  -15.3285   27.2108 O   0  0  0  0  0  0  0  0  0  0  0  0
    9.8639  -17.4153   28.0633 O   0  0  0  0  0  0  0  0  0  0  0  0
  1  2  1  0
  2  3  2  0
  4  5  1  0
  4  2  1  0
  5  7  1  0
  5  6  1  6
  7  8  2  0
  9 10  1  0
 10 11  2  0
 10 20  1  0
 11 12  1  0
 12 13  2  0
 13 14  1  0
 15 14  1  1
 16 15  1  0
 16  7  1  0
 17 15  1  0
 17 27  1  0
 18 17  2  0
 19 13  1  0
 20 19  2  0
 21 22  1  0
 22 24  1  0
 22 23  2  0
 24 25  1  0
 26 25  1  1
 26 27  1  0
 26 28  1  0
 28 30  1  0
 29 28  2  0
M  END
$$$$
