KPC.pdb
     RDKit          3D

 23 23  0  0  1  0  0  0  0  0999 V2000
    9.4570  -17.8785   17.7890 N   0  0  0  0  0  0  0  0  0  0  0  0
    8.4233  -17.4243   18.7593 C   0  0  1  0  0  0  0  0  0  0  0  0
    7.7857  -18.6499   19.2736 C   0  0  0  0  0  0  0  0  0  0  0  0
    8.4245  -19.9646   19.1912 C   0  0  0  0  0  0  0  0  0  0  0  0
    8.5214  -20.8909   20.3185 C   0  0  0  0  0  0  0  0  0  0  0  0
    9.1854  -22.1950   20.0819 C   0  0  0  0  0  0  0  0  0  0  0  0
   10.6411  -22.0683   20.4261 N   0  0  0  0  0  0  0  0  0  0  0  0
    9.1180  -16.6448   19.7863 C   0  0  0  0  0  0  0  0  0  0  0  0
   10.3909  -16.6007   19.7168 O   0  0  0  0  0  0  0  0  0  0  0  0
    8.4664  -15.9520   20.8316 N   0  0  0  0  0  0  0  0  0  0  0  0
    7.0802  -15.9320   21.1400 C   0  0  0  0  0  0  0  0  0  0  0  0
    6.9142  -14.7800   22.1258 C   0  0  0  0  0  0  0  0  0  0  0  0
    8.2076  -13.9822   21.9764 C   0  0  0  0  0  0  0  0  0  0  0  0
    9.1616  -15.1472   21.8016 C   0  0  1  0  0  0  0  0  0  0  0  0
    9.2726  -15.9423   23.0516 C   0  0  0  0  0  0  0  0  0  0  0  0
    8.4381  -16.8270   23.3295 O   0  0  0  0  0  0  0  0  0  0  0  0
   10.3416  -15.7051   23.9592 N   0  0  0  0  0  0  0  0  0  0  0  0
   10.9057  -16.7088   24.8221 C   0  0  1  0  0  0  0  0  0  0  0  0
   12.3088  -16.3267   25.1947 C   0  0  0  0  0  0  0  0  0  0  0  0
   13.2986  -16.2196   23.6940 S   0  0  0  0  0  0  0  0  0  0  0  0
   10.0791  -16.9161   26.0350 C   0  0  0  0  0  0  0  0  0  0  0  0
   10.3733  -17.9490   26.8983 O   0  0  0  0  0  0  0  0  0  0  0  0
    9.1134  -16.1467   26.2683 O   0  0  0  0  0  0  0  0  0  0  0  0
  2  1  1  6
  3  2  1  0
  4  3  1  0
  5  6  1  0
  5  4  1  0
  7  6  1  0
  8 10  1  0
  8  2  1  0
  9  8  2  0
 10 11  1  0
 12 11  1  0
 13 14  1  0
 13 12  1  0
 14 10  1  0
 15 17  1  0
 14 15  1  1
 16 15  2  0
 18 17  1  0
 18 21  1  0
 18 19  1  1
 20 19  1  0
 21 22  1  0
 23 21  2  0
M  END
$$$$
