KPC.pdb
     RDKit          3D

 23 23  0  0  1  0  0  0  0  0999 V2000
    8.2048  -13.1110   18.7906 N   0  0  0  0  0  0  0  0  0  0  0  0
    7.4413  -13.5526   19.9898 C   0  0  1  0  0  0  0  0  0  0  0  0
    6.7852  -14.8164   19.6082 C   0  0  0  0  0  0  0  0  0  0  0  0
    7.5378  -15.9980   19.1832 C   0  0  0  0  0  0  0  0  0  0  0  0
    6.9111  -17.2528   18.7696 C   0  0  0  0  0  0  0  0  0  0  0  0
    7.8016  -18.3970   18.4609 C   0  0  0  0  0  0  0  0  0  0  0  0
    6.9576  -19.5926   18.1261 N   0  0  0  0  0  0  0  0  0  0  0  0
    8.4084  -13.6955   21.0804 C   0  0  0  0  0  0  0  0  0  0  0  0
    9.6441  -13.6601   20.7660 O   0  0  0  0  0  0  0  0  0  0  0  0
    8.0533  -13.8682   22.4373 N   0  0  0  0  0  0  0  0  0  0  0  0
    6.7540  -14.0128   22.9922 C   0  0  0  0  0  0  0  0  0  0  0  0
    6.9454  -13.8240   24.4937 C   0  0  0  0  0  0  0  0  0  0  0  0
    8.3257  -13.1812   24.6079 C   0  0  0  0  0  0  0  0  0  0  0  0
    9.0171  -13.9549   23.5028 C   0  0  1  0  0  0  0  0  0  0  0  0
    9.1644  -15.3887   23.8626 C   0  0  0  0  0  0  0  0  0  0  0  0
    8.2132  -16.1861   23.7374 O   0  0  0  0  0  0  0  0  0  0  0  0
   10.4033  -15.8792   24.3600 N   0  0  0  0  0  0  0  0  0  0  0  0
   10.7621  -17.2719   24.4015 C   0  0  1  0  0  0  0  0  0  0  0  0
   12.0743  -17.4785   23.7023 C   0  0  0  0  0  0  0  0  0  0  0  0
   13.2676  -16.2934   24.3464 S   0  0  0  0  0  0  0  0  0  0  0  0
   10.8232  -17.7807   25.7924 C   0  0  0  0  0  0  0  0  0  0  0  0
   11.1329  -19.1027   26.0272 O   0  0  0  0  0  0  0  0  0  0  0  0
   10.5916  -17.0013   26.7505 O   0  0  0  0  0  0  0  0  0  0  0  0
  2  1  1  6
  3  2  1  0
  4  3  1  0
  5  6  1  0
  5  4  1  0
  7  6  1  0
  8 10  1  0
  8  2  1  0
  9  8  2  0
 10 11  1  0
 12 11  1  0
 13 14  1  0
 13 12  1  0
 14 10  1  0
 15 17  1  0
 14 15  1  1
 16 15  2  0
 18 17  1  0
 18 21  1  0
 18 19  1  1
 20 19  1  0
 21 22  1  0
 23 21  2  0
M  END
$$$$
