KPC.pdb
     RDKit          3D

 23 23  0  0  1  0  0  0  0  0999 V2000
    9.5496  -16.6742   15.9922 N   0  0  0  0  0  0  0  0  0  0  0  0
    8.5374  -15.9888   16.8419 C   0  0  1  0  0  0  0  0  0  0  0  0
    7.4542  -16.9672   17.0485 C   0  0  0  0  0  0  0  0  0  0  0  0
    7.6516  -18.2179   17.7834 C   0  0  0  0  0  0  0  0  0  0  0  0
    6.5886  -19.1924   18.0255 C   0  0  0  0  0  0  0  0  0  0  0  0
    6.9389  -20.4185   18.7813 C   0  0  0  0  0  0  0  0  0  0  0  0
    5.7031  -21.2537   18.9515 N   0  0  0  0  0  0  0  0  0  0  0  0
    9.2177  -15.5919   18.0767 C   0  0  0  0  0  0  0  0  0  0  0  0
   10.3760  -16.0847   18.2829 O   0  0  0  0  0  0  0  0  0  0  0  0
    8.6701  -14.7093   19.0349 N   0  0  0  0  0  0  0  0  0  0  0  0
    7.3416  -14.2132   19.1122 C   0  0  0  0  0  0  0  0  0  0  0  0
    7.4089  -13.0658   20.1150 C   0  0  0  0  0  0  0  0  0  0  0  0
    8.9012  -12.7606   20.2210 C   0  0  0  0  0  0  0  0  0  0  0  0
    9.4192  -14.1832   20.1457 C   0  0  1  0  0  0  0  0  0  0  0  0
    9.0379  -14.9579   21.3546 C   0  0  0  0  0  0  0  0  0  0  0  0
    7.9517  -15.5686   21.4133 O   0  0  0  0  0  0  0  0  0  0  0  0
    9.9131  -15.0158   22.4742 N   0  0  0  0  0  0  0  0  0  0  0  0
   10.2475  -16.2268   23.1757 C   0  0  1  0  0  0  0  0  0  0  0  0
   10.8046  -17.2338   22.2117 C   0  0  0  0  0  0  0  0  0  0  0  0
   12.4894  -16.7599   21.7871 S   0  0  0  0  0  0  0  0  0  0  0  0
   11.2030  -15.9740   24.2804 C   0  0  0  0  0  0  0  0  0  0  0  0
   11.5002  -16.9790   25.1749 O   0  0  0  0  0  0  0  0  0  0  0  0
   11.7369  -14.8421   24.3940 O   0  0  0  0  0  0  0  0  0  0  0  0
  2  1  1  6
  3  2  1  0
  4  3  1  0
  5  6  1  0
  5  4  1  0
  7  6  1  0
  8 10  1  0
  8  2  1  0
  9  8  2  0
 10 11  1  0
 12 11  1  0
 13 14  1  0
 13 12  1  0
 14 10  1  0
 15 17  1  0
 14 15  1  1
 16 15  2  0
 18 17  1  0
 18 21  1  0
 18 19  1  6
 20 19  1  0
 21 22  1  0
 23 21  2  0
M  END
$$$$
