KPC.pdb
     RDKit          3D

 23 23  0  0  1  0  0  0  0  0999 V2000
    6.0200  -18.7911   19.1330 N   0  0  0  0  0  0  0  0  0  0  0  0
    5.8895  -17.7419   20.1810 C   0  0  1  0  0  0  0  0  0  0  0  0
    5.2621  -18.4037   21.3393 C   0  0  0  0  0  0  0  0  0  0  0  0
    3.8204  -18.3548   21.5892 C   0  0  0  0  0  0  0  0  0  0  0  0
    2.8860  -19.3906   21.1509 C   0  0  0  0  0  0  0  0  0  0  0  0
    1.4449  -19.1775   21.4255 C   0  0  0  0  0  0  0  0  0  0  0  0
    0.6725  -20.3561   20.9079 N   0  0  0  0  0  0  0  0  0  0  0  0
    7.2385  -17.2382   20.4483 C   0  0  0  0  0  0  0  0  0  0  0  0
    8.2066  -17.8526   19.8893 O   0  0  0  0  0  0  0  0  0  0  0  0
    7.5208  -16.1292   21.2774 N   0  0  0  0  0  0  0  0  0  0  0  0
    6.6261  -15.4075   22.1115 C   0  0  0  0  0  0  0  0  0  0  0  0
    7.3823  -14.1391   22.4933 C   0  0  0  0  0  0  0  0  0  0  0  0
    8.5285  -14.0802   21.4861 C   0  0  0  0  0  0  0  0  0  0  0  0
    8.8363  -15.5631   21.4213 C   0  0  1  0  0  0  0  0  0  0  0  0
    9.3996  -16.0510   22.7065 C   0  0  0  0  0  0  0  0  0  0  0  0
    8.6629  -16.2895   23.6844 O   0  0  0  0  0  0  0  0  0  0  0  0
   10.8005  -16.2556   22.8432 N   0  0  0  0  0  0  0  0  0  0  0  0
   11.4097  -16.9659   23.9361 C   0  0  1  0  0  0  0  0  0  0  0  0
   12.7864  -17.4171   23.5428 C   0  0  0  0  0  0  0  0  0  0  0  0
   12.6600  -18.4528   22.0750 S   0  0  0  0  0  0  0  0  0  0  0  0
   11.4600  -16.1400   25.1661 C   0  0  0  0  0  0  0  0  0  0  0  0
   11.9033  -16.6937   26.3474 O   0  0  0  0  0  0  0  0  0  0  0  0
   11.0972  -14.9377   25.1231 O   0  0  0  0  0  0  0  0  0  0  0  0
  2  1  1  6
  3  2  1  0
  4  3  1  0
  5  6  1  0
  5  4  1  0
  7  6  1  0
  8 10  1  0
  8  2  1  0
  9  8  2  0
 10 11  1  0
 12 11  1  0
 13 14  1  0
 13 12  1  0
 14 10  1  0
 15 17  1  0
 14 15  1  1
 16 15  2  0
 18 17  1  0
 18 21  1  0
 18 19  1  6
 20 19  1  0
 21 22  1  0
 23 21  2  0
M  END
$$$$
