KPC.pdb
     RDKit          3D

 23 23  0  0  1  0  0  0  0  0999 V2000
    7.9397  -17.6850   17.2687 N   0  0  0  0  0  0  0  0  0  0  0  0
    7.2340  -16.7926   18.2288 C   0  0  1  0  0  0  0  0  0  0  0  0
    6.1225  -17.5895   18.7789 C   0  0  0  0  0  0  0  0  0  0  0  0
    6.3379  -18.8133   19.5530 C   0  0  0  0  0  0  0  0  0  0  0  0
    5.6343  -20.0692   19.2965 C   0  0  0  0  0  0  0  0  0  0  0  0
    6.0090  -21.2469   20.1150 C   0  0  0  0  0  0  0  0  0  0  0  0
    4.9077  -21.5268   21.0960 N   0  0  0  0  0  0  0  0  0  0  0  0
    8.2198  -16.3832   19.2316 C   0  0  0  0  0  0  0  0  0  0  0  0
    9.3391  -16.9949   19.2258 O   0  0  0  0  0  0  0  0  0  0  0  0
    8.0018  -15.3665   20.1886 N   0  0  0  0  0  0  0  0  0  0  0  0
    6.7817  -14.7178   20.5166 C   0  0  0  0  0  0  0  0  0  0  0  0
    7.1925  -13.5051   21.3455 C   0  0  0  0  0  0  0  0  0  0  0  0
    8.6876  -13.3637   21.0695 C   0  0  0  0  0  0  0  0  0  0  0  0
    9.0412  -14.8372   21.0319 C   0  0  1  0  0  0  0  0  0  0  0  0
    8.8945  -15.4588   22.3732 C   0  0  0  0  0  0  0  0  0  0  0  0
    7.8369  -16.0296   22.7074 O   0  0  0  0  0  0  0  0  0  0  0  0
    9.9674  -15.4124   23.3058 N   0  0  0  0  0  0  0  0  0  0  0  0
   10.4690  -16.5582   24.0170 C   0  0  1  0  0  0  0  0  0  0  0  0
   10.9444  -17.5935   23.0394 C   0  0  0  0  0  0  0  0  0  0  0  0
   12.4251  -16.9795   22.2186 S   0  0  0  0  0  0  0  0  0  0  0  0
   11.5533  -16.1878   24.9573 C   0  0  0  0  0  0  0  0  0  0  0  0
   12.0403  -17.1213   25.8461 O   0  0  0  0  0  0  0  0  0  0  0  0
   12.0224  -15.0222   24.9376 O   0  0  0  0  0  0  0  0  0  0  0  0
  2  1  1  6
  3  2  1  0
  4  3  1  0
  5  6  1  0
  5  4  1  0
  7  6  1  0
  8 10  1  0
  8  2  1  0
  9  8  2  0
 10 11  1  0
 12 11  1  0
 13 14  1  0
 13 12  1  0
 14 10  1  0
 15 17  1  0
 14 15  1  1
 16 15  2  0
 18 17  1  0
 18 21  1  0
 18 19  1  6
 20 19  1  0
 21 22  1  0
 23 21  2  0
M  END
$$$$
