KPC.pdb
     RDKit          3D

 23 23  0  0  1  0  0  0  0  0999 V2000
    6.0320  -18.5682   19.1618 N   0  0  0  0  0  0  0  0  0  0  0  0
    5.8870  -17.2617   19.8607 C   0  0  1  0  0  0  0  0  0  0  0  0
    5.2014  -17.5575   21.1317 C   0  0  0  0  0  0  0  0  0  0  0  0
    4.3402  -18.7281   21.3088 C   0  0  0  0  0  0  0  0  0  0  0  0
    2.9706  -18.8110   20.8032 C   0  0  0  0  0  0  0  0  0  0  0  0
    2.2166  -20.0607   21.0620 C   0  0  0  0  0  0  0  0  0  0  0  0
    0.9424  -20.0322   20.2687 N   0  0  0  0  0  0  0  0  0  0  0  0
    7.2366  -16.7187   20.0304 C   0  0  0  0  0  0  0  0  0  0  0  0
    8.2099  -17.5271   19.8689 O   0  0  0  0  0  0  0  0  0  0  0  0
    7.5138  -15.3723   20.3583 N   0  0  0  0  0  0  0  0  0  0  0  0
    6.5915  -14.3358   20.6620 C   0  0  0  0  0  0  0  0  0  0  0  0
    7.4109  -13.0508   20.5993 C   0  0  0  0  0  0  0  0  0  0  0  0
    8.6802  -13.4628   19.8573 C   0  0  0  0  0  0  0  0  0  0  0  0
    8.8477  -14.8419   20.4639 C   0  0  1  0  0  0  0  0  0  0  0  0
    9.1861  -14.7556   21.9079 C   0  0  0  0  0  0  0  0  0  0  0  0
    8.3503  -14.3565   22.7435 O   0  0  0  0  0  0  0  0  0  0  0  0
   10.4801  -15.1300   22.3643 N   0  0  0  0  0  0  0  0  0  0  0  0
   10.7446  -15.7108   23.6538 C   0  0  1  0  0  0  0  0  0  0  0  0
    9.9444  -16.9706   23.8162 C   0  0  0  0  0  0  0  0  0  0  0  0
   10.3864  -17.7406   25.3830 S   0  0  0  0  0  0  0  0  0  0  0  0
   12.1895  -15.9787   23.8481 C   0  0  0  0  0  0  0  0  0  0  0  0
   13.0462  -15.9402   22.7697 O   0  0  0  0  0  0  0  0  0  0  0  0
   12.6244  -16.2397   24.9978 O   0  0  0  0  0  0  0  0  0  0  0  0
  2  1  1  6
  3  2  1  0
  4  3  1  0
  5  6  1  0
  5  4  1  0
  7  6  1  0
  8 10  1  0
  8  2  1  0
  9  8  2  0
 10 11  1  0
 12 11  1  0
 13 14  1  0
 13 12  1  0
 14 10  1  0
 15 17  1  0
 14 15  1  1
 16 15  2  0
 18 17  1  0
 18 21  1  0
 18 19  1  6
 20 19  1  0
 21 22  1  0
 23 21  2  0
M  END
$$$$
