KPC.pdb
     RDKit          3D

 23 23  0  0  1  0  0  0  0  0999 V2000
    7.6196  -19.0190   21.7681 N   0  0  0  0  0  0  0  0  0  0  0  0
    7.0100  -17.8255   22.4162 C   0  0  1  0  0  0  0  0  0  0  0  0
    6.6460  -18.2485   23.7807 C   0  0  0  0  0  0  0  0  0  0  0  0
    7.6290  -18.7672   24.7334 C   0  0  0  0  0  0  0  0  0  0  0  0
    7.3050  -19.1427   26.1090 C   0  0  0  0  0  0  0  0  0  0  0  0
    8.3961  -19.6965   26.9458 C   0  0  0  0  0  0  0  0  0  0  0  0
    7.8548  -19.9960   28.3137 N   0  0  0  0  0  0  0  0  0  0  0  0
    8.0149  -16.7608   22.3766 C   0  0  0  0  0  0  0  0  0  0  0  0
    9.2388  -17.1196   22.3937 O   0  0  0  0  0  0  0  0  0  0  0  0
    7.7077  -15.3824   22.3223 N   0  0  0  0  0  0  0  0  0  0  0  0
    6.4316  -14.7644   22.4044 C   0  0  0  0  0  0  0  0  0  0  0  0
    6.6629  -13.3255   21.9544 C   0  0  0  0  0  0  0  0  0  0  0  0
    8.0241  -13.3730   21.2642 C   0  0  0  0  0  0  0  0  0  0  0  0
    8.7062  -14.3533   22.1978 C   0  0  1  0  0  0  0  0  0  0  0  0
    8.9117  -13.7586   23.5436 C   0  0  0  0  0  0  0  0  0  0  0  0
    9.4887  -12.6614   23.6826 O   0  0  0  0  0  0  0  0  0  0  0  0
    8.4495  -14.4370   24.7051 N   0  0  0  0  0  0  0  0  0  0  0  0
    8.5987  -13.9361   26.0456 C   0  0  1  0  0  0  0  0  0  0  0  0
    7.8199  -12.6620   26.2003 C   0  0  0  0  0  0  0  0  0  0  0  0
    6.0619  -13.0423   26.1104 S   0  0  0  0  0  0  0  0  0  0  0  0
    8.1744  -14.9358   27.0544 C   0  0  0  0  0  0  0  0  0  0  0  0
    8.4263  -14.7127   28.3906 O   0  0  0  0  0  0  0  0  0  0  0  0
    7.5863  -15.9826   26.6835 O   0  0  0  0  0  0  0  0  0  0  0  0
  2  1  1  6
  3  2  1  0
  4  3  1  0
  5  6  1  0
  5  4  1  0
  7  6  1  0
  8 10  1  0
  8  2  1  0
  9  8  2  0
 10 11  1  0
 12 11  1  0
 13 14  1  0
 13 12  1  0
 14 10  1  0
 15 17  1  0
 14 15  1  1
 16 15  2  0
 18 17  1  0
 18 21  1  0
 18 19  1  6
 20 19  1  0
 21 22  1  0
 23 21  2  0
M  END
$$$$
