KPC.pdb
     RDKit          3D

 23 23  0  0  1  0  0  0  0  0999 V2000
    8.3890  -17.6401   17.1761 N   0  0  0  0  0  0  0  0  0  0  0  0
    7.5825  -16.7234   18.0278 C   0  0  1  0  0  0  0  0  0  0  0  0
    6.4938  -17.5450   18.5873 C   0  0  0  0  0  0  0  0  0  0  0  0
    6.5324  -19.0084   18.5898 C   0  0  0  0  0  0  0  0  0  0  0  0
    5.9930  -19.8318   19.6711 C   0  0  0  0  0  0  0  0  0  0  0  0
    6.1744  -21.2998   19.5736 C   0  0  0  0  0  0  0  0  0  0  0  0
    5.5586  -21.9464   20.7804 N   0  0  0  0  0  0  0  0  0  0  0  0
    8.4890  -16.1763   19.0398 C   0  0  0  0  0  0  0  0  0  0  0  0
    9.6359  -16.7242   19.1458 O   0  0  0  0  0  0  0  0  0  0  0  0
    8.1673  -15.0945   19.8904 N   0  0  0  0  0  0  0  0  0  0  0  0
    6.9472  -14.3716   19.9666 C   0  0  0  0  0  0  0  0  0  0  0  0
    7.2769  -13.1312   20.7908 C   0  0  0  0  0  0  0  0  0  0  0  0
    8.8027  -13.0759   20.7729 C   0  0  0  0  0  0  0  0  0  0  0  0
    9.0746  -14.5638   20.8736 C   0  0  1  0  0  0  0  0  0  0  0  0
    8.6654  -15.0957   22.1990 C   0  0  0  0  0  0  0  0  0  0  0  0
    7.5060  -15.5111   22.3973 O   0  0  0  0  0  0  0  0  0  0  0  0
    9.5976  -15.1399   23.2723 N   0  0  0  0  0  0  0  0  0  0  0  0
    9.8657  -16.3131   24.0609 C   0  0  1  0  0  0  0  0  0  0  0  0
   10.2167  -17.4608   23.1591 C   0  0  0  0  0  0  0  0  0  0  0  0
   10.6139  -18.8950   24.1734 S   0  0  0  0  0  0  0  0  0  0  0  0
   10.9441  -16.0742   25.0494 C   0  0  0  0  0  0  0  0  0  0  0  0
   10.7439  -16.3931   26.3749 O   0  0  0  0  0  0  0  0  0  0  0  0
   12.0364  -15.5812   24.6712 O   0  0  0  0  0  0  0  0  0  0  0  0
  2  1  1  6
  3  2  1  0
  4  3  1  0
  5  6  1  0
  5  4  1  0
  7  6  1  0
  8 10  1  0
  8  2  1  0
  9  8  2  0
 10 11  1  0
 12 11  1  0
 13 14  1  0
 13 12  1  0
 14 10  1  0
 15 17  1  0
 14 15  1  1
 16 15  2  0
 18 17  1  0
 18 21  1  0
 18 19  1  6
 20 19  1  0
 21 22  1  0
 23 21  2  0
M  END
$$$$
