KPC.pdb
     RDKit          3D

 23 23  0  0  1  0  0  0  0  0999 V2000
    8.5532  -17.1717   16.3269 N   0  0  0  0  0  0  0  0  0  0  0  0
    7.7140  -16.5523   17.3891 C   0  0  1  0  0  0  0  0  0  0  0  0
    6.8790  -17.6402   17.9299 C   0  0  0  0  0  0  0  0  0  0  0  0
    7.4433  -18.9040   18.4069 C   0  0  0  0  0  0  0  0  0  0  0  0
    6.6359  -20.0102   18.9193 C   0  0  0  0  0  0  0  0  0  0  0  0
    7.3438  -21.2478   19.3253 C   0  0  0  0  0  0  0  0  0  0  0  0
    6.3378  -22.2360   19.8401 N   0  0  0  0  0  0  0  0  0  0  0  0
    8.6322  -15.9694   18.3701 C   0  0  0  0  0  0  0  0  0  0  0  0
    9.8507  -16.3425   18.3148 O   0  0  0  0  0  0  0  0  0  0  0  0
    8.2481  -15.0338   19.3571 N   0  0  0  0  0  0  0  0  0  0  0  0
    6.9461  -14.5424   19.6403 C   0  0  0  0  0  0  0  0  0  0  0  0
    7.1705  -13.3358   20.5461 C   0  0  0  0  0  0  0  0  0  0  0  0
    8.6526  -13.0153   20.3668 C   0  0  0  0  0  0  0  0  0  0  0  0
    9.1732  -14.4365   20.2841 C   0  0  1  0  0  0  0  0  0  0  0  0
    9.0254  -15.1388   21.5848 C   0  0  0  0  0  0  0  0  0  0  0  0
    7.9538  -15.6943   21.8998 O   0  0  0  0  0  0  0  0  0  0  0  0
   10.1133  -15.1893   22.4996 N   0  0  0  0  0  0  0  0  0  0  0  0
   10.7040  -16.4082   22.9850 C   0  0  1  0  0  0  0  0  0  0  0  0
   11.1447  -17.2545   21.8261 C   0  0  0  0  0  0  0  0  0  0  0  0
   11.9164  -18.7523   22.4621 S   0  0  0  0  0  0  0  0  0  0  0  0
   11.8389  -16.1404   23.9002 C   0  0  0  0  0  0  0  0  0  0  0  0
   11.8397  -16.6781   25.1689 O   0  0  0  0  0  0  0  0  0  0  0  0
   12.7949  -15.4231   23.5121 O   0  0  0  0  0  0  0  0  0  0  0  0
  2  1  1  6
  3  2  1  0
  4  3  1  0
  5  6  1  0
  5  4  1  0
  7  6  1  0
  8 10  1  0
  8  2  1  0
  9  8  2  0
 10 11  1  0
 12 11  1  0
 13 14  1  0
 13 12  1  0
 14 10  1  0
 15 17  1  0
 14 15  1  1
 16 15  2  0
 18 17  1  0
 18 21  1  0
 18 19  1  6
 20 19  1  0
 21 22  1  0
 23 21  2  0
M  END
$$$$
