IKL.pdb
     RDKit          3D

 26 25  0  0  1  0  0  0  0  0999 V2000
   24.9491  -40.3166  -10.0048 C   0  0  0  0  0  0  0  0  0  0  0  0
   25.5487  -38.9071  -10.0264 C   0  0  0  0  0  0  0  0  0  0  0  0
   26.0405  -38.6307   -8.6250 C   0  0  2  0  0  0  0  0  0  0  0  0
   24.9283  -38.9517   -7.6775 C   0  0  0  0  0  0  0  0  0  0  0  0
   26.6337  -37.2695   -8.4552 C   0  0  2  0  0  0  0  0  0  0  0  0
   27.6601  -37.0760   -9.4334 N   0  0  0  0  0  0  0  0  0  0  0  0
   27.1379  -37.0348   -7.0742 C   0  0  0  0  0  0  0  0  0  0  0  0
   26.4384  -37.2339   -6.0605 O   0  0  0  0  0  0  0  0  0  0  0  0
   28.4627  -36.5685   -6.9301 N   0  0  0  0  0  0  0  0  0  0  0  0
   29.1526  -36.2257   -5.7376 C   0  0  1  0  0  0  0  0  0  0  0  0
   30.6772  -36.3851   -5.8176 C   0  0  0  0  0  0  0  0  0  0  0  0
   31.3803  -36.1336   -4.5324 C   0  0  0  0  0  0  0  0  0  0  0  0
   32.8953  -36.2088   -4.6491 C   0  0  0  0  0  0  0  0  0  0  0  0
   33.5916  -36.2048   -3.3266 C   0  0  0  0  0  0  0  0  0  0  0  0
   35.0285  -36.1261   -3.5467 N   0  0  0  0  0  0  0  0  0  0  0  0
   28.7297  -35.0030   -5.0665 C   0  0  0  0  0  0  0  0  0  0  0  0
   28.7046  -33.8649   -5.6569 O   0  0  0  0  0  0  0  0  0  0  0  0
   25.2577  -31.7140   -3.7998 C   0  0  0  0  0  0  0  0  0  0  0  0
   25.0107  -33.1539   -3.3371 C   0  0  1  0  0  0  0  0  0  0  0  0
   23.6121  -33.5699   -3.7234 C   0  0  0  0  0  0  0  0  0  0  0  0
   26.0494  -34.0777   -3.9374 C   0  0  0  0  0  0  0  0  0  0  0  0
   27.3523  -34.0192   -3.2008 C   0  0  2  0  0  0  0  0  0  0  0  0
   28.3194  -34.9893   -3.7242 N   0  0  0  0  0  0  0  0  0  0  0  0
   27.1779  -34.2381   -1.7410 C   0  0  0  0  0  0  0  0  0  0  0  0
   26.9870  -35.4000   -1.3201 O   0  0  0  0  0  0  0  0  0  0  0  0
   27.2206  -33.1994   -0.8414 O   0  0  0  0  0  0  0  0  0  0  0  0
  2  1  1  0
  3  2  1  0
  3  4  1  1
  5  3  1  0
  5  6  1  6
  7  5  1  0
  7  8  2  0
  9  7  1  0
 10  9  1  0
 10 11  1  6
 12 11  1  0
 13 12  1  0
 13 14  1  0
 15 14  1  0
 16 23  1  0
 16 10  1  0
 17 16  2  0
 19 21  1  0
 19 18  1  6
 20 19  1  0
 22 21  1  6
 22 23  1  0
 22 24  1  0
 24 25  2  0
 24 26  1  0
M  END
$$$$
