IKL.pdb
     RDKit          3D

 26 25  0  0  1  0  0  0  0  0999 V2000
   17.1194  -26.1753  -17.1887 C   0  0  0  0  0  0  0  0  0  0  0  0
   18.1538  -26.9373  -16.3543 C   0  0  0  0  0  0  0  0  0  0  0  0
   19.3529  -26.0274  -16.2259 C   0  0  2  0  0  0  0  0  0  0  0  0
   19.8387  -25.7124  -17.6053 C   0  0  0  0  0  0  0  0  0  0  0  0
   20.4021  -26.5456  -15.2963 C   0  0  2  0  0  0  0  0  0  0  0  0
   19.8385  -26.7074  -13.9909 N   0  0  0  0  0  0  0  0  0  0  0  0
   21.6163  -25.6845  -15.2691 C   0  0  0  0  0  0  0  0  0  0  0  0
   21.6517  -24.5915  -14.6687 O   0  0  0  0  0  0  0  0  0  0  0  0
   22.7610  -26.1430  -15.9568 N   0  0  0  0  0  0  0  0  0  0  0  0
   24.0405  -25.5342  -16.0442 C   0  0  1  0  0  0  0  0  0  0  0  0
   25.1815  -26.5008  -16.3909 C   0  0  0  0  0  0  0  0  0  0  0  0
   26.5345  -25.8893  -16.3228 C   0  0  0  0  0  0  0  0  0  0  0  0
   27.6500  -26.8484  -16.7102 C   0  0  0  0  0  0  0  0  0  0  0  0
   29.0063  -26.2210  -16.6821 C   0  0  0  0  0  0  0  0  0  0  0  0
   30.0135  -27.2604  -16.8387 N   0  0  0  0  0  0  0  0  0  0  0  0
   24.1136  -24.2668  -16.7602 C   0  0  0  0  0  0  0  0  0  0  0  0
   23.6898  -24.1280  -17.9626 O   0  0  0  0  0  0  0  0  0  0  0  0
   23.2759  -19.6432  -18.4030 C   0  0  0  0  0  0  0  0  0  0  0  0
   23.8804  -19.4763  -17.0047 C   0  0  1  0  0  0  0  0  0  0  0  0
   23.1300  -18.3980  -16.2614 C   0  0  0  0  0  0  0  0  0  0  0  0
   23.8389  -20.7942  -16.2603 C   0  0  0  0  0  0  0  0  0  0  0  0
   24.7251  -21.8264  -16.8868 C   0  0  2  0  0  0  0  0  0  0  0  0
   24.6542  -23.1089  -16.1795 N   0  0  0  0  0  0  0  0  0  0  0  0
   26.1412  -21.3796  -16.9531 C   0  0  0  0  0  0  0  0  0  0  0  0
   26.4268  -20.3658  -17.6271 O   0  0  0  0  0  0  0  0  0  0  0  0
   27.1449  -22.0495  -16.2945 O   0  0  0  0  0  0  0  0  0  0  0  0
  2  1  1  0
  3  2  1  0
  3  4  1  6
  5  3  1  0
  5  6  1  1
  7  5  1  0
  7  8  2  0
  9  7  1  0
 10  9  1  0
 10 11  1  6
 12 11  1  0
 13 12  1  0
 13 14  1  0
 15 14  1  0
 16 23  1  0
 16 10  1  0
 17 16  2  0
 19 21  1  0
 19 18  1  6
 20 19  1  0
 22 21  1  1
 22 23  1  0
 22 24  1  0
 24 25  2  0
 24 26  1  0
M  END
$$$$
