IKL.pdb
     RDKit          3D

 26 25  0  0  1  0  0  0  0  0999 V2000
   23.4668  -34.0807   -3.1785 C   0  0  0  0  0  0  0  0  0  0  0  0
   24.7750  -34.2569   -2.4012 C   0  0  0  0  0  0  0  0  0  0  0  0
   25.4024  -32.8860   -2.3047 C   0  0  2  0  0  0  0  0  0  0  0  0
   25.6157  -32.3809   -3.6966 C   0  0  0  0  0  0  0  0  0  0  0  0
   26.6136  -32.8409   -1.4304 C   0  0  2  0  0  0  0  0  0  0  0  0
   27.6034  -33.7356   -1.9478 N   0  0  0  0  0  0  0  0  0  0  0  0
   26.2993  -33.1323   -0.0046 C   0  0  0  0  0  0  0  0  0  0  0  0
   25.3550  -32.5860    0.6007 O   0  0  0  0  0  0  0  0  0  0  0  0
   27.1156  -34.0669    0.6692 N   0  0  0  0  0  0  0  0  0  0  0  0
   27.0937  -34.4295    2.0415 C   0  0  1  0  0  0  0  0  0  0  0  0
   27.9690  -35.6407    2.3926 C   0  0  0  0  0  0  0  0  0  0  0  0
   27.2623  -36.9450    2.3014 C   0  0  0  0  0  0  0  0  0  0  0  0
   28.1554  -38.1376    2.6086 C   0  0  0  0  0  0  0  0  0  0  0  0
   27.4464  -39.4495    2.5080 C   0  0  0  0  0  0  0  0  0  0  0  0
   28.3673  -40.5162    2.8731 N   0  0  0  0  0  0  0  0  0  0  0  0
   27.1914  -33.3416    3.0066 C   0  0  0  0  0  0  0  0  0  0  0  0
   27.7266  -32.2117    2.7210 O   0  0  0  0  0  0  0  0  0  0  0  0
   25.6346  -28.7265    5.1414 C   0  0  0  0  0  0  0  0  0  0  0  0
   25.9173  -30.0610    5.8396 C   0  0  1  0  0  0  0  0  0  0  0  0
   24.8834  -30.2913    6.9150 C   0  0  0  0  0  0  0  0  0  0  0  0
   25.9232  -31.1862    4.8264 C   0  0  0  0  0  0  0  0  0  0  0  0
   26.7464  -32.3523    5.2801 C   0  0  2  0  0  0  0  0  0  0  0  0
   26.7042  -33.4579    4.3178 N   0  0  0  0  0  0  0  0  0  0  0  0
   26.3233  -32.8475    6.6162 C   0  0  0  0  0  0  0  0  0  0  0  0
   26.8488  -32.3573    7.6394 O   0  0  0  0  0  0  0  0  0  0  0  0
   25.3708  -33.8286    6.7580 O   0  0  0  0  0  0  0  0  0  0  0  0
  2  1  1  0
  3  2  1  0
  3  4  1  6
  5  3  1  0
  5  6  1  6
  7  5  1  0
  7  8  2  0
  9  7  1  0
 10  9  1  0
 10 11  1  6
 12 11  1  0
 13 12  1  0
 13 14  1  0
 15 14  1  0
 16 23  1  0
 16 10  1  0
 17 16  2  0
 19 21  1  0
 19 18  1  6
 20 19  1  0
 22 21  1  6
 22 23  1  0
 22 24  1  0
 24 25  2  0
 24 26  1  0
M  END
$$$$
