IKL.pdb
     RDKit          3D

 26 25  0  0  1  0  0  0  0  0999 V2000
   24.0759  -20.4331  -22.1450 C   0  0  0  0  0  0  0  0  0  0  0  0
   23.8099  -19.4242  -21.0235 C   0  0  0  0  0  0  0  0  0  0  0  0
   22.9735  -20.1435  -19.9914 C   0  0  2  0  0  0  0  0  0  0  0  0
   21.7636  -20.6890  -20.6817 C   0  0  0  0  0  0  0  0  0  0  0  0
   22.6838  -19.3229  -18.7764 C   0  0  2  0  0  0  0  0  0  0  0  0
   23.9096  -18.7965  -18.2585 N   0  0  0  0  0  0  0  0  0  0  0  0
   21.9296  -20.0821  -17.7414 C   0  0  0  0  0  0  0  0  0  0  0  0
   21.0394  -20.9076  -18.0289 O   0  0  0  0  0  0  0  0  0  0  0  0
   22.2513  -19.8422  -16.3877 N   0  0  0  0  0  0  0  0  0  0  0  0
   21.6472  -20.3921  -15.2266 C   0  0  1  0  0  0  0  0  0  0  0  0
   22.4079  -20.1141  -13.9226 C   0  0  0  0  0  0  0  0  0  0  0  0
   21.8468  -20.8090  -12.7345 C   0  0  0  0  0  0  0  0  0  0  0  0
   22.6509  -20.5766  -11.4643 C   0  0  0  0  0  0  0  0  0  0  0  0
   22.1543  -21.3665  -10.2966 C   0  0  0  0  0  0  0  0  0  0  0  0
   22.9031  -20.9807   -9.1094 N   0  0  0  0  0  0  0  0  0  0  0  0
   20.2036  -20.2333  -15.1034 C   0  0  0  0  0  0  0  0  0  0  0  0
   19.6366  -19.0837  -15.0650 O   0  0  0  0  0  0  0  0  0  0  0  0
   16.3459  -23.8414  -17.1035 C   0  0  0  0  0  0  0  0  0  0  0  0
   17.0109  -22.5142  -16.7231 C   0  0  1  0  0  0  0  0  0  0  0  0
   16.2059  -21.3708  -17.2916 C   0  0  0  0  0  0  0  0  0  0  0  0
   17.1365  -22.4090  -15.2178 C   0  0  0  0  0  0  0  0  0  0  0  0
   17.8920  -21.1861  -14.7968 C   0  0  2  0  0  0  0  0  0  0  0  0
   19.3341  -21.3319  -15.0186 N   0  0  0  0  0  0  0  0  0  0  0  0
   17.6464  -20.8419  -13.3718 C   0  0  0  0  0  0  0  0  0  0  0  0
   16.6868  -20.0934  -13.0850 O   0  0  0  0  0  0  0  0  0  0  0  0
   18.4444  -21.3235  -12.3612 O   0  0  0  0  0  0  0  0  0  0  0  0
  2  1  1  0
  3  2  1  0
  3  4  1  6
  5  3  1  0
  5  6  1  1
  7  5  1  0
  7  8  2  0
  9  7  1  0
 10  9  1  0
 10 11  1  1
 12 11  1  0
 13 12  1  0
 13 14  1  0
 15 14  1  0
 16 23  1  0
 16 10  1  0
 17 16  2  0
 19 21  1  0
 19 18  1  1
 20 19  1  0
 22 21  1  1
 22 23  1  0
 22 24  1  0
 24 25  2  0
 24 26  1  0
M  END
$$$$
