IKL.pdb
     RDKit          3D

 26 25  0  0  1  0  0  0  0  0999 V2000
   27.3266  -18.9758  -18.8483 C   0  0  0  0  0  0  0  0  0  0  0  0
   26.8834  -19.8189  -17.6485 C   0  0  0  0  0  0  0  0  0  0  0  0
   28.1466  -20.2654  -16.9505 C   0  0  2  0  0  0  0  0  0  0  0  0
   29.0622  -20.8409  -17.9841 C   0  0  0  0  0  0  0  0  0  0  0  0
   27.8996  -21.1500  -15.7715 C   0  0  2  0  0  0  0  0  0  0  0  0
   27.2455  -22.3460  -16.2069 N   0  0  0  0  0  0  0  0  0  0  0  0
   27.1339  -20.4646  -14.6942 C   0  0  0  0  0  0  0  0  0  0  0  0
   27.5010  -19.3828  -14.1928 O   0  0  0  0  0  0  0  0  0  0  0  0
   25.9489  -21.0816  -14.2375 N   0  0  0  0  0  0  0  0  0  0  0  0
   25.0187  -20.6034  -13.2776 C   0  0  1  0  0  0  0  0  0  0  0  0
   23.5620  -20.5805  -13.7611 C   0  0  0  0  0  0  0  0  0  0  0  0
   23.0973  -19.2453  -14.2198 C   0  0  0  0  0  0  0  0  0  0  0  0
   23.6768  -18.8345  -15.5651 C   0  0  0  0  0  0  0  0  0  0  0  0
   23.2981  -17.4477  -15.9739 C   0  0  0  0  0  0  0  0  0  0  0  0
   23.8783  -17.1620  -17.2782 N   0  0  0  0  0  0  0  0  0  0  0  0
   25.1721  -21.0991  -11.9156 C   0  0  0  0  0  0  0  0  0  0  0  0
   25.2657  -22.3485  -11.6423 O   0  0  0  0  0  0  0  0  0  0  0  0
   27.9017  -18.4301   -7.8377 C   0  0  0  0  0  0  0  0  0  0  0  0
   27.3658  -19.5938   -8.6784 C   0  0  1  0  0  0  0  0  0  0  0  0
   28.0804  -20.8643   -8.2865 C   0  0  0  0  0  0  0  0  0  0  0  0
   25.8682  -19.7209   -8.4944 C   0  0  0  0  0  0  0  0  0  0  0  0
   25.2668  -20.7280   -9.4258 C   0  0  2  0  0  0  0  0  0  0  0  0
   25.2284  -20.2390  -10.8077 N   0  0  0  0  0  0  0  0  0  0  0  0
   23.8972  -21.1264   -9.0074 C   0  0  0  0  0  0  0  0  0  0  0  0
   22.9209  -20.7573   -9.6959 O   0  0  0  0  0  0  0  0  0  0  0  0
   23.6744  -21.8890   -7.8854 O   0  0  0  0  0  0  0  0  0  0  0  0
  2  1  1  0
  3  2  1  0
  3  4  1  6
  5  3  1  0
  5  6  1  6
  7  5  1  0
  7  8  2  0
  9  7  1  0
 10  9  1  0
 10 11  1  6
 12 11  1  0
 13 12  1  0
 13 14  1  0
 15 14  1  0
 16 23  1  0
 16 10  1  0
 17 16  2  0
 19 21  1  0
 19 18  1  1
 20 19  1  0
 22 21  1  1
 22 23  1  0
 22 24  1  0
 24 25  2  0
 24 26  1  0
M  END
$$$$
