IKL.pdb
     RDKit          3D

 26 25  0  0  1  0  0  0  0  0999 V2000
   19.1379  -14.7025  -19.5475 C   0  0  0  0  0  0  0  0  0  0  0  0
   18.7696  -14.4455  -18.0829 C   0  0  0  0  0  0  0  0  0  0  0  0
   19.1781  -13.0223  -17.7833 C   0  0  2  0  0  0  0  0  0  0  0  0
   20.6464  -12.9027  -18.0435 C   0  0  0  0  0  0  0  0  0  0  0  0
   18.7404  -12.5435  -16.4369 C   0  0  2  0  0  0  0  0  0  0  0  0
   17.4737  -13.1273  -16.1167 N   0  0  0  0  0  0  0  0  0  0  0  0
   18.7014  -11.0582  -16.3442 C   0  0  0  0  0  0  0  0  0  0  0  0
   18.9729  -10.3171  -17.3104 O   0  0  0  0  0  0  0  0  0  0  0  0
   18.3403  -10.4877  -15.1041 N   0  0  0  0  0  0  0  0  0  0  0  0
   18.3359   -9.1180  -14.7310 C   0  0  1  0  0  0  0  0  0  0  0  0
   17.0405   -8.6481  -14.0545 C   0  0  0  0  0  0  0  0  0  0  0  0
   15.8249   -8.8133  -14.8936 C   0  0  0  0  0  0  0  0  0  0  0  0
   14.5607   -8.2820  -14.2351 C   0  0  0  0  0  0  0  0  0  0  0  0
   13.3444   -8.4182  -15.0930 C   0  0  0  0  0  0  0  0  0  0  0  0
   12.1736   -8.0243  -14.3228 N   0  0  0  0  0  0  0  0  0  0  0  0
   19.5435   -8.6110  -14.0915 C   0  0  0  0  0  0  0  0  0  0  0  0
   19.8797   -8.9345  -12.8970 O   0  0  0  0  0  0  0  0  0  0  0  0
   24.1747   -9.4335  -15.9618 C   0  0  0  0  0  0  0  0  0  0  0  0
   23.0057   -9.1023  -15.0278 C   0  0  1  0  0  0  0  0  0  0  0  0
   23.2253   -9.7749  -13.6944 C   0  0  0  0  0  0  0  0  0  0  0  0
   22.8712   -7.6018  -14.8762 C   0  0  0  0  0  0  0  0  0  0  0  0
   21.6423   -7.2180  -14.1108 C   0  0  2  0  0  0  0  0  0  0  0  0
   20.4228   -7.7318  -14.7426 N   0  0  0  0  0  0  0  0  0  0  0  0
   21.5263   -5.7455  -13.9441 C   0  0  0  0  0  0  0  0  0  0  0  0
   22.4203   -5.1331  -13.3203 O   0  0  0  0  0  0  0  0  0  0  0  0
   20.4641   -5.0388  -14.4564 O   0  0  0  0  0  0  0  0  0  0  0  0
  2  1  1  0
  3  2  1  0
  3  4  1  1
  5  3  1  0
  5  6  1  6
  7  5  1  0
  7  8  2  0
  9  7  1  0
 10  9  1  0
 10 11  1  1
 12 11  1  0
 13 12  1  0
 13 14  1  0
 15 14  1  0
 16 23  1  0
 16 10  1  0
 17 16  2  0
 19 21  1  0
 19 18  1  6
 20 19  1  0
 22 21  1  6
 22 23  1  0
 22 24  1  0
 24 25  2  0
 24 26  1  0
M  END
$$$$
