IKL.pdb
     RDKit          3D

 26 25  0  0  1  0  0  0  0  0999 V2000
   18.6922  -20.2385  -14.4806 C   0  0  0  0  0  0  0  0  0  0  0  0
   19.8949  -19.3537  -14.1381 C   0  0  0  0  0  0  0  0  0  0  0  0
   20.7070  -20.1138  -13.1159 C   0  0  2  0  0  0  0  0  0  0  0  0
   19.7807  -20.5441  -12.0230 C   0  0  0  0  0  0  0  0  0  0  0  0
   21.9243  -19.3813  -12.6521 C   0  0  2  0  0  0  0  0  0  0  0  0
   22.6573  -18.9153  -13.7893 N   0  0  0  0  0  0  0  0  0  0  0  0
   22.7748  -20.2029  -11.7476 C   0  0  0  0  0  0  0  0  0  0  0  0
   22.3124  -20.8189  -10.7661 O   0  0  0  0  0  0  0  0  0  0  0  0
   24.1562  -20.2733  -12.0309 N   0  0  0  0  0  0  0  0  0  0  0  0
   25.1589  -21.0158  -11.3537 C   0  0  1  0  0  0  0  0  0  0  0  0
   26.0185  -21.9017  -12.2662 C   0  0  0  0  0  0  0  0  0  0  0  0
   25.2330  -22.7592  -13.1919 C   0  0  0  0  0  0  0  0  0  0  0  0
   25.9389  -23.0249  -14.5131 C   0  0  0  0  0  0  0  0  0  0  0  0
   25.1458  -23.8819  -15.4460 C   0  0  0  0  0  0  0  0  0  0  0  0
   25.8975  -24.0630  -16.6794 N   0  0  0  0  0  0  0  0  0  0  0  0
   25.9286  -20.3029  -10.3419 C   0  0  0  0  0  0  0  0  0  0  0  0
   25.5349  -19.1958   -9.8283 O   0  0  0  0  0  0  0  0  0  0  0  0
   27.2094  -20.4719   -4.9795 C   0  0  0  0  0  0  0  0  0  0  0  0
   26.9754  -19.6975   -6.2811 C   0  0  1  0  0  0  0  0  0  0  0  0
   28.1346  -18.7610   -6.5208 C   0  0  0  0  0  0  0  0  0  0  0  0
   26.7947  -20.6623   -7.4340 C   0  0  0  0  0  0  0  0  0  0  0  0
   27.7208  -20.3635   -8.5727 C   0  0  2  0  0  0  0  0  0  0  0  0
   27.1566  -20.7824   -9.8597 N   0  0  0  0  0  0  0  0  0  0  0  0
   29.0523  -20.9985   -8.3900 C   0  0  0  0  0  0  0  0  0  0  0  0
   29.2250  -22.1713   -8.7879 O   0  0  0  0  0  0  0  0  0  0  0  0
   30.0983  -20.3327   -7.7963 O   0  0  0  0  0  0  0  0  0  0  0  0
  2  1  1  0
  3  2  1  0
  3  4  1  1
  5  3  1  0
  5  6  1  6
  7  5  1  0
  7  8  2  0
  9  7  1  0
 10  9  1  0
 10 11  1  6
 12 11  1  0
 13 12  1  0
 13 14  1  0
 15 14  1  0
 16 23  1  0
 16 10  1  0
 17 16  2  0
 19 21  1  0
 19 18  1  1
 20 19  1  0
 22 21  1  1
 22 23  1  0
 22 24  1  0
 24 25  2  0
 24 26  1  0
M  END
$$$$
