QRF.pdb
     RDKit          3D

 32 32  0  0  1  0  0  0  0  0999 V2000
   20.1924  -24.2257  -14.1021 N   0  0  0  0  0  0  0  0  0  0  0  0
   20.0219  -23.0774  -14.9050 C   0  0  0  0  0  0  0  0  0  0  0  0
   18.9473  -22.9759  -15.5606 O   0  0  0  0  0  0  0  0  0  0  0  0
   21.0175  -21.9845  -15.0318 C   0  0  0  0  0  0  0  0  0  0  0  0
   22.1660  -22.2107  -14.0801 C   0  0  0  0  0  0  0  0  0  0  0  0
   23.4886  -22.2749  -14.7736 C   0  0  2  0  0  0  0  0  0  0  0  0
   23.4968  -23.4156  -15.6666 N   0  0  0  0  0  0  0  0  0  0  0  0
   24.6747  -22.2615  -13.9023 C   0  0  0  0  0  0  0  0  0  0  0  0
   25.0204  -23.3385  -13.3501 O   0  0  0  0  0  0  0  0  0  0  0  0
   31.6608  -21.4996  -10.5660 N   0  0  0  0  0  0  0  0  0  0  0  0
   31.8499  -21.8513  -11.9328 C   0  0  0  0  0  0  0  0  0  0  0  0
   32.6067  -22.8395  -12.2601 N   0  0  0  0  0  0  0  0  0  0  0  0
   31.1832  -21.0849  -12.9317 N   0  0  0  0  0  0  0  0  0  0  0  0
   30.2236  -20.0883  -12.5297 C   0  0  0  0  0  0  0  0  0  0  0  0
   28.8961  -20.7321  -12.1342 C   0  0  0  0  0  0  0  0  0  0  0  0
   27.8626  -20.5672  -13.2110 C   0  0  0  0  0  0  0  0  0  0  0  0
   26.5751  -21.1910  -12.7411 C   0  0  2  0  0  0  0  0  0  0  0  0
   25.4721  -21.1281  -13.6210 N   0  0  0  0  0  0  0  0  0  0  0  0
   26.1848  -20.7669  -11.3930 C   0  0  0  0  0  0  0  0  0  0  0  0
   25.4360  -19.7610  -11.2625 O   0  0  0  0  0  0  0  0  0  0  0  0
   32.7488  -23.0618  -13.2681 N   0  0  0  0  0  0  0  0  0  0  0  0
   26.6312  -21.4632  -10.2395 C   0  0  1  0  0  0  0  0  0  0  0  0
   26.3574  -21.0034   -8.8712 C   0  0  0  0  0  0  0  0  0  0  0  0
   27.6985  -20.9630   -8.1786 C   0  0  0  0  0  0  0  0  0  0  0  0
   27.6601  -20.3733   -6.8304 C   0  0  0  0  0  0  0  0  0  0  0  0
   27.1558  -21.0088   -5.7246 C   0  0  0  0  0  0  0  0  0  0  0  0
   27.1776  -20.3621   -4.5089 C   0  0  0  0  0  0  0  0  0  0  0  0
   27.6974  -19.0813   -4.3728 C   0  0  0  0  0  0  0  0  0  0  0  0
   28.1991  -18.4496   -5.4749 C   0  0  0  0  0  0  0  0  0  0  0  0
   28.1705  -19.1051   -6.6756 C   0  0  0  0  0  0  0  0  0  0  0  0
   25.6483  -19.7242   -8.8683 O   0  0  0  0  0  0  0  0  0  0  0  0
   24.4901  -19.6403   -8.4044 O   0  0  0  0  0  0  0  0  0  0  0  0
  1  2  1  0
  2  3  2  0
  4  2  1  0
  4  5  1  0
  6  5  1  0
  6  7  1  1
  8  6  1  0
  8  9  2  0
 10 11  1  0
 11 13  1  0
 11 12  2  0
 13 14  1  0
 14 15  1  0
 15 16  1  0
 17 16  1  6
 17 18  1  0
 18  8  1  0
 19 17  1  0
 20 19  2  0
 21 19  1  0
 22 21  1  0
 22 23  1  1
 23 24  1  0
 24 25  2  0
 24 29  1  0
 25 26  1  0
 26 27  2  0
 28 27  1  0
 29 28  2  0
 30 22  1  0
 31 30  2  0
 32 30  1  0
M  END
$$$$
