QRF.pdb
     RDKit          3D

 32 32  0  0  1  0  0  0  0  0999 V2000
   26.1213  -14.9706  -15.7069 N   0  0  0  0  0  0  0  0  0  0  0  0
   27.2094  -14.9271  -16.6049 C   0  0  0  0  0  0  0  0  0  0  0  0
   27.8106  -13.8251  -16.7431 O   0  0  0  0  0  0  0  0  0  0  0  0
   27.6932  -16.0850  -17.3967 C   0  0  0  0  0  0  0  0  0  0  0  0
   26.8275  -17.2932  -17.1382 C   0  0  0  0  0  0  0  0  0  0  0  0
   27.2026  -18.4662  -17.9854 C   0  0  2  0  0  0  0  0  0  0  0  0
   27.0046  -18.1227  -19.3788 N   0  0  0  0  0  0  0  0  0  0  0  0
   26.5517  -19.7417  -17.6450 C   0  0  0  0  0  0  0  0  0  0  0  0
   25.3250  -19.8701  -17.8959 O   0  0  0  0  0  0  0  0  0  0  0  0
   29.6567  -26.4710  -15.7630 N   0  0  0  0  0  0  0  0  0  0  0  0
   28.3039  -26.6652  -16.1625 C   0  0  0  0  0  0  0  0  0  0  0  0
   27.5656  -27.5458  -15.5827 N   0  0  0  0  0  0  0  0  0  0  0  0
   27.7839  -25.8633  -17.2191 N   0  0  0  0  0  0  0  0  0  0  0  0
   28.6165  -24.8423  -17.8021 C   0  0  0  0  0  0  0  0  0  0  0  0
   27.9223  -23.4821  -17.7692 C   0  0  0  0  0  0  0  0  0  0  0  0
   27.1739  -23.2778  -16.4835 C   0  0  0  0  0  0  0  0  0  0  0  0
   26.4588  -21.9542  -16.5487 C   0  0  2  0  0  0  0  0  0  0  0  0
   27.1896  -20.8532  -17.0473 N   0  0  0  0  0  0  0  0  0  0  0  0
   25.7813  -21.6001  -15.2977 C   0  0  0  0  0  0  0  0  0  0  0  0
   26.4759  -21.3785  -14.2691 O   0  0  0  0  0  0  0  0  0  0  0  0
   26.5828  -27.6783  -15.9021 N   0  0  0  0  0  0  0  0  0  0  0  0
   24.3672  -21.5027  -15.2233 C   0  0  2  0  0  0  0  0  0  0  0  0
   23.6322  -21.4811  -13.9514 C   0  0  0  0  0  0  0  0  0  0  0  0
   23.3085  -20.0293  -13.6921 C   0  0  0  0  0  0  0  0  0  0  0  0
   22.4353  -19.8079  -12.5280 C   0  0  0  0  0  0  0  0  0  0  0  0
   22.8787  -19.7469  -11.2316 C   0  0  0  0  0  0  0  0  0  0  0  0
   21.9705  -19.5276  -10.2198 C   0  0  0  0  0  0  0  0  0  0  0  0
   20.6152  -19.3665  -10.4778 C   0  0  0  0  0  0  0  0  0  0  0  0
   20.1752  -19.4276  -11.7693 C   0  0  0  0  0  0  0  0  0  0  0  0
   21.0895  -19.6459  -12.7634 C   0  0  0  0  0  0  0  0  0  0  0  0
   22.4585  -22.3527  -13.9968 O   0  0  0  0  0  0  0  0  0  0  0  0
   22.1064  -22.9982  -12.9853 O   0  0  0  0  0  0  0  0  0  0  0  0
  1  2  1  0
  2  3  2  0
  4  2  1  0
  4  5  1  0
  6  5  1  0
  6  7  1  6
  8  6  1  0
  8  9  2  0
 10 11  1  0
 11 13  1  0
 11 12  2  0
 13 14  1  0
 14 15  1  0
 15 16  1  0
 17 16  1  1
 17 18  1  0
 18  8  1  0
 19 17  1  0
 20 19  2  0
 21 19  1  0
 22 21  1  0
 22 23  1  6
 23 24  1  0
 24 25  2  0
 24 29  1  0
 25 26  1  0
 26 27  2  0
 28 27  1  0
 29 28  2  0
 30 22  1  0
 31 30  2  0
 32 30  1  0
M  END
$$$$
