QRF.pdb
     RDKit          3D

 32 32  0  0  1  0  0  0  0  0999 V2000
   27.7276  -23.8972  -16.6570 N   0  0  0  0  0  0  0  0  0  0  0  0
   28.9439  -24.1431  -17.3296 C   0  0  0  0  0  0  0  0  0  0  0  0
   29.2486  -25.3455  -17.5674 O   0  0  0  0  0  0  0  0  0  0  0  0
   29.8875  -23.0878  -17.7742 C   0  0  0  0  0  0  0  0  0  0  0  0
   29.3287  -21.7218  -17.4617 C   0  0  0  0  0  0  0  0  0  0  0  0
   28.4641  -21.1855  -18.5568 C   0  0  2  0  0  0  0  0  0  0  0  0
   29.3096  -20.6534  -19.6060 N   0  0  0  0  0  0  0  0  0  0  0  0
   27.4339  -20.2166  -18.1489 C   0  0  0  0  0  0  0  0  0  0  0  0
   27.7986  -19.0495  -17.8501 O   0  0  0  0  0  0  0  0  0  0  0  0
   19.5183  -18.9779  -20.4054 N   0  0  0  0  0  0  0  0  0  0  0  0
   19.5406  -19.7809  -19.2297 C   0  0  0  0  0  0  0  0  0  0  0  0
   18.4454  -20.1706  -18.6773 N   0  0  0  0  0  0  0  0  0  0  0  0
   20.8025  -20.1441  -18.6768 N   0  0  0  0  0  0  0  0  0  0  0  0
   22.0089  -19.6807  -19.3136 C   0  0  0  0  0  0  0  0  0  0  0  0
   23.2479  -20.2224  -18.6034 C   0  0  0  0  0  0  0  0  0  0  0  0
   23.9624  -19.1423  -17.8433 C   0  0  0  0  0  0  0  0  0  0  0  0
   25.1975  -19.7326  -17.2161 C   0  0  2  0  0  0  0  0  0  0  0  0
   26.0484  -20.4840  -18.0564 N   0  0  0  0  0  0  0  0  0  0  0  0
   24.9238  -20.4617  -15.9739 C   0  0  0  0  0  0  0  0  0  0  0  0
   24.7312  -21.7066  -16.0267 O   0  0  0  0  0  0  0  0  0  0  0  0
   18.4873  -20.8146  -17.8593 N   0  0  0  0  0  0  0  0  0  0  0  0
   24.8720  -19.7966  -14.7210 C   0  0  2  0  0  0  0  0  0  0  0  0
   24.5172  -20.4766  -13.4679 C   0  0  0  0  0  0  0  0  0  0  0  0
   25.0839  -19.6175  -12.3631 C   0  0  0  0  0  0  0  0  0  0  0  0
   24.7247  -20.0679  -11.0085 C   0  0  0  0  0  0  0  0  0  0  0  0
   23.5056  -19.8474  -10.4203 C   0  0  0  0  0  0  0  0  0  0  0  0
   23.2774  -20.3216   -9.1476 C   0  0  0  0  0  0  0  0  0  0  0  0
   24.2506  -21.0182   -8.4428 C   0  0  0  0  0  0  0  0  0  0  0  0
   25.4642  -21.2368   -9.0299 C   0  0  0  0  0  0  0  0  0  0  0  0
   25.6758  -20.7597  -10.2946 C   0  0  0  0  0  0  0  0  0  0  0  0
   23.0747  -20.6972  -13.3686 O   0  0  0  0  0  0  0  0  0  0  0  0
   22.6257  -21.7649  -12.8975 O   0  0  0  0  0  0  0  0  0  0  0  0
  1  2  1  0
  2  3  2  0
  4  2  1  0
  4  5  1  0
  6  5  1  0
  6  7  1  6
  8  6  1  0
  8  9  2  0
 10 11  1  0
 11 13  1  0
 11 12  2  0
 13 14  1  0
 14 15  1  0
 15 16  1  0
 17 16  1  6
 17 18  1  0
 18  8  1  0
 19 17  1  0
 20 19  2  0
 21 19  1  0
 22 21  1  0
 22 23  1  1
 23 24  1  0
 24 25  2  0
 24 29  1  0
 25 26  1  0
 26 27  2  0
 28 27  1  0
 29 28  2  0
 30 22  1  0
 31 30  2  0
 32 30  1  0
M  END
$$$$
