QRF.pdb
     RDKit          3D

 32 32  0  0  1  0  0  0  0  0999 V2000
   12.6854  -24.2639   -8.6799 N   0  0  0  0  0  0  0  0  0  0  0  0
   12.8274  -22.8986   -8.3515 C   0  0  0  0  0  0  0  0  0  0  0  0
   12.6128  -22.0518   -9.2636 O   0  0  0  0  0  0  0  0  0  0  0  0
   13.2119  -22.3915   -7.0111 C   0  0  0  0  0  0  0  0  0  0  0  0
   13.3663  -23.5382   -6.0430 C   0  0  0  0  0  0  0  0  0  0  0  0
   14.7575  -23.6634   -5.5109 C   0  0  2  0  0  0  0  0  0  0  0  0
   15.6921  -23.5905   -6.6154 N   0  0  0  0  0  0  0  0  0  0  0  0
   15.0185  -24.8342   -4.6579 C   0  0  0  0  0  0  0  0  0  0  0  0
   14.3027  -24.9980   -3.6356 O   0  0  0  0  0  0  0  0  0  0  0  0
   18.5496  -31.9960   -7.2265 N   0  0  0  0  0  0  0  0  0  0  0  0
   18.0290  -30.8962   -7.9660 C   0  0  0  0  0  0  0  0  0  0  0  0
   18.2388  -30.7950   -9.2318 N   0  0  0  0  0  0  0  0  0  0  0  0
   17.2703  -29.9084   -7.2742 N   0  0  0  0  0  0  0  0  0  0  0  0
   16.7814  -30.1970   -5.9500 C   0  0  0  0  0  0  0  0  0  0  0  0
   16.0355  -28.9986   -5.3665 C   0  0  0  0  0  0  0  0  0  0  0  0
   16.9598  -28.0942   -4.6033 C   0  0  0  0  0  0  0  0  0  0  0  0
   16.1605  -26.9413   -4.0560 C   0  0  2  0  0  0  0  0  0  0  0  0
   16.0207  -25.8058   -4.8843 N   0  0  0  0  0  0  0  0  0  0  0  0
   16.5655  -26.5466   -2.7033 C   0  0  0  0  0  0  0  0  0  0  0  0
   17.6233  -25.8770   -2.5540 O   0  0  0  0  0  0  0  0  0  0  0  0
   17.8300  -29.9916   -9.7545 N   0  0  0  0  0  0  0  0  0  0  0  0
   15.7941  -26.9020   -1.5662 C   0  0  2  0  0  0  0  0  0  0  0  0
   16.1808  -26.5472   -0.1939 C   0  0  0  0  0  0  0  0  0  0  0  0
   15.0719  -25.6649    0.3271 C   0  0  0  0  0  0  0  0  0  0  0  0
   15.2230  -25.2827    1.7406 C   0  0  0  0  0  0  0  0  0  0  0  0
   16.0442  -24.2781    2.1845 C   0  0  0  0  0  0  0  0  0  0  0  0
   16.1012  -24.0023    3.5326 C   0  0  0  0  0  0  0  0  0  0  0  0
   15.3481  -24.7159    4.4561 C   0  0  0  0  0  0  0  0  0  0  0  0
   14.5308  -25.7163    4.0125 C   0  0  0  0  0  0  0  0  0  0  0  0
   14.4849  -25.9782    2.6704 C   0  0  0  0  0  0  0  0  0  0  0  0
   16.4236  -27.7389    0.6187 O   0  0  0  0  0  0  0  0  0  0  0  0
   15.9357  -28.8424    0.2906 O   0  0  0  0  0  0  0  0  0  0  0  0
  1  2  1  0
  2  3  2  0
  4  2  1  0
  4  5  1  0
  6  5  1  0
  6  7  1  6
  8  6  1  0
  8  9  2  0
 10 11  1  0
 11 13  1  0
 11 12  2  0
 13 14  1  0
 14 15  1  0
 15 16  1  0
 17 16  1  6
 17 18  1  0
 18  8  1  0
 19 17  1  0
 20 19  2  0
 21 19  1  0
 22 21  1  0
 22 23  1  6
 23 24  1  0
 24 25  2  0
 24 29  1  0
 25 26  1  0
 26 27  2  0
 28 27  1  0
 29 28  2  0
 30 22  1  0
 31 30  2  0
 32 30  1  0
M  END
$$$$
