QRF.pdb
     RDKit          3D

 32 32  0  0  1  0  0  0  0  0999 V2000
   20.9588  -25.1065  -13.6169 N   0  0  0  0  0  0  0  0  0  0  0  0
   21.8924  -26.1643  -13.6579 C   0  0  0  0  0  0  0  0  0  0  0  0
   23.0616  -25.8980  -14.0543 O   0  0  0  0  0  0  0  0  0  0  0  0
   21.5942  -27.5649  -13.2691 C   0  0  0  0  0  0  0  0  0  0  0  0
   20.2265  -27.6522  -12.6383 C   0  0  0  0  0  0  0  0  0  0  0  0
   20.2827  -27.9193  -11.1687 C   0  0  2  0  0  0  0  0  0  0  0  0
   20.6620  -29.3011  -10.9558 N   0  0  0  0  0  0  0  0  0  0  0  0
   19.0769  -27.5652  -10.4026 C   0  0  0  0  0  0  0  0  0  0  0  0
   17.9600  -27.9476  -10.8392 O   0  0  0  0  0  0  0  0  0  0  0  0
   16.7473  -25.4753   -2.2669 N   0  0  0  0  0  0  0  0  0  0  0  0
   17.1627  -26.6023   -3.0316 C   0  0  0  0  0  0  0  0  0  0  0  0
   17.4168  -27.7279   -2.4614 N   0  0  0  0  0  0  0  0  0  0  0  0
   17.2917  -26.4576   -4.4431 N   0  0  0  0  0  0  0  0  0  0  0  0
   17.1654  -25.1479   -5.0301 C   0  0  0  0  0  0  0  0  0  0  0  0
   17.2367  -25.2199   -6.5542 C   0  0  0  0  0  0  0  0  0  0  0  0
   17.9230  -26.4739   -7.0140 C   0  0  0  0  0  0  0  0  0  0  0  0
   17.8567  -26.5345   -8.5171 C   0  0  2  0  0  0  0  0  0  0  0  0
   19.0588  -26.8177   -9.2023 N   0  0  0  0  0  0  0  0  0  0  0  0
   17.1827  -25.3773   -9.1139 C   0  0  0  0  0  0  0  0  0  0  0  0
   17.7276  -24.2435   -9.0298 O   0  0  0  0  0  0  0  0  0  0  0  0
   17.6293  -28.5615   -3.0492 N   0  0  0  0  0  0  0  0  0  0  0  0
   15.9364  -25.5087   -9.7803 C   0  0  2  0  0  0  0  0  0  0  0  0
   15.2634  -24.3862  -10.4478 C   0  0  0  0  0  0  0  0  0  0  0  0
   14.3853  -25.0086  -11.5068 C   0  0  0  0  0  0  0  0  0  0  0  0
   13.6038  -24.0350  -12.2866 C   0  0  0  0  0  0  0  0  0  0  0  0
   12.2975  -23.7086  -12.0260 C   0  0  0  0  0  0  0  0  0  0  0  0
   11.6661  -22.7765  -12.8192 C   0  0  0  0  0  0  0  0  0  0  0  0
   12.3182  -22.1572  -13.8778 C   0  0  0  0  0  0  0  0  0  0  0  0
   13.6191  -22.4834  -14.1361 C   0  0  0  0  0  0  0  0  0  0  0  0
   14.2326  -23.4110  -13.3393 C   0  0  0  0  0  0  0  0  0  0  0  0
   14.5387  -23.5510   -9.4904 O   0  0  0  0  0  0  0  0  0  0  0  0
   14.3435  -22.3383   -9.7247 O   0  0  0  0  0  0  0  0  0  0  0  0
  1  2  1  0
  2  3  2  0
  4  2  1  0
  4  5  1  0
  6  5  1  0
  6  7  1  6
  8  6  1  0
  8  9  2  0
 10 11  1  0
 11 13  1  0
 11 12  2  0
 13 14  1  0
 14 15  1  0
 15 16  1  0
 17 16  1  1
 17 18  1  0
 18  8  1  0
 19 17  1  0
 20 19  2  0
 21 19  1  0
 22 21  1  0
 22 23  1  6
 23 24  1  0
 24 25  2  0
 24 29  1  0
 25 26  1  0
 26 27  2  0
 28 27  1  0
 29 28  2  0
 30 22  1  0
 31 30  2  0
 32 30  1  0
M  END
$$$$
