QRF.pdb
     RDKit          3D

 32 32  0  0  1  0  0  0  0  0999 V2000
   21.6120  -17.8613  -15.7054 N   0  0  0  0  0  0  0  0  0  0  0  0
   21.9071  -18.1902  -17.0459 C   0  0  0  0  0  0  0  0  0  0  0  0
   21.1324  -17.7499  -17.9408 O   0  0  0  0  0  0  0  0  0  0  0  0
   23.0622  -19.0173  -17.4742 C   0  0  0  0  0  0  0  0  0  0  0  0
   23.8923  -19.4146  -16.2789 C   0  0  0  0  0  0  0  0  0  0  0  0
   25.1245  -20.1723  -16.6557 C   0  0  2  0  0  0  0  0  0  0  0  0
   24.7827  -21.1553  -17.6635 N   0  0  0  0  0  0  0  0  0  0  0  0
   25.8751  -20.7767  -15.5432 C   0  0  0  0  0  0  0  0  0  0  0  0
   25.3795  -21.7790  -14.9652 O   0  0  0  0  0  0  0  0  0  0  0  0
   33.1909  -21.6395  -13.1232 N   0  0  0  0  0  0  0  0  0  0  0  0
   32.6966  -22.8941  -13.5804 C   0  0  0  0  0  0  0  0  0  0  0  0
   33.1614  -23.9972  -13.1076 N   0  0  0  0  0  0  0  0  0  0  0  0
   31.6755  -22.9026  -14.5740 N   0  0  0  0  0  0  0  0  0  0  0  0
   31.1900  -21.6499  -15.0942 C   0  0  0  0  0  0  0  0  0  0  0  0
   29.6645  -21.5899  -15.0476 C   0  0  0  0  0  0  0  0  0  0  0  0
   29.1783  -20.9304  -13.7893 C   0  0  0  0  0  0  0  0  0  0  0  0
   27.6780  -20.8188  -13.8539 C   0  0  2  0  0  0  0  0  0  0  0  0
   27.1217  -20.3230  -15.0537 N   0  0  0  0  0  0  0  0  0  0  0  0
   27.0981  -20.1341  -12.6945 C   0  0  0  0  0  0  0  0  0  0  0  0
   27.0076  -18.8766  -12.7107 O   0  0  0  0  0  0  0  0  0  0  0  0
   32.7874  -24.9026  -13.4625 N   0  0  0  0  0  0  0  0  0  0  0  0
   26.6395  -20.8556  -11.5614 C   0  0  2  0  0  0  0  0  0  0  0  0
   26.1163  -20.2018  -10.3542 C   0  0  0  0  0  0  0  0  0  0  0  0
   24.9389  -19.3765  -10.8151 C   0  0  0  0  0  0  0  0  0  0  0  0
   23.7842  -20.1742  -11.2593 C   0  0  0  0  0  0  0  0  0  0  0  0
   23.7045  -20.8059  -12.4739 C   0  0  0  0  0  0  0  0  0  0  0  0
   22.5757  -21.5326  -12.7812 C   0  0  0  0  0  0  0  0  0  0  0  0
   21.5142  -21.6428  -11.8924 C   0  0  0  0  0  0  0  0  0  0  0  0
   21.5950  -21.0129  -10.6831 C   0  0  0  0  0  0  0  0  0  0  0  0
   22.7227  -20.2950  -10.3924 C   0  0  0  0  0  0  0  0  0  0  0  0
   25.7875  -21.1787   -9.3165 O   0  0  0  0  0  0  0  0  0  0  0  0
   25.9768  -22.3996   -9.5096 O   0  0  0  0  0  0  0  0  0  0  0  0
  1  2  1  0
  2  3  2  0
  4  2  1  0
  4  5  1  0
  6  5  1  0
  6  7  1  6
  8  6  1  0
  8  9  2  0
 10 11  1  0
 11 13  1  0
 11 12  2  0
 13 14  1  0
 14 15  1  0
 15 16  1  0
 17 16  1  6
 17 18  1  0
 18  8  1  0
 19 17  1  0
 20 19  2  0
 21 19  1  0
 22 21  1  0
 22 23  1  6
 23 24  1  0
 24 25  2  0
 24 29  1  0
 25 26  1  0
 26 27  2  0
 28 27  1  0
 29 28  2  0
 30 22  1  0
 31 30  2  0
 32 30  1  0
M  END
$$$$
