RQH.pdb
     RDKit          3D

 31 31  0  0  1  0  0  0  0  0999 V2000
    8.7114  -13.6766   19.4441 N   0  0  0  0  0  0  0  0  0  0  0  0
    7.6514  -13.7630   18.4979 C   0  0  0  0  0  0  0  0  0  0  0  0
    7.5119  -12.8645   17.5740 N   0  0  0  0  0  0  0  0  0  0  0  0
    6.7593  -14.8729   18.6129 N   0  0  0  0  0  0  0  0  0  0  0  0
    6.9433  -15.8074   19.6827 C   0  0  0  0  0  0  0  0  0  0  0  0
    5.8606  -16.8722   19.6299 C   0  0  0  0  0  0  0  0  0  0  0  0
    6.2199  -17.9084   20.6761 C   0  0  0  0  0  0  0  0  0  0  0  0
    5.5375  -17.5987   22.0006 C   0  0  2  0  0  0  0  0  0  0  0  0
    4.3655  -16.8286   21.7468 N   0  0  0  0  0  0  0  0  0  0  0  0
    6.5227  -16.9153   22.8579 C   0  0  0  0  0  0  0  0  0  0  0  0
    6.5111  -15.6837   23.0937 O   0  0  0  0  0  0  0  0  0  0  0  0
    6.7105  -12.9032   16.9267 N   0  0  0  0  0  0  0  0  0  0  0  0
    7.7517  -18.9662   28.0790 C   0  0  0  0  0  0  0  0  0  0  0  0
    8.7935  -18.0154   28.1239 O   0  0  0  0  0  0  0  0  0  0  0  0
    9.4057  -17.7724   29.1706 C   0  0  0  0  0  0  0  0  0  0  0  0
    9.1674  -17.2829   26.8749 C   0  0  0  0  0  0  0  0  0  0  0  0
    8.2530  -17.7318   25.7763 C   0  0  1  0  0  0  0  0  0  0  0  0
    8.4672  -17.1109   24.4380 N   0  0  0  0  0  0  0  0  0  0  0  0
    7.5482  -17.6926   23.4549 C   0  0  0  0  0  0  0  0  0  0  0  0
    9.8210  -17.2664   23.8678 O   0  0  0  0  0  0  0  0  0  0  0  0
   10.1675  -18.3702   23.2975 N   0  0  0  0  0  0  0  0  0  0  0  0
   10.8396  -16.2791   23.8726 C   0  0  1  0  0  0  0  0  0  0  0  0
   12.2106  -16.5960   23.3910 C   0  0  0  0  0  0  0  0  0  0  0  0
   12.8262  -15.3403   22.8226 C   0  0  0  0  0  0  0  0  0  0  0  0
   12.1956  -14.9598   21.5488 C   0  0  0  0  0  0  0  0  0  0  0  0
   12.5611  -15.5889   20.3457 N   0  0  0  0  0  0  0  0  0  0  0  0
   11.8161  -15.0255   19.3826 C   0  0  0  0  0  0  0  0  0  0  0  0
   11.0140  -14.0916   19.9013 N   0  0  0  0  0  0  0  0  0  0  0  0
   11.2660  -14.0745   21.2136 C   0  0  0  0  0  0  0  0  0  0  0  0
   12.9256  -17.1459   24.5503 O   0  0  0  0  0  0  0  0  0  0  0  0
   14.1641  -17.4651   24.4861 O   0  0  0  0  0  0  0  0  0  0  0  0
  2  1  1  0
  3  2  2  0
  4  2  1  0
  5  4  1  0
  6  5  1  0
  6  7  1  0
  8  7  1  0
  8  9  1  6
 10  8  1  0
 10 11  2  0
 13 12  1  0
 13 14  2  0
 15 16  1  0
 15 13  1  0
 17 16  1  1
 17 18  1  0
 18 10  1  0
 19 17  1  0
 19 21  1  0
 20 19  2  0
 22 21  1  0
 22 23  1  6
 23 24  1  0
 24 28  1  0
 25 24  2  0
 25 26  1  0
 26 27  1  0
 28 27  2  0
 29 22  1  0
 30 29  2  0
 31 29  1  0
M  END
$$$$
