RQH.pdb
     RDKit          3D

 31 31  0  0  1  0  0  0  0  0999 V2000
    6.7852  -15.6286   13.9685 N   0  0  0  0  0  0  0  0  0  0  0  0
    7.7800  -14.6754   13.6105 C   0  0  0  0  0  0  0  0  0  0  0  0
    8.5931  -14.9024   12.6268 N   0  0  0  0  0  0  0  0  0  0  0  0
    7.8397  -13.4713   14.3771 N   0  0  0  0  0  0  0  0  0  0  0  0
    8.3631  -13.5183   15.7096 C   0  0  0  0  0  0  0  0  0  0  0  0
    7.4110  -14.2858   16.6114 C   0  0  0  0  0  0  0  0  0  0  0  0
    8.0262  -14.2799   17.9967 C   0  0  0  0  0  0  0  0  0  0  0  0
    9.3924  -14.9502   17.9845 C   0  0  2  0  0  0  0  0  0  0  0  0
    9.2621  -16.2530   17.4215 N   0  0  0  0  0  0  0  0  0  0  0  0
    9.8989  -14.9497   19.3687 C   0  0  0  0  0  0  0  0  0  0  0  0
    9.3059  -15.4914   20.3318 O   0  0  0  0  0  0  0  0  0  0  0  0
    9.2900  -14.1939   12.3529 N   0  0  0  0  0  0  0  0  0  0  0  0
   15.3702  -14.0268   16.7293 C   0  0  0  0  0  0  0  0  0  0  0  0
   15.7194  -14.1973   18.0859 O   0  0  0  0  0  0  0  0  0  0  0  0
   16.7535  -13.7088   18.5563 C   0  0  0  0  0  0  0  0  0  0  0  0
   14.8167  -14.9886   18.9779 C   0  0  0  0  0  0  0  0  0  0  0  0
   13.4600  -14.3534   18.9549 C   0  0  1  0  0  0  0  0  0  0  0  0
   12.3858  -15.0526   19.7163 N   0  0  0  0  0  0  0  0  0  0  0  0
   11.1311  -14.2987   19.6334 C   0  0  0  0  0  0  0  0  0  0  0  0
   12.6450  -15.2496   21.1571 O   0  0  0  0  0  0  0  0  0  0  0  0
   13.6734  -15.9214   21.5508 N   0  0  0  0  0  0  0  0  0  0  0  0
   11.8465  -14.7496   22.2178 C   0  0  2  0  0  0  0  0  0  0  0  0
   11.3645  -15.6499   23.2989 C   0  0  0  0  0  0  0  0  0  0  0  0
   10.0001  -16.1734   22.9204 C   0  0  0  0  0  0  0  0  0  0  0  0
    8.9739  -15.1234   23.0178 C   0  0  0  0  0  0  0  0  0  0  0  0
    8.1662  -14.7984   21.9138 N   0  0  0  0  0  0  0  0  0  0  0  0
    7.3453  -13.8184   22.3211 C   0  0  0  0  0  0  0  0  0  0  0  0
    7.5853  -13.5115   23.5989 N   0  0  0  0  0  0  0  0  0  0  0  0
    8.5756  -14.3174   23.9935 C   0  0  0  0  0  0  0  0  0  0  0  0
   12.3909  -16.6910   23.4411 O   0  0  0  0  0  0  0  0  0  0  0  0
   12.8148  -17.3584   22.4338 O   0  0  0  0  0  0  0  0  0  0  0  0
  2  1  1  0
  3  2  2  0
  4  2  1  0
  5  4  1  0
  6  5  1  0
  6  7  1  0
  8  7  1  0
  8  9  1  1
 10  8  1  0
 10 11  2  0
 13 12  1  0
 13 14  2  0
 15 16  1  0
 15 13  1  0
 17 16  1  6
 17 18  1  0
 18 10  1  0
 19 17  1  0
 19 21  1  0
 20 19  2  0
 22 21  1  0
 22 23  1  6
 23 24  1  0
 24 28  1  0
 25 24  2  0
 25 26  1  0
 26 27  1  0
 28 27  2  0
 29 22  1  0
 30 29  2  0
 31 29  1  0
M  END
$$$$
