RQH.pdb
     RDKit          3D

 31 31  0  0  1  0  0  0  0  0999 V2000
    9.0935  -12.6569   17.4777 N   0  0  0  0  0  0  0  0  0  0  0  0
    8.8436  -12.4353   18.8615 C   0  0  0  0  0  0  0  0  0  0  0  0
    9.0400  -11.2693   19.3928 N   0  0  0  0  0  0  0  0  0  0  0  0
    8.3718  -13.5447   19.6280 N   0  0  0  0  0  0  0  0  0  0  0  0
    8.4860  -14.8656   19.0859 C   0  0  0  0  0  0  0  0  0  0  0  0
    7.8722  -15.8719   20.0448 C   0  0  0  0  0  0  0  0  0  0  0  0
    8.1409  -17.2454   19.4627 C   0  0  0  0  0  0  0  0  0  0  0  0
    7.5352  -18.3320   20.3391 C   0  0  2  0  0  0  0  0  0  0  0  0
    6.1239  -18.3510   20.1416 N   0  0  0  0  0  0  0  0  0  0  0  0
    7.9362  -18.0547   21.7301 C   0  0  0  0  0  0  0  0  0  0  0  0
    7.1864  -17.5211   22.5821 O   0  0  0  0  0  0  0  0  0  0  0  0
    8.9057  -11.1289   20.4052 N   0  0  0  0  0  0  0  0  0  0  0  0
   12.1768  -21.3796   24.3701 C   0  0  0  0  0  0  0  0  0  0  0  0
   12.1724  -20.4029   25.3886 O   0  0  0  0  0  0  0  0  0  0  0  0
   12.7528  -20.5853   26.4653 C   0  0  0  0  0  0  0  0  0  0  0  0
   11.4478  -19.1146   25.1612 C   0  0  0  0  0  0  0  0  0  0  0  0
   10.8902  -19.1292   23.7707 C   0  0  1  0  0  0  0  0  0  0  0  0
    9.6606  -18.3186   23.5392 N   0  0  0  0  0  0  0  0  0  0  0  0
    9.2482  -18.4106   22.1353 C   0  0  0  0  0  0  0  0  0  0  0  0
    9.7787  -16.8757   23.8325 O   0  0  0  0  0  0  0  0  0  0  0  0
    9.3371  -15.9998   22.9948 N   0  0  0  0  0  0  0  0  0  0  0  0
   10.3514  -16.3128   25.0019 C   0  0  1  0  0  0  0  0  0  0  0  0
    9.5768  -15.3701   25.8522 C   0  0  0  0  0  0  0  0  0  0  0  0
    8.1190  -15.4604   25.4708 C   0  0  0  0  0  0  0  0  0  0  0  0
    7.2966  -14.5304   26.2607 C   0  0  0  0  0  0  0  0  0  0  0  0
    7.8903  -13.5004   27.0113 N   0  0  0  0  0  0  0  0  0  0  0  0
    6.8862  -12.8395   27.6073 C   0  0  0  0  0  0  0  0  0  0  0  0
    5.7115  -13.3852   27.2805 N   0  0  0  0  0  0  0  0  0  0  0  0
    5.9916  -14.4061   26.4649 C   0  0  0  0  0  0  0  0  0  0  0  0
    9.8612  -15.7561   27.2406 O   0  0  0  0  0  0  0  0  0  0  0  0
   10.0016  -14.8818   28.1656 O   0  0  0  0  0  0  0  0  0  0  0  0
  2  1  1  0
  3  2  2  0
  4  2  1  0
  5  4  1  0
  6  5  1  0
  6  7  1  0
  8  7  1  0
  8  9  1  1
 10  8  1  0
 10 11  2  0
 13 12  1  0
 13 14  2  0
 15 16  1  0
 15 13  1  0
 17 16  1  1
 17 18  1  0
 18 10  1  0
 19 17  1  0
 19 21  1  0
 20 19  2  0
 22 21  1  0
 22 23  1  6
 23 24  1  0
 24 28  1  0
 25 24  2  0
 25 26  1  0
 26 27  1  0
 28 27  2  0
 29 22  1  0
 30 29  2  0
 31 29  1  0
M  END
$$$$
