RQH.pdb
     RDKit          3D

 31 31  0  0  1  0  0  0  0  0999 V2000
    7.8361  -12.5241   14.7858 N   0  0  0  0  0  0  0  0  0  0  0  0
    8.2103  -13.8764   15.0254 C   0  0  0  0  0  0  0  0  0  0  0  0
    8.1935  -14.7493   14.0672 N   0  0  0  0  0  0  0  0  0  0  0  0
    8.6005  -14.2224   16.3554 N   0  0  0  0  0  0  0  0  0  0  0  0
    7.6029  -14.2821   17.3816 C   0  0  0  0  0  0  0  0  0  0  0  0
    7.9939  -13.3735   18.5350 C   0  0  0  0  0  0  0  0  0  0  0  0
    7.4589  -14.0202   19.7971 C   0  0  0  0  0  0  0  0  0  0  0  0
    8.3529  -15.1709   20.2358 C   0  0  2  0  0  0  0  0  0  0  0  0
    8.2290  -16.2356   19.2965 N   0  0  0  0  0  0  0  0  0  0  0  0
    7.9590  -15.5405   21.6072 C   0  0  0  0  0  0  0  0  0  0  0  0
    7.9732  -14.7467   22.5780 O   0  0  0  0  0  0  0  0  0  0  0  0
    8.5730  -15.6958   14.2181 N   0  0  0  0  0  0  0  0  0  0  0  0
    4.7091  -20.3231   22.8932 C   0  0  0  0  0  0  0  0  0  0  0  0
    4.5691  -19.4632   21.7831 O   0  0  0  0  0  0  0  0  0  0  0  0
    3.9707  -19.8163   20.7600 C   0  0  0  0  0  0  0  0  0  0  0  0
    5.1589  -18.0903   21.8444 C   0  0  0  0  0  0  0  0  0  0  0  0
    5.8015  -17.9153   23.1864 C   0  0  1  0  0  0  0  0  0  0  0  0
    7.1680  -17.3196   23.1963 N   0  0  0  0  0  0  0  0  0  0  0  0
    7.5375  -16.8731   21.8497 C   0  0  0  0  0  0  0  0  0  0  0  0
    8.2557  -18.2163   23.6378 O   0  0  0  0  0  0  0  0  0  0  0  0
    8.6360  -19.1988   22.8935 N   0  0  0  0  0  0  0  0  0  0  0  0
    8.9739  -18.1088   24.8565 C   0  0  1  0  0  0  0  0  0  0  0  0
   10.2150  -18.8965   25.0818 C   0  0  0  0  0  0  0  0  0  0  0  0
   11.4038  -18.0438   24.7096 C   0  0  0  0  0  0  0  0  0  0  0  0
   12.6714  -18.7059   25.0556 C   0  0  0  0  0  0  0  0  0  0  0  0
   12.6811  -19.9567   25.6976 N   0  0  0  0  0  0  0  0  0  0  0  0
   13.9709  -20.2828   25.8714 C   0  0  0  0  0  0  0  0  0  0  0  0
   14.7630  -19.3242   25.3833 N   0  0  0  0  0  0  0  0  0  0  0  0
   13.9485  -18.3832   24.8964 C   0  0  0  0  0  0  0  0  0  0  0  0
   10.1824  -19.3010   26.4935 O   0  0  0  0  0  0  0  0  0  0  0  0
    9.4548  -18.6887   27.3511 O   0  0  0  0  0  0  0  0  0  0  0  0
  2  1  1  0
  3  2  2  0
  4  2  1  0
  5  4  1  0
  6  5  1  0
  6  7  1  0
  8  7  1  0
  8  9  1  6
 10  8  1  0
 10 11  2  0
 13 12  1  0
 13 14  2  0
 15 16  1  0
 15 13  1  0
 17 16  1  1
 17 18  1  0
 18 10  1  0
 19 17  1  0
 19 21  1  0
 20 19  2  0
 22 21  1  0
 22 23  1  1
 23 24  1  0
 24 28  1  0
 25 24  2  0
 25 26  1  0
 26 27  1  0
 28 27  2  0
 29 22  1  0
 30 29  2  0
 31 29  1  0
M  END
$$$$
