RQH.pdb
     RDKit          3D

 31 31  0  0  1  0  0  0  0  0999 V2000
    6.7655  -14.9303   16.6642 N   0  0  0  0  0  0  0  0  0  0  0  0
    8.0137  -14.2462   16.6499 C   0  0  0  0  0  0  0  0  0  0  0  0
    8.0739  -12.9707   16.8734 N   0  0  0  0  0  0  0  0  0  0  0  0
    9.1829  -15.0218   16.3810 N   0  0  0  0  0  0  0  0  0  0  0  0
    9.0741  -16.4487   16.3196 C   0  0  0  0  0  0  0  0  0  0  0  0
    9.5339  -17.0585   17.6333 C   0  0  0  0  0  0  0  0  0  0  0  0
   11.0409  -16.9029   17.6797 C   0  0  0  0  0  0  0  0  0  0  0  0
   11.6104  -17.5281   18.9449 C   0  0  2  0  0  0  0  0  0  0  0  0
   11.0852  -18.8455   19.0854 N   0  0  0  0  0  0  0  0  0  0  0  0
   11.2791  -16.6341   20.0690 C   0  0  0  0  0  0  0  0  0  0  0  0
   11.7366  -15.4737   20.1994 O   0  0  0  0  0  0  0  0  0  0  0  0
    8.9820  -12.4827   16.8647 N   0  0  0  0  0  0  0  0  0  0  0  0
    6.4011  -14.3385   21.7808 C   0  0  0  0  0  0  0  0  0  0  0  0
    7.4841  -13.6526   21.1907 O   0  0  0  0  0  0  0  0  0  0  0  0
    7.3323  -12.5623   20.6272 C   0  0  0  0  0  0  0  0  0  0  0  0
    8.8501  -14.2588   21.2479 C   0  0  0  0  0  0  0  0  0  0  0  0
    8.7535  -15.5652   21.9749 C   0  0  2  0  0  0  0  0  0  0  0  0
   10.0359  -16.2832   22.2247 N   0  0  0  0  0  0  0  0  0  0  0  0
   10.3897  -17.1095   21.0665 C   0  0  0  0  0  0  0  0  0  0  0  0
   10.0458  -17.1926   23.3887 O   0  0  0  0  0  0  0  0  0  0  0  0
    9.3498  -18.2785   23.3761 N   0  0  0  0  0  0  0  0  0  0  0  0
   10.7817  -16.9971   24.5857 C   0  0  1  0  0  0  0  0  0  0  0  0
   11.4477  -18.1394   25.2662 C   0  0  0  0  0  0  0  0  0  0  0  0
   12.3158  -18.8606   24.2637 C   0  0  0  0  0  0  0  0  0  0  0  0
   12.9553  -20.0451   24.8580 C   0  0  0  0  0  0  0  0  0  0  0  0
   12.4742  -20.6005   26.0566 N   0  0  0  0  0  0  0  0  0  0  0  0
   13.2605  -21.6533   26.3281 C   0  0  0  0  0  0  0  0  0  0  0  0
   14.1954  -21.7914   25.3840 N   0  0  0  0  0  0  0  0  0  0  0  0
   13.9857  -20.8042   24.5080 C   0  0  0  0  0  0  0  0  0  0  0  0
   12.1866  -17.5583   26.3949 O   0  0  0  0  0  0  0  0  0  0  0  0
   12.7836  -16.4296   26.2971 O   0  0  0  0  0  0  0  0  0  0  0  0
  2  1  1  0
  3  2  2  0
  4  2  1  0
  5  4  1  0
  6  5  1  0
  6  7  1  0
  8  7  1  0
  8  9  1  1
 10  8  1  0
 10 11  2  0
 13 12  1  0
 13 14  2  0
 15 16  1  0
 15 13  1  0
 17 16  1  6
 17 18  1  0
 18 10  1  0
 19 17  1  0
 19 21  1  0
 20 19  2  0
 22 21  1  0
 22 23  1  1
 23 24  1  0
 24 28  1  0
 25 24  2  0
 25 26  1  0
 26 27  1  0
 28 27  2  0
 29 22  1  0
 30 29  2  0
 31 29  1  0
M  END
$$$$
