RQH.pdb
     RDKit          3D

 31 31  0  0  1  0  0  0  0  0999 V2000
    9.7358  -13.7588   14.0641 N   0  0  0  0  0  0  0  0  0  0  0  0
    8.5746  -13.5051   14.8473 C   0  0  0  0  0  0  0  0  0  0  0  0
    7.9163  -12.3960   14.7180 N   0  0  0  0  0  0  0  0  0  0  0  0
    8.1735  -14.5180   15.7715 N   0  0  0  0  0  0  0  0  0  0  0  0
    8.4242  -14.3260   17.1686 C   0  0  0  0  0  0  0  0  0  0  0  0
    7.1353  -14.5035   17.9536 C   0  0  0  0  0  0  0  0  0  0  0  0
    7.5034  -14.4021   19.4204 C   0  0  0  0  0  0  0  0  0  0  0  0
    8.2922  -15.6249   19.8657 C   0  0  2  0  0  0  0  0  0  0  0  0
    7.6597  -16.7943   19.3523 N   0  0  0  0  0  0  0  0  0  0  0  0
    8.3709  -15.5901   21.3372 C   0  0  0  0  0  0  0  0  0  0  0  0
    8.6979  -14.5752   21.9973 O   0  0  0  0  0  0  0  0  0  0  0  0
    7.1119  -12.1932   15.3301 N   0  0  0  0  0  0  0  0  0  0  0  0
    9.8059  -20.6326   20.5428 C   0  0  0  0  0  0  0  0  0  0  0  0
   10.8873  -20.4438   21.4296 O   0  0  0  0  0  0  0  0  0  0  0  0
   11.7004  -21.3459   21.6630 C   0  0  0  0  0  0  0  0  0  0  0  0
   11.0550  -19.1199   22.1046 C   0  0  0  0  0  0  0  0  0  0  0  0
    9.9679  -18.2076   21.6248 C   0  0  2  0  0  0  0  0  0  0  0  0
    9.1110  -17.5854   22.6741 N   0  0  0  0  0  0  0  0  0  0  0  0
    8.0591  -16.7730   22.0554 C   0  0  0  0  0  0  0  0  0  0  0  0
    9.8059  -16.6924   23.6236 O   0  0  0  0  0  0  0  0  0  0  0  0
   11.0936  -16.6926   23.6987 N   0  0  0  0  0  0  0  0  0  0  0  0
    9.1801  -15.7781   24.5095 C   0  0  1  0  0  0  0  0  0  0  0  0
    9.5150  -15.7701   25.9585 C   0  0  0  0  0  0  0  0  0  0  0  0
    8.2686  -15.4350   26.7415 C   0  0  0  0  0  0  0  0  0  0  0  0
    7.6740  -14.1667   26.2910 C   0  0  0  0  0  0  0  0  0  0  0  0
    8.3085  -13.3780   25.3153 N   0  0  0  0  0  0  0  0  0  0  0  0
    7.5251  -12.3048   25.1282 C   0  0  0  0  0  0  0  0  0  0  0  0
    6.4496  -12.3706   25.9178 N   0  0  0  0  0  0  0  0  0  0  0  0
    6.5673  -13.5079   26.6096 C   0  0  0  0  0  0  0  0  0  0  0  0
   10.0698  -17.0988   26.2491 O   0  0  0  0  0  0  0  0  0  0  0  0
    9.9170  -18.0816   25.4425 O   0  0  0  0  0  0  0  0  0  0  0  0
  2  1  1  0
  3  2  2  0
  4  2  1  0
  5  4  1  0
  6  5  1  0
  6  7  1  0
  8  7  1  0
  8  9  1  1
 10  8  1  0
 10 11  2  0
 13 12  1  0
 13 14  2  0
 15 16  1  0
 15 13  1  0
 17 16  1  6
 17 18  1  0
 18 10  1  0
 19 17  1  0
 19 21  1  0
 20 19  2  0
 22 21  1  0
 22 23  1  1
 23 24  1  0
 24 28  1  0
 25 24  2  0
 25 26  1  0
 26 27  1  0
 28 27  2  0
 29 22  1  0
 30 29  2  0
 31 29  1  0
M  END
$$$$
