RQH.pdb
     RDKit          3D

 31 31  0  0  1  0  0  0  0  0999 V2000
    7.3962  -12.3581   19.3716 N   0  0  0  0  0  0  0  0  0  0  0  0
    8.7727  -12.7066   19.2701 C   0  0  0  0  0  0  0  0  0  0  0  0
    9.6978  -11.8197   19.4650 N   0  0  0  0  0  0  0  0  0  0  0  0
    9.0829  -14.0632   18.9472 N   0  0  0  0  0  0  0  0  0  0  0  0
    8.0649  -15.0620   19.0804 C   0  0  0  0  0  0  0  0  0  0  0  0
    8.6659  -16.3399   19.6413 C   0  0  0  0  0  0  0  0  0  0  0  0
    7.7464  -17.4707   19.2249 C   0  0  0  0  0  0  0  0  0  0  0  0
    8.2755  -18.8085   19.7214 C   0  0  2  0  0  0  0  0  0  0  0  0
    7.4161  -19.8459   19.2563 N   0  0  0  0  0  0  0  0  0  0  0  0
    8.3704  -18.7302   21.1902 C   0  0  0  0  0  0  0  0  0  0  0  0
    7.3777  -18.6650   21.9538 O   0  0  0  0  0  0  0  0  0  0  0  0
   10.6866  -12.0509   19.2875 N   0  0  0  0  0  0  0  0  0  0  0  0
   13.6587  -20.0073   24.1132 C   0  0  0  0  0  0  0  0  0  0  0  0
   12.9517  -19.5375   25.2405 O   0  0  0  0  0  0  0  0  0  0  0  0
   13.4604  -19.5272   26.3677 C   0  0  0  0  0  0  0  0  0  0  0  0
   11.5521  -19.0394   25.0687 C   0  0  0  0  0  0  0  0  0  0  0  0
   11.2029  -19.1139   23.6137 C   0  0  1  0  0  0  0  0  0  0  0  0
    9.8277  -18.6789   23.2371 N   0  0  0  0  0  0  0  0  0  0  0  0
    9.6598  -18.7282   21.7815 C   0  0  0  0  0  0  0  0  0  0  0  0
    9.4553  -17.3077   23.6410 O   0  0  0  0  0  0  0  0  0  0  0  0
    9.8034  -16.2963   22.9201 N   0  0  0  0  0  0  0  0  0  0  0  0
    8.7104  -16.9587   24.7968 C   0  0  1  0  0  0  0  0  0  0  0  0
    8.4243  -15.5351   25.1182 C   0  0  0  0  0  0  0  0  0  0  0  0
    6.9559  -15.3973   25.4402 C   0  0  0  0  0  0  0  0  0  0  0  0
    6.6385  -14.0512   25.9427 C   0  0  0  0  0  0  0  0  0  0  0  0
    7.6338  -13.0629   26.0387 N   0  0  0  0  0  0  0  0  0  0  0  0
    7.0324  -11.9662   26.5242 C   0  0  0  0  0  0  0  0  0  0  0  0
    5.7349  -12.2026   26.7366 N   0  0  0  0  0  0  0  0  0  0  0  0
    5.5260  -13.4722   26.3756 C   0  0  0  0  0  0  0  0  0  0  0  0
    9.3199  -15.1871   26.2292 O   0  0  0  0  0  0  0  0  0  0  0  0
    9.3295  -14.0137   26.7419 O   0  0  0  0  0  0  0  0  0  0  0  0
  2  1  1  0
  3  2  2  0
  4  2  1  0
  5  4  1  0
  6  5  1  0
  6  7  1  0
  8  7  1  0
  8  9  1  1
 10  8  1  0
 10 11  2  0
 13 12  1  0
 13 14  2  0
 15 16  1  0
 15 13  1  0
 17 16  1  1
 17 18  1  0
 18 10  1  0
 19 17  1  0
 19 21  1  0
 20 19  2  0
 22 21  1  0
 22 23  1  1
 23 24  1  0
 24 28  1  0
 25 24  2  0
 25 26  1  0
 26 27  1  0
 28 27  2  0
 29 22  1  0
 30 29  2  0
 31 29  1  0
M  END
$$$$
