RQH.pdb
     RDKit          3D

 31 31  0  0  1  0  0  0  0  0999 V2000
    9.0857  -16.5296   13.4570 N   0  0  0  0  0  0  0  0  0  0  0  0
    8.6334  -15.2636   12.9893 C   0  0  0  0  0  0  0  0  0  0  0  0
    9.0879  -14.7639   11.8829 N   0  0  0  0  0  0  0  0  0  0  0  0
    7.6667  -14.5777   13.7868 N   0  0  0  0  0  0  0  0  0  0  0  0
    8.0912  -13.9252   14.9892 C   0  0  0  0  0  0  0  0  0  0  0  0
    8.2203  -14.9426   16.1105 C   0  0  0  0  0  0  0  0  0  0  0  0
    7.4983  -14.3606   17.3095 C   0  0  0  0  0  0  0  0  0  0  0  0
    8.4443  -13.5198   18.1546 C   0  0  2  0  0  0  0  0  0  0  0  0
    8.9893  -12.4825   17.3435 N   0  0  0  0  0  0  0  0  0  0  0  0
    9.4594  -14.4271   18.7193 C   0  0  0  0  0  0  0  0  0  0  0  0
    9.2362  -15.6214   19.0300 O   0  0  0  0  0  0  0  0  0  0  0  0
    8.8713  -13.7900   11.6235 N   0  0  0  0  0  0  0  0  0  0  0  0
   15.4200  -13.4200   17.8521 C   0  0  0  0  0  0  0  0  0  0  0  0
   15.5734  -14.5076   18.7381 O   0  0  0  0  0  0  0  0  0  0  0  0
   16.6858  -14.9820   18.9969 C   0  0  0  0  0  0  0  0  0  0  0  0
   14.3609  -15.1021   19.3807 C   0  0  0  0  0  0  0  0  0  0  0  0
   13.1657  -14.3059   18.9539 C   0  0  2  0  0  0  0  0  0  0  0  0
   11.8402  -14.7841   19.4406 N   0  0  0  0  0  0  0  0  0  0  0  0
   10.7697  -13.9246   18.9261 C   0  0  0  0  0  0  0  0  0  0  0  0
   11.6672  -14.8118   20.9073 O   0  0  0  0  0  0  0  0  0  0  0  0
   10.8312  -14.0153   21.4823 N   0  0  0  0  0  0  0  0  0  0  0  0
   12.3529  -15.6692   21.8057 C   0  0  1  0  0  0  0  0  0  0  0  0
   11.6075  -16.4757   22.8086 C   0  0  0  0  0  0  0  0  0  0  0  0
   10.4892  -17.2076   22.1067 C   0  0  0  0  0  0  0  0  0  0  0  0
    9.1992  -16.5238   22.2899 C   0  0  0  0  0  0  0  0  0  0  0  0
    9.1131  -15.3299   23.0273 N   0  0  0  0  0  0  0  0  0  0  0  0
    7.8219  -14.9658   23.0084 C   0  0  0  0  0  0  0  0  0  0  0  0
    7.0999  -15.8481   22.3120 N   0  0  0  0  0  0  0  0  0  0  0  0
    7.9604  -16.7794   21.8897 C   0  0  0  0  0  0  0  0  0  0  0  0
   12.6028  -17.3554   23.4355 O   0  0  0  0  0  0  0  0  0  0  0  0
   13.3843  -18.0907   22.7367 O   0  0  0  0  0  0  0  0  0  0  0  0
  2  1  1  0
  3  2  2  0
  4  2  1  0
  5  4  1  0
  6  5  1  0
  6  7  1  0
  8  7  1  0
  8  9  1  6
 10  8  1  0
 10 11  2  0
 13 12  1  0
 13 14  2  0
 15 16  1  0
 15 13  1  0
 17 16  1  6
 17 18  1  0
 18 10  1  0
 19 17  1  0
 19 21  1  0
 20 19  2  0
 22 21  1  0
 22 23  1  1
 23 24  1  0
 24 28  1  0
 25 24  2  0
 25 26  1  0
 26 27  1  0
 28 27  2  0
 29 22  1  0
 30 29  2  0
 31 29  1  0
M  END
$$$$
