RQH.pdb
     RDKit          3D

 31 31  0  0  1  0  0  0  0  0999 V2000
    8.3304  -12.9135   17.8390 N   0  0  0  0  0  0  0  0  0  0  0  0
    8.5642  -12.5169   19.1859 C   0  0  0  0  0  0  0  0  0  0  0  0
    9.1410  -11.3876   19.4545 N   0  0  0  0  0  0  0  0  0  0  0  0
    8.1386  -13.4112   20.2155 N   0  0  0  0  0  0  0  0  0  0  0  0
    8.0020  -14.8052   19.9157 C   0  0  0  0  0  0  0  0  0  0  0  0
    6.6584  -15.3111   20.4136 C   0  0  0  0  0  0  0  0  0  0  0  0
    6.8804  -15.8128   21.8265 C   0  0  0  0  0  0  0  0  0  0  0  0
    7.6216  -17.1419   21.8182 C   0  0  2  0  0  0  0  0  0  0  0  0
    6.8052  -18.1216   21.1820 N   0  0  0  0  0  0  0  0  0  0  0  0
    7.9617  -17.4687   23.2147 C   0  0  0  0  0  0  0  0  0  0  0  0
    7.1113  -17.6996   24.1070 O   0  0  0  0  0  0  0  0  0  0  0  0
    9.3886  -11.1472   20.4260 N   0  0  0  0  0  0  0  0  0  0  0  0
   11.2165  -20.2619   22.6550 C   0  0  0  0  0  0  0  0  0  0  0  0
   12.2527  -19.3823   23.0344 O   0  0  0  0  0  0  0  0  0  0  0  0
   13.2889  -19.2744   22.3680 C   0  0  0  0  0  0  0  0  0  0  0  0
   12.0947  -18.5596   24.2732 C   0  0  0  0  0  0  0  0  0  0  0  0
   10.7926  -18.9263   24.9169 C   0  0  1  0  0  0  0  0  0  0  0  0
    9.7425  -17.8683   24.9423 N   0  0  0  0  0  0  0  0  0  0  0  0
    9.3319  -17.5270   23.5770 C   0  0  0  0  0  0  0  0  0  0  0  0
   10.1317  -16.5933   25.5784 O   0  0  0  0  0  0  0  0  0  0  0  0
    9.9501  -15.4737   24.9640 N   0  0  0  0  0  0  0  0  0  0  0  0
   10.7113  -16.4534   26.8657 C   0  0  1  0  0  0  0  0  0  0  0  0
   10.1363  -15.5109   27.8622 C   0  0  0  0  0  0  0  0  0  0  0  0
    8.6520  -15.7649   27.9684 C   0  0  0  0  0  0  0  0  0  0  0  0
    7.8730  -14.6532   27.4007 C   0  0  0  0  0  0  0  0  0  0  0  0
    8.5139  -13.5499   26.8101 N   0  0  0  0  0  0  0  0  0  0  0  0
    7.5408  -12.7242   26.3961 C   0  0  0  0  0  0  0  0  0  0  0  0
    6.3415  -13.2356   26.6873 N   0  0  0  0  0  0  0  0  0  0  0  0
    6.5744  -14.4029   27.2947 C   0  0  0  0  0  0  0  0  0  0  0  0
   10.8779  -15.7435   29.1086 O   0  0  0  0  0  0  0  0  0  0  0  0
   11.3986  -16.8821   29.3778 O   0  0  0  0  0  0  0  0  0  0  0  0
  2  1  1  0
  3  2  2  0
  4  2  1  0
  5  4  1  0
  6  5  1  0
  6  7  1  0
  8  7  1  0
  8  9  1  1
 10  8  1  0
 10 11  2  0
 13 12  1  0
 13 14  2  0
 15 16  1  0
 15 13  1  0
 17 16  1  1
 17 18  1  0
 18 10  1  0
 19 17  1  0
 19 21  1  0
 20 19  2  0
 22 21  1  0
 22 23  1  1
 23 24  1  0
 24 28  1  0
 25 24  2  0
 25 26  1  0
 26 27  1  0
 28 27  2  0
 29 22  1  0
 30 29  2  0
 31 29  1  0
M  END
$$$$
