CLS.pdb
     RDKit          3D

 21 20  0  0  1  0  0  0  0  0999 V2000
    9.1045  -15.0145   20.5709 N   0  0  0  0  0  0  0  0  0  0  0  0
    8.1905  -15.3839   21.6094 C   0  0  1  0  0  0  0  0  0  0  0  0
    8.0089  -16.8873   21.5786 C   0  0  0  0  0  0  0  0  0  0  0  0
    7.1991  -17.3029   19.9947 S   0  0  0  0  0  0  0  0  0  0  0  0
    8.6963  -14.9567   22.9589 C   0  0  0  0  0  0  0  0  0  0  0  0
    9.8952  -14.6211   23.1262 O   0  0  0  0  0  0  0  0  0  0  0  0
    5.6195  -12.1105   26.7633 C   0  0  0  0  0  0  0  0  0  0  0  0
    6.7616  -12.5586   25.8802 C   0  0  1  0  0  0  0  0  0  0  0  0
    7.7805  -11.4801   25.8343 C   0  0  0  0  0  0  0  0  0  0  0  0
    7.2820  -13.9115   26.2572 C   0  0  0  0  0  0  0  0  0  0  0  0
    8.3290  -14.4683   25.3463 C   0  0  2  0  0  0  0  0  0  0  0  0
    7.8394  -14.9190   24.0822 N   0  0  0  0  0  0  0  0  0  0  0  0
    8.8935  -15.6799   26.0460 C   0  0  0  0  0  0  0  0  0  0  0  0
    9.2621  -15.6534   27.2466 O   0  0  0  0  0  0  0  0  0  0  0  0
   10.0881  -19.0624   23.9179 O   0  0  0  0  0  0  0  0  0  0  0  0
    9.3933  -19.3153   25.1100 C   0  0  0  0  0  0  0  0  0  0  0  0
    9.5738  -18.0919   26.0158 C   0  0  2  0  0  0  0  0  0  0  0  0
    9.0326  -16.9191   25.3623 N   0  0  0  0  0  0  0  0  0  0  0  0
   10.9808  -17.9187   26.4123 C   0  0  0  0  0  0  0  0  0  0  0  0
   11.6735  -18.8758   27.1294 O   0  0  0  0  0  0  0  0  0  0  0  0
   11.5863  -16.8678   26.0941 O   0  0  0  0  0  0  0  0  0  0  0  0
  2  5  1  0
  2  3  1  0
  2  1  1  6
  4  3  1  0
  5  6  2  0
  8  7  1  1
  8  9  1  0
  8 10  1  0
 11 10  1  1
 11 12  1  0
 11 13  1  0
 12  5  1  0
 13 18  1  0
 13 14  2  0
 16 15  1  0
 17 16  1  6
 18 17  1  0
 19 20  1  0
 19 17  1  0
 21 19  2  0
M  END
$$$$
