CLS.pdb
     RDKit          3D

 21 20  0  0  1  0  0  0  0  0999 V2000
    6.9158  -15.3533   20.5471 N   0  0  0  0  0  0  0  0  0  0  0  0
    8.2074  -14.7540   20.6981 C   0  0  1  0  0  0  0  0  0  0  0  0
    8.1819  -13.3853   20.0498 C   0  0  0  0  0  0  0  0  0  0  0  0
    7.7933  -13.6304   18.2817 S   0  0  0  0  0  0  0  0  0  0  0  0
    8.5839  -14.6270   22.1478 C   0  0  0  0  0  0  0  0  0  0  0  0
    9.7700  -14.3985   22.4926 O   0  0  0  0  0  0  0  0  0  0  0  0
    7.8402  -11.8960   25.9030 C   0  0  0  0  0  0  0  0  0  0  0  0
    7.2635  -13.1645   26.4892 C   0  0  1  0  0  0  0  0  0  0  0  0
    6.1851  -12.8019   27.4426 C   0  0  0  0  0  0  0  0  0  0  0  0
    6.8771  -14.1587   25.4378 C   0  0  0  0  0  0  0  0  0  0  0  0
    7.9875  -14.5998   24.5387 C   0  0  2  0  0  0  0  0  0  0  0  0
    7.6158  -14.7606   23.1687 N   0  0  0  0  0  0  0  0  0  0  0  0
    8.4122  -15.9608   25.0321 C   0  0  0  0  0  0  0  0  0  0  0  0
    7.6515  -16.9596   24.9912 O   0  0  0  0  0  0  0  0  0  0  0  0
   12.2268  -17.2486   25.0208 O   0  0  0  0  0  0  0  0  0  0  0  0
   11.1202  -18.1050   25.1207 C   0  0  0  0  0  0  0  0  0  0  0  0
   10.1231  -17.4571   26.0881 C   0  0  2  0  0  0  0  0  0  0  0  0
    9.7115  -16.1691   25.5715 N   0  0  0  0  0  0  0  0  0  0  0  0
   10.6743  -17.3693   27.4502 C   0  0  0  0  0  0  0  0  0  0  0  0
   11.1621  -18.4715   28.1264 O   0  0  0  0  0  0  0  0  0  0  0  0
   10.7088  -16.2586   28.0311 O   0  0  0  0  0  0  0  0  0  0  0  0
  2  5  1  0
  2  3  1  0
  2  1  1  1
  4  3  1  0
  5  6  2  0
  8  7  1  6
  8  9  1  0
  8 10  1  0
 11 10  1  1
 11 12  1  0
 11 13  1  0
 12  5  1  0
 13 18  1  0
 13 14  2  0
 16 15  1  0
 17 16  1  6
 18 17  1  0
 19 20  1  0
 19 17  1  0
 21 19  2  0
M  END
$$$$
