CLS.pdb
     RDKit          3D

 21 20  0  0  1  0  0  0  0  0999 V2000
    7.0950  -16.3211   21.9008 N   0  0  0  0  0  0  0  0  0  0  0  0
    8.2489  -15.4917   21.7252 C   0  0  1  0  0  0  0  0  0  0  0  0
    7.8899  -14.3603   20.7842 C   0  0  0  0  0  0  0  0  0  0  0  0
    7.0202  -15.0978   19.3570 S   0  0  0  0  0  0  0  0  0  0  0  0
    8.7254  -14.9347   23.0375 C   0  0  0  0  0  0  0  0  0  0  0  0
    9.8253  -14.3345   23.1266 O   0  0  0  0  0  0  0  0  0  0  0  0
    5.6716  -12.2235   26.7609 C   0  0  0  0  0  0  0  0  0  0  0  0
    6.8131  -12.6911   25.8872 C   0  0  1  0  0  0  0  0  0  0  0  0
    7.7838  -11.5784   25.7348 C   0  0  0  0  0  0  0  0  0  0  0  0
    7.3987  -13.9884   26.3536 C   0  0  0  0  0  0  0  0  0  0  0  0
    8.4440  -14.5742   25.4590 C   0  0  2  0  0  0  0  0  0  0  0  0
    7.9515  -15.0685   24.2125 N   0  0  0  0  0  0  0  0  0  0  0  0
    9.0129  -15.7602   26.1979 C   0  0  0  0  0  0  0  0  0  0  0  0
    9.2708  -15.7275   27.4268 O   0  0  0  0  0  0  0  0  0  0  0  0
    9.9386  -19.3091   24.1603 O   0  0  0  0  0  0  0  0  0  0  0  0
    9.4541  -19.4108   25.4728 C   0  0  0  0  0  0  0  0  0  0  0  0
    9.8453  -18.1241   26.2084 C   0  0  2  0  0  0  0  0  0  0  0  0
    9.2836  -16.9810   25.5206 N   0  0  0  0  0  0  0  0  0  0  0  0
   11.3042  -18.0219   26.3753 C   0  0  0  0  0  0  0  0  0  0  0  0
   12.0339  -18.9385   27.1086 O   0  0  0  0  0  0  0  0  0  0  0  0
   11.9215  -17.0723   25.8372 O   0  0  0  0  0  0  0  0  0  0  0  0
  2  5  1  0
  2  3  1  0
  2  1  1  1
  4  3  1  0
  5  6  2  0
  8  7  1  1
  8  9  1  0
  8 10  1  0
 11 10  1  1
 11 12  1  0
 11 13  1  0
 12  5  1  0
 13 18  1  0
 13 14  2  0
 16 15  1  0
 17 16  1  6
 18 17  1  0
 19 20  1  0
 19 17  1  0
 21 19  2  0
M  END
$$$$
