CLS.pdb
     RDKit          3D

 21 20  0  0  1  0  0  0  0  0999 V2000
    9.7449  -16.1207   20.5792 N   0  0  0  0  0  0  0  0  0  0  0  0
    8.6906  -16.3581   21.5185 C   0  0  1  0  0  0  0  0  0  0  0  0
    8.6825  -17.8312   21.8709 C   0  0  0  0  0  0  0  0  0  0  0  0
    7.2100  -18.1316   22.9096 S   0  0  0  0  0  0  0  0  0  0  0  0
    8.8728  -15.5348   22.7629 C   0  0  0  0  0  0  0  0  0  0  0  0
   10.0190  -15.2499   23.1905 O   0  0  0  0  0  0  0  0  0  0  0  0
    7.8166  -11.5106   26.2061 C   0  0  0  0  0  0  0  0  0  0  0  0
    6.9101  -12.7099   26.3645 C   0  0  1  0  0  0  0  0  0  0  0  0
    5.6427  -12.2691   26.9993 C   0  0  0  0  0  0  0  0  0  0  0  0
    6.7503  -13.4809   25.0903 C   0  0  0  0  0  0  0  0  0  0  0  0
    7.9553  -14.2531   24.6572 C   0  0  2  0  0  0  0  0  0  0  0  0
    7.7606  -15.0553   23.4913 N   0  0  0  0  0  0  0  0  0  0  0  0
    8.2733  -15.2032   25.7853 C   0  0  0  0  0  0  0  0  0  0  0  0
    8.7347  -14.8113   26.8859 O   0  0  0  0  0  0  0  0  0  0  0  0
    7.8977  -19.5269   25.5545 O   0  0  0  0  0  0  0  0  0  0  0  0
    7.3208  -18.7356   26.5590 C   0  0  0  0  0  0  0  0  0  0  0  0
    8.2240  -17.5129   26.7568 C   0  0  2  0  0  0  0  0  0  0  0  0
    8.0594  -16.6020   25.6439 N   0  0  0  0  0  0  0  0  0  0  0  0
    9.6273  -17.9078   26.9606 C   0  0  0  0  0  0  0  0  0  0  0  0
   10.0401  -18.6440   28.0551 O   0  0  0  0  0  0  0  0  0  0  0  0
   10.4917  -17.5702   26.1174 O   0  0  0  0  0  0  0  0  0  0  0  0
  2  5  1  0
  2  3  1  0
  2  1  1  6
  4  3  1  0
  5  6  2  0
  8  7  1  6
  8  9  1  0
  8 10  1  0
 11 10  1  1
 11 12  1  0
 11 13  1  0
 12  5  1  0
 13 18  1  0
 13 14  2  0
 16 15  1  0
 17 16  1  6
 18 17  1  0
 19 20  1  0
 19 17  1  0
 21 19  2  0
M  END
$$$$
