CLS.pdb
     RDKit          3D

 21 20  0  0  1  0  0  0  0  0999 V2000
    8.7902  -14.7208   20.2988 N   0  0  0  0  0  0  0  0  0  0  0  0
    7.8858  -15.2575   21.2705 C   0  0  1  0  0  0  0  0  0  0  0  0
    7.7115  -16.7376   21.0003 C   0  0  0  0  0  0  0  0  0  0  0  0
    6.5565  -17.3858   22.2585 S   0  0  0  0  0  0  0  0  0  0  0  0
    8.3993  -15.0490   22.6678 C   0  0  0  0  0  0  0  0  0  0  0  0
    9.6309  -15.0593   22.9148 O   0  0  0  0  0  0  0  0  0  0  0  0
    5.6158  -12.0786   26.6461 C   0  0  0  0  0  0  0  0  0  0  0  0
    6.7248  -12.5943   25.7578 C   0  0  1  0  0  0  0  0  0  0  0  0
    7.8724  -11.6560   25.8343 C   0  0  0  0  0  0  0  0  0  0  0  0
    7.0560  -14.0298   26.0280 C   0  0  0  0  0  0  0  0  0  0  0  0
    8.0211  -14.6524   25.0704 C   0  0  2  0  0  0  0  0  0  0  0  0
    7.5132  -14.8349   23.7478 N   0  0  0  0  0  0  0  0  0  0  0  0
    8.3199  -16.0291   25.6105 C   0  0  0  0  0  0  0  0  0  0  0  0
    7.4447  -16.9267   25.6881 O   0  0  0  0  0  0  0  0  0  0  0  0
   12.0474  -17.6066   25.4333 O   0  0  0  0  0  0  0  0  0  0  0  0
   10.8831  -18.3844   25.5185 C   0  0  0  0  0  0  0  0  0  0  0  0
    9.9471  -17.7027   26.5230 C   0  0  2  0  0  0  0  0  0  0  0  0
    9.6255  -16.3693   26.0602 N   0  0  0  0  0  0  0  0  0  0  0  0
   10.5185  -17.7071   27.8796 C   0  0  0  0  0  0  0  0  0  0  0  0
   10.8727  -18.8726   28.5325 O   0  0  0  0  0  0  0  0  0  0  0  0
   10.6961  -16.6193   28.4776 O   0  0  0  0  0  0  0  0  0  0  0  0
  2  5  1  0
  2  3  1  0
  2  1  1  6
  4  3  1  0
  5  6  2  0
  8  7  1  1
  8  9  1  0
  8 10  1  0
 11 10  1  1
 11 12  1  0
 11 13  1  0
 12  5  1  0
 13 18  1  0
 13 14  2  0
 16 15  1  0
 17 16  1  6
 18 17  1  0
 19 20  1  0
 19 17  1  0
 21 19  2  0
M  END
$$$$
