CLS.pdb
     RDKit          3D

 21 20  0  0  1  0  0  0  0  0999 V2000
    5.3598  -18.4413   22.9613 N   0  0  0  0  0  0  0  0  0  0  0  0
    5.9041  -18.1496   24.2531 C   0  0  1  0  0  0  0  0  0  0  0  0
    6.5827  -19.3961   24.7823 C   0  0  0  0  0  0  0  0  0  0  0  0
    7.0936  -19.0467   26.5011 S   0  0  0  0  0  0  0  0  0  0  0  0
    6.8915  -17.0181   24.1864 C   0  0  0  0  0  0  0  0  0  0  0  0
    7.6546  -16.8801   23.1983 O   0  0  0  0  0  0  0  0  0  0  0  0
    6.2682  -12.2994   27.2795 C   0  0  0  0  0  0  0  0  0  0  0  0
    6.5629  -13.1238   26.0472 C   0  0  1  0  0  0  0  0  0  0  0  0
    6.5419  -12.2321   24.8607 C   0  0  0  0  0  0  0  0  0  0  0  0
    7.7984  -13.9573   26.1963 C   0  0  0  0  0  0  0  0  0  0  0  0
    7.9691  -15.0329   25.1716 C   0  0  2  0  0  0  0  0  0  0  0  0
    6.9926  -16.0738   25.2331 N   0  0  0  0  0  0  0  0  0  0  0  0
    9.3033  -15.6769   25.4567 C   0  0  0  0  0  0  0  0  0  0  0  0
    9.6630  -15.9957   26.6173 O   0  0  0  0  0  0  0  0  0  0  0  0
   10.9359  -18.1716   22.9934 O   0  0  0  0  0  0  0  0  0  0  0  0
   11.4154  -18.0734   24.3081 C   0  0  0  0  0  0  0  0  0  0  0  0
   11.4989  -16.5831   24.6570 C   0  0  2  0  0  0  0  0  0  0  0  0
   10.2204  -15.9525   24.4053 N   0  0  0  0  0  0  0  0  0  0  0  0
   12.6041  -15.9241   23.9421 C   0  0  0  0  0  0  0  0  0  0  0  0
   12.4003  -14.8767   23.0636 O   0  0  0  0  0  0  0  0  0  0  0  0
   13.7801  -16.3176   24.1275 O   0  0  0  0  0  0  0  0  0  0  0  0
  2  5  1  0
  2  3  1  0
  2  1  1  6
  4  3  1  0
  5  6  2  0
  8  7  1  1
  8  9  1  0
  8 10  1  0
 11 10  1  1
 11 12  1  0
 11 13  1  0
 12  5  1  0
 13 18  1  0
 13 14  2  0
 16 15  1  0
 17 16  1  6
 18 17  1  0
 19 20  1  0
 19 17  1  0
 21 19  2  0
M  END
$$$$
