CLS.pdb
     RDKit          3D

 21 20  0  0  1  0  0  0  0  0999 V2000
    8.1370  -12.9276   19.9373 N   0  0  0  0  0  0  0  0  0  0  0  0
    7.4465  -13.7838   20.8540 C   0  0  1  0  0  0  0  0  0  0  0  0
    7.4141  -15.1830   20.2749 C   0  0  0  0  0  0  0  0  0  0  0  0
    6.5079  -16.2386   21.4589 S   0  0  0  0  0  0  0  0  0  0  0  0
    8.1204  -13.8011   22.1976 C   0  0  0  0  0  0  0  0  0  0  0  0
    9.3314  -13.4910   22.3203 O   0  0  0  0  0  0  0  0  0  0  0  0
    5.5008  -12.2758   26.9625 C   0  0  0  0  0  0  0  0  0  0  0  0
    6.5688  -12.4116   25.9013 C   0  0  1  0  0  0  0  0  0  0  0  0
    7.6084  -11.3783   26.1360 C   0  0  0  0  0  0  0  0  0  0  0  0
    7.0803  -13.8140   25.7780 C   0  0  0  0  0  0  0  0  0  0  0  0
    8.0309  -14.0487   24.6478 C   0  0  2  0  0  0  0  0  0  0  0  0
    7.4130  -14.1668   23.3653 N   0  0  0  0  0  0  0  0  0  0  0  0
    8.6979  -15.3726   24.9279 C   0  0  0  0  0  0  0  0  0  0  0  0
    8.9822  -15.7507   26.0916 O   0  0  0  0  0  0  0  0  0  0  0  0
   10.4317  -19.5342   23.1168 O   0  0  0  0  0  0  0  0  0  0  0  0
    9.8156  -18.3112   22.8127 C   0  0  0  0  0  0  0  0  0  0  0  0
    9.7499  -17.4946   24.1083 C   0  0  2  0  0  0  0  0  0  0  0  0
    9.0363  -16.2583   23.8680 N   0  0  0  0  0  0  0  0  0  0  0  0
   11.0910  -17.2719   24.6727 C   0  0  0  0  0  0  0  0  0  0  0  0
   11.8274  -18.2840   25.2590 O   0  0  0  0  0  0  0  0  0  0  0  0
   11.5970  -16.1255   24.6267 O   0  0  0  0  0  0  0  0  0  0  0  0
  2  5  1  0
  2  3  1  0
  2  1  1  6
  4  3  1  0
  5  6  2  0
  8  7  1  1
  8  9  1  0
  8 10  1  0
 11 10  1  1
 11 12  1  0
 11 13  1  0
 12  5  1  0
 13 18  1  0
 13 14  2  0
 16 15  1  0
 17 16  1  6
 18 17  1  0
 19 20  1  0
 19 17  1  0
 21 19  2  0
M  END
$$$$
