CLS.pdb
     RDKit          3D

 21 20  0  0  1  0  0  0  0  0999 V2000
    8.9920  -15.1821   20.4300 N   0  0  0  0  0  0  0  0  0  0  0  0
    7.9468  -15.5732   21.3271 C   0  0  1  0  0  0  0  0  0  0  0  0
    7.6702  -17.0492   21.1299 C   0  0  0  0  0  0  0  0  0  0  0  0
    6.3177  -17.5042   22.2706 S   0  0  0  0  0  0  0  0  0  0  0  0
    8.3282  -15.3103   22.7572 C   0  0  0  0  0  0  0  0  0  0  0  0
    9.5090  -15.4717   23.1540 O   0  0  0  0  0  0  0  0  0  0  0  0
    5.4813  -11.8673   26.4388 C   0  0  0  0  0  0  0  0  0  0  0  0
    6.6295  -12.4951   25.6821 C   0  0  1  0  0  0  0  0  0  0  0  0
    7.8702  -11.7382   25.9842 C   0  0  0  0  0  0  0  0  0  0  0  0
    6.7174  -13.9748   25.8964 C   0  0  0  0  0  0  0  0  0  0  0  0
    7.7422  -14.6794   25.0661 C   0  0  2  0  0  0  0  0  0  0  0  0
    7.3708  -14.8732   23.7004 N   0  0  0  0  0  0  0  0  0  0  0  0
    7.8987  -16.0536   25.6688 C   0  0  0  0  0  0  0  0  0  0  0  0
    6.9969  -16.9254   25.6013 O   0  0  0  0  0  0  0  0  0  0  0  0
   10.1960  -19.8752   26.0266 O   0  0  0  0  0  0  0  0  0  0  0  0
    9.9255  -18.5757   25.5728 C   0  0  0  0  0  0  0  0  0  0  0  0
    9.3475  -17.7873   26.7536 C   0  0  2  0  0  0  0  0  0  0  0  0
    9.0930  -16.4212   26.3479 N   0  0  0  0  0  0  0  0  0  0  0  0
   10.2202  -17.8719   27.9359 C   0  0  0  0  0  0  0  0  0  0  0  0
   10.3516  -19.0287   28.6807 O   0  0  0  0  0  0  0  0  0  0  0  0
   10.8752  -16.8638   28.2925 O   0  0  0  0  0  0  0  0  0  0  0  0
  2  5  1  0
  2  3  1  0
  2  1  1  6
  4  3  1  0
  5  6  2  0
  8  7  1  1
  8  9  1  0
  8 10  1  0
 11 10  1  1
 11 12  1  0
 11 13  1  0
 12  5  1  0
 13 18  1  0
 13 14  2  0
 16 15  1  0
 17 16  1  6
 18 17  1  0
 19 20  1  0
 19 17  1  0
 21 19  2  0
M  END
$$$$
