ELN.pdb
     RDKit          3D

 26 25  0  0  1  0  0  0  0  0999 V2000
    8.8393  -15.6888   20.7436 N   0  0  0  0  0  0  0  0  0  0  0  0
    8.3488  -16.3523   21.9379 C   0  0  1  0  0  0  0  0  0  0  0  0
    8.9984  -17.7341   22.0791 C   0  0  0  0  0  0  0  0  0  0  0  0
    8.7903  -18.5260   20.7812 C   0  0  0  0  0  0  0  0  0  0  0  0
    9.4230  -19.8607   20.9134 C   0  0  0  0  0  0  0  0  0  0  0  0
   10.5153  -20.1523   20.3714 O   0  0  0  0  0  0  0  0  0  0  0  0
    8.7230  -15.5127   23.1032 C   0  0  0  0  0  0  0  0  0  0  0  0
    9.8681  -14.9684   23.1518 O   0  0  0  0  0  0  0  0  0  0  0  0
    8.7714  -20.8282   21.6714 O   0  0  0  0  0  0  0  0  0  0  0  0
    5.3970  -12.1946   26.8888 C   0  0  0  0  0  0  0  0  0  0  0  0
    6.6806  -12.5684   26.1776 C   0  0  2  0  0  0  0  0  0  0  0  0
    6.7915  -11.8025   24.8964 C   0  0  0  0  0  0  0  0  0  0  0  0
    6.9031  -14.0314   26.0799 C   0  0  0  0  0  0  0  0  0  0  0  0
    8.0691  -14.4988   25.2884 C   0  0  2  0  0  0  0  0  0  0  0  0
    7.7765  -15.3313   24.1636 N   0  0  0  0  0  0  0  0  0  0  0  0
    9.1399  -15.0681   26.1523 C   0  0  0  0  0  0  0  0  0  0  0  0
    9.3235  -14.5735   27.2898 O   0  0  0  0  0  0  0  0  0  0  0  0
    9.8988  -20.2133   28.0178 N   0  0  0  0  0  0  0  0  0  0  0  0
    9.7882  -18.8243   28.3867 C   0  0  0  0  0  0  0  0  0  0  0  0
   10.0956  -18.5075   29.5534 O   0  0  0  0  0  0  0  0  0  0  0  0
    9.3165  -17.8988   27.3346 C   0  0  0  0  0  0  0  0  0  0  0  0
   10.4597  -17.1186   26.7825 C   0  0  2  0  0  0  0  0  0  0  0  0
    9.9821  -16.1479   25.7712 N   0  0  0  0  0  0  0  0  0  0  0  0
   11.3963  -18.0339   26.0894 C   0  0  0  0  0  0  0  0  0  0  0  0
   12.5295  -18.3326   26.5774 O   0  0  0  0  0  0  0  0  0  0  0  0
   11.0554  -18.6004   24.8708 O   0  0  0  0  0  0  0  0  0  0  0  0
  2  1  1  6
  3  2  1  0
  4  3  1  0
  5  4  1  0
  5  6  2  0
  7  2  1  0
  7  8  2  0
  9  5  1  0
 11 10  1  6
 11 12  1  0
 14 13  1  1
 13 11  1  0
 14 15  1  0
 15  7  1  0
 16 14  1  0
 17 16  2  0
 18 19  1  0
 19 21  1  0
 20 19  2  0
 22 21  1  6
 22 23  1  0
 23 16  1  0
 24 26  1  0
 24 22  1  0
 25 24  2  0
M  END
$$$$
