ELN.pdb
     RDKit          3D

 26 25  0  0  1  0  0  0  0  0999 V2000
    8.1174  -16.0181   20.2600 N   0  0  0  0  0  0  0  0  0  0  0  0
    8.6743  -16.6499   21.4424 C   0  0  1  0  0  0  0  0  0  0  0  0
   10.0063  -17.3285   21.1010 C   0  0  0  0  0  0  0  0  0  0  0  0
    9.9565  -17.8425   19.6560 C   0  0  0  0  0  0  0  0  0  0  0  0
   11.2214  -18.5505   19.3427 C   0  0  0  0  0  0  0  0  0  0  0  0
   11.8234  -18.4166   18.2511 O   0  0  0  0  0  0  0  0  0  0  0  0
    8.9094  -15.5863   22.4505 C   0  0  0  0  0  0  0  0  0  0  0  0
   10.0438  -15.0232   22.5264 O   0  0  0  0  0  0  0  0  0  0  0  0
   11.7582  -19.4002   20.3045 O   0  0  0  0  0  0  0  0  0  0  0  0
    5.7454  -12.4598   26.9058 C   0  0  0  0  0  0  0  0  0  0  0  0
    7.0194  -12.7617   26.1451 C   0  0  2  0  0  0  0  0  0  0  0  0
    7.7167  -11.4838   25.7970 C   0  0  0  0  0  0  0  0  0  0  0  0
    6.8345  -13.7236   25.0314 C   0  0  0  0  0  0  0  0  0  0  0  0
    8.0536  -14.3035   24.4133 C   0  0  2  0  0  0  0  0  0  0  0  0
    7.8418  -15.2119   23.3300 N   0  0  0  0  0  0  0  0  0  0  0  0
    8.9940  -14.8455   25.4326 C   0  0  0  0  0  0  0  0  0  0  0  0
    9.1146  -14.2401   26.5240 O   0  0  0  0  0  0  0  0  0  0  0  0
   10.5271  -17.7156   29.1526 N   0  0  0  0  0  0  0  0  0  0  0  0
    9.5596  -18.2667   28.2373 C   0  0  0  0  0  0  0  0  0  0  0  0
    9.1951  -19.4459   28.4188 O   0  0  0  0  0  0  0  0  0  0  0  0
    9.0869  -17.3710   27.1602 C   0  0  0  0  0  0  0  0  0  0  0  0
   10.2457  -16.7943   26.4220 C   0  0  2  0  0  0  0  0  0  0  0  0
    9.7776  -16.0175   25.2513 N   0  0  0  0  0  0  0  0  0  0  0  0
   11.0949  -17.8896   25.8981 C   0  0  0  0  0  0  0  0  0  0  0  0
   10.7501  -18.5866   24.8946 O   0  0  0  0  0  0  0  0  0  0  0  0
   12.3095  -18.1873   26.4965 O   0  0  0  0  0  0  0  0  0  0  0  0
  2  1  1  6
  3  2  1  0
  4  3  1  0
  5  4  1  0
  5  6  2  0
  7  2  1  0
  7  8  2  0
  9  5  1  0
 11 10  1  6
 11 12  1  0
 14 13  1  1
 13 11  1  0
 14 15  1  0
 15  7  1  0
 16 14  1  0
 17 16  2  0
 18 19  1  0
 19 21  1  0
 20 19  2  0
 22 21  1  6
 22 23  1  0
 23 16  1  0
 24 26  1  0
 24 22  1  0
 25 24  2  0
M  END
$$$$
