ELN.pdb
     RDKit          3D

 26 25  0  0  1  0  0  0  0  0999 V2000
    7.7183  -17.7212   21.7814 N   0  0  0  0  0  0  0  0  0  0  0  0
    9.1191  -17.3414   21.8080 C   0  0  1  0  0  0  0  0  0  0  0  0
    9.6004  -16.9985   20.3931 C   0  0  0  0  0  0  0  0  0  0  0  0
    8.4511  -17.2187   19.4004 C   0  0  0  0  0  0  0  0  0  0  0  0
    8.9461  -17.0002   18.0197 C   0  0  0  0  0  0  0  0  0  0  0  0
   10.0205  -17.4890   17.5970 O   0  0  0  0  0  0  0  0  0  0  0  0
    9.2419  -16.1412   22.6725 C   0  0  0  0  0  0  0  0  0  0  0  0
   10.2911  -15.4295   22.6253 O   0  0  0  0  0  0  0  0  0  0  0  0
    8.1823  -16.2167   17.1605 O   0  0  0  0  0  0  0  0  0  0  0  0
    7.9389  -12.8212   26.7527 C   0  0  0  0  0  0  0  0  0  0  0  0
    7.0554  -12.7299   25.5263 C   0  0  2  0  0  0  0  0  0  0  0  0
    5.7451  -12.1050   25.8912 C   0  0  0  0  0  0  0  0  0  0  0  0
    6.9783  -13.9927   24.7523 C   0  0  0  0  0  0  0  0  0  0  0  0
    8.2521  -14.6920   24.4476 C   0  0  2  0  0  0  0  0  0  0  0  0
    8.1640  -15.8052   23.5550 N   0  0  0  0  0  0  0  0  0  0  0  0
    9.0231  -15.0129   25.6804 C   0  0  0  0  0  0  0  0  0  0  0  0
    8.7673  -14.3812   26.7330 O   0  0  0  0  0  0  0  0  0  0  0  0
   10.3173  -18.5744   28.9510 N   0  0  0  0  0  0  0  0  0  0  0  0
    9.0975  -18.6783   28.1903 C   0  0  0  0  0  0  0  0  0  0  0  0
    8.2511  -19.5159   28.5623 O   0  0  0  0  0  0  0  0  0  0  0  0
    8.9652  -17.7714   27.0301 C   0  0  0  0  0  0  0  0  0  0  0  0
   10.1568  -16.8821   26.9311 C   0  0  2  0  0  0  0  0  0  0  0  0
   10.0450  -15.9986   25.7479 N   0  0  0  0  0  0  0  0  0  0  0  0
   11.3745  -17.7039   26.7390 C   0  0  0  0  0  0  0  0  0  0  0  0
   11.8712  -17.9116   25.5893 O   0  0  0  0  0  0  0  0  0  0  0  0
   12.0171  -18.2763   27.8261 O   0  0  0  0  0  0  0  0  0  0  0  0
  2  1  1  6
  3  2  1  0
  4  3  1  0
  5  4  1  0
  5  6  2  0
  7  2  1  0
  7  8  2  0
  9  5  1  0
 11 10  1  1
 11 12  1  0
 14 13  1  1
 13 11  1  0
 14 15  1  0
 15  7  1  0
 16 14  1  0
 17 16  2  0
 18 19  1  0
 19 21  1  0
 20 19  2  0
 22 21  1  6
 22 23  1  0
 23 16  1  0
 24 26  1  0
 24 22  1  0
 25 24  2  0
M  END
$$$$
