ELN.pdb
     RDKit          3D

 26 25  0  0  1  0  0  0  0  0999 V2000
    7.5522  -16.9833   22.4357 N   0  0  0  0  0  0  0  0  0  0  0  0
    8.9331  -16.5775   22.2469 C   0  0  1  0  0  0  0  0  0  0  0  0
    9.0870  -15.8296   20.9172 C   0  0  0  0  0  0  0  0  0  0  0  0
    7.9910  -16.2912   19.9473 C   0  0  0  0  0  0  0  0  0  0  0  0
    8.2385  -15.7010   18.6096 C   0  0  0  0  0  0  0  0  0  0  0  0
    7.5069  -14.8126   18.1122 O   0  0  0  0  0  0  0  0  0  0  0  0
    9.2904  -15.6692   23.3651 C   0  0  0  0  0  0  0  0  0  0  0  0
   10.4308  -15.1140   23.3923 O   0  0  0  0  0  0  0  0  0  0  0  0
    9.3302  -16.1576   17.8780 O   0  0  0  0  0  0  0  0  0  0  0  0
    7.7010  -11.8500   25.1221 C   0  0  0  0  0  0  0  0  0  0  0  0
    6.8417  -13.0117   25.5751 C   0  0  2  0  0  0  0  0  0  0  0  0
    5.6029  -12.4968   26.2391 C   0  0  0  0  0  0  0  0  0  0  0  0
    7.5916  -14.0525   26.3194 C   0  0  0  0  0  0  0  0  0  0  0  0
    8.6922  -14.7495   25.6072 C   0  0  2  0  0  0  0  0  0  0  0  0
    8.3328  -15.4347   24.4051 N   0  0  0  0  0  0  0  0  0  0  0  0
    9.5023  -15.5986   26.5237 C   0  0  0  0  0  0  0  0  0  0  0  0
    9.8063  -15.1468   27.6531 O   0  0  0  0  0  0  0  0  0  0  0  0
   10.9444  -19.0392   29.9851 N   0  0  0  0  0  0  0  0  0  0  0  0
   10.4052  -19.5933   28.7687 C   0  0  0  0  0  0  0  0  0  0  0  0
   10.5797  -20.8105   28.5581 O   0  0  0  0  0  0  0  0  0  0  0  0
    9.6885  -18.6554   27.8785 C   0  0  0  0  0  0  0  0  0  0  0  0
   10.6523  -17.7279   27.2218 C   0  0  2  0  0  0  0  0  0  0  0  0
    9.9635  -16.9041   26.2020 N   0  0  0  0  0  0  0  0  0  0  0  0
   11.6893  -18.5117   26.5108 C   0  0  0  0  0  0  0  0  0  0  0  0
   11.6235  -18.7384   25.2635 O   0  0  0  0  0  0  0  0  0  0  0  0
   12.7783  -19.0258   27.1977 O   0  0  0  0  0  0  0  0  0  0  0  0
  2  1  1  1
  3  2  1  0
  4  3  1  0
  5  4  1  0
  5  6  2  0
  7  2  1  0
  7  8  2  0
  9  5  1  0
 11 10  1  1
 11 12  1  0
 14 13  1  1
 13 11  1  0
 14 15  1  0
 15  7  1  0
 16 14  1  0
 17 16  2  0
 18 19  1  0
 19 21  1  0
 20 19  2  0
 22 21  1  6
 22 23  1  0
 23 16  1  0
 24 26  1  0
 24 22  1  0
 25 24  2  0
M  END
$$$$
