ELN.pdb
     RDKit          3D

 26 25  0  0  1  0  0  0  0  0999 V2000
    8.5009  -16.4977   20.4443 N   0  0  0  0  0  0  0  0  0  0  0  0
    8.2068  -16.9116   21.8043 C   0  0  1  0  0  0  0  0  0  0  0  0
    9.0487  -18.1377   22.1771 C   0  0  0  0  0  0  0  0  0  0  0  0
    9.2332  -19.0212   20.9360 C   0  0  0  0  0  0  0  0  0  0  0  0
   10.0613  -20.1992   21.2905 C   0  0  0  0  0  0  0  0  0  0  0  0
   11.1878  -20.4158   20.7846 O   0  0  0  0  0  0  0  0  0  0  0  0
    8.5583  -15.7833   22.7023 C   0  0  0  0  0  0  0  0  0  0  0  0
    9.6249  -15.1248   22.5066 O   0  0  0  0  0  0  0  0  0  0  0  0
    9.5612  -21.1012   22.2241 O   0  0  0  0  0  0  0  0  0  0  0  0
    5.9215  -12.4597   27.3524 C   0  0  0  0  0  0  0  0  0  0  0  0
    7.0784  -12.7537   26.4206 C   0  0  2  0  0  0  0  0  0  0  0  0
    7.5619  -11.4821   25.7964 C   0  0  0  0  0  0  0  0  0  0  0  0
    6.8207  -13.8771   25.4872 C   0  0  0  0  0  0  0  0  0  0  0  0
    7.9577  -14.3640   24.6658 C   0  0  2  0  0  0  0  0  0  0  0  0
    7.6796  -15.4558   23.7859 N   0  0  0  0  0  0  0  0  0  0  0  0
    9.1814  -14.5915   25.4831 C   0  0  0  0  0  0  0  0  0  0  0  0
    9.5750  -13.6779   26.2464 O   0  0  0  0  0  0  0  0  0  0  0  0
   11.0698  -15.9562   29.7504 N   0  0  0  0  0  0  0  0  0  0  0  0
   10.4930  -17.0120   28.9567 C   0  0  0  0  0  0  0  0  0  0  0  0
   10.6632  -18.1864   29.3414 O   0  0  0  0  0  0  0  0  0  0  0  0
    9.7462  -16.5964   27.7502 C   0  0  0  0  0  0  0  0  0  0  0  0
   10.6916  -16.2289   26.6586 C   0  0  2  0  0  0  0  0  0  0  0  0
    9.9468  -15.7890   25.4566 N   0  0  0  0  0  0  0  0  0  0  0  0
   11.4794  -17.4197   26.2628 C   0  0  0  0  0  0  0  0  0  0  0  0
   12.3085  -17.9700   27.0511 O   0  0  0  0  0  0  0  0  0  0  0  0
   11.3295  -17.9764   25.0020 O   0  0  0  0  0  0  0  0  0  0  0  0
  2  1  1  6
  3  2  1  0
  4  3  1  0
  5  4  1  0
  5  6  2  0
  7  2  1  0
  7  8  2  0
  9  5  1  0
 11 10  1  6
 11 12  1  0
 14 13  1  1
 13 11  1  0
 14 15  1  0
 15  7  1  0
 16 14  1  0
 17 16  2  0
 18 19  1  0
 19 21  1  0
 20 19  2  0
 22 21  1  1
 22 23  1  0
 23 16  1  0
 24 26  1  0
 24 22  1  0
 25 24  2  0
M  END
$$$$
