RIP.pdb
     RDKit          3D

 27 27  0  0  1  0  0  0  0  0999 V2000
    8.1397  -12.5893   17.5541 N   0  0  0  0  0  0  0  0  0  0  0  0
    7.9909  -13.6808   16.6365 C   0  0  0  0  0  0  0  0  0  0  0  0
    7.5025  -13.4779   15.4745 N   0  0  0  0  0  0  0  0  0  0  0  0
    8.3816  -14.9996   17.0020 N   0  0  0  0  0  0  0  0  0  0  0  0
    8.1759  -15.5010   18.3364 C   0  0  0  0  0  0  0  0  0  0  0  0
    8.8266  -14.5870   19.3446 C   0  0  0  0  0  0  0  0  0  0  0  0
    9.4287  -15.3683   20.4839 C   0  0  0  0  0  0  0  0  0  0  0  0
    8.3746  -15.6905   21.5387 C   0  0  2  0  0  0  0  0  0  0  0  0
    7.0642  -15.2984   21.1199 N   0  0  0  0  0  0  0  0  0  0  0  0
    8.7130  -15.0559   22.8338 C   0  0  0  0  0  0  0  0  0  0  0  0
    9.5935  -14.1582   22.8557 O   0  0  0  0  0  0  0  0  0  0  0  0
    7.4356  -14.2401   14.7865 C   0  0  0  0  0  0  0  0  0  0  0  0
    5.5173  -12.3523   25.8713 C   0  0  0  0  0  0  0  0  0  0  0  0
    6.7698  -12.9087   25.1684 C   0  0  2  0  0  0  0  0  0  0  0  0
    7.2577  -14.0952   25.9458 C   0  0  0  0  0  0  0  0  0  0  0  0
    7.5920  -13.6694   27.3369 C   0  0  2  0  0  0  0  0  0  0  0  0
    8.4594  -14.7937   25.3242 N   0  0  0  0  0  0  0  0  0  0  0  0
    8.0961  -15.4020   24.0763 C   0  0  0  0  0  0  0  0  0  0  0  0
    9.1963  -15.6516   26.2560 O   0  0  0  0  0  0  0  0  0  0  0  0
    8.9333  -16.9069   26.1716 N   0  0  0  0  0  0  0  0  0  0  0  0
   10.1458  -15.2682   27.2241 C   0  0  0  0  0  0  0  0  0  0  0  0
   10.6232  -13.9268   27.4118 C   0  0  0  0  0  0  0  0  0  0  0  0
   11.6977  -13.9906   28.5128 C   0  0  0  0  0  0  0  0  0  0  0  0
   11.3504  -15.2607   29.2308 C   0  0  2  0  0  0  0  0  0  0  0  0
   10.8357  -16.1446   28.1206 C   0  0  0  0  0  0  0  0  0  0  0  0
    9.9662  -17.2137   28.7019 O   0  0  0  0  0  0  0  0  0  0  0  0
    8.7295  -17.0912   28.6023 O   0  0  0  0  0  0  0  0  0  0  0  0
  2  1  1  0
  3  2  2  0
  4  2  1  0
  5  4  1  0
  6  5  1  0
  6  7  1  0
  8 10  1  0
  8  9  1  6
  8  7  1  0
 10 11  2  0
 13 12  1  0
 14 13  1  0
 14 15  1  6
 16 17  1  6
 16 14  1  0
 17 10  1  0
 18 16  1  0
 19 18  2  0
 20 18  1  0
 20 24  1  0
 21 22  1  0
 21 20  1  0
 22 23  1  0
 23 24  1  0
 25 27  1  0
 24 25  1  1
 26 25  2  0
M  END
$$$$
