RIP.pdb
     RDKit          3D

 27 27  0  0  1  0  0  0  0  0999 V2000
    8.9576  -15.8926   15.9824 N   0  0  0  0  0  0  0  0  0  0  0  0
    8.2666  -14.8640   16.7033 C   0  0  0  0  0  0  0  0  0  0  0  0
    8.2583  -13.6668   16.2598 N   0  0  0  0  0  0  0  0  0  0  0  0
    7.5832  -15.1567   17.9168 N   0  0  0  0  0  0  0  0  0  0  0  0
    7.9296  -16.3042   18.7155 C   0  0  0  0  0  0  0  0  0  0  0  0
    9.2898  -16.1157   19.3396 C   0  0  0  0  0  0  0  0  0  0  0  0
    9.2066  -16.1125   20.8442 C   0  0  0  0  0  0  0  0  0  0  0  0
    8.4209  -14.9033   21.3424 C   0  0  2  0  0  0  0  0  0  0  0  0
    8.6308  -13.7542   20.5166 N   0  0  0  0  0  0  0  0  0  0  0  0
    8.7630  -14.5955   22.7504 C   0  0  0  0  0  0  0  0  0  0  0  0
    9.9169  -14.1702   23.0134 O   0  0  0  0  0  0  0  0  0  0  0  0
    7.7824  -12.9135   16.7744 C   0  0  0  0  0  0  0  0  0  0  0  0
    6.9078  -11.3979   26.7362 C   0  0  0  0  0  0  0  0  0  0  0  0
    7.0599  -12.9005   27.0384 C   0  0  2  0  0  0  0  0  0  0  0  0
    6.8418  -13.6612   25.7642 C   0  0  0  0  0  0  0  0  0  0  0  0
    5.8679  -14.7654   26.0100 C   0  0  2  0  0  0  0  0  0  0  0  0
    8.1155  -14.2316   25.1554 N   0  0  0  0  0  0  0  0  0  0  0  0
    7.8552  -14.7525   23.8439 C   0  0  0  0  0  0  0  0  0  0  0  0
    8.8581  -15.1199   26.0536 O   0  0  0  0  0  0  0  0  0  0  0  0
    8.5717  -16.3687   25.9510 N   0  0  0  0  0  0  0  0  0  0  0  0
    9.8354  -14.7716   27.0071 C   0  0  0  0  0  0  0  0  0  0  0  0
   10.2567  -13.4281   27.2899 C   0  0  0  0  0  0  0  0  0  0  0  0
   11.3869  -13.5295   28.3307 C   0  0  0  0  0  0  0  0  0  0  0  0
   11.1373  -14.8727   28.9495 C   0  0  2  0  0  0  0  0  0  0  0  0
   10.6106  -15.6842   27.7908 C   0  0  0  0  0  0  0  0  0  0  0  0
    9.8236  -16.8429   28.3150 O   0  0  0  0  0  0  0  0  0  0  0  0
   10.4289  -17.7371   28.9382 O   0  0  0  0  0  0  0  0  0  0  0  0
  2  1  1  0
  3  2  2  0
  4  2  1  0
  5  4  1  0
  6  5  1  0
  6  7  1  0
  8 10  1  0
  8  9  1  6
  8  7  1  0
 10 11  2  0
 13 12  1  0
 14 13  1  0
 14 15  1  6
 16 17  1  1
 16 14  1  0
 17 10  1  0
 18 16  1  0
 19 18  2  0
 20 18  1  0
 20 24  1  0
 21 22  1  0
 21 20  1  0
 22 23  1  0
 23 24  1  0
 25 27  1  0
 24 25  1  1
 26 25  2  0
M  END
$$$$
