RIP.pdb
     RDKit          3D

 27 27  0  0  1  0  0  0  0  0999 V2000
    7.5645  -13.4681   15.8869 N   0  0  0  0  0  0  0  0  0  0  0  0
    8.9388  -13.6061   16.2711 C   0  0  0  0  0  0  0  0  0  0  0  0
    9.7243  -14.3420   15.5846 N   0  0  0  0  0  0  0  0  0  0  0  0
    9.4476  -12.9308   17.4158 N   0  0  0  0  0  0  0  0  0  0  0  0
    8.8309  -13.0763   18.7092 C   0  0  0  0  0  0  0  0  0  0  0  0
    8.1880  -14.4353   18.8322 C   0  0  0  0  0  0  0  0  0  0  0  0
    7.4989  -14.5970   20.1625 C   0  0  0  0  0  0  0  0  0  0  0  0
    8.3065  -15.5037   21.0862 C   0  0  2  0  0  0  0  0  0  0  0  0
    7.6944  -16.7873   21.2416 N   0  0  0  0  0  0  0  0  0  0  0  0
    8.5082  -14.8656   22.4077 C   0  0  0  0  0  0  0  0  0  0  0  0
    9.4104  -13.9978   22.5290 O   0  0  0  0  0  0  0  0  0  0  0  0
   10.7318  -14.3792   15.7904 C   0  0  0  0  0  0  0  0  0  0  0  0
    6.3541  -11.8493   26.3638 C   0  0  0  0  0  0  0  0  0  0  0  0
    6.7864  -13.2885   26.7016 C   0  0  2  0  0  0  0  0  0  0  0  0
    6.6369  -14.1268   25.4667 C   0  0  0  0  0  0  0  0  0  0  0  0
    5.8188  -15.3337   25.7865 C   0  0  2  0  0  0  0  0  0  0  0  0
    7.9582  -14.5574   24.8445 N   0  0  0  0  0  0  0  0  0  0  0  0
    7.7343  -15.1760   23.5692 C   0  0  0  0  0  0  0  0  0  0  0  0
    8.8350  -15.2929   25.7597 O   0  0  0  0  0  0  0  0  0  0  0  0
    8.8812  -16.5638   25.5732 N   0  0  0  0  0  0  0  0  0  0  0  0
    9.6221  -14.7789   26.8094 C   0  0  0  0  0  0  0  0  0  0  0  0
    9.8532  -13.3815   27.0468 C   0  0  0  0  0  0  0  0  0  0  0  0
   10.8259  -13.2907   28.2369 C   0  0  0  0  0  0  0  0  0  0  0  0
   10.6338  -14.6153   28.9137 C   0  0  2  0  0  0  0  0  0  0  0  0
   10.3688  -15.5485   27.7571 C   0  0  0  0  0  0  0  0  0  0  0  0
    9.6420  -16.7578   28.2533 O   0  0  0  0  0  0  0  0  0  0  0  0
    8.4164  -16.8416   28.0405 O   0  0  0  0  0  0  0  0  0  0  0  0
  2  1  1  0
  3  2  2  0
  4  2  1  0
  5  4  1  0
  6  5  1  0
  6  7  1  0
  8 10  1  0
  8  9  1  1
  8  7  1  0
 10 11  2  0
 13 12  1  0
 14 13  1  0
 14 15  1  6
 16 17  1  1
 16 14  1  0
 17 10  1  0
 18 16  1  0
 19 18  2  0
 20 18  1  0
 20 24  1  0
 21 22  1  0
 21 20  1  0
 22 23  1  0
 23 24  1  0
 25 27  1  0
 24 25  1  1
 26 25  2  0
M  END
$$$$
