RIP.pdb
     RDKit          3D

 27 27  0  0  1  0  0  0  0  0999 V2000
    8.1511  -15.7186   16.1476 N   0  0  0  0  0  0  0  0  0  0  0  0
    8.2081  -14.4794   16.8663 C   0  0  0  0  0  0  0  0  0  0  0  0
    8.3687  -13.3808   16.2359 N   0  0  0  0  0  0  0  0  0  0  0  0
    8.0877  -14.4520   18.2841 N   0  0  0  0  0  0  0  0  0  0  0  0
    7.9970  -15.6662   19.0534 C   0  0  0  0  0  0  0  0  0  0  0  0
    9.3757  -16.1995   19.3536 C   0  0  0  0  0  0  0  0  0  0  0  0
    9.6138  -16.2977   20.8383 C   0  0  0  0  0  0  0  0  0  0  0  0
    8.4057  -15.7867   21.6174 C   0  0  2  0  0  0  0  0  0  0  0  0
    7.6950  -14.7762   20.8961 N   0  0  0  0  0  0  0  0  0  0  0  0
    8.8122  -15.2801   22.9487 C   0  0  0  0  0  0  0  0  0  0  0  0
    9.9983  -14.8961   23.1134 O   0  0  0  0  0  0  0  0  0  0  0  0
    8.4551  -12.4877   16.7396 C   0  0  0  0  0  0  0  0  0  0  0  0
    5.3715  -12.1500   25.6919 C   0  0  0  0  0  0  0  0  0  0  0  0
    6.6264  -12.7492   25.0294 C   0  0  2  0  0  0  0  0  0  0  0  0
    7.1625  -13.8263   25.9251 C   0  0  0  0  0  0  0  0  0  0  0  0
    7.5888  -13.2222   27.2218 C   0  0  2  0  0  0  0  0  0  0  0  0
    8.3193  -14.6143   25.3255 N   0  0  0  0  0  0  0  0  0  0  0  0
    7.9327  -15.1983   24.0730 C   0  0  0  0  0  0  0  0  0  0  0  0
    8.9749  -15.5211   26.2715 O   0  0  0  0  0  0  0  0  0  0  0  0
    8.4573  -16.6947   26.3556 N   0  0  0  0  0  0  0  0  0  0  0  0
   10.0904  -15.2618   27.0924 C   0  0  0  0  0  0  0  0  0  0  0  0
   10.7848  -14.0061   27.1522 C   0  0  0  0  0  0  0  0  0  0  0  0
   11.9731  -14.2038   28.1112 C   0  0  0  0  0  0  0  0  0  0  0  0
   11.5364  -15.3827   28.9289 C   0  0  2  0  0  0  0  0  0  0  0  0
   10.7527  -16.2081   27.9373 C   0  0  0  0  0  0  0  0  0  0  0  0
    9.8165  -17.1113   28.6753 O   0  0  0  0  0  0  0  0  0  0  0  0
    8.6317  -16.7498   28.8158 O   0  0  0  0  0  0  0  0  0  0  0  0
  2  1  1  0
  3  2  2  0
  4  2  1  0
  5  4  1  0
  6  5  1  0
  6  7  1  0
  8 10  1  0
  8  9  1  6
  8  7  1  0
 10 11  2  0
 13 12  1  0
 14 13  1  0
 14 15  1  6
 16 17  1  6
 16 14  1  0
 17 10  1  0
 18 16  1  0
 19 18  2  0
 20 18  1  0
 20 24  1  0
 21 22  1  0
 21 20  1  0
 22 23  1  0
 23 24  1  0
 25 27  1  0
 24 25  1  1
 26 25  2  0
M  END
$$$$
