RIP.pdb
     RDKit          3D

 27 27  0  0  1  0  0  0  0  0999 V2000
    6.9445  -20.4102   19.3451 N   0  0  0  0  0  0  0  0  0  0  0  0
    8.0391  -19.9707   18.5303 C   0  0  0  0  0  0  0  0  0  0  0  0
    8.3246  -20.5926   17.4524 N   0  0  0  0  0  0  0  0  0  0  0  0
    8.8210  -18.8424   18.9056 N   0  0  0  0  0  0  0  0  0  0  0  0
    8.5469  -18.1073   20.1135 C   0  0  0  0  0  0  0  0  0  0  0  0
    7.9789  -16.7498   19.7821 C   0  0  0  0  0  0  0  0  0  0  0  0
    6.9099  -16.3482   20.7654 C   0  0  0  0  0  0  0  0  0  0  0  0
    6.9961  -14.8586   21.0834 C   0  0  2  0  0  0  0  0  0  0  0  0
    7.5843  -14.1176   20.0104 N   0  0  0  0  0  0  0  0  0  0  0  0
    7.7468  -14.6300   22.3398 C   0  0  0  0  0  0  0  0  0  0  0  0
    8.9744  -14.3657   22.2713 O   0  0  0  0  0  0  0  0  0  0  0  0
    9.1044  -20.2876   16.8544 C   0  0  0  0  0  0  0  0  0  0  0  0
    5.8285  -11.5957   26.3674 C   0  0  0  0  0  0  0  0  0  0  0  0
    6.6392  -12.3205   25.2765 C   0  0  2  0  0  0  0  0  0  0  0  0
    7.1024  -13.6354   25.8300 C   0  0  0  0  0  0  0  0  0  0  0  0
    7.9119  -13.3944   27.0607 C   0  0  2  0  0  0  0  0  0  0  0  0
    7.9076  -14.4742   24.8468 N   0  0  0  0  0  0  0  0  0  0  0  0
    7.1592  -14.6911   23.6418 C   0  0  0  0  0  0  0  0  0  0  0  0
    8.5120  -15.6697   25.4407 O   0  0  0  0  0  0  0  0  0  0  0  0
    7.7709  -16.3001   26.2806 N   0  0  0  0  0  0  0  0  0  0  0  0
    9.7950  -16.2026   25.2053 C   0  0  0  0  0  0  0  0  0  0  0  0
   10.6923  -15.7465   24.1810 C   0  0  0  0  0  0  0  0  0  0  0  0
   11.9307  -16.6596   24.2400 C   0  0  0  0  0  0  0  0  0  0  0  0
   11.8677  -17.2004   25.6375 C   0  0  2  0  0  0  0  0  0  0  0  0
   10.3833  -17.3148   25.8872 C   0  0  0  0  0  0  0  0  0  0  0  0
   10.1280  -17.3180   27.3608 O   0  0  0  0  0  0  0  0  0  0  0  0
    9.7873  -16.2496   27.9057 O   0  0  0  0  0  0  0  0  0  0  0  0
  2  1  1  0
  3  2  2  0
  4  2  1  0
  5  4  1  0
  6  5  1  0
  6  7  1  0
  8 10  1  0
  8  9  1  6
  8  7  1  0
 10 11  2  0
 13 12  1  0
 14 13  1  0
 14 15  1  1
 16 17  1  6
 16 14  1  0
 17 10  1  0
 18 16  1  0
 19 18  2  0
 20 18  1  0
 20 24  1  0
 21 22  1  0
 21 20  1  0
 22 23  1  0
 23 24  1  0
 25 27  1  0
 24 25  1  1
 26 25  2  0
M  END
$$$$
