RIP.pdb
     RDKit          3D

 27 27  0  0  1  0  0  0  0  0999 V2000
    7.4667  -12.5384   16.5709 N   0  0  0  0  0  0  0  0  0  0  0  0
    8.2859  -13.6378   16.9899 C   0  0  0  0  0  0  0  0  0  0  0  0
    8.6091  -14.5492   16.1563 N   0  0  0  0  0  0  0  0  0  0  0  0
    8.7495  -13.7322   18.3321 N   0  0  0  0  0  0  0  0  0  0  0  0
    9.7092  -14.7312   18.7264 C   0  0  0  0  0  0  0  0  0  0  0  0
    9.0029  -15.9605   19.2415 C   0  0  0  0  0  0  0  0  0  0  0  0
    9.5626  -16.3974   20.5706 C   0  0  0  0  0  0  0  0  0  0  0  0
    8.4456  -16.6040   21.5891 C   0  0  2  0  0  0  0  0  0  0  0  0
    7.1540  -16.5861   20.9745 N   0  0  0  0  0  0  0  0  0  0  0  0
    8.5184  -15.5887   22.6652 C   0  0  0  0  0  0  0  0  0  0  0  0
    9.0106  -14.4619   22.4014 O   0  0  0  0  0  0  0  0  0  0  0  0
    9.1538  -15.3704   16.4525 C   0  0  0  0  0  0  0  0  0  0  0  0
    6.3004  -12.4542   27.0943 C   0  0  0  0  0  0  0  0  0  0  0  0
    7.5966  -13.1691   26.6686 C   0  0  2  0  0  0  0  0  0  0  0  0
    7.2555  -14.1649   25.5999 C   0  0  0  0  0  0  0  0  0  0  0  0
    6.1959  -15.0867   26.1053 C   0  0  2  0  0  0  0  0  0  0  0  0
    8.4445  -14.9777   25.1058 N   0  0  0  0  0  0  0  0  0  0  0  0
    8.0598  -15.8092   24.0014 C   0  0  0  0  0  0  0  0  0  0  0  0
    9.1913  -15.6484   26.1734 O   0  0  0  0  0  0  0  0  0  0  0  0
    8.9833  -16.9124   26.2783 N   0  0  0  0  0  0  0  0  0  0  0  0
   10.0976  -15.0786   27.0896 C   0  0  0  0  0  0  0  0  0  0  0  0
   10.4411  -13.6850   27.1377 C   0  0  0  0  0  0  0  0  0  0  0  0
   11.5156  -13.5323   28.2299 C   0  0  0  0  0  0  0  0  0  0  0  0
   11.2938  -14.7515   29.0747 C   0  0  2  0  0  0  0  0  0  0  0  0
   10.8693  -15.7887   28.0634 C   0  0  0  0  0  0  0  0  0  0  0  0
   10.1082  -16.8736   28.7567 O   0  0  0  0  0  0  0  0  0  0  0  0
    8.8694  -16.9085   28.6207 O   0  0  0  0  0  0  0  0  0  0  0  0
  2  1  1  0
  3  2  2  0
  4  2  1  0
  5  4  1  0
  6  5  1  0
  6  7  1  0
  8 10  1  0
  8  9  1  6
  8  7  1  0
 10 11  2  0
 13 12  1  0
 14 13  1  0
 14 15  1  6
 16 17  1  1
 16 14  1  0
 17 10  1  0
 18 16  1  0
 19 18  2  0
 20 18  1  0
 20 24  1  0
 21 22  1  0
 21 20  1  0
 22 23  1  0
 23 24  1  0
 25 27  1  0
 24 25  1  1
 26 25  2  0
M  END
$$$$
