RIP.pdb
     RDKit          3D

 27 27  0  0  1  0  0  0  0  0999 V2000
    3.3972  -18.2115   20.3956 N   0  0  0  0  0  0  0  0  0  0  0  0
    3.9835  -19.3175   19.6968 C   0  0  0  0  0  0  0  0  0  0  0  0
    3.2422  -20.1320   19.0510 N   0  0  0  0  0  0  0  0  0  0  0  0
    5.3913  -19.5257   19.7108 N   0  0  0  0  0  0  0  0  0  0  0  0
    6.2790  -18.6100   20.3799 C   0  0  0  0  0  0  0  0  0  0  0  0
    6.6973  -17.5064   19.4405 C   0  0  0  0  0  0  0  0  0  0  0  0
    7.6740  -16.5669   20.0993 C   0  0  0  0  0  0  0  0  0  0  0  0
    6.9415  -15.5058   20.9148 C   0  0  2  0  0  0  0  0  0  0  0  0
    6.5759  -14.3774   20.1152 N   0  0  0  0  0  0  0  0  0  0  0  0
    7.7578  -15.0738   22.0730 C   0  0  0  0  0  0  0  0  0  0  0  0
    9.0111  -15.1218   21.9811 O   0  0  0  0  0  0  0  0  0  0  0  0
    3.6385  -20.9694   18.6033 C   0  0  0  0  0  0  0  0  0  0  0  0
    7.3572  -11.6360   27.1849 C   0  0  0  0  0  0  0  0  0  0  0  0
    8.1285  -12.7696   26.4830 C   0  0  2  0  0  0  0  0  0  0  0  0
    7.3111  -13.2439   25.3181 C   0  0  0  0  0  0  0  0  0  0  0  0
    6.0207  -13.8040   25.8171 C   0  0  2  0  0  0  0  0  0  0  0  0
    8.0122  -14.2775   24.4471 N   0  0  0  0  0  0  0  0  0  0  0  0
    7.2066  -14.6000   23.3042 C   0  0  0  0  0  0  0  0  0  0  0  0
    8.5413  -15.4228   25.1924 O   0  0  0  0  0  0  0  0  0  0  0  0
    7.6792  -16.0647   25.8973 N   0  0  0  0  0  0  0  0  0  0  0  0
    9.8677  -15.8970   25.2299 C   0  0  0  0  0  0  0  0  0  0  0  0
   10.9206  -15.4438   24.3648 C   0  0  0  0  0  0  0  0  0  0  0  0
   12.1645  -16.2852   24.7049 C   0  0  0  0  0  0  0  0  0  0  0  0
   11.8638  -16.7599   26.0954 C   0  0  2  0  0  0  0  0  0  0  0  0
   10.3654  -16.9414   26.0722 C   0  0  0  0  0  0  0  0  0  0  0  0
    9.8382  -16.8865   27.4707 O   0  0  0  0  0  0  0  0  0  0  0  0
    9.2887  -15.8359   27.8562 O   0  0  0  0  0  0  0  0  0  0  0  0
  2  1  1  0
  3  2  2  0
  4  2  1  0
  5  4  1  0
  6  5  1  0
  6  7  1  0
  8 10  1  0
  8  9  1  6
  8  7  1  0
 10 11  2  0
 13 12  1  0
 14 13  1  0
 14 15  1  6
 16 17  1  1
 16 14  1  0
 17 10  1  0
 18 16  1  0
 19 18  2  0
 20 18  1  0
 20 24  1  0
 21 22  1  0
 21 20  1  0
 22 23  1  0
 23 24  1  0
 25 27  1  0
 24 25  1  1
 26 25  2  0
M  END
$$$$
