RIP.pdb
     RDKit          3D

 27 27  0  0  1  0  0  0  0  0999 V2000
    7.8399  -15.2677   16.8668 N   0  0  0  0  0  0  0  0  0  0  0  0
    8.2103  -13.8845   16.9380 C   0  0  0  0  0  0  0  0  0  0  0  0
    7.6662  -13.0353   16.1553 N   0  0  0  0  0  0  0  0  0  0  0  0
    9.1836  -13.4371   17.8750 N   0  0  0  0  0  0  0  0  0  0  0  0
    9.7512  -14.3301   18.8521 C   0  0  0  0  0  0  0  0  0  0  0  0
    8.8640  -14.4054   20.0696 C   0  0  0  0  0  0  0  0  0  0  0  0
    8.2816  -15.7849   20.2388 C   0  0  0  0  0  0  0  0  0  0  0  0
    8.8993  -16.4918   21.4414 C   0  0  2  0  0  0  0  0  0  0  0  0
    8.1384  -17.6374   21.8350 N   0  0  0  0  0  0  0  0  0  0  0  0
    9.0518  -15.5580   22.5812 C   0  0  0  0  0  0  0  0  0  0  0  0
    9.8310  -14.5783   22.4605 O   0  0  0  0  0  0  0  0  0  0  0  0
    7.9264  -12.0403   16.1883 C   0  0  0  0  0  0  0  0  0  0  0  0
    6.1972  -12.3148   26.6051 C   0  0  0  0  0  0  0  0  0  0  0  0
    7.5493  -13.0046   26.3435 C   0  0  2  0  0  0  0  0  0  0  0  0
    7.3374  -14.0840   25.3238 C   0  0  0  0  0  0  0  0  0  0  0  0
    6.3077  -15.0410   25.8259 C   0  0  2  0  0  0  0  0  0  0  0  0
    8.6027  -14.8456   24.9532 N   0  0  0  0  0  0  0  0  0  0  0  0
    8.3621  -15.6999   23.8256 C   0  0  0  0  0  0  0  0  0  0  0  0
    9.2731  -15.4759   26.0935 O   0  0  0  0  0  0  0  0  0  0  0  0
    9.1428  -16.7524   26.1700 N   0  0  0  0  0  0  0  0  0  0  0  0
   10.0325  -14.8562   27.1058 C   0  0  0  0  0  0  0  0  0  0  0  0
   10.2816  -13.4443   27.1899 C   0  0  0  0  0  0  0  0  0  0  0  0
   11.2135  -13.2314   28.3970 C   0  0  0  0  0  0  0  0  0  0  0  0
   10.9727  -14.4662   29.2135 C   0  0  2  0  0  0  0  0  0  0  0  0
   10.7307  -15.5224   28.1625 C   0  0  0  0  0  0  0  0  0  0  0  0
    9.9642  -16.6556   28.7667 O   0  0  0  0  0  0  0  0  0  0  0  0
    8.7424  -16.7366   28.5320 O   0  0  0  0  0  0  0  0  0  0  0  0
  2  1  1  0
  3  2  2  0
  4  2  1  0
  5  4  1  0
  6  5  1  0
  6  7  1  0
  8 10  1  0
  8  9  1  1
  8  7  1  0
 10 11  2  0
 13 12  1  0
 14 13  1  0
 14 15  1  6
 16 17  1  1
 16 14  1  0
 17 10  1  0
 18 16  1  0
 19 18  2  0
 20 18  1  0
 20 24  1  0
 21 22  1  0
 21 20  1  0
 22 23  1  0
 23 24  1  0
 25 27  1  0
 24 25  1  1
 26 25  2  0
M  END
$$$$
