RIP.pdb
     RDKit          3D

 27 27  0  0  1  0  0  0  0  0999 V2000
    6.9560  -21.5093   22.5018 N   0  0  0  0  0  0  0  0  0  0  0  0
    6.4825  -20.5641   23.4702 C   0  0  0  0  0  0  0  0  0  0  0  0
    5.6670  -20.9343   24.3801 N   0  0  0  0  0  0  0  0  0  0  0  0
    6.9096  -19.2070   23.4346 N   0  0  0  0  0  0  0  0  0  0  0  0
    8.2391  -18.8492   23.0118 C   0  0  0  0  0  0  0  0  0  0  0  0
    8.2240  -18.3836   21.5771 C   0  0  0  0  0  0  0  0  0  0  0  0
    9.0738  -17.1531   21.3915 C   0  0  0  0  0  0  0  0  0  0  0  0
    8.2479  -15.8866   21.5950 C   0  0  2  0  0  0  0  0  0  0  0  0
    8.3584  -14.9938   20.4827 N   0  0  0  0  0  0  0  0  0  0  0  0
    8.6364  -15.1990   22.8482 C   0  0  0  0  0  0  0  0  0  0  0  0
    9.6947  -14.5198   22.8625 O   0  0  0  0  0  0  0  0  0  0  0  0
    5.3213  -20.2695   25.0853 C   0  0  0  0  0  0  0  0  0  0  0  0
    5.4388  -12.0900   25.8090 C   0  0  0  0  0  0  0  0  0  0  0  0
    6.6731  -12.6892   25.1090 C   0  0  2  0  0  0  0  0  0  0  0  0
    7.1432  -13.8667   25.9105 C   0  0  0  0  0  0  0  0  0  0  0  0
    7.5362  -13.4084   27.2757 C   0  0  2  0  0  0  0  0  0  0  0  0
    8.2993  -14.6281   25.2764 N   0  0  0  0  0  0  0  0  0  0  0  0
    7.8770  -15.2582   24.0582 C   0  0  0  0  0  0  0  0  0  0  0  0
    9.0311  -15.4859   26.2123 O   0  0  0  0  0  0  0  0  0  0  0  0
    8.7639  -16.7406   26.1308 N   0  0  0  0  0  0  0  0  0  0  0  0
    9.9795  -15.1031   27.1815 C   0  0  0  0  0  0  0  0  0  0  0  0
   10.4225  -13.7548   27.4013 C   0  0  0  0  0  0  0  0  0  0  0  0
   11.5094  -13.8189   28.4900 C   0  0  0  0  0  0  0  0  0  0  0  0
   11.2038  -15.1169   29.1763 C   0  0  2  0  0  0  0  0  0  0  0  0
   10.7018  -15.9843   28.0474 C   0  0  0  0  0  0  0  0  0  0  0  0
    9.8674  -17.0919   28.6074 O   0  0  0  0  0  0  0  0  0  0  0  0
    8.6382  -17.0712   28.3997 O   0  0  0  0  0  0  0  0  0  0  0  0
  2  1  1  0
  3  2  2  0
  4  2  1  0
  5  4  1  0
  6  5  1  0
  6  7  1  0
  8 10  1  0
  8  9  1  6
  8  7  1  0
 10 11  2  0
 13 12  1  0
 14 13  1  0
 14 15  1  6
 16 17  1  6
 16 14  1  0
 17 10  1  0
 18 16  1  0
 19 18  2  0
 20 18  1  0
 20 24  1  0
 21 22  1  0
 21 20  1  0
 22 23  1  0
 23 24  1  0
 25 27  1  0
 24 25  1  1
 26 25  2  0
M  END
$$$$
