RIP.pdb
     RDKit          3D

 27 27  0  0  1  0  0  0  0  0999 V2000
    8.2439  -14.2894   15.5735 N   0  0  0  0  0  0  0  0  0  0  0  0
    8.5449  -13.7769   16.8782 C   0  0  0  0  0  0  0  0  0  0  0  0
    8.3637  -12.5400   17.1373 N   0  0  0  0  0  0  0  0  0  0  0  0
    9.0474  -14.6311   17.8995 N   0  0  0  0  0  0  0  0  0  0  0  0
    9.2889  -14.1448   19.2336 C   0  0  0  0  0  0  0  0  0  0  0  0
    7.9853  -13.7935   19.9062 C   0  0  0  0  0  0  0  0  0  0  0  0
    7.2468  -15.0301   20.3494 C   0  0  0  0  0  0  0  0  0  0  0  0
    8.0696  -15.8206   21.3621 C   0  0  2  0  0  0  0  0  0  0  0  0
    7.4807  -17.0918   21.6512 N   0  0  0  0  0  0  0  0  0  0  0  0
    8.2582  -15.0444   22.6096 C   0  0  0  0  0  0  0  0  0  0  0  0
    8.0735  -13.8007   22.5819 O   0  0  0  0  0  0  0  0  0  0  0  0
    8.5446  -12.1627   18.0773 C   0  0  0  0  0  0  0  0  0  0  0  0
    5.8313  -12.3191   25.1585 C   0  0  0  0  0  0  0  0  0  0  0  0
    7.1913  -12.8869   24.7109 C   0  0  2  0  0  0  0  0  0  0  0  0
    7.3969  -14.2075   25.3918 C   0  0  0  0  0  0  0  0  0  0  0  0
    7.2667  -14.0266   26.8677 C   0  0  2  0  0  0  0  0  0  0  0  0
    8.7317  -14.8684   25.0754 N   0  0  0  0  0  0  0  0  0  0  0  0
    8.6416  -15.6243   23.8590 C   0  0  0  0  0  0  0  0  0  0  0  0
    9.3330  -15.5691   26.2133 O   0  0  0  0  0  0  0  0  0  0  0  0
    9.2174  -16.8491   26.1932 N   0  0  0  0  0  0  0  0  0  0  0  0
   10.0125  -15.0129   27.3153 C   0  0  0  0  0  0  0  0  0  0  0  0
   10.2078  -13.6060   27.5278 C   0  0  0  0  0  0  0  0  0  0  0  0
   11.0625  -13.4661   28.8009 C   0  0  0  0  0  0  0  0  0  0  0  0
   10.8188  -14.7708   29.4993 C   0  0  2  0  0  0  0  0  0  0  0  0
   10.6727  -15.7432   28.3539 C   0  0  0  0  0  0  0  0  0  0  0  0
    9.9128  -16.9447   28.8184 O   0  0  0  0  0  0  0  0  0  0  0  0
    8.6798  -16.9731   28.6361 O   0  0  0  0  0  0  0  0  0  0  0  0
  2  1  1  0
  3  2  2  0
  4  2  1  0
  5  4  1  0
  6  5  1  0
  6  7  1  0
  8 10  1  0
  8  9  1  1
  8  7  1  0
 10 11  2  0
 13 12  1  0
 14 13  1  0
 14 15  1  6
 16 17  1  1
 16 14  1  0
 17 10  1  0
 18 16  1  0
 19 18  2  0
 20 18  1  0
 20 24  1  0
 21 22  1  0
 21 20  1  0
 22 23  1  0
 23 24  1  0
 25 27  1  0
 24 25  1  1
 26 25  2  0
M  END
$$$$
