RIP.pdb
     RDKit          3D

 27 27  0  0  1  0  0  0  0  0999 V2000
   10.5057  -14.0014   19.1405 N   0  0  0  0  0  0  0  0  0  0  0  0
    9.2214  -13.6931   18.5831 C   0  0  0  0  0  0  0  0  0  0  0  0
    8.9034  -12.4806   18.3406 N   0  0  0  0  0  0  0  0  0  0  0  0
    8.2853  -14.7250   18.2927 N   0  0  0  0  0  0  0  0  0  0  0  0
    8.6021  -16.1116   18.5193 C   0  0  0  0  0  0  0  0  0  0  0  0
    7.6266  -16.7179   19.4972 C   0  0  0  0  0  0  0  0  0  0  0  0
    8.1918  -16.7376   20.8939 C   0  0  0  0  0  0  0  0  0  0  0  0
    7.1627  -16.2386   21.9036 C   0  0  2  0  0  0  0  0  0  0  0  0
    6.1317  -15.4693   21.2779 N   0  0  0  0  0  0  0  0  0  0  0  0
    7.8144  -15.4514   22.9759 C   0  0  0  0  0  0  0  0  0  0  0  0
    8.8386  -14.7780   22.6946 O   0  0  0  0  0  0  0  0  0  0  0  0
    8.0176  -12.2480   17.8715 C   0  0  0  0  0  0  0  0  0  0  0  0
    5.7106  -11.8598   26.1166 C   0  0  0  0  0  0  0  0  0  0  0  0
    6.6143  -12.7551   25.2481 C   0  0  2  0  0  0  0  0  0  0  0  0
    7.2474  -13.7859   26.1349 C   0  0  0  0  0  0  0  0  0  0  0  0
    8.0762  -13.1024   27.1712 C   0  0  2  0  0  0  0  0  0  0  0  0
    8.1000  -14.8054   25.3918 N   0  0  0  0  0  0  0  0  0  0  0  0
    7.3490  -15.4068   24.3271 C   0  0  0  0  0  0  0  0  0  0  0  0
    8.8123  -15.7379   26.2696 O   0  0  0  0  0  0  0  0  0  0  0  0
    8.0704  -16.4021   27.0824 N   0  0  0  0  0  0  0  0  0  0  0  0
   10.1976  -15.9880   26.3298 C   0  0  0  0  0  0  0  0  0  0  0  0
   11.1732  -15.3882   25.4632 C   0  0  0  0  0  0  0  0  0  0  0  0
   12.5333  -16.0073   25.8339 C   0  0  0  0  0  0  0  0  0  0  0  0
   12.2969  -16.4939   27.2327 C   0  0  2  0  0  0  0  0  0  0  0  0
   10.8486  -16.9183   27.2009 C   0  0  0  0  0  0  0  0  0  0  0  0
   10.3023  -16.9194   28.5932 O   0  0  0  0  0  0  0  0  0  0  0  0
    9.6251  -15.9408   28.9649 O   0  0  0  0  0  0  0  0  0  0  0  0
  2  1  1  0
  3  2  2  0
  4  2  1  0
  5  4  1  0
  6  5  1  0
  6  7  1  0
  8 10  1  0
  8  9  1  6
  8  7  1  0
 10 11  2  0
 13 12  1  0
 14 13  1  0
 14 15  1  1
 16 17  1  6
 16 14  1  0
 17 10  1  0
 18 16  1  0
 19 18  2  0
 20 18  1  0
 20 24  1  0
 21 22  1  0
 21 20  1  0
 22 23  1  0
 23 24  1  0
 25 27  1  0
 24 25  1  1
 26 25  2  0
M  END
$$$$
