IFD.pdb
     RDKit          3D

 28 28  0  0  1  0  0  0  0  0999 V2000
    7.4083  -11.8439   19.6593 C   0  0  0  0  0  0  0  0  0  0  0  0
    7.5069  -13.1733   20.3741 C   0  0  0  0  0  0  0  0  0  0  0  0
    8.3964  -14.1170   19.6151 C   0  0  2  0  0  0  0  0  0  0  0  0
    7.9403  -14.2464   18.1912 C   0  0  0  0  0  0  0  0  0  0  0  0
    8.5709  -15.4335   20.3187 C   0  0  2  0  0  0  0  0  0  0  0  0
    7.2881  -16.1069   20.2934 N   0  0  0  0  0  0  0  0  0  0  0  0
    9.0263  -15.3119   21.7053 C   0  0  0  0  0  0  0  0  0  0  0  0
   10.1655  -14.8617   22.0276 O   0  0  0  0  0  0  0  0  0  0  0  0
    8.1706  -15.7104   22.7645 N   0  0  0  0  0  0  0  0  0  0  0  0
    8.5556  -15.6385   24.1684 C   0  0  1  0  0  0  0  0  0  0  0  0
    7.2745  -15.4893   24.9597 C   0  0  0  0  0  0  0  0  0  0  0  0
    7.1477  -14.1763   25.6278 C   0  0  0  0  0  0  0  0  0  0  0  0
    5.9652  -13.4384   25.5812 C   0  0  0  0  0  0  0  0  0  0  0  0
    5.8245  -12.2171   26.2060 C   0  0  0  0  0  0  0  0  0  0  0  0
    6.8907  -11.7037   26.9038 C   0  0  0  0  0  0  0  0  0  0  0  0
    8.0758  -12.4041   26.9725 C   0  0  0  0  0  0  0  0  0  0  0  0
    8.2016  -13.6404   26.3337 C   0  0  0  0  0  0  0  0  0  0  0  0
    9.2402  -16.8897   24.5261 C   0  0  0  0  0  0  0  0  0  0  0  0
    8.7404  -17.9996   24.2218 O   0  0  0  0  0  0  0  0  0  0  0  0
   10.4637  -16.8661   25.2136 N   0  0  0  0  0  0  0  0  0  0  0  0
   11.1496  -18.1085   25.5100 C   0  0  1  0  0  0  0  0  0  0  0  0
   12.6110  -17.8488   25.2174 C   0  0  0  0  0  0  0  0  0  0  0  0
   13.5125  -18.9452   25.5650 C   0  0  0  0  0  0  0  0  0  0  0  0
   14.4689  -18.8695   26.3777 O   0  0  0  0  0  0  0  0  0  0  0  0
   10.9063  -18.4031   26.9509 C   0  0  0  0  0  0  0  0  0  0  0  0
   11.0268  -19.5934   27.3772 O   0  0  0  0  0  0  0  0  0  0  0  0
   13.2860  -20.1874   24.9336 O   0  0  0  0  0  0  0  0  0  0  0  0
   10.5481  -17.4487   27.8912 O   0  0  0  0  0  0  0  0  0  0  0  0
  2  1  1  0
  3  2  1  0
  3  4  1  6
  5  3  1  0
  5  6  1  1
  7  8  2  0
  7  5  1  0
  9  7  1  0
 10  9  1  0
 11 12  1  0
 10 11  1  1
 12 13  2  0
 13 14  1  0
 15 14  2  0
 16 15  1  0
 17 12  1  0
 17 16  2  0
 18 19  2  0
 18 10  1  0
 20 18  1  0
 21 20  1  0
 21 22  1  1
 23 22  1  0
 24 23  2  0
 25 21  1  0
 26 25  2  0
 27 23  1  0
 28 25  1  0
M  END
$$$$
