IFD.pdb
     RDKit          3D

 28 28  0  0  1  0  0  0  0  0999 V2000
   10.3781  -20.2890   19.0615 C   0  0  0  0  0  0  0  0  0  0  0  0
    9.3929  -19.1546   19.2364 C   0  0  0  0  0  0  0  0  0  0  0  0
    9.7658  -18.3085   20.4209 C   0  0  2  0  0  0  0  0  0  0  0  0
   10.0509  -19.1676   21.6178 C   0  0  0  0  0  0  0  0  0  0  0  0
    8.7689  -17.2145   20.6823 C   0  0  2  0  0  0  0  0  0  0  0  0
    8.6527  -16.4397   19.4633 N   0  0  0  0  0  0  0  0  0  0  0  0
    9.1358  -16.3261   21.7872 C   0  0  0  0  0  0  0  0  0  0  0  0
   10.1750  -15.6019   21.7834 O   0  0  0  0  0  0  0  0  0  0  0  0
    8.3051  -16.2505   22.9349 N   0  0  0  0  0  0  0  0  0  0  0  0
    8.5921  -15.3811   24.0690 C   0  0  1  0  0  0  0  0  0  0  0  0
    7.2593  -15.0409   24.6996 C   0  0  0  0  0  0  0  0  0  0  0  0
    7.3686  -14.0826   25.8203 C   0  0  0  0  0  0  0  0  0  0  0  0
    7.7056  -14.4939   27.1096 C   0  0  0  0  0  0  0  0  0  0  0  0
    7.8221  -13.6142   28.1652 C   0  0  0  0  0  0  0  0  0  0  0  0
    7.5976  -12.2775   27.9410 C   0  0  0  0  0  0  0  0  0  0  0  0
    7.2627  -11.8332   26.6801 C   0  0  0  0  0  0  0  0  0  0  0  0
    7.1489  -12.7379   25.6213 C   0  0  0  0  0  0  0  0  0  0  0  0
    9.4380  -16.1206   25.0176 C   0  0  0  0  0  0  0  0  0  0  0  0
    9.1154  -17.2725   25.3958 O   0  0  0  0  0  0  0  0  0  0  0  0
   10.6204  -15.5525   25.5171 N   0  0  0  0  0  0  0  0  0  0  0  0
   11.5016  -16.3404   26.3564 C   0  0  1  0  0  0  0  0  0  0  0  0
   12.9028  -15.8697   26.0337 C   0  0  0  0  0  0  0  0  0  0  0  0
   13.3296  -16.1062   24.6563 C   0  0  0  0  0  0  0  0  0  0  0  0
   13.0857  -17.1429   23.9880 O   0  0  0  0  0  0  0  0  0  0  0  0
   11.1219  -16.0548   27.7693 C   0  0  0  0  0  0  0  0  0  0  0  0
   10.2691  -15.1473   28.0190 O   0  0  0  0  0  0  0  0  0  0  0  0
   14.0759  -15.0840   24.0309 O   0  0  0  0  0  0  0  0  0  0  0  0
   11.6433  -16.7243   28.8663 O   0  0  0  0  0  0  0  0  0  0  0  0
  2  1  1  0
  3  2  1  0
  3  4  1  1
  5  3  1  0
  5  6  1  6
  7  8  2  0
  7  5  1  0
  9  7  1  0
 10  9  1  0
 11 12  1  0
 10 11  1  1
 12 13  2  0
 13 14  1  0
 15 14  2  0
 16 15  1  0
 17 12  1  0
 17 16  2  0
 18 19  2  0
 18 10  1  0
 20 18  1  0
 21 20  1  0
 21 22  1  1
 23 22  1  0
 24 23  2  0
 25 21  1  0
 26 25  2  0
 27 23  1  0
 28 25  1  0
M  END
$$$$
