IFD.pdb
     RDKit          3D

 28 28  0  0  1  0  0  0  0  0999 V2000
    8.8420  -20.1353   18.5494 C   0  0  0  0  0  0  0  0  0  0  0  0
    8.6052  -18.6439   18.4620 C   0  0  0  0  0  0  0  0  0  0  0  0
    8.9080  -17.9826   19.7769 C   0  0  2  0  0  0  0  0  0  0  0  0
    8.2481  -18.7192   20.9056 C   0  0  0  0  0  0  0  0  0  0  0  0
    8.6147  -16.5087   19.7599 C   0  0  2  0  0  0  0  0  0  0  0  0
    9.3677  -15.9340   18.6634 N   0  0  0  0  0  0  0  0  0  0  0  0
    8.9654  -15.8174   21.0025 C   0  0  0  0  0  0  0  0  0  0  0  0
   10.1589  -15.5878   21.3591 O   0  0  0  0  0  0  0  0  0  0  0  0
    7.9382  -15.3697   21.8728 N   0  0  0  0  0  0  0  0  0  0  0  0
    8.2044  -14.7152   23.1475 C   0  0  1  0  0  0  0  0  0  0  0  0
    6.9207  -14.0249   23.5541 C   0  0  0  0  0  0  0  0  0  0  0  0
    6.9860  -13.4094   24.8970 C   0  0  0  0  0  0  0  0  0  0  0  0
    7.7598  -12.2771   25.1503 C   0  0  0  0  0  0  0  0  0  0  0  0
    7.8257  -11.6831   26.3931 C   0  0  0  0  0  0  0  0  0  0  0  0
    7.1006  -12.2264   27.4259 C   0  0  0  0  0  0  0  0  0  0  0  0
    6.3241  -13.3452   27.2139 C   0  0  0  0  0  0  0  0  0  0  0  0
    6.2684  -13.9347   25.9483 C   0  0  0  0  0  0  0  0  0  0  0  0
    8.5696  -15.7460   24.1305 C   0  0  0  0  0  0  0  0  0  0  0  0
    7.8287  -16.7415   24.3159 O   0  0  0  0  0  0  0  0  0  0  0  0
    9.7520  -15.6359   24.8789 N   0  0  0  0  0  0  0  0  0  0  0  0
   10.1816  -16.7383   25.7167 C   0  0  1  0  0  0  0  0  0  0  0  0
   11.6709  -16.8712   25.4860 C   0  0  0  0  0  0  0  0  0  0  0  0
   12.1469  -18.2419   25.3126 C   0  0  0  0  0  0  0  0  0  0  0  0
   11.4263  -19.2716   25.3513 O   0  0  0  0  0  0  0  0  0  0  0  0
    9.8599  -16.3630   27.1230 C   0  0  0  0  0  0  0  0  0  0  0  0
    9.9587  -17.2330   28.0431 O   0  0  0  0  0  0  0  0  0  0  0  0
   13.5288  -18.4175   25.0836 O   0  0  0  0  0  0  0  0  0  0  0  0
    9.4488  -15.0984   27.5170 O   0  0  0  0  0  0  0  0  0  0  0  0
  2  1  1  0
  3  2  1  0
  3  4  1  1
  5  3  1  0
  5  6  1  6
  7  8  2  0
  7  5  1  0
  9  7  1  0
 10  9  1  0
 11 12  1  0
 10 11  1  1
 12 13  2  0
 13 14  1  0
 15 14  2  0
 16 15  1  0
 17 12  1  0
 17 16  2  0
 18 19  2  0
 18 10  1  0
 20 18  1  0
 21 20  1  0
 21 22  1  1
 23 22  1  0
 24 23  2  0
 25 21  1  0
 26 25  2  0
 27 23  1  0
 28 25  1  0
M  END
$$$$
