IFD.pdb
     RDKit          3D

 28 28  0  0  1  0  0  0  0  0999 V2000
    7.1200  -13.2135   16.8189 C   0  0  0  0  0  0  0  0  0  0  0  0
    7.8591  -14.3406   17.5055 C   0  0  0  0  0  0  0  0  0  0  0  0
    8.1122  -14.0051   18.9483 C   0  0  2  0  0  0  0  0  0  0  0  0
    8.8360  -12.6961   19.0695 C   0  0  0  0  0  0  0  0  0  0  0  0
    8.7684  -15.1331   19.6939 C   0  0  2  0  0  0  0  0  0  0  0  0
    7.8530  -16.2560   19.6656 N   0  0  0  0  0  0  0  0  0  0  0  0
    9.1002  -14.8143   21.0843 C   0  0  0  0  0  0  0  0  0  0  0  0
   10.1630  -14.2168   21.4276 O   0  0  0  0  0  0  0  0  0  0  0  0
    8.2057  -15.1804   22.1230 N   0  0  0  0  0  0  0  0  0  0  0  0
    8.3964  -14.7860   23.5131 C   0  0  1  0  0  0  0  0  0  0  0  0
    7.0428  -14.3449   24.0256 C   0  0  0  0  0  0  0  0  0  0  0  0
    7.1070  -13.6536   25.3311 C   0  0  0  0  0  0  0  0  0  0  0  0
    6.4573  -14.1519   26.4601 C   0  0  0  0  0  0  0  0  0  0  0  0
    6.5136  -13.5271   27.6881 C   0  0  0  0  0  0  0  0  0  0  0  0
    7.2386  -12.3663   27.8077 C   0  0  0  0  0  0  0  0  0  0  0  0
    7.8946  -11.8433   26.7142 C   0  0  0  0  0  0  0  0  0  0  0  0
    7.8273  -12.4891   25.4770 C   0  0  0  0  0  0  0  0  0  0  0  0
    8.8770  -15.9548   24.2648 C   0  0  0  0  0  0  0  0  0  0  0  0
    8.2919  -17.0604   24.1673 O   0  0  0  0  0  0  0  0  0  0  0  0
    9.9974  -15.8559   25.1045 N   0  0  0  0  0  0  0  0  0  0  0  0
   10.5339  -17.0455   25.7360 C   0  0  1  0  0  0  0  0  0  0  0  0
   12.0262  -17.0008   25.4916 C   0  0  0  0  0  0  0  0  0  0  0  0
   12.4442  -17.4237   24.1567 C   0  0  0  0  0  0  0  0  0  0  0  0
   11.7173  -18.0220   23.3233 O   0  0  0  0  0  0  0  0  0  0  0  0
   10.1965  -16.9548   27.1851 C   0  0  0  0  0  0  0  0  0  0  0  0
   10.4470  -17.9370   27.9506 O   0  0  0  0  0  0  0  0  0  0  0  0
   13.7731  -17.1342   23.7782 O   0  0  0  0  0  0  0  0  0  0  0  0
    9.6129  -15.8468   27.7809 O   0  0  0  0  0  0  0  0  0  0  0  0
  2  1  1  0
  3  2  1  0
  3  4  1  6
  5  3  1  0
  5  6  1  1
  7  8  2  0
  7  5  1  0
  9  7  1  0
 10  9  1  0
 11 12  1  0
 10 11  1  1
 12 13  2  0
 13 14  1  0
 15 14  2  0
 16 15  1  0
 17 12  1  0
 17 16  2  0
 18 19  2  0
 18 10  1  0
 20 18  1  0
 21 20  1  0
 21 22  1  1
 23 22  1  0
 24 23  2  0
 25 21  1  0
 26 25  2  0
 27 23  1  0
 28 25  1  0
M  END
$$$$
