IFD.pdb
     RDKit          3D

 28 28  0  0  1  0  0  0  0  0999 V2000
    9.6913  -20.2271   20.5831 C   0  0  0  0  0  0  0  0  0  0  0  0
    9.8742  -18.7451   20.3420 C   0  0  0  0  0  0  0  0  0  0  0  0
    8.6020  -18.1320   19.8288 C   0  0  2  0  0  0  0  0  0  0  0  0
    8.1268  -18.8479   18.5984 C   0  0  0  0  0  0  0  0  0  0  0  0
    8.7086  -16.6423   19.6613 C   0  0  2  0  0  0  0  0  0  0  0  0
    9.7250  -16.3949   18.6586 N   0  0  0  0  0  0  0  0  0  0  0  0
    9.0585  -15.9283   20.8913 C   0  0  0  0  0  0  0  0  0  0  0  0
   10.2500  -15.7733   21.2920 O   0  0  0  0  0  0  0  0  0  0  0  0
    8.0327  -15.3704   21.6971 N   0  0  0  0  0  0  0  0  0  0  0  0
    8.2842  -14.7646   22.9987 C   0  0  1  0  0  0  0  0  0  0  0  0
    7.0101  -14.0513   23.3956 C   0  0  0  0  0  0  0  0  0  0  0  0
    7.0731  -13.4448   24.7427 C   0  0  0  0  0  0  0  0  0  0  0  0
    6.1733  -13.7940   25.7494 C   0  0  0  0  0  0  0  0  0  0  0  0
    6.2222  -13.2469   27.0143 C   0  0  0  0  0  0  0  0  0  0  0  0
    7.1957  -12.3198   27.2976 C   0  0  0  0  0  0  0  0  0  0  0  0
    8.1030  -11.9497   26.3283 C   0  0  0  0  0  0  0  0  0  0  0  0
    8.0396  -12.5138   25.0516 C   0  0  0  0  0  0  0  0  0  0  0  0
    8.5955  -15.8361   23.9564 C   0  0  0  0  0  0  0  0  0  0  0  0
    7.8761  -16.8620   24.0216 O   0  0  0  0  0  0  0  0  0  0  0  0
    9.7015  -15.7316   24.8143 N   0  0  0  0  0  0  0  0  0  0  0  0
   10.1392  -16.8874   25.5722 C   0  0  1  0  0  0  0  0  0  0  0  0
   11.4919  -17.2596   25.0058 C   0  0  0  0  0  0  0  0  0  0  0  0
   12.1932  -18.3166   25.7313 C   0  0  0  0  0  0  0  0  0  0  0  0
   11.7670  -19.4873   25.9008 O   0  0  0  0  0  0  0  0  0  0  0  0
   10.2223  -16.4625   26.9986 C   0  0  0  0  0  0  0  0  0  0  0  0
    9.8933  -17.2766   27.9163 O   0  0  0  0  0  0  0  0  0  0  0  0
   13.4505  -17.9905   26.2843 O   0  0  0  0  0  0  0  0  0  0  0  0
   10.6446  -15.2086   27.4142 O   0  0  0  0  0  0  0  0  0  0  0  0
  2  1  1  0
  3  2  1  0
  3  4  1  6
  5  3  1  0
  5  6  1  6
  7  8  2  0
  7  5  1  0
  9  7  1  0
 10  9  1  0
 11 12  1  0
 10 11  1  1
 12 13  2  0
 13 14  1  0
 15 14  2  0
 16 15  1  0
 17 12  1  0
 17 16  2  0
 18 19  2  0
 18 10  1  0
 20 18  1  0
 21 20  1  0
 21 22  1  6
 23 22  1  0
 24 23  2  0
 25 21  1  0
 26 25  2  0
 27 23  1  0
 28 25  1  0
M  END
$$$$
