IFD.pdb
     RDKit          3D

 28 28  0  0  1  0  0  0  0  0999 V2000
    7.1914  -13.0306   16.8858 C   0  0  0  0  0  0  0  0  0  0  0  0
    7.6077  -14.2628   17.6583 C   0  0  0  0  0  0  0  0  0  0  0  0
    8.1376  -13.8838   19.0124 C   0  0  2  0  0  0  0  0  0  0  0  0
    9.2479  -12.8821   18.8862 C   0  0  0  0  0  0  0  0  0  0  0  0
    8.4932  -15.0825   19.8464 C   0  0  2  0  0  0  0  0  0  0  0  0
    7.3369  -15.9558   19.8573 N   0  0  0  0  0  0  0  0  0  0  0  0
    8.8683  -14.7589   21.2246 C   0  0  0  0  0  0  0  0  0  0  0  0
    9.9125  -14.1095   21.5283 O   0  0  0  0  0  0  0  0  0  0  0  0
    8.0402  -15.1807   22.2967 N   0  0  0  0  0  0  0  0  0  0  0  0
    8.3083  -14.8438   23.6892 C   0  0  1  0  0  0  0  0  0  0  0  0
    6.9629  -14.6261   24.3467 C   0  0  0  0  0  0  0  0  0  0  0  0
    7.0457  -13.8703   25.6150 C   0  0  0  0  0  0  0  0  0  0  0  0
    7.1376  -14.5128   26.8494 C   0  0  0  0  0  0  0  0  0  0  0  0
    7.2257  -13.8255   28.0417 C   0  0  0  0  0  0  0  0  0  0  0  0
    7.2231  -12.4519   28.0159 C   0  0  0  0  0  0  0  0  0  0  0  0
    7.1339  -11.7816   26.8149 C   0  0  0  0  0  0  0  0  0  0  0  0
    7.0455  -12.4933   25.6158 C   0  0  0  0  0  0  0  0  0  0  0  0
    9.0104  -15.9753   24.3130 C   0  0  0  0  0  0  0  0  0  0  0  0
    8.5283  -17.1324   24.2600 O   0  0  0  0  0  0  0  0  0  0  0  0
   10.2311  -15.7824   24.9784 N   0  0  0  0  0  0  0  0  0  0  0  0
   10.9328  -16.9182   25.5435 C   0  0  1  0  0  0  0  0  0  0  0  0
   12.4021  -16.6554   25.2966 C   0  0  0  0  0  0  0  0  0  0  0  0
   12.8170  -16.7457   23.8983 C   0  0  0  0  0  0  0  0  0  0  0  0
   12.2249  -17.4044   23.0058 O   0  0  0  0  0  0  0  0  0  0  0  0
   10.6020  -16.9512   26.9966 C   0  0  0  0  0  0  0  0  0  0  0  0
   11.0202  -17.9123   27.7140 O   0  0  0  0  0  0  0  0  0  0  0  0
   13.9775  -16.0333   23.5256 O   0  0  0  0  0  0  0  0  0  0  0  0
    9.8501  -15.9836   27.6462 O   0  0  0  0  0  0  0  0  0  0  0  0
  2  1  1  0
  3  2  1  0
  3  4  1  6
  5  3  1  0
  5  6  1  1
  7  8  2  0
  7  5  1  0
  9  7  1  0
 10  9  1  0
 11 12  1  0
 10 11  1  1
 12 13  2  0
 13 14  1  0
 15 14  2  0
 16 15  1  0
 17 12  1  0
 17 16  2  0
 18 19  2  0
 18 10  1  0
 20 18  1  0
 21 20  1  0
 21 22  1  1
 23 22  1  0
 24 23  2  0
 25 21  1  0
 26 25  2  0
 27 23  1  0
 28 25  1  0
M  END
$$$$
