IFD.pdb
     RDKit          3D

 28 28  0  0  1  0  0  0  0  0999 V2000
   10.1268  -20.4995   19.3282 C   0  0  0  0  0  0  0  0  0  0  0  0
    9.5534  -19.1147   19.1243 C   0  0  0  0  0  0  0  0  0  0  0  0
    9.7679  -18.2684   20.3473 C   0  0  2  0  0  0  0  0  0  0  0  0
    9.3135  -18.9931   21.5803 C   0  0  0  0  0  0  0  0  0  0  0  0
    9.1841  -16.8910   20.2026 C   0  0  2  0  0  0  0  0  0  0  0  0
    9.7843  -16.2918   19.0277 N   0  0  0  0  0  0  0  0  0  0  0  0
    9.4133  -16.0226   21.3594 C   0  0  0  0  0  0  0  0  0  0  0  0
   10.5407  -15.5171   21.6386 O   0  0  0  0  0  0  0  0  0  0  0  0
    8.3375  -15.7129   22.2310 N   0  0  0  0  0  0  0  0  0  0  0  0
    8.5012  -14.9319   23.4507 C   0  0  1  0  0  0  0  0  0  0  0  0
    7.1550  -14.3076   23.7466 C   0  0  0  0  0  0  0  0  0  0  0  0
    7.1254  -13.5533   25.0181 C   0  0  0  0  0  0  0  0  0  0  0  0
    6.3336  -13.9551   26.0935 C   0  0  0  0  0  0  0  0  0  0  0  0
    6.3003  -13.2707   27.2902 C   0  0  0  0  0  0  0  0  0  0  0  0
    7.0775  -12.1468   27.4321 C   0  0  0  0  0  0  0  0  0  0  0  0
    7.8732  -11.7188   26.3913 C   0  0  0  0  0  0  0  0  0  0  0  0
    7.8954  -12.4240   25.1853 C   0  0  0  0  0  0  0  0  0  0  0  0
    8.8970  -15.8429   24.5349 C   0  0  0  0  0  0  0  0  0  0  0  0
    8.1964  -16.8459   24.8128 O   0  0  0  0  0  0  0  0  0  0  0  0
   10.0642  -15.6078   25.2783 N   0  0  0  0  0  0  0  0  0  0  0  0
   10.4889  -16.5676   26.2784 C   0  0  1  0  0  0  0  0  0  0  0  0
   11.9959  -16.6370   26.1649 C   0  0  0  0  0  0  0  0  0  0  0  0
   12.4946  -17.1205   24.8792 C   0  0  0  0  0  0  0  0  0  0  0  0
   12.1674  -18.2054   24.3345 O   0  0  0  0  0  0  0  0  0  0  0  0
   10.0464  -16.0387   27.6000 C   0  0  0  0  0  0  0  0  0  0  0  0
    9.4902  -16.8186   28.4340 O   0  0  0  0  0  0  0  0  0  0  0  0
   13.4185  -16.2982   24.1986 O   0  0  0  0  0  0  0  0  0  0  0  0
   10.2003  -14.7204   28.0023 O   0  0  0  0  0  0  0  0  0  0  0  0
  2  1  1  0
  3  2  1  0
  3  4  1  1
  5  3  1  0
  5  6  1  6
  7  8  2  0
  7  5  1  0
  9  7  1  0
 10  9  1  0
 11 12  1  0
 10 11  1  1
 12 13  2  0
 13 14  1  0
 15 14  2  0
 16 15  1  0
 17 12  1  0
 17 16  2  0
 18 19  2  0
 18 10  1  0
 20 18  1  0
 21 20  1  0
 21 22  1  1
 23 22  1  0
 24 23  2  0
 25 21  1  0
 26 25  2  0
 27 23  1  0
 28 25  1  0
M  END
$$$$
