IFD.pdb
     RDKit          3D

 28 28  0  0  1  0  0  0  0  0999 V2000
    8.0263  -11.6758   19.6371 C   0  0  0  0  0  0  0  0  0  0  0  0
    7.5283  -12.6897   20.6432 C   0  0  0  0  0  0  0  0  0  0  0  0
    8.0495  -14.0603   20.3148 C   0  0  2  0  0  0  0  0  0  0  0  0
    7.7518  -14.4130   18.8868 C   0  0  0  0  0  0  0  0  0  0  0  0
    7.5987  -15.0987   21.3034 C   0  0  2  0  0  0  0  0  0  0  0  0
    6.1562  -15.1904   21.2015 N   0  0  0  0  0  0  0  0  0  0  0  0
    7.9680  -14.8016   22.6891 C   0  0  0  0  0  0  0  0  0  0  0  0
    7.6026  -13.7527   23.2980 O   0  0  0  0  0  0  0  0  0  0  0  0
    8.7756  -15.7158   23.4136 N   0  0  0  0  0  0  0  0  0  0  0  0
    9.2140  -15.4780   24.7831 C   0  0  1  0  0  0  0  0  0  0  0  0
    7.9703  -15.5048   25.6446 C   0  0  0  0  0  0  0  0  0  0  0  0
    7.4490  -14.1583   25.9635 C   0  0  0  0  0  0  0  0  0  0  0  0
    6.0811  -13.9013   26.0532 C   0  0  0  0  0  0  0  0  0  0  0  0
    5.5762  -12.6552   26.3591 C   0  0  0  0  0  0  0  0  0  0  0  0
    6.4536  -11.6225   26.5854 C   0  0  0  0  0  0  0  0  0  0  0  0
    7.8126  -11.8380   26.5059 C   0  0  0  0  0  0  0  0  0  0  0  0
    8.3077  -13.1070   26.1949 C   0  0  0  0  0  0  0  0  0  0  0  0
   10.1330  -16.5588   25.1699 C   0  0  0  0  0  0  0  0  0  0  0  0
   10.3506  -16.8084   26.3801 O   0  0  0  0  0  0  0  0  0  0  0  0
   10.7832  -17.3302   24.1941 N   0  0  0  0  0  0  0  0  0  0  0  0
   11.7146  -18.3663   24.5952 C   0  0  1  0  0  0  0  0  0  0  0  0
   11.8339  -19.2923   23.4047 C   0  0  0  0  0  0  0  0  0  0  0  0
   10.6336  -20.0712   23.1082 C   0  0  0  0  0  0  0  0  0  0  0  0
    9.5631  -20.0354   23.7668 O   0  0  0  0  0  0  0  0  0  0  0  0
   13.0035  -17.6887   24.9142 C   0  0  0  0  0  0  0  0  0  0  0  0
   13.7805  -18.1946   25.7822 O   0  0  0  0  0  0  0  0  0  0  0  0
   10.6865  -20.9319   21.9904 O   0  0  0  0  0  0  0  0  0  0  0  0
   13.4334  -16.5128   24.3179 O   0  0  0  0  0  0  0  0  0  0  0  0
  2  1  1  0
  3  2  1  0
  3  4  1  6
  5  3  1  0
  5  6  1  1
  7  8  2  0
  7  5  1  0
  9  7  1  0
 10  9  1  0
 11 12  1  0
 10 11  1  1
 12 13  2  0
 13 14  1  0
 15 14  2  0
 16 15  1  0
 17 12  1  0
 17 16  2  0
 18 19  2  0
 18 10  1  0
 20 18  1  0
 21 20  1  0
 21 22  1  6
 23 22  1  0
 24 23  2  0
 25 21  1  0
 26 25  2  0
 27 23  1  0
 28 25  1  0
M  END
$$$$
