KVS.pdb
     RDKit          3D

 23 22  0  0  1  0  0  0  0  0999 V2000
    8.4099  -14.5024   20.6529 N   0  0  0  0  0  0  0  0  0  0  0  0
    7.6233  -15.0994   21.7133 C   0  0  1  0  0  0  0  0  0  0  0  0
    7.5282  -16.6086   21.5939 C   0  0  0  0  0  0  0  0  0  0  0  0
    7.3698  -16.9590   20.1555 C   0  0  0  0  0  0  0  0  0  0  0  0
    7.2271  -18.4314   19.8953 C   0  0  0  0  0  0  0  0  0  0  0  0
    6.9330  -18.7481   18.4542 C   0  0  0  0  0  0  0  0  0  0  0  0
    6.7043  -20.1699   18.2908 N   0  0  0  0  0  0  0  0  0  0  0  0
    8.1974  -14.7190   23.0382 C   0  0  0  0  0  0  0  0  0  0  0  0
    9.4428  -14.7157   23.2058 O   0  0  0  0  0  0  0  0  0  0  0  0
    7.4646  -12.9137   27.6110 C   0  0  0  0  0  0  0  0  0  0  0  0
    6.9815  -13.2186   26.2419 C   0  0  1  0  0  0  0  0  0  0  0  0
    6.7750  -11.8906   25.5191 C   0  0  0  0  0  0  0  0  0  0  0  0
    8.0024  -13.9948   25.4460 C   0  0  2  0  0  0  0  0  0  0  0  0
    7.3900  -14.3529   24.1433 N   0  0  0  0  0  0  0  0  0  0  0  0
    8.4091  -15.2661   26.0691 C   0  0  0  0  0  0  0  0  0  0  0  0
    7.5413  -16.1652   26.2577 O   0  0  0  0  0  0  0  0  0  0  0  0
   12.2542  -16.7092   26.2744 O   0  0  0  0  0  0  0  0  0  0  0  0
   11.1104  -17.5336   26.2605 C   0  0  0  0  0  0  0  0  0  0  0  0
   10.0053  -16.8783   27.0953 C   0  0  2  0  0  0  0  0  0  0  0  0
    9.7214  -15.5941   26.4909 N   0  0  0  0  0  0  0  0  0  0  0  0
   10.4425  -16.7370   28.5061 C   0  0  0  0  0  0  0  0  0  0  0  0
   10.5413  -15.6024   29.0349 O   0  0  0  0  0  0  0  0  0  0  0  0
   10.7544  -17.8392   29.2837 O   0  0  0  0  0  0  0  0  0  0  0  0
  2  1  1  6
  3  2  1  0
  4  3  1  0
  5  4  1  0
  6  5  1  0
  7  6  1  0
  8  2  1  0
  8  9  2  0
 11 10  1  1
 11 12  1  0
 13 14  1  6
 13 11  1  0
 14  8  1  0
 15 13  1  0
 16 15  2  0
 18 17  1  0
 19 18  1  6
 19 20  1  0
 20 15  1  0
 21 19  1  0
 21 23  1  0
 22 21  2  0
M  END
$$$$
