KVS.pdb
     RDKit          3D

 23 22  0  0  1  0  0  0  0  0999 V2000
    8.8414  -15.2525   20.8138 N   0  0  0  0  0  0  0  0  0  0  0  0
    7.9910  -15.7044   21.8965 C   0  0  1  0  0  0  0  0  0  0  0  0
    7.9756  -17.2146   22.0383 C   0  0  0  0  0  0  0  0  0  0  0  0
    7.8717  -17.8150   20.6798 C   0  0  0  0  0  0  0  0  0  0  0  0
    6.4612  -18.0027   20.1987 C   0  0  0  0  0  0  0  0  0  0  0  0
    6.3795  -18.7416   18.8907 C   0  0  0  0  0  0  0  0  0  0  0  0
    6.9603  -17.9448   17.8285 N   0  0  0  0  0  0  0  0  0  0  0  0
    8.4264  -15.0677   23.1750 C   0  0  0  0  0  0  0  0  0  0  0  0
    9.6505  -14.9345   23.4257 O   0  0  0  0  0  0  0  0  0  0  0  0
    7.2269  -12.6203   27.3276 C   0  0  0  0  0  0  0  0  0  0  0  0
    6.8598  -13.1980   26.0115 C   0  0  1  0  0  0  0  0  0  0  0  0
    6.6105  -12.0381   25.0518 C   0  0  0  0  0  0  0  0  0  0  0  0
    7.9837  -14.0168   25.4244 C   0  0  2  0  0  0  0  0  0  0  0  0
    7.5074  -14.5947   24.1440 N   0  0  0  0  0  0  0  0  0  0  0  0
    8.3947  -15.1583   26.2597 C   0  0  0  0  0  0  0  0  0  0  0  0
    7.5538  -16.0646   26.5214 O   0  0  0  0  0  0  0  0  0  0  0  0
   12.1929  -16.4599   26.8004 O   0  0  0  0  0  0  0  0  0  0  0  0
   11.0738  -17.2926   27.0068 C   0  0  0  0  0  0  0  0  0  0  0  0
    9.9579  -16.4827   27.6748 C   0  0  2  0  0  0  0  0  0  0  0  0
    9.6834  -15.3498   26.8167 N   0  0  0  0  0  0  0  0  0  0  0  0
   10.3758  -16.0549   29.0327 C   0  0  0  0  0  0  0  0  0  0  0  0
   10.4477  -14.8361   29.3259 O   0  0  0  0  0  0  0  0  0  0  0  0
   10.6985  -16.9740   30.0165 O   0  0  0  0  0  0  0  0  0  0  0  0
  2  1  1  6
  3  2  1  0
  4  3  1  0
  5  4  1  0
  6  5  1  0
  7  6  1  0
  8  2  1  0
  8  9  2  0
 11 10  1  1
 11 12  1  0
 13 14  1  6
 13 11  1  0
 14  8  1  0
 15 13  1  0
 16 15  2  0
 18 17  1  0
 19 18  1  6
 19 20  1  0
 20 15  1  0
 21 19  1  0
 21 23  1  0
 22 21  2  0
M  END
$$$$
