KVS.pdb
     RDKit          3D

 23 22  0  0  1  0  0  0  0  0999 V2000
    5.4459  -19.4047   24.3666 N   0  0  0  0  0  0  0  0  0  0  0  0
    5.6920  -18.4559   25.4338 C   0  0  1  0  0  0  0  0  0  0  0  0
    6.5322  -19.0391   26.5541 C   0  0  0  0  0  0  0  0  0  0  0  0
    6.9803  -20.3998   26.1486 C   0  0  0  0  0  0  0  0  0  0  0  0
    7.8565  -21.0832   27.1592 C   0  0  0  0  0  0  0  0  0  0  0  0
    8.2078  -22.4945   26.7742 C   0  0  0  0  0  0  0  0  0  0  0  0
    9.0523  -23.0945   27.7879 N   0  0  0  0  0  0  0  0  0  0  0  0
    6.3456  -17.2342   24.8772 C   0  0  0  0  0  0  0  0  0  0  0  0
    7.0074  -17.3056   23.8115 O   0  0  0  0  0  0  0  0  0  0  0  0
    6.9157  -13.6510   27.1560 C   0  0  0  0  0  0  0  0  0  0  0  0
    6.5362  -13.5733   25.7239 C   0  0  1  0  0  0  0  0  0  0  0  0
    7.2683  -12.3801   25.1167 C   0  0  0  0  0  0  0  0  0  0  0  0
    6.9816  -14.7951   24.9578 C   0  0  2  0  0  0  0  0  0  0  0  0
    6.2556  -15.9672   25.5049 N   0  0  0  0  0  0  0  0  0  0  0  0
    8.4156  -15.1015   25.0975 C   0  0  0  0  0  0  0  0  0  0  0  0
    8.8667  -15.4363   26.2294 O   0  0  0  0  0  0  0  0  0  0  0  0
   10.3728  -16.8595   22.2985 O   0  0  0  0  0  0  0  0  0  0  0  0
   10.8167  -16.9254   23.6351 C   0  0  0  0  0  0  0  0  0  0  0  0
   10.7233  -15.5331   24.2678 C   0  0  2  0  0  0  0  0  0  0  0  0
    9.3726  -15.0591   24.0534 N   0  0  0  0  0  0  0  0  0  0  0  0
   11.7273  -14.6247   23.6609 C   0  0  0  0  0  0  0  0  0  0  0  0
   12.9548  -14.8695   23.7607 O   0  0  0  0  0  0  0  0  0  0  0  0
   11.3520  -13.4854   22.9695 O   0  0  0  0  0  0  0  0  0  0  0  0
  2  1  1  6
  3  2  1  0
  4  3  1  0
  5  4  1  0
  6  5  1  0
  7  6  1  0
  8  2  1  0
  8  9  2  0
 11 10  1  1
 11 12  1  0
 13 14  1  1
 13 11  1  0
 14  8  1  0
 15 13  1  0
 16 15  2  0
 18 17  1  0
 19 18  1  6
 19 20  1  0
 20 15  1  0
 21 19  1  0
 21 23  1  0
 22 21  2  0
M  END
$$$$
