KVS.pdb
     RDKit          3D

 23 22  0  0  1  0  0  0  0  0999 V2000
    8.8594  -15.0320   20.5851 N   0  0  0  0  0  0  0  0  0  0  0  0
    7.8322  -15.1745   21.5971 C   0  0  1  0  0  0  0  0  0  0  0  0
    7.2134  -16.5593   21.6129 C   0  0  0  0  0  0  0  0  0  0  0  0
    7.6358  -17.2790   20.3799 C   0  0  0  0  0  0  0  0  0  0  0  0
    7.0524  -18.6564   20.2437 C   0  0  0  0  0  0  0  0  0  0  0  0
    7.4305  -19.3302   18.9527 C   0  0  0  0  0  0  0  0  0  0  0  0
    6.8530  -20.6582   18.8933 N   0  0  0  0  0  0  0  0  0  0  0  0
    8.4006  -14.8449   22.9379 C   0  0  0  0  0  0  0  0  0  0  0  0
    9.5557  -15.2336   23.2437 O   0  0  0  0  0  0  0  0  0  0  0  0
    6.0851  -13.3609   26.2579 C   0  0  0  0  0  0  0  0  0  0  0  0
    7.4051  -12.7769   25.9153 C   0  0  1  0  0  0  0  0  0  0  0  0
    8.0970  -12.4018   27.2226 C   0  0  0  0  0  0  0  0  0  0  0  0
    8.2976  -13.7757   25.2197 C   0  0  2  0  0  0  0  0  0  0  0  0
    7.6863  -14.0982   23.9072 N   0  0  0  0  0  0  0  0  0  0  0  0
    8.4339  -15.0575   25.9325 C   0  0  0  0  0  0  0  0  0  0  0  0
    7.4460  -15.8441   25.9801 O   0  0  0  0  0  0  0  0  0  0  0  0
   11.6329  -17.3174   26.0098 O   0  0  0  0  0  0  0  0  0  0  0  0
   10.3245  -17.7758   26.2667 C   0  0  0  0  0  0  0  0  0  0  0  0
    9.6317  -16.8103   27.2337 C   0  0  2  0  0  0  0  0  0  0  0  0
    9.6026  -15.5137   26.5911 N   0  0  0  0  0  0  0  0  0  0  0  0
   10.3596  -16.7670   28.5259 C   0  0  0  0  0  0  0  0  0  0  0  0
   10.8342  -15.6874   28.9572 O   0  0  0  0  0  0  0  0  0  0  0  0
   10.5407  -17.9032   29.2960 O   0  0  0  0  0  0  0  0  0  0  0  0
  2  1  1  6
  3  2  1  0
  4  3  1  0
  5  4  1  0
  6  5  1  0
  7  6  1  0
  8  2  1  0
  8  9  2  0
 11 10  1  1
 11 12  1  0
 13 14  1  6
 13 11  1  0
 14  8  1  0
 15 13  1  0
 16 15  2  0
 18 17  1  0
 19 18  1  6
 19 20  1  0
 20 15  1  0
 21 19  1  0
 21 23  1  0
 22 21  2  0
M  END
$$$$
