KVS.pdb
     RDKit          3D

 23 22  0  0  1  0  0  0  0  0999 V2000
    8.1285  -14.5923   20.5417 N   0  0  0  0  0  0  0  0  0  0  0  0
    7.3866  -15.1456   21.6566 C   0  0  1  0  0  0  0  0  0  0  0  0
    7.2524  -16.6546   21.5798 C   0  0  0  0  0  0  0  0  0  0  0  0
    6.9224  -17.0282   20.1769 C   0  0  0  0  0  0  0  0  0  0  0  0
    6.7210  -18.5017   19.9660 C   0  0  0  0  0  0  0  0  0  0  0  0
    6.2878  -18.8416   18.5660 C   0  0  0  0  0  0  0  0  0  0  0  0
    6.1390  -20.2761   18.4223 N   0  0  0  0  0  0  0  0  0  0  0  0
    8.0386  -14.7473   22.9394 C   0  0  0  0  0  0  0  0  0  0  0  0
    9.2892  -14.7977   23.0509 O   0  0  0  0  0  0  0  0  0  0  0  0
    7.6335  -12.7926   27.4877 C   0  0  0  0  0  0  0  0  0  0  0  0
    7.0639  -13.1057   26.1542 C   0  0  1  0  0  0  0  0  0  0  0  0
    6.9239  -11.7912   25.3920 C   0  0  0  0  0  0  0  0  0  0  0  0
    7.9840  -13.9851   25.3428 C   0  0  2  0  0  0  0  0  0  0  0  0
    7.3012  -14.3050   24.0654 N   0  0  0  0  0  0  0  0  0  0  0  0
    8.2912  -15.2788   25.9766 C   0  0  0  0  0  0  0  0  0  0  0  0
    7.3525  -16.0962   26.1951 O   0  0  0  0  0  0  0  0  0  0  0  0
   11.9019  -17.0786   25.9301 O   0  0  0  0  0  0  0  0  0  0  0  0
   10.7118  -17.8104   26.1201 C   0  0  0  0  0  0  0  0  0  0  0  0
    9.7595  -17.0042   27.0094 C   0  0  2  0  0  0  0  0  0  0  0  0
    9.5783  -15.7146   26.3779 N   0  0  0  0  0  0  0  0  0  0  0  0
   10.3211  -16.8727   28.3765 C   0  0  0  0  0  0  0  0  0  0  0  0
   10.5580  -15.7403   28.8647 O   0  0  0  0  0  0  0  0  0  0  0  0
   10.6016  -17.9817   29.1563 O   0  0  0  0  0  0  0  0  0  0  0  0
  2  1  1  6
  3  2  1  0
  4  3  1  0
  5  4  1  0
  6  5  1  0
  7  6  1  0
  8  2  1  0
  8  9  2  0
 11 10  1  1
 11 12  1  0
 13 14  1  6
 13 11  1  0
 14  8  1  0
 15 13  1  0
 16 15  2  0
 18 17  1  0
 19 18  1  6
 19 20  1  0
 20 15  1  0
 21 19  1  0
 21 23  1  0
 22 21  2  0
M  END
$$$$
