KVS.pdb
     RDKit          3D

 23 22  0  0  1  0  0  0  0  0999 V2000
    6.5587  -16.7718   21.8974 N   0  0  0  0  0  0  0  0  0  0  0  0
    6.2090  -16.6485   23.2981 C   0  0  1  0  0  0  0  0  0  0  0  0
    6.1761  -17.9856   24.0137 C   0  0  0  0  0  0  0  0  0  0  0  0
    6.2450  -19.0683   22.9940 C   0  0  0  0  0  0  0  0  0  0  0  0
    7.0261  -20.2742   23.4320 C   0  0  0  0  0  0  0  0  0  0  0  0
    7.1127  -21.3364   22.3701 C   0  0  0  0  0  0  0  0  0  0  0  0
    7.9457  -22.4319   22.8245 N   0  0  0  0  0  0  0  0  0  0  0  0
    7.1654  -15.7220   23.9737 C   0  0  0  0  0  0  0  0  0  0  0  0
    8.3538  -15.6439   23.5731 O   0  0  0  0  0  0  0  0  0  0  0  0
    7.9825  -12.2317   27.4180 C   0  0  0  0  0  0  0  0  0  0  0  0
    7.0752  -12.9921   26.5240 C   0  0  1  0  0  0  0  0  0  0  0  0
    6.5536  -12.0250   25.4651 C   0  0  0  0  0  0  0  0  0  0  0  0
    7.8024  -14.0925   25.7901 C   0  0  2  0  0  0  0  0  0  0  0  0
    6.7924  -14.9066   25.0707 N   0  0  0  0  0  0  0  0  0  0  0  0
    8.5262  -15.0251   26.6710 C   0  0  0  0  0  0  0  0  0  0  0  0
    7.8822  -15.6743   27.5431 O   0  0  0  0  0  0  0  0  0  0  0  0
   12.6966  -15.7012   26.6689 O   0  0  0  0  0  0  0  0  0  0  0  0
   11.7886  -16.7550   26.8993 C   0  0  0  0  0  0  0  0  0  0  0  0
   10.5291  -16.1988   27.5715 C   0  0  2  0  0  0  0  0  0  0  0  0
    9.9201  -15.2775   26.6359 N   0  0  0  0  0  0  0  0  0  0  0  0
   10.8808  -15.5319   28.8494 C   0  0  0  0  0  0  0  0  0  0  0  0
   10.6670  -14.3051   29.0111 O   0  0  0  0  0  0  0  0  0  0  0  0
   11.4516  -16.2300   29.9000 O   0  0  0  0  0  0  0  0  0  0  0  0
  2  1  1  6
  3  2  1  0
  4  3  1  0
  5  4  1  0
  6  5  1  0
  7  6  1  0
  8  2  1  0
  8  9  2  0
 11 10  1  1
 11 12  1  0
 13 14  1  1
 13 11  1  0
 14  8  1  0
 15 13  1  0
 16 15  2  0
 18 17  1  0
 19 18  1  6
 19 20  1  0
 20 15  1  0
 21 19  1  0
 21 23  1  0
 22 21  2  0
M  END
$$$$
