KVS.pdb
     RDKit          3D

 23 22  0  0  1  0  0  0  0  0999 V2000
    8.1509  -14.4677   20.6539 N   0  0  0  0  0  0  0  0  0  0  0  0
    7.5234  -15.1390   21.7742 C   0  0  1  0  0  0  0  0  0  0  0  0
    7.6680  -16.6476   21.7091 C   0  0  0  0  0  0  0  0  0  0  0  0
    6.9080  -17.1439   20.5289 C   0  0  0  0  0  0  0  0  0  0  0  0
    6.9598  -18.6343   20.3489 C   0  0  0  0  0  0  0  0  0  0  0  0
    6.1195  -19.1172   19.1982 C   0  0  0  0  0  0  0  0  0  0  0  0
    6.0749  -20.5658   19.1842 N   0  0  0  0  0  0  0  0  0  0  0  0
    8.0918  -14.6181   23.0529 C   0  0  0  0  0  0  0  0  0  0  0  0
    9.3105  -14.3200   23.1236 O   0  0  0  0  0  0  0  0  0  0  0  0
    7.2706  -12.6615   27.5263 C   0  0  0  0  0  0  0  0  0  0  0  0
    6.8046  -13.1500   26.2053 C   0  0  1  0  0  0  0  0  0  0  0  0
    6.4174  -11.9310   25.3730 C   0  0  0  0  0  0  0  0  0  0  0  0
    7.9008  -13.8631   25.4516 C   0  0  2  0  0  0  0  0  0  0  0  0
    7.3082  -14.4387   24.2196 N   0  0  0  0  0  0  0  0  0  0  0  0
    8.4962  -14.9935   26.1848 C   0  0  0  0  0  0  0  0  0  0  0  0
    7.7843  -16.0060   26.4397 O   0  0  0  0  0  0  0  0  0  0  0  0
   11.7449  -16.3631   25.4172 O   0  0  0  0  0  0  0  0  0  0  0  0
   11.7287  -16.5199   26.8184 C   0  0  0  0  0  0  0  0  0  0  0  0
   10.3169  -16.2367   27.3420 C   0  0  2  0  0  0  0  0  0  0  0  0
    9.8338  -15.0626   26.6471 N   0  0  0  0  0  0  0  0  0  0  0  0
   10.3452  -16.0328   28.8115 C   0  0  0  0  0  0  0  0  0  0  0  0
   10.0075  -14.9316   29.3114 O   0  0  0  0  0  0  0  0  0  0  0  0
   10.7409  -17.0385   29.6768 O   0  0  0  0  0  0  0  0  0  0  0  0
  2  1  1  6
  3  2  1  0
  4  3  1  0
  5  4  1  0
  6  5  1  0
  7  6  1  0
  8  2  1  0
  8  9  2  0
 11 10  1  1
 11 12  1  0
 13 14  1  6
 13 11  1  0
 14  8  1  0
 15 13  1  0
 16 15  2  0
 18 17  1  0
 19 18  1  6
 19 20  1  0
 20 15  1  0
 21 19  1  0
 21 23  1  0
 22 21  2  0
M  END
$$$$
