HKI.pdb
     RDKit          3D

 28 28  0  0  1  0  0  0  0  0999 V2000
   28.4328  -24.7637  -17.1569 N   0  0  0  0  0  0  0  0  0  0  0  0
   27.0233  -24.6819  -16.8493 C   0  0  1  0  0  0  0  0  0  0  0  0
   26.6500  -25.8582  -15.9823 C   0  0  0  0  0  0  0  0  0  0  0  0
   26.5148  -27.0526  -16.8525 C   0  0  0  0  0  0  0  0  0  0  0  0
   27.1039  -28.2949  -16.6217 C   0  0  0  0  0  0  0  0  0  0  0  0
   26.7739  -29.1562  -17.6051 N   0  0  0  0  0  0  0  0  0  0  0  0
   25.9893  -28.4672  -18.4429 C   0  0  0  0  0  0  0  0  0  0  0  0
   25.8348  -27.2180  -17.9969 N   0  0  0  0  0  0  0  0  0  0  0  0
   26.7602  -23.3933  -16.1774 C   0  0  0  0  0  0  0  0  0  0  0  0
   27.4998  -22.9698  -15.2670 O   0  0  0  0  0  0  0  0  0  0  0  0
   25.6482  -22.6179  -16.5690 N   0  0  0  0  0  0  0  0  0  0  0  0
   25.2916  -21.3719  -15.9667 C   0  0  1  0  0  0  0  0  0  0  0  0
   24.5876  -20.4379  -16.9095 C   0  0  0  0  0  0  0  0  0  0  0  0
   24.1671  -19.1637  -16.2573 C   0  0  0  0  0  0  0  0  0  0  0  0
   25.1057  -18.0349  -16.5450 C   0  0  0  0  0  0  0  0  0  0  0  0
   24.5457  -16.8035  -15.8176 C   0  0  0  0  0  0  0  0  0  0  0  0
   25.3283  -15.6295  -16.0611 N   0  0  0  0  0  0  0  0  0  0  0  0
   24.5739  -21.5553  -14.6707 C   0  0  0  0  0  0  0  0  0  0  0  0
   23.5672  -22.2672  -14.6909 O   0  0  0  0  0  0  0  0  0  0  0  0
   27.4226  -20.7354   -9.8268 C   0  0  0  0  0  0  0  0  0  0  0  0
   26.4978  -21.3068  -10.8691 C   0  0  0  0  0  0  0  0  0  0  0  0
   25.2284  -20.5524  -11.0632 C   0  0  2  0  0  0  0  0  0  0  0  0
   24.4687  -20.5305   -9.7338 C   0  0  0  0  0  0  0  0  0  0  0  0
   24.3628  -20.9827  -12.1902 C   0  0  2  0  0  0  0  0  0  0  0  0
   25.0018  -20.9580  -13.4654 N   0  0  0  0  0  0  0  0  0  0  0  0
   22.9660  -20.4718  -12.1654 C   0  0  0  0  0  0  0  0  0  0  0  0
   21.9104  -21.1488  -11.5702 O   0  0  0  0  0  0  0  0  0  0  0  0
   22.6393  -19.3774  -12.6890 O   0  0  0  0  0  0  0  0  0  0  0  0
  2  1  1  1
  2  3  1  0
  2  9  1  0
  3  4  1  0
  4  5  2  0
  6  5  1  0
  7  6  1  0
  8  4  1  0
  8  7  2  0
  9 11  1  0
  9 10  2  0
 11 12  1  0
 12 13  1  6
 14 13  1  0
 15 14  1  0
 15 16  1  0
 17 16  1  0
 18 12  1  0
 18 19  2  0
 20 21  1  0
 21 22  1  0
 22 23  1  1
 22 24  1  0
 24 25  1  6
 25 18  1  0
 26 24  1  0
 27 26  1  0
 28 26  2  0
M  END
$$$$
