HKI.pdb
     RDKit          3D

 28 28  0  0  1  0  0  0  0  0999 V2000
   16.1666  -14.3231  -16.4990 N   0  0  0  0  0  0  0  0  0  0  0  0
   15.9573  -13.0025  -15.9511 C   0  0  1  0  0  0  0  0  0  0  0  0
   15.7285  -13.1276  -14.4655 C   0  0  0  0  0  0  0  0  0  0  0  0
   14.4245  -13.8027  -14.2513 C   0  0  0  0  0  0  0  0  0  0  0  0
   13.1720  -13.2487  -14.5118 C   0  0  0  0  0  0  0  0  0  0  0  0
   12.2001  -14.1323  -14.2081 N   0  0  0  0  0  0  0  0  0  0  0  0
   12.8303  -15.2262  -13.7627 C   0  0  0  0  0  0  0  0  0  0  0  0
   14.1512  -15.0315  -13.7880 N   0  0  0  0  0  0  0  0  0  0  0  0
   17.1368  -12.1696  -16.2614 C   0  0  0  0  0  0  0  0  0  0  0  0
   18.2960  -12.5737  -16.0426 O   0  0  0  0  0  0  0  0  0  0  0  0
   16.9558  -10.8858  -16.8184 N   0  0  0  0  0  0  0  0  0  0  0  0
   18.0277   -9.9989  -17.1454 C   0  0  1  0  0  0  0  0  0  0  0  0
   17.6471   -8.9581  -18.1597 C   0  0  0  0  0  0  0  0  0  0  0  0
   18.8067   -8.1330  -18.6072 C   0  0  0  0  0  0  0  0  0  0  0  0
   18.4310   -7.1383  -19.6595 C   0  0  0  0  0  0  0  0  0  0  0  0
   19.7222   -6.4019  -20.0468 C   0  0  0  0  0  0  0  0  0  0  0  0
   19.5315   -5.5281  -21.1649 N   0  0  0  0  0  0  0  0  0  0  0  0
   18.6805   -9.4288  -15.9301 C   0  0  0  0  0  0  0  0  0  0  0  0
   17.9429   -9.1626  -14.9783 O   0  0  0  0  0  0  0  0  0  0  0  0
   21.8325   -9.8630  -11.6980 C   0  0  0  0  0  0  0  0  0  0  0  0
   22.5278   -9.4204  -12.9584 C   0  0  0  0  0  0  0  0  0  0  0  0
   21.8130   -9.7570  -14.2209 C   0  0  2  0  0  0  0  0  0  0  0  0
   22.8529  -10.1086  -15.2886 C   0  0  0  0  0  0  0  0  0  0  0  0
   20.8258   -8.7633  -14.7135 C   0  0  2  0  0  0  0  0  0  0  0  0
   20.0700   -9.1954  -15.8435 N   0  0  0  0  0  0  0  0  0  0  0  0
   21.2953   -7.3526  -14.7602 C   0  0  0  0  0  0  0  0  0  0  0  0
   21.3061   -6.5092  -13.6577 O   0  0  0  0  0  0  0  0  0  0  0  0
   21.7202   -6.8183  -15.8149 O   0  0  0  0  0  0  0  0  0  0  0  0
  2  1  1  1
  2  3  1  0
  2  9  1  0
  3  4  1  0
  4  5  2  0
  6  5  1  0
  7  6  1  0
  8  4  1  0
  8  7  2  0
  9 11  1  0
  9 10  2  0
 11 12  1  0
 12 13  1  6
 14 13  1  0
 15 14  1  0
 15 16  1  0
 17 16  1  0
 18 12  1  0
 18 19  2  0
 20 21  1  0
 21 22  1  0
 22 23  1  6
 22 24  1  0
 24 25  1  6
 25 18  1  0
 26 24  1  0
 27 26  1  0
 28 26  2  0
M  END
$$$$
