HKI.pdb
     RDKit          3D

 28 28  0  0  1  0  0  0  0  0999 V2000
   23.2175  -23.1763  -15.3260 N   0  0  0  0  0  0  0  0  0  0  0  0
   22.6652  -24.4253  -14.8541 C   0  0  1  0  0  0  0  0  0  0  0  0
   23.7354  -25.1699  -14.0958 C   0  0  0  0  0  0  0  0  0  0  0  0
   24.8328  -25.4957  -15.0401 C   0  0  0  0  0  0  0  0  0  0  0  0
   24.7630  -26.4287  -16.0736 C   0  0  0  0  0  0  0  0  0  0  0  0
   25.9343  -26.4739  -16.7396 N   0  0  0  0  0  0  0  0  0  0  0  0
   26.7302  -25.5832  -16.1350 C   0  0  0  0  0  0  0  0  0  0  0  0
   26.0770  -25.0018  -15.1257 N   0  0  0  0  0  0  0  0  0  0  0  0
   21.4896  -24.1331  -14.0091 C   0  0  0  0  0  0  0  0  0  0  0  0
   21.5863  -23.4463  -12.9727 O   0  0  0  0  0  0  0  0  0  0  0  0
   20.2247  -24.6390  -14.3765 N   0  0  0  0  0  0  0  0  0  0  0  0
   19.0271  -24.4141  -13.6298 C   0  0  1  0  0  0  0  0  0  0  0  0
   17.7970  -24.3440  -14.4895 C   0  0  0  0  0  0  0  0  0  0  0  0
   17.7496  -23.1156  -15.3347 C   0  0  0  0  0  0  0  0  0  0  0  0
   16.5042  -23.0346  -16.1596 C   0  0  0  0  0  0  0  0  0  0  0  0
   16.6482  -21.7905  -17.0489 C   0  0  0  0  0  0  0  0  0  0  0  0
   15.4733  -21.5453  -17.8297 N   0  0  0  0  0  0  0  0  0  0  0  0
   18.8919  -25.3571  -12.4805 C   0  0  0  0  0  0  0  0  0  0  0  0
   19.4284  -26.4606  -12.6033 O   0  0  0  0  0  0  0  0  0  0  0  0
   19.5793  -23.7650   -7.2974 C   0  0  0  0  0  0  0  0  0  0  0  0
   19.4487  -24.4638   -8.6250 C   0  0  0  0  0  0  0  0  0  0  0  0
   18.1392  -25.1350   -8.8547 C   0  0  2  0  0  0  0  0  0  0  0  0
   17.8442  -26.0457   -7.6594 C   0  0  0  0  0  0  0  0  0  0  0  0
   17.9717  -25.8449  -10.1480 C   0  0  2  0  0  0  0  0  0  0  0  0
   18.1922  -25.0310  -11.2987 N   0  0  0  0  0  0  0  0  0  0  0  0
   16.8101  -26.7702  -10.2330 C   0  0  0  0  0  0  0  0  0  0  0  0
   15.7410  -26.5844  -11.0987 O   0  0  0  0  0  0  0  0  0  0  0  0
   16.7137  -27.7983   -9.5172 O   0  0  0  0  0  0  0  0  0  0  0  0
  2  1  1  1
  2  3  1  0
  2  9  1  0
  3  4  1  0
  4  5  2  0
  6  5  1  0
  7  6  1  0
  8  4  1  0
  8  7  2  0
  9 11  1  0
  9 10  2  0
 11 12  1  0
 12 13  1  6
 14 13  1  0
 15 14  1  0
 15 16  1  0
 17 16  1  0
 18 12  1  0
 18 19  2  0
 20 21  1  0
 21 22  1  0
 22 23  1  1
 22 24  1  0
 24 25  1  6
 25 18  1  0
 26 24  1  0
 27 26  1  0
 28 26  2  0
M  END
$$$$
