HKI.pdb
     RDKit          3D

 28 28  0  0  1  0  0  0  0  0999 V2000
   23.2627  -16.5209  -17.9891 N   0  0  0  0  0  0  0  0  0  0  0  0
   24.1320  -17.5530  -17.4724 C   0  0  1  0  0  0  0  0  0  0  0  0
   25.5557  -17.0587  -17.5320 C   0  0  0  0  0  0  0  0  0  0  0  0
   25.9621  -16.9831  -18.9573 C   0  0  0  0  0  0  0  0  0  0  0  0
   26.6440  -17.9756  -19.6597 C   0  0  0  0  0  0  0  0  0  0  0  0
   26.8523  -17.5847  -20.9331 N   0  0  0  0  0  0  0  0  0  0  0  0
   26.3103  -16.3646  -21.0315 C   0  0  0  0  0  0  0  0  0  0  0  0
   25.7815  -16.0064  -19.8588 N   0  0  0  0  0  0  0  0  0  0  0  0
   23.7151  -17.8751  -16.0926 C   0  0  0  0  0  0  0  0  0  0  0  0
   23.7560  -17.0225  -15.1835 O   0  0  0  0  0  0  0  0  0  0  0  0
   23.2590  -19.1753  -15.7884 N   0  0  0  0  0  0  0  0  0  0  0  0
   22.7874  -19.5750  -14.4999 C   0  0  1  0  0  0  0  0  0  0  0  0
   21.3964  -20.1419  -14.5276 C   0  0  0  0  0  0  0  0  0  0  0  0
   20.9171  -20.5683  -13.1807 C   0  0  0  0  0  0  0  0  0  0  0  0
   19.5819  -21.2410  -13.2334 C   0  0  0  0  0  0  0  0  0  0  0  0
   19.2862  -21.7391  -11.8109 C   0  0  0  0  0  0  0  0  0  0  0  0
   19.7257  -23.0866  -11.6077 N   0  0  0  0  0  0  0  0  0  0  0  0
   23.7664  -20.4459  -13.7847 C   0  0  0  0  0  0  0  0  0  0  0  0
   23.8919  -21.5988  -14.2040 O   0  0  0  0  0  0  0  0  0  0  0  0
   28.8103  -19.7639  -13.6214 C   0  0  0  0  0  0  0  0  0  0  0  0
   27.3773  -20.2067  -13.4851 C   0  0  0  0  0  0  0  0  0  0  0  0
   26.8799  -20.3001  -12.0844 C   0  0  2  0  0  0  0  0  0  0  0  0
   27.8532  -21.1669  -11.2804 C   0  0  0  0  0  0  0  0  0  0  0  0
   25.4714  -20.7344  -11.9046 C   0  0  2  0  0  0  0  0  0  0  0  0
   24.5260  -20.0009  -12.6813 N   0  0  0  0  0  0  0  0  0  0  0  0
   25.0582  -21.0291  -10.5063 C   0  0  0  0  0  0  0  0  0  0  0  0
   25.4666  -22.1555   -9.8054 O   0  0  0  0  0  0  0  0  0  0  0  0
   24.3001  -20.2693   -9.8533 O   0  0  0  0  0  0  0  0  0  0  0  0
  2  1  1  1
  2  3  1  0
  2  9  1  0
  3  4  1  0
  4  5  2  0
  6  5  1  0
  7  6  1  0
  8  4  1  0
  8  7  2  0
  9 11  1  0
  9 10  2  0
 11 12  1  0
 12 13  1  6
 14 13  1  0
 15 14  1  0
 15 16  1  0
 17 16  1  0
 18 12  1  0
 18 19  2  0
 20 21  1  0
 21 22  1  0
 22 23  1  1
 22 24  1  0
 24 25  1  1
 25 18  1  0
 26 24  1  0
 27 26  1  0
 28 26  2  0
M  END
$$$$
