AAM.pdb
     RDKit          3D

 19 18  0  0  1  0  0  0  0  0999 V2000
   29.0152  -22.5098  -14.9636 C   0  0  0  0  0  0  0  0  0  0  0  0
   27.7834  -21.7893  -15.4199 C   0  0  2  0  0  0  0  0  0  0  0  0
   28.1148  -20.9744  -16.5650 N   0  0  0  0  0  0  0  0  0  0  0  0
   27.2604  -20.9509  -14.2989 C   0  0  0  0  0  0  0  0  0  0  0  0
   27.9301  -19.9830  -13.8565 O   0  0  0  0  0  0  0  0  0  0  0  0
   23.9709  -20.2524  -12.9284 C   0  0  0  0  0  0  0  0  0  0  0  0
   25.4454  -20.3146  -12.7006 C   0  0  2  0  0  0  0  0  0  0  0  0
   26.0022  -21.2099  -13.6953 N   0  0  0  0  0  0  0  0  0  0  0  0
   25.7910  -20.7876  -11.3351 C   0  0  0  0  0  0  0  0  0  0  0  0
   25.8724  -22.0086  -11.1368 O   0  0  0  0  0  0  0  0  0  0  0  0
   28.5656  -20.0923   -4.0418 C   0  0  0  0  0  0  0  0  0  0  0  0
   28.3733  -19.2314   -5.6197 S   0  0  0  0  0  0  0  0  0  0  0  0
   27.2990  -20.2340   -6.6914 C   0  0  0  0  0  0  0  0  0  0  0  0
   27.1411  -19.5695   -8.0544 C   0  0  0  0  0  0  0  0  0  0  0  0
   26.3236  -20.4423   -8.9537 C   0  0  2  0  0  0  0  0  0  0  0  0
   26.0349  -19.9389  -10.2370 N   0  0  0  0  0  0  0  0  0  0  0  0
   25.1363  -20.9704   -8.2461 C   0  0  0  0  0  0  0  0  0  0  0  0
   23.8823  -20.6224   -8.6652 O   0  0  0  0  0  0  0  0  0  0  0  0
   25.2941  -21.7262   -7.2773 O   0  0  0  0  0  0  0  0  0  0  0  0
  2  3  1  0
  2  1  1  1
  4  2  1  0
  5  4  2  0
  7  6  1  1
  7  9  1  0
  7  8  1  0
  8  4  1  0
  9 10  2  0
 11 12  1  0
 12 13  1  0
 14 13  1  0
 15 14  1  1
 16 15  1  0
 16  9  1  0
 17 18  1  0
 17 15  1  0
 19 17  2  0
M  END
$$$$
