AAM.pdb
     RDKit          3D

 19 18  0  0  1  0  0  0  0  0999 V2000
   28.5873  -22.3976  -15.1163 C   0  0  0  0  0  0  0  0  0  0  0  0
   27.5291  -21.4544  -15.6011 C   0  0  2  0  0  0  0  0  0  0  0  0
   28.1197  -20.5318  -16.5420 N   0  0  0  0  0  0  0  0  0  0  0  0
   26.9450  -20.7280  -14.4330 C   0  0  0  0  0  0  0  0  0  0  0  0
   27.5790  -19.7956  -13.8765 O   0  0  0  0  0  0  0  0  0  0  0  0
   23.5763  -20.2320  -13.1496 C   0  0  0  0  0  0  0  0  0  0  0  0
   25.0447  -20.2513  -12.8790 C   0  0  2  0  0  0  0  0  0  0  0  0
   25.6670  -21.0570  -13.9108 N   0  0  0  0  0  0  0  0  0  0  0  0
   25.3690  -20.7988  -11.5363 C   0  0  0  0  0  0  0  0  0  0  0  0
   25.4687  -22.0279  -11.4089 O   0  0  0  0  0  0  0  0  0  0  0  0
   29.2382  -19.0242   -6.5021 C   0  0  0  0  0  0  0  0  0  0  0  0
   27.7404  -19.5742   -5.6522 S   0  0  0  0  0  0  0  0  0  0  0  0
   26.7331  -20.5286   -6.8280 C   0  0  0  0  0  0  0  0  0  0  0  0
   26.5809  -19.7640   -8.1382 C   0  0  0  0  0  0  0  0  0  0  0  0
   25.8093  -20.5877   -9.1206 C   0  0  2  0  0  0  0  0  0  0  0  0
   25.5730  -20.0130  -10.3846 N   0  0  0  0  0  0  0  0  0  0  0  0
   24.5962  -21.1608   -8.4968 C   0  0  0  0  0  0  0  0  0  0  0  0
   24.7065  -22.2176   -7.6364 O   0  0  0  0  0  0  0  0  0  0  0  0
   23.4891  -20.6727   -8.7629 O   0  0  0  0  0  0  0  0  0  0  0  0
  2  3  1  0
  2  1  1  1
  4  2  1  0
  5  4  2  0
  7  6  1  6
  7  9  1  0
  7  8  1  0
  8  4  1  0
  9 10  2  0
 11 12  1  0
 12 13  1  0
 14 13  1  0
 15 14  1  1
 16 15  1  0
 16  9  1  0
 17 18  1  0
 17 15  1  0
 19 17  2  0
M  END
$$$$
