AAM.pdb
     RDKit          3D

 19 18  0  0  1  0  0  0  0  0999 V2000
   28.9153  -18.1847  -14.5759 C   0  0  0  0  0  0  0  0  0  0  0  0
   27.7876  -19.1481  -14.7870 C   0  0  2  0  0  0  0  0  0  0  0  0
   27.0642  -18.7685  -15.9777 N   0  0  0  0  0  0  0  0  0  0  0  0
   26.8946  -19.1301  -13.5889 C   0  0  0  0  0  0  0  0  0  0  0  0
   26.5517  -18.0412  -13.0619 O   0  0  0  0  0  0  0  0  0  0  0  0
   24.3669  -21.2811  -12.2476 C   0  0  0  0  0  0  0  0  0  0  0  0
   25.4404  -20.2956  -11.9215 C   0  0  2  0  0  0  0  0  0  0  0  0
   26.4034  -20.3265  -13.0044 N   0  0  0  0  0  0  0  0  0  0  0  0
   26.1123  -20.5923  -10.6299 C   0  0  0  0  0  0  0  0  0  0  0  0
   26.9903  -21.4673  -10.6091 O   0  0  0  0  0  0  0  0  0  0  0  0
   29.1666  -19.6585   -3.6264 C   0  0  0  0  0  0  0  0  0  0  0  0
   28.6213  -18.8420   -5.1443 S   0  0  0  0  0  0  0  0  0  0  0  0
   27.5440  -19.9894   -6.0560 C   0  0  0  0  0  0  0  0  0  0  0  0
   27.1499  -19.3905   -7.4015 C   0  0  0  0  0  0  0  0  0  0  0  0
   26.3522  -20.3841   -8.1859 C   0  0  2  0  0  0  0  0  0  0  0  0
   25.8197  -19.9443   -9.4134 N   0  0  0  0  0  0  0  0  0  0  0  0
   25.3631  -21.0698   -7.3253 C   0  0  0  0  0  0  0  0  0  0  0  0
   25.7867  -21.8142   -6.2596 O   0  0  0  0  0  0  0  0  0  0  0  0
   24.1562  -20.9598   -7.5821 O   0  0  0  0  0  0  0  0  0  0  0  0
  2  3  1  0
  2  1  1  1
  4  2  1  0
  5  4  2  0
  7  6  1  6
  7  9  1  0
  7  8  1  0
  8  4  1  0
  9 10  2  0
 11 12  1  0
 12 13  1  0
 14 13  1  0
 15 14  1  1
 16 15  1  0
 16  9  1  0
 17 18  1  0
 17 15  1  0
 19 17  2  0
M  END
$$$$
