AAM.pdb
     RDKit          3D

 19 18  0  0  1  0  0  0  0  0999 V2000
   16.4650  -10.7416  -16.5233 C   0  0  0  0  0  0  0  0  0  0  0  0
   17.4685  -10.7709  -17.6353 C   0  0  2  0  0  0  0  0  0  0  0  0
   17.9027  -12.1331  -17.8382 N   0  0  0  0  0  0  0  0  0  0  0  0
   18.6212   -9.8883  -17.2811 C   0  0  0  0  0  0  0  0  0  0  0  0
   19.5979  -10.3403  -16.6309 O   0  0  0  0  0  0  0  0  0  0  0  0
   19.6801   -6.4474  -18.1985 C   0  0  0  0  0  0  0  0  0  0  0  0
   19.8256   -7.6998  -17.3985 C   0  0  2  0  0  0  0  0  0  0  0  0
   18.6598   -8.5209  -17.6592 N   0  0  0  0  0  0  0  0  0  0  0  0
   19.9493   -7.4338  -15.9420 C   0  0  0  0  0  0  0  0  0  0  0  0
   18.9174   -7.4203  -15.2550 O   0  0  0  0  0  0  0  0  0  0  0  0
   22.4988   -8.7421   -8.9069 C   0  0  0  0  0  0  0  0  0  0  0  0
   22.7729   -9.0491  -10.6672 S   0  0  0  0  0  0  0  0  0  0  0  0
   21.8532   -7.7993  -11.6161 C   0  0  0  0  0  0  0  0  0  0  0  0
   21.9839   -8.0667  -13.1113 C   0  0  0  0  0  0  0  0  0  0  0  0
   21.2375   -7.0233  -13.8814 C   0  0  2  0  0  0  0  0  0  0  0  0
   21.1685   -7.1924  -15.2779 N   0  0  0  0  0  0  0  0  0  0  0  0
   21.6506   -5.6630  -13.4713 C   0  0  0  0  0  0  0  0  0  0  0  0
   20.9598   -5.0076  -12.4903 O   0  0  0  0  0  0  0  0  0  0  0  0
   22.6234   -5.1319  -14.0248 O   0  0  0  0  0  0  0  0  0  0  0  0
  2  3  1  0
  2  1  1  1
  4  2  1  0
  5  4  2  0
  7  6  1  6
  7  9  1  0
  7  8  1  0
  8  4  1  0
  9 10  2  0
 11 12  1  0
 12 13  1  0
 14 13  1  0
 15 14  1  6
 16 15  1  0
 16  9  1  0
 17 18  1  0
 17 15  1  0
 19 17  2  0
M  END
$$$$
