AAM.pdb
     RDKit          3D

 19 18  0  0  1  0  0  0  0  0999 V2000
   27.2723  -19.7528  -15.9131 C   0  0  0  0  0  0  0  0  0  0  0  0
   27.3028  -20.7115  -14.7623 C   0  0  2  0  0  0  0  0  0  0  0  0
   26.6579  -21.9408  -15.1598 N   0  0  0  0  0  0  0  0  0  0  0  0
   26.6078  -20.0962  -13.5910 C   0  0  0  0  0  0  0  0  0  0  0  0
   26.9602  -18.9704  -13.1561 O   0  0  0  0  0  0  0  0  0  0  0  0
   23.4101  -20.4750  -11.9106 C   0  0  0  0  0  0  0  0  0  0  0  0
   24.8608  -20.1380  -11.8023 C   0  0  2  0  0  0  0  0  0  0  0  0
   25.5352  -20.7498  -12.9301 N   0  0  0  0  0  0  0  0  0  0  0  0
   25.4614  -20.6109  -10.5283 C   0  0  0  0  0  0  0  0  0  0  0  0
   25.8570  -21.7840  -10.4622 O   0  0  0  0  0  0  0  0  0  0  0  0
   29.1555  -19.8238   -3.6956 C   0  0  0  0  0  0  0  0  0  0  0  0
   28.5661  -18.9367   -5.1563 S   0  0  0  0  0  0  0  0  0  0  0  0
   27.4985  -20.0558   -6.1133 C   0  0  0  0  0  0  0  0  0  0  0  0
   27.0300  -19.3749   -7.3944 C   0  0  0  0  0  0  0  0  0  0  0  0
   26.1821  -20.3169   -8.1898 C   0  0  2  0  0  0  0  0  0  0  0  0
   25.6150  -19.8135   -9.3766 N   0  0  0  0  0  0  0  0  0  0  0  0
   25.2101  -21.0186   -7.3226 C   0  0  0  0  0  0  0  0  0  0  0  0
   25.6552  -21.8676   -6.3477 O   0  0  0  0  0  0  0  0  0  0  0  0
   23.9979  -20.8266   -7.4912 O   0  0  0  0  0  0  0  0  0  0  0  0
  2  3  1  0
  2  1  1  6
  4  2  1  0
  5  4  2  0
  7  6  1  1
  7  9  1  0
  7  8  1  0
  8  4  1  0
  9 10  2  0
 11 12  1  0
 12 13  1  0
 14 13  1  0
 15 14  1  1
 16 15  1  0
 16  9  1  0
 17 18  1  0
 17 15  1  0
 19 17  2  0
M  END
$$$$
