AAM.pdb
     RDKit          3D

 19 18  0  0  1  0  0  0  0  0999 V2000
   22.6142  -17.2084  -16.7583 C   0  0  0  0  0  0  0  0  0  0  0  0
   23.8996  -17.6385  -17.3964 C   0  0  2  0  0  0  0  0  0  0  0  0
   23.6355  -18.0367  -18.7590 N   0  0  0  0  0  0  0  0  0  0  0  0
   24.4844  -18.7680  -16.6118 C   0  0  0  0  0  0  0  0  0  0  0  0
   23.9083  -19.8848  -16.5703 O   0  0  0  0  0  0  0  0  0  0  0  0
   27.7640  -19.4925  -15.1048 C   0  0  0  0  0  0  0  0  0  0  0  0
   26.2960  -19.7507  -15.1955 C   0  0  2  0  0  0  0  0  0  0  0  0
   25.6986  -18.6276  -15.8905 N   0  0  0  0  0  0  0  0  0  0  0  0
   25.6646  -19.9221  -13.8615 C   0  0  0  0  0  0  0  0  0  0  0  0
   25.1451  -18.9334  -13.3233 O   0  0  0  0  0  0  0  0  0  0  0  0
   25.9058  -20.0123   -6.5661 C   0  0  0  0  0  0  0  0  0  0  0  0
   26.4941  -19.6394   -8.2344 S   0  0  0  0  0  0  0  0  0  0  0  0
   25.5219  -20.6217   -9.4168 C   0  0  0  0  0  0  0  0  0  0  0  0
   26.1103  -20.4991  -10.8179 C   0  0  0  0  0  0  0  0  0  0  0  0
   25.2309  -21.2043  -11.8019 C   0  0  2  0  0  0  0  0  0  0  0  0
   25.6139  -21.1407  -13.1558 N   0  0  0  0  0  0  0  0  0  0  0  0
   23.8069  -20.8725  -11.5751 C   0  0  0  0  0  0  0  0  0  0  0  0
   23.2422  -21.0938  -10.3498 O   0  0  0  0  0  0  0  0  0  0  0  0
   23.1402  -20.3950  -12.5037 O   0  0  0  0  0  0  0  0  0  0  0  0
  2  3  1  0
  2  1  1  1
  4  2  1  0
  5  4  2  0
  7  6  1  1
  7  9  1  0
  7  8  1  0
  8  4  1  0
  9 10  2  0
 11 12  1  0
 12 13  1  0
 14 13  1  0
 15 14  1  1
 16 15  1  0
 16  9  1  0
 17 18  1  0
 17 15  1  0
 19 17  2  0
M  END
$$$$
