AAM.pdb
     RDKit          3D

 19 18  0  0  1  0  0  0  0  0999 V2000
   19.4995  -15.2306  -15.3314 C   0  0  0  0  0  0  0  0  0  0  0  0
   20.1268  -15.1094  -16.6865 C   0  0  2  0  0  0  0  0  0  0  0  0
   21.1772  -16.0930  -16.8058 N   0  0  0  0  0  0  0  0  0  0  0  0
   20.6662  -13.7261  -16.8569 C   0  0  0  0  0  0  0  0  0  0  0  0
   21.8694  -13.4713  -16.5959 O   0  0  0  0  0  0  0  0  0  0  0  0
   19.3740  -10.6102  -18.4153 C   0  0  0  0  0  0  0  0  0  0  0  0
   20.4261  -11.3792  -17.6861 C   0  0  2  0  0  0  0  0  0  0  0  0
   19.8522  -12.6572  -17.3142 N   0  0  0  0  0  0  0  0  0  0  0  0
   20.9170  -10.6672  -16.4779 C   0  0  0  0  0  0  0  0  0  0  0  0
   20.3338  -10.8612  -15.4012 O   0  0  0  0  0  0  0  0  0  0  0  0
   27.0116  -12.1714  -15.5789 C   0  0  0  0  0  0  0  0  0  0  0  0
   26.3814  -10.5057  -15.2687 S   0  0  0  0  0  0  0  0  0  0  0  0
   24.5640  -10.5647  -15.3097 C   0  0  0  0  0  0  0  0  0  0  0  0
   23.9836   -9.1698  -15.1049 C   0  0  0  0  0  0  0  0  0  0  0  0
   22.4975   -9.2076  -15.2757 C   0  0  2  0  0  0  0  0  0  0  0  0
   22.0093   -9.7770  -16.4677 N   0  0  0  0  0  0  0  0  0  0  0  0
   21.8925   -7.8954  -14.9573 C   0  0  0  0  0  0  0  0  0  0  0  0
   21.9606   -7.4045  -13.6831 O   0  0  0  0  0  0  0  0  0  0  0  0
   21.3288   -7.2538  -15.8548 O   0  0  0  0  0  0  0  0  0  0  0  0
  2  3  1  0
  2  1  1  1
  4  2  1  0
  5  4  2  0
  7  6  1  1
  7  9  1  0
  7  8  1  0
  8  4  1  0
  9 10  2  0
 11 12  1  0
 12 13  1  0
 14 13  1  0
 15 14  1  6
 16 15  1  0
 16  9  1  0
 17 18  1  0
 17 15  1  0
 19 17  2  0
M  END
$$$$
