AAM.pdb
     RDKit          3D

 19 18  0  0  1  0  0  0  0  0999 V2000
   18.9155  -12.7178  -19.6270 C   0  0  0  0  0  0  0  0  0  0  0  0
   19.3727  -12.4599  -18.2239 C   0  0  2  0  0  0  0  0  0  0  0  0
   18.3914  -12.9900  -17.3068 N   0  0  0  0  0  0  0  0  0  0  0  0
   19.5507  -10.9892  -18.0271 C   0  0  0  0  0  0  0  0  0  0  0  0
   20.4502  -10.3646  -18.6448 O   0  0  0  0  0  0  0  0  0  0  0  0
   17.6686   -8.2299  -16.4730 C   0  0  0  0  0  0  0  0  0  0  0  0
   18.9665   -8.8422  -16.8858 C   0  0  2  0  0  0  0  0  0  0  0  0
   18.7220  -10.2471  -17.1457 N   0  0  0  0  0  0  0  0  0  0  0  0
   20.0226   -8.6888  -15.8520 C   0  0  0  0  0  0  0  0  0  0  0  0
   20.3317   -9.6790  -15.1731 O   0  0  0  0  0  0  0  0  0  0  0  0
   26.3459  -10.4041  -14.2743 C   0  0  0  0  0  0  0  0  0  0  0  0
   25.5262   -9.4881  -15.5998 S   0  0  0  0  0  0  0  0  0  0  0  0
   24.2966   -8.3763  -14.8515 C   0  0  0  0  0  0  0  0  0  0  0  0
   23.0109   -8.3796  -15.6709 C   0  0  0  0  0  0  0  0  0  0  0  0
   22.0045   -7.4688  -15.0411 C   0  0  2  0  0  0  0  0  0  0  0  0
   20.7051   -7.4854  -15.5841 N   0  0  0  0  0  0  0  0  0  0  0  0
   22.5551   -6.1062  -14.8694 C   0  0  0  0  0  0  0  0  0  0  0  0
   23.2447   -5.7879  -13.7326 O   0  0  0  0  0  0  0  0  0  0  0  0
   22.3837   -5.2658  -15.7634 O   0  0  0  0  0  0  0  0  0  0  0  0
  2  3  1  0
  2  1  1  6
  4  2  1  0
  5  4  2  0
  7  6  1  1
  7  9  1  0
  7  8  1  0
  8  4  1  0
  9 10  2  0
 11 12  1  0
 12 13  1  0
 14 13  1  0
 15 14  1  6
 16 15  1  0
 16  9  1  0
 17 18  1  0
 17 15  1  0
 19 17  2  0
M  END
$$$$
