KMQ.pdb
     RDKit          3D

 27 26  0  0  1  0  0  0  0  0999 V2000
   27.0454  -18.4440  -18.1464 N   0  0  0  0  0  0  0  0  0  0  0  0
   27.2863  -17.6482  -16.9747 C   0  0  1  0  0  0  0  0  0  0  0  0
   27.8151  -16.2826  -17.2440 C   0  0  0  0  0  0  0  0  0  0  0  0
   28.9199  -16.2323  -18.2384 C   0  0  0  0  0  0  0  0  0  0  0  0
   28.5571  -16.5677  -19.6419 C   0  0  0  0  0  0  0  0  0  0  0  0
   29.8300  -16.4849  -20.4910 C   0  0  0  0  0  0  0  0  0  0  0  0
   29.4888  -16.9964  -21.8045 N   0  0  0  0  0  0  0  0  0  0  0  0
   26.0057  -17.5521  -16.2141 C   0  0  0  0  0  0  0  0  0  0  0  0
   26.0270  -16.8801  -15.1460 O   0  0  0  0  0  0  0  0  0  0  0  0
   19.8752  -16.5845  -18.2377 C   0  0  0  0  0  0  0  0  0  0  0  0
   19.6761  -17.9955  -17.1393 S   0  0  0  0  0  0  0  0  0  0  0  0
   21.1138  -18.1444  -16.0428 C   0  0  0  0  0  0  0  0  0  0  0  0
   22.4027  -18.0467  -16.8167 C   0  0  0  0  0  0  0  0  0  0  0  0
   23.6203  -18.1870  -15.9417 C   0  0  2  0  0  0  0  0  0  0  0  0
   24.8446  -18.1929  -16.6924 N   0  0  0  0  0  0  0  0  0  0  0  0
   23.5459  -19.4382  -15.1064 C   0  0  0  0  0  0  0  0  0  0  0  0
   23.6446  -20.5725  -15.6272 O   0  0  0  0  0  0  0  0  0  0  0  0
   25.7116  -19.8232   -9.3769 N   0  0  0  0  0  0  0  0  0  0  0  0
   25.1933  -21.1315   -9.5585 C   0  0  0  0  0  0  0  0  0  0  0  0
   25.4277  -21.9861   -8.6550 O   0  0  0  0  0  0  0  0  0  0  0  0
   24.4078  -21.4739  -10.7682 C   0  0  0  0  0  0  0  0  0  0  0  0
   24.3093  -20.3575  -11.7384 C   0  0  0  0  0  0  0  0  0  0  0  0
   23.4313  -20.6212  -12.9442 C   0  0  2  0  0  0  0  0  0  0  0  0
   23.3628  -19.3736  -13.7107 N   0  0  0  0  0  0  0  0  0  0  0  0
   22.0555  -20.9170  -12.5045 C   0  0  0  0  0  0  0  0  0  0  0  0
   21.6720  -22.2108  -12.2471 O   0  0  0  0  0  0  0  0  0  0  0  0
   21.2297  -20.0009  -12.3630 O   0  0  0  0  0  0  0  0  0  0  0  0
  2  3  1  0
  2  1  1  6
  4  3  1  0
  5  4  1  0
  5  6  1  0
  6  7  1  0
  8  9  2  0
  8  2  1  0
 10 11  1  0
 11 12  1  0
 12 13  1  0
 14 13  1  6
 14 15  1  0
 15  8  1  0
 16 17  2  0
 16 14  1  0
 18 19  1  0
 19 20  2  0
 21 19  1  0
 21 22  1  0
 23 22  1  1
 23 24  1  0
 24 16  1  0
 25 23  1  0
 26 25  1  0
 27 25  2  0
M  END
$$$$
