KMQ.pdb
     RDKit          3D

 27 26  0  0  1  0  0  0  0  0999 V2000
   29.7086  -29.4891  -17.3882 N   0  0  0  0  0  0  0  0  0  0  0  0
   28.2874  -29.3833  -17.5695 C   0  0  1  0  0  0  0  0  0  0  0  0
   27.8166  -28.0598  -18.0634 C   0  0  0  0  0  0  0  0  0  0  0  0
   28.1573  -26.9132  -17.1796 C   0  0  0  0  0  0  0  0  0  0  0  0
   27.7257  -25.5692  -17.6503 C   0  0  0  0  0  0  0  0  0  0  0  0
   28.2061  -24.5342  -16.6275 C   0  0  0  0  0  0  0  0  0  0  0  0
   27.7854  -23.2362  -17.1190 N   0  0  0  0  0  0  0  0  0  0  0  0
   27.8649  -30.4550  -18.5186 C   0  0  0  0  0  0  0  0  0  0  0  0
   26.6273  -30.5624  -18.7417 O   0  0  0  0  0  0  0  0  0  0  0  0
   26.7617  -29.6585  -24.7212 C   0  0  0  0  0  0  0  0  0  0  0  0
   28.1088  -30.5783  -23.9618 S   0  0  0  0  0  0  0  0  0  0  0  0
   27.7696  -30.8468  -22.1999 C   0  0  0  0  0  0  0  0  0  0  0  0
   28.8741  -31.6354  -21.5457 C   0  0  0  0  0  0  0  0  0  0  0  0
   28.4826  -32.1784  -20.1967 C   0  0  2  0  0  0  0  0  0  0  0  0
   28.8268  -31.2913  -19.1210 N   0  0  0  0  0  0  0  0  0  0  0  0
   29.1139  -33.5235  -19.9501 C   0  0  0  0  0  0  0  0  0  0  0  0
   30.3006  -33.6218  -19.5632 O   0  0  0  0  0  0  0  0  0  0  0  0
   28.6217  -39.7974  -16.6239 N   0  0  0  0  0  0  0  0  0  0  0  0
   28.3467  -38.4735  -17.0542 C   0  0  0  0  0  0  0  0  0  0  0  0
   27.5463  -37.7844  -16.3572 O   0  0  0  0  0  0  0  0  0  0  0  0
   28.9794  -37.9285  -18.2790 C   0  0  0  0  0  0  0  0  0  0  0  0
   28.5131  -36.5638  -18.6220 C   0  0  0  0  0  0  0  0  0  0  0  0
   29.0739  -35.9901  -19.9068 C   0  0  2  0  0  0  0  0  0  0  0  0
   28.3896  -34.7162  -20.1467 N   0  0  0  0  0  0  0  0  0  0  0  0
   28.7281  -36.8693  -21.0385 C   0  0  0  0  0  0  0  0  0  0  0  0
   29.3997  -38.0526  -21.2288 O   0  0  0  0  0  0  0  0  0  0  0  0
   27.8278  -36.5497  -21.8312 O   0  0  0  0  0  0  0  0  0  0  0  0
  2  3  1  0
  2  1  1  6
  4  3  1  0
  5  4  1  0
  5  6  1  0
  6  7  1  0
  8  9  2  0
  8  2  1  0
 10 11  1  0
 11 12  1  0
 12 13  1  0
 14 13  1  6
 14 15  1  0
 15  8  1  0
 16 17  2  0
 16 14  1  0
 18 19  1  0
 19 20  2  0
 21 19  1  0
 21 22  1  0
 23 22  1  1
 23 24  1  0
 24 16  1  0
 25 23  1  0
 26 25  1  0
 27 25  2  0
M  END
$$$$
