KMQ.pdb
     RDKit          3D

 27 26  0  0  1  0  0  0  0  0999 V2000
   27.4868  -21.2300  -16.4300 N   0  0  0  0  0  0  0  0  0  0  0  0
   26.1531  -21.6279  -16.7864 C   0  0  1  0  0  0  0  0  0  0  0  0
   26.0637  -22.9041  -17.5483 C   0  0  0  0  0  0  0  0  0  0  0  0
   27.3148  -23.2929  -18.2522 C   0  0  0  0  0  0  0  0  0  0  0  0
   28.4693  -23.6587  -17.3877 C   0  0  0  0  0  0  0  0  0  0  0  0
   29.6283  -24.0754  -18.2994 C   0  0  0  0  0  0  0  0  0  0  0  0
   30.7794  -24.2824  -17.4419 N   0  0  0  0  0  0  0  0  0  0  0  0
   25.3547  -21.7340  -15.5298 C   0  0  0  0  0  0  0  0  0  0  0  0
   24.1966  -22.2252  -15.6309 O   0  0  0  0  0  0  0  0  0  0  0  0
   25.2237  -20.9576   -7.6344 C   0  0  0  0  0  0  0  0  0  0  0  0
   26.2181  -20.9390   -9.1338 S   0  0  0  0  0  0  0  0  0  0  0  0
   25.1535  -21.0985  -10.5941 C   0  0  0  0  0  0  0  0  0  0  0  0
   25.9647  -21.0948  -11.8636 C   0  0  0  0  0  0  0  0  0  0  0  0
   25.1230  -21.3089  -13.0940 C   0  0  2  0  0  0  0  0  0  0  0  0
   25.8968  -21.2973  -14.3038 N   0  0  0  0  0  0  0  0  0  0  0  0
   24.0343  -20.2727  -13.1927 C   0  0  0  0  0  0  0  0  0  0  0  0
   24.3036  -19.0660  -13.3906 O   0  0  0  0  0  0  0  0  0  0  0  0
   21.5035  -20.9565  -16.9481 N   0  0  0  0  0  0  0  0  0  0  0  0
   20.3230  -21.1672  -16.1896 C   0  0  0  0  0  0  0  0  0  0  0  0
   19.4816  -22.0018  -16.6334 O   0  0  0  0  0  0  0  0  0  0  0  0
   20.0938  -20.4292  -14.9245 C   0  0  0  0  0  0  0  0  0  0  0  0
   21.1963  -19.5001  -14.5800 C   0  0  0  0  0  0  0  0  0  0  0  0
   21.6721  -19.5621  -13.1433 C   0  0  2  0  0  0  0  0  0  0  0  0
   22.6764  -20.6271  -13.0658 N   0  0  0  0  0  0  0  0  0  0  0  0
   20.5600  -19.9724  -12.2667 C   0  0  0  0  0  0  0  0  0  0  0  0
   19.5595  -19.0848  -11.9529 O   0  0  0  0  0  0  0  0  0  0  0  0
   20.5164  -21.1230  -11.8026 O   0  0  0  0  0  0  0  0  0  0  0  0
  2  3  1  0
  2  1  1  1
  4  3  1  0
  5  4  1  0
  5  6  1  0
  6  7  1  0
  8  9  2  0
  8  2  1  0
 10 11  1  0
 11 12  1  0
 12 13  1  0
 14 13  1  1
 14 15  1  0
 15  8  1  0
 16 17  2  0
 16 14  1  0
 18 19  1  0
 19 20  2  0
 21 19  1  0
 21 22  1  0
 23 22  1  6
 23 24  1  0
 24 16  1  0
 25 23  1  0
 26 25  1  0
 27 25  2  0
M  END
$$$$
