KMQ.pdb
     RDKit          3D

 27 26  0  0  1  0  0  0  0  0999 V2000
   27.7462  -19.7886  -14.5695 N   0  0  0  0  0  0  0  0  0  0  0  0
   27.0888  -21.0366  -14.8425 C   0  0  1  0  0  0  0  0  0  0  0  0
   27.9786  -22.1119  -15.3612 C   0  0  0  0  0  0  0  0  0  0  0  0
   28.4651  -21.8957  -16.7500 C   0  0  0  0  0  0  0  0  0  0  0  0
   28.4053  -20.4982  -17.2576 C   0  0  0  0  0  0  0  0  0  0  0  0
   28.8759  -20.5053  -18.7159 C   0  0  0  0  0  0  0  0  0  0  0  0
   28.6918  -19.1579  -19.2197 N   0  0  0  0  0  0  0  0  0  0  0  0
   26.4283  -21.4922  -13.5840 C   0  0  0  0  0  0  0  0  0  0  0  0
   25.7304  -22.5414  -13.6549 O   0  0  0  0  0  0  0  0  0  0  0  0
   27.9980  -19.9043   -7.5076 C   0  0  0  0  0  0  0  0  0  0  0  0
   26.2348  -20.1490   -7.2458 S   0  0  0  0  0  0  0  0  0  0  0  0
   25.4450  -20.7097   -8.7798 C   0  0  0  0  0  0  0  0  0  0  0  0
   26.3340  -20.4669   -9.9715 C   0  0  0  0  0  0  0  0  0  0  0  0
   25.7324  -20.9654  -11.2590 C   0  0  2  0  0  0  0  0  0  0  0  0
   26.5954  -20.7631  -12.3889 N   0  0  0  0  0  0  0  0  0  0  0  0
   24.4041  -20.3076  -11.5267 C   0  0  0  0  0  0  0  0  0  0  0  0
   24.3359  -19.1228  -11.9256 O   0  0  0  0  0  0  0  0  0  0  0  0
   21.9123  -20.1689  -16.0909 N   0  0  0  0  0  0  0  0  0  0  0  0
   21.7011  -21.4296  -15.4748 C   0  0  0  0  0  0  0  0  0  0  0  0
   21.5644  -22.4360  -16.2297 O   0  0  0  0  0  0  0  0  0  0  0  0
   21.6433  -21.5509  -13.9985 C   0  0  0  0  0  0  0  0  0  0  0  0
   21.9990  -20.2967  -13.2930 C   0  0  0  0  0  0  0  0  0  0  0  0
   21.9506  -20.3667  -11.7806 C   0  0  2  0  0  0  0  0  0  0  0  0
   23.1938  -21.0041  -11.3371 N   0  0  0  0  0  0  0  0  0  0  0  0
   20.8523  -21.2543  -11.3572 C   0  0  0  0  0  0  0  0  0  0  0  0
   21.1100  -22.5550  -10.9979 O   0  0  0  0  0  0  0  0  0  0  0  0
   19.6839  -20.8363  -11.3216 O   0  0  0  0  0  0  0  0  0  0  0  0
  2  3  1  0
  2  1  1  1
  4  3  1  0
  5  4  1  0
  5  6  1  0
  6  7  1  0
  8  9  2  0
  8  2  1  0
 10 11  1  0
 11 12  1  0
 12 13  1  0
 14 13  1  1
 14 15  1  0
 15  8  1  0
 16 17  2  0
 16 14  1  0
 18 19  1  0
 19 20  2  0
 21 19  1  0
 21 22  1  0
 23 22  1  6
 23 24  1  0
 24 16  1  0
 25 23  1  0
 26 25  1  0
 27 25  2  0
M  END
$$$$
