KMQ.pdb
     RDKit          3D

 27 26  0  0  1  0  0  0  0  0999 V2000
   22.7346  -22.3164  -13.9167 N   0  0  0  0  0  0  0  0  0  0  0  0
   22.4890  -20.9051  -13.8066 C   0  0  1  0  0  0  0  0  0  0  0  0
   21.2770  -20.5405  -13.0224 C   0  0  0  0  0  0  0  0  0  0  0  0
   20.0806  -21.3763  -13.3087 C   0  0  0  0  0  0  0  0  0  0  0  0
   19.6925  -21.5007  -14.7398 C   0  0  0  0  0  0  0  0  0  0  0  0
   18.4255  -22.3595  -14.8122 C   0  0  0  0  0  0  0  0  0  0  0  0
   18.1448  -22.5703  -16.2194 N   0  0  0  0  0  0  0  0  0  0  0  0
   23.6951  -20.2761  -13.1923 C   0  0  0  0  0  0  0  0  0  0  0  0
   23.6658  -19.0245  -13.0330 O   0  0  0  0  0  0  0  0  0  0  0  0
   27.7301  -20.7857   -8.1474 C   0  0  0  0  0  0  0  0  0  0  0  0
   25.9600  -21.0542   -8.3259 S   0  0  0  0  0  0  0  0  0  0  0  0
   25.4148  -20.5593   -9.9840 C   0  0  0  0  0  0  0  0  0  0  0  0
   26.4545  -20.8921  -11.0222 C   0  0  0  0  0  0  0  0  0  0  0  0
   26.0438  -20.4808  -12.4114 C   0  0  2  0  0  0  0  0  0  0  0  0
   24.7988  -21.0698  -12.8185 N   0  0  0  0  0  0  0  0  0  0  0  0
   27.1090  -20.8306  -13.4173 C   0  0  0  0  0  0  0  0  0  0  0  0
   27.6200  -21.9731  -13.4498 O   0  0  0  0  0  0  0  0  0  0  0  0
   24.3404  -22.5465  -17.0014 N   0  0  0  0  0  0  0  0  0  0  0  0
   25.3683  -22.3122  -17.9513 C   0  0  0  0  0  0  0  0  0  0  0  0
   25.2031  -22.7703  -19.1194 O   0  0  0  0  0  0  0  0  0  0  0  0
   26.5881  -21.5577  -17.5767 C   0  0  0  0  0  0  0  0  0  0  0  0
   26.6196  -21.1667  -16.1472 C   0  0  0  0  0  0  0  0  0  0  0  0
   27.8120  -20.3314  -15.7290 C   0  0  2  0  0  0  0  0  0  0  0  0
   27.5657  -19.8833  -14.3552 N   0  0  0  0  0  0  0  0  0  0  0  0
   27.8842  -19.1147  -16.5583 C   0  0  0  0  0  0  0  0  0  0  0  0
   26.9245  -18.1383  -16.4437 O   0  0  0  0  0  0  0  0  0  0  0  0
   28.8117  -18.9600  -17.3688 O   0  0  0  0  0  0  0  0  0  0  0  0
  2  3  1  0
  2  1  1  1
  4  3  1  0
  5  4  1  0
  5  6  1  0
  6  7  1  0
  8  9  2  0
  8  2  1  0
 10 11  1  0
 11 12  1  0
 12 13  1  0
 14 13  1  1
 14 15  1  0
 15  8  1  0
 16 17  2  0
 16 14  1  0
 18 19  1  0
 19 20  2  0
 21 19  1  0
 21 22  1  0
 23 22  1  6
 23 24  1  0
 24 16  1  0
 25 23  1  0
 26 25  1  0
 27 25  2  0
M  END
$$$$
