KMQ.pdb
     RDKit          3D

 27 26  0  0  1  0  0  0  0  0999 V2000
   28.0119  -21.3110  -15.8574 N   0  0  0  0  0  0  0  0  0  0  0  0
   27.8921  -20.3157  -14.8282 C   0  0  1  0  0  0  0  0  0  0  0  0
   27.4834  -18.9665  -15.3074 C   0  0  0  0  0  0  0  0  0  0  0  0
   28.4467  -18.3237  -16.2405 C   0  0  0  0  0  0  0  0  0  0  0  0
   28.0230  -18.2338  -17.6641 C   0  0  0  0  0  0  0  0  0  0  0  0
   29.0935  -17.4456  -18.4262 C   0  0  0  0  0  0  0  0  0  0  0  0
   28.7136  -17.4726  -19.8256 N   0  0  0  0  0  0  0  0  0  0  0  0
   26.9083  -20.8126  -13.8217 C   0  0  0  0  0  0  0  0  0  0  0  0
   26.0188  -21.6052  -14.2382 O   0  0  0  0  0  0  0  0  0  0  0  0
   27.6151  -20.7527   -7.1917 C   0  0  0  0  0  0  0  0  0  0  0  0
   25.8686  -20.3783   -7.4085 S   0  0  0  0  0  0  0  0  0  0  0  0
   25.3415  -20.7993   -9.0926 C   0  0  0  0  0  0  0  0  0  0  0  0
   26.3759  -20.3867  -10.1073 C   0  0  0  0  0  0  0  0  0  0  0  0
   25.9862  -20.7467  -11.5167 C   0  0  2  0  0  0  0  0  0  0  0  0
   26.9954  -20.3978  -12.4771 N   0  0  0  0  0  0  0  0  0  0  0  0
   24.6867  -20.0907  -11.9038 C   0  0  0  0  0  0  0  0  0  0  0  0
   24.6537  -18.9070  -12.3104 O   0  0  0  0  0  0  0  0  0  0  0  0
   23.1303  -20.4545  -16.5225 N   0  0  0  0  0  0  0  0  0  0  0  0
   22.0972  -21.2726  -15.9964 C   0  0  0  0  0  0  0  0  0  0  0  0
   21.5904  -22.1429  -16.7627 O   0  0  0  0  0  0  0  0  0  0  0  0
   21.6353  -21.1037  -14.5980 C   0  0  0  0  0  0  0  0  0  0  0  0
   22.3981  -20.0771  -13.8486 C   0  0  0  0  0  0  0  0  0  0  0  0
   22.2590  -20.1367  -12.3415 C   0  0  2  0  0  0  0  0  0  0  0  0
   23.4648  -20.7878  -11.8212 N   0  0  0  0  0  0  0  0  0  0  0  0
   21.1254  -21.0068  -11.9792 C   0  0  0  0  0  0  0  0  0  0  0  0
   19.8349  -20.5493  -12.0932 O   0  0  0  0  0  0  0  0  0  0  0  0
   21.3247  -22.1606  -11.5670 O   0  0  0  0  0  0  0  0  0  0  0  0
  2  3  1  0
  2  1  1  6
  4  3  1  0
  5  4  1  0
  5  6  1  0
  6  7  1  0
  8  9  2  0
  8  2  1  0
 10 11  1  0
 11 12  1  0
 12 13  1  0
 14 13  1  1
 14 15  1  0
 15  8  1  0
 16 17  2  0
 16 14  1  0
 18 19  1  0
 19 20  2  0
 21 19  1  0
 21 22  1  0
 23 22  1  6
 23 24  1  0
 24 16  1  0
 25 23  1  0
 26 25  1  0
 27 25  2  0
M  END
$$$$
