KMQ.pdb
     RDKit          3D

 27 26  0  0  1  0  0  0  0  0999 V2000
   26.5369  -18.5771  -16.0946 N   0  0  0  0  0  0  0  0  0  0  0  0
   26.3913  -19.9431  -16.5153 C   0  0  1  0  0  0  0  0  0  0  0  0
   27.5279  -20.4754  -17.3163 C   0  0  0  0  0  0  0  0  0  0  0  0
   28.6990  -19.5634  -17.4100 C   0  0  0  0  0  0  0  0  0  0  0  0
   29.8682  -20.0712  -18.1777 C   0  0  0  0  0  0  0  0  0  0  0  0
   31.0131  -19.0660  -18.0136 C   0  0  0  0  0  0  0  0  0  0  0  0
   32.1576  -19.6205  -18.7109 N   0  0  0  0  0  0  0  0  0  0  0  0
   26.1983  -20.7808  -15.2952 C   0  0  0  0  0  0  0  0  0  0  0  0
   26.0550  -22.0220  -15.4736 O   0  0  0  0  0  0  0  0  0  0  0  0
   28.1578  -20.7872   -8.9558 C   0  0  0  0  0  0  0  0  0  0  0  0
   26.3717  -20.5998   -8.8455 S   0  0  0  0  0  0  0  0  0  0  0  0
   25.5893  -21.1241  -10.3961 C   0  0  0  0  0  0  0  0  0  0  0  0
   26.2294  -20.4541  -11.5839 C   0  0  0  0  0  0  0  0  0  0  0  0
   25.5863  -20.8425  -12.8891 C   0  0  2  0  0  0  0  0  0  0  0  0
   26.1815  -20.1840  -14.0180 N   0  0  0  0  0  0  0  0  0  0  0  0
   24.1078  -20.5550  -12.8713 C   0  0  0  0  0  0  0  0  0  0  0  0
   23.6752  -19.3804  -12.8998 O   0  0  0  0  0  0  0  0  0  0  0  0
   20.1006  -24.6446  -15.2700 N   0  0  0  0  0  0  0  0  0  0  0  0
   19.2142  -23.6280  -14.8292 C   0  0  0  0  0  0  0  0  0  0  0  0
   17.9832  -23.7714  -15.0853 O   0  0  0  0  0  0  0  0  0  0  0  0
   19.7237  -22.4442  -14.0968 C   0  0  0  0  0  0  0  0  0  0  0  0
   21.1721  -22.5229  -13.7908 C   0  0  0  0  0  0  0  0  0  0  0  0
   21.7680  -21.2867  -13.1496 C   0  0  2  0  0  0  0  0  0  0  0  0
   23.1623  -21.5987  -12.8221 N   0  0  0  0  0  0  0  0  0  0  0  0
   21.0899  -21.0124  -11.8696 C   0  0  0  0  0  0  0  0  0  0  0  0
   21.5949  -21.5146  -10.6948 O   0  0  0  0  0  0  0  0  0  0  0  0
   20.0559  -20.3261  -11.8400 O   0  0  0  0  0  0  0  0  0  0  0  0
  2  3  1  0
  2  1  1  1
  4  3  1  0
  5  4  1  0
  5  6  1  0
  6  7  1  0
  8  9  2  0
  8  2  1  0
 10 11  1  0
 11 12  1  0
 12 13  1  0
 14 13  1  1
 14 15  1  0
 15  8  1  0
 16 17  2  0
 16 14  1  0
 18 19  1  0
 19 20  2  0
 21 19  1  0
 21 22  1  0
 23 22  1  1
 23 24  1  0
 24 16  1  0
 25 23  1  0
 26 25  1  0
 27 25  2  0
M  END
$$$$
