KMQ.pdb
     RDKit          3D

 27 26  0  0  1  0  0  0  0  0999 V2000
   27.5355  -19.9866  -15.8672 N   0  0  0  0  0  0  0  0  0  0  0  0
   26.5745  -21.0065  -16.1839 C   0  0  1  0  0  0  0  0  0  0  0  0
   27.1463  -22.2342  -16.8027 C   0  0  0  0  0  0  0  0  0  0  0  0
   27.7087  -22.0356  -18.1651 C   0  0  0  0  0  0  0  0  0  0  0  0
   29.1738  -22.2514  -18.3097 C   0  0  0  0  0  0  0  0  0  0  0  0
   29.5674  -21.8740  -19.7417 C   0  0  0  0  0  0  0  0  0  0  0  0
   31.0011  -22.0672  -19.8445 N   0  0  0  0  0  0  0  0  0  0  0  0
   25.8538  -21.3642  -14.9268 C   0  0  0  0  0  0  0  0  0  0  0  0
   24.9494  -22.2397  -15.0184 O   0  0  0  0  0  0  0  0  0  0  0  0
   25.7719  -21.0964   -7.0242 C   0  0  0  0  0  0  0  0  0  0  0  0
   26.6047  -20.5891   -8.5363 S   0  0  0  0  0  0  0  0  0  0  0  0
   25.5832  -20.9926   -9.9803 C   0  0  0  0  0  0  0  0  0  0  0  0
   26.3218  -20.7194  -11.2646 C   0  0  0  0  0  0  0  0  0  0  0  0
   25.5083  -21.0528  -12.4873 C   0  0  2  0  0  0  0  0  0  0  0  0
   26.1908  -20.7359  -13.7105 N   0  0  0  0  0  0  0  0  0  0  0  0
   24.1796  -20.3437  -12.4639 C   0  0  0  0  0  0  0  0  0  0  0  0
   24.1120  -19.0944  -12.4162 O   0  0  0  0  0  0  0  0  0  0  0  0
   21.8094  -18.5416  -16.5814 N   0  0  0  0  0  0  0  0  0  0  0  0
   21.6773  -19.9511  -16.4843 C   0  0  0  0  0  0  0  0  0  0  0  0
   21.5564  -20.6046  -17.5611 O   0  0  0  0  0  0  0  0  0  0  0  0
   21.6809  -20.6228  -15.1628 C   0  0  0  0  0  0  0  0  0  0  0  0
   21.7473  -19.6759  -14.0242 C   0  0  0  0  0  0  0  0  0  0  0  0
   21.7195  -20.3112  -12.6494 C   0  0  2  0  0  0  0  0  0  0  0  0
   22.9682  -21.0631  -12.4950 N   0  0  0  0  0  0  0  0  0  0  0  0
   20.6265  -21.2980  -12.5778 C   0  0  0  0  0  0  0  0  0  0  0  0
   19.3204  -20.8819  -12.4853 O   0  0  0  0  0  0  0  0  0  0  0  0
   20.8745  -22.5141  -12.5996 O   0  0  0  0  0  0  0  0  0  0  0  0
  2  3  1  0
  2  1  1  1
  4  3  1  0
  5  4  1  0
  5  6  1  0
  6  7  1  0
  8  9  2  0
  8  2  1  0
 10 11  1  0
 11 12  1  0
 12 13  1  0
 14 13  1  1
 14 15  1  0
 15  8  1  0
 16 17  2  0
 16 14  1  0
 18 19  1  0
 19 20  2  0
 21 19  1  0
 21 22  1  0
 23 22  1  6
 23 24  1  0
 24 16  1  0
 25 23  1  0
 26 25  1  0
 27 25  2  0
M  END
$$$$
