KMQ.pdb
     RDKit          3D

 27 26  0  0  1  0  0  0  0  0999 V2000
   23.6623  -18.7653  -15.6811 N   0  0  0  0  0  0  0  0  0  0  0  0
   23.6016  -20.1223  -16.1490 C   0  0  1  0  0  0  0  0  0  0  0  0
   24.7645  -20.5522  -16.9735 C   0  0  0  0  0  0  0  0  0  0  0  0
   25.0571  -19.6723  -18.1363 C   0  0  0  0  0  0  0  0  0  0  0  0
   26.1424  -18.6719  -17.9473 C   0  0  0  0  0  0  0  0  0  0  0  0
   26.2131  -17.8080  -19.2109 C   0  0  0  0  0  0  0  0  0  0  0  0
   27.2305  -16.8025  -18.9718 N   0  0  0  0  0  0  0  0  0  0  0  0
   23.4711  -21.0127  -14.9583 C   0  0  0  0  0  0  0  0  0  0  0  0
   23.4313  -22.2549  -15.1780 O   0  0  0  0  0  0  0  0  0  0  0  0
   26.3007  -20.1131   -9.3371 C   0  0  0  0  0  0  0  0  0  0  0  0
   24.8805  -21.0319   -8.7239 S   0  0  0  0  0  0  0  0  0  0  0  0
   23.9023  -21.6734  -10.1106 C   0  0  0  0  0  0  0  0  0  0  0  0
   23.9631  -20.7459  -11.2963 C   0  0  0  0  0  0  0  0  0  0  0  0
   23.2432  -21.2919  -12.5011 C   0  0  2  0  0  0  0  0  0  0  0  0
   23.3981  -20.4617  -13.6627 N   0  0  0  0  0  0  0  0  0  0  0  0
   21.7756  -21.4773  -12.2175 C   0  0  0  0  0  0  0  0  0  0  0  0
   21.2858  -21.1695  -11.1071 O   0  0  0  0  0  0  0  0  0  0  0  0
   19.7965  -23.6734   -8.6544 N   0  0  0  0  0  0  0  0  0  0  0  0
   18.5136  -23.5756   -9.2529 C   0  0  0  0  0  0  0  0  0  0  0  0
   17.5076  -23.8325   -8.5294 O   0  0  0  0  0  0  0  0  0  0  0  0
   18.3695  -23.1869  -10.6761 C   0  0  0  0  0  0  0  0  0  0  0  0
   19.6575  -22.8387  -11.3220 C   0  0  0  0  0  0  0  0  0  0  0  0
   19.5622  -22.4152  -12.7732 C   0  0  2  0  0  0  0  0  0  0  0  0
   20.9050  -22.0035  -13.1927 N   0  0  0  0  0  0  0  0  0  0  0  0
   18.7044  -21.2218  -12.8893 C   0  0  0  0  0  0  0  0  0  0  0  0
   17.3365  -21.3437  -12.8513 O   0  0  0  0  0  0  0  0  0  0  0  0
   19.2086  -20.0953  -13.0232 O   0  0  0  0  0  0  0  0  0  0  0  0
  2  3  1  0
  2  1  1  1
  4  3  1  0
  5  4  1  0
  5  6  1  0
  6  7  1  0
  8  9  2  0
  8  2  1  0
 10 11  1  0
 11 12  1  0
 12 13  1  0
 14 13  1  1
 14 15  1  0
 15  8  1  0
 16 17  2  0
 16 14  1  0
 18 19  1  0
 19 20  2  0
 21 19  1  0
 21 22  1  0
 23 22  1  1
 23 24  1  0
 24 16  1  0
 25 23  1  0
 26 25  1  0
 27 25  2  0
M  END
$$$$
