KMQ.pdb
     RDKit          3D

 27 26  0  0  1  0  0  0  0  0999 V2000
   27.3577  -19.5963  -15.5166 N   0  0  0  0  0  0  0  0  0  0  0  0
   26.9093  -20.9311  -15.8019 C   0  0  1  0  0  0  0  0  0  0  0  0
   27.9924  -21.8966  -16.1363 C   0  0  0  0  0  0  0  0  0  0  0  0
   28.4922  -21.8055  -17.5341 C   0  0  0  0  0  0  0  0  0  0  0  0
   29.4370  -20.6930  -17.8235 C   0  0  0  0  0  0  0  0  0  0  0  0
   29.7771  -20.7391  -19.3169 C   0  0  0  0  0  0  0  0  0  0  0  0
   30.7105  -19.6573  -19.5653 N   0  0  0  0  0  0  0  0  0  0  0  0
   26.1448  -21.4213  -14.6175 C   0  0  0  0  0  0  0  0  0  0  0  0
   25.6433  -22.5764  -14.7018 O   0  0  0  0  0  0  0  0  0  0  0  0
   27.3883  -20.2115   -8.3029 C   0  0  0  0  0  0  0  0  0  0  0  0
   25.5893  -20.1843   -8.3150 S   0  0  0  0  0  0  0  0  0  0  0  0
   24.9612  -20.9268   -9.8465 C   0  0  0  0  0  0  0  0  0  0  0  0
   25.7373  -20.4452  -11.0446 C   0  0  0  0  0  0  0  0  0  0  0  0
   25.2390  -21.0349  -12.3376 C   0  0  2  0  0  0  0  0  0  0  0  0
   26.0073  -20.6087  -13.4736 N   0  0  0  0  0  0  0  0  0  0  0  0
   23.7893  -20.6950  -12.5649 C   0  0  0  0  0  0  0  0  0  0  0  0
   23.4412  -19.5483  -12.9275 O   0  0  0  0  0  0  0  0  0  0  0  0
   16.8238  -23.3677  -12.2069 N   0  0  0  0  0  0  0  0  0  0  0  0
   18.2404  -23.4182  -12.1427 C   0  0  0  0  0  0  0  0  0  0  0  0
   18.7756  -24.5292  -11.8585 O   0  0  0  0  0  0  0  0  0  0  0  0
   19.0539  -22.2059  -12.3999 C   0  0  0  0  0  0  0  0  0  0  0  0
   20.5127  -22.4448  -12.2898 C   0  0  0  0  0  0  0  0  0  0  0  0
   21.3929  -21.2726  -12.6713 C   0  0  2  0  0  0  0  0  0  0  0  0
   22.7765  -21.6567  -12.3769 N   0  0  0  0  0  0  0  0  0  0  0  0
   21.0875  -20.1176  -11.8074 C   0  0  0  0  0  0  0  0  0  0  0  0
   20.2921  -19.0967  -12.2686 O   0  0  0  0  0  0  0  0  0  0  0  0
   21.5461  -20.0549  -10.6555 O   0  0  0  0  0  0  0  0  0  0  0  0
  2  3  1  0
  2  1  1  1
  4  3  1  0
  5  4  1  0
  5  6  1  0
  6  7  1  0
  8  9  2  0
  8  2  1  0
 10 11  1  0
 11 12  1  0
 12 13  1  0
 14 13  1  1
 14 15  1  0
 15  8  1  0
 16 17  2  0
 16 14  1  0
 18 19  1  0
 19 20  2  0
 21 19  1  0
 21 22  1  0
 23 22  1  1
 23 24  1  0
 24 16  1  0
 25 23  1  0
 26 25  1  0
 27 25  2  0
M  END
$$$$
