FAW.pdb
     RDKit          3D

 31 33  0  0  1  0  0  0  0  0999 V2000
    9.6578  -20.3912   28.2805 N   0  0  0  0  0  0  0  0  0  0  0  0
    9.5663  -19.1444   27.5347 C   0  0  1  0  0  0  0  0  0  0  0  0
   10.9309  -18.4249   27.6241 C   0  0  0  0  0  0  0  0  0  0  0  0
   10.6085  -17.0210   27.9946 C   0  0  0  0  0  0  0  0  0  0  0  0
    9.6199  -16.2677   27.4340 C   0  0  0  0  0  0  0  0  0  0  0  0
    9.3791  -14.9584   27.8245 C   0  0  0  0  0  0  0  0  0  0  0  0
   10.1726  -14.3902   28.8238 C   0  0  0  0  0  0  0  0  0  0  0  0
   11.1644  -15.1505   29.3844 C   0  0  0  0  0  0  0  0  0  0  0  0
   11.4011  -16.4584   28.9908 C   0  0  0  0  0  0  0  0  0  0  0  0
    9.3689  -19.4617   26.1103 C   0  0  0  0  0  0  0  0  0  0  0  0
   10.2560  -20.0990   25.5014 O   0  0  0  0  0  0  0  0  0  0  0  0
    6.4816  -19.2426   23.7204 C   0  0  0  0  0  0  0  0  0  0  0  0
    7.9653  -19.2044   24.0653 C   0  0  2  0  0  0  0  0  0  0  0  0
    8.1737  -19.0328   25.4761 N   0  0  0  0  0  0  0  0  0  0  0  0
    8.5223  -18.0608   23.3020 C   0  0  0  0  0  0  0  0  0  0  0  0
    8.6338  -18.1441   22.0506 O   0  0  0  0  0  0  0  0  0  0  0  0
    8.9434  -16.8591   23.9080 N   0  0  0  0  0  0  0  0  0  0  0  0
    9.5780  -15.8098   23.1012 C   0  0  1  0  0  0  0  0  0  0  0  0
    8.6540  -14.6474   23.0191 C   0  0  0  0  0  0  0  0  0  0  0  0
    7.6469  -14.5389   24.0889 C   0  0  0  0  0  0  0  0  0  0  0  0
    7.0168  -15.5769   24.7739 C   0  0  0  0  0  0  0  0  0  0  0  0
    6.1394  -15.0663   25.6482 N   0  0  0  0  0  0  0  0  0  0  0  0
    6.1499  -13.7157   25.5838 C   0  0  0  0  0  0  0  0  0  0  0  0
    5.4517  -12.7290   26.2772 C   0  0  0  0  0  0  0  0  0  0  0  0
    5.6664  -11.3906   26.0279 C   0  0  0  0  0  0  0  0  0  0  0  0
    6.5933  -11.0361   25.0709 C   0  0  0  0  0  0  0  0  0  0  0  0
    7.2715  -12.0255   24.3969 C   0  0  0  0  0  0  0  0  0  0  0  0
    7.0781  -13.3837   24.6238 C   0  0  0  0  0  0  0  0  0  0  0  0
   10.9214  -15.5817   23.6073 C   0  0  0  0  0  0  0  0  0  0  0  0
   11.3507  -16.2804   24.7561 O   0  0  0  0  0  0  0  0  0  0  0  0
   11.7752  -14.7962   23.1100 O   0  0  0  0  0  0  0  0  0  0  0  0
  2  1  1  1
  2  3  1  0
  3  4  1  0
  4  5  2  0
  5  6  1  0
  7  6  2  0
  8  7  1  0
  9  4  1  0
  9  8  2  0
 10  2  1  0
 11 10  2  0
 13 12  1  1
 13 14  1  0
 14 10  1  0
 15 13  1  0
 15 17  1  0
 16 15  2  0
 18 17  1  0
 18 29  1  0
 19 20  1  0
 18 19  1  1
 20 21  2  0
 22 21  1  0
 23 22  1  0
 24 23  2  0
 25 24  1  0
 26 25  2  0
 26 27  1  0
 27 28  2  0
 28 23  1  0
 28 20  1  0
 29 30  1  0
 31 29  2  0
M  END
$$$$
