FAW.pdb
     RDKit          3D

 31 33  0  0  1  0  0  0  0  0999 V2000
    6.5702  -18.5026   19.9858 N   0  0  0  0  0  0  0  0  0  0  0  0
    7.1903  -17.2461   20.3803 C   0  0  1  0  0  0  0  0  0  0  0  0
    6.2697  -16.5536   21.4102 C   0  0  0  0  0  0  0  0  0  0  0  0
    6.8616  -15.2051   21.6183 C   0  0  0  0  0  0  0  0  0  0  0  0
    7.2507  -14.6951   22.8215 C   0  0  0  0  0  0  0  0  0  0  0  0
    7.7900  -13.4227   22.9434 C   0  0  0  0  0  0  0  0  0  0  0  0
    7.9410  -12.6359   21.7993 C   0  0  0  0  0  0  0  0  0  0  0  0
    7.5490  -13.1521   20.5927 C   0  0  0  0  0  0  0  0  0  0  0  0
    7.0107  -14.4242   20.4760 C   0  0  0  0  0  0  0  0  0  0  0  0
    8.4436  -17.5437   21.0941 C   0  0  0  0  0  0  0  0  0  0  0  0
    8.5212  -18.5900   21.7746 O   0  0  0  0  0  0  0  0  0  0  0  0
   11.8952  -16.2134   20.5425 C   0  0  0  0  0  0  0  0  0  0  0  0
   10.8646  -17.0007   21.3424 C   0  0  2  0  0  0  0  0  0  0  0  0
    9.5242  -16.6302   20.9832 N   0  0  0  0  0  0  0  0  0  0  0  0
   11.1405  -16.6863   22.7658 C   0  0  0  0  0  0  0  0  0  0  0  0
   12.0635  -15.8809   23.0568 O   0  0  0  0  0  0  0  0  0  0  0  0
   10.4143  -17.2483   23.8359 N   0  0  0  0  0  0  0  0  0  0  0  0
   10.3260  -16.5403   25.1189 C   0  0  1  0  0  0  0  0  0  0  0  0
    9.8293  -15.1610   24.8688 C   0  0  0  0  0  0  0  0  0  0  0  0
    8.4606  -14.8680   25.3287 C   0  0  0  0  0  0  0  0  0  0  0  0
    7.3938  -15.7575   25.4489 C   0  0  0  0  0  0  0  0  0  0  0  0
    6.3067  -15.0960   25.8679 N   0  0  0  0  0  0  0  0  0  0  0  0
    6.5955  -13.7861   26.0385 C   0  0  0  0  0  0  0  0  0  0  0  0
    5.8379  -12.6970   26.4650 C   0  0  0  0  0  0  0  0  0  0  0  0
    6.3899  -11.4385   26.5714 C   0  0  0  0  0  0  0  0  0  0  0  0
    7.7189  -11.2692   26.2464 C   0  0  0  0  0  0  0  0  0  0  0  0
    8.4493  -12.3571   25.8267 C   0  0  0  0  0  0  0  0  0  0  0  0
    7.9229  -13.6386   25.7078 C   0  0  0  0  0  0  0  0  0  0  0  0
    9.5934  -17.3714   26.0599 C   0  0  0  0  0  0  0  0  0  0  0  0
    8.8092  -18.4373   25.5692 O   0  0  0  0  0  0  0  0  0  0  0  0
    9.5842  -17.2351   27.3147 O   0  0  0  0  0  0  0  0  0  0  0  0
  2  1  1  1
  2  3  1  0
  3  4  1  0
  4  5  2  0
  5  6  1  0
  7  6  2  0
  8  7  1  0
  9  4  1  0
  9  8  2  0
 10  2  1  0
 11 10  2  0
 13 12  1  6
 13 14  1  0
 14 10  1  0
 15 13  1  0
 15 17  1  0
 16 15  2  0
 18 17  1  0
 18 29  1  0
 19 20  1  0
 18 19  1  6
 20 21  2  0
 22 21  1  0
 23 22  1  0
 24 23  2  0
 25 24  1  0
 26 25  2  0
 26 27  1  0
 27 28  2  0
 28 23  1  0
 28 20  1  0
 29 30  1  0
 31 29  2  0
M  END
$$$$
