FAW.pdb
     RDKit          3D

 31 33  0  0  1  0  0  0  0  0999 V2000
    5.6949  -17.8104   20.1047 N   0  0  0  0  0  0  0  0  0  0  0  0
    6.5775  -16.7111   20.4670 C   0  0  1  0  0  0  0  0  0  0  0  0
    5.7261  -15.6033   21.1272 C   0  0  0  0  0  0  0  0  0  0  0  0
    6.6525  -14.4537   21.3068 C   0  0  0  0  0  0  0  0  0  0  0  0
    7.1534  -13.6836   20.2993 C   0  0  0  0  0  0  0  0  0  0  0  0
    8.0214  -12.6283   20.5395 C   0  0  0  0  0  0  0  0  0  0  0  0
    8.3964  -12.3424   21.8543 C   0  0  0  0  0  0  0  0  0  0  0  0
    7.8907  -13.1183   22.8634 C   0  0  0  0  0  0  0  0  0  0  0  0
    7.0236  -14.1717   22.6182 C   0  0  0  0  0  0  0  0  0  0  0  0
    7.5092  -17.1789   21.5070 C   0  0  0  0  0  0  0  0  0  0  0  0
    7.0473  -17.6845   22.5534 O   0  0  0  0  0  0  0  0  0  0  0  0
   11.1848  -17.9171   21.4257 C   0  0  0  0  0  0  0  0  0  0  0  0
    9.8707  -17.6548   22.1511 C   0  0  2  0  0  0  0  0  0  0  0  0
    8.9042  -17.0406   21.2842 N   0  0  0  0  0  0  0  0  0  0  0  0
   10.2131  -16.7610   23.2846 C   0  0  0  0  0  0  0  0  0  0  0  0
   10.6113  -15.5891   23.0536 O   0  0  0  0  0  0  0  0  0  0  0  0
   10.1168  -17.1546   24.6353 N   0  0  0  0  0  0  0  0  0  0  0  0
   10.5849  -16.2581   25.6993 C   0  0  1  0  0  0  0  0  0  0  0  0
    9.4795  -16.0572   26.6738 C   0  0  0  0  0  0  0  0  0  0  0  0
    8.2553  -15.4270   26.1495 C   0  0  0  0  0  0  0  0  0  0  0  0
    7.1329  -16.0596   25.6167 C   0  0  0  0  0  0  0  0  0  0  0  0
    6.2475  -15.1362   25.2188 N   0  0  0  0  0  0  0  0  0  0  0  0
    6.7270  -13.8956   25.4625 C   0  0  0  0  0  0  0  0  0  0  0  0
    6.2041  -12.6206   25.2554 C   0  0  0  0  0  0  0  0  0  0  0  0
    6.9058  -11.4913   25.6185 C   0  0  0  0  0  0  0  0  0  0  0  0
    8.1480  -11.6416   26.1972 C   0  0  0  0  0  0  0  0  0  0  0  0
    8.6468  -12.9090   26.3924 C   0  0  0  0  0  0  0  0  0  0  0  0
    7.9653  -14.0679   26.0370 C   0  0  0  0  0  0  0  0  0  0  0  0
   11.8567  -16.7533   26.1996 C   0  0  0  0  0  0  0  0  0  0  0  0
   12.3478  -17.9884   25.7248 O   0  0  0  0  0  0  0  0  0  0  0  0
   12.5945  -16.1744   27.0443 O   0  0  0  0  0  0  0  0  0  0  0  0
  2  1  1  1
  2  3  1  0
  3  4  1  0
  4  5  2  0
  5  6  1  0
  7  6  2  0
  8  7  1  0
  9  4  1  0
  9  8  2  0
 10  2  1  0
 11 10  2  0
 13 12  1  6
 13 14  1  0
 14 10  1  0
 15 13  1  0
 15 17  1  0
 16 15  2  0
 18 17  1  0
 18 29  1  0
 19 20  1  0
 18 19  1  1
 20 21  2  0
 22 21  1  0
 23 22  1  0
 24 23  2  0
 25 24  1  0
 26 25  2  0
 26 27  1  0
 27 28  2  0
 28 23  1  0
 28 20  1  0
 29 30  1  0
 31 29  2  0
M  END
$$$$
