FAW.pdb
     RDKit          3D

 31 33  0  0  1  0  0  0  0  0999 V2000
    5.8684  -19.0225   19.0781 N   0  0  0  0  0  0  0  0  0  0  0  0
    6.0372  -18.1978   20.2657 C   0  0  1  0  0  0  0  0  0  0  0  0
    6.0671  -19.1264   21.5004 C   0  0  0  0  0  0  0  0  0  0  0  0
    6.0953  -18.2139   22.6746 C   0  0  0  0  0  0  0  0  0  0  0  0
    6.3919  -18.5866   23.9522 C   0  0  0  0  0  0  0  0  0  0  0  0
    6.3920  -17.6810   25.0032 C   0  0  0  0  0  0  0  0  0  0  0  0
    6.0788  -16.3439   24.7485 C   0  0  0  0  0  0  0  0  0  0  0  0
    5.7816  -15.9738   23.4637 C   0  0  0  0  0  0  0  0  0  0  0  0
    5.7829  -16.8824   22.4168 C   0  0  0  0  0  0  0  0  0  0  0  0
    7.3620  -17.5573   20.2092 C   0  0  0  0  0  0  0  0  0  0  0  0
    8.3830  -18.2774   20.1558 O   0  0  0  0  0  0  0  0  0  0  0  0
    8.2985  -14.0106   19.3736 C   0  0  0  0  0  0  0  0  0  0  0  0
    8.6146  -15.4429   19.7865 C   0  0  2  0  0  0  0  0  0  0  0  0
    7.4342  -16.1397   20.2159 N   0  0  0  0  0  0  0  0  0  0  0  0
    9.5981  -15.3309   20.8915 C   0  0  0  0  0  0  0  0  0  0  0  0
   10.7401  -14.8534   20.6610 O   0  0  0  0  0  0  0  0  0  0  0  0
    9.3239  -15.7364   22.2140 N   0  0  0  0  0  0  0  0  0  0  0  0
   10.3206  -15.5261   23.2709 C   0  0  1  0  0  0  0  0  0  0  0  0
    9.8862  -14.3811   24.1147 C   0  0  0  0  0  0  0  0  0  0  0  0
    8.6984  -14.6060   24.9568 C   0  0  0  0  0  0  0  0  0  0  0  0
    8.1296  -15.8265   25.3185 C   0  0  0  0  0  0  0  0  0  0  0  0
    7.0386  -15.6064   26.0642 N   0  0  0  0  0  0  0  0  0  0  0  0
    6.8440  -14.2779   26.2243 C   0  0  0  0  0  0  0  0  0  0  0  0
    5.8831  -13.5373   26.9100 C   0  0  0  0  0  0  0  0  0  0  0  0
    5.9220  -12.1597   26.9317 C   0  0  0  0  0  0  0  0  0  0  0  0
    6.9374  -11.5156   26.2575 C   0  0  0  0  0  0  0  0  0  0  0  0
    7.8758  -12.2650   25.5859 C   0  0  0  0  0  0  0  0  0  0  0  0
    7.8647  -13.6549   25.5437 C   0  0  0  0  0  0  0  0  0  0  0  0
   10.5814  -16.7979   23.9248 C   0  0  0  0  0  0  0  0  0  0  0  0
    9.9335  -17.9591   23.4518 O   0  0  0  0  0  0  0  0  0  0  0  0
   11.3538  -16.9796   24.9064 O   0  0  0  0  0  0  0  0  0  0  0  0
  2  1  1  6
  2  3  1  0
  3  4  1  0
  4  5  2  0
  5  6  1  0
  7  6  2  0
  8  7  1  0
  9  4  1  0
  9  8  2  0
 10  2  1  0
 11 10  2  0
 13 12  1  1
 13 14  1  0
 14 10  1  0
 15 13  1  0
 15 17  1  0
 16 15  2  0
 18 17  1  0
 18 29  1  0
 19 20  1  0
 18 19  1  1
 20 21  2  0
 22 21  1  0
 23 22  1  0
 24 23  2  0
 25 24  1  0
 26 25  2  0
 26 27  1  0
 27 28  2  0
 28 23  1  0
 28 20  1  0
 29 30  1  0
 31 29  2  0
M  END
$$$$
