FAW.pdb
     RDKit          3D

 31 33  0  0  1  0  0  0  0  0999 V2000
    8.0552  -16.9411   16.9364 N   0  0  0  0  0  0  0  0  0  0  0  0
    8.2674  -16.0379   18.0580 C   0  0  1  0  0  0  0  0  0  0  0  0
    7.0752  -15.0570   18.1228 C   0  0  0  0  0  0  0  0  0  0  0  0
    7.3287  -14.2128   19.3209 C   0  0  0  0  0  0  0  0  0  0  0  0
    6.8289  -14.4478   20.5675 C   0  0  0  0  0  0  0  0  0  0  0  0
    7.1013  -13.6119   21.6407 C   0  0  0  0  0  0  0  0  0  0  0  0
    7.9133  -12.4929   21.4419 C   0  0  0  0  0  0  0  0  0  0  0  0
    8.4134  -12.2607   20.1881 C   0  0  0  0  0  0  0  0  0  0  0  0
    8.1383  -13.0990   19.1188 C   0  0  0  0  0  0  0  0  0  0  0  0
    8.2177  -16.8178   19.3061 C   0  0  0  0  0  0  0  0  0  0  0  0
    7.1292  -17.3159   19.6681 O   0  0  0  0  0  0  0  0  0  0  0  0
   10.3760  -18.9538   21.1335 C   0  0  0  0  0  0  0  0  0  0  0  0
    9.4436  -17.7557   21.2646 C   0  0  2  0  0  0  0  0  0  0  0  0
    9.4115  -16.9789   20.0568 N   0  0  0  0  0  0  0  0  0  0  0  0
    9.9766  -16.9583   22.3963 C   0  0  0  0  0  0  0  0  0  0  0  0
   10.7829  -16.0183   22.1690 O   0  0  0  0  0  0  0  0  0  0  0  0
    9.6260  -17.1956   23.7414 N   0  0  0  0  0  0  0  0  0  0  0  0
   10.2619  -16.4237   24.8160 C   0  0  1  0  0  0  0  0  0  0  0  0
    9.7098  -15.0429   24.8020 C   0  0  0  0  0  0  0  0  0  0  0  0
    8.4063  -14.8557   25.4627 C   0  0  0  0  0  0  0  0  0  0  0  0
    7.4095  -15.8091   25.6654 C   0  0  0  0  0  0  0  0  0  0  0  0
    6.3616  -15.2364   26.2728 N   0  0  0  0  0  0  0  0  0  0  0  0
    6.6097  -13.9254   26.4921 C   0  0  0  0  0  0  0  0  0  0  0  0
    5.8688  -12.9087   27.0914 C   0  0  0  0  0  0  0  0  0  0  0  0
    6.3707  -11.6303   27.2081 C   0  0  0  0  0  0  0  0  0  0  0  0
    7.6320  -11.3673   26.7178 C   0  0  0  0  0  0  0  0  0  0  0  0
    8.3470  -12.3848   26.1290 C   0  0  0  0  0  0  0  0  0  0  0  0
    7.8697  -13.6840   25.9949 C   0  0  0  0  0  0  0  0  0  0  0  0
   10.1721  -17.1842   26.0516 C   0  0  0  0  0  0  0  0  0  0  0  0
   10.9494  -16.7871   27.1607 O   0  0  0  0  0  0  0  0  0  0  0  0
    9.4463  -18.1987   26.2439 O   0  0  0  0  0  0  0  0  0  0  0  0
  2  1  1  6
  2  3  1  0
  3  4  1  0
  4  5  2  0
  5  6  1  0
  7  6  2  0
  8  7  1  0
  9  4  1  0
  9  8  2  0
 10  2  1  0
 11 10  2  0
 13 12  1  6
 13 14  1  0
 14 10  1  0
 15 13  1  0
 15 17  1  0
 16 15  2  0
 18 17  1  0
 18 29  1  0
 19 20  1  0
 18 19  1  1
 20 21  2  0
 22 21  1  0
 23 22  1  0
 24 23  2  0
 25 24  1  0
 26 25  2  0
 26 27  1  0
 27 28  2  0
 28 23  1  0
 28 20  1  0
 29 30  1  0
 31 29  2  0
M  END
$$$$
