FAW.pdb
     RDKit          3D

 31 33  0  0  1  0  0  0  0  0999 V2000
    7.4159  -18.2286   21.7473 N   0  0  0  0  0  0  0  0  0  0  0  0
    8.2965  -17.0964   21.9948 C   0  0  1  0  0  0  0  0  0  0  0  0
    7.5492  -16.0894   22.8978 C   0  0  0  0  0  0  0  0  0  0  0  0
    7.6527  -14.7829   22.1948 C   0  0  0  0  0  0  0  0  0  0  0  0
    8.6122  -13.8415   22.4235 C   0  0  0  0  0  0  0  0  0  0  0  0
    8.6438  -12.6381   21.7338 C   0  0  0  0  0  0  0  0  0  0  0  0
    7.6632  -12.3790   20.7735 C   0  0  0  0  0  0  0  0  0  0  0  0
    6.7014  -13.3274   20.5467 C   0  0  0  0  0  0  0  0  0  0  0  0
    6.6741  -14.5285   21.2384 C   0  0  0  0  0  0  0  0  0  0  0  0
    9.4527  -17.5622   22.7789 C   0  0  0  0  0  0  0  0  0  0  0  0
    9.3087  -18.5313   23.5560 O   0  0  0  0  0  0  0  0  0  0  0  0
   13.1244  -16.6339   22.7663 C   0  0  0  0  0  0  0  0  0  0  0  0
   11.8840  -17.3477   23.2895 C   0  0  2  0  0  0  0  0  0  0  0  0
   10.6950  -16.8934   22.6239 N   0  0  0  0  0  0  0  0  0  0  0  0
   11.8314  -17.0427   24.7404 C   0  0  0  0  0  0  0  0  0  0  0  0
   12.7912  -17.3807   25.4818 O   0  0  0  0  0  0  0  0  0  0  0  0
   10.7462  -16.3819   25.3521 N   0  0  0  0  0  0  0  0  0  0  0  0
   10.7969  -16.0483   26.7807 C   0  0  1  0  0  0  0  0  0  0  0  0
   10.0609  -14.7745   26.9991 C   0  0  0  0  0  0  0  0  0  0  0  0
    8.6484  -14.7583   26.5806 C   0  0  0  0  0  0  0  0  0  0  0  0
    7.8267  -15.8524   26.3132 C   0  0  0  0  0  0  0  0  0  0  0  0
    6.6190  -15.4194   25.9274 N   0  0  0  0  0  0  0  0  0  0  0  0
    6.5883  -14.0676   25.9232 C   0  0  0  0  0  0  0  0  0  0  0  0
    5.5894  -13.1439   25.6218 C   0  0  0  0  0  0  0  0  0  0  0  0
    5.8160  -11.7877   25.7170 C   0  0  0  0  0  0  0  0  0  0  0  0
    7.0600  -11.3512   26.1197 C   0  0  0  0  0  0  0  0  0  0  0  0
    8.0329  -12.2793   26.4120 C   0  0  0  0  0  0  0  0  0  0  0  0
    7.8372  -13.6533   26.3255 C   0  0  0  0  0  0  0  0  0  0  0  0
   10.3885  -17.2146   27.5461 C   0  0  0  0  0  0  0  0  0  0  0  0
    9.9302  -18.3601   26.8607 O   0  0  0  0  0  0  0  0  0  0  0  0
   10.4008  -17.3143   28.8043 O   0  0  0  0  0  0  0  0  0  0  0  0
  2  1  1  1
  2  3  1  0
  3  4  1  0
  4  5  2  0
  5  6  1  0
  7  6  2  0
  8  7  1  0
  9  4  1  0
  9  8  2  0
 10  2  1  0
 11 10  2  0
 13 12  1  6
 13 14  1  0
 14 10  1  0
 15 13  1  0
 15 17  1  0
 16 15  2  0
 18 17  1  0
 18 29  1  0
 19 20  1  0
 18 19  1  6
 20 21  2  0
 22 21  1  0
 23 22  1  0
 24 23  2  0
 25 24  1  0
 26 25  2  0
 26 27  1  0
 27 28  2  0
 28 23  1  0
 28 20  1  0
 29 30  1  0
 31 29  2  0
M  END
$$$$
