FAW.pdb
     RDKit          3D

 31 33  0  0  1  0  0  0  0  0999 V2000
    7.1340  -17.6420   21.4167 N   0  0  0  0  0  0  0  0  0  0  0  0
    8.0121  -17.6752   20.2562 C   0  0  1  0  0  0  0  0  0  0  0  0
    7.4328  -16.7264   19.1828 C   0  0  0  0  0  0  0  0  0  0  0  0
    7.4444  -15.3766   19.8075 C   0  0  0  0  0  0  0  0  0  0  0  0
    6.7658  -15.0282   20.9376 C   0  0  0  0  0  0  0  0  0  0  0  0
    6.8164  -13.7447   21.4619 C   0  0  0  0  0  0  0  0  0  0  0  0
    7.5861  -12.7757   20.8142 C   0  0  0  0  0  0  0  0  0  0  0  0
    8.2664  -13.1300   19.6795 C   0  0  0  0  0  0  0  0  0  0  0  0
    8.2127  -14.4140   19.1595 C   0  0  0  0  0  0  0  0  0  0  0  0
    9.3163  -17.1071   20.6367 C   0  0  0  0  0  0  0  0  0  0  0  0
   10.2928  -17.2617   19.8709 O   0  0  0  0  0  0  0  0  0  0  0  0
   10.7300  -14.3709   22.2573 C   0  0  0  0  0  0  0  0  0  0  0  0
   10.6770  -15.8916   22.3366 C   0  0  2  0  0  0  0  0  0  0  0  0
    9.4198  -16.4000   21.8631 N   0  0  0  0  0  0  0  0  0  0  0  0
   10.8800  -16.2231   23.7683 C   0  0  0  0  0  0  0  0  0  0  0  0
   11.8202  -15.6790   24.4050 O   0  0  0  0  0  0  0  0  0  0  0  0
   10.0644  -17.1314   24.4742 N   0  0  0  0  0  0  0  0  0  0  0  0
   10.1736  -17.2390   25.9342 C   0  0  1  0  0  0  0  0  0  0  0  0
    9.8752  -15.9111   26.5336 C   0  0  0  0  0  0  0  0  0  0  0  0
    8.5392  -15.3560   26.2551 C   0  0  0  0  0  0  0  0  0  0  0  0
    7.4357  -16.0195   25.7205 C   0  0  0  0  0  0  0  0  0  0  0  0
    6.4180  -15.1582   25.5890 N   0  0  0  0  0  0  0  0  0  0  0  0
    6.7890  -13.9301   26.0163 C   0  0  0  0  0  0  0  0  0  0  0  0
    6.1144  -12.7139   26.1036 C   0  0  0  0  0  0  0  0  0  0  0  0
    6.7304  -11.5879   26.6058 C   0  0  0  0  0  0  0  0  0  0  0  0
    8.0399  -11.6818   27.0263 C   0  0  0  0  0  0  0  0  0  0  0  0
    8.6886  -12.8915   26.9310 C   0  0  0  0  0  0  0  0  0  0  0  0
    8.0966  -14.0453   26.4289 C   0  0  0  0  0  0  0  0  0  0  0  0
    9.3910  -18.3811   26.3768 C   0  0  0  0  0  0  0  0  0  0  0  0
    9.4875  -18.8007   27.7210 O   0  0  0  0  0  0  0  0  0  0  0  0
    8.6062  -19.0618   25.6600 O   0  0  0  0  0  0  0  0  0  0  0  0
  2  1  1  1
  2  3  1  0
  3  4  1  0
  4  5  2  0
  5  6  1  0
  7  6  2  0
  8  7  1  0
  9  4  1  0
  9  8  2  0
 10  2  1  0
 11 10  2  0
 13 12  1  1
 13 14  1  0
 14 10  1  0
 15 13  1  0
 15 17  1  0
 16 15  2  0
 18 17  1  0
 18 29  1  0
 19 20  1  0
 18 19  1  1
 20 21  2  0
 22 21  1  0
 23 22  1  0
 24 23  2  0
 25 24  1  0
 26 25  2  0
 26 27  1  0
 27 28  2  0
 28 23  1  0
 28 20  1  0
 29 30  1  0
 31 29  2  0
M  END
$$$$
