FAW.pdb
     RDKit          3D

 31 33  0  0  1  0  0  0  0  0999 V2000
    6.5988  -20.7872   23.1510 N   0  0  0  0  0  0  0  0  0  0  0  0
    5.8894  -19.5225   23.0242 C   0  0  1  0  0  0  0  0  0  0  0  0
    5.7651  -18.8934   24.4301 C   0  0  0  0  0  0  0  0  0  0  0  0
    6.9774  -19.3407   25.1666 C   0  0  0  0  0  0  0  0  0  0  0  0
    7.3834  -18.8607   26.3764 C   0  0  0  0  0  0  0  0  0  0  0  0
    8.5323  -19.3198   27.0041 C   0  0  0  0  0  0  0  0  0  0  0  0
    9.3003  -20.3055   26.3799 C   0  0  0  0  0  0  0  0  0  0  0  0
    8.8888  -20.7851   25.1647 C   0  0  0  0  0  0  0  0  0  0  0  0
    7.7399  -20.3231   24.5416 C   0  0  0  0  0  0  0  0  0  0  0  0
    6.7192  -18.5944   22.2377 C   0  0  0  0  0  0  0  0  0  0  0  0
    7.8454  -18.9704   21.8451 O   0  0  0  0  0  0  0  0  0  0  0  0
    6.0793  -15.1512   20.7885 C   0  0  0  0  0  0  0  0  0  0  0  0
    6.9213  -16.3800   21.1091 C   0  0  2  0  0  0  0  0  0  0  0  0
    6.2095  -17.3012   21.9504 N   0  0  0  0  0  0  0  0  0  0  0  0
    8.1342  -15.8649   21.7905 C   0  0  0  0  0  0  0  0  0  0  0  0
    8.9001  -15.0725   21.1815 O   0  0  0  0  0  0  0  0  0  0  0  0
    8.4882  -16.2177   23.1091 N   0  0  0  0  0  0  0  0  0  0  0  0
    9.6945  -15.6514   23.7250 C   0  0  1  0  0  0  0  0  0  0  0  0
    9.3890  -14.2727   24.1915 C   0  0  0  0  0  0  0  0  0  0  0  0
    8.1566  -14.1106   24.9824 C   0  0  0  0  0  0  0  0  0  0  0  0
    7.2356  -15.0959   25.3357 C   0  0  0  0  0  0  0  0  0  0  0  0
    6.2322  -14.5406   26.0284 N   0  0  0  0  0  0  0  0  0  0  0  0
    6.4376  -13.2106   26.1605 C   0  0  0  0  0  0  0  0  0  0  0  0
    5.7163  -12.1990   26.7916 C   0  0  0  0  0  0  0  0  0  0  0  0
    6.1642  -10.8956   26.7954 C   0  0  0  0  0  0  0  0  0  0  0  0
    7.3509  -10.6018   26.1583 C   0  0  0  0  0  0  0  0  0  0  0  0
    8.0476  -11.6147   25.5404 C   0  0  0  0  0  0  0  0  0  0  0  0
    7.6234  -12.9388   25.5176 C   0  0  0  0  0  0  0  0  0  0  0  0
   10.2130  -16.6027   24.6940 C   0  0  0  0  0  0  0  0  0  0  0  0
    9.5202  -17.8139   24.9064 O   0  0  0  0  0  0  0  0  0  0  0  0
   11.2550  -16.4543   25.3908 O   0  0  0  0  0  0  0  0  0  0  0  0
  2  1  1  1
  2  3  1  0
  3  4  1  0
  4  5  2  0
  5  6  1  0
  7  6  2  0
  8  7  1  0
  9  4  1  0
  9  8  2  0
 10  2  1  0
 11 10  2  0
 13 12  1  1
 13 14  1  0
 14 10  1  0
 15 13  1  0
 15 17  1  0
 16 15  2  0
 18 17  1  0
 18 29  1  0
 19 20  1  0
 18 19  1  1
 20 21  2  0
 22 21  1  0
 23 22  1  0
 24 23  2  0
 25 24  1  0
 26 25  2  0
 26 27  1  0
 27 28  2  0
 28 23  1  0
 28 20  1  0
 29 30  1  0
 31 29  2  0
M  END
$$$$
