AWY.pdb
     RDKit          3D

 32 34  0  0  1  0  0  0  0  0999 V2000
   12.1020  -18.4106   21.1043 C   0  0  0  0  0  0  0  0  0  0  0  0
   11.1599  -17.2744   21.0147 C   0  0  2  0  0  0  0  0  0  0  0  0
   11.6265  -16.2937   20.0567 N   0  0  0  0  0  0  0  0  0  0  0  0
   10.8338  -16.5920   22.2862 C   0  0  0  0  0  0  0  0  0  0  0  0
   11.5443  -15.6583   22.6634 O   0  0  0  0  0  0  0  0  0  0  0  0
    9.7435  -16.9402   23.1160 N   0  0  0  0  0  0  0  0  0  0  0  0
    9.3208  -16.4208   24.3368 C   0  0  1  0  0  0  0  0  0  0  0  0
    7.9421  -16.4172   24.7651 C   0  0  0  0  0  0  0  0  0  0  0  0
    7.3100  -15.0648   24.6730 C   0  0  0  0  0  0  0  0  0  0  0  0
    6.7774  -14.4613   23.5419 C   0  0  0  0  0  0  0  0  0  0  0  0
    6.2866  -13.2506   23.8610 N   0  0  0  0  0  0  0  0  0  0  0  0
    6.4787  -13.0346   25.1698 C   0  0  0  0  0  0  0  0  0  0  0  0
    6.1626  -11.9617   25.9655 C   0  0  0  0  0  0  0  0  0  0  0  0
    6.4582  -11.9395   27.3128 C   0  0  0  0  0  0  0  0  0  0  0  0
    7.0927  -13.0672   27.8083 C   0  0  0  0  0  0  0  0  0  0  0  0
    7.4211  -14.1563   27.0347 C   0  0  0  0  0  0  0  0  0  0  0  0
    7.1070  -14.1341   25.6978 C   0  0  0  0  0  0  0  0  0  0  0  0
   10.2379  -16.9210   25.4314 C   0  0  0  0  0  0  0  0  0  0  0  0
   10.5440  -18.1294   25.4317 O   0  0  0  0  0  0  0  0  0  0  0  0
   16.2598  -17.6747   23.3254 O   0  0  0  0  0  0  0  0  0  0  0  0
   15.4499  -17.2727   24.3766 C   0  0  0  0  0  0  0  0  0  0  0  0
   15.3591  -17.9748   25.5541 C   0  0  0  0  0  0  0  0  0  0  0  0
   14.5547  -17.5519   26.5648 C   0  0  0  0  0  0  0  0  0  0  0  0
   13.7759  -16.3924   26.4796 C   0  0  0  0  0  0  0  0  0  0  0  0
   12.9095  -16.0052   27.6078 C   0  0  0  0  0  0  0  0  0  0  0  0
   11.5899  -16.6951   27.5224 C   0  0  2  0  0  0  0  0  0  0  0  0
   10.7668  -16.1010   26.4500 N   0  0  0  0  0  0  0  0  0  0  0  0
   10.8332  -16.5495   28.7726 C   0  0  0  0  0  0  0  0  0  0  0  0
   11.2722  -17.0547   29.9913 O   0  0  0  0  0  0  0  0  0  0  0  0
   13.8737  -15.6949   25.2944 C   0  0  0  0  0  0  0  0  0  0  0  0
   14.6921  -16.1273   24.2698 C   0  0  0  0  0  0  0  0  0  0  0  0
    9.7333  -15.9471   28.7719 O   0  0  0  0  0  0  0  0  0  0  0  0
  2  1  1  1
  3  2  1  0
  4  2  1  0
  4  5  2  0
  6  4  1  0
  7  6  1  0
  7  8  1  1
  9  8  1  0
  9 17  1  0
 10  9  2  0
 11 10  1  0
 11 12  1  0
 12 13  1  0
 12 17  2  0
 13 14  2  0
 14 15  1  0
 16 15  2  0
 17 16  1  0
 18  7  1  0
 19 18  2  0
 20 21  1  0
 21 31  2  0
 21 22  1  0
 22 23  2  0
 23 24  1  0
 24 25  1  0
 26 25  1  1
 26 28  1  0
 26 27  1  0
 27 18  1  0
 28 29  1  0
 30 24  2  0
 31 30  1  0
 32 28  2  0
M  END
$$$$
