AWY.pdb
     RDKit          3D

 32 34  0  0  1  0  0  0  0  0999 V2000
    3.9223  -17.3163   21.6355 C   0  0  0  0  0  0  0  0  0  0  0  0
    5.3174  -17.8038   21.5865 C   0  0  2  0  0  0  0  0  0  0  0  0
    5.4221  -19.1238   22.1730 N   0  0  0  0  0  0  0  0  0  0  0  0
    6.3407  -16.9230   22.1910 C   0  0  0  0  0  0  0  0  0  0  0  0
    6.4854  -15.7822   21.7477 O   0  0  0  0  0  0  0  0  0  0  0  0
    7.1809  -17.3027   23.2626 N   0  0  0  0  0  0  0  0  0  0  0  0
    8.1890  -16.6074   23.9254 C   0  0  1  0  0  0  0  0  0  0  0  0
    8.1973  -16.3862   25.3520 C   0  0  0  0  0  0  0  0  0  0  0  0
    7.2207  -15.3382   25.7819 C   0  0  0  0  0  0  0  0  0  0  0  0
    5.8537  -15.4902   25.9713 C   0  0  0  0  0  0  0  0  0  0  0  0
    5.3181  -14.3242   26.3738 N   0  0  0  0  0  0  0  0  0  0  0  0
    6.2898  -13.4046   26.4561 C   0  0  0  0  0  0  0  0  0  0  0  0
    6.2535  -12.0797   26.8130 C   0  0  0  0  0  0  0  0  0  0  0  0
    7.3886  -11.2958   26.8269 C   0  0  0  0  0  0  0  0  0  0  0  0
    8.5634  -11.9314   26.4585 C   0  0  0  0  0  0  0  0  0  0  0  0
    8.6293  -13.2569   26.0967 C   0  0  0  0  0  0  0  0  0  0  0  0
    7.4735  -13.9988   26.0977 C   0  0  0  0  0  0  0  0  0  0  0  0
    9.5334  -17.0982   23.4347 C   0  0  0  0  0  0  0  0  0  0  0  0
   10.3051  -17.6179   24.2643 O   0  0  0  0  0  0  0  0  0  0  0  0
    7.0914  -13.5901   17.3106 O   0  0  0  0  0  0  0  0  0  0  0  0
    7.9171  -13.8446   18.3950 C   0  0  0  0  0  0  0  0  0  0  0  0
    7.9509  -13.0388   19.5073 C   0  0  0  0  0  0  0  0  0  0  0  0
    8.7730  -13.3179   20.5531 C   0  0  0  0  0  0  0  0  0  0  0  0
    9.6278  -14.4256   20.5711 C   0  0  0  0  0  0  0  0  0  0  0  0
   10.5083  -14.6549   21.7312 C   0  0  0  0  0  0  0  0  0  0  0  0
   11.0326  -16.0512   21.7295 C   0  0  2  0  0  0  0  0  0  0  0  0
    9.9642  -17.0028   22.0949 N   0  0  0  0  0  0  0  0  0  0  0  0
   12.1075  -16.2155   22.7166 C   0  0  0  0  0  0  0  0  0  0  0  0
   13.4248  -15.8405   22.4770 O   0  0  0  0  0  0  0  0  0  0  0  0
    9.5868  -15.2280   19.4508 C   0  0  0  0  0  0  0  0  0  0  0  0
    8.7503  -14.9416   18.3902 C   0  0  0  0  0  0  0  0  0  0  0  0
   11.8562  -16.7175   23.8380 O   0  0  0  0  0  0  0  0  0  0  0  0
  2  1  1  1
  3  2  1  0
  4  2  1  0
  4  5  2  0
  6  4  1  0
  7  6  1  0
  7  8  1  1
  9  8  1  0
  9 17  1  0
 10  9  2  0
 11 10  1  0
 11 12  1  0
 12 13  1  0
 12 17  2  0
 13 14  2  0
 14 15  1  0
 16 15  2  0
 17 16  1  0
 18  7  1  0
 19 18  2  0
 20 21  1  0
 21 31  2  0
 21 22  1  0
 22 23  2  0
 23 24  1  0
 24 25  1  0
 26 25  1  1
 26 28  1  0
 26 27  1  0
 27 18  1  0
 28 29  1  0
 30 24  2  0
 31 30  1  0
 32 28  2  0
M  END
$$$$
