AWY.pdb
     RDKit          3D

 32 34  0  0  1  0  0  0  0  0999 V2000
    9.5844  -19.2942   18.2871 C   0  0  0  0  0  0  0  0  0  0  0  0
    9.5540  -19.2877   19.7655 C   0  0  2  0  0  0  0  0  0  0  0  0
    8.4273  -20.0512   20.2602 N   0  0  0  0  0  0  0  0  0  0  0  0
    9.5608  -17.9586   20.4151 C   0  0  0  0  0  0  0  0  0  0  0  0
   10.5740  -17.2611   20.3396 O   0  0  0  0  0  0  0  0  0  0  0  0
    8.4666  -17.4197   21.1297 N   0  0  0  0  0  0  0  0  0  0  0  0
    8.3274  -16.2186   21.8203 C   0  0  1  0  0  0  0  0  0  0  0  0
    7.0620  -15.7233   22.3078 C   0  0  0  0  0  0  0  0  0  0  0  0
    7.1392  -14.3091   22.7882 C   0  0  0  0  0  0  0  0  0  0  0  0
    7.3908  -13.1754   22.0272 C   0  0  0  0  0  0  0  0  0  0  0  0
    7.3658  -12.0850   22.8139 N   0  0  0  0  0  0  0  0  0  0  0  0
    7.1053  -12.4631   24.0732 C   0  0  0  0  0  0  0  0  0  0  0  0
    6.9818  -11.7338   25.2295 C   0  0  0  0  0  0  0  0  0  0  0  0
    6.7111  -12.3301   26.4436 C   0  0  0  0  0  0  0  0  0  0  0  0
    6.5726  -13.7086   26.4194 C   0  0  0  0  0  0  0  0  0  0  0  0
    6.6909  -14.4644   25.2762 C   0  0  0  0  0  0  0  0  0  0  0  0
    6.9608  -13.8275   24.0897 C   0  0  0  0  0  0  0  0  0  0  0  0
    9.4010  -16.1318   22.8830 C   0  0  0  0  0  0  0  0  0  0  0  0
   10.2626  -15.2378   22.7727 O   0  0  0  0  0  0  0  0  0  0  0  0
   11.6851  -14.7799   31.1374 O   0  0  0  0  0  0  0  0  0  0  0  0
   11.0570  -15.1186   29.9486 C   0  0  0  0  0  0  0  0  0  0  0  0
   10.6899  -16.4071   29.6442 C   0  0  0  0  0  0  0  0  0  0  0  0
   10.0754  -16.7042   28.4688 C   0  0  0  0  0  0  0  0  0  0  0  0
    9.7783  -15.7364   27.5026 C   0  0  0  0  0  0  0  0  0  0  0  0
    9.1290  -16.1343   26.2402 C   0  0  0  0  0  0  0  0  0  0  0  0
   10.1450  -16.5543   25.2323 C   0  0  2  0  0  0  0  0  0  0  0  0
    9.4836  -17.0018   23.9902 N   0  0  0  0  0  0  0  0  0  0  0  0
   10.9432  -17.6851   25.7230 C   0  0  0  0  0  0  0  0  0  0  0  0
   12.1783  -17.5327   26.3431 O   0  0  0  0  0  0  0  0  0  0  0  0
   10.1505  -14.4468   27.8171 C   0  0  0  0  0  0  0  0  0  0  0  0
   10.7745  -14.1485   29.0123 C   0  0  0  0  0  0  0  0  0  0  0  0
   10.5174  -18.8570   25.5883 O   0  0  0  0  0  0  0  0  0  0  0  0
  2  1  1  6
  3  2  1  0
  4  2  1  0
  4  5  2  0
  6  4  1  0
  7  6  1  0
  7  8  1  1
  9  8  1  0
  9 17  1  0
 10  9  2  0
 11 10  1  0
 11 12  1  0
 12 13  1  0
 12 17  2  0
 13 14  2  0
 14 15  1  0
 16 15  2  0
 17 16  1  0
 18  7  1  0
 19 18  2  0
 20 21  1  0
 21 31  2  0
 21 22  1  0
 22 23  2  0
 23 24  1  0
 24 25  1  0
 26 25  1  1
 26 28  1  0
 26 27  1  0
 27 18  1  0
 28 29  1  0
 30 24  2  0
 31 30  1  0
 32 28  2  0
M  END
$$$$
