AWY.pdb
     RDKit          3D

 32 34  0  0  1  0  0  0  0  0999 V2000
    6.3418  -19.0412   20.6291 C   0  0  0  0  0  0  0  0  0  0  0  0
    7.3995  -18.9550   21.6589 C   0  0  2  0  0  0  0  0  0  0  0  0
    6.8257  -18.9719   22.9884 N   0  0  0  0  0  0  0  0  0  0  0  0
    8.3301  -17.8104   21.5478 C   0  0  0  0  0  0  0  0  0  0  0  0
    9.1905  -17.8223   20.6655 O   0  0  0  0  0  0  0  0  0  0  0  0
    8.3025  -16.6806   22.3972 N   0  0  0  0  0  0  0  0  0  0  0  0
    9.0797  -15.5253   22.4083 C   0  0  1  0  0  0  0  0  0  0  0  0
    8.5764  -14.2318   22.8054 C   0  0  0  0  0  0  0  0  0  0  0  0
    7.7724  -14.2845   24.0655 C   0  0  0  0  0  0  0  0  0  0  0  0
    7.3384  -15.4184   24.7388 C   0  0  0  0  0  0  0  0  0  0  0  0
    6.6553  -15.0595   25.8402 N   0  0  0  0  0  0  0  0  0  0  0  0
    6.6239  -13.7217   25.9159 C   0  0  0  0  0  0  0  0  0  0  0  0
    6.0534  -12.8810   26.8389 C   0  0  0  0  0  0  0  0  0  0  0  0
    6.1353  -11.5086   26.7255 C   0  0  0  0  0  0  0  0  0  0  0  0
    6.8288  -11.0362   25.6228 C   0  0  0  0  0  0  0  0  0  0  0  0
    7.4104  -11.8549   24.6828 C   0  0  0  0  0  0  0  0  0  0  0  0
    7.3035  -13.2155   24.8368 C   0  0  0  0  0  0  0  0  0  0  0  0
   10.4068  -15.8283   23.0689 C   0  0  0  0  0  0  0  0  0  0  0  0
   11.2893  -14.9484   23.0400 O   0  0  0  0  0  0  0  0  0  0  0  0
    9.2890  -14.3092   29.4140 O   0  0  0  0  0  0  0  0  0  0  0  0
    9.8987  -15.1815   28.5253 C   0  0  0  0  0  0  0  0  0  0  0  0
   11.2283  -15.0916   28.1913 C   0  0  0  0  0  0  0  0  0  0  0  0
   11.7941  -15.9640   27.3159 C   0  0  0  0  0  0  0  0  0  0  0  0
   11.0757  -16.9970   26.7037 C   0  0  0  0  0  0  0  0  0  0  0  0
   11.7500  -17.8937   25.7471 C   0  0  0  0  0  0  0  0  0  0  0  0
   11.9778  -17.2030   24.4450 C   0  0  2  0  0  0  0  0  0  0  0  0
   10.7035  -17.0464   23.7154 N   0  0  0  0  0  0  0  0  0  0  0  0
   12.8725  -17.9829   23.5802 C   0  0  0  0  0  0  0  0  0  0  0  0
   14.2031  -18.2371   23.8934 O   0  0  0  0  0  0  0  0  0  0  0  0
    9.7425  -17.0791   27.0449 C   0  0  0  0  0  0  0  0  0  0  0  0
    9.1710  -16.1913   27.9348 C   0  0  0  0  0  0  0  0  0  0  0  0
   12.4450  -18.4534   22.4991 O   0  0  0  0  0  0  0  0  0  0  0  0
  2  1  1  6
  3  2  1  0
  4  2  1  0
  4  5  2  0
  6  4  1  0
  7  6  1  0
  7  8  1  1
  9  8  1  0
  9 17  1  0
 10  9  2  0
 11 10  1  0
 11 12  1  0
 12 13  1  0
 12 17  2  0
 13 14  2  0
 14 15  1  0
 16 15  2  0
 17 16  1  0
 18  7  1  0
 19 18  2  0
 20 21  1  0
 21 31  2  0
 21 22  1  0
 22 23  2  0
 23 24  1  0
 24 25  1  0
 26 25  1  1
 26 28  1  0
 26 27  1  0
 27 18  1  0
 28 29  1  0
 30 24  2  0
 31 30  1  0
 32 28  2  0
M  END
$$$$
