AWY.pdb
     RDKit          3D

 32 34  0  0  1  0  0  0  0  0999 V2000
    3.3644  -18.6803   21.9251 C   0  0  0  0  0  0  0  0  0  0  0  0
    4.8328  -18.8032   21.8005 C   0  0  2  0  0  0  0  0  0  0  0  0
    5.3049  -20.0091   22.4487 N   0  0  0  0  0  0  0  0  0  0  0  0
    5.6294  -17.6524   22.2797 C   0  0  0  0  0  0  0  0  0  0  0  0
    5.3741  -16.5268   21.8477 O   0  0  0  0  0  0  0  0  0  0  0  0
    6.6831  -17.7526   23.2168 N   0  0  0  0  0  0  0  0  0  0  0  0
    7.5116  -16.7794   23.7692 C   0  0  1  0  0  0  0  0  0  0  0  0
    7.6637  -16.5775   25.1906 C   0  0  0  0  0  0  0  0  0  0  0  0
    6.8956  -15.3970   25.6939 C   0  0  0  0  0  0  0  0  0  0  0  0
    5.5297  -15.3220   25.9313 C   0  0  0  0  0  0  0  0  0  0  0  0
    5.2151  -14.0991   26.3940 N   0  0  0  0  0  0  0  0  0  0  0  0
    6.3321  -13.3622   26.4698 C   0  0  0  0  0  0  0  0  0  0  0  0
    6.5350  -12.0658   26.8728 C   0  0  0  0  0  0  0  0  0  0  0  0
    7.7874  -11.4874   26.8692 C   0  0  0  0  0  0  0  0  0  0  0  0
    8.8233  -12.2980   26.4337 C   0  0  0  0  0  0  0  0  0  0  0  0
    8.6494  -13.5997   26.0244 C   0  0  0  0  0  0  0  0  0  0  0  0
    7.3842  -14.1339   26.0452 C   0  0  0  0  0  0  0  0  0  0  0  0
    8.8529  -16.8167   23.0700 C   0  0  0  0  0  0  0  0  0  0  0  0
    9.2979  -17.9261   22.7165 O   0  0  0  0  0  0  0  0  0  0  0  0
    6.7469  -13.5045   17.6181 O   0  0  0  0  0  0  0  0  0  0  0  0
    7.7927  -13.7516   18.4943 C   0  0  0  0  0  0  0  0  0  0  0  0
    8.0642  -12.9444   19.5724 C   0  0  0  0  0  0  0  0  0  0  0  0
    9.0981  -13.2162   20.4118 C   0  0  0  0  0  0  0  0  0  0  0  0
    9.9442  -14.3176   20.2408 C   0  0  0  0  0  0  0  0  0  0  0  0
   11.0599  -14.5391   21.1788 C   0  0  0  0  0  0  0  0  0  0  0  0
   10.8471  -15.7861   21.9688 C   0  0  2  0  0  0  0  0  0  0  0  0
    9.6282  -15.6710   22.7945 N   0  0  0  0  0  0  0  0  0  0  0  0
   11.9656  -16.0285   22.8891 C   0  0  0  0  0  0  0  0  0  0  0  0
   11.8147  -16.0944   24.2698 O   0  0  0  0  0  0  0  0  0  0  0  0
    9.6639  -15.1214   19.1565 C   0  0  0  0  0  0  0  0  0  0  0  0
    8.6127  -14.8424   18.3059 C   0  0  0  0  0  0  0  0  0  0  0  0
   13.1250  -16.1852   22.4377 O   0  0  0  0  0  0  0  0  0  0  0  0
  2  1  1  1
  3  2  1  0
  4  2  1  0
  4  5  2  0
  6  4  1  0
  7  6  1  0
  7  8  1  1
  9  8  1  0
  9 17  1  0
 10  9  2  0
 11 10  1  0
 11 12  1  0
 12 13  1  0
 12 17  2  0
 13 14  2  0
 14 15  1  0
 16 15  2  0
 17 16  1  0
 18  7  1  0
 19 18  2  0
 20 21  1  0
 21 31  2  0
 21 22  1  0
 22 23  2  0
 23 24  1  0
 24 25  1  0
 26 25  1  1
 26 28  1  0
 26 27  1  0
 27 18  1  0
 28 29  1  0
 30 24  2  0
 31 30  1  0
 32 28  2  0
M  END
$$$$
