GDT.pdb
     RDKit          3D

 20 19  0  0  1  0  0  0  0  0999 V2000
   -5.7442  -30.9691   28.8476 N   0  0  0  0  0  0  0  0  0  0  0  0
   -6.5684  -31.1772   30.0192 C   0  0  0  0  0  0  0  0  0  0  0  0
   -6.7436  -29.8933   30.7815 C   0  0  0  0  0  0  0  0  0  0  0  0
   -6.8614  -29.8575   32.0201 O   0  0  0  0  0  0  0  0  0  0  0  0
   -6.7700  -28.7116   30.0258 N   0  0  0  0  0  0  0  0  0  0  0  0
   -6.8903  -27.3610   30.6572 C   0  0  1  0  0  0  0  0  0  0  0  0
   -6.0099  -26.5035   29.8229 C   0  0  0  0  0  0  0  0  0  0  0  0
   -5.8390  -25.1016   30.1410 C   0  0  0  0  0  0  0  0  0  0  0  0
   -6.3287  -24.4861   31.1007 O   0  0  0  0  0  0  0  0  0  0  0  0
   -8.3318  -26.9884   30.4576 C   0  0  0  0  0  0  0  0  0  0  0  0
   -8.7899  -27.0930   29.2685 O   0  0  0  0  0  0  0  0  0  0  0  0
   -5.0237  -24.3034   29.2782 O   0  0  0  0  0  0  0  0  0  0  0  0
  -11.4888  -28.5134   31.4628 C   0  0  0  0  0  0  0  0  0  0  0  0
  -11.6167  -27.0567   31.7971 C   0  0  1  0  0  0  0  0  0  0  0  0
  -11.5849  -26.9683   33.2028 O   0  0  0  0  0  0  0  0  0  0  0  0
  -10.5817  -26.1904   31.1743 C   0  0  2  0  0  0  0  0  0  0  0  0
   -9.2201  -26.5444   31.4461 N   0  0  0  0  0  0  0  0  0  0  0  0
  -10.8958  -24.7406   31.1729 C   0  0  0  0  0  0  0  0  0  0  0  0
  -12.1389  -24.3680   30.6126 O   0  0  0  0  0  0  0  0  0  0  0  0
  -10.2213  -23.8057   31.5939 O   0  0  0  0  0  0  0  0  0  0  0  0
  2  1  1  0
  2  3  1  0
  3  4  2  0
  5  3  1  0
  5  6  1  0
  6  7  1  6
  7  8  1  0
  8 12  1  0
  9  8  2  0
 10 11  2  0
 10  6  1  0
 14 13  1  1
 14 16  1  0
 15 14  1  0
 16 17  1  1
 17 10  1  0
 18 19  1  0
 18 16  1  0
 20 18  2  0
M  END
$$$$
