GDT.pdb
     RDKit          3D

 20 19  0  0  1  0  0  0  0  0999 V2000
    7.6139  -13.7710   14.4424 N   0  0  0  0  0  0  0  0  0  0  0  0
    8.6965  -13.7469   15.4031 C   0  0  0  0  0  0  0  0  0  0  0  0
    8.5385  -14.8513   16.4107 C   0  0  0  0  0  0  0  0  0  0  0  0
    7.4339  -15.3504   16.6936 O   0  0  0  0  0  0  0  0  0  0  0  0
    9.7101  -15.3073   17.0334 N   0  0  0  0  0  0  0  0  0  0  0  0
    9.7027  -16.4150   18.0384 C   0  0  1  0  0  0  0  0  0  0  0  0
   10.9737  -17.1371   17.7747 C   0  0  0  0  0  0  0  0  0  0  0  0
   11.3545  -18.2705   18.5909 C   0  0  0  0  0  0  0  0  0  0  0  0
   10.6661  -19.2685   18.8548 O   0  0  0  0  0  0  0  0  0  0  0  0
    9.7618  -15.7102   19.3637 C   0  0  0  0  0  0  0  0  0  0  0  0
   10.6609  -14.8105   19.4930 O   0  0  0  0  0  0  0  0  0  0  0  0
   12.6597  -18.2786   19.1761 O   0  0  0  0  0  0  0  0  0  0  0  0
    7.6733  -13.2203   20.9863 C   0  0  0  0  0  0  0  0  0  0  0  0
    7.9019  -14.2956   22.0069 C   0  0  1  0  0  0  0  0  0  0  0  0
    6.6864  -14.9987   22.1211 O   0  0  0  0  0  0  0  0  0  0  0  0
    9.0314  -15.2096   21.6936 C   0  0  2  0  0  0  0  0  0  0  0  0
    8.9263  -15.9394   20.4649 N   0  0  0  0  0  0  0  0  0  0  0  0
    9.5761  -15.9541   22.8553 C   0  0  0  0  0  0  0  0  0  0  0  0
    9.9401  -15.1814   23.9816 O   0  0  0  0  0  0  0  0  0  0  0  0
    9.7589  -17.1613   22.9798 O   0  0  0  0  0  0  0  0  0  0  0  0
  2  1  1  0
  2  3  1  0
  3  4  2  0
  5  3  1  0
  5  6  1  0
  6  7  1  6
  7  8  1  0
  8 12  1  0
  9  8  2  0
 10 11  2  0
 10  6  1  0
 14 13  1  6
 14 16  1  0
 15 14  1  0
 16 17  1  6
 17 10  1  0
 18 19  1  0
 18 16  1  0
 20 18  2  0
M  END
$$$$
