GDT.pdb
     RDKit          3D

 20 19  0  0  1  0  0  0  0  0999 V2000
    9.2441  -17.9128   18.8017 N   0  0  0  0  0  0  0  0  0  0  0  0
    9.1223  -16.8580   19.7856 C   0  0  0  0  0  0  0  0  0  0  0  0
    9.8200  -17.2377   21.0619 C   0  0  0  0  0  0  0  0  0  0  0  0
    9.4537  -18.1938   21.7696 O   0  0  0  0  0  0  0  0  0  0  0  0
   10.9240  -16.4552   21.4322 N   0  0  0  0  0  0  0  0  0  0  0  0
   11.7629  -16.7712   22.6295 C   0  0  1  0  0  0  0  0  0  0  0  0
   12.8561  -15.7676   22.5674 C   0  0  0  0  0  0  0  0  0  0  0  0
   14.0288  -15.9097   23.4043 C   0  0  0  0  0  0  0  0  0  0  0  0
   15.0144  -15.1573   23.4469 O   0  0  0  0  0  0  0  0  0  0  0  0
   10.8584  -16.4941   23.7964 C   0  0  0  0  0  0  0  0  0  0  0  0
   10.5620  -15.2691   24.0115 O   0  0  0  0  0  0  0  0  0  0  0  0
   14.0974  -17.0281   24.2936 O   0  0  0  0  0  0  0  0  0  0  0  0
    7.6581  -15.9676   24.7253 C   0  0  0  0  0  0  0  0  0  0  0  0
    8.1167  -16.9877   25.7249 C   0  0  1  0  0  0  0  0  0  0  0  0
    7.5422  -18.2129   25.3330 O   0  0  0  0  0  0  0  0  0  0  0  0
    9.5931  -17.0972   25.8575 C   0  0  2  0  0  0  0  0  0  0  0  0
   10.3066  -17.4455   24.6645 N   0  0  0  0  0  0  0  0  0  0  0  0
   10.0645  -17.7306   27.1133 C   0  0  0  0  0  0  0  0  0  0  0  0
    9.4779  -17.2626   28.3112 O   0  0  0  0  0  0  0  0  0  0  0  0
   10.9027  -18.6145   27.2630 O   0  0  0  0  0  0  0  0  0  0  0  0
  2  1  1  0
  2  3  1  0
  3  4  2  0
  5  3  1  0
  5  6  1  0
  6  7  1  1
  7  8  1  0
  8 12  1  0
  9  8  2  0
 10 11  2  0
 10  6  1  0
 14 13  1  6
 14 16  1  0
 15 14  1  0
 16 17  1  6
 17 10  1  0
 18 19  1  0
 18 16  1  0
 20 18  2  0
M  END
$$$$
