GDT.pdb
     RDKit          3D

 20 19  0  0  1  0  0  0  0  0999 V2000
    9.4431  -19.8169   18.6615 N   0  0  0  0  0  0  0  0  0  0  0  0
   10.2215  -18.6011   18.7681 C   0  0  0  0  0  0  0  0  0  0  0  0
   11.1249  -18.6511   19.9686 C   0  0  0  0  0  0  0  0  0  0  0  0
   10.9609  -19.4601   20.9003 O   0  0  0  0  0  0  0  0  0  0  0  0
   12.1830  -17.7304   19.9986 N   0  0  0  0  0  0  0  0  0  0  0  0
   13.1438  -17.6529   21.1423 C   0  0  1  0  0  0  0  0  0  0  0  0
   14.3025  -16.9142   20.5783 C   0  0  0  0  0  0  0  0  0  0  0  0
   15.4124  -17.6332   19.9893 C   0  0  0  0  0  0  0  0  0  0  0  0
   15.9695  -18.6477   20.4363 O   0  0  0  0  0  0  0  0  0  0  0  0
   12.4316  -16.8148   22.1654 C   0  0  0  0  0  0  0  0  0  0  0  0
   12.7732  -15.5846   22.2346 O   0  0  0  0  0  0  0  0  0  0  0  0
   15.9558  -17.1527   18.7563 O   0  0  0  0  0  0  0  0  0  0  0  0
    9.3501  -15.0947   22.4356 C   0  0  0  0  0  0  0  0  0  0  0  0
    9.4401  -15.9215   23.6840 C   0  0  1  0  0  0  0  0  0  0  0  0
    8.5529  -17.0018   23.5089 O   0  0  0  0  0  0  0  0  0  0  0  0
   10.8115  -16.3918   24.0117 C   0  0  2  0  0  0  0  0  0  0  0  0
   11.4296  -17.2485   23.0435 N   0  0  0  0  0  0  0  0  0  0  0  0
   11.0293  -16.7454   25.4359 C   0  0  0  0  0  0  0  0  0  0  0  0
   10.6276  -15.7832   26.3902 O   0  0  0  0  0  0  0  0  0  0  0  0
   11.5156  -17.7675   25.9103 O   0  0  0  0  0  0  0  0  0  0  0  0
  2  1  1  0
  2  3  1  0
  3  4  2  0
  5  3  1  0
  5  6  1  0
  6  7  1  6
  7  8  1  0
  8 12  1  0
  9  8  2  0
 10 11  2  0
 10  6  1  0
 14 13  1  6
 14 16  1  0
 15 14  1  0
 16 17  1  6
 17 10  1  0
 18 19  1  0
 18 16  1  0
 20 18  2  0
M  END
$$$$
