GDT.pdb
     RDKit          3D

 20 19  0  0  1  0  0  0  0  0999 V2000
   11.7664  -20.4171   15.5445 N   0  0  0  0  0  0  0  0  0  0  0  0
   12.7311  -19.8196   16.4432 C   0  0  0  0  0  0  0  0  0  0  0  0
   12.0698  -19.3849   17.7213 C   0  0  0  0  0  0  0  0  0  0  0  0
   12.6509  -18.6931   18.5775 O   0  0  0  0  0  0  0  0  0  0  0  0
   10.7434  -19.7984   17.9156 N   0  0  0  0  0  0  0  0  0  0  0  0
    9.9275  -19.3458   19.0847 C   0  0  1  0  0  0  0  0  0  0  0  0
    8.5286  -19.6070   18.6590 C   0  0  0  0  0  0  0  0  0  0  0  0
    7.8648  -18.7105   17.7363 C   0  0  0  0  0  0  0  0  0  0  0  0
    6.7475  -18.8613   17.2183 O   0  0  0  0  0  0  0  0  0  0  0  0
   10.3240  -20.2784   20.1936 C   0  0  0  0  0  0  0  0  0  0  0  0
   10.2715  -21.5293   19.9346 O   0  0  0  0  0  0  0  0  0  0  0  0
    8.5382  -17.5076   17.3544 O   0  0  0  0  0  0  0  0  0  0  0  0
   13.5197  -21.0125   21.6927 C   0  0  0  0  0  0  0  0  0  0  0  0
   12.5778  -20.8592   22.8501 C   0  0  1  0  0  0  0  0  0  0  0  0
   12.9398  -19.6628   23.5000 O   0  0  0  0  0  0  0  0  0  0  0  0
   11.1394  -20.8609   22.4758 C   0  0  2  0  0  0  0  0  0  0  0  0
   10.7494  -19.9104   21.4769 N   0  0  0  0  0  0  0  0  0  0  0  0
   10.1976  -21.0495   23.6063 C   0  0  0  0  0  0  0  0  0  0  0  0
   10.4116  -22.1863   24.4187 O   0  0  0  0  0  0  0  0  0  0  0  0
    9.2461  -20.3505   23.9413 O   0  0  0  0  0  0  0  0  0  0  0  0
  2  1  1  0
  2  3  1  0
  3  4  2  0
  5  3  1  0
  5  6  1  0
  6  7  1  6
  7  8  1  0
  8 12  1  0
  9  8  2  0
 10 11  2  0
 10  6  1  0
 14 13  1  6
 14 16  1  0
 15 14  1  0
 16 17  1  1
 17 10  1  0
 18 19  1  0
 18 16  1  0
 20 18  2  0
M  END
$$$$
