GDT.pdb
     RDKit          3D

 20 19  0  0  1  0  0  0  0  0999 V2000
    3.2606  -21.0038   17.7440 N   0  0  0  0  0  0  0  0  0  0  0  0
    3.9279  -19.8200   18.2428 C   0  0  0  0  0  0  0  0  0  0  0  0
    5.3992  -19.8702   17.9383 C   0  0  0  0  0  0  0  0  0  0  0  0
    5.9514  -20.8747   17.4532 O   0  0  0  0  0  0  0  0  0  0  0  0
    6.1416  -18.7158   18.2285 N   0  0  0  0  0  0  0  0  0  0  0  0
    7.6174  -18.6352   17.9995 C   0  0  1  0  0  0  0  0  0  0  0  0
    7.8347  -17.2203   17.6032 C   0  0  0  0  0  0  0  0  0  0  0  0
    8.1719  -16.8868   16.2354 C   0  0  0  0  0  0  0  0  0  0  0  0
    9.2384  -17.1245   15.6475 O   0  0  0  0  0  0  0  0  0  0  0  0
    8.2150  -18.9017   19.3517 C   0  0  0  0  0  0  0  0  0  0  0  0
    7.6846  -18.2904   20.3416 O   0  0  0  0  0  0  0  0  0  0  0  0
    7.1952  -16.2078   15.4409 O   0  0  0  0  0  0  0  0  0  0  0  0
   11.3006  -21.9364   20.5272 C   0  0  0  0  0  0  0  0  0  0  0  0
   10.1367  -21.3829   21.2948 C   0  0  1  0  0  0  0  0  0  0  0  0
   10.4607  -21.5192   22.6591 O   0  0  0  0  0  0  0  0  0  0  0  0
    9.7900  -19.9777   20.9561 C   0  0  2  0  0  0  0  0  0  0  0  0
    9.2894  -19.7563   19.6318 N   0  0  0  0  0  0  0  0  0  0  0  0
   10.7275  -18.9562   21.4834 C   0  0  0  0  0  0  0  0  0  0  0  0
   10.9748  -18.9895   22.8747 O   0  0  0  0  0  0  0  0  0  0  0  0
   11.3269  -18.0740   20.8762 O   0  0  0  0  0  0  0  0  0  0  0  0
  2  1  1  0
  2  3  1  0
  3  4  2  0
  5  3  1  0
  5  6  1  0
  6  7  1  1
  7  8  1  0
  8 12  1  0
  9  8  2  0
 10 11  2  0
 10  6  1  0
 14 13  1  6
 14 16  1  0
 15 14  1  0
 16 17  1  6
 17 10  1  0
 18 19  1  0
 18 16  1  0
 20 18  2  0
M  END
$$$$
