GDT.pdb
     RDKit          3D

 20 19  0  0  1  0  0  0  0  0999 V2000
    8.1970  -13.3128   16.4872 N   0  0  0  0  0  0  0  0  0  0  0  0
    9.0811  -12.9632   17.5788 C   0  0  0  0  0  0  0  0  0  0  0  0
    9.6415  -14.1987   18.2264 C   0  0  0  0  0  0  0  0  0  0  0  0
    9.0092  -15.2688   18.2927 O   0  0  0  0  0  0  0  0  0  0  0  0
   10.9329  -14.0963   18.7648 N   0  0  0  0  0  0  0  0  0  0  0  0
   11.5720  -15.2122   19.5287 C   0  0  1  0  0  0  0  0  0  0  0  0
   13.0164  -14.8664   19.5133 C   0  0  0  0  0  0  0  0  0  0  0  0
   13.8078  -15.0813   18.3202 C   0  0  0  0  0  0  0  0  0  0  0  0
   13.6648  -15.9816   17.4786 O   0  0  0  0  0  0  0  0  0  0  0  0
   11.0121  -15.0767   20.9160 C   0  0  0  0  0  0  0  0  0  0  0  0
   11.7734  -14.5356   21.7892 O   0  0  0  0  0  0  0  0  0  0  0  0
   14.8828  -14.1782   18.0460 O   0  0  0  0  0  0  0  0  0  0  0  0
    7.6274  -13.5513   22.1565 C   0  0  0  0  0  0  0  0  0  0  0  0
    7.9085  -14.8356   22.8788 C   0  0  1  0  0  0  0  0  0  0  0  0
    6.9475  -15.7622   22.4287 O   0  0  0  0  0  0  0  0  0  0  0  0
    9.2899  -15.3531   22.6965 C   0  0  2  0  0  0  0  0  0  0  0  0
    9.7394  -15.4794   21.3417 N   0  0  0  0  0  0  0  0  0  0  0  0
    9.6770  -16.4462   23.6217 C   0  0  0  0  0  0  0  0  0  0  0  0
    9.3763  -16.2479   24.9885 O   0  0  0  0  0  0  0  0  0  0  0  0
   10.2290  -17.5123   23.3666 O   0  0  0  0  0  0  0  0  0  0  0  0
  2  1  1  0
  2  3  1  0
  3  4  2  0
  5  3  1  0
  5  6  1  0
  6  7  1  1
  7  8  1  0
  8 12  1  0
  9  8  2  0
 10 11  2  0
 10  6  1  0
 14 13  1  6
 14 16  1  0
 15 14  1  0
 16 17  1  6
 17 10  1  0
 18 19  1  0
 18 16  1  0
 20 18  2  0
M  END
$$$$
