GDT.pdb
     RDKit          3D

 20 19  0  0  1  0  0  0  0  0999 V2000
   10.2195  -16.4832   19.5075 N   0  0  0  0  0  0  0  0  0  0  0  0
   10.8597  -16.1388   20.7593 C   0  0  0  0  0  0  0  0  0  0  0  0
    9.9031  -16.2985   21.9079 C   0  0  0  0  0  0  0  0  0  0  0  0
    8.6718  -16.3893   21.7498 O   0  0  0  0  0  0  0  0  0  0  0  0
   10.4645  -16.3421   23.1928 N   0  0  0  0  0  0  0  0  0  0  0  0
    9.6575  -16.6745   24.4075 C   0  0  1  0  0  0  0  0  0  0  0  0
   10.5921  -17.4714   25.2430 C   0  0  0  0  0  0  0  0  0  0  0  0
   10.1604  -18.7188   25.8373 C   0  0  0  0  0  0  0  0  0  0  0  0
    9.0316  -19.2295   25.7703 O   0  0  0  0  0  0  0  0  0  0  0  0
    9.3858  -15.3418   25.0452 C   0  0  0  0  0  0  0  0  0  0  0  0
   10.3651  -14.5212   25.0938 O   0  0  0  0  0  0  0  0  0  0  0  0
   11.1100  -19.4757   26.5935 O   0  0  0  0  0  0  0  0  0  0  0  0
    6.8926  -12.4546   24.1992 C   0  0  0  0  0  0  0  0  0  0  0  0
    6.8027  -12.8460   25.6445 C   0  0  1  0  0  0  0  0  0  0  0  0
    5.6104  -13.5839   25.7819 O   0  0  0  0  0  0  0  0  0  0  0  0
    7.9750  -13.6083   26.1484 C   0  0  2  0  0  0  0  0  0  0  0  0
    8.1662  -14.9116   25.5843 N   0  0  0  0  0  0  0  0  0  0  0  0
    8.2279  -13.4791   27.6044 C   0  0  0  0  0  0  0  0  0  0  0  0
    8.6021  -14.6607   28.2840 O   0  0  0  0  0  0  0  0  0  0  0  0
    8.1573  -12.4795   28.3129 O   0  0  0  0  0  0  0  0  0  0  0  0
  2  1  1  0
  2  3  1  0
  3  4  2  0
  5  3  1  0
  5  6  1  0
  6  7  1  1
  7  8  1  0
  8 12  1  0
  9  8  2  0
 10 11  2  0
 10  6  1  0
 14 13  1  6
 14 16  1  0
 15 14  1  0
 16 17  1  1
 17 10  1  0
 18 19  1  0
 18 16  1  0
 20 18  2  0
M  END
$$$$
