GDT.pdb
     RDKit          3D

 20 19  0  0  1  0  0  0  0  0999 V2000
    8.4516  -17.1676   17.0341 N   0  0  0  0  0  0  0  0  0  0  0  0
    9.5091  -16.5236   17.7841 C   0  0  0  0  0  0  0  0  0  0  0  0
    9.6590  -17.1535   19.1408 C   0  0  0  0  0  0  0  0  0  0  0  0
    8.8070  -17.9220   19.6232 O   0  0  0  0  0  0  0  0  0  0  0  0
   10.8220  -16.8343   19.8576 N   0  0  0  0  0  0  0  0  0  0  0  0
   11.0876  -17.3675   21.2296 C   0  0  1  0  0  0  0  0  0  0  0  0
   12.5701  -17.3785   21.3213 C   0  0  0  0  0  0  0  0  0  0  0  0
   13.2266  -17.9007   22.5012 C   0  0  0  0  0  0  0  0  0  0  0  0
   13.3469  -17.3401   23.6015 O   0  0  0  0  0  0  0  0  0  0  0  0
   10.5104  -16.3274   22.1470 C   0  0  0  0  0  0  0  0  0  0  0  0
   11.0114  -15.1537   22.0675 O   0  0  0  0  0  0  0  0  0  0  0  0
   13.8144  -19.2030   22.4316 O   0  0  0  0  0  0  0  0  0  0  0  0
    7.6628  -14.1580   22.3294 C   0  0  0  0  0  0  0  0  0  0  0  0
    7.7063  -14.8830   23.6419 C   0  0  1  0  0  0  0  0  0  0  0  0
    6.6884  -15.8557   23.5915 O   0  0  0  0  0  0  0  0  0  0  0  0
    9.0238  -15.4910   23.9644 C   0  0  2  0  0  0  0  0  0  0  0  0
    9.4765  -16.5178   23.0733 N   0  0  0  0  0  0  0  0  0  0  0  0
    9.2725  -15.7183   25.4091 C   0  0  0  0  0  0  0  0  0  0  0  0
    8.9763  -14.6406   26.2744 O   0  0  0  0  0  0  0  0  0  0  0  0
    9.7050  -16.7218   25.9678 O   0  0  0  0  0  0  0  0  0  0  0  0
  2  1  1  0
  2  3  1  0
  3  4  2  0
  5  3  1  0
  5  6  1  0
  6  7  1  1
  7  8  1  0
  8 12  1  0
  9  8  2  0
 10 11  2  0
 10  6  1  0
 14 13  1  6
 14 16  1  0
 15 14  1  0
 16 17  1  6
 17 10  1  0
 18 19  1  0
 18 16  1  0
 20 18  2  0
M  END
$$$$
