AMT.pdb
     RDKit          3D

 21 20  0  0  1  0  0  0  0  0999 V2000
   16.7192   -9.0036  -19.3279 C   0  0  0  0  0  0  0  0  0  0  0  0
   18.1598   -9.1772  -18.8999 C   0  0  2  0  0  0  0  0  0  0  0  0
   18.4781  -10.5764  -19.0437 N   0  0  0  0  0  0  0  0  0  0  0  0
   18.3551   -8.7700  -17.4723 C   0  0  0  0  0  0  0  0  0  0  0  0
   17.4703   -8.9923  -16.6380 O   0  0  0  0  0  0  0  0  0  0  0  0
   22.8566   -9.5312  -11.2437 C   0  0  0  0  0  0  0  0  0  0  0  0
   22.3806   -9.8183  -12.9311 S   0  0  0  0  0  0  0  0  0  0  0  0
   21.2554   -8.6559  -13.6605 C   0  0  0  0  0  0  0  0  0  0  0  0
   20.8328   -8.9212  -15.0757 C   0  0  0  0  0  0  0  0  0  0  0  0
   19.9828   -7.9343  -15.7194 C   0  0  2  0  0  0  0  0  0  0  0  0
   19.5303   -8.1352  -17.0518 N   0  0  0  0  0  0  0  0  0  0  0  0
   20.7406   -6.6094  -15.6431 C   0  0  0  0  0  0  0  0  0  0  0  0
   21.7047   -6.4396  -16.4200 O   0  0  0  0  0  0  0  0  0  0  0  0
   19.2364   -2.9691  -15.8924 C   0  0  0  0  0  0  0  0  0  0  0  0
   20.0072   -3.1665  -14.6121 C   0  0  1  0  0  0  0  0  0  0  0  0
   19.0776   -3.4528  -13.6166 O   0  0  0  0  0  0  0  0  0  0  0  0
   21.0021   -4.2884  -14.6936 C   0  0  2  0  0  0  0  0  0  0  0  0
   20.3917   -5.5892  -14.7382 N   0  0  0  0  0  0  0  0  0  0  0  0
   21.8858   -4.2106  -13.4965 C   0  0  0  0  0  0  0  0  0  0  0  0
   21.8933   -5.1459  -12.6470 O   0  0  0  0  0  0  0  0  0  0  0  0
   22.7302   -3.1397  -13.2465 O   0  0  0  0  0  0  0  0  0  0  0  0
  2  1  1  1
  3  2  1  0
  4  2  1  0
  4 11  1  0
  5  4  2  0
  7  6  1  0
  8  7  1  0
 10  9  1  6
  9  8  1  0
 10 11  1  0
 10 12  1  0
 12 18  1  0
 12 13  2  0
 15 17  1  0
 15 14  1  6
 16 15  1  0
 17 19  1  0
 17 18  1  1
 19 21  1  0
 20 19  2  0
M  END
$$$$
