AMT.pdb
     RDKit          3D

 21 20  0  0  1  0  0  0  0  0999 V2000
   19.9514  -21.2197  -14.0925 C   0  0  0  0  0  0  0  0  0  0  0  0
   20.8372  -21.3979  -12.8791 C   0  0  2  0  0  0  0  0  0  0  0  0
   20.1488  -20.8005  -11.7615 N   0  0  0  0  0  0  0  0  0  0  0  0
   22.1582  -20.7186  -13.0665 C   0  0  0  0  0  0  0  0  0  0  0  0
   22.2034  -19.5054  -13.2999 O   0  0  0  0  0  0  0  0  0  0  0  0
   28.0043  -21.1494   -9.5836 C   0  0  0  0  0  0  0  0  0  0  0  0
   26.3161  -20.7856   -9.1667 S   0  0  0  0  0  0  0  0  0  0  0  0
   25.1883  -20.5371  -10.5141 C   0  0  0  0  0  0  0  0  0  0  0  0
   25.5540  -21.1661  -11.8265 C   0  0  0  0  0  0  0  0  0  0  0  0
   24.6826  -20.9100  -12.9604 C   0  0  2  0  0  0  0  0  0  0  0  0
   23.3605  -21.4315  -12.9829 N   0  0  0  0  0  0  0  0  0  0  0  0
   25.4367  -21.4057  -14.1937 C   0  0  0  0  0  0  0  0  0  0  0  0
   25.4733  -22.6373  -14.4031 O   0  0  0  0  0  0  0  0  0  0  0  0
   27.5253  -20.2069  -18.5838 C   0  0  0  0  0  0  0  0  0  0  0  0
   26.8849  -19.7845  -17.2862 C   0  0  1  0  0  0  0  0  0  0  0  0
   25.6483  -19.2301  -17.6033 O   0  0  0  0  0  0  0  0  0  0  0  0
   26.6820  -20.9272  -16.3332 C   0  0  2  0  0  0  0  0  0  0  0  0
   26.0821  -20.5312  -15.0881 N   0  0  0  0  0  0  0  0  0  0  0  0
   28.0118  -21.5391  -16.0552 C   0  0  0  0  0  0  0  0  0  0  0  0
   28.7578  -21.0621  -15.1537 O   0  0  0  0  0  0  0  0  0  0  0  0
   28.5001  -22.6370  -16.7469 O   0  0  0  0  0  0  0  0  0  0  0  0
  2  1  1  6
  3  2  1  0
  4  2  1  0
  4 11  1  0
  5  4  2  0
  7  6  1  0
  8  7  1  0
 10  9  1  1
  9  8  1  0
 10 11  1  0
 10 12  1  0
 12 18  1  0
 12 13  2  0
 15 17  1  0
 15 14  1  6
 16 15  1  0
 17 19  1  0
 17 18  1  1
 19 21  1  0
 20 19  2  0
M  END
$$$$
