AMT.pdb
     RDKit          3D

 21 20  0  0  1  0  0  0  0  0999 V2000
   19.0265  -12.4374  -16.9188 C   0  0  0  0  0  0  0  0  0  0  0  0
   19.2260  -10.9724  -17.2392 C   0  0  2  0  0  0  0  0  0  0  0  0
   19.9020  -10.9059  -18.5114 N   0  0  0  0  0  0  0  0  0  0  0  0
   20.0645  -10.2980  -16.1981 C   0  0  0  0  0  0  0  0  0  0  0  0
   19.7011  -10.2948  -15.0164 O   0  0  0  0  0  0  0  0  0  0  0  0
   26.7184  -10.6079  -14.7555 C   0  0  0  0  0  0  0  0  0  0  0  0
   25.5886  -11.5002  -15.7964 S   0  0  0  0  0  0  0  0  0  0  0  0
   23.8863  -11.0008  -15.7532 C   0  0  0  0  0  0  0  0  0  0  0  0
   23.6157   -9.5254  -15.7073 C   0  0  0  0  0  0  0  0  0  0  0  0
   22.2283   -9.0982  -15.6510 C   0  0  2  0  0  0  0  0  0  0  0  0
   21.2664   -9.6621  -16.5326 N   0  0  0  0  0  0  0  0  0  0  0  0
   22.2452   -7.5810  -15.8337 C   0  0  0  0  0  0  0  0  0  0  0  0
   22.6161   -7.1273  -16.9376 O   0  0  0  0  0  0  0  0  0  0  0  0
   19.6445   -5.3241  -16.3225 C   0  0  0  0  0  0  0  0  0  0  0  0
   20.3359   -4.7877  -15.0950 C   0  0  1  0  0  0  0  0  0  0  0  0
   19.6045   -5.2212  -13.9931 O   0  0  0  0  0  0  0  0  0  0  0  0
   21.7533   -5.2661  -14.9641 C   0  0  2  0  0  0  0  0  0  0  0  0
   21.8618   -6.6916  -14.8123 N   0  0  0  0  0  0  0  0  0  0  0  0
   22.3556   -4.6064  -13.7716 C   0  0  0  0  0  0  0  0  0  0  0  0
   22.6152   -5.2786  -12.7335 O   0  0  0  0  0  0  0  0  0  0  0  0
   22.6602   -3.2546  -13.7266 O   0  0  0  0  0  0  0  0  0  0  0  0
  2  1  1  1
  3  2  1  0
  4  2  1  0
  4 11  1  0
  5  4  2  0
  7  6  1  0
  8  7  1  0
 10  9  1  6
  9  8  1  0
 10 11  1  0
 10 12  1  0
 12 18  1  0
 12 13  2  0
 15 17  1  0
 15 14  1  6
 16 15  1  0
 17 19  1  0
 17 18  1  1
 19 21  1  0
 20 19  2  0
M  END
$$$$
