AMT.pdb
     RDKit          3D

 21 20  0  0  1  0  0  0  0  0999 V2000
   20.1114  -12.8048  -16.9535 C   0  0  0  0  0  0  0  0  0  0  0  0
   20.3534  -11.3785  -17.3960 C   0  0  2  0  0  0  0  0  0  0  0  0
   21.0940  -11.4391  -18.6320 N   0  0  0  0  0  0  0  0  0  0  0  0
   21.1504  -10.6220  -16.3789 C   0  0  0  0  0  0  0  0  0  0  0  0
   20.7256  -10.5008  -15.2242 O   0  0  0  0  0  0  0  0  0  0  0  0
   27.6977  -12.4455  -14.8443 C   0  0  0  0  0  0  0  0  0  0  0  0
   26.9522  -11.1529  -15.8086 S   0  0  0  0  0  0  0  0  0  0  0  0
   25.2114  -10.8861  -15.5908 C   0  0  0  0  0  0  0  0  0  0  0  0
   24.6906   -9.5183  -15.9224 C   0  0  0  0  0  0  0  0  0  0  0  0
   23.2543   -9.3113  -15.8534 C   0  0  2  0  0  0  0  0  0  0  0  0
   22.3814  -10.0404  -16.7061 N   0  0  0  0  0  0  0  0  0  0  0  0
   23.0317   -7.8151  -16.0714 C   0  0  0  0  0  0  0  0  0  0  0  0
   23.4950   -7.2985  -17.1108 O   0  0  0  0  0  0  0  0  0  0  0  0
   19.9196   -6.1898  -16.8328 C   0  0  0  0  0  0  0  0  0  0  0  0
   20.4239   -5.5247  -15.5775 C   0  0  1  0  0  0  0  0  0  0  0  0
   19.7771   -6.1331  -14.5058 O   0  0  0  0  0  0  0  0  0  0  0  0
   21.9086   -5.6606  -15.3977 C   0  0  2  0  0  0  0  0  0  0  0  0
   22.3313   -7.0125  -15.1513 N   0  0  0  0  0  0  0  0  0  0  0  0
   22.3143   -4.8100  -14.2436 C   0  0  0  0  0  0  0  0  0  0  0  0
   22.7430   -5.3401  -13.1797 O   0  0  0  0  0  0  0  0  0  0  0  0
   22.2493   -3.4252  -14.2633 O   0  0  0  0  0  0  0  0  0  0  0  0
  2  1  1  1
  3  2  1  0
  4  2  1  0
  4 11  1  0
  5  4  2  0
  7  6  1  0
  8  7  1  0
 10  9  1  6
  9  8  1  0
 10 11  1  0
 10 12  1  0
 12 18  1  0
 12 13  2  0
 15 17  1  0
 15 14  1  6
 16 15  1  0
 17 19  1  0
 17 18  1  1
 19 21  1  0
 20 19  2  0
M  END
$$$$
