AMT.pdb
     RDKit          3D

 21 20  0  0  1  0  0  0  0  0999 V2000
   14.0585  -10.9246  -15.3383 C   0  0  0  0  0  0  0  0  0  0  0  0
   15.5274  -11.2232  -15.5429 C   0  0  2  0  0  0  0  0  0  0  0  0
   15.6649  -12.6580  -15.5884 N   0  0  0  0  0  0  0  0  0  0  0  0
   16.3535  -10.6829  -14.4171 C   0  0  0  0  0  0  0  0  0  0  0  0
   16.2424  -11.1607  -13.2823 O   0  0  0  0  0  0  0  0  0  0  0  0
   22.9482   -9.2398  -13.7647 C   0  0  0  0  0  0  0  0  0  0  0  0
   21.8055   -8.8705  -12.4555 S   0  0  0  0  0  0  0  0  0  0  0  0
   20.3045   -8.0380  -12.9061 C   0  0  0  0  0  0  0  0  0  0  0  0
   19.4729   -8.6775  -13.9792 C   0  0  0  0  0  0  0  0  0  0  0  0
   18.0962   -9.0090  -13.6544 C   0  0  2  0  0  0  0  0  0  0  0  0
   17.2614   -9.6360  -14.6189 N   0  0  0  0  0  0  0  0  0  0  0  0
   17.4428   -7.7042  -13.2003 C   0  0  0  0  0  0  0  0  0  0  0  0
   16.8922   -6.9914  -14.0667 O   0  0  0  0  0  0  0  0  0  0  0  0
   16.1585   -4.7293   -9.3619 C   0  0  0  0  0  0  0  0  0  0  0  0
   16.8937   -5.9410   -9.8756 C   0  0  1  0  0  0  0  0  0  0  0  0
   16.3424   -7.0511   -9.2424 O   0  0  0  0  0  0  0  0  0  0  0  0
   16.7741   -6.1128  -11.3626 C   0  0  2  0  0  0  0  0  0  0  0  0
   17.4420   -7.2863  -11.8562 N   0  0  0  0  0  0  0  0  0  0  0  0
   17.3643   -4.9107  -12.0158 C   0  0  0  0  0  0  0  0  0  0  0  0
   18.6136   -4.8249  -12.1847 O   0  0  0  0  0  0  0  0  0  0  0  0
   16.6034   -3.8427  -12.4660 O   0  0  0  0  0  0  0  0  0  0  0  0
  2  1  1  1
  3  2  1  0
  4  2  1  0
  4 11  1  0
  5  4  2  0
  7  6  1  0
  8  7  1  0
 10  9  1  6
  9  8  1  0
 10 11  1  0
 10 12  1  0
 12 18  1  0
 12 13  2  0
 15 17  1  0
 15 14  1  1
 16 15  1  0
 17 19  1  0
 17 18  1  6
 19 21  1  0
 20 19  2  0
M  END
$$$$
