AMT.pdb
     RDKit          3D

 21 20  0  0  1  0  0  0  0  0999 V2000
   18.6592  -13.1329  -19.9191 C   0  0  0  0  0  0  0  0  0  0  0  0
   20.0356  -13.7092  -19.6703 C   0  0  2  0  0  0  0  0  0  0  0  0
   19.8680  -15.1245  -19.4498 N   0  0  0  0  0  0  0  0  0  0  0  0
   20.6724  -13.0930  -18.4634 C   0  0  0  0  0  0  0  0  0  0  0  0
   20.1706  -13.2579  -17.3457 O   0  0  0  0  0  0  0  0  0  0  0  0
   27.3462  -10.4130  -14.9985 C   0  0  0  0  0  0  0  0  0  0  0  0
   26.5011  -11.2088  -16.3434 S   0  0  0  0  0  0  0  0  0  0  0  0
   24.7277  -11.1447  -16.3321 C   0  0  0  0  0  0  0  0  0  0  0  0
   24.0209  -11.7816  -17.4927 C   0  0  0  0  0  0  0  0  0  0  0  0
   22.5705  -11.7039  -17.5208 C   0  0  2  0  0  0  0  0  0  0  0  0
   21.8379  -12.3240  -18.5693 N   0  0  0  0  0  0  0  0  0  0  0  0
   22.2258  -10.2155  -17.4824 C   0  0  0  0  0  0  0  0  0  0  0  0
   22.4918   -9.5257  -18.4900 O   0  0  0  0  0  0  0  0  0  0  0  0
   18.7221   -8.7202  -15.9859 C   0  0  0  0  0  0  0  0  0  0  0  0
   19.9606   -8.0548  -15.4420 C   0  0  1  0  0  0  0  0  0  0  0  0
   20.2125   -8.6195  -14.1950 O   0  0  0  0  0  0  0  0  0  0  0  0
   21.1632   -8.2461  -16.3208 C   0  0  2  0  0  0  0  0  0  0  0  0
   21.6270   -9.6062  -16.3637 N   0  0  0  0  0  0  0  0  0  0  0  0
   22.2579   -7.3789  -15.8017 C   0  0  0  0  0  0  0  0  0  0  0  0
   22.1636   -6.1209  -15.8728 O   0  0  0  0  0  0  0  0  0  0  0  0
   23.4142   -7.8819  -15.2252 O   0  0  0  0  0  0  0  0  0  0  0  0
  2  1  1  1
  3  2  1  0
  4  2  1  0
  4 11  1  0
  5  4  2  0
  7  6  1  0
  8  7  1  0
 10  9  1  6
  9  8  1  0
 10 11  1  0
 10 12  1  0
 12 18  1  0
 12 13  2  0
 15 17  1  0
 15 14  1  6
 16 15  1  0
 17 19  1  0
 17 18  1  1
 19 21  1  0
 20 19  2  0
M  END
$$$$
