AMT.pdb
     RDKit          3D

 21 20  0  0  1  0  0  0  0  0999 V2000
   20.5695  -15.9505  -18.0351 C   0  0  0  0  0  0  0  0  0  0  0  0
   20.6466  -14.4816  -18.3889 C   0  0  2  0  0  0  0  0  0  0  0  0
   21.5477  -14.3630  -19.5086 N   0  0  0  0  0  0  0  0  0  0  0  0
   21.1727  -13.6738  -17.2432 C   0  0  0  0  0  0  0  0  0  0  0  0
   20.6267  -13.7400  -16.1361 O   0  0  0  0  0  0  0  0  0  0  0  0
   27.5457  -12.3381  -14.5705 C   0  0  0  0  0  0  0  0  0  0  0  0
   26.8551  -12.9861  -16.0736 S   0  0  0  0  0  0  0  0  0  0  0  0
   25.0886  -13.1371  -16.1501 C   0  0  0  0  0  0  0  0  0  0  0  0
   24.3078  -11.8654  -16.3089 C   0  0  0  0  0  0  0  0  0  0  0  0
   22.8636  -11.9737  -16.4242 C   0  0  2  0  0  0  0  0  0  0  0  0
   22.2827  -12.8338  -17.3953 N   0  0  0  0  0  0  0  0  0  0  0  0
   22.3492  -10.5515  -16.6442 C   0  0  0  0  0  0  0  0  0  0  0  0
   22.7007   -9.9550  -17.6846 O   0  0  0  0  0  0  0  0  0  0  0  0
   18.5485   -9.2942  -16.2217 C   0  0  0  0  0  0  0  0  0  0  0  0
   19.5263   -8.4787  -15.4148 C   0  0  1  0  0  0  0  0  0  0  0  0
   19.4655   -8.9474  -14.1057 O   0  0  0  0  0  0  0  0  0  0  0  0
   20.9381   -8.5940  -15.9136 C   0  0  2  0  0  0  0  0  0  0  0  0
   21.5041   -9.9019  -15.7248 N   0  0  0  0  0  0  0  0  0  0  0  0
   21.7699   -7.5978  -15.1816 C   0  0  0  0  0  0  0  0  0  0  0  0
   21.5546   -6.3606  -15.3218 O   0  0  0  0  0  0  0  0  0  0  0  0
   22.8013   -7.9542  -14.3264 O   0  0  0  0  0  0  0  0  0  0  0  0
  2  1  1  1
  3  2  1  0
  4  2  1  0
  4 11  1  0
  5  4  2  0
  7  6  1  0
  8  7  1  0
 10  9  1  6
  9  8  1  0
 10 11  1  0
 10 12  1  0
 12 18  1  0
 12 13  2  0
 15 17  1  0
 15 14  1  6
 16 15  1  0
 17 19  1  0
 17 18  1  1
 19 21  1  0
 20 19  2  0
M  END
$$$$
