AMT.pdb
     RDKit          3D

 21 20  0  0  1  0  0  0  0  0999 V2000
   20.8446  -20.1956  -14.6161 C   0  0  0  0  0  0  0  0  0  0  0  0
   21.2471  -18.7527  -14.8273 C   0  0  2  0  0  0  0  0  0  0  0  0
   20.2583  -18.1603  -15.6940 N   0  0  0  0  0  0  0  0  0  0  0  0
   22.5940  -18.6535  -15.4737 C   0  0  0  0  0  0  0  0  0  0  0  0
   22.6851  -18.5326  -16.7006 O   0  0  0  0  0  0  0  0  0  0  0  0
   29.0103  -16.3027  -17.2272 C   0  0  0  0  0  0  0  0  0  0  0  0
   27.4404  -16.5432  -16.4311 S   0  0  0  0  0  0  0  0  0  0  0  0
   27.4228  -17.5507  -14.9704 C   0  0  0  0  0  0  0  0  0  0  0  0
   26.0816  -17.8301  -14.3581 C   0  0  0  0  0  0  0  0  0  0  0  0
   25.1070  -18.5389  -15.1696 C   0  0  2  0  0  0  0  0  0  0  0  0
   23.7696  -18.6946  -14.7140 N   0  0  0  0  0  0  0  0  0  0  0  0
   25.7062  -19.9181  -15.4418 C   0  0  0  0  0  0  0  0  0  0  0  0
   25.7340  -20.7415  -14.5020 O   0  0  0  0  0  0  0  0  0  0  0  0
   27.4510  -23.1636  -18.8435 C   0  0  0  0  0  0  0  0  0  0  0  0
   27.0143  -21.7640  -18.4928 C   0  0  1  0  0  0  0  0  0  0  0  0
   25.8522  -21.5068  -19.2143 O   0  0  0  0  0  0  0  0  0  0  0  0
   26.7336  -21.5869  -17.0282 C   0  0  2  0  0  0  0  0  0  0  0  0
   26.2206  -20.2847  -16.6997 N   0  0  0  0  0  0  0  0  0  0  0  0
   28.0054  -21.8067  -16.2838 C   0  0  0  0  0  0  0  0  0  0  0  0
   28.9009  -20.9152  -16.2733 O   0  0  0  0  0  0  0  0  0  0  0  0
   28.2787  -22.9678  -15.5770 O   0  0  0  0  0  0  0  0  0  0  0  0
  2  1  1  6
  3  2  1  0
  4  2  1  0
  4 11  1  0
  5  4  2  0
  7  6  1  0
  8  7  1  0
 10  9  1  1
  9  8  1  0
 10 11  1  0
 10 12  1  0
 12 18  1  0
 12 13  2  0
 15 17  1  0
 15 14  1  1
 16 15  1  0
 17 19  1  0
 17 18  1  6
 19 21  1  0
 20 19  2  0
M  END
$$$$
