AMT.pdb
     RDKit          3D

 21 20  0  0  1  0  0  0  0  0999 V2000
   15.9064  -12.0601  -15.3700 C   0  0  0  0  0  0  0  0  0  0  0  0
   16.7613  -11.2498  -14.4206 C   0  0  2  0  0  0  0  0  0  0  0  0
   17.3101  -12.1701  -13.4555 N   0  0  0  0  0  0  0  0  0  0  0  0
   15.9490  -10.2130  -13.7086 C   0  0  0  0  0  0  0  0  0  0  0  0
   15.3349   -9.3560  -14.3543 O   0  0  0  0  0  0  0  0  0  0  0  0
   11.8464  -10.2636   -8.0640 C   0  0  0  0  0  0  0  0  0  0  0  0
   12.1848  -11.3593   -9.4209 S   0  0  0  0  0  0  0  0  0  0  0  0
   13.1361  -10.7046  -10.7683 C   0  0  0  0  0  0  0  0  0  0  0  0
   14.2933   -9.8185  -10.4109 C   0  0  0  0  0  0  0  0  0  0  0  0
   15.1059   -9.3028  -11.4992 C   0  0  2  0  0  0  0  0  0  0  0  0
   15.8656  -10.1884  -12.3110 N   0  0  0  0  0  0  0  0  0  0  0  0
   16.0426   -8.2693  -10.8747 C   0  0  0  0  0  0  0  0  0  0  0  0
   17.1395   -8.6668  -10.4267 O   0  0  0  0  0  0  0  0  0  0  0  0
   17.6078   -3.6204  -10.6023 C   0  0  0  0  0  0  0  0  0  0  0  0
   16.6454   -4.6560  -11.1256 C   0  0  1  0  0  0  0  0  0  0  0  0
   17.0853   -5.0164  -12.3959 O   0  0  0  0  0  0  0  0  0  0  0  0
   16.5773   -5.8827  -10.2621 C   0  0  2  0  0  0  0  0  0  0  0  0
   15.7131   -6.9035  -10.7894 N   0  0  0  0  0  0  0  0  0  0  0  0
   16.0791   -5.4751   -8.9183 C   0  0  0  0  0  0  0  0  0  0  0  0
   14.8413   -5.4915   -8.6648 O   0  0  0  0  0  0  0  0  0  0  0  0
   16.9163   -5.0646   -7.8923 O   0  0  0  0  0  0  0  0  0  0  0  0
  2  1  1  6
  3  2  1  0
  4  2  1  0
  4 11  1  0
  5  4  2  0
  7  6  1  0
  8  7  1  0
 10  9  1  1
  9  8  1  0
 10 11  1  0
 10 12  1  0
 12 18  1  0
 12 13  2  0
 15 17  1  0
 15 14  1  1
 16 15  1  0
 17 19  1  0
 17 18  1  6
 19 21  1  0
 20 19  2  0
M  END
$$$$
