AMT.pdb
     RDKit          3D

 21 20  0  0  1  0  0  0  0  0999 V2000
   17.9645  -11.3624  -18.8350 C   0  0  0  0  0  0  0  0  0  0  0  0
   18.6343  -10.0093  -18.9308 C   0  0  2  0  0  0  0  0  0  0  0  0
   19.4384  -10.0192  -20.1279 N   0  0  0  0  0  0  0  0  0  0  0  0
   19.5139   -9.7535  -17.7465 C   0  0  0  0  0  0  0  0  0  0  0  0
   19.0284   -9.7191  -16.6101 O   0  0  0  0  0  0  0  0  0  0  0  0
   26.8449  -10.3217  -14.6234 C   0  0  0  0  0  0  0  0  0  0  0  0
   25.6656  -10.6509  -15.9106 S   0  0  0  0  0  0  0  0  0  0  0  0
   24.1446   -9.7378  -15.8637 C   0  0  0  0  0  0  0  0  0  0  0  0
   23.1453  -10.0334  -16.9434 C   0  0  0  0  0  0  0  0  0  0  0  0
   21.8591   -9.3617  -16.8707 C   0  0  2  0  0  0  0  0  0  0  0  0
   20.8913   -9.5496  -17.8946 N   0  0  0  0  0  0  0  0  0  0  0  0
   22.1675   -7.8704  -16.7418 C   0  0  0  0  0  0  0  0  0  0  0  0
   22.8436   -7.3312  -17.6440 O   0  0  0  0  0  0  0  0  0  0  0  0
   20.0668   -5.0763  -17.1759 C   0  0  0  0  0  0  0  0  0  0  0  0
   20.6009   -4.9136  -15.7756 C   0  0  1  0  0  0  0  0  0  0  0  0
   19.6222   -5.3897  -14.9081 O   0  0  0  0  0  0  0  0  0  0  0  0
   21.8761   -5.6718  -15.5426 C   0  0  2  0  0  0  0  0  0  0  0  0
   21.7204   -7.0966  -15.6543 N   0  0  0  0  0  0  0  0  0  0  0  0
   22.3644   -5.3454  -14.1734 C   0  0  0  0  0  0  0  0  0  0  0  0
   22.3636   -6.2273  -13.2685 O   0  0  0  0  0  0  0  0  0  0  0  0
   22.8363   -4.0916  -13.8161 O   0  0  0  0  0  0  0  0  0  0  0  0
  2  1  1  1
  3  2  1  0
  4  2  1  0
  4 11  1  0
  5  4  2  0
  7  6  1  0
  8  7  1  0
 10  9  1  6
  9  8  1  0
 10 11  1  0
 10 12  1  0
 12 18  1  0
 12 13  2  0
 15 17  1  0
 15 14  1  6
 16 15  1  0
 17 19  1  0
 17 18  1  1
 19 21  1  0
 20 19  2  0
M  END
$$$$
