AMT.pdb
     RDKit          3D

 21 20  0  0  1  0  0  0  0  0999 V2000
   20.6894  -13.1696  -19.5915 C   0  0  0  0  0  0  0  0  0  0  0  0
   22.1451  -13.1252  -19.1820 C   0  0  2  0  0  0  0  0  0  0  0  0
   22.5762  -14.4898  -19.0043 N   0  0  0  0  0  0  0  0  0  0  0  0
   22.3251  -12.3787  -17.8966 C   0  0  0  0  0  0  0  0  0  0  0  0
   21.6497  -12.6792  -16.9057 O   0  0  0  0  0  0  0  0  0  0  0  0
   28.2456  -13.1368  -15.1061 C   0  0  0  0  0  0  0  0  0  0  0  0
   27.3793  -11.6233  -15.4455 S   0  0  0  0  0  0  0  0  0  0  0  0
   25.6729  -11.7583  -15.9134 C   0  0  0  0  0  0  0  0  0  0  0  0
   24.9363  -10.4745  -16.1610 C   0  0  0  0  0  0  0  0  0  0  0  0
   23.5650  -10.5666  -16.6318 C   0  0  2  0  0  0  0  0  0  0  0  0
   23.2516  -11.3345  -17.7861 N   0  0  0  0  0  0  0  0  0  0  0  0
   23.0934   -9.1286  -16.8446 C   0  0  0  0  0  0  0  0  0  0  0  0
   23.6685   -8.4461  -17.7193 O   0  0  0  0  0  0  0  0  0  0  0  0
   19.9261   -8.0851  -18.1916 C   0  0  0  0  0  0  0  0  0  0  0  0
   20.0353   -7.3757  -16.8659 C   0  0  1  0  0  0  0  0  0  0  0  0
   19.2782   -8.1020  -15.9513 O   0  0  0  0  0  0  0  0  0  0  0  0
   21.4485   -7.2783  -16.3676 C   0  0  2  0  0  0  0  0  0  0  0  0
   22.0467   -8.5572  -16.0968 N   0  0  0  0  0  0  0  0  0  0  0  0
   21.4422   -6.4731  -15.1140 C   0  0  0  0  0  0  0  0  0  0  0  0
   21.2155   -5.2306  -15.1547 O   0  0  0  0  0  0  0  0  0  0  0  0
   21.6775   -7.0192  -13.8615 O   0  0  0  0  0  0  0  0  0  0  0  0
  2  1  1  1
  3  2  1  0
  4  2  1  0
  4 11  1  0
  5  4  2  0
  7  6  1  0
  8  7  1  0
 10  9  1  6
  9  8  1  0
 10 11  1  0
 10 12  1  0
 12 18  1  0
 12 13  2  0
 15 17  1  0
 15 14  1  6
 16 15  1  0
 17 19  1  0
 17 18  1  1
 19 21  1  0
 20 19  2  0
M  END
$$$$
