WPR.pdb
     RDKit          3D

 33 35  0  0  1  0  0  0  0  0999 V2000
   24.0539  -20.4673  -11.6223 N   0  0  0  0  0  0  0  0  0  0  0  0
   25.4320  -20.2965  -11.9603 C   0  0  1  0  0  0  0  0  0  0  0  0
   26.2338  -21.2450  -11.0969 C   0  0  0  0  0  0  0  0  0  0  0  0
   26.1523  -20.9569   -9.6603 C   0  0  0  0  0  0  0  0  0  0  0  0
   24.9883  -20.6998   -8.9679 C   0  0  0  0  0  0  0  0  0  0  0  0
   25.2755  -20.4763   -7.6642 N   0  0  0  0  0  0  0  0  0  0  0  0
   26.6222  -20.5821   -7.4798 C   0  0  0  0  0  0  0  0  0  0  0  0
   27.3961  -20.4438   -6.3508 C   0  0  0  0  0  0  0  0  0  0  0  0
   28.7572  -20.6056   -6.4461 C   0  0  0  0  0  0  0  0  0  0  0  0
   29.2942  -20.9037   -7.6875 C   0  0  0  0  0  0  0  0  0  0  0  0
   28.5156  -21.0415   -8.8170 C   0  0  0  0  0  0  0  0  0  0  0  0
   27.1598  -20.8815   -8.7282 C   0  0  0  0  0  0  0  0  0  0  0  0
   25.7320  -20.4689  -13.4006 C   0  0  0  0  0  0  0  0  0  0  0  0
   24.9773  -21.2953  -14.0171 O   0  0  0  0  0  0  0  0  0  0  0  0
   26.7621  -19.7983  -14.0970 N   0  0  0  0  0  0  0  0  0  0  0  0
   27.7254  -18.9085  -13.4869 C   0  0  0  0  0  0  0  0  0  0  0  0
   28.4628  -18.2483  -14.6387 C   0  0  0  0  0  0  0  0  0  0  0  0
   27.6535  -18.5499  -15.8694 C   0  0  0  0  0  0  0  0  0  0  0  0
   27.0153  -19.8934  -15.4907 C   0  0  1  0  0  0  0  0  0  0  0  0
   28.0242  -20.9287  -15.8444 C   0  0  0  0  0  0  0  0  0  0  0  0
   29.0462  -20.9719  -15.1219 O   0  0  0  0  0  0  0  0  0  0  0  0
   28.4924  -28.1245  -15.3876 N   0  0  0  0  0  0  0  0  0  0  0  0
   27.2449  -27.4890  -15.7192 C   0  0  0  0  0  0  0  0  0  0  0  0
   26.2639  -27.5616  -14.8944 N   0  0  0  0  0  0  0  0  0  0  0  0
   27.0700  -26.7887  -16.9273 N   0  0  0  0  0  0  0  0  0  0  0  0
   28.1659  -26.6712  -17.9368 C   0  0  0  0  0  0  0  0  0  0  0  0
   28.8770  -25.3982  -17.7706 C   0  0  0  0  0  0  0  0  0  0  0  0
   28.2476  -24.1393  -17.4599 C   0  0  0  0  0  0  0  0  0  0  0  0
   28.8878  -22.8393  -17.3012 C   0  0  2  0  0  0  0  0  0  0  0  0
   27.8603  -21.8190  -16.9248 N   0  0  0  0  0  0  0  0  0  0  0  0
   29.6011  -22.3297  -18.4863 C   0  0  0  0  0  0  0  0  0  0  0  0
   30.8892  -22.8885  -18.7395 O   0  0  0  0  0  0  0  0  0  0  0  0
   29.2320  -21.4854  -19.2901 O   0  0  0  0  0  0  0  0  0  0  0  0
  2  3  1  0
  2  1  1  6
  4  3  1  0
  5  4  2  0
  6  5  1  0
  7  6  1  0
  7 12  2  0
  8  7  1  0
  9  8  2  0
  9 10  1  0
 10 11  2  0
 11 12  1  0
 12  4  1  0
 13  2  1  0
 14 13  2  0
 15 13  1  0
 15 16  1  0
 17 16  1  0
 18 17  1  0
 19 18  1  0
 19 15  1  0
 20 21  2  0
 19 20  1  1
 23 22  1  0
 23 25  1  0
 24 23  2  0
 25 26  1  0
 26 27  1  0
 28 27  1  0
 29 28  1  6
 29 30  1  0
 30 20  1  0
 31 32  1  0
 31 29  1  0
 33 31  2  0
M  END
$$$$
