WPR.pdb
     RDKit          3D

 33 35  0  0  1  0  0  0  0  0999 V2000
   27.2102  -21.5835  -17.0602 N   0  0  0  0  0  0  0  0  0  0  0  0
   27.2975  -20.6324  -15.9971 C   0  0  1  0  0  0  0  0  0  0  0  0
   26.1982  -19.6144  -16.2050 C   0  0  0  0  0  0  0  0  0  0  0  0
   26.1481  -19.0601  -17.5628 C   0  0  0  0  0  0  0  0  0  0  0  0
   25.0800  -19.1738  -18.4268 C   0  0  0  0  0  0  0  0  0  0  0  0
   25.3697  -18.5485  -19.5917 N   0  0  0  0  0  0  0  0  0  0  0  0
   26.6231  -18.0177  -19.5131 C   0  0  0  0  0  0  0  0  0  0  0  0
   27.3615  -17.2983  -20.4240 C   0  0  0  0  0  0  0  0  0  0  0  0
   28.6232  -16.8759  -20.0813 C   0  0  0  0  0  0  0  0  0  0  0  0
   29.0996  -17.1969  -18.8210 C   0  0  0  0  0  0  0  0  0  0  0  0
   28.3568  -17.9182  -17.9105 C   0  0  0  0  0  0  0  0  0  0  0  0
   27.0999  -18.3414  -18.2461 C   0  0  0  0  0  0  0  0  0  0  0  0
   27.2533  -21.2280  -14.6415 C   0  0  0  0  0  0  0  0  0  0  0  0
   26.4600  -22.2212  -14.5106 O   0  0  0  0  0  0  0  0  0  0  0  0
   28.0075  -20.7762  -13.5357 N   0  0  0  0  0  0  0  0  0  0  0  0
   29.1483  -19.8914  -13.6226 C   0  0  0  0  0  0  0  0  0  0  0  0
   29.7693  -19.8833  -12.2367 C   0  0  0  0  0  0  0  0  0  0  0  0
   29.1403  -21.0330  -11.4997 C   0  0  0  0  0  0  0  0  0  0  0  0
   27.7656  -21.1118  -12.1776 C   0  0  1  0  0  0  0  0  0  0  0  0
   26.9105  -20.1257  -11.4626 C   0  0  0  0  0  0  0  0  0  0  0  0
   27.0448  -18.9288  -11.8055 O   0  0  0  0  0  0  0  0  0  0  0  0
   22.1907  -24.1046  -15.7622 N   0  0  0  0  0  0  0  0  0  0  0  0
   22.6792  -24.5360  -14.4795 C   0  0  0  0  0  0  0  0  0  0  0  0
   23.0431  -25.7572  -14.3239 N   0  0  0  0  0  0  0  0  0  0  0  0
   22.7681  -23.6531  -13.3872 N   0  0  0  0  0  0  0  0  0  0  0  0
   22.4859  -22.1922  -13.5286 C   0  0  0  0  0  0  0  0  0  0  0  0
   22.8011  -21.4895  -12.2793 C   0  0  0  0  0  0  0  0  0  0  0  0
   24.1320  -21.1621  -11.8333 C   0  0  0  0  0  0  0  0  0  0  0  0
   24.5129  -20.4216  -10.6368 C   0  0  2  0  0  0  0  0  0  0  0  0
   25.9962  -20.4945  -10.4552 N   0  0  0  0  0  0  0  0  0  0  0  0
   23.8923  -20.8768   -9.3795 C   0  0  0  0  0  0  0  0  0  0  0  0
   22.7127  -20.1871   -8.9691 O   0  0  0  0  0  0  0  0  0  0  0  0
   24.2559  -21.7762   -8.6352 O   0  0  0  0  0  0  0  0  0  0  0  0
  2  3  1  0
  2  1  1  6
  4  3  1  0
  5  4  2  0
  6  5  1  0
  7  6  1  0
  7 12  2  0
  8  7  1  0
  9  8  2  0
  9 10  1  0
 10 11  2  0
 11 12  1  0
 12  4  1  0
 13  2  1  0
 14 13  2  0
 15 13  1  0
 15 16  1  0
 17 16  1  0
 18 17  1  0
 19 18  1  0
 19 15  1  0
 20 21  2  0
 19 20  1  1
 23 22  1  0
 23 25  1  0
 24 23  2  0
 25 26  1  0
 26 27  1  0
 28 27  1  0
 29 28  1  6
 29 30  1  0
 30 20  1  0
 31 32  1  0
 31 29  1  0
 33 31  2  0
M  END
$$$$
