WPR.pdb
     RDKit          3D

 33 35  0  0  1  0  0  0  0  0999 V2000
   26.3559  -18.9843  -16.9224 N   0  0  0  0  0  0  0  0  0  0  0  0
   26.8949  -18.7597  -15.6179 C   0  0  1  0  0  0  0  0  0  0  0  0
   26.2831  -17.4827  -15.0858 C   0  0  0  0  0  0  0  0  0  0  0  0
   25.9156  -16.5181  -16.1288 C   0  0  0  0  0  0  0  0  0  0  0  0
   24.7317  -16.5264  -16.8350 C   0  0  0  0  0  0  0  0  0  0  0  0
   24.7214  -15.4991  -17.7162 N   0  0  0  0  0  0  0  0  0  0  0  0
   25.8890  -14.8041  -17.6045 C   0  0  0  0  0  0  0  0  0  0  0  0
   26.3502  -13.6935  -18.2724 C   0  0  0  0  0  0  0  0  0  0  0  0
   27.5881  -13.1869  -17.9579 C   0  0  0  0  0  0  0  0  0  0  0  0
   28.3233  -13.8241  -16.9722 C   0  0  0  0  0  0  0  0  0  0  0  0
   27.8581  -14.9372  -16.3047 C   0  0  0  0  0  0  0  0  0  0  0  0
   26.6263  -15.4460  -16.6136 C   0  0  0  0  0  0  0  0  0  0  0  0
   26.7160  -19.8932  -14.6812 C   0  0  0  0  0  0  0  0  0  0  0  0
   25.7323  -20.6650  -14.9447 O   0  0  0  0  0  0  0  0  0  0  0  0
   27.5382  -20.1540  -13.5623 N   0  0  0  0  0  0  0  0  0  0  0  0
   28.8583  -19.5980  -13.3625 C   0  0  0  0  0  0  0  0  0  0  0  0
   29.4408  -20.3388  -12.1716 C   0  0  0  0  0  0  0  0  0  0  0  0
   28.5439  -21.5248  -11.9488 C   0  0  0  0  0  0  0  0  0  0  0  0
   27.2012  -20.9908  -12.4662 C   0  0  1  0  0  0  0  0  0  0  0  0
   26.5946  -20.2589  -11.3212 C   0  0  0  0  0  0  0  0  0  0  0  0
   26.6531  -19.0090  -11.3728 O   0  0  0  0  0  0  0  0  0  0  0  0
   20.1640  -23.3325  -10.2267 N   0  0  0  0  0  0  0  0  0  0  0  0
   19.3892  -22.2619  -10.7956 C   0  0  0  0  0  0  0  0  0  0  0  0
   18.1497  -22.1477  -10.4817 N   0  0  0  0  0  0  0  0  0  0  0  0
   19.9547  -21.3344  -11.6903 N   0  0  0  0  0  0  0  0  0  0  0  0
   21.4006  -21.3810  -12.0655 C   0  0  0  0  0  0  0  0  0  0  0  0
   22.2370  -21.0157  -10.9163 C   0  0  0  0  0  0  0  0  0  0  0  0
   23.6768  -20.9518  -10.9344 C   0  0  0  0  0  0  0  0  0  0  0  0
   24.5689  -20.6587   -9.8194 C   0  0  2  0  0  0  0  0  0  0  0  0
   25.9844  -20.9131  -10.2319 N   0  0  0  0  0  0  0  0  0  0  0  0
   24.3243  -21.4285   -8.5863 C   0  0  0  0  0  0  0  0  0  0  0  0
   23.7957  -20.7004   -7.4791 O   0  0  0  0  0  0  0  0  0  0  0  0
   24.5140  -22.6194   -8.3843 O   0  0  0  0  0  0  0  0  0  0  0  0
  2  3  1  0
  2  1  1  6
  4  3  1  0
  5  4  2  0
  6  5  1  0
  7  6  1  0
  7 12  2  0
  8  7  1  0
  9  8  2  0
  9 10  1  0
 10 11  2  0
 11 12  1  0
 12  4  1  0
 13  2  1  0
 14 13  2  0
 15 13  1  0
 15 16  1  0
 17 16  1  0
 18 17  1  0
 19 18  1  0
 19 15  1  0
 20 21  2  0
 19 20  1  1
 23 22  1  0
 23 25  1  0
 24 23  2  0
 25 26  1  0
 26 27  1  0
 28 27  1  0
 29 28  1  6
 29 30  1  0
 30 20  1  0
 31 32  1  0
 31 29  1  0
 33 31  2  0
M  END
$$$$
