WPR.pdb
     RDKit          3D

 33 35  0  0  1  0  0  0  0  0999 V2000
   22.3515  -19.2656  -14.5644 N   0  0  0  0  0  0  0  0  0  0  0  0
   21.4255  -20.0547  -15.3144 C   0  0  1  0  0  0  0  0  0  0  0  0
   22.2281  -21.0233  -16.1545 C   0  0  0  0  0  0  0  0  0  0  0  0
   23.1595  -21.8529  -15.3814 C   0  0  0  0  0  0  0  0  0  0  0  0
   24.4318  -21.4776  -15.0064 C   0  0  0  0  0  0  0  0  0  0  0  0
   25.0127  -22.4794  -14.3056 N   0  0  0  0  0  0  0  0  0  0  0  0
   24.1386  -23.5213  -14.2093 C   0  0  0  0  0  0  0  0  0  0  0  0
   24.2570  -24.7507  -13.6035 C   0  0  0  0  0  0  0  0  0  0  0  0
   23.2026  -25.6300  -13.6576 C   0  0  0  0  0  0  0  0  0  0  0  0
   22.0562  -25.2347  -14.3266 C   0  0  0  0  0  0  0  0  0  0  0  0
   21.9408  -24.0016  -14.9328 C   0  0  0  0  0  0  0  0  0  0  0  0
   22.9874  -23.1220  -14.8821 C   0  0  0  0  0  0  0  0  0  0  0  0
   20.4072  -20.7463  -14.4904 C   0  0  0  0  0  0  0  0  0  0  0  0
   20.6913  -20.8481  -13.2488 O   0  0  0  0  0  0  0  0  0  0  0  0
   19.1934  -21.2757  -14.9827 N   0  0  0  0  0  0  0  0  0  0  0  0
   18.8383  -21.3589  -16.3823 C   0  0  0  0  0  0  0  0  0  0  0  0
   17.3739  -21.7603  -16.4121 C   0  0  0  0  0  0  0  0  0  0  0  0
   16.8675  -21.5653  -15.0099 C   0  0  0  0  0  0  0  0  0  0  0  0
   18.1425  -21.8083  -14.1907 C   0  0  1  0  0  0  0  0  0  0  0  0
   18.2232  -23.2828  -14.0056 C   0  0  0  0  0  0  0  0  0  0  0  0
   18.8803  -23.9112  -14.8669 O   0  0  0  0  0  0  0  0  0  0  0  0
   19.1658  -24.7676   -7.2664 N   0  0  0  0  0  0  0  0  0  0  0  0
   17.7807  -24.7134   -6.8810 C   0  0  0  0  0  0  0  0  0  0  0  0
   17.4639  -24.8866   -5.6492 N   0  0  0  0  0  0  0  0  0  0  0  0
   16.7605  -24.4761   -7.8211 N   0  0  0  0  0  0  0  0  0  0  0  0
   16.4727  -25.4339   -8.9317 C   0  0  0  0  0  0  0  0  0  0  0  0
   17.2253  -25.0597  -10.1347 C   0  0  0  0  0  0  0  0  0  0  0  0
   17.1651  -25.7597  -11.3931 C   0  0  0  0  0  0  0  0  0  0  0  0
   17.8284  -25.4047  -12.6418 C   0  0  2  0  0  0  0  0  0  0  0  0
   17.6047  -23.9540  -12.9315 N   0  0  0  0  0  0  0  0  0  0  0  0
   17.3990  -26.1627  -13.8310 C   0  0  0  0  0  0  0  0  0  0  0  0
   18.1076  -27.3709  -14.1022 O   0  0  0  0  0  0  0  0  0  0  0  0
   16.5069  -25.8926  -14.6224 O   0  0  0  0  0  0  0  0  0  0  0  0
  2  3  1  0
  2  1  1  1
  4  3  1  0
  5  4  2  0
  6  5  1  0
  7  6  1  0
  7 12  2  0
  8  7  1  0
  9  8  2  0
  9 10  1  0
 10 11  2  0
 11 12  1  0
 12  4  1  0
 13  2  1  0
 14 13  2  0
 15 13  1  0
 15 16  1  0
 17 16  1  0
 18 17  1  0
 19 18  1  0
 19 15  1  0
 20 21  2  0
 19 20  1  6
 23 22  1  0
 23 25  1  0
 24 23  2  0
 25 26  1  0
 26 27  1  0
 28 27  1  0
 29 28  1  1
 29 30  1  0
 30 20  1  0
 31 32  1  0
 31 29  1  0
 33 31  2  0
M  END
$$$$
