MRH.pdb
     RDKit          3D

 30 30  0  0  1  0  0  0  0  0999 V2000
    7.0757  -11.3444   27.5795 C   0  0  0  0  0  0  0  0  0  0  0  0
    7.0990  -11.2046   25.7866 S   0  0  0  0  0  0  0  0  0  0  0  0
    6.4005  -12.6955   25.0208 C   0  0  0  0  0  0  0  0  0  0  0  0
    7.3577  -13.8481   25.3441 C   0  0  0  0  0  0  0  0  0  0  0  0
    6.7856  -15.0593   24.6870 C   0  0  2  0  0  0  0  0  0  0  0  0
    5.4514  -15.2948   25.1963 N   0  0  0  0  0  0  0  0  0  0  0  0
    7.6376  -16.2784   24.8219 C   0  0  0  0  0  0  0  0  0  0  0  0
    7.6330  -16.9788   25.8660 O   0  0  0  0  0  0  0  0  0  0  0  0
   13.0260  -19.3729   18.5119 N   0  0  0  0  0  0  0  0  0  0  0  0
   13.3942  -18.6149   19.6613 C   0  0  0  0  0  0  0  0  0  0  0  0
   14.4971  -17.9494   19.6527 N   0  0  0  0  0  0  0  0  0  0  0  0
   12.5985  -18.5563   20.8226 N   0  0  0  0  0  0  0  0  0  0  0  0
   11.5285  -19.4849   21.1166 C   0  0  0  0  0  0  0  0  0  0  0  0
   11.0362  -19.1918   22.5176 C   0  0  0  0  0  0  0  0  0  0  0  0
   10.0771  -18.0591   22.5799 C   0  0  0  0  0  0  0  0  0  0  0  0
    9.4009  -17.8422   23.9049 C   0  0  2  0  0  0  0  0  0  0  0  0
    8.4999  -16.7115   23.7797 N   0  0  0  0  0  0  0  0  0  0  0  0
   10.4875  -17.5518   24.8820 C   0  0  0  0  0  0  0  0  0  0  0  0
   10.9629  -16.3978   24.9075 O   0  0  0  0  0  0  0  0  0  0  0  0
   14.8414  -17.4062   20.4618 N   0  0  0  0  0  0  0  0  0  0  0  0
   10.9655  -18.5540   25.7537 C   0  0  1  0  0  0  0  0  0  0  0  0
   11.4359  -18.1719   27.0671 C   0  0  0  0  0  0  0  0  0  0  0  0
   10.3600  -17.3172   27.7019 C   0  0  0  0  0  0  0  0  0  0  0  0
   10.7997  -15.9390   27.9225 C   0  0  0  0  0  0  0  0  0  0  0  0
    9.9852  -14.8446   28.0208 N   0  0  0  0  0  0  0  0  0  0  0  0
   10.7849  -13.7594   28.2245 C   0  0  0  0  0  0  0  0  0  0  0  0
   12.0633  -14.1636   28.2527 N   0  0  0  0  0  0  0  0  0  0  0  0
   12.0464  -15.5139   28.0638 C   0  0  0  0  0  0  0  0  0  0  0  0
   11.7955  -19.3286   27.9026 O   0  0  0  0  0  0  0  0  0  0  0  0
   12.4941  -19.3092   28.9243 O   0  0  0  0  0  0  0  0  0  0  0  0
  1  2  1  0
  2  3  1  0
  4  3  1  0
  5  4  1  0
  5  6  1  1
  7  8  2  0
  7  5  1  0
  9 10  1  0
 10 11  2  0
 12 13  1  0
 12 10  1  0
 13 14  1  0
 14 15  1  0
 16 15  1  6
 16 17  1  0
 17  7  1  0
 18 16  1  0
 19 18  2  0
 20 18  1  0
 21 28  1  0
 21 20  1  0
 21 22  1  1
 22 23  1  0
 23 27  1  0
 24 23  2  0
 24 25  1  0
 25 26  1  0
 27 26  2  0
 28 30  1  0
 29 28  2  0
M  END
$$$$
