MRH.pdb
     RDKit          3D

 30 30  0  0  1  0  0  0  0  0999 V2000
    8.6844  -10.8727   23.3312 C   0  0  0  0  0  0  0  0  0  0  0  0
    7.6470  -10.4964   21.9111 S   0  0  0  0  0  0  0  0  0  0  0  0
    7.7913  -11.7972   20.6524 C   0  0  0  0  0  0  0  0  0  0  0  0
    7.6469  -13.1368   21.3829 C   0  0  0  0  0  0  0  0  0  0  0  0
    7.8842  -14.1955   20.3588 C   0  0  2  0  0  0  0  0  0  0  0  0
    6.8212  -14.1586   19.3772 N   0  0  0  0  0  0  0  0  0  0  0  0
    8.0416  -15.5655   20.9322 C   0  0  0  0  0  0  0  0  0  0  0  0
    7.0514  -16.3024   21.1715 O   0  0  0  0  0  0  0  0  0  0  0  0
   14.1270  -21.7328   22.2911 N   0  0  0  0  0  0  0  0  0  0  0  0
   14.1869  -20.3860   21.8287 C   0  0  0  0  0  0  0  0  0  0  0  0
   15.2868  -19.7259   21.9462 N   0  0  0  0  0  0  0  0  0  0  0  0
   13.0862  -19.7326   21.2398 N   0  0  0  0  0  0  0  0  0  0  0  0
   11.7809  -20.3356   21.0774 C   0  0  0  0  0  0  0  0  0  0  0  0
   10.7914  -19.5136   21.8750 C   0  0  0  0  0  0  0  0  0  0  0  0
   10.5431  -18.1676   21.2977 C   0  0  0  0  0  0  0  0  0  0  0  0
    9.5035  -17.3348   21.9944 C   0  0  2  0  0  0  0  0  0  0  0  0
    9.3172  -16.1093   21.2398 N   0  0  0  0  0  0  0  0  0  0  0  0
   10.0449  -17.0472   23.3523 C   0  0  0  0  0  0  0  0  0  0  0  0
   11.1307  -16.4369   23.4357 O   0  0  0  0  0  0  0  0  0  0  0  0
   15.3937  -18.7399   21.6550 N   0  0  0  0  0  0  0  0  0  0  0  0
    9.3491  -17.4538   24.5113 C   0  0  1  0  0  0  0  0  0  0  0  0
    9.8718  -17.0809   25.8075 C   0  0  0  0  0  0  0  0  0  0  0  0
    8.7245  -16.5047   26.6091 C   0  0  0  0  0  0  0  0  0  0  0  0
    8.2625  -15.2212   26.0794 C   0  0  0  0  0  0  0  0  0  0  0  0
    8.8117  -14.5459   25.0243 N   0  0  0  0  0  0  0  0  0  0  0  0
    8.0909  -13.4013   24.8544 C   0  0  0  0  0  0  0  0  0  0  0  0
    7.1184  -13.3618   25.7772 N   0  0  0  0  0  0  0  0  0  0  0  0
    7.2454  -14.4969   26.5218 C   0  0  0  0  0  0  0  0  0  0  0  0
   10.5304  -18.1998   26.4999 O   0  0  0  0  0  0  0  0  0  0  0  0
   10.6384  -19.3608   26.0843 O   0  0  0  0  0  0  0  0  0  0  0  0
  1  2  1  0
  2  3  1  0
  4  3  1  0
  5  4  1  0
  5  6  1  6
  7  8  2  0
  7  5  1  0
  9 10  1  0
 10 11  2  0
 12 13  1  0
 12 10  1  0
 13 14  1  0
 14 15  1  0
 16 15  1  6
 16 17  1  0
 17  7  1  0
 18 16  1  0
 19 18  2  0
 20 18  1  0
 21 28  1  0
 21 20  1  0
 21 22  1  1
 22 23  1  0
 23 27  1  0
 24 23  2  0
 24 25  1  0
 25 26  1  0
 27 26  2  0
 28 30  1  0
 29 28  2  0
M  END
$$$$
