MRH.pdb
     RDKit          3D

 30 30  0  0  1  0  0  0  0  0999 V2000
    6.0282  -10.7814   26.4148 C   0  0  0  0  0  0  0  0  0  0  0  0
    5.8600  -12.1960   27.5126 S   0  0  0  0  0  0  0  0  0  0  0  0
    5.4655  -13.6949   26.5666 C   0  0  0  0  0  0  0  0  0  0  0  0
    6.7512  -14.1128   25.8446 C   0  0  0  0  0  0  0  0  0  0  0  0
    6.3886  -15.2860   24.9971 C   0  0  2  0  0  0  0  0  0  0  0  0
    5.9941  -16.3879   25.8488 N   0  0  0  0  0  0  0  0  0  0  0  0
    7.4629  -15.6979   24.0450 C   0  0  0  0  0  0  0  0  0  0  0  0
    8.0979  -16.7738   24.1863 O   0  0  0  0  0  0  0  0  0  0  0  0
    7.2439  -15.0521   16.9809 N   0  0  0  0  0  0  0  0  0  0  0  0
    8.3530  -14.1577   16.9458 C   0  0  0  0  0  0  0  0  0  0  0  0
    9.1837  -14.2195   15.9632 N   0  0  0  0  0  0  0  0  0  0  0  0
    8.5877  -13.1948   17.9472 N   0  0  0  0  0  0  0  0  0  0  0  0
    7.6857  -12.9389   19.0493 C   0  0  0  0  0  0  0  0  0  0  0  0
    7.6653  -14.1739   19.9241 C   0  0  0  0  0  0  0  0  0  0  0  0
    8.8262  -14.2615   20.8467 C   0  0  0  0  0  0  0  0  0  0  0  0
    8.7504  -15.3321   21.8993 C   0  0  2  0  0  0  0  0  0  0  0  0
    7.8266  -14.8965   22.9302 N   0  0  0  0  0  0  0  0  0  0  0  0
   10.1293  -15.4746   22.4452 C   0  0  0  0  0  0  0  0  0  0  0  0
   10.5925  -14.5363   23.1260 O   0  0  0  0  0  0  0  0  0  0  0  0
   10.0301  -13.6302   15.8945 N   0  0  0  0  0  0  0  0  0  0  0  0
   10.8899  -16.6380   22.1990 C   0  0  2  0  0  0  0  0  0  0  0  0
   12.2518  -16.6984   22.6828 C   0  0  0  0  0  0  0  0  0  0  0  0
   12.4183  -18.0202   23.4012 C   0  0  0  0  0  0  0  0  0  0  0  0
   11.6899  -18.0618   24.6697 C   0  0  0  0  0  0  0  0  0  0  0  0
   11.7838  -17.1419   25.6776 N   0  0  0  0  0  0  0  0  0  0  0  0
   10.9483  -17.5460   26.6762 C   0  0  0  0  0  0  0  0  0  0  0  0
   10.3489  -18.6864   26.3035 N   0  0  0  0  0  0  0  0  0  0  0  0
   10.8235  -18.9846   25.0605 C   0  0  0  0  0  0  0  0  0  0  0  0
   13.2454  -16.5152   21.6131 O   0  0  0  0  0  0  0  0  0  0  0  0
   14.4764  -16.5346   21.7414 O   0  0  0  0  0  0  0  0  0  0  0  0
  1  2  1  0
  2  3  1  0
  4  3  1  0
  5  4  1  0
  5  6  1  1
  7  8  2  0
  7  5  1  0
  9 10  1  0
 10 11  2  0
 12 13  1  0
 12 10  1  0
 13 14  1  0
 14 15  1  0
 16 15  1  6
 16 17  1  0
 17  7  1  0
 18 16  1  0
 19 18  2  0
 20 18  1  0
 21 28  1  0
 21 20  1  0
 21 22  1  1
 22 23  1  0
 23 27  1  0
 24 23  2  0
 24 25  1  0
 25 26  1  0
 27 26  2  0
 28 30  1  0
 29 28  2  0
M  END
$$$$
