MRH.pdb
     RDKit          3D

 30 30  0  0  1  0  0  0  0  0999 V2000
    5.3176  -11.4514   28.2343 C   0  0  0  0  0  0  0  0  0  0  0  0
    6.4438  -11.5034   26.8330 S   0  0  0  0  0  0  0  0  0  0  0  0
    7.3272  -13.0890   26.7824 C   0  0  0  0  0  0  0  0  0  0  0  0
    6.2926  -14.1598   26.4190 C   0  0  0  0  0  0  0  0  0  0  0  0
    7.0646  -15.3153   25.8759 C   0  0  2  0  0  0  0  0  0  0  0  0
    8.4628  -15.1586   26.2154 N   0  0  0  0  0  0  0  0  0  0  0  0
    6.8860  -15.5239   24.4079 C   0  0  0  0  0  0  0  0  0  0  0  0
    6.1095  -16.4015   23.9522 O   0  0  0  0  0  0  0  0  0  0  0  0
    7.5933  -13.0075   15.8294 N   0  0  0  0  0  0  0  0  0  0  0  0
    8.1129  -14.3043   16.1116 C   0  0  0  0  0  0  0  0  0  0  0  0
    8.2591  -15.1493   15.1504 N   0  0  0  0  0  0  0  0  0  0  0  0
    8.4806  -14.7123   17.4091 N   0  0  0  0  0  0  0  0  0  0  0  0
    8.0203  -14.0674   18.6198 C   0  0  0  0  0  0  0  0  0  0  0  0
    8.4626  -14.9175   19.7914 C   0  0  0  0  0  0  0  0  0  0  0  0
    7.9334  -14.4437   21.0960 C   0  0  0  0  0  0  0  0  0  0  0  0
    8.2436  -15.3095   22.2851 C   0  0  2  0  0  0  0  0  0  0  0  0
    7.5843  -14.7443   23.4478 N   0  0  0  0  0  0  0  0  0  0  0  0
    9.7246  -15.2785   22.4450 C   0  0  0  0  0  0  0  0  0  0  0  0
   10.2201  -14.3880   23.1660 O   0  0  0  0  0  0  0  0  0  0  0  0
    8.7163  -16.0692   15.2649 N   0  0  0  0  0  0  0  0  0  0  0  0
   10.5436  -16.2296   21.7988 C   0  0  2  0  0  0  0  0  0  0  0  0
   11.5339  -16.9423   22.5757 C   0  0  0  0  0  0  0  0  0  0  0  0
   10.8044  -17.6538   23.6949 C   0  0  0  0  0  0  0  0  0  0  0  0
   11.6936  -18.5002   24.4914 C   0  0  0  0  0  0  0  0  0  0  0  0
   13.0492  -18.6027   24.3405 N   0  0  0  0  0  0  0  0  0  0  0  0
   13.4961  -19.4912   25.2730 C   0  0  0  0  0  0  0  0  0  0  0  0
   12.4497  -19.9319   25.9868 N   0  0  0  0  0  0  0  0  0  0  0  0
   11.3476  -19.3052   25.4850 C   0  0  0  0  0  0  0  0  0  0  0  0
   12.3421  -17.8638   21.7615 O   0  0  0  0  0  0  0  0  0  0  0  0
   11.9144  -18.7178   20.9741 O   0  0  0  0  0  0  0  0  0  0  0  0
  1  2  1  0
  2  3  1  0
  4  3  1  0
  5  4  1  0
  5  6  1  6
  7  8  2  0
  7  5  1  0
  9 10  1  0
 10 11  2  0
 12 13  1  0
 12 10  1  0
 13 14  1  0
 14 15  1  0
 16 15  1  6
 16 17  1  0
 17  7  1  0
 18 16  1  0
 19 18  2  0
 20 18  1  0
 21 28  1  0
 21 20  1  0
 21 22  1  1
 22 23  1  0
 23 27  1  0
 24 23  2  0
 24 25  1  0
 25 26  1  0
 27 26  2  0
 28 30  1  0
 29 28  2  0
M  END
$$$$
