MRH.pdb
     RDKit          3D

 30 30  0  0  1  0  0  0  0  0999 V2000
    5.4410  -10.9125   26.7870 C   0  0  0  0  0  0  0  0  0  0  0  0
    6.5052  -12.2949   26.3497 S   0  0  0  0  0  0  0  0  0  0  0  0
    6.0789  -13.7634   27.3289 C   0  0  0  0  0  0  0  0  0  0  0  0
    7.0862  -14.8547   26.9499 C   0  0  0  0  0  0  0  0  0  0  0  0
    6.5302  -15.5309   25.7417 C   0  0  2  0  0  0  0  0  0  0  0  0
    5.6869  -16.6323   26.1553 N   0  0  0  0  0  0  0  0  0  0  0  0
    7.5708  -15.9833   24.7707 C   0  0  0  0  0  0  0  0  0  0  0  0
    8.0667  -17.1376   24.8195 O   0  0  0  0  0  0  0  0  0  0  0  0
    8.8426  -13.1324   16.7675 N   0  0  0  0  0  0  0  0  0  0  0  0
    8.2915  -14.1601   17.5870 C   0  0  0  0  0  0  0  0  0  0  0  0
    8.2827  -15.3744   17.1573 N   0  0  0  0  0  0  0  0  0  0  0  0
    7.7490  -13.9088   18.8629 N   0  0  0  0  0  0  0  0  0  0  0  0
    7.1431  -14.9237   19.6974 C   0  0  0  0  0  0  0  0  0  0  0  0
    8.2553  -15.6379   20.4351 C   0  0  0  0  0  0  0  0  0  0  0  0
    8.8710  -14.8174   21.5095 C   0  0  0  0  0  0  0  0  0  0  0  0
    9.1088  -15.5186   22.8178 C   0  0  2  0  0  0  0  0  0  0  0  0
    8.0575  -15.1343   23.7413 N   0  0  0  0  0  0  0  0  0  0  0  0
   10.4390  -15.0532   23.3014 C   0  0  0  0  0  0  0  0  0  0  0  0
   10.4732  -14.0842   24.0876 O   0  0  0  0  0  0  0  0  0  0  0  0
    7.9056  -16.1686   17.7008 N   0  0  0  0  0  0  0  0  0  0  0  0
   11.6266  -15.6906   22.8817 C   0  0  2  0  0  0  0  0  0  0  0  0
   12.5434  -16.1900   23.8829 C   0  0  0  0  0  0  0  0  0  0  0  0
   11.8038  -17.2326   24.6935 C   0  0  0  0  0  0  0  0  0  0  0  0
   11.3385  -16.7129   25.9799 C   0  0  0  0  0  0  0  0  0  0  0  0
   11.4128  -15.4107   26.3916 N   0  0  0  0  0  0  0  0  0  0  0  0
   10.8735  -15.3481   27.6422 C   0  0  0  0  0  0  0  0  0  0  0  0
   10.4734  -16.5765   28.0024 N   0  0  0  0  0  0  0  0  0  0  0  0
   10.7715  -17.4020   26.9589 C   0  0  0  0  0  0  0  0  0  0  0  0
   13.7901  -16.7144   23.3033 O   0  0  0  0  0  0  0  0  0  0  0  0
   13.9443  -17.1373   22.1502 O   0  0  0  0  0  0  0  0  0  0  0  0
  1  2  1  0
  2  3  1  0
  4  3  1  0
  5  4  1  0
  5  6  1  1
  7  8  2  0
  7  5  1  0
  9 10  1  0
 10 11  2  0
 12 13  1  0
 12 10  1  0
 13 14  1  0
 14 15  1  0
 16 15  1  6
 16 17  1  0
 17  7  1  0
 18 16  1  0
 19 18  2  0
 20 18  1  0
 21 28  1  0
 21 20  1  0
 21 22  1  1
 22 23  1  0
 23 27  1  0
 24 23  2  0
 24 25  1  0
 25 26  1  0
 27 26  2  0
 28 30  1  0
 29 28  2  0
M  END
$$$$
