MRH.pdb
     RDKit          3D

 30 30  0  0  1  0  0  0  0  0999 V2000
    7.1061  -11.1890   28.0866 C   0  0  0  0  0  0  0  0  0  0  0  0
    6.7131  -11.1673   26.3318 S   0  0  0  0  0  0  0  0  0  0  0  0
    6.0744  -12.7819   25.8004 C   0  0  0  0  0  0  0  0  0  0  0  0
    7.2929  -13.6673   25.5166 C   0  0  0  0  0  0  0  0  0  0  0  0
    6.7540  -14.9741   25.0392 C   0  0  2  0  0  0  0  0  0  0  0  0
    5.8930  -15.5373   26.0573 N   0  0  0  0  0  0  0  0  0  0  0  0
    7.8088  -15.9472   24.6259 C   0  0  0  0  0  0  0  0  0  0  0  0
    8.0175  -17.0102   25.2641 O   0  0  0  0  0  0  0  0  0  0  0  0
   12.0343  -19.4060   18.6430 N   0  0  0  0  0  0  0  0  0  0  0  0
   10.6520  -19.3689   18.2978 C   0  0  0  0  0  0  0  0  0  0  0  0
   10.3105  -19.3730   17.0558 N   0  0  0  0  0  0  0  0  0  0  0  0
    9.6263  -19.3284   19.2629 N   0  0  0  0  0  0  0  0  0  0  0  0
    9.8585  -19.1774   20.6831 C   0  0  0  0  0  0  0  0  0  0  0  0
   10.4316  -17.7953   20.9117 C   0  0  0  0  0  0  0  0  0  0  0  0
    9.4743  -16.8598   21.5558 C   0  0  0  0  0  0  0  0  0  0  0  0
    9.6406  -16.6654   23.0372 C   0  0  2  0  0  0  0  0  0  0  0  0
    8.6340  -15.7241   23.4916 N   0  0  0  0  0  0  0  0  0  0  0  0
   11.0113  -16.1145   23.2313 C   0  0  0  0  0  0  0  0  0  0  0  0
   11.6108  -15.6633   22.2337 O   0  0  0  0  0  0  0  0  0  0  0  0
    9.3282  -19.3573   16.7347 N   0  0  0  0  0  0  0  0  0  0  0  0
   11.6142  -16.1037   24.5077 C   0  0  2  0  0  0  0  0  0  0  0  0
   12.4850  -17.1974   24.8789 C   0  0  0  0  0  0  0  0  0  0  0  0
   11.6276  -18.4395   24.9929 C   0  0  0  0  0  0  0  0  0  0  0  0
   10.9979  -18.5643   26.3080 C   0  0  0  0  0  0  0  0  0  0  0  0
   11.2991  -17.8184   27.4142 N   0  0  0  0  0  0  0  0  0  0  0  0
   10.4910  -18.2460   28.4254 C   0  0  0  0  0  0  0  0  0  0  0  0
    9.7066  -19.2315   27.9647 N   0  0  0  0  0  0  0  0  0  0  0  0
   10.0387  -19.4097   26.6544 C   0  0  0  0  0  0  0  0  0  0  0  0
   13.6059  -17.3766   23.9425 O   0  0  0  0  0  0  0  0  0  0  0  0
   14.8003  -17.1467   24.1722 O   0  0  0  0  0  0  0  0  0  0  0  0
  1  2  1  0
  2  3  1  0
  4  3  1  0
  5  4  1  0
  5  6  1  1
  7  8  2  0
  7  5  1  0
  9 10  1  0
 10 11  2  0
 12 13  1  0
 12 10  1  0
 13 14  1  0
 14 15  1  0
 16 15  1  6
 16 17  1  0
 17  7  1  0
 18 16  1  0
 19 18  2  0
 20 18  1  0
 21 28  1  0
 21 20  1  0
 21 22  1  1
 22 23  1  0
 23 27  1  0
 24 23  2  0
 24 25  1  0
 25 26  1  0
 27 26  2  0
 28 30  1  0
 29 28  2  0
M  END
$$$$
