MRH.pdb
     RDKit          3D

 30 30  0  0  1  0  0  0  0  0999 V2000
    5.2130  -10.1858   26.6470 C   0  0  0  0  0  0  0  0  0  0  0  0
    6.5457  -11.2740   26.1232 S   0  0  0  0  0  0  0  0  0  0  0  0
    5.8919  -12.8981   25.6414 C   0  0  0  0  0  0  0  0  0  0  0  0
    7.0980  -13.7666   25.2673 C   0  0  0  0  0  0  0  0  0  0  0  0
    6.5402  -15.0359   24.7159 C   0  0  2  0  0  0  0  0  0  0  0  0
    5.7205  -15.6756   25.7228 N   0  0  0  0  0  0  0  0  0  0  0  0
    7.5774  -15.9727   24.1897 C   0  0  0  0  0  0  0  0  0  0  0  0
    8.0367  -16.9131   24.8863 O   0  0  0  0  0  0  0  0  0  0  0  0
    9.7688  -20.3995   19.1151 N   0  0  0  0  0  0  0  0  0  0  0  0
   10.7867  -19.7860   18.3285 C   0  0  0  0  0  0  0  0  0  0  0  0
   11.7555  -20.5046   17.8767 N   0  0  0  0  0  0  0  0  0  0  0  0
   10.7840  -18.4121   18.0156 N   0  0  0  0  0  0  0  0  0  0  0  0
    9.8726  -17.4521   18.6000 C   0  0  0  0  0  0  0  0  0  0  0  0
    9.9860  -17.5664   20.1051 C   0  0  0  0  0  0  0  0  0  0  0  0
    9.0770  -16.6464   20.8357 C   0  0  0  0  0  0  0  0  0  0  0  0
    9.1203  -16.7333   22.3359 C   0  0  2  0  0  0  0  0  0  0  0  0
    8.1022  -15.8511   22.8754 N   0  0  0  0  0  0  0  0  0  0  0  0
   10.4826  -16.2833   22.7378 C   0  0  0  0  0  0  0  0  0  0  0  0
   10.7595  -15.0714   22.6234 O   0  0  0  0  0  0  0  0  0  0  0  0
   12.5608  -20.1151   17.3588 N   0  0  0  0  0  0  0  0  0  0  0  0
   11.4327  -17.2019   23.2337 C   0  0  2  0  0  0  0  0  0  0  0  0
   11.9375  -17.0285   24.5782 C   0  0  0  0  0  0  0  0  0  0  0  0
   10.7438  -16.9914   25.5081 C   0  0  0  0  0  0  0  0  0  0  0  0
   11.1348  -16.8889   26.9145 C   0  0  0  0  0  0  0  0  0  0  0  0
   12.4148  -16.7784   27.3839 N   0  0  0  0  0  0  0  0  0  0  0  0
   12.3448  -16.7089   28.7436 C   0  0  0  0  0  0  0  0  0  0  0  0
   11.0575  -16.7741   29.1142 N   0  0  0  0  0  0  0  0  0  0  0  0
   10.3297  -16.8850   27.9665 C   0  0  0  0  0  0  0  0  0  0  0  0
   12.9107  -18.0640   24.9597 O   0  0  0  0  0  0  0  0  0  0  0  0
   12.7310  -19.2885   24.9315 O   0  0  0  0  0  0  0  0  0  0  0  0
  1  2  1  0
  2  3  1  0
  4  3  1  0
  5  4  1  0
  5  6  1  1
  7  8  2  0
  7  5  1  0
  9 10  1  0
 10 11  2  0
 12 13  1  0
 12 10  1  0
 13 14  1  0
 14 15  1  0
 16 15  1  6
 16 17  1  0
 17  7  1  0
 18 16  1  0
 19 18  2  0
 20 18  1  0
 21 28  1  0
 21 20  1  0
 21 22  1  6
 22 23  1  0
 23 27  1  0
 24 23  2  0
 24 25  1  0
 25 26  1  0
 27 26  2  0
 28 30  1  0
 29 28  2  0
M  END
$$$$
