CLA.pdb
     RDKit          3D

 20 19  0  0  1  0  0  0  0  0999 V2000
    7.5435  -15.9262   20.0860 N   0  0  0  0  0  0  0  0  0  0  0  0
    7.2091  -16.3525   21.4154 C   0  0  1  0  0  0  0  0  0  0  0  0
    7.6714  -17.7658   21.6532 C   0  0  0  0  0  0  0  0  0  0  0  0
    7.0377  -18.3296   23.2565 S   0  0  0  0  0  0  0  0  0  0  0  0
    7.7068  -15.3965   22.4055 C   0  0  0  0  0  0  0  0  0  0  0  0
    8.8045  -14.8231   22.1890 O   0  0  0  0  0  0  0  0  0  0  0  0
    5.7913  -11.9672   27.2594 C   0  0  0  0  0  0  0  0  0  0  0  0
    6.9362  -12.3523   26.2985 C   0  0  2  0  0  0  0  0  0  0  0  0
    7.3211  -11.0744   25.6013 C   0  0  0  0  0  0  0  0  0  0  0  0
    6.4560  -13.4114   25.3498 C   0  0  0  0  0  0  0  0  0  0  0  0
    7.4885  -14.0634   24.5231 C   0  0  2  0  0  0  0  0  0  0  0  0
    7.0250  -15.0647   23.6158 N   0  0  0  0  0  0  0  0  0  0  0  0
    8.6085  -14.6200   25.3529 C   0  0  0  0  0  0  0  0  0  0  0  0
    9.1753  -13.9295   26.2286 O   0  0  0  0  0  0  0  0  0  0  0  0
    9.5844  -17.6010   26.8922 C   0  0  0  0  0  0  0  0  0  0  0  0
   10.1155  -16.5577   25.9263 C   0  0  2  0  0  0  0  0  0  0  0  0
    9.0508  -15.9573   25.1566 N   0  0  0  0  0  0  0  0  0  0  0  0
   11.1477  -17.1674   25.0437 C   0  0  0  0  0  0  0  0  0  0  0  0
   10.8343  -17.9511   24.1192 O   0  0  0  0  0  0  0  0  0  0  0  0
   12.4793  -16.8703   25.2391 O   0  0  0  0  0  0  0  0  0  0  0  0
  2  1  1  6
  2  3  1  0
  4  3  1  0
  5  2  1  0
  5  6  2  0
  8  7  1  1
  8 10  1  0
  9  8  1  0
 11 10  1  1
 11 12  1  0
 11 13  1  0
 12  5  1  0
 13 14  2  0
 16 15  1  1
 17 13  1  0
 17 16  1  0
 18 16  1  0
 19 18  2  0
 20 18  1  0
M  END
$$$$
