CLA.pdb
     RDKit          3D

 20 19  0  0  1  0  0  0  0  0999 V2000
   11.2713  -17.9141   17.5509 N   0  0  0  0  0  0  0  0  0  0  0  0
   10.3037  -18.0024   18.6078 C   0  0  1  0  0  0  0  0  0  0  0  0
   10.3580  -19.3551   19.2674 C   0  0  0  0  0  0  0  0  0  0  0  0
    9.4216  -20.5380   18.2605 S   0  0  0  0  0  0  0  0  0  0  0  0
   10.4553  -16.8860   19.5421 C   0  0  0  0  0  0  0  0  0  0  0  0
   11.6044  -16.4129   19.7324 O   0  0  0  0  0  0  0  0  0  0  0  0
    8.9497  -12.6230   19.3387 C   0  0  0  0  0  0  0  0  0  0  0  0
    7.9424  -13.6731   19.8534 C   0  0  2  0  0  0  0  0  0  0  0  0
    6.6260  -12.9492   19.9555 C   0  0  0  0  0  0  0  0  0  0  0  0
    8.4142  -14.2123   21.1720 C   0  0  0  0  0  0  0  0  0  0  0  0
    9.5425  -15.1607   21.1228 C   0  0  2  0  0  0  0  0  0  0  0  0
    9.3763  -16.2884   20.2620 N   0  0  0  0  0  0  0  0  0  0  0  0
    9.9461  -15.6301   22.4901 C   0  0  0  0  0  0  0  0  0  0  0  0
   10.2439  -14.8195   23.3952 O   0  0  0  0  0  0  0  0  0  0  0  0
    9.6298  -18.8236   24.4009 C   0  0  0  0  0  0  0  0  0  0  0  0
   10.3721  -17.5393   24.0801 C   0  0  2  0  0  0  0  0  0  0  0  0
    9.9981  -17.0204   22.7850 N   0  0  0  0  0  0  0  0  0  0  0  0
   11.8401  -17.7698   24.1706 C   0  0  0  0  0  0  0  0  0  0  0  0
   12.3803  -18.1161   25.2454 O   0  0  0  0  0  0  0  0  0  0  0  0
   12.6307  -17.6015   23.0543 O   0  0  0  0  0  0  0  0  0  0  0  0
  2  1  1  6
  2  3  1  0
  4  3  1  0
  5  2  1  0
  5  6  2  0
  8  7  1  1
  8 10  1  0
  9  8  1  0
 11 10  1  1
 11 12  1  0
 11 13  1  0
 12  5  1  0
 13 14  2  0
 16 15  1  6
 17 13  1  0
 17 16  1  0
 18 16  1  0
 19 18  2  0
 20 18  1  0
M  END
$$$$
