CLA.pdb
     RDKit          3D

 20 19  0  0  1  0  0  0  0  0999 V2000
    8.0221  -16.8383   21.7108 N   0  0  0  0  0  0  0  0  0  0  0  0
    8.5629  -15.5084   21.7078 C   0  0  1  0  0  0  0  0  0  0  0  0
    7.6019  -14.5446   21.0635 C   0  0  0  0  0  0  0  0  0  0  0  0
    5.9131  -14.9729   21.5681 S   0  0  0  0  0  0  0  0  0  0  0  0
    8.9753  -15.1150   23.0559 C   0  0  0  0  0  0  0  0  0  0  0  0
   10.1429  -14.6805   23.2248 O   0  0  0  0  0  0  0  0  0  0  0  0
    7.8106  -11.7452   25.7087 C   0  0  0  0  0  0  0  0  0  0  0  0
    6.8383  -12.9434   25.7440 C   0  0  2  0  0  0  0  0  0  0  0  0
    5.6599  -12.4793   26.5583 C   0  0  0  0  0  0  0  0  0  0  0  0
    7.5314  -14.1303   26.3468 C   0  0  0  0  0  0  0  0  0  0  0  0
    8.5560  -14.7818   25.5098 C   0  0  2  0  0  0  0  0  0  0  0  0
    8.1343  -15.1908   24.2077 N   0  0  0  0  0  0  0  0  0  0  0  0
    9.2068  -15.9383   26.2111 C   0  0  0  0  0  0  0  0  0  0  0  0
    9.6086  -15.8412   27.3918 O   0  0  0  0  0  0  0  0  0  0  0  0
    9.7969  -19.5834   25.3237 C   0  0  0  0  0  0  0  0  0  0  0  0
   10.0054  -18.3285   26.1515 C   0  0  2  0  0  0  0  0  0  0  0  0
    9.3806  -17.1794   25.5388 N   0  0  0  0  0  0  0  0  0  0  0  0
   11.4611  -18.1047   26.3692 C   0  0  0  0  0  0  0  0  0  0  0  0
   12.1377  -18.8718   27.0907 O   0  0  0  0  0  0  0  0  0  0  0  0
   12.0875  -17.0337   25.7689 O   0  0  0  0  0  0  0  0  0  0  0  0
  2  1  1  1
  2  3  1  0
  4  3  1  0
  5  2  1  0
  5  6  2  0
  8  7  1  1
  8 10  1  0
  9  8  1  0
 11 10  1  1
 11 12  1  0
 11 13  1  0
 12  5  1  0
 13 14  2  0
 16 15  1  6
 17 13  1  0
 17 16  1  0
 18 16  1  0
 19 18  2  0
 20 18  1  0
M  END
$$$$
