CLA.pdb
     RDKit          3D

 20 19  0  0  1  0  0  0  0  0999 V2000
    7.9655  -17.0850   20.2784 N   0  0  0  0  0  0  0  0  0  0  0  0
    7.1907  -17.2562   21.4748 C   0  0  1  0  0  0  0  0  0  0  0  0
    7.0057  -18.7183   21.7844 C   0  0  0  0  0  0  0  0  0  0  0  0
    6.0375  -18.8782   23.3099 S   0  0  0  0  0  0  0  0  0  0  0  0
    7.7690  -16.4897   22.5795 C   0  0  0  0  0  0  0  0  0  0  0  0
    9.0202  -16.4565   22.6981 O   0  0  0  0  0  0  0  0  0  0  0  0
    6.2573  -12.4756   27.1491 C   0  0  0  0  0  0  0  0  0  0  0  0
    7.3477  -13.3075   26.4410 C   0  0  2  0  0  0  0  0  0  0  0  0
    8.3966  -12.3145   26.0159 C   0  0  0  0  0  0  0  0  0  0  0  0
    6.7397  -14.0440   25.2832 C   0  0  0  0  0  0  0  0  0  0  0  0
    7.5912  -15.0597   24.6367 C   0  0  2  0  0  0  0  0  0  0  0  0
    7.0027  -15.7677   23.5444 N   0  0  0  0  0  0  0  0  0  0  0  0
    8.1507  -16.0405   25.6254 C   0  0  0  0  0  0  0  0  0  0  0  0
    7.4030  -16.7167   26.3661 O   0  0  0  0  0  0  0  0  0  0  0  0
   11.5193  -17.6642   25.9934 C   0  0  0  0  0  0  0  0  0  0  0  0
   10.1563  -17.2696   26.5319 C   0  0  2  0  0  0  0  0  0  0  0  0
    9.5568  -16.2210   25.7397 N   0  0  0  0  0  0  0  0  0  0  0  0
   10.2754  -16.8710   27.9613 C   0  0  0  0  0  0  0  0  0  0  0  0
   10.0584  -15.6947   28.3301 O   0  0  0  0  0  0  0  0  0  0  0  0
   10.6314  -17.8082   28.9071 O   0  0  0  0  0  0  0  0  0  0  0  0
  2  1  1  6
  2  3  1  0
  4  3  1  0
  5  2  1  0
  5  6  2  0
  8  7  1  6
  8 10  1  0
  9  8  1  0
 11 10  1  1
 11 12  1  0
 11 13  1  0
 12  5  1  0
 13 14  2  0
 16 15  1  6
 17 13  1  0
 17 16  1  0
 18 16  1  0
 19 18  2  0
 20 18  1  0
M  END
$$$$
