CLA.pdb
     RDKit          3D

 20 19  0  0  1  0  0  0  0  0999 V2000
    7.7147  -15.8812   21.2228 N   0  0  0  0  0  0  0  0  0  0  0  0
    7.1729  -16.1433   22.5262 C   0  0  1  0  0  0  0  0  0  0  0  0
    7.0203  -17.6245   22.7511 C   0  0  0  0  0  0  0  0  0  0  0  0
    6.1332  -17.8939   24.3102 S   0  0  0  0  0  0  0  0  0  0  0  0
    7.9616  -15.4698   23.5589 C   0  0  0  0  0  0  0  0  0  0  0  0
    9.1996  -15.3407   23.3815 O   0  0  0  0  0  0  0  0  0  0  0  0
    7.2542  -11.3699   25.0980 C   0  0  0  0  0  0  0  0  0  0  0  0
    6.5283  -12.4557   25.9205 C   0  0  2  0  0  0  0  0  0  0  0  0
    5.6430  -11.7061   26.8806 C   0  0  0  0  0  0  0  0  0  0  0  0
    7.5427  -13.3167   26.6149 C   0  0  0  0  0  0  0  0  0  0  0  0
    8.2171  -14.3302   25.7826 C   0  0  2  0  0  0  0  0  0  0  0  0
    7.4175  -14.9422   24.7694 N   0  0  0  0  0  0  0  0  0  0  0  0
    8.8756  -15.3945   26.6111 C   0  0  0  0  0  0  0  0  0  0  0  0
    9.6386  -15.1030   27.5587 O   0  0  0  0  0  0  0  0  0  0  0  0
    8.4667  -19.1350   26.9395 C   0  0  0  0  0  0  0  0  0  0  0  0
    9.2491  -17.8424   27.0830 C   0  0  2  0  0  0  0  0  0  0  0  0
    8.6419  -16.7691   26.3309 N   0  0  0  0  0  0  0  0  0  0  0  0
   10.6634  -18.0615   26.6731 C   0  0  0  0  0  0  0  0  0  0  0  0
   11.1805  -17.4065   25.7401 O   0  0  0  0  0  0  0  0  0  0  0  0
   11.4291  -19.0025   27.3274 O   0  0  0  0  0  0  0  0  0  0  0  0
  2  1  1  6
  2  3  1  0
  4  3  1  0
  5  2  1  0
  5  6  2  0
  8  7  1  1
  8 10  1  0
  9  8  1  0
 11 10  1  1
 11 12  1  0
 11 13  1  0
 12  5  1  0
 13 14  2  0
 16 15  1  6
 17 13  1  0
 17 16  1  0
 18 16  1  0
 19 18  2  0
 20 18  1  0
M  END
$$$$
