CLA.pdb
     RDKit          3D

 20 19  0  0  1  0  0  0  0  0999 V2000
    9.8652  -16.2151   20.2587 N   0  0  0  0  0  0  0  0  0  0  0  0
    8.7937  -16.5175   21.1650 C   0  0  1  0  0  0  0  0  0  0  0  0
    8.5970  -18.0062   21.2788 C   0  0  0  0  0  0  0  0  0  0  0  0
    7.2691  -18.5114   20.1512 S   0  0  0  0  0  0  0  0  0  0  0  0
    9.0015  -15.8517   22.4518 C   0  0  0  0  0  0  0  0  0  0  0  0
   10.1709  -15.7741   22.9068 O   0  0  0  0  0  0  0  0  0  0  0  0
    6.0387  -12.4996   26.8339 C   0  0  0  0  0  0  0  0  0  0  0  0
    7.3120  -13.2633   26.4123 C   0  0  2  0  0  0  0  0  0  0  0  0
    8.4372  -12.2719   26.5475 C   0  0  0  0  0  0  0  0  0  0  0  0
    7.1478  -13.7701   25.0092 C   0  0  0  0  0  0  0  0  0  0  0  0
    8.1719  -14.7192   24.5345 C   0  0  2  0  0  0  0  0  0  0  0  0
    7.9564  -15.2766   23.2371 N   0  0  0  0  0  0  0  0  0  0  0  0
    8.4177  -15.8247   25.5195 C   0  0  0  0  0  0  0  0  0  0  0  0
    7.4822  -16.5390   25.9433 O   0  0  0  0  0  0  0  0  0  0  0  0
   11.3318  -17.8913   26.4109 C   0  0  0  0  0  0  0  0  0  0  0  0
   10.0571  -17.1973   26.8547 C   0  0  2  0  0  0  0  0  0  0  0  0
    9.7331  -16.0832   25.9943 N   0  0  0  0  0  0  0  0  0  0  0  0
   10.1849  -16.7688   28.2747 C   0  0  0  0  0  0  0  0  0  0  0  0
   10.1082  -15.5628   28.6009 O   0  0  0  0  0  0  0  0  0  0  0  0
   10.3924  -17.7108   29.2592 O   0  0  0  0  0  0  0  0  0  0  0  0
  2  1  1  6
  2  3  1  0
  4  3  1  0
  5  2  1  0
  5  6  2  0
  8  7  1  6
  8 10  1  0
  9  8  1  0
 11 10  1  1
 11 12  1  0
 11 13  1  0
 12  5  1  0
 13 14  2  0
 16 15  1  6
 17 13  1  0
 17 16  1  0
 18 16  1  0
 19 18  2  0
 20 18  1  0
M  END
$$$$
