CLA.pdb
     RDKit          3D

 20 19  0  0  1  0  0  0  0  0999 V2000
    9.2301  -15.7021   19.9126 N   0  0  0  0  0  0  0  0  0  0  0  0
    8.1363  -15.8892   20.8235 C   0  0  1  0  0  0  0  0  0  0  0  0
    7.7083  -17.3327   20.8517 C   0  0  0  0  0  0  0  0  0  0  0  0
    9.1012  -18.3478   21.4169 S   0  0  0  0  0  0  0  0  0  0  0  0
    8.4637  -15.3470   22.1429 C   0  0  0  0  0  0  0  0  0  0  0  0
    9.6743  -15.2250   22.4595 O   0  0  0  0  0  0  0  0  0  0  0  0
    5.8941  -12.4603   27.0632 C   0  0  0  0  0  0  0  0  0  0  0  0
    7.1684  -12.9899   26.3717 C   0  0  2  0  0  0  0  0  0  0  0  0
    8.0868  -11.8020   26.2598 C   0  0  0  0  0  0  0  0  0  0  0  0
    6.8058  -13.5733   25.0374 C   0  0  0  0  0  0  0  0  0  0  0  0
    7.8399  -14.3956   24.3822 C   0  0  2  0  0  0  0  0  0  0  0  0
    7.4928  -14.9414   23.1086 N   0  0  0  0  0  0  0  0  0  0  0  0
    8.3407  -15.4919   25.2767 C   0  0  0  0  0  0  0  0  0  0  0  0
    7.5825  -16.4026   25.6775 O   0  0  0  0  0  0  0  0  0  0  0  0
   11.7183  -16.8910   25.8874 C   0  0  0  0  0  0  0  0  0  0  0  0
   10.3009  -16.6408   26.3687 C   0  0  2  0  0  0  0  0  0  0  0  0
    9.7014  -15.5156   25.6896 N   0  0  0  0  0  0  0  0  0  0  0  0
   10.2964  -16.4504   27.8452 C   0  0  0  0  0  0  0  0  0  0  0  0
    9.9190  -15.3748   28.3625 O   0  0  0  0  0  0  0  0  0  0  0  0
   10.7145  -17.4727   28.6697 O   0  0  0  0  0  0  0  0  0  0  0  0
  2  1  1  6
  2  3  1  0
  4  3  1  0
  5  2  1  0
  5  6  2  0
  8  7  1  6
  8 10  1  0
  9  8  1  0
 11 10  1  1
 11 12  1  0
 11 13  1  0
 12  5  1  0
 13 14  2  0
 16 15  1  6
 17 13  1  0
 17 16  1  0
 18 16  1  0
 19 18  2  0
 20 18  1  0
M  END
$$$$
