CLA.pdb
     RDKit          3D

 20 19  0  0  1  0  0  0  0  0999 V2000
    7.6348  -16.6209   21.3856 N   0  0  0  0  0  0  0  0  0  0  0  0
    7.1727  -16.7218   22.7411 C   0  0  1  0  0  0  0  0  0  0  0  0
    7.0933  -18.1630   23.1705 C   0  0  0  0  0  0  0  0  0  0  0  0
    6.3952  -18.2404   24.8429 S   0  0  0  0  0  0  0  0  0  0  0  0
    7.9854  -15.8879   23.6278 C   0  0  0  0  0  0  0  0  0  0  0  0
    9.2058  -15.7411   23.3638 O   0  0  0  0  0  0  0  0  0  0  0  0
    7.1472  -11.6901   24.7232 C   0  0  0  0  0  0  0  0  0  0  0  0
    6.5603  -12.6974   25.7348 C   0  0  2  0  0  0  0  0  0  0  0  0
    5.7084  -11.8781   26.6677 C   0  0  0  0  0  0  0  0  0  0  0  0
    7.6798  -13.4060   26.4396 C   0  0  0  0  0  0  0  0  0  0  0  0
    8.3200  -14.5104   25.7013 C   0  0  2  0  0  0  0  0  0  0  0  0
    7.4837  -15.2206   24.7866 N   0  0  0  0  0  0  0  0  0  0  0  0
    8.9987  -15.4850   26.6190 C   0  0  0  0  0  0  0  0  0  0  0  0
    9.8437  -15.1071   27.4604 O   0  0  0  0  0  0  0  0  0  0  0  0
    8.3384  -19.0232   27.6639 C   0  0  0  0  0  0  0  0  0  0  0  0
    9.2801  -17.8575   27.4233 C   0  0  2  0  0  0  0  0  0  0  0  0
    8.6902  -16.8716   26.5479 N   0  0  0  0  0  0  0  0  0  0  0  0
   10.5745  -18.3583   26.8847 C   0  0  0  0  0  0  0  0  0  0  0  0
   11.0153  -17.9681   25.7800 O   0  0  0  0  0  0  0  0  0  0  0  0
   11.3114  -19.2708   27.6086 O   0  0  0  0  0  0  0  0  0  0  0  0
  2  1  1  6
  2  3  1  0
  4  3  1  0
  5  2  1  0
  5  6  2  0
  8  7  1  6
  8 10  1  0
  9  8  1  0
 11 10  1  1
 11 12  1  0
 11 13  1  0
 12  5  1  0
 13 14  2  0
 16 15  1  6
 17 13  1  0
 17 16  1  0
 18 16  1  0
 19 18  2  0
 20 18  1  0
M  END
$$$$
