CLA.pdb
     RDKit          3D

 20 19  0  0  1  0  0  0  0  0999 V2000
    9.5114  -18.5620   18.6417 N   0  0  0  0  0  0  0  0  0  0  0  0
   10.7207  -17.7916   18.5719 C   0  0  1  0  0  0  0  0  0  0  0  0
   10.9708  -17.3200   17.1638 C   0  0  0  0  0  0  0  0  0  0  0  0
    9.8352  -18.1842   16.0441 S   0  0  0  0  0  0  0  0  0  0  0  0
   10.7033  -16.7115   19.5595 C   0  0  0  0  0  0  0  0  0  0  0  0
   11.7530  -16.0430   19.7382 O   0  0  0  0  0  0  0  0  0  0  0  0
    8.7607  -12.8032   19.5440 C   0  0  0  0  0  0  0  0  0  0  0  0
    7.8529  -13.9506   20.0355 C   0  0  2  0  0  0  0  0  0  0  0  0
    6.4730  -13.3561   20.1333 C   0  0  0  0  0  0  0  0  0  0  0  0
    8.3620  -14.4601   21.3522 C   0  0  0  0  0  0  0  0  0  0  0  0
    9.5737  -15.2992   21.3025 C   0  0  2  0  0  0  0  0  0  0  0  0
    9.5635  -16.3587   20.3445 N   0  0  0  0  0  0  0  0  0  0  0  0
    9.9367  -15.8479   22.6515 C   0  0  0  0  0  0  0  0  0  0  0  0
   10.0743  -15.0986   23.6437 O   0  0  0  0  0  0  0  0  0  0  0  0
    9.9507  -19.2505   24.2229 C   0  0  0  0  0  0  0  0  0  0  0  0
   10.4911  -17.8380   24.0962 C   0  0  2  0  0  0  0  0  0  0  0  0
   10.1333  -17.2453   22.8284 N   0  0  0  0  0  0  0  0  0  0  0  0
   11.9662  -17.8430   24.2973 C   0  0  0  0  0  0  0  0  0  0  0  0
   12.4753  -18.2165   25.3781 O   0  0  0  0  0  0  0  0  0  0  0  0
   12.7985  -17.4297   23.2794 O   0  0  0  0  0  0  0  0  0  0  0  0
  2  1  1  6
  2  3  1  0
  4  3  1  0
  5  2  1  0
  5  6  2  0
  8  7  1  1
  8 10  1  0
  9  8  1  0
 11 10  1  1
 11 12  1  0
 11 13  1  0
 12  5  1  0
 13 14  2  0
 16 15  1  6
 17 13  1  0
 17 16  1  0
 18 16  1  0
 19 18  2  0
 20 18  1  0
M  END
$$$$
