SQD.pdb
     RDKit          3D

 24 23  0  0  1  0  0  0  0  0999 V2000
   25.5897  -11.6013  -15.2848 O   0  0  0  0  0  0  0  0  0  0  0  0
   24.8443  -10.5408  -15.7936 C   0  0  0  0  0  0  0  0  0  0  0  0
   23.6212  -11.0743  -16.5162 C   0  0  2  0  0  0  0  0  0  0  0  0
   23.9915  -11.7476  -17.7476 N   0  0  0  0  0  0  0  0  0  0  0  0
   22.7541   -9.8968  -16.8295 C   0  0  0  0  0  0  0  0  0  0  0  0
   22.9975   -9.1985  -17.8368 O   0  0  0  0  0  0  0  0  0  0  0  0
   16.8225   -9.4082  -14.9252 N   0  0  0  0  0  0  0  0  0  0  0  0
   17.0396   -8.1333  -15.5035 C   0  0  0  0  0  0  0  0  0  0  0  0
   16.0680   -7.3529  -15.6096 O   0  0  0  0  0  0  0  0  0  0  0  0
   18.3745   -7.7215  -15.9752 C   0  0  0  0  0  0  0  0  0  0  0  0
   19.4360   -8.7565  -15.8350 C   0  0  0  0  0  0  0  0  0  0  0  0
   20.8082   -8.3671  -16.2607 C   0  0  2  0  0  0  0  0  0  0  0  0
   21.6567   -9.5369  -16.0227 N   0  0  0  0  0  0  0  0  0  0  0  0
   21.3637   -7.1690  -15.5939 C   0  0  0  0  0  0  0  0  0  0  0  0
   21.9247   -7.3355  -14.4795 O   0  0  0  0  0  0  0  0  0  0  0  0
   21.3037   -5.8735  -16.1229 N   0  0  0  0  0  0  0  0  0  0  0  0
   22.0292   -4.7831  -15.4338 C   0  0  1  0  0  0  0  0  0  0  0  0
   22.2803   -3.6637  -16.3812 C   0  0  0  0  0  0  0  0  0  0  0  0
   22.9666   -2.5423  -15.7260 C   0  0  0  0  0  0  0  0  0  0  0  0
   23.2975   -2.5977  -14.5256 O   0  0  0  0  0  0  0  0  0  0  0  0
   21.2006   -4.3184  -14.3036 C   0  0  0  0  0  0  0  0  0  0  0  0
   19.9619   -4.7827  -13.9844 O   0  0  0  0  0  0  0  0  0  0  0  0
   23.2816   -1.3613  -16.4139 O   0  0  0  0  0  0  0  0  0  0  0  0
   21.6815   -3.4001  -13.5560 O   0  0  0  0  0  0  0  0  0  0  0  0
  2  1  1  0
  3  5  1  0
  3  2  1  0
  3  4  1  6
  5  6  2  0
  7  8  1  0
  8 10  1  0
  8  9  2  0
 10 11  1  0
 12 11  1  1
 13 12  1  0
 13  5  1  0
 14 15  2  0
 14 12  1  0
 16 14  1  0
 17 16  1  0
 17 21  1  0
 17 18  1  6
 19 18  1  0
 19 23  1  0
 20 19  2  0
 21 24  2  0
 21 22  1  0
M  END
$$$$
