SQD.pdb
     RDKit          3D

 24 23  0  0  1  0  0  0  0  0999 V2000
   16.9524  -16.2038  -14.8065 O   0  0  0  0  0  0  0  0  0  0  0  0
   17.9037  -15.1901  -14.8876 C   0  0  0  0  0  0  0  0  0  0  0  0
   18.7960  -15.4200  -16.0933 C   0  0  2  0  0  0  0  0  0  0  0  0
   19.3952  -16.7415  -16.0583 N   0  0  0  0  0  0  0  0  0  0  0  0
   19.8702  -14.3807  -16.0428 C   0  0  0  0  0  0  0  0  0  0  0  0
   20.5171  -14.2087  -14.9876 O   0  0  0  0  0  0  0  0  0  0  0  0
   21.2969  -15.2002  -19.5133 N   0  0  0  0  0  0  0  0  0  0  0  0
   22.6375  -14.9119  -19.1573 C   0  0  0  0  0  0  0  0  0  0  0  0
   23.5059  -15.7934  -19.3393 O   0  0  0  0  0  0  0  0  0  0  0  0
   23.0159  -13.6075  -18.5836 C   0  0  0  0  0  0  0  0  0  0  0  0
   21.9023  -12.6252  -18.4707 C   0  0  0  0  0  0  0  0  0  0  0  0
   21.2212  -12.5371  -17.1501 C   0  0  2  0  0  0  0  0  0  0  0  0
   20.1876  -13.5747  -17.1539 N   0  0  0  0  0  0  0  0  0  0  0  0
   20.6407  -11.2165  -16.8220 C   0  0  0  0  0  0  0  0  0  0  0  0
   19.3967  -11.0818  -16.9586 O   0  0  0  0  0  0  0  0  0  0  0  0
   21.3847  -10.1180  -16.3729 N   0  0  0  0  0  0  0  0  0  0  0  0
   20.6741   -8.8740  -16.0016 C   0  0  1  0  0  0  0  0  0  0  0  0
   19.7168   -9.1480  -14.8961 C   0  0  0  0  0  0  0  0  0  0  0  0
   19.0247   -7.9268  -14.4629 C   0  0  0  0  0  0  0  0  0  0  0  0
   18.2262   -7.3338  -15.2140 O   0  0  0  0  0  0  0  0  0  0  0  0
   21.6771   -7.8791  -15.5727 C   0  0  0  0  0  0  0  0  0  0  0  0
   23.0144   -8.1010  -15.4539 O   0  0  0  0  0  0  0  0  0  0  0  0
   19.2268   -7.3710  -13.1911 O   0  0  0  0  0  0  0  0  0  0  0  0
   21.2606   -6.7054  -15.2858 O   0  0  0  0  0  0  0  0  0  0  0  0
  2  1  1  0
  3  5  1  0
  3  2  1  0
  3  4  1  1
  5  6  2  0
  7  8  1  0
  8 10  1  0
  8  9  2  0
 10 11  1  0
 12 11  1  6
 13 12  1  0
 13  5  1  0
 14 15  2  0
 14 12  1  0
 16 14  1  0
 17 16  1  0
 17 21  1  0
 17 18  1  1
 19 18  1  0
 19 23  1  0
 20 19  2  0
 21 24  2  0
 21 22  1  0
M  END
$$$$
