SQD.pdb
     RDKit          3D

 24 23  0  0  1  0  0  0  0  0999 V2000
   15.1580  -13.3810  -16.0427 O   0  0  0  0  0  0  0  0  0  0  0  0
   15.3863  -12.0453  -15.7217 C   0  0  0  0  0  0  0  0  0  0  0  0
   16.4173  -11.9540  -14.6120 C   0  0  2  0  0  0  0  0  0  0  0  0
   16.3037  -13.0747  -13.6968 N   0  0  0  0  0  0  0  0  0  0  0  0
   16.1528  -10.6781  -13.8779 C   0  0  0  0  0  0  0  0  0  0  0  0
   16.2058   -9.5892  -14.4886 O   0  0  0  0  0  0  0  0  0  0  0  0
   12.3428  -10.4830   -8.9917 N   0  0  0  0  0  0  0  0  0  0  0  0
   12.8990   -9.1813   -8.9353 C   0  0  0  0  0  0  0  0  0  0  0  0
   12.4274   -8.3660   -8.1125 O   0  0  0  0  0  0  0  0  0  0  0  0
   14.0083   -8.7815   -9.8205 C   0  0  0  0  0  0  0  0  0  0  0  0
   14.4711   -9.8381  -10.7625 C   0  0  0  0  0  0  0  0  0  0  0  0
   15.5030   -9.4391  -11.7583 C   0  0  2  0  0  0  0  0  0  0  0  0
   15.8416  -10.6532  -12.5041 N   0  0  0  0  0  0  0  0  0  0  0  0
   16.7183   -8.8102  -11.1960 C   0  0  0  0  0  0  0  0  0  0  0  0
   17.7169   -9.5519  -11.0038 O   0  0  0  0  0  0  0  0  0  0  0  0
   16.8236   -7.4526  -10.8679 N   0  0  0  0  0  0  0  0  0  0  0  0
   18.1614   -6.8830  -10.5922 C   0  0  1  0  0  0  0  0  0  0  0  0
   19.0363   -7.0441  -11.7847 C   0  0  0  0  0  0  0  0  0  0  0  0
   20.3508   -6.4207  -11.5811 C   0  0  0  0  0  0  0  0  0  0  0  0
   20.5228   -5.1991  -11.7593 O   0  0  0  0  0  0  0  0  0  0  0  0
   17.9969   -5.4515  -10.2701 C   0  0  0  0  0  0  0  0  0  0  0  0
   16.8396   -4.7430  -10.3728 O   0  0  0  0  0  0  0  0  0  0  0  0
   21.4702   -7.1638  -11.1789 O   0  0  0  0  0  0  0  0  0  0  0  0
   19.0266   -4.8157   -9.8592 O   0  0  0  0  0  0  0  0  0  0  0  0
  2  1  1  0
  3  5  1  0
  3  2  1  0
  3  4  1  1
  5  6  2  0
  7  8  1  0
  8 10  1  0
  8  9  2  0
 10 11  1  0
 12 11  1  1
 13 12  1  0
 13  5  1  0
 14 15  2  0
 14 12  1  0
 16 14  1  0
 17 16  1  0
 17 21  1  0
 17 18  1  6
 19 18  1  0
 19 23  1  0
 20 19  2  0
 21 24  2  0
 21 22  1  0
M  END
$$$$
