SQD.pdb
     RDKit          3D

 24 23  0  0  1  0  0  0  0  0999 V2000
   18.4018  -14.3809  -17.2235 O   0  0  0  0  0  0  0  0  0  0  0  0
   19.4482  -15.1194  -17.7701 C   0  0  0  0  0  0  0  0  0  0  0  0
   20.2175  -15.8154  -16.6627 C   0  0  2  0  0  0  0  0  0  0  0  0
   19.3375  -16.6288  -15.8437 N   0  0  0  0  0  0  0  0  0  0  0  0
   20.8351  -14.7430  -15.8230 C   0  0  0  0  0  0  0  0  0  0  0  0
   20.2525  -14.3532  -14.7885 O   0  0  0  0  0  0  0  0  0  0  0  0
   26.9592  -13.5336  -16.0291 N   0  0  0  0  0  0  0  0  0  0  0  0
   26.2775  -14.4978  -15.2464 C   0  0  0  0  0  0  0  0  0  0  0  0
   26.9389  -15.4301  -14.7389 O   0  0  0  0  0  0  0  0  0  0  0  0
   24.8217  -14.4182  -15.0268 C   0  0  0  0  0  0  0  0  0  0  0  0
   24.1651  -13.2131  -15.6051 C   0  0  0  0  0  0  0  0  0  0  0  0
   22.7002  -13.0776  -15.3783 C   0  0  2  0  0  0  0  0  0  0  0  0
   22.0664  -14.1447  -16.1558 N   0  0  0  0  0  0  0  0  0  0  0  0
   22.1234  -11.7599  -15.7245 C   0  0  0  0  0  0  0  0  0  0  0  0
   21.9392  -11.5121  -16.9447 O   0  0  0  0  0  0  0  0  0  0  0  0
   21.7735  -10.7814  -14.7855 N   0  0  0  0  0  0  0  0  0  0  0  0
   21.2085   -9.4993  -15.2623 C   0  0  1  0  0  0  0  0  0  0  0  0
   20.1921   -9.0030  -14.2958 C   0  0  0  0  0  0  0  0  0  0  0  0
   19.6055   -7.7289  -14.7322 C   0  0  0  0  0  0  0  0  0  0  0  0
   19.4179   -7.4820  -15.9394 O   0  0  0  0  0  0  0  0  0  0  0  0
   22.3116   -8.5259  -15.3870 C   0  0  0  0  0  0  0  0  0  0  0  0
   22.2427   -7.3263  -16.0259 O   0  0  0  0  0  0  0  0  0  0  0  0
   19.2299   -6.7333  -13.8184 O   0  0  0  0  0  0  0  0  0  0  0  0
   23.4317   -8.8296  -14.8517 O   0  0  0  0  0  0  0  0  0  0  0  0
  2  1  1  0
  3  5  1  0
  3  2  1  0
  3  4  1  1
  5  6  2  0
  7  8  1  0
  8 10  1  0
  8  9  2  0
 10 11  1  0
 12 11  1  6
 13 12  1  0
 13  5  1  0
 14 15  2  0
 14 12  1  0
 16 14  1  0
 17 16  1  0
 17 21  1  0
 17 18  1  1
 19 18  1  0
 19 23  1  0
 20 19  2  0
 21 24  2  0
 21 22  1  0
M  END
$$$$
