SQD.pdb
     RDKit          3D

 24 23  0  0  1  0  0  0  0  0999 V2000
   22.9401  -11.0369  -20.6121 O   0  0  0  0  0  0  0  0  0  0  0  0
   23.3086  -11.5578  -19.3743 C   0  0  0  0  0  0  0  0  0  0  0  0
   22.0988  -12.1751  -18.6975 C   0  0  2  0  0  0  0  0  0  0  0  0
   21.3998  -13.0777  -19.5938 N   0  0  0  0  0  0  0  0  0  0  0  0
   21.1936  -11.0480  -18.3143 C   0  0  0  0  0  0  0  0  0  0  0  0
   20.4112  -10.5661  -19.1612 O   0  0  0  0  0  0  0  0  0  0  0  0
   17.1628  -11.1431  -14.1829 N   0  0  0  0  0  0  0  0  0  0  0  0
   17.2834   -9.7325  -14.2364 C   0  0  0  0  0  0  0  0  0  0  0  0
   16.4634   -9.0389  -13.5955 O   0  0  0  0  0  0  0  0  0  0  0  0
   18.3454   -9.0822  -15.0258 C   0  0  0  0  0  0  0  0  0  0  0  0
   19.2742  -10.0178  -15.7185 C   0  0  0  0  0  0  0  0  0  0  0  0
   20.3122   -9.4038  -16.5910 C   0  0  2  0  0  0  0  0  0  0  0  0
   21.1869  -10.4985  -17.0171 N   0  0  0  0  0  0  0  0  0  0  0  0
   21.0969   -8.3127  -15.9727 C   0  0  0  0  0  0  0  0  0  0  0  0
   22.0842   -8.6405  -15.2641 O   0  0  0  0  0  0  0  0  0  0  0  0
   20.8102   -6.9504  -16.1269 N   0  0  0  0  0  0  0  0  0  0  0  0
   21.6865   -5.9544  -15.4708 C   0  0  1  0  0  0  0  0  0  0  0  0
   21.4800   -4.6152  -16.0853 C   0  0  0  0  0  0  0  0  0  0  0  0
   22.3553   -3.6011  -15.4824 C   0  0  0  0  0  0  0  0  0  0  0  0
   23.3351   -3.9244  -14.7832 O   0  0  0  0  0  0  0  0  0  0  0  0
   21.3466   -5.9144  -14.0346 C   0  0  0  0  0  0  0  0  0  0  0  0
   22.1496   -5.4431  -13.0421 O   0  0  0  0  0  0  0  0  0  0  0  0
   22.1336   -2.2279  -15.6623 O   0  0  0  0  0  0  0  0  0  0  0  0
   20.2008   -6.3599  -13.6854 O   0  0  0  0  0  0  0  0  0  0  0  0
  2  1  1  0
  3  5  1  0
  3  2  1  0
  3  4  1  6
  5  6  2  0
  7  8  1  0
  8 10  1  0
  8  9  2  0
 10 11  1  0
 12 11  1  1
 13 12  1  0
 13  5  1  0
 14 15  2  0
 14 12  1  0
 16 14  1  0
 17 16  1  0
 17 21  1  0
 17 18  1  6
 19 18  1  0
 19 23  1  0
 20 19  2  0
 21 24  2  0
 21 22  1  0
M  END
$$$$
