SQD.pdb
     RDKit          3D

 24 23  0  0  1  0  0  0  0  0999 V2000
   14.1794   -8.8944  -16.1349 O   0  0  0  0  0  0  0  0  0  0  0  0
   15.4659   -8.8787  -15.6021 C   0  0  0  0  0  0  0  0  0  0  0  0
   16.1433  -10.2120  -15.8593 C   0  0  2  0  0  0  0  0  0  0  0  0
   15.5713  -11.2592  -15.0330 N   0  0  0  0  0  0  0  0  0  0  0  0
   17.5889  -10.0372  -15.5182 C   0  0  0  0  0  0  0  0  0  0  0  0
   18.2575  -11.0195  -15.1314 O   0  0  0  0  0  0  0  0  0  0  0  0
   21.8434  -11.0845  -18.1262 N   0  0  0  0  0  0  0  0  0  0  0  0
   22.5696  -10.3035  -17.1936 C   0  0  0  0  0  0  0  0  0  0  0  0
   23.8182  -10.3750  -17.1995 O   0  0  0  0  0  0  0  0  0  0  0  0
   21.8833   -9.4224  -16.2309 C   0  0  0  0  0  0  0  0  0  0  0  0
   20.3965   -9.5029  -16.2566 C   0  0  0  0  0  0  0  0  0  0  0  0
   19.6623   -8.5805  -15.3479 C   0  0  2  0  0  0  0  0  0  0  0  0
   18.2380   -8.7907  -15.6166 N   0  0  0  0  0  0  0  0  0  0  0  0
   20.0166   -7.1497  -15.4742 C   0  0  0  0  0  0  0  0  0  0  0  0
   19.8264   -6.6035  -16.5921 O   0  0  0  0  0  0  0  0  0  0  0  0
   20.5456   -6.3739  -14.4348 N   0  0  0  0  0  0  0  0  0  0  0  0
   20.8374   -4.9445  -14.6837 C   0  0  1  0  0  0  0  0  0  0  0  0
   19.7160   -4.1040  -14.1842 C   0  0  0  0  0  0  0  0  0  0  0  0
   19.9898   -2.6720  -14.3638 C   0  0  0  0  0  0  0  0  0  0  0  0
   20.7343   -2.2644  -15.2766 O   0  0  0  0  0  0  0  0  0  0  0  0
   22.0875   -4.5983  -13.9786 C   0  0  0  0  0  0  0  0  0  0  0  0
   22.7700   -5.4120  -13.1277 O   0  0  0  0  0  0  0  0  0  0  0  0
   19.4312   -1.6985  -13.5228 O   0  0  0  0  0  0  0  0  0  0  0  0
   22.5769   -3.4348  -14.1792 O   0  0  0  0  0  0  0  0  0  0  0  0
  2  1  1  0
  3  5  1  0
  3  2  1  0
  3  4  1  1
  5  6  2  0
  7  8  1  0
  8 10  1  0
  8  9  2  0
 10 11  1  0
 12 11  1  6
 13 12  1  0
 13  5  1  0
 14 15  2  0
 14 12  1  0
 16 14  1  0
 17 16  1  0
 17 21  1  0
 17 18  1  1
 19 18  1  0
 19 23  1  0
 20 19  2  0
 21 24  2  0
 21 22  1  0
M  END
$$$$
