SQD.pdb
     RDKit          3D

 24 23  0  0  1  0  0  0  0  0999 V2000
   12.8928  -11.2962  -16.9190 O   0  0  0  0  0  0  0  0  0  0  0  0
   13.6411  -10.3162  -16.2718 C   0  0  0  0  0  0  0  0  0  0  0  0
   14.9810  -10.8901  -15.8497 C   0  0  2  0  0  0  0  0  0  0  0  0
   14.8162  -11.9200  -14.8404 N   0  0  0  0  0  0  0  0  0  0  0  0
   15.7796   -9.7584  -15.2858 C   0  0  0  0  0  0  0  0  0  0  0  0
   15.3184   -9.0857  -14.3391 O   0  0  0  0  0  0  0  0  0  0  0  0
   21.8765  -10.1124  -14.8865 N   0  0  0  0  0  0  0  0  0  0  0  0
   21.6693   -8.7856  -14.4351 C   0  0  0  0  0  0  0  0  0  0  0  0
   22.6377   -8.1640  -13.9452 O   0  0  0  0  0  0  0  0  0  0  0  0
   20.3478   -8.1390  -14.5328 C   0  0  0  0  0  0  0  0  0  0  0  0
   19.2603   -9.0107  -15.0574 C   0  0  0  0  0  0  0  0  0  0  0  0
   17.9160   -8.3877  -15.2006 C   0  0  2  0  0  0  0  0  0  0  0  0
   17.0508   -9.4141  -15.7862 N   0  0  0  0  0  0  0  0  0  0  0  0
   17.8745   -7.1444  -16.0012 C   0  0  0  0  0  0  0  0  0  0  0  0
   17.5669   -7.2497  -17.2171 O   0  0  0  0  0  0  0  0  0  0  0  0
   18.1542   -5.8697  -15.4925 N   0  0  0  0  0  0  0  0  0  0  0  0
   18.0691   -4.7018  -16.3976 C   0  0  1  0  0  0  0  0  0  0  0  0
   16.6858   -4.5732  -16.9300 C   0  0  0  0  0  0  0  0  0  0  0  0
   16.5346   -3.3723  -17.7624 C   0  0  0  0  0  0  0  0  0  0  0  0
   17.4986   -2.8951  -18.3921 O   0  0  0  0  0  0  0  0  0  0  0  0
   18.4344   -3.4946  -15.6301 C   0  0  0  0  0  0  0  0  0  0  0  0
   18.8158   -2.3015  -16.1620 O   0  0  0  0  0  0  0  0  0  0  0  0
   15.3062   -2.7072  -17.8892 O   0  0  0  0  0  0  0  0  0  0  0  0
   18.3917   -3.5690  -14.3550 O   0  0  0  0  0  0  0  0  0  0  0  0
  2  1  1  0
  3  5  1  0
  3  2  1  0
  3  4  1  1
  5  6  2  0
  7  8  1  0
  8 10  1  0
  8  9  2  0
 10 11  1  0
 12 11  1  6
 13 12  1  0
 13  5  1  0
 14 15  2  0
 14 12  1  0
 16 14  1  0
 17 16  1  0
 17 21  1  0
 17 18  1  1
 19 18  1  0
 19 23  1  0
 20 19  2  0
 21 24  2  0
 21 22  1  0
M  END
$$$$
