SQD.pdb
     RDKit          3D

 24 23  0  0  1  0  0  0  0  0999 V2000
   13.5303   -9.6551  -11.7860 O   0  0  0  0  0  0  0  0  0  0  0  0
   14.6901   -8.9014  -11.9475 C   0  0  0  0  0  0  0  0  0  0  0  0
   15.9073   -9.7930  -11.7861 C   0  0  2  0  0  0  0  0  0  0  0  0
   16.0043  -10.3085  -10.4328 N   0  0  0  0  0  0  0  0  0  0  0  0
   17.1055   -8.9509  -12.0891 C   0  0  0  0  0  0  0  0  0  0  0  0
   17.5151   -8.1283  -11.2423 O   0  0  0  0  0  0  0  0  0  0  0  0
   21.9720  -10.8255  -15.3270 N   0  0  0  0  0  0  0  0  0  0  0  0
   22.1862   -9.4255  -15.3596 C   0  0  0  0  0  0  0  0  0  0  0  0
   23.2567   -8.9967  -15.8436 O   0  0  0  0  0  0  0  0  0  0  0  0
   21.1798   -8.4826  -14.8379 C   0  0  0  0  0  0  0  0  0  0  0  0
   19.9462   -9.1177  -14.2971 C   0  0  0  0  0  0  0  0  0  0  0  0
   18.9451   -8.2086  -13.6749 C   0  0  2  0  0  0  0  0  0  0  0  0
   17.8024   -9.0486  -13.3096 N   0  0  0  0  0  0  0  0  0  0  0  0
   18.5143   -7.0691  -14.5143 C   0  0  0  0  0  0  0  0  0  0  0  0
   17.4024   -7.1674  -15.0959 O   0  0  0  0  0  0  0  0  0  0  0  0
   19.2618   -5.8991  -14.6989 N   0  0  0  0  0  0  0  0  0  0  0  0
   18.7222   -4.8336  -15.5729 C   0  0  1  0  0  0  0  0  0  0  0  0
   17.4398   -4.3235  -15.0171 C   0  0  0  0  0  0  0  0  0  0  0  0
   16.8805   -3.2462  -15.8445 C   0  0  0  0  0  0  0  0  0  0  0  0
   17.0711   -3.2098  -17.0758 O   0  0  0  0  0  0  0  0  0  0  0  0
   19.7168   -3.7447  -15.6424 C   0  0  0  0  0  0  0  0  0  0  0  0
   19.6079   -2.6177  -16.3973 O   0  0  0  0  0  0  0  0  0  0  0  0
   16.1097   -2.2118  -15.2941 O   0  0  0  0  0  0  0  0  0  0  0  0
   20.7748   -3.8641  -14.9355 O   0  0  0  0  0  0  0  0  0  0  0  0
  2  1  1  0
  3  5  1  0
  3  2  1  0
  3  4  1  1
  5  6  2  0
  7  8  1  0
  8 10  1  0
  8  9  2  0
 10 11  1  0
 12 11  1  6
 13 12  1  0
 13  5  1  0
 14 15  2  0
 14 12  1  0
 16 14  1  0
 17 16  1  0
 17 21  1  0
 17 18  1  1
 19 18  1  0
 19 23  1  0
 20 19  2  0
 21 24  2  0
 21 22  1  0
M  END
$$$$
