SQD.pdb
     RDKit          3D

 24 23  0  0  1  0  0  0  0  0999 V2000
   27.5097  -11.0950  -15.0865 O   0  0  0  0  0  0  0  0  0  0  0  0
   26.4406  -10.3995  -15.6455 C   0  0  0  0  0  0  0  0  0  0  0  0
   25.5293  -11.3650  -16.3804 C   0  0  2  0  0  0  0  0  0  0  0  0
   26.1739  -11.8936  -17.5685 N   0  0  0  0  0  0  0  0  0  0  0  0
   24.3079  -10.5961  -16.7724 C   0  0  0  0  0  0  0  0  0  0  0  0
   24.2734  -10.0071  -17.8739 O   0  0  0  0  0  0  0  0  0  0  0  0
   18.6440  -12.3664  -15.2392 N   0  0  0  0  0  0  0  0  0  0  0  0
   18.3686  -11.0525  -15.6919 C   0  0  0  0  0  0  0  0  0  0  0  0
   17.1759  -10.6822  -15.7587 O   0  0  0  0  0  0  0  0  0  0  0  0
   19.4524  -10.1313  -16.0801 C   0  0  0  0  0  0  0  0  0  0  0  0
   20.8243  -10.7038  -15.9907 C   0  0  0  0  0  0  0  0  0  0  0  0
   21.9537   -9.7791  -16.2822 C   0  0  2  0  0  0  0  0  0  0  0  0
   23.1768  -10.5072  -15.9372 N   0  0  0  0  0  0  0  0  0  0  0  0
   21.9027   -8.4751  -15.5852 C   0  0  0  0  0  0  0  0  0  0  0  0
   22.4941   -8.3881  -14.4776 O   0  0  0  0  0  0  0  0  0  0  0  0
   21.2425   -7.3428  -16.0790 N   0  0  0  0  0  0  0  0  0  0  0  0
   21.3213   -6.0770  -15.3161 C   0  0  1  0  0  0  0  0  0  0  0  0
   22.6331   -5.4190  -15.5605 C   0  0  0  0  0  0  0  0  0  0  0  0
   22.7061   -4.0999  -14.9183 C   0  0  0  0  0  0  0  0  0  0  0  0
   21.7633   -3.6609  -14.2313 O   0  0  0  0  0  0  0  0  0  0  0  0
   20.2201   -5.1998  -15.7609 C   0  0  0  0  0  0  0  0  0  0  0  0
   19.5914   -4.2659  -14.9964 O   0  0  0  0  0  0  0  0  0  0  0  0
   23.8326   -3.2740  -15.0453 O   0  0  0  0  0  0  0  0  0  0  0  0
   19.8163   -5.3230  -16.9672 O   0  0  0  0  0  0  0  0  0  0  0  0
  2  1  1  0
  3  5  1  0
  3  2  1  0
  3  4  1  6
  5  6  2  0
  7  8  1  0
  8 10  1  0
  8  9  2  0
 10 11  1  0
 12 11  1  1
 13 12  1  0
 13  5  1  0
 14 15  2  0
 14 12  1  0
 16 14  1  0
 17 16  1  0
 17 21  1  0
 17 18  1  6
 19 18  1  0
 19 23  1  0
 20 19  2  0
 21 24  2  0
 21 22  1  0
M  END
$$$$
