DGY.pdb
     RDKit          3D

 25 25  0  0  1  0  0  0  0  0999 V2000
   10.0142  -18.7948   18.4408 N   0  0  0  0  0  0  0  0  0  0  0  0
   10.0995  -17.3900   18.0873 C   0  0  1  0  0  0  0  0  0  0  0  0
    9.6107  -17.2549   16.6591 C   0  0  0  0  0  0  0  0  0  0  0  0
   10.6760  -17.6381   15.6977 C   0  0  0  0  0  0  0  0  0  0  0  0
   11.8401  -17.9022   16.0850 O   0  0  0  0  0  0  0  0  0  0  0  0
    9.2816  -16.6297   19.0371 C   0  0  0  0  0  0  0  0  0  0  0  0
    9.2151  -15.3662   19.0243 O   0  0  0  0  0  0  0  0  0  0  0  0
   10.4085  -17.7136   14.3418 O   0  0  0  0  0  0  0  0  0  0  0  0
    8.4894  -17.2710   20.0601 N   0  0  0  0  0  0  0  0  0  0  0  0
    7.8559  -16.5136   21.0916 C   0  0  0  0  0  0  0  0  0  0  0  0
    8.6783  -16.1735   22.2462 C   0  0  0  0  0  0  0  0  0  0  0  0
    9.9504  -16.1760   22.1266 O   0  0  0  0  0  0  0  0  0  0  0  0
   11.2054  -14.4886   30.5705 O   0  0  0  0  0  0  0  0  0  0  0  0
   10.4990  -14.5548   29.3684 C   0  0  0  0  0  0  0  0  0  0  0  0
   10.3027  -13.4290   28.5819 C   0  0  0  0  0  0  0  0  0  0  0  0
    9.5967  -13.5563   27.4044 C   0  0  0  0  0  0  0  0  0  0  0  0
    9.0873  -14.7989   27.0095 C   0  0  0  0  0  0  0  0  0  0  0  0
    8.3248  -14.9517   25.7614 C   0  0  0  0  0  0  0  0  0  0  0  0
    9.1332  -15.5278   24.6321 C   0  0  2  0  0  0  0  0  0  0  0  0
    8.1962  -15.8284   23.5327 N   0  0  0  0  0  0  0  0  0  0  0  0
    9.8225  -16.7716   25.0112 C   0  0  0  0  0  0  0  0  0  0  0  0
   11.1704  -16.7686   25.3337 O   0  0  0  0  0  0  0  0  0  0  0  0
    9.2897  -15.9108   27.8015 C   0  0  0  0  0  0  0  0  0  0  0  0
    9.9959  -15.7759   28.9762 C   0  0  0  0  0  0  0  0  0  0  0  0
    9.2172  -17.8715   25.0553 O   0  0  0  0  0  0  0  0  0  0  0  0
  2  1  1  1
  2  3  1  0
  3  4  1  0
  4  5  2  0
  6  2  1  0
  7  6  2  0
  8  4  1  0
  9  6  1  0
 10 11  1  0
 10  9  1  0
 11 12  2  0
 14 13  1  0
 14 24  2  0
 15 14  1  0
 16 15  2  0
 16 17  1  0
 17 23  2  0
 18 17  1  0
 19 18  1  1
 20 19  1  0
 20 11  1  0
 21 19  1  0
 22 21  1  0
 23 24  1  0
 25 21  2  0
M  END
$$$$
