DGY.pdb
     RDKit          3D

 25 25  0  0  1  0  0  0  0  0999 V2000
   11.3236  -18.2481   18.5706 N   0  0  0  0  0  0  0  0  0  0  0  0
    9.9876  -18.0269   18.0494 C   0  0  1  0  0  0  0  0  0  0  0  0
    9.5140  -19.3376   17.4540 C   0  0  0  0  0  0  0  0  0  0  0  0
   10.3054  -19.6857   16.2464 C   0  0  0  0  0  0  0  0  0  0  0  0
   10.0867  -19.1327   15.1412 O   0  0  0  0  0  0  0  0  0  0  0  0
    9.1372  -17.5691   19.1524 C   0  0  0  0  0  0  0  0  0  0  0  0
    7.8983  -17.3509   19.0160 O   0  0  0  0  0  0  0  0  0  0  0  0
   11.3104  -20.6353   16.3113 O   0  0  0  0  0  0  0  0  0  0  0  0
    9.6547  -17.3332   20.4798 N   0  0  0  0  0  0  0  0  0  0  0  0
    8.7926  -16.9695   21.5584 C   0  0  0  0  0  0  0  0  0  0  0  0
    9.4337  -16.6973   22.8390 C   0  0  0  0  0  0  0  0  0  0  0  0
   10.5660  -17.2317   23.0942 O   0  0  0  0  0  0  0  0  0  0  0  0
    4.4895  -12.4765   27.0735 O   0  0  0  0  0  0  0  0  0  0  0  0
    5.7317  -12.9038   26.6015 C   0  0  0  0  0  0  0  0  0  0  0  0
    5.8702  -14.0965   25.9066 C   0  0  0  0  0  0  0  0  0  0  0  0
    7.1229  -14.4662   25.4648 C   0  0  0  0  0  0  0  0  0  0  0  0
    8.2349  -13.6530   25.7129 C   0  0  0  0  0  0  0  0  0  0  0  0
    9.5796  -14.0354   25.2567 C   0  0  0  0  0  0  0  0  0  0  0  0
    9.7393  -15.5139   25.0350 C   0  0  2  0  0  0  0  0  0  0  0  0
    8.9132  -15.8724   23.8663 N   0  0  0  0  0  0  0  0  0  0  0  0
    9.2858  -16.3078   26.1884 C   0  0  0  0  0  0  0  0  0  0  0  0
   10.0641  -16.4129   27.3303 O   0  0  0  0  0  0  0  0  0  0  0  0
    8.0831  -12.4691   26.4057 C   0  0  0  0  0  0  0  0  0  0  0  0
    6.8288  -12.1064   26.8438 C   0  0  0  0  0  0  0  0  0  0  0  0
    8.1852  -16.9134   26.1777 O   0  0  0  0  0  0  0  0  0  0  0  0
  2  1  1  1
  2  3  1  0
  3  4  1  0
  4  5  2  0
  6  2  1  0
  7  6  2  0
  8  4  1  0
  9  6  1  0
 10 11  1  0
 10  9  1  0
 11 12  2  0
 14 13  1  0
 14 24  2  0
 15 14  1  0
 16 15  2  0
 16 17  1  0
 17 23  2  0
 18 17  1  0
 19 18  1  1
 20 19  1  0
 20 11  1  0
 21 19  1  0
 22 21  1  0
 23 24  1  0
 25 21  2  0
M  END
$$$$
