DGY.pdb
     RDKit          3D

 25 25  0  0  1  0  0  0  0  0999 V2000
   11.4659  -17.3501   23.3482 N   0  0  0  0  0  0  0  0  0  0  0  0
   10.9058  -16.3700   22.4365 C   0  0  1  0  0  0  0  0  0  0  0  0
   11.2153  -16.8368   21.0282 C   0  0  0  0  0  0  0  0  0  0  0  0
   12.6069  -16.4829   20.6483 C   0  0  0  0  0  0  0  0  0  0  0  0
   13.3956  -15.9606   21.4729 O   0  0  0  0  0  0  0  0  0  0  0  0
    9.4659  -16.2760   22.6953 C   0  0  0  0  0  0  0  0  0  0  0  0
    8.6957  -15.5364   22.0166 O   0  0  0  0  0  0  0  0  0  0  0  0
   13.0705  -16.7225   19.3663 O   0  0  0  0  0  0  0  0  0  0  0  0
    8.8202  -17.0242   23.7482 N   0  0  0  0  0  0  0  0  0  0  0  0
    7.4291  -16.8631   24.0272 C   0  0  0  0  0  0  0  0  0  0  0  0
    7.0791  -15.8640   25.0294 C   0  0  0  0  0  0  0  0  0  0  0  0
    5.9636  -15.9638   25.6445 O   0  0  0  0  0  0  0  0  0  0  0  0
   11.3556  -17.0408   30.0537 O   0  0  0  0  0  0  0  0  0  0  0  0
   10.6416  -16.0629   29.3592 C   0  0  0  0  0  0  0  0  0  0  0  0
    9.8335  -15.1502   30.0215 C   0  0  0  0  0  0  0  0  0  0  0  0
    9.1524  -14.2069   29.2817 C   0  0  0  0  0  0  0  0  0  0  0  0
    9.2740  -14.1706   27.8876 C   0  0  0  0  0  0  0  0  0  0  0  0
    8.5486  -13.1771   27.0818 C   0  0  0  0  0  0  0  0  0  0  0  0
    7.3632  -13.7466   26.3530 C   0  0  2  0  0  0  0  0  0  0  0  0
    7.8757  -14.7547   25.4054 N   0  0  0  0  0  0  0  0  0  0  0  0
    6.6256  -12.7243   25.5935 C   0  0  0  0  0  0  0  0  0  0  0  0
    6.6397  -12.7191   24.2077 O   0  0  0  0  0  0  0  0  0  0  0  0
   10.0812  -15.0846   27.2414 C   0  0  0  0  0  0  0  0  0  0  0  0
   10.7584  -16.0238   27.9870 C   0  0  0  0  0  0  0  0  0  0  0  0
    5.9623  -11.8273   26.1710 O   0  0  0  0  0  0  0  0  0  0  0  0
  2  1  1  1
  2  3  1  0
  3  4  1  0
  4  5  2  0
  6  2  1  0
  7  6  2  0
  8  4  1  0
  9  6  1  0
 10 11  1  0
 10  9  1  0
 11 12  2  0
 14 13  1  0
 14 24  2  0
 15 14  1  0
 16 15  2  0
 16 17  1  0
 17 23  2  0
 18 17  1  0
 19 18  1  6
 20 19  1  0
 20 11  1  0
 21 19  1  0
 22 21  1  0
 23 24  1  0
 25 21  2  0
M  END
$$$$
