DGY.pdb
     RDKit          3D

 25 25  0  0  1  0  0  0  0  0999 V2000
    9.4627  -16.5105   19.1788 N   0  0  0  0  0  0  0  0  0  0  0  0
    9.5569  -17.6566   20.0638 C   0  0  1  0  0  0  0  0  0  0  0  0
   10.7708  -18.4569   19.6361 C   0  0  0  0  0  0  0  0  0  0  0  0
   11.1161  -18.1761   18.2191 C   0  0  0  0  0  0  0  0  0  0  0  0
   10.4067  -17.4198   17.5122 O   0  0  0  0  0  0  0  0  0  0  0  0
    9.6636  -17.1632   21.4401 C   0  0  0  0  0  0  0  0  0  0  0  0
    9.7802  -17.9345   22.4363 O   0  0  0  0  0  0  0  0  0  0  0  0
   12.2367  -18.7460   17.6400 O   0  0  0  0  0  0  0  0  0  0  0  0
    9.6432  -15.7549   21.7593 N   0  0  0  0  0  0  0  0  0  0  0  0
    9.6766  -15.3004   23.1125 C   0  0  0  0  0  0  0  0  0  0  0  0
    8.3871  -15.0935   23.7602 C   0  0  0  0  0  0  0  0  0  0  0  0
    7.4650  -15.9641   23.6032 O   0  0  0  0  0  0  0  0  0  0  0  0
   10.8688  -14.4842   30.0778 O   0  0  0  0  0  0  0  0  0  0  0  0
    9.8382  -14.6760   29.1561 C   0  0  0  0  0  0  0  0  0  0  0  0
    9.1145  -15.8590   29.1161 C   0  0  0  0  0  0  0  0  0  0  0  0
    8.1076  -15.9904   28.1833 C   0  0  0  0  0  0  0  0  0  0  0  0
    7.8207  -14.9491   27.2927 C   0  0  0  0  0  0  0  0  0  0  0  0
    6.7563  -15.0749   26.2859 C   0  0  0  0  0  0  0  0  0  0  0  0
    6.7443  -13.9544   25.2833 C   0  0  2  0  0  0  0  0  0  0  0  0
    8.0379  -13.9883   24.5746 N   0  0  0  0  0  0  0  0  0  0  0  0
    6.5934  -12.6345   25.9167 C   0  0  0  0  0  0  0  0  0  0  0  0
    5.4393  -12.3054   26.6099 O   0  0  0  0  0  0  0  0  0  0  0  0
    8.5486  -13.7777   27.3432 C   0  0  0  0  0  0  0  0  0  0  0  0
    9.5527  -13.6538   28.2777 C   0  0  0  0  0  0  0  0  0  0  0  0
    7.4992  -11.7666   25.8514 O   0  0  0  0  0  0  0  0  0  0  0  0
  2  1  1  6
  2  3  1  0
  3  4  1  0
  4  5  2  0
  6  2  1  0
  7  6  2  0
  8  4  1  0
  9  6  1  0
 10 11  1  0
 10  9  1  0
 11 12  2  0
 14 13  1  0
 14 24  2  0
 15 14  1  0
 16 15  2  0
 16 17  1  0
 17 23  2  0
 18 17  1  0
 19 18  1  1
 20 19  1  0
 20 11  1  0
 21 19  1  0
 22 21  1  0
 23 24  1  0
 25 21  2  0
M  END
$$$$
