DGY.pdb
     RDKit          3D

 25 25  0  0  1  0  0  0  0  0999 V2000
    8.2826  -20.8807   21.0145 N   0  0  0  0  0  0  0  0  0  0  0  0
    9.7263  -20.9263   21.1525 C   0  0  1  0  0  0  0  0  0  0  0  0
   10.2908  -21.3933   19.8259 C   0  0  0  0  0  0  0  0  0  0  0  0
   10.3119  -22.8767   19.7536 C   0  0  0  0  0  0  0  0  0  0  0  0
   10.5651  -23.5756   20.7647 O   0  0  0  0  0  0  0  0  0  0  0  0
   10.1921  -19.5864   21.5228 C   0  0  0  0  0  0  0  0  0  0  0  0
   11.4136  -19.3140   21.7090 O   0  0  0  0  0  0  0  0  0  0  0  0
   10.0508  -23.5285   18.5608 O   0  0  0  0  0  0  0  0  0  0  0  0
    9.2862  -18.4763   21.7023 N   0  0  0  0  0  0  0  0  0  0  0  0
    9.7569  -17.1948   22.1211 C   0  0  0  0  0  0  0  0  0  0  0  0
    9.5993  -16.8751   23.5346 C   0  0  0  0  0  0  0  0  0  0  0  0
    9.9281  -15.7124   23.9501 O   0  0  0  0  0  0  0  0  0  0  0  0
    5.1190  -22.2878   25.5876 O   0  0  0  0  0  0  0  0  0  0  0  0
    5.7565  -21.0591   25.7672 C   0  0  0  0  0  0  0  0  0  0  0  0
    5.6946  -20.0642   24.8023 C   0  0  0  0  0  0  0  0  0  0  0  0
    6.3446  -18.8709   25.0361 C   0  0  0  0  0  0  0  0  0  0  0  0
    7.0540  -18.6668   26.2254 C   0  0  0  0  0  0  0  0  0  0  0  0
    7.7601  -17.4038   26.4881 C   0  0  0  0  0  0  0  0  0  0  0  0
    9.1669  -17.3823   25.9578 C   0  0  2  0  0  0  0  0  0  0  0  0
    9.1017  -17.7509   24.5307 N   0  0  0  0  0  0  0  0  0  0  0  0
   10.0431  -18.3422   26.6484 C   0  0  0  0  0  0  0  0  0  0  0  0
   10.6789  -19.3560   25.9494 O   0  0  0  0  0  0  0  0  0  0  0  0
    7.1077  -19.6650   27.1768 C   0  0  0  0  0  0  0  0  0  0  0  0
    6.4560  -20.8542   26.9363 C   0  0  0  0  0  0  0  0  0  0  0  0
   10.2434  -18.2764   27.8868 O   0  0  0  0  0  0  0  0  0  0  0  0
  2  1  1  6
  2  3  1  0
  3  4  1  0
  4  5  2  0
  6  2  1  0
  7  6  2  0
  8  4  1  0
  9  6  1  0
 10 11  1  0
 10  9  1  0
 11 12  2  0
 14 13  1  0
 14 24  2  0
 15 14  1  0
 16 15  2  0
 16 17  1  0
 17 23  2  0
 18 17  1  0
 19 18  1  1
 20 19  1  0
 20 11  1  0
 21 19  1  0
 22 21  1  0
 23 24  1  0
 25 21  2  0
M  END
$$$$
