DGY.pdb
     RDKit          3D

 25 25  0  0  1  0  0  0  0  0999 V2000
   10.7799  -16.9097   20.1221 N   0  0  0  0  0  0  0  0  0  0  0  0
    9.7004  -16.5787   19.2107 C   0  0  1  0  0  0  0  0  0  0  0  0
    9.6135  -17.6967   18.1912 C   0  0  0  0  0  0  0  0  0  0  0  0
   10.9131  -17.8798   17.4959 C   0  0  0  0  0  0  0  0  0  0  0  0
   11.9053  -17.1608   17.7673 O   0  0  0  0  0  0  0  0  0  0  0  0
    8.4698  -16.4334   19.9940 C   0  0  0  0  0  0  0  0  0  0  0  0
    7.3339  -16.2730   19.4601 O   0  0  0  0  0  0  0  0  0  0  0  0
   11.0623  -18.8548   16.5248 O   0  0  0  0  0  0  0  0  0  0  0  0
    8.4655  -16.4631   21.4378 N   0  0  0  0  0  0  0  0  0  0  0  0
    7.2539  -16.3173   22.1792 C   0  0  0  0  0  0  0  0  0  0  0  0
    7.3750  -16.3361   23.6318 C   0  0  0  0  0  0  0  0  0  0  0  0
    6.3703  -16.6937   24.3355 O   0  0  0  0  0  0  0  0  0  0  0  0
    6.2722  -10.3516   26.4352 O   0  0  0  0  0  0  0  0  0  0  0  0
    6.5640  -11.7164   26.4593 C   0  0  0  0  0  0  0  0  0  0  0  0
    7.6893  -12.2040   27.1079 C   0  0  0  0  0  0  0  0  0  0  0  0
    7.9253  -13.5624   27.0978 C   0  0  0  0  0  0  0  0  0  0  0  0
    7.0455  -14.4339   26.4450 C   0  0  0  0  0  0  0  0  0  0  0  0
    7.2858  -15.8844   26.4167 C   0  0  0  0  0  0  0  0  0  0  0  0
    8.6127  -16.2605   25.8178 C   0  0  2  0  0  0  0  0  0  0  0  0
    8.5323  -15.9866   24.3703 N   0  0  0  0  0  0  0  0  0  0  0  0
    8.9314  -17.6849   26.0065 C   0  0  0  0  0  0  0  0  0  0  0  0
    9.0800  -18.5311   24.9190 O   0  0  0  0  0  0  0  0  0  0  0  0
    5.9299  -13.9354   25.8034 C   0  0  0  0  0  0  0  0  0  0  0  0
    5.7008  -12.5774   25.8179 C   0  0  0  0  0  0  0  0  0  0  0  0
    9.0787  -18.1795   27.1518 O   0  0  0  0  0  0  0  0  0  0  0  0
  2  1  1  1
  2  3  1  0
  3  4  1  0
  4  5  2  0
  6  2  1  0
  7  6  2  0
  8  4  1  0
  9  6  1  0
 10 11  1  0
 10  9  1  0
 11 12  2  0
 14 13  1  0
 14 24  2  0
 15 14  1  0
 16 15  2  0
 16 17  1  0
 17 23  2  0
 18 17  1  0
 19 18  1  1
 20 19  1  0
 20 11  1  0
 21 19  1  0
 22 21  1  0
 23 24  1  0
 25 21  2  0
M  END
$$$$
