DGY.pdb
     RDKit          3D

 25 25  0  0  1  0  0  0  0  0999 V2000
    8.3839  -16.0912   19.3409 N   0  0  0  0  0  0  0  0  0  0  0  0
    8.7353  -14.8177   19.9411 C   0  0  1  0  0  0  0  0  0  0  0  0
    7.8001  -13.7745   19.3633 C   0  0  0  0  0  0  0  0  0  0  0  0
    7.9983  -13.6413   17.8974 C   0  0  0  0  0  0  0  0  0  0  0  0
    8.8305  -14.3530   17.2843 O   0  0  0  0  0  0  0  0  0  0  0  0
    8.6054  -14.9472   21.3956 C   0  0  0  0  0  0  0  0  0  0  0  0
    9.0035  -14.0555   22.2001 O   0  0  0  0  0  0  0  0  0  0  0  0
    7.2647  -12.7225   17.1671 O   0  0  0  0  0  0  0  0  0  0  0  0
    8.0110  -16.1072   22.0175 N   0  0  0  0  0  0  0  0  0  0  0  0
    8.7959  -17.0237   22.7810 C   0  0  0  0  0  0  0  0  0  0  0  0
    9.2478  -16.5606   24.0873 C   0  0  0  0  0  0  0  0  0  0  0  0
   10.3198  -15.8698   24.1661 O   0  0  0  0  0  0  0  0  0  0  0  0
    5.8837  -10.9901   25.2787 O   0  0  0  0  0  0  0  0  0  0  0  0
    6.4578  -12.1428   25.8176 C   0  0  0  0  0  0  0  0  0  0  0  0
    7.7283  -12.1255   26.3745 C   0  0  0  0  0  0  0  0  0  0  0  0
    8.2427  -13.2956   26.8915 C   0  0  0  0  0  0  0  0  0  0  0  0
    7.4967  -14.4796   26.8552 C   0  0  0  0  0  0  0  0  0  0  0  0
    8.0326  -15.7385   27.3941 C   0  0  0  0  0  0  0  0  0  0  0  0
    9.1689  -16.3009   26.5858 C   0  0  2  0  0  0  0  0  0  0  0  0
    8.5984  -16.8057   25.3222 N   0  0  0  0  0  0  0  0  0  0  0  0
    9.8483  -17.4135   27.2687 C   0  0  0  0  0  0  0  0  0  0  0  0
   10.6578  -17.1847   28.3702 O   0  0  0  0  0  0  0  0  0  0  0  0
    6.2342  -14.4827   26.2980 C   0  0  0  0  0  0  0  0  0  0  0  0
    5.7269  -13.3101   25.7837 C   0  0  0  0  0  0  0  0  0  0  0  0
    9.7189  -18.6009   26.8796 O   0  0  0  0  0  0  0  0  0  0  0  0
  2  1  1  6
  2  3  1  0
  3  4  1  0
  4  5  2  0
  6  2  1  0
  7  6  2  0
  8  4  1  0
  9  6  1  0
 10 11  1  0
 10  9  1  0
 11 12  2  0
 14 13  1  0
 14 24  2  0
 15 14  1  0
 16 15  2  0
 16 17  1  0
 17 23  2  0
 18 17  1  0
 19 18  1  1
 20 19  1  0
 20 11  1  0
 21 19  1  0
 22 21  1  0
 23 24  1  0
 25 21  2  0
M  END
$$$$
