DGY.pdb
     RDKit          3D

 25 25  0  0  1  0  0  0  0  0999 V2000
    9.1031  -19.3442   19.2939 N   0  0  0  0  0  0  0  0  0  0  0  0
   10.2712  -18.8695   18.5757 C   0  0  1  0  0  0  0  0  0  0  0  0
    9.7779  -17.9794   17.4527 C   0  0  0  0  0  0  0  0  0  0  0  0
    9.7520  -18.7190   16.1649 C   0  0  0  0  0  0  0  0  0  0  0  0
   10.0718  -19.9310   16.1021 O   0  0  0  0  0  0  0  0  0  0  0  0
   11.1314  -18.1556   19.5241 C   0  0  0  0  0  0  0  0  0  0  0  0
   12.3590  -17.9400   19.3058 O   0  0  0  0  0  0  0  0  0  0  0  0
    9.3719  -18.0848   14.9948 O   0  0  0  0  0  0  0  0  0  0  0  0
   10.6374  -17.6449   20.7813 N   0  0  0  0  0  0  0  0  0  0  0  0
   11.4572  -16.8388   21.6282 C   0  0  0  0  0  0  0  0  0  0  0  0
   10.8415  -16.3529   22.8569 C   0  0  0  0  0  0  0  0  0  0  0  0
   11.5385  -15.6538   23.6681 O   0  0  0  0  0  0  0  0  0  0  0  0
    7.3818  -12.3289   19.4725 O   0  0  0  0  0  0  0  0  0  0  0  0
    7.4131  -13.1435   20.6056 C   0  0  0  0  0  0  0  0  0  0  0  0
    6.9591  -14.4539   20.5671 C   0  0  0  0  0  0  0  0  0  0  0  0
    7.0152  -15.2103   21.7185 C   0  0  0  0  0  0  0  0  0  0  0  0
    7.5210  -14.6661   22.9049 C   0  0  0  0  0  0  0  0  0  0  0  0
    7.5806  -15.4553   24.1443 C   0  0  0  0  0  0  0  0  0  0  0  0
    8.9622  -15.9474   24.4756 C   0  0  2  0  0  0  0  0  0  0  0  0
    9.5029  -16.5836   23.2591 N   0  0  0  0  0  0  0  0  0  0  0  0
    8.9600  -16.9416   25.5608 C   0  0  0  0  0  0  0  0  0  0  0  0
    8.5003  -16.6129   26.8263 O   0  0  0  0  0  0  0  0  0  0  0  0
    7.9691  -13.3611   22.9293 C   0  0  0  0  0  0  0  0  0  0  0  0
    7.9101  -12.6117   21.7753 C   0  0  0  0  0  0  0  0  0  0  0  0
    9.3718  -18.1144   25.3788 O   0  0  0  0  0  0  0  0  0  0  0  0
  2  1  1  1
  2  3  1  0
  3  4  1  0
  4  5  2  0
  6  2  1  0
  7  6  2  0
  8  4  1  0
  9  6  1  0
 10 11  1  0
 10  9  1  0
 11 12  2  0
 14 13  1  0
 14 24  2  0
 15 14  1  0
 16 15  2  0
 16 17  1  0
 17 23  2  0
 18 17  1  0
 19 18  1  6
 20 19  1  0
 20 11  1  0
 21 19  1  0
 22 21  1  0
 23 24  1  0
 25 21  2  0
M  END
$$$$
