NDA.pdb
     RDKit          3D

 22 21  0  0  1  0  0  0  0  0999 V2000
    7.5995  -12.4491   18.9765 N   0  0  0  0  0  0  0  0  0  0  0  0
    7.6859  -13.8450   19.2449 C   0  0  0  0  0  0  0  0  0  0  0  0
    7.8916  -14.6129   18.2664 O   0  0  0  0  0  0  0  0  0  0  0  0
    7.5397  -14.3779   20.6235 C   0  0  0  0  0  0  0  0  0  0  0  0
    8.8984  -14.3704   21.2724 C   0  0  2  0  0  0  0  0  0  0  0  0
    9.8060  -15.0985   20.4117 N   0  0  0  0  0  0  0  0  0  0  0  0
    8.8581  -14.9629   22.6427 C   0  0  0  0  0  0  0  0  0  0  0  0
    7.9995  -14.5258   23.4489 O   0  0  0  0  0  0  0  0  0  0  0  0
    9.7370  -15.9802   23.0565 N   0  0  0  0  0  0  0  0  0  0  0  0
    9.7328  -16.6123   24.3467 C   0  0  1  0  0  0  0  0  0  0  0  0
   10.5293  -17.8818   24.2865 C   0  0  0  0  0  0  0  0  0  0  0  0
    9.9209  -18.8221   23.3227 C   0  0  0  0  0  0  0  0  0  0  0  0
    8.7891  -19.3475   23.4513 O   0  0  0  0  0  0  0  0  0  0  0  0
   10.2438  -15.7001   25.4104 C   0  0  0  0  0  0  0  0  0  0  0  0
   11.4577  -15.3999   25.4002 O   0  0  0  0  0  0  0  0  0  0  0  0
   10.6101  -19.1969   22.1540 O   0  0  0  0  0  0  0  0  0  0  0  0
    8.9146  -13.2764   27.8648 C   0  0  0  0  0  0  0  0  0  0  0  0
    9.8436  -14.4290   27.5447 C   0  0  2  0  0  0  0  0  0  0  0  0
    9.3748  -15.1903   26.4026 N   0  0  0  0  0  0  0  0  0  0  0  0
   10.0623  -15.2739   28.7298 C   0  0  0  0  0  0  0  0  0  0  0  0
   10.7494  -14.7569   29.8079 O   0  0  0  0  0  0  0  0  0  0  0  0
    9.6278  -16.4449   28.7519 O   0  0  0  0  0  0  0  0  0  0  0  0
  1  2  1  0
  2  3  2  0
  2  4  1  0
  5  7  1  0
  5  4  1  0
  5  6  1  6
  7  8  2  0
  9 10  1  0
  9  7  1  0
 10 14  1  0
 11 12  1  0
 10 11  1  6
 12 13  2  0
 12 16  1  0
 14 19  1  0
 14 15  2  0
 18 17  1  1
 18 20  1  0
 19 18  1  0
 20 22  2  0
 20 21  1  0
M  END
$$$$
