NDA.pdb
     RDKit          3D

 22 21  0  0  1  0  0  0  0  0999 V2000
    8.0855  -12.4222   17.4606 N   0  0  0  0  0  0  0  0  0  0  0  0
    8.0903  -13.8100   17.7796 C   0  0  0  0  0  0  0  0  0  0  0  0
    8.6197  -14.5953   16.9476 O   0  0  0  0  0  0  0  0  0  0  0  0
    7.4952  -14.3150   19.0433 C   0  0  0  0  0  0  0  0  0  0  0  0
    8.5579  -14.2706   20.1090 C   0  0  2  0  0  0  0  0  0  0  0  0
    9.6583  -15.1040   19.6743 N   0  0  0  0  0  0  0  0  0  0  0  0
    8.0299  -14.7170   21.4328 C   0  0  0  0  0  0  0  0  0  0  0  0
    6.9407  -14.2310   21.8273 O   0  0  0  0  0  0  0  0  0  0  0  0
    8.7015  -15.6507   22.2428 N   0  0  0  0  0  0  0  0  0  0  0  0
    8.3250  -16.0183   23.5796 C   0  0  1  0  0  0  0  0  0  0  0  0
    9.1025  -17.2281   24.0055 C   0  0  0  0  0  0  0  0  0  0  0  0
    8.7964  -18.3707   23.1200 C   0  0  0  0  0  0  0  0  0  0  0  0
    9.5448  -18.7879   22.2040 O   0  0  0  0  0  0  0  0  0  0  0  0
    8.5102  -14.8889   24.5361 C   0  0  0  0  0  0  0  0  0  0  0  0
    9.6681  -14.4549   24.7229 O   0  0  0  0  0  0  0  0  0  0  0  0
    7.5924  -19.0860   23.2630 O   0  0  0  0  0  0  0  0  0  0  0  0
    6.2041  -12.5323   26.3769 C   0  0  0  0  0  0  0  0  0  0  0  0
    7.5286  -13.2329   26.1565 C   0  0  2  0  0  0  0  0  0  0  0  0
    7.4027  -14.3264   25.2118 N   0  0  0  0  0  0  0  0  0  0  0  0
    8.1166  -13.6624   27.4355 C   0  0  0  0  0  0  0  0  0  0  0  0
    8.5147  -12.7079   28.3478 O   0  0  0  0  0  0  0  0  0  0  0  0
    8.2504  -14.8789   27.6853 O   0  0  0  0  0  0  0  0  0  0  0  0
  1  2  1  0
  2  3  2  0
  2  4  1  0
  5  7  1  0
  5  4  1  0
  5  6  1  6
  7  8  2  0
  9 10  1  0
  9  7  1  0
 10 14  1  0
 11 12  1  0
 10 11  1  1
 12 13  2  0
 12 16  1  0
 14 19  1  0
 14 15  2  0
 18 17  1  1
 18 20  1  0
 19 18  1  0
 20 22  2  0
 20 21  1  0
M  END
$$$$
