NDA.pdb
     RDKit          3D

 22 21  0  0  1  0  0  0  0  0999 V2000
    7.1386  -12.3966   18.8578 N   0  0  0  0  0  0  0  0  0  0  0  0
    8.1297  -13.1063   19.5939 C   0  0  0  0  0  0  0  0  0  0  0  0
    9.2480  -13.2845   19.0397 O   0  0  0  0  0  0  0  0  0  0  0  0
    7.8588  -13.6179   20.9617 C   0  0  0  0  0  0  0  0  0  0  0  0
    8.3984  -15.0208   21.0498 C   0  0  2  0  0  0  0  0  0  0  0  0
    7.6638  -15.8394   20.1092 N   0  0  0  0  0  0  0  0  0  0  0  0
    8.2962  -15.5646   22.4369 C   0  0  0  0  0  0  0  0  0  0  0  0
    7.2039  -15.4321   23.0431 O   0  0  0  0  0  0  0  0  0  0  0  0
    9.3670  -16.2117   23.0799 N   0  0  0  0  0  0  0  0  0  0  0  0
    9.3488  -16.7197   24.4237 C   0  0  1  0  0  0  0  0  0  0  0  0
    9.9908  -18.0749   24.4569 C   0  0  0  0  0  0  0  0  0  0  0  0
   10.0190  -18.5937   25.8401 C   0  0  0  0  0  0  0  0  0  0  0  0
    9.0033  -18.8498   26.5302 O   0  0  0  0  0  0  0  0  0  0  0  0
   10.0087  -15.7823   25.3777 C   0  0  0  0  0  0  0  0  0  0  0  0
   11.2224  -15.5286   25.2147 O   0  0  0  0  0  0  0  0  0  0  0  0
   11.2439  -18.8401   26.4885 O   0  0  0  0  0  0  0  0  0  0  0  0
    8.8841  -13.1956   27.7974 C   0  0  0  0  0  0  0  0  0  0  0  0
    9.8674  -14.2710   27.3846 C   0  0  2  0  0  0  0  0  0  0  0  0
    9.2774  -15.1978   26.4375 N   0  0  0  0  0  0  0  0  0  0  0  0
   10.4264  -14.9538   28.5625 C   0  0  0  0  0  0  0  0  0  0  0  0
   11.1846  -14.2335   29.4615 O   0  0  0  0  0  0  0  0  0  0  0  0
   10.2126  -16.1716   28.7396 O   0  0  0  0  0  0  0  0  0  0  0  0
  1  2  1  0
  2  3  2  0
  2  4  1  0
  5  7  1  0
  5  4  1  0
  5  6  1  6
  7  8  2  0
  9 10  1  0
  9  7  1  0
 10 14  1  0
 11 12  1  0
 10 11  1  6
 12 13  2  0
 12 16  1  0
 14 19  1  0
 14 15  2  0
 18 17  1  1
 18 20  1  0
 19 18  1  0
 20 22  2  0
 20 21  1  0
M  END
$$$$
