NDA.pdb
     RDKit          3D

 22 21  0  0  1  0  0  0  0  0999 V2000
    9.1815  -12.9887   17.8037 N   0  0  0  0  0  0  0  0  0  0  0  0
    7.9080  -13.6089   17.9505 C   0  0  0  0  0  0  0  0  0  0  0  0
    7.1803  -13.6910   16.9243 O   0  0  0  0  0  0  0  0  0  0  0  0
    7.4525  -14.1392   19.2610 C   0  0  0  0  0  0  0  0  0  0  0  0
    8.5118  -13.8257   20.2840 C   0  0  2  0  0  0  0  0  0  0  0  0
    9.7866  -14.2547   19.7496 N   0  0  0  0  0  0  0  0  0  0  0  0
    8.2246  -14.4826   21.5941 C   0  0  0  0  0  0  0  0  0  0  0  0
    7.1271  -14.2312   22.1515 O   0  0  0  0  0  0  0  0  0  0  0  0
    9.1286  -15.3616   22.2175 N   0  0  0  0  0  0  0  0  0  0  0  0
    8.9451  -15.9719   23.5051 C   0  0  1  0  0  0  0  0  0  0  0  0
    9.8045  -17.1969   23.6073 C   0  0  0  0  0  0  0  0  0  0  0  0
    9.5697  -18.0844   22.4495 C   0  0  0  0  0  0  0  0  0  0  0  0
    8.4397  -18.4366   22.0342 O   0  0  0  0  0  0  0  0  0  0  0  0
    9.2272  -15.0160   24.6148 C   0  0  0  0  0  0  0  0  0  0  0  0
   10.3888  -14.5670   24.7286 O   0  0  0  0  0  0  0  0  0  0  0  0
   10.6514  -18.6070   21.7158 O   0  0  0  0  0  0  0  0  0  0  0  0
    7.2006  -12.8121   26.8157 C   0  0  0  0  0  0  0  0  0  0  0  0
    8.4189  -13.6831   26.5900 C   0  0  2  0  0  0  0  0  0  0  0  0
    8.2049  -14.6303   25.5124 N   0  0  0  0  0  0  0  0  0  0  0  0
    8.8352  -14.3405   27.8393 C   0  0  0  0  0  0  0  0  0  0  0  0
    8.8903  -15.7175   27.8896 O   0  0  0  0  0  0  0  0  0  0  0  0
    9.1336  -13.6529   28.8385 O   0  0  0  0  0  0  0  0  0  0  0  0
  1  2  1  0
  2  3  2  0
  2  4  1  0
  5  7  1  0
  5  4  1  0
  5  6  1  6
  7  8  2  0
  9 10  1  0
  9  7  1  0
 10 14  1  0
 11 12  1  0
 10 11  1  1
 12 13  2  0
 12 16  1  0
 14 19  1  0
 14 15  2  0
 18 17  1  1
 18 20  1  0
 19 18  1  0
 20 22  2  0
 20 21  1  0
M  END
$$$$
