NDA.pdb
     RDKit          3D

 22 21  0  0  1  0  0  0  0  0999 V2000
    7.1794  -12.2911   19.0795 N   0  0  0  0  0  0  0  0  0  0  0  0
    8.1003  -13.2573   19.5758 C   0  0  0  0  0  0  0  0  0  0  0  0
    8.9123  -13.7616   18.7537 O   0  0  0  0  0  0  0  0  0  0  0  0
    8.1059  -13.6572   21.0062 C   0  0  0  0  0  0  0  0  0  0  0  0
    8.1879  -15.1592   21.0698 C   0  0  2  0  0  0  0  0  0  0  0  0
    6.9809  -15.6957   20.4783 N   0  0  0  0  0  0  0  0  0  0  0  0
    8.3659  -15.6428   22.4715 C   0  0  0  0  0  0  0  0  0  0  0  0
    7.3716  -15.6060   23.2385 O   0  0  0  0  0  0  0  0  0  0  0  0
    9.5925  -16.1317   22.9565 N   0  0  0  0  0  0  0  0  0  0  0  0
    9.8110  -16.6866   24.2635 C   0  0  1  0  0  0  0  0  0  0  0  0
   10.8742  -17.7420   24.1896 C   0  0  0  0  0  0  0  0  0  0  0  0
   11.0712  -18.3633   25.5157 C   0  0  0  0  0  0  0  0  0  0  0  0
   12.1478  -18.8651   25.9189 O   0  0  0  0  0  0  0  0  0  0  0  0
   10.1597  -15.6329   25.2599 C   0  0  0  0  0  0  0  0  0  0  0  0
   11.2797  -15.0833   25.1731 O   0  0  0  0  0  0  0  0  0  0  0  0
   10.0126  -18.4288   26.4412 O   0  0  0  0  0  0  0  0  0  0  0  0
    8.3890  -13.4187   27.6385 C   0  0  0  0  0  0  0  0  0  0  0  0
    9.5670  -14.3159   27.3203 C   0  0  2  0  0  0  0  0  0  0  0  0
    9.2448  -15.2679   26.2744 N   0  0  0  0  0  0  0  0  0  0  0  0
   10.0742  -14.9705   28.5370 C   0  0  0  0  0  0  0  0  0  0  0  0
   10.5666  -14.1934   29.5643 O   0  0  0  0  0  0  0  0  0  0  0  0
   10.0559  -16.2160   28.6312 O   0  0  0  0  0  0  0  0  0  0  0  0
  1  2  1  0
  2  3  2  0
  2  4  1  0
  5  7  1  0
  5  4  1  0
  5  6  1  1
  7  8  2  0
  9 10  1  0
  9  7  1  0
 10 14  1  0
 11 12  1  0
 10 11  1  6
 12 13  2  0
 12 16  1  0
 14 19  1  0
 14 15  2  0
 18 17  1  1
 18 20  1  0
 19 18  1  0
 20 22  2  0
 20 21  1  0
M  END
$$$$
