NDA.pdb
     RDKit          3D

 22 21  0  0  1  0  0  0  0  0999 V2000
    5.5565  -21.9551   15.6527 N   0  0  0  0  0  0  0  0  0  0  0  0
    4.8510  -20.9437   16.3649 C   0  0  0  0  0  0  0  0  0  0  0  0
    3.7282  -21.2504   16.8493 O   0  0  0  0  0  0  0  0  0  0  0  0
    5.4143  -19.5796   16.5320 C   0  0  0  0  0  0  0  0  0  0  0  0
    6.5341  -19.6576   17.5354 C   0  0  2  0  0  0  0  0  0  0  0  0
    7.4045  -20.7465   17.1462 N   0  0  0  0  0  0  0  0  0  0  0  0
    6.0179  -19.8462   18.9240 C   0  0  0  0  0  0  0  0  0  0  0  0
    5.7572  -18.8200   19.6004 O   0  0  0  0  0  0  0  0  0  0  0  0
    5.8160  -21.1164   19.4935 N   0  0  0  0  0  0  0  0  0  0  0  0
    5.3847  -21.3675   20.8407 C   0  0  1  0  0  0  0  0  0  0  0  0
    4.4890  -22.5703   20.8653 C   0  0  0  0  0  0  0  0  0  0  0  0
    3.8138  -22.6785   22.1752 C   0  0  0  0  0  0  0  0  0  0  0  0
    4.0193  -21.9190   23.1521 O   0  0  0  0  0  0  0  0  0  0  0  0
    6.5405  -21.5315   21.7692 C   0  0  0  0  0  0  0  0  0  0  0  0
    7.3758  -22.4288   21.5222 O   0  0  0  0  0  0  0  0  0  0  0  0
    2.8592  -23.6863   22.4086 O   0  0  0  0  0  0  0  0  0  0  0  0
    8.5854  -19.4928   23.8775 C   0  0  0  0  0  0  0  0  0  0  0  0
    7.8045  -20.7890   23.8143 C   0  0  2  0  0  0  0  0  0  0  0  0
    6.6840  -20.6922   22.8981 N   0  0  0  0  0  0  0  0  0  0  0  0
    7.3926  -21.2220   25.1593 C   0  0  0  0  0  0  0  0  0  0  0  0
    8.3259  -21.7949   25.9974 O   0  0  0  0  0  0  0  0  0  0  0  0
    6.2098  -21.0692   25.5307 O   0  0  0  0  0  0  0  0  0  0  0  0
  1  2  1  0
  2  3  2  0
  2  4  1  0
  5  7  1  0
  5  4  1  0
  5  6  1  6
  7  8  2  0
  9 10  1  0
  9  7  1  0
 10 14  1  0
 11 12  1  0
 10 11  1  6
 12 13  2  0
 12 16  1  0
 14 19  1  0
 14 15  2  0
 18 17  1  1
 18 20  1  0
 19 18  1  0
 20 22  2  0
 20 21  1  0
M  END
$$$$
