NDA.pdb
     RDKit          3D

 22 21  0  0  1  0  0  0  0  0999 V2000
    6.8681  -12.8169   18.7657 N   0  0  0  0  0  0  0  0  0  0  0  0
    7.8677  -13.7650   18.4053 C   0  0  0  0  0  0  0  0  0  0  0  0
    8.1102  -13.9147   17.1772 O   0  0  0  0  0  0  0  0  0  0  0  0
    8.5977  -14.5482   19.4347 C   0  0  0  0  0  0  0  0  0  0  0  0
    8.9822  -15.8713   18.8275 C   0  0  2  0  0  0  0  0  0  0  0  0
    7.7671  -16.5415   18.4163 N   0  0  0  0  0  0  0  0  0  0  0  0
    9.7667  -16.7091   19.7829 C   0  0  0  0  0  0  0  0  0  0  0  0
    9.1435  -17.5476   20.4807 O   0  0  0  0  0  0  0  0  0  0  0  0
   11.1612  -16.5935   19.9267 N   0  0  0  0  0  0  0  0  0  0  0  0
   11.9653  -17.3186   20.8711 C   0  0  1  0  0  0  0  0  0  0  0  0
   13.3968  -17.3092   20.4233 C   0  0  0  0  0  0  0  0  0  0  0  0
   14.2256  -18.1161   21.3428 C   0  0  0  0  0  0  0  0  0  0  0  0
   15.0925  -17.6510   22.1209 O   0  0  0  0  0  0  0  0  0  0  0  0
   11.8241  -16.7718   22.2516 C   0  0  0  0  0  0  0  0  0  0  0  0
   12.2929  -15.6372   22.4899 O   0  0  0  0  0  0  0  0  0  0  0  0
   14.0805  -19.5152   21.3979 O   0  0  0  0  0  0  0  0  0  0  0  0
    9.5143  -16.6767   24.8548 C   0  0  0  0  0  0  0  0  0  0  0  0
   10.9693  -17.0156   24.6055 C   0  0  2  0  0  0  0  0  0  0  0  0
   11.1764  -17.5202   23.2615 N   0  0  0  0  0  0  0  0  0  0  0  0
   11.4793  -17.9362   25.6344 C   0  0  0  0  0  0  0  0  0  0  0  0
   11.4980  -17.5297   26.9520 O   0  0  0  0  0  0  0  0  0  0  0  0
   11.8890  -19.0710   25.3107 O   0  0  0  0  0  0  0  0  0  0  0  0
  1  2  1  0
  2  3  2  0
  2  4  1  0
  5  7  1  0
  5  4  1  0
  5  6  1  1
  7  8  2  0
  9 10  1  0
  9  7  1  0
 10 14  1  0
 11 12  1  0
 10 11  1  6
 12 13  2  0
 12 16  1  0
 14 19  1  0
 14 15  2  0
 18 17  1  1
 18 20  1  0
 19 18  1  0
 20 22  2  0
 20 21  1  0
M  END
$$$$
