NDA.pdb
     RDKit          3D

 22 21  0  0  1  0  0  0  0  0999 V2000
    7.8507  -12.1698   17.9494 N   0  0  0  0  0  0  0  0  0  0  0  0
    7.6364  -13.5548   17.6967 C   0  0  0  0  0  0  0  0  0  0  0  0
    7.3920  -13.8972   16.5083 O   0  0  0  0  0  0  0  0  0  0  0  0
    7.6980  -14.5588   18.7895 C   0  0  0  0  0  0  0  0  0  0  0  0
    8.7576  -15.5682   18.4355 C   0  0  2  0  0  0  0  0  0  0  0  0
    8.2559  -16.3749   17.3437 N   0  0  0  0  0  0  0  0  0  0  0  0
    9.1271  -16.4143   19.6094 C   0  0  0  0  0  0  0  0  0  0  0  0
    8.2571  -17.1941   20.0711 O   0  0  0  0  0  0  0  0  0  0  0  0
   10.3992  -16.3689   20.2081 N   0  0  0  0  0  0  0  0  0  0  0  0
   10.8154  -17.1465   21.3422 C   0  0  1  0  0  0  0  0  0  0  0  0
   12.2245  -17.6180   21.1379 C   0  0  0  0  0  0  0  0  0  0  0  0
   12.6370  -18.4953   22.2530 C   0  0  0  0  0  0  0  0  0  0  0  0
   11.9798  -19.4778   22.6726 O   0  0  0  0  0  0  0  0  0  0  0  0
   10.6771  -16.3831   22.6162 C   0  0  0  0  0  0  0  0  0  0  0  0
   11.4697  -15.4397   22.8302 O   0  0  0  0  0  0  0  0  0  0  0  0
   13.8459  -18.2655   22.9366 O   0  0  0  0  0  0  0  0  0  0  0  0
    8.0134  -15.7374   25.0667 C   0  0  0  0  0  0  0  0  0  0  0  0
    9.4811  -15.9952   24.7957 C   0  0  2  0  0  0  0  0  0  0  0  0
    9.6747  -16.7207   23.5546 N   0  0  0  0  0  0  0  0  0  0  0  0
   10.1186  -16.6644   25.9411 C   0  0  0  0  0  0  0  0  0  0  0  0
   10.1641  -16.0182   27.1585 O   0  0  0  0  0  0  0  0  0  0  0  0
   10.6106  -17.8044   25.8050 O   0  0  0  0  0  0  0  0  0  0  0  0
  1  2  1  0
  2  3  2  0
  2  4  1  0
  5  7  1  0
  5  4  1  0
  5  6  1  6
  7  8  2  0
  9 10  1  0
  9  7  1  0
 10 14  1  0
 11 12  1  0
 10 11  1  6
 12 13  2  0
 12 16  1  0
 14 19  1  0
 14 15  2  0
 18 17  1  1
 18 20  1  0
 19 18  1  0
 20 22  2  0
 20 21  1  0
M  END
$$$$
