NDA.pdb
     RDKit          3D

 22 21  0  0  1  0  0  0  0  0999 V2000
    7.7480  -12.4341   17.6591 N   0  0  0  0  0  0  0  0  0  0  0  0
    7.6337  -13.8212   17.9604 C   0  0  0  0  0  0  0  0  0  0  0  0
    7.8562  -14.6385   17.0266 O   0  0  0  0  0  0  0  0  0  0  0  0
    7.2667  -14.2894   19.3213 C   0  0  0  0  0  0  0  0  0  0  0  0
    8.4619  -14.0999   20.2172 C   0  0  2  0  0  0  0  0  0  0  0  0
    9.5969  -14.7374   19.5848 N   0  0  0  0  0  0  0  0  0  0  0  0
    8.2205  -14.6538   21.5829 C   0  0  0  0  0  0  0  0  0  0  0  0
    7.2218  -14.2361   22.2204 O   0  0  0  0  0  0  0  0  0  0  0  0
    9.0618  -15.6147   22.1725 N   0  0  0  0  0  0  0  0  0  0  0  0
    8.9094  -16.1584   23.4936 C   0  0  1  0  0  0  0  0  0  0  0  0
    9.8779  -17.2873   23.6868 C   0  0  0  0  0  0  0  0  0  0  0  0
    9.6206  -17.9676   24.9730 C   0  0  0  0  0  0  0  0  0  0  0  0
    8.7502  -17.6191   25.8063 O   0  0  0  0  0  0  0  0  0  0  0  0
    9.0770  -15.1129   24.5440 C   0  0  0  0  0  0  0  0  0  0  0  0
   10.2306  -14.6933   24.7833 O   0  0  0  0  0  0  0  0  0  0  0  0
   10.3729  -19.0959   25.3504 O   0  0  0  0  0  0  0  0  0  0  0  0
    6.8275  -12.7179   26.3200 C   0  0  0  0  0  0  0  0  0  0  0  0
    8.0648  -13.5900   26.2726 C   0  0  2  0  0  0  0  0  0  0  0  0
    7.9580  -14.6119   25.2487 N   0  0  0  0  0  0  0  0  0  0  0  0
    8.3623  -14.1548   27.5988 C   0  0  0  0  0  0  0  0  0  0  0  0
    8.4289  -15.5241   27.7480 O   0  0  0  0  0  0  0  0  0  0  0  0
    8.5510  -13.3967   28.5735 O   0  0  0  0  0  0  0  0  0  0  0  0
  1  2  1  0
  2  3  2  0
  2  4  1  0
  5  7  1  0
  5  4  1  0
  5  6  1  6
  7  8  2  0
  9 10  1  0
  9  7  1  0
 10 14  1  0
 11 12  1  0
 10 11  1  1
 12 13  2  0
 12 16  1  0
 14 19  1  0
 14 15  2  0
 18 17  1  1
 18 20  1  0
 19 18  1  0
 20 22  2  0
 20 21  1  0
M  END
$$$$
