NDA.pdb
     RDKit          3D

 22 21  0  0  1  0  0  0  0  0999 V2000
    6.5283  -12.7660   18.2291 N   0  0  0  0  0  0  0  0  0  0  0  0
    7.7507  -13.4926   18.3048 C   0  0  0  0  0  0  0  0  0  0  0  0
    8.4609  -13.5443   17.2645 O   0  0  0  0  0  0  0  0  0  0  0  0
    8.1746  -14.1643   19.5599 C   0  0  0  0  0  0  0  0  0  0  0  0
    8.5604  -15.5801   19.2231 C   0  0  2  0  0  0  0  0  0  0  0  0
    7.3995  -16.2349   18.6590 N   0  0  0  0  0  0  0  0  0  0  0  0
    9.0673  -16.3132   20.4215 C   0  0  0  0  0  0  0  0  0  0  0  0
    8.2239  -16.8094   21.2093 O   0  0  0  0  0  0  0  0  0  0  0  0
   10.4387  -16.4654   20.6949 N   0  0  0  0  0  0  0  0  0  0  0  0
   10.9920  -17.1624   21.8228 C   0  0  1  0  0  0  0  0  0  0  0  0
   12.4188  -17.5263   21.5377 C   0  0  0  0  0  0  0  0  0  0  0  0
   12.4946  -18.4134   20.3584 C   0  0  0  0  0  0  0  0  0  0  0  0
   11.8616  -19.4885   20.2287 O   0  0  0  0  0  0  0  0  0  0  0  0
   10.8750  -16.3641   23.0772 C   0  0  0  0  0  0  0  0  0  0  0  0
   11.6299  -15.3779   23.2241 O   0  0  0  0  0  0  0  0  0  0  0  0
   13.3194  -18.0849   19.2660 O   0  0  0  0  0  0  0  0  0  0  0  0
    8.4144  -15.4292   25.5027 C   0  0  0  0  0  0  0  0  0  0  0  0
    9.8067  -15.9986   25.3259 C   0  0  2  0  0  0  0  0  0  0  0  0
    9.9338  -16.7166   24.0719 N   0  0  0  0  0  0  0  0  0  0  0  0
   10.1901  -16.8218   26.4841 C   0  0  0  0  0  0  0  0  0  0  0  0
   10.2510  -16.2401   27.7330 O   0  0  0  0  0  0  0  0  0  0  0  0
   10.4558  -18.0326   26.3304 O   0  0  0  0  0  0  0  0  0  0  0  0
  1  2  1  0
  2  3  2  0
  2  4  1  0
  5  7  1  0
  5  4  1  0
  5  6  1  1
  7  8  2  0
  9 10  1  0
  9  7  1  0
 10 14  1  0
 11 12  1  0
 10 11  1  6
 12 13  2  0
 12 16  1  0
 14 19  1  0
 14 15  2  0
 18 17  1  1
 18 20  1  0
 19 18  1  0
 20 22  2  0
 20 21  1  0
M  END
$$$$
