NDA.pdb
     RDKit          3D

 22 21  0  0  1  0  0  0  0  0999 V2000
    7.8150  -12.3434   17.8838 N   0  0  0  0  0  0  0  0  0  0  0  0
    7.8397  -13.7531   18.0841 C   0  0  0  0  0  0  0  0  0  0  0  0
    8.2058  -14.4711   17.1147 O   0  0  0  0  0  0  0  0  0  0  0  0
    7.4497  -14.3564   19.3841 C   0  0  0  0  0  0  0  0  0  0  0  0
    8.5935  -14.1710   20.3455 C   0  0  2  0  0  0  0  0  0  0  0  0
    9.7574  -14.8210   19.7822 N   0  0  0  0  0  0  0  0  0  0  0  0
    8.2703  -14.7152   21.6983 C   0  0  0  0  0  0  0  0  0  0  0  0
    7.2343  -14.2943   22.2708 O   0  0  0  0  0  0  0  0  0  0  0  0
    9.0754  -15.6702   22.3450 N   0  0  0  0  0  0  0  0  0  0  0  0
    8.9089  -16.1224   23.6985 C   0  0  1  0  0  0  0  0  0  0  0  0
    9.5921  -17.4462   23.8733 C   0  0  0  0  0  0  0  0  0  0  0  0
    9.0743  -18.4224   22.8925 C   0  0  0  0  0  0  0  0  0  0  0  0
    7.9263  -18.9273   22.9216 O   0  0  0  0  0  0  0  0  0  0  0  0
    9.4091  -15.1186   24.6818 C   0  0  0  0  0  0  0  0  0  0  0  0
   10.6258  -14.8299   24.6663 O   0  0  0  0  0  0  0  0  0  0  0  0
    9.8782  -18.8591   21.8226 O   0  0  0  0  0  0  0  0  0  0  0  0
    7.9464  -12.5041   26.8882 C   0  0  0  0  0  0  0  0  0  0  0  0
    8.9737  -13.5866   26.6298 C   0  0  2  0  0  0  0  0  0  0  0  0
    8.5273  -14.5118   25.6057 N   0  0  0  0  0  0  0  0  0  0  0  0
    9.3443  -14.2702   27.8794 C   0  0  0  0  0  0  0  0  0  0  0  0
    9.9540  -13.5505   28.8854 O   0  0  0  0  0  0  0  0  0  0  0  0
    9.1062  -15.4883   28.0203 O   0  0  0  0  0  0  0  0  0  0  0  0
  1  2  1  0
  2  3  2  0
  2  4  1  0
  5  7  1  0
  5  4  1  0
  5  6  1  6
  7  8  2  0
  9 10  1  0
  9  7  1  0
 10 14  1  0
 11 12  1  0
 10 11  1  6
 12 13  2  0
 12 16  1  0
 14 19  1  0
 14 15  2  0
 18 17  1  1
 18 20  1  0
 19 18  1  0
 20 22  2  0
 20 21  1  0
M  END
$$$$
