ENE.pdb
     RDKit          3D

 27 26  0  0  1  0  0  0  0  0999 V2000
   17.5565  -14.3634  -14.7251 N   0  0  0  0  0  0  0  0  0  0  0  0
   18.5302  -13.7226  -15.5538 C   0  0  1  0  0  0  0  0  0  0  0  0
   18.9043  -14.5988  -16.7189 C   0  0  0  0  0  0  0  0  0  0  0  0
   18.4201  -16.0011  -16.6555 C   0  0  0  0  0  0  0  0  0  0  0  0
   18.7635  -16.7301  -17.8933 C   0  0  0  0  0  0  0  0  0  0  0  0
   18.2044  -16.5020  -18.9897 O   0  0  0  0  0  0  0  0  0  0  0  0
   17.8823  -12.4651  -16.1389 C   0  0  0  0  0  0  0  0  0  0  0  0
   17.0335  -12.5654  -17.0282 O   0  0  0  0  0  0  0  0  0  0  0  0
   19.7522  -17.7052  -17.8148 O   0  0  0  0  0  0  0  0  0  0  0  0
   16.8750   -7.3944  -16.7846 N   0  0  0  0  0  0  0  0  0  0  0  0
   15.8965   -8.3463  -16.3780 C   0  0  0  0  0  0  0  0  0  0  0  0
   14.6873   -7.9748  -16.3937 O   0  0  0  0  0  0  0  0  0  0  0  0
   16.2937   -9.7082  -15.9544 C   0  0  0  0  0  0  0  0  0  0  0  0
   17.8132   -9.9183  -15.9959 C   0  0  2  0  0  0  0  0  0  0  0  0
   18.2717  -11.2094  -15.6459 N   0  0  0  0  0  0  0  0  0  0  0  0
   18.4761   -8.8029  -15.3183 C   0  0  0  0  0  0  0  0  0  0  0  0
   18.5139   -8.6840  -14.0733 O   0  0  0  0  0  0  0  0  0  0  0  0
   19.1418   -7.7540  -16.0445 N   0  0  0  0  0  0  0  0  0  0  0  0
   20.0259   -6.7776  -15.3790 C   0  0  1  0  0  0  0  0  0  0  0  0
   21.3411   -6.7481  -16.0548 C   0  0  0  0  0  0  0  0  0  0  0  0
   22.3051   -5.7549  -15.5153 C   0  0  0  0  0  0  0  0  0  0  0  0
   23.5961   -5.6830  -16.2478 C   0  0  0  0  0  0  0  0  0  0  0  0
   23.9790   -6.7426  -16.8357 O   0  0  0  0  0  0  0  0  0  0  0  0
   19.2995   -5.5525  -15.1695 C   0  0  0  0  0  0  0  0  0  0  0  0
   18.3835   -5.2004  -15.9906 O   0  0  0  0  0  0  0  0  0  0  0  0
   24.3953   -4.5730  -16.3369 O   0  0  0  0  0  0  0  0  0  0  0  0
   19.4720   -4.6422  -14.1074 O   0  0  0  0  0  0  0  0  0  0  0  0
  2  1  1  1
  2  3  1  0
  3  4  1  0
  5  4  1  0
  5  9  1  0
  6  5  2  0
  7  2  1  0
  7  8  2  0
 10 11  1  0
 11 13  1  0
 12 11  2  0
 14 13  1  1
 14 15  1  0
 15  7  1  0
 16 14  1  0
 17 16  2  0
 18 16  1  0
 19 18  1  0
 19 24  1  0
 19 20  1  6
 21 22  1  0
 21 20  1  0
 22 23  2  0
 24 27  1  0
 25 24  2  0
 26 22  1  0
M  END
$$$$
