ENE.pdb
     RDKit          3D

 27 26  0  0  1  0  0  0  0  0999 V2000
   27.7080  -21.7926  -15.6955 N   0  0  0  0  0  0  0  0  0  0  0  0
   27.2330  -20.6938  -14.9129 C   0  0  1  0  0  0  0  0  0  0  0  0
   27.0012  -19.4815  -15.7740 C   0  0  0  0  0  0  0  0  0  0  0  0
   27.7288  -19.4585  -17.0682 C   0  0  0  0  0  0  0  0  0  0  0  0
   27.4226  -18.2241  -17.8192 C   0  0  0  0  0  0  0  0  0  0  0  0
   26.6590  -17.3359  -17.3781 O   0  0  0  0  0  0  0  0  0  0  0  0
   25.8715  -21.0919  -14.3374 C   0  0  0  0  0  0  0  0  0  0  0  0
   25.0837  -21.7533  -15.0181 O   0  0  0  0  0  0  0  0  0  0  0  0
   28.0191  -18.0620  -19.0652 O   0  0  0  0  0  0  0  0  0  0  0  0
   26.1121  -22.3733  -10.8125 N   0  0  0  0  0  0  0  0  0  0  0  0
   25.3959  -21.3551  -10.1203 C   0  0  0  0  0  0  0  0  0  0  0  0
   25.6600  -21.1950   -8.8934 O   0  0  0  0  0  0  0  0  0  0  0  0
   24.3856  -20.5294  -10.8199 C   0  0  0  0  0  0  0  0  0  0  0  0
   24.3259  -20.8216  -12.3251 C   0  0  2  0  0  0  0  0  0  0  0  0
   25.5435  -20.6916  -13.0321 N   0  0  0  0  0  0  0  0  0  0  0  0
   23.1750  -20.1302  -12.9084 C   0  0  0  0  0  0  0  0  0  0  0  0
   23.2789  -19.0926  -13.6000 O   0  0  0  0  0  0  0  0  0  0  0  0
   21.8276  -20.6022  -12.7286 N   0  0  0  0  0  0  0  0  0  0  0  0
   20.7356  -20.2283  -13.6481 C   0  0  1  0  0  0  0  0  0  0  0  0
   21.1564  -20.4569  -15.0475 C   0  0  0  0  0  0  0  0  0  0  0  0
   20.1209  -20.1674  -16.0725 C   0  0  0  0  0  0  0  0  0  0  0  0
   20.5422  -20.4361  -17.4721 C   0  0  0  0  0  0  0  0  0  0  0  0
   19.7662  -21.1579  -18.1735 O   0  0  0  0  0  0  0  0  0  0  0  0
   19.5025  -20.7954  -13.1683 C   0  0  0  0  0  0  0  0  0  0  0  0
   18.4307  -20.0964  -13.1694 O   0  0  0  0  0  0  0  0  0  0  0  0
   21.6904  -19.9691  -18.0570 O   0  0  0  0  0  0  0  0  0  0  0  0
   19.3115  -22.1027  -12.6775 O   0  0  0  0  0  0  0  0  0  0  0  0
  2  1  1  6
  2  3  1  0
  3  4  1  0
  5  4  1  0
  5  9  1  0
  6  5  2  0
  7  2  1  0
  7  8  2  0
 10 11  1  0
 11 13  1  0
 12 11  2  0
 14 13  1  1
 14 15  1  0
 15  7  1  0
 16 14  1  0
 17 16  2  0
 18 16  1  0
 19 18  1  0
 19 24  1  0
 19 20  1  6
 21 22  1  0
 21 20  1  0
 22 23  2  0
 24 27  1  0
 25 24  2  0
 26 22  1  0
M  END
$$$$
