ENE.pdb
     RDKit          3D

 27 26  0  0  1  0  0  0  0  0999 V2000
   19.9433  -11.3632  -17.0793 N   0  0  0  0  0  0  0  0  0  0  0  0
   18.8407  -10.5157  -17.4131 C   0  0  1  0  0  0  0  0  0  0  0  0
   17.5400  -11.1237  -16.9619 C   0  0  0  0  0  0  0  0  0  0  0  0
   17.5193  -12.6049  -16.8596 C   0  0  0  0  0  0  0  0  0  0  0  0
   17.3106  -13.0304  -15.4607 C   0  0  0  0  0  0  0  0  0  0  0  0
   17.0215  -12.2270  -14.5454 O   0  0  0  0  0  0  0  0  0  0  0  0
   19.0102   -9.2095  -16.6329 C   0  0  0  0  0  0  0  0  0  0  0  0
   18.1609   -8.3199  -16.7276 O   0  0  0  0  0  0  0  0  0  0  0  0
   17.4448  -14.3841  -15.1711 O   0  0  0  0  0  0  0  0  0  0  0  0
   21.7414   -5.6501  -13.8634 N   0  0  0  0  0  0  0  0  0  0  0  0
   21.7882   -6.8926  -13.1685 C   0  0  0  0  0  0  0  0  0  0  0  0
   22.2007   -6.8709  -11.9728 O   0  0  0  0  0  0  0  0  0  0  0  0
   21.3713   -8.1486  -13.8323 C   0  0  0  0  0  0  0  0  0  0  0  0
   20.6156   -7.8989  -15.1442 C   0  0  2  0  0  0  0  0  0  0  0  0
   20.1412   -9.0489  -15.8166 N   0  0  0  0  0  0  0  0  0  0  0  0
   21.3680   -6.9480  -15.9643 C   0  0  0  0  0  0  0  0  0  0  0  0
   22.1477   -7.2996  -16.8776 O   0  0  0  0  0  0  0  0  0  0  0  0
   21.2602   -5.5252  -15.7783 N   0  0  0  0  0  0  0  0  0  0  0  0
   21.4178   -4.5735  -16.8951 C   0  0  1  0  0  0  0  0  0  0  0  0
   20.6526   -5.0453  -18.0695 C   0  0  0  0  0  0  0  0  0  0  0  0
   20.6511   -4.1222  -19.2333 C   0  0  0  0  0  0  0  0  0  0  0  0
   19.8678   -4.6001  -20.4024 C   0  0  0  0  0  0  0  0  0  0  0  0
   18.7352   -4.0559  -20.5920 O   0  0  0  0  0  0  0  0  0  0  0  0
   21.2228   -3.2348  -16.4026 C   0  0  0  0  0  0  0  0  0  0  0  0
   20.3870   -3.0127  -15.4597 O   0  0  0  0  0  0  0  0  0  0  0  0
   20.2704   -5.5715  -21.2817 O   0  0  0  0  0  0  0  0  0  0  0  0
   21.8811   -2.0701  -16.8460 O   0  0  0  0  0  0  0  0  0  0  0  0
  2  1  1  1
  2  3  1  0
  3  4  1  0
  5  4  1  0
  5  9  1  0
  6  5  2  0
  7  2  1  0
  7  8  2  0
 10 11  1  0
 11 13  1  0
 12 11  2  0
 14 13  1  1
 14 15  1  0
 15  7  1  0
 16 14  1  0
 17 16  2  0
 18 16  1  0
 19 18  1  0
 19 24  1  0
 19 20  1  6
 21 22  1  0
 21 20  1  0
 22 23  2  0
 24 27  1  0
 25 24  2  0
 26 22  1  0
M  END
$$$$
