ENE.pdb
     RDKit          3D

 27 26  0  0  1  0  0  0  0  0999 V2000
   19.3638  -11.6070  -17.8266 N   0  0  0  0  0  0  0  0  0  0  0  0
   18.5518  -10.9035  -16.8826 C   0  0  1  0  0  0  0  0  0  0  0  0
   17.8015  -11.8632  -15.9989 C   0  0  0  0  0  0  0  0  0  0  0  0
   17.0002  -12.8976  -16.7008 C   0  0  0  0  0  0  0  0  0  0  0  0
   16.2457  -13.7209  -15.7341 C   0  0  0  0  0  0  0  0  0  0  0  0
   14.9960  -13.7919  -15.7365 O   0  0  0  0  0  0  0  0  0  0  0  0
   19.4889  -10.1066  -15.9714 C   0  0  0  0  0  0  0  0  0  0  0  0
   19.0902   -9.7070  -14.8747 O   0  0  0  0  0  0  0  0  0  0  0  0
   16.9739  -14.4392  -14.7916 O   0  0  0  0  0  0  0  0  0  0  0  0
   22.4106  -11.7238  -14.9122 N   0  0  0  0  0  0  0  0  0  0  0  0
   23.4752  -10.9948  -15.5157 C   0  0  0  0  0  0  0  0  0  0  0  0
   24.5994  -11.5700  -15.5916 O   0  0  0  0  0  0  0  0  0  0  0  0
   23.2603   -9.6214  -16.0251 C   0  0  0  0  0  0  0  0  0  0  0  0
   21.8328   -9.1170  -15.7755 C   0  0  2  0  0  0  0  0  0  0  0  0
   20.7975   -9.8441  -16.4074 N   0  0  0  0  0  0  0  0  0  0  0  0
   21.7923   -7.6651  -15.9570 C   0  0  0  0  0  0  0  0  0  0  0  0
   21.5045   -7.1196  -17.0457 O   0  0  0  0  0  0  0  0  0  0  0  0
   22.0805   -6.7519  -14.8829 N   0  0  0  0  0  0  0  0  0  0  0  0
   21.8026   -5.3062  -14.9860 C   0  0  1  0  0  0  0  0  0  0  0  0
   20.3915   -5.0919  -15.3737 C   0  0  0  0  0  0  0  0  0  0  0  0
   19.9451   -3.6751  -15.3709 C   0  0  0  0  0  0  0  0  0  0  0  0
   18.5096   -3.4769  -15.7005 C   0  0  0  0  0  0  0  0  0  0  0  0
   18.1092   -3.9436  -16.8126 O   0  0  0  0  0  0  0  0  0  0  0  0
   22.3367   -4.6413  -13.8262 C   0  0  0  0  0  0  0  0  0  0  0  0
   22.5129   -5.2904  -12.7378 O   0  0  0  0  0  0  0  0  0  0  0  0
   17.5954   -2.8369  -14.9046 O   0  0  0  0  0  0  0  0  0  0  0  0
   22.7224   -3.2887  -13.7339 O   0  0  0  0  0  0  0  0  0  0  0  0
  2  1  1  6
  2  3  1  0
  3  4  1  0
  5  4  1  0
  5  9  1  0
  6  5  2  0
  7  2  1  0
  7  8  2  0
 10 11  1  0
 11 13  1  0
 12 11  2  0
 14 13  1  6
 14 15  1  0
 15  7  1  0
 16 14  1  0
 17 16  2  0
 18 16  1  0
 19 18  1  0
 19 24  1  0
 19 20  1  1
 21 22  1  0
 21 20  1  0
 22 23  2  0
 24 27  1  0
 25 24  2  0
 26 22  1  0
M  END
$$$$
