ENE.pdb
     RDKit          3D

 27 26  0  0  1  0  0  0  0  0999 V2000
   16.4997  -11.3011  -13.5285 N   0  0  0  0  0  0  0  0  0  0  0  0
   15.6994  -10.4962  -14.3986 C   0  0  1  0  0  0  0  0  0  0  0  0
   14.2745  -10.9801  -14.4187 C   0  0  0  0  0  0  0  0  0  0  0  0
   14.0840  -12.4181  -14.7360 C   0  0  0  0  0  0  0  0  0  0  0  0
   14.4061  -13.2597  -13.5658 C   0  0  0  0  0  0  0  0  0  0  0  0
   14.0349  -12.9746  -12.4049 O   0  0  0  0  0  0  0  0  0  0  0  0
   15.6747   -9.0781  -13.8224 C   0  0  0  0  0  0  0  0  0  0  0  0
   14.9786   -8.2090  -14.3529 O   0  0  0  0  0  0  0  0  0  0  0  0
   15.1527  -14.4125  -13.7858 O   0  0  0  0  0  0  0  0  0  0  0  0
   16.8219   -5.1294  -10.6335 N   0  0  0  0  0  0  0  0  0  0  0  0
   16.9461   -6.3191   -9.8601 C   0  0  0  0  0  0  0  0  0  0  0  0
   17.1522   -6.1829   -8.6193 O   0  0  0  0  0  0  0  0  0  0  0  0
   16.8396   -7.6516  -10.4964 C   0  0  0  0  0  0  0  0  0  0  0  0
   16.6568   -7.5653  -12.0175 C   0  0  2  0  0  0  0  0  0  0  0  0
   16.4535   -8.7927  -12.6895 N   0  0  0  0  0  0  0  0  0  0  0  0
   17.6896   -6.6948  -12.5818 C   0  0  0  0  0  0  0  0  0  0  0  0
   18.8642   -7.0730  -12.7896 O   0  0  0  0  0  0  0  0  0  0  0  0
   17.4233   -5.3282  -12.9448 N   0  0  0  0  0  0  0  0  0  0  0  0
   18.2984   -4.5755  -13.8643 C   0  0  1  0  0  0  0  0  0  0  0  0
   18.5808   -5.3879  -15.0675 C   0  0  0  0  0  0  0  0  0  0  0  0
   19.3664   -4.6989  -16.1233 C   0  0  0  0  0  0  0  0  0  0  0  0
   19.6951   -5.5430  -17.3015 C   0  0  0  0  0  0  0  0  0  0  0  0
   20.0786   -6.7310  -17.0638 O   0  0  0  0  0  0  0  0  0  0  0  0
   17.7895   -3.2363  -14.0064 C   0  0  0  0  0  0  0  0  0  0  0  0
   16.5432   -3.0014  -13.8375 O   0  0  0  0  0  0  0  0  0  0  0  0
   19.6162   -5.1419  -18.6098 O   0  0  0  0  0  0  0  0  0  0  0  0
   18.5346   -2.0808  -14.3166 O   0  0  0  0  0  0  0  0  0  0  0  0
  2  1  1  1
  2  3  1  0
  3  4  1  0
  5  4  1  0
  5  9  1  0
  6  5  2  0
  7  2  1  0
  7  8  2  0
 10 11  1  0
 11 13  1  0
 12 11  2  0
 14 13  1  1
 14 15  1  0
 15  7  1  0
 16 14  1  0
 17 16  2  0
 18 16  1  0
 19 18  1  0
 19 24  1  0
 19 20  1  6
 21 22  1  0
 21 20  1  0
 22 23  2  0
 24 27  1  0
 25 24  2  0
 26 22  1  0
M  END
$$$$
