ENE.pdb
     RDKit          3D

 27 26  0  0  1  0  0  0  0  0999 V2000
   17.0412  -10.8489  -14.9738 N   0  0  0  0  0  0  0  0  0  0  0  0
   18.0653  -10.2353  -15.7613 C   0  0  1  0  0  0  0  0  0  0  0  0
   17.5923  -10.0031  -17.1711 C   0  0  0  0  0  0  0  0  0  0  0  0
   17.5422  -11.2041  -18.0427 C   0  0  0  0  0  0  0  0  0  0  0  0
   18.8047  -11.3593  -18.7935 C   0  0  0  0  0  0  0  0  0  0  0  0
   19.7389  -10.5292  -18.7247 O   0  0  0  0  0  0  0  0  0  0  0  0
   18.3468   -8.8565  -15.1586 C   0  0  0  0  0  0  0  0  0  0  0  0
   17.4378   -8.2235  -14.6158 O   0  0  0  0  0  0  0  0  0  0  0  0
   18.9401  -12.4820  -19.6034 O   0  0  0  0  0  0  0  0  0  0  0  0
   21.2072   -4.6720  -13.8161 N   0  0  0  0  0  0  0  0  0  0  0  0
   21.8924   -5.8633  -13.4419 C   0  0  0  0  0  0  0  0  0  0  0  0
   22.8624   -5.7440  -12.6385 O   0  0  0  0  0  0  0  0  0  0  0  0
   21.4774   -7.1780  -13.9815 C   0  0  0  0  0  0  0  0  0  0  0  0
   20.1592   -7.1043  -14.7636 C   0  0  2  0  0  0  0  0  0  0  0  0
   19.6480   -8.3348  -15.2369 N   0  0  0  0  0  0  0  0  0  0  0  0
   20.2407   -6.0274  -15.7517 C   0  0  0  0  0  0  0  0  0  0  0  0
   20.8013   -6.1593  -16.8626 O   0  0  0  0  0  0  0  0  0  0  0  0
   19.6722   -4.7270  -15.5141 N   0  0  0  0  0  0  0  0  0  0  0  0
   19.6282   -3.6867  -16.5598 C   0  0  1  0  0  0  0  0  0  0  0  0
   18.3717   -2.9145  -16.4482 C   0  0  0  0  0  0  0  0  0  0  0  0
   18.2168   -1.8161  -17.4362 C   0  0  0  0  0  0  0  0  0  0  0  0
   16.9475   -1.0519  -17.3194 C   0  0  0  0  0  0  0  0  0  0  0  0
   16.4737   -0.5643  -18.3930 O   0  0  0  0  0  0  0  0  0  0  0  0
   20.8924   -2.9986  -16.5916 C   0  0  0  0  0  0  0  0  0  0  0  0
   21.4213   -2.6780  -17.7116 O   0  0  0  0  0  0  0  0  0  0  0  0
   16.2572   -0.8364  -16.1551 O   0  0  0  0  0  0  0  0  0  0  0  0
   21.6628   -2.6009  -15.4803 O   0  0  0  0  0  0  0  0  0  0  0  0
  2  1  1  1
  2  3  1  0
  3  4  1  0
  5  4  1  0
  5  9  1  0
  6  5  2  0
  7  2  1  0
  7  8  2  0
 10 11  1  0
 11 13  1  0
 12 11  2  0
 14 13  1  6
 14 15  1  0
 15  7  1  0
 16 14  1  0
 17 16  2  0
 18 16  1  0
 19 18  1  0
 19 24  1  0
 19 20  1  1
 21 22  1  0
 21 20  1  0
 22 23  2  0
 24 27  1  0
 25 24  2  0
 26 22  1  0
M  END
$$$$
