ENE.pdb
     RDKit          3D

 27 26  0  0  1  0  0  0  0  0999 V2000
   28.9127  -21.7470  -16.6303 N   0  0  0  0  0  0  0  0  0  0  0  0
   28.2819  -20.6598  -15.9480 C   0  0  1  0  0  0  0  0  0  0  0  0
   27.5448  -19.7735  -16.9155 C   0  0  0  0  0  0  0  0  0  0  0  0
   26.5974  -20.4605  -17.8294 C   0  0  0  0  0  0  0  0  0  0  0  0
   25.2966  -19.7615  -17.8572 C   0  0  0  0  0  0  0  0  0  0  0  0
   25.1203  -18.6849  -18.4707 O   0  0  0  0  0  0  0  0  0  0  0  0
   27.2311  -21.2536  -15.0064 C   0  0  0  0  0  0  0  0  0  0  0  0
   26.8045  -22.3947  -15.1996 O   0  0  0  0  0  0  0  0  0  0  0  0
   24.2373  -20.3418  -17.1674 O   0  0  0  0  0  0  0  0  0  0  0  0
   25.4075  -21.5852   -9.5764 N   0  0  0  0  0  0  0  0  0  0  0  0
   25.0746  -20.5914  -10.5410 C   0  0  0  0  0  0  0  0  0  0  0  0
   23.9061  -20.1090  -10.4942 O   0  0  0  0  0  0  0  0  0  0  0  0
   26.0643  -20.1542  -11.5516 C   0  0  0  0  0  0  0  0  0  0  0  0
   25.8279  -20.7976  -12.9245 C   0  0  2  0  0  0  0  0  0  0  0  0
   26.7691  -20.4787  -13.9305 N   0  0  0  0  0  0  0  0  0  0  0  0
   24.4210  -20.6418  -13.2978 C   0  0  0  0  0  0  0  0  0  0  0  0
   23.9425  -19.5690  -13.7289 O   0  0  0  0  0  0  0  0  0  0  0  0
   23.4788  -21.7247  -13.1974 N   0  0  0  0  0  0  0  0  0  0  0  0
   22.0497  -21.5546  -13.5238 C   0  0  1  0  0  0  0  0  0  0  0  0
   21.6199  -22.6110  -14.4655 C   0  0  0  0  0  0  0  0  0  0  0  0
   22.6549  -23.0486  -15.4370 C   0  0  0  0  0  0  0  0  0  0  0  0
   22.2084  -24.1017  -16.3859 C   0  0  0  0  0  0  0  0  0  0  0  0
   22.3479  -25.3071  -16.0083 O   0  0  0  0  0  0  0  0  0  0  0  0
   21.3127  -21.3355  -12.3067 C   0  0  0  0  0  0  0  0  0  0  0  0
   21.8530  -21.5867  -11.1744 O   0  0  0  0  0  0  0  0  0  0  0  0
   21.6631  -23.8737  -17.6226 O   0  0  0  0  0  0  0  0  0  0  0  0
   19.9974  -20.8410  -12.1960 O   0  0  0  0  0  0  0  0  0  0  0  0
  2  1  1  6
  2  3  1  0
  3  4  1  0
  5  4  1  0
  5  9  1  0
  6  5  2  0
  7  2  1  0
  7  8  2  0
 10 11  1  0
 11 13  1  0
 12 11  2  0
 14 13  1  1
 14 15  1  0
 15  7  1  0
 16 14  1  0
 17 16  2  0
 18 16  1  0
 19 18  1  0
 19 24  1  0
 19 20  1  1
 21 22  1  0
 21 20  1  0
 22 23  2  0
 24 27  1  0
 25 24  2  0
 26 22  1  0
M  END
$$$$
