ENE.pdb
     RDKit          3D

 27 26  0  0  1  0  0  0  0  0999 V2000
   19.2544  -10.3066  -16.6321 N   0  0  0  0  0  0  0  0  0  0  0  0
   17.9942   -9.7668  -16.2248 C   0  0  1  0  0  0  0  0  0  0  0  0
   17.2439  -10.7458  -15.3625 C   0  0  0  0  0  0  0  0  0  0  0  0
   16.8639  -12.0241  -16.0154 C   0  0  0  0  0  0  0  0  0  0  0  0
   16.1657  -12.9112  -15.0629 C   0  0  0  0  0  0  0  0  0  0  0  0
   14.9294  -13.1035  -15.0994 O   0  0  0  0  0  0  0  0  0  0  0  0
   18.2777   -8.5401  -15.3539 C   0  0  0  0  0  0  0  0  0  0  0  0
   17.3750   -8.0433  -14.6758 O   0  0  0  0  0  0  0  0  0  0  0  0
   16.9331  -13.5500  -14.0946 O   0  0  0  0  0  0  0  0  0  0  0  0
   21.0123   -4.4865  -13.4979 N   0  0  0  0  0  0  0  0  0  0  0  0
   21.9014   -5.5975  -13.5614 C   0  0  0  0  0  0  0  0  0  0  0  0
   23.0312   -5.4660  -13.0076 O   0  0  0  0  0  0  0  0  0  0  0  0
   21.5068   -6.8457  -14.2529 C   0  0  0  0  0  0  0  0  0  0  0  0
   20.0541   -6.8121  -14.7460 C   0  0  2  0  0  0  0  0  0  0  0  0
   19.5735   -7.9996  -15.3447 N   0  0  0  0  0  0  0  0  0  0  0  0
   19.8274   -5.5808  -15.5046 C   0  0  0  0  0  0  0  0  0  0  0  0
   20.2221   -5.4197  -16.6809 O   0  0  0  0  0  0  0  0  0  0  0  0
   19.1234   -4.4571  -14.9457 N   0  0  0  0  0  0  0  0  0  0  0  0
   18.6508   -3.3341  -15.7783 C   0  0  1  0  0  0  0  0  0  0  0  0
   17.2878   -2.9384  -15.3620 C   0  0  0  0  0  0  0  0  0  0  0  0
   16.7085   -1.7921  -16.1082 C   0  0  0  0  0  0  0  0  0  0  0  0
   15.3179   -1.4393  -15.7204 C   0  0  0  0  0  0  0  0  0  0  0  0
   15.1607   -0.3486  -15.0874 O   0  0  0  0  0  0  0  0  0  0  0  0
   19.6908   -2.3424  -15.8639 C   0  0  0  0  0  0  0  0  0  0  0  0
   19.7515   -1.5607  -16.8750 O   0  0  0  0  0  0  0  0  0  0  0  0
   14.2050   -2.1921  -15.9914 O   0  0  0  0  0  0  0  0  0  0  0  0
   20.7051   -2.1017  -14.9152 O   0  0  0  0  0  0  0  0  0  0  0  0
  2  1  1  1
  2  3  1  0
  3  4  1  0
  5  4  1  0
  5  9  1  0
  6  5  2  0
  7  2  1  0
  7  8  2  0
 10 11  1  0
 11 13  1  0
 12 11  2  0
 14 13  1  6
 14 15  1  0
 15  7  1  0
 16 14  1  0
 17 16  2  0
 18 16  1  0
 19 18  1  0
 19 24  1  0
 19 20  1  1
 21 22  1  0
 21 20  1  0
 22 23  2  0
 24 27  1  0
 25 24  2  0
 26 22  1  0
M  END
$$$$
