WDQ.pdb
     RDKit          3D

 32 33  0  0  1  0  0  0  0  0999 V2000
    7.0787  -17.3604   24.2008 N   0  0  0  0  0  0  0  0  0  0  0  0
    8.1619  -16.4254   24.0038 C   0  0  1  0  0  0  0  0  0  0  0  0
    8.3696  -15.6357   25.2758 C   0  0  0  0  0  0  0  0  0  0  0  0
    7.2684  -14.7229   25.5987 C   0  0  0  0  0  0  0  0  0  0  0  0
    6.0250  -15.0888   26.0673 C   0  0  0  0  0  0  0  0  0  0  0  0
    5.2790  -13.9639   26.2552 N   0  0  0  0  0  0  0  0  0  0  0  0
    5.9969  -12.9052   25.9259 C   0  0  0  0  0  0  0  0  0  0  0  0
    5.7354  -11.5484   25.9215 C   0  0  0  0  0  0  0  0  0  0  0  0
    6.7108  -10.6691   25.5094 C   0  0  0  0  0  0  0  0  0  0  0  0
    7.9758  -11.0909   25.0886 C   0  0  0  0  0  0  0  0  0  0  0  0
    8.2176  -12.4486   25.1001 C   0  0  0  0  0  0  0  0  0  0  0  0
    7.2441  -13.3464   25.5121 C   0  0  0  0  0  0  0  0  0  0  0  0
    9.4260  -17.1738   23.7524 C   0  0  0  0  0  0  0  0  0  0  0  0
    9.5587  -18.3518   24.1593 O   0  0  0  0  0  0  0  0  0  0  0  0
   10.5448  -16.6130   23.0519 N   0  0  0  0  0  0  0  0  0  0  0  0
   11.8866  -17.0504   23.2022 C   0  0  1  0  0  0  0  0  0  0  0  0
   12.9182  -16.4308   22.3344 C   0  0  0  0  0  0  0  0  0  0  0  0
   12.9652  -16.9787   20.9493 C   0  0  0  0  0  0  0  0  0  0  0  0
   11.9667  -17.4849   20.4300 O   0  0  0  0  0  0  0  0  0  0  0  0
   12.3542  -16.9344   24.6297 C   0  0  0  0  0  0  0  0  0  0  0  0
   12.9637  -15.9412   25.0554 O   0  0  0  0  0  0  0  0  0  0  0  0
   14.1638  -16.9278   20.1902 O   0  0  0  0  0  0  0  0  0  0  0  0
   11.5653  -15.5951   29.2906 N   0  0  0  0  0  0  0  0  0  0  0  0
   10.7453  -16.2084   28.2883 C   0  0  0  0  0  0  0  0  0  0  0  0
   10.3093  -15.5167   27.3328 O   0  0  0  0  0  0  0  0  0  0  0  0
   10.4038  -17.6268   28.3398 C   0  0  0  0  0  0  0  0  0  0  0  0
   11.2738  -18.5777   27.6289 C   0  0  0  0  0  0  0  0  0  0  0  0
   12.4656  -18.0319   26.9141 C   0  0  2  0  0  0  0  0  0  0  0  0
   12.0687  -18.0187   25.4890 N   0  0  0  0  0  0  0  0  0  0  0  0
   13.6478  -18.8697   27.0330 C   0  0  0  0  0  0  0  0  0  0  0  0
   14.0702  -19.6195   25.9291 O   0  0  0  0  0  0  0  0  0  0  0  0
   14.3397  -18.9834   28.0666 O   0  0  0  0  0  0  0  0  0  0  0  0
  2  1  1  1
  3  4  1  0
  3  2  1  0
  4 12  1  0
  4  5  2  0
  5  6  1  0
  7  8  2  0
  7  6  1  0
  9  8  1  0
 10  9  2  0
 11 10  1  0
 11 12  2  0
 12  7  1  0
 13  2  1  0
 14 13  2  0
 15 13  1  0
 16 15  1  0
 16 17  1  6
 18 19  2  0
 18 17  1  0
 20 16  1  0
 21 20  2  0
 22 18  1  0
 23 24  1  0
 24 26  1  0
 25 24  2  0
 27 26  1  0
 28 27  1  1
 28 29  1  0
 29 20  1  0
 30 28  1  0
 30 31  1  0
 32 30  2  0
M  END
$$$$
