WDQ.pdb
     RDKit          3D

 32 33  0  0  1  0  0  0  0  0999 V2000
    6.8629  -17.8574   24.4083 N   0  0  0  0  0  0  0  0  0  0  0  0
    7.5525  -16.8210   23.6759 C   0  0  1  0  0  0  0  0  0  0  0  0
    8.1640  -15.8470   24.6568 C   0  0  0  0  0  0  0  0  0  0  0  0
    7.1849  -15.0054   25.3522 C   0  0  0  0  0  0  0  0  0  0  0  0
    6.0654  -15.4508   26.0214 C   0  0  0  0  0  0  0  0  0  0  0  0
    5.4087  -14.3757   26.5410 N   0  0  0  0  0  0  0  0  0  0  0  0
    6.0646  -13.2723   26.2290 C   0  0  0  0  0  0  0  0  0  0  0  0
    5.8443  -11.9339   26.4923 C   0  0  0  0  0  0  0  0  0  0  0  0
    6.7284  -10.9926   26.0160 C   0  0  0  0  0  0  0  0  0  0  0  0
    7.8586  -11.3325   25.2663 C   0  0  0  0  0  0  0  0  0  0  0  0
    8.0612  -12.6731   25.0141 C   0  0  0  0  0  0  0  0  0  0  0  0
    7.1785  -13.6326   25.4870 C   0  0  0  0  0  0  0  0  0  0  0  0
    8.6800  -17.4203   22.9074 C   0  0  0  0  0  0  0  0  0  0  0  0
    9.3565  -18.3550   23.3967 O   0  0  0  0  0  0  0  0  0  0  0  0
    9.0589  -16.9796   21.5963 N   0  0  0  0  0  0  0  0  0  0  0  0
   10.3609  -17.1176   21.0485 C   0  0  1  0  0  0  0  0  0  0  0  0
   10.5870  -16.6251   19.6675 C   0  0  0  0  0  0  0  0  0  0  0  0
   11.6745  -17.3321   18.9337 C   0  0  0  0  0  0  0  0  0  0  0  0
   12.3826  -18.1711   19.4973 O   0  0  0  0  0  0  0  0  0  0  0  0
   11.4079  -16.4974   21.9367 C   0  0  0  0  0  0  0  0  0  0  0  0
   11.6241  -15.2760   21.9637 O   0  0  0  0  0  0  0  0  0  0  0  0
   11.9202  -17.0585   17.5625 O   0  0  0  0  0  0  0  0  0  0  0  0
   10.4480  -17.5540   26.6673 N   0  0  0  0  0  0  0  0  0  0  0  0
   11.3251  -18.6275   26.3050 C   0  0  0  0  0  0  0  0  0  0  0  0
   11.0532  -19.8013   26.6653 O   0  0  0  0  0  0  0  0  0  0  0  0
   12.5322  -18.3982   25.5166 C   0  0  0  0  0  0  0  0  0  0  0  0
   12.7780  -17.0421   24.9999 C   0  0  0  0  0  0  0  0  0  0  0  0
   13.2789  -16.9099   23.5995 C   0  0  2  0  0  0  0  0  0  0  0  0
   12.1531  -17.3722   22.7584 N   0  0  0  0  0  0  0  0  0  0  0  0
   14.4219  -17.7598   23.3091 C   0  0  0  0  0  0  0  0  0  0  0  0
   15.6603  -17.4655   23.8911 O   0  0  0  0  0  0  0  0  0  0  0  0
   14.3947  -18.7597   22.5611 O   0  0  0  0  0  0  0  0  0  0  0  0
  2  1  1  1
  3  4  1  0
  3  2  1  0
  4 12  1  0
  4  5  2  0
  5  6  1  0
  7  8  2  0
  7  6  1  0
  9  8  1  0
 10  9  2  0
 11 10  1  0
 11 12  2  0
 12  7  1  0
 13  2  1  0
 14 13  2  0
 15 13  1  0
 16 15  1  0
 16 17  1  6
 18 19  2  0
 18 17  1  0
 20 16  1  0
 21 20  2  0
 22 18  1  0
 23 24  1  0
 24 26  1  0
 25 24  2  0
 27 26  1  0
 28 27  1  1
 28 29  1  0
 29 20  1  0
 30 28  1  0
 30 31  1  0
 32 30  2  0
M  END
$$$$
