WDQ.pdb
     RDKit          3D

 32 33  0  0  1  0  0  0  0  0999 V2000
    6.5721  -17.5638   24.1723 N   0  0  0  0  0  0  0  0  0  0  0  0
    7.5258  -16.5559   23.7715 C   0  0  1  0  0  0  0  0  0  0  0  0
    8.0165  -15.8244   24.9999 C   0  0  0  0  0  0  0  0  0  0  0  0
    7.0587  -14.8540   25.5397 C   0  0  0  0  0  0  0  0  0  0  0  0
    5.9517  -15.1498   26.3056 C   0  0  0  0  0  0  0  0  0  0  0  0
    5.3139  -13.9876   26.6211 N   0  0  0  0  0  0  0  0  0  0  0  0
    5.9696  -12.9724   26.0882 C   0  0  0  0  0  0  0  0  0  0  0  0
    5.7639  -11.6061   26.0923 C   0  0  0  0  0  0  0  0  0  0  0  0
    6.6431  -10.7839   25.4247 C   0  0  0  0  0  0  0  0  0  0  0  0
    7.7539  -11.2742   24.7314 C   0  0  0  0  0  0  0  0  0  0  0  0
    7.9422  -12.6404   24.7389 C   0  0  0  0  0  0  0  0  0  0  0  0
    7.0642  -13.4810   25.4067 C   0  0  0  0  0  0  0  0  0  0  0  0
    8.7157  -17.2118   23.1592 C   0  0  0  0  0  0  0  0  0  0  0  0
    9.1190  -18.3201   23.5835 O   0  0  0  0  0  0  0  0  0  0  0  0
    9.4606  -16.6357   22.0775 N   0  0  0  0  0  0  0  0  0  0  0  0
   10.7706  -17.0339   21.7037 C   0  0  1  0  0  0  0  0  0  0  0  0
   11.3381  -16.4646   20.4568 C   0  0  0  0  0  0  0  0  0  0  0  0
   12.6177  -17.0926   20.0218 C   0  0  0  0  0  0  0  0  0  0  0  0
   12.8342  -18.2932   20.2085 O   0  0  0  0  0  0  0  0  0  0  0  0
   11.7629  -16.7970   22.8124 C   0  0  0  0  0  0  0  0  0  0  0  0
   12.2733  -15.6868   23.0274 O   0  0  0  0  0  0  0  0  0  0  0  0
   13.6204  -16.3221   19.3766 O   0  0  0  0  0  0  0  0  0  0  0  0
   11.0333  -19.9612   28.0320 N   0  0  0  0  0  0  0  0  0  0  0  0
   10.9967  -18.5303   27.9658 C   0  0  0  0  0  0  0  0  0  0  0  0
   10.4030  -17.8812   28.8645 O   0  0  0  0  0  0  0  0  0  0  0  0
   11.6403  -17.7966   26.8801 C   0  0  0  0  0  0  0  0  0  0  0  0
   12.3710  -18.5648   25.8592 C   0  0  0  0  0  0  0  0  0  0  0  0
   13.0378  -17.8055   24.7600 C   0  0  2  0  0  0  0  0  0  0  0  0
   12.1011  -17.9061   23.6193 N   0  0  0  0  0  0  0  0  0  0  0  0
   14.3041  -18.3832   24.3405 C   0  0  0  0  0  0  0  0  0  0  0  0
   14.3122  -19.3672   23.3452 O   0  0  0  0  0  0  0  0  0  0  0  0
   15.4197  -18.0695   24.8064 O   0  0  0  0  0  0  0  0  0  0  0  0
  2  1  1  1
  3  4  1  0
  3  2  1  0
  4 12  1  0
  4  5  2  0
  5  6  1  0
  7  8  2  0
  7  6  1  0
  9  8  1  0
 10  9  2  0
 11 10  1  0
 11 12  2  0
 12  7  1  0
 13  2  1  0
 14 13  2  0
 15 13  1  0
 16 15  1  0
 16 17  1  6
 18 19  2  0
 18 17  1  0
 20 16  1  0
 21 20  2  0
 22 18  1  0
 23 24  1  0
 24 26  1  0
 25 24  2  0
 27 26  1  0
 28 27  1  1
 28 29  1  0
 29 20  1  0
 30 28  1  0
 30 31  1  0
 32 30  2  0
M  END
$$$$
