WDQ.pdb
     RDKit          3D

 32 33  0  0  1  0  0  0  0  0999 V2000
    7.2439  -17.5928   23.3408 N   0  0  0  0  0  0  0  0  0  0  0  0
    8.1525  -16.4922   23.5628 C   0  0  1  0  0  0  0  0  0  0  0  0
    8.2117  -16.1919   25.0429 C   0  0  0  0  0  0  0  0  0  0  0  0
    7.1545  -15.2905   25.5123 C   0  0  0  0  0  0  0  0  0  0  0  0
    5.8944  -15.6668   25.9248 C   0  0  0  0  0  0  0  0  0  0  0  0
    5.2024  -14.5518   26.2921 N   0  0  0  0  0  0  0  0  0  0  0  0
    5.9703  -13.4893   26.1295 C   0  0  0  0  0  0  0  0  0  0  0  0
    5.7734  -12.1381   26.3405 C   0  0  0  0  0  0  0  0  0  0  0  0
    6.7901  -11.2517   26.0664 C   0  0  0  0  0  0  0  0  0  0  0  0
    8.0342  -11.6609   25.5769 C   0  0  0  0  0  0  0  0  0  0  0  0
    8.2114  -13.0133   25.3728 C   0  0  0  0  0  0  0  0  0  0  0  0
    7.1957  -13.9180   25.6439 C   0  0  0  0  0  0  0  0  0  0  0  0
    9.5281  -16.8914   23.1509 C   0  0  0  0  0  0  0  0  0  0  0  0
    9.8216  -18.1010   23.0040 O   0  0  0  0  0  0  0  0  0  0  0  0
   10.5796  -15.9475   22.9053 N   0  0  0  0  0  0  0  0  0  0  0  0
   11.8981  -16.2988   22.5146 C   0  0  1  0  0  0  0  0  0  0  0  0
   12.6445  -15.3436   21.6594 C   0  0  0  0  0  0  0  0  0  0  0  0
   13.9410  -15.8659   21.1424 C   0  0  0  0  0  0  0  0  0  0  0  0
   15.0035  -15.2864   21.3844 O   0  0  0  0  0  0  0  0  0  0  0  0
   12.7631  -16.6268   23.7037 C   0  0  0  0  0  0  0  0  0  0  0  0
   14.0012  -16.6725   23.6380 O   0  0  0  0  0  0  0  0  0  0  0  0
   13.9850  -17.0492   20.3593 O   0  0  0  0  0  0  0  0  0  0  0  0
   10.8344  -15.0495   29.3485 N   0  0  0  0  0  0  0  0  0  0  0  0
   10.4213  -14.9083   27.9837 C   0  0  0  0  0  0  0  0  0  0  0  0
    9.4602  -14.1483   27.7003 O   0  0  0  0  0  0  0  0  0  0  0  0
   11.0938  -15.6212   26.9017 C   0  0  0  0  0  0  0  0  0  0  0  0
   12.1705  -16.5615   27.2524 C   0  0  0  0  0  0  0  0  0  0  0  0
   12.8231  -17.3190   26.1435 C   0  0  2  0  0  0  0  0  0  0  0  0
   12.1034  -16.8861   24.9256 N   0  0  0  0  0  0  0  0  0  0  0  0
   12.6690  -18.7602   26.2557 C   0  0  0  0  0  0  0  0  0  0  0  0
   13.3293  -19.4421   27.2843 O   0  0  0  0  0  0  0  0  0  0  0  0
   11.9787  -19.4649   25.4895 O   0  0  0  0  0  0  0  0  0  0  0  0
  2  1  1  1
  3  4  1  0
  3  2  1  0
  4 12  1  0
  4  5  2  0
  5  6  1  0
  7  8  2  0
  7  6  1  0
  9  8  1  0
 10  9  2  0
 11 10  1  0
 11 12  2  0
 12  7  1  0
 13  2  1  0
 14 13  2  0
 15 13  1  0
 16 15  1  0
 16 17  1  1
 18 19  2  0
 18 17  1  0
 20 16  1  0
 21 20  2  0
 22 18  1  0
 23 24  1  0
 24 26  1  0
 25 24  2  0
 27 26  1  0
 28 27  1  1
 28 29  1  0
 29 20  1  0
 30 28  1  0
 30 31  1  0
 32 30  2  0
M  END
$$$$
