WDQ.pdb
     RDKit          3D

 32 33  0  0  1  0  0  0  0  0999 V2000
    7.0611  -17.2580   23.4214 N   0  0  0  0  0  0  0  0  0  0  0  0
    8.1674  -16.3297   23.4024 C   0  0  1  0  0  0  0  0  0  0  0  0
    8.4049  -15.8162   24.8040 C   0  0  0  0  0  0  0  0  0  0  0  0
    7.3182  -14.9818   25.3267 C   0  0  0  0  0  0  0  0  0  0  0  0
    6.0964  -15.4332   25.7773 C   0  0  0  0  0  0  0  0  0  0  0  0
    5.3587  -14.3637   26.1887 N   0  0  0  0  0  0  0  0  0  0  0  0
    6.0612  -13.2583   26.0174 C   0  0  0  0  0  0  0  0  0  0  0  0
    5.7990  -11.9234   26.2591 C   0  0  0  0  0  0  0  0  0  0  0  0
    6.7552  -10.9782   25.9644 C   0  0  0  0  0  0  0  0  0  0  0  0
    8.0010  -11.3107   25.4235 C   0  0  0  0  0  0  0  0  0  0  0  0
    8.2438  -12.6480   25.1895 C   0  0  0  0  0  0  0  0  0  0  0  0
    7.2895  -13.6113   25.4809 C   0  0  0  0  0  0  0  0  0  0  0  0
    9.4093  -17.0434   22.9910 C   0  0  0  0  0  0  0  0  0  0  0  0
    9.6171  -18.2225   23.3619 O   0  0  0  0  0  0  0  0  0  0  0  0
   10.4229  -16.4470   22.1702 N   0  0  0  0  0  0  0  0  0  0  0  0
   11.7585  -16.9178   22.0754 C   0  0  1  0  0  0  0  0  0  0  0  0
   12.6613  -16.2492   21.1065 C   0  0  0  0  0  0  0  0  0  0  0  0
   12.6399  -16.8403   19.7386 C   0  0  0  0  0  0  0  0  0  0  0  0
   12.7306  -16.1278   18.7350 O   0  0  0  0  0  0  0  0  0  0  0  0
   12.4442  -16.9232   23.4169 C   0  0  0  0  0  0  0  0  0  0  0  0
   12.7874  -15.8816   23.9970 O   0  0  0  0  0  0  0  0  0  0  0  0
   12.5180  -18.2430   19.5571 O   0  0  0  0  0  0  0  0  0  0  0  0
   11.0847  -20.6083   28.4562 N   0  0  0  0  0  0  0  0  0  0  0  0
   10.5100  -19.7677   27.4481 C   0  0  0  0  0  0  0  0  0  0  0  0
    9.2768  -19.8349   27.2111 O   0  0  0  0  0  0  0  0  0  0  0  0
   11.3197  -18.8216   26.6861 C   0  0  0  0  0  0  0  0  0  0  0  0
   12.5614  -19.3110   26.0657 C   0  0  0  0  0  0  0  0  0  0  0  0
   13.3913  -18.3331   25.3013 C   0  0  2  0  0  0  0  0  0  0  0  0
   12.6889  -18.1828   24.0080 N   0  0  0  0  0  0  0  0  0  0  0  0
   14.7355  -18.8088   25.0182 C   0  0  0  0  0  0  0  0  0  0  0  0
   15.6892  -18.8181   26.0427 O   0  0  0  0  0  0  0  0  0  0  0  0
   15.1261  -19.2210   23.9057 O   0  0  0  0  0  0  0  0  0  0  0  0
  2  1  1  1
  3  4  1  0
  3  2  1  0
  4 12  1  0
  4  5  2  0
  5  6  1  0
  7  8  2  0
  7  6  1  0
  9  8  1  0
 10  9  2  0
 11 10  1  0
 11 12  2  0
 12  7  1  0
 13  2  1  0
 14 13  2  0
 15 13  1  0
 16 15  1  0
 16 17  1  6
 18 19  2  0
 18 17  1  0
 20 16  1  0
 21 20  2  0
 22 18  1  0
 23 24  1  0
 24 26  1  0
 25 24  2  0
 27 26  1  0
 28 27  1  1
 28 29  1  0
 29 20  1  0
 30 28  1  0
 30 31  1  0
 32 30  2  0
M  END
$$$$
