WDQ.pdb
     RDKit          3D

 32 33  0  0  1  0  0  0  0  0999 V2000
    6.8155  -18.1067   25.1972 N   0  0  0  0  0  0  0  0  0  0  0  0
    7.0326  -17.5588   23.8786 C   0  0  1  0  0  0  0  0  0  0  0  0
    6.5000  -16.1448   23.8379 C   0  0  0  0  0  0  0  0  0  0  0  0
    6.6717  -15.4054   25.0926 C   0  0  0  0  0  0  0  0  0  0  0  0
    6.5273  -15.9217   26.3623 C   0  0  0  0  0  0  0  0  0  0  0  0
    6.7721  -14.9332   27.2678 N   0  0  0  0  0  0  0  0  0  0  0  0
    7.0645  -13.8167   26.6253 C   0  0  0  0  0  0  0  0  0  0  0  0
    7.3844  -12.5396   27.0445 C   0  0  0  0  0  0  0  0  0  0  0  0
    7.6407  -11.5614   26.1107 C   0  0  0  0  0  0  0  0  0  0  0  0
    7.5926  -11.8033   24.7344 C   0  0  0  0  0  0  0  0  0  0  0  0
    7.2715  -13.0839   24.3358 C   0  0  0  0  0  0  0  0  0  0  0  0
    7.0102  -14.0794   25.2655 C   0  0  0  0  0  0  0  0  0  0  0  0
    8.4960  -17.4737   23.6095 C   0  0  0  0  0  0  0  0  0  0  0  0
    9.3244  -17.7780   24.4994 O   0  0  0  0  0  0  0  0  0  0  0  0
    9.0402  -17.0474   22.3530 N   0  0  0  0  0  0  0  0  0  0  0  0
   10.4269  -16.9971   22.0548 C   0  0  1  0  0  0  0  0  0  0  0  0
   10.8263  -16.5936   20.6842 C   0  0  0  0  0  0  0  0  0  0  0  0
   12.2418  -16.9076   20.3396 C   0  0  0  0  0  0  0  0  0  0  0  0
   12.8745  -16.2073   19.5443 O   0  0  0  0  0  0  0  0  0  0  0  0
   11.1753  -16.1250   23.0291 C   0  0  0  0  0  0  0  0  0  0  0  0
   11.1261  -14.8858   22.9921 O   0  0  0  0  0  0  0  0  0  0  0  0
   12.8996  -18.0221   20.9232 O   0  0  0  0  0  0  0  0  0  0  0  0
    9.5872  -16.0358   28.8498 N   0  0  0  0  0  0  0  0  0  0  0  0
   10.9709  -16.1310   28.4899 C   0  0  0  0  0  0  0  0  0  0  0  0
   11.7860  -16.6605   29.2880 O   0  0  0  0  0  0  0  0  0  0  0  0
   11.4659  -15.6338   27.2096 C   0  0  0  0  0  0  0  0  0  0  0  0
   12.1988  -16.5663   26.3380 C   0  0  0  0  0  0  0  0  0  0  0  0
   12.7198  -16.0439   25.0399 C   0  0  2  0  0  0  0  0  0  0  0  0
   11.9529  -16.7792   24.0104 N   0  0  0  0  0  0  0  0  0  0  0  0
   14.1291  -16.3276   24.8237 C   0  0  0  0  0  0  0  0  0  0  0  0
   14.4940  -17.4083   24.0125 O   0  0  0  0  0  0  0  0  0  0  0  0
   15.0716  -15.6717   25.3151 O   0  0  0  0  0  0  0  0  0  0  0  0
  2  1  1  1
  3  4  1  0
  3  2  1  0
  4 12  1  0
  4  5  2  0
  5  6  1  0
  7  8  2  0
  7  6  1  0
  9  8  1  0
 10  9  2  0
 11 10  1  0
 11 12  2  0
 12  7  1  0
 13  2  1  0
 14 13  2  0
 15 13  1  0
 16 15  1  0
 16 17  1  6
 18 19  2  0
 18 17  1  0
 20 16  1  0
 21 20  2  0
 22 18  1  0
 23 24  1  0
 24 26  1  0
 25 24  2  0
 27 26  1  0
 28 27  1  1
 28 29  1  0
 29 20  1  0
 30 28  1  0
 30 31  1  0
 32 30  2  0
M  END
$$$$
