WDQ.pdb
     RDKit          3D

 32 33  0  0  1  0  0  0  0  0999 V2000
    6.8175  -17.5224   24.5232 N   0  0  0  0  0  0  0  0  0  0  0  0
    7.6685  -16.4711   24.0167 C   0  0  1  0  0  0  0  0  0  0  0  0
    8.1210  -15.6041   25.1692 C   0  0  0  0  0  0  0  0  0  0  0  0
    7.1117  -14.6435   25.6264 C   0  0  0  0  0  0  0  0  0  0  0  0
    5.8826  -14.9564   26.1657 C   0  0  0  0  0  0  0  0  0  0  0  0
    5.2318  -13.7993   26.4737 N   0  0  0  0  0  0  0  0  0  0  0  0
    5.9961  -12.7710   26.1525 C   0  0  0  0  0  0  0  0  0  0  0  0
    5.8297  -11.4025   26.2457 C   0  0  0  0  0  0  0  0  0  0  0  0
    6.8319  -10.5644   25.8123 C   0  0  0  0  0  0  0  0  0  0  0  0
    8.0311  -11.0405   25.2737 C   0  0  0  0  0  0  0  0  0  0  0  0
    8.1784  -12.4091   25.1889 C   0  0  0  0  0  0  0  0  0  0  0  0
    7.1769  -13.2657   25.6210 C   0  0  0  0  0  0  0  0  0  0  0  0
    8.8972  -17.0685   23.4214 C   0  0  0  0  0  0  0  0  0  0  0  0
    9.3441  -18.1592   23.8476 O   0  0  0  0  0  0  0  0  0  0  0  0
    9.6324  -16.4533   22.3546 N   0  0  0  0  0  0  0  0  0  0  0  0
   11.0218  -16.6346   22.1289 C   0  0  1  0  0  0  0  0  0  0  0  0
   11.6176  -15.9959   20.9297 C   0  0  0  0  0  0  0  0  0  0  0  0
   12.9952  -16.4630   20.6056 C   0  0  0  0  0  0  0  0  0  0  0  0
   13.8165  -15.7079   20.0779 O   0  0  0  0  0  0  0  0  0  0  0  0
   11.8393  -16.2224   23.3253 C   0  0  0  0  0  0  0  0  0  0  0  0
   11.9299  -15.0430   23.6996 O   0  0  0  0  0  0  0  0  0  0  0  0
   13.3979  -17.7919   20.9008 O   0  0  0  0  0  0  0  0  0  0  0  0
   10.6287  -14.5218   27.3820 N   0  0  0  0  0  0  0  0  0  0  0  0
   11.1225  -15.5910   28.1982 C   0  0  0  0  0  0  0  0  0  0  0  0
   11.1760  -15.4468   29.4464 O   0  0  0  0  0  0  0  0  0  0  0  0
   11.5624  -16.8570   27.6194 C   0  0  0  0  0  0  0  0  0  0  0  0
   11.5525  -16.9920   26.1538 C   0  0  0  0  0  0  0  0  0  0  0  0
   12.8657  -17.1357   25.4580 C   0  0  2  0  0  0  0  0  0  0  0  0
   12.5152  -17.2468   24.0250 N   0  0  0  0  0  0  0  0  0  0  0  0
   13.5898  -18.3409   25.8276 C   0  0  0  0  0  0  0  0  0  0  0  0
   13.4210  -19.5027   25.0655 O   0  0  0  0  0  0  0  0  0  0  0  0
   14.3721  -18.4333   26.7968 O   0  0  0  0  0  0  0  0  0  0  0  0
  2  1  1  1
  3  4  1  0
  3  2  1  0
  4 12  1  0
  4  5  2  0
  5  6  1  0
  7  8  2  0
  7  6  1  0
  9  8  1  0
 10  9  2  0
 11 10  1  0
 11 12  2  0
 12  7  1  0
 13  2  1  0
 14 13  2  0
 15 13  1  0
 16 15  1  0
 16 17  1  6
 18 19  2  0
 18 17  1  0
 20 16  1  0
 21 20  2  0
 22 18  1  0
 23 24  1  0
 24 26  1  0
 25 24  2  0
 27 26  1  0
 28 27  1  1
 28 29  1  0
 29 20  1  0
 30 28  1  0
 30 31  1  0
 32 30  2  0
M  END
$$$$
