WDQ.pdb
     RDKit          3D

 32 33  0  0  1  0  0  0  0  0999 V2000
    6.6696  -17.6773   24.5811 N   0  0  0  0  0  0  0  0  0  0  0  0
    7.5693  -17.2881   23.5204 C   0  0  1  0  0  0  0  0  0  0  0  0
    7.5732  -15.7811   23.4046 C   0  0  0  0  0  0  0  0  0  0  0  0
    7.0242  -15.0905   24.5759 C   0  0  0  0  0  0  0  0  0  0  0  0
    6.3299  -15.6794   25.6107 C   0  0  0  0  0  0  0  0  0  0  0  0
    5.9892  -14.7171   26.5135 N   0  0  0  0  0  0  0  0  0  0  0  0
    6.4379  -13.5477   26.0937 C   0  0  0  0  0  0  0  0  0  0  0  0
    6.3705  -12.2677   26.6095 C   0  0  0  0  0  0  0  0  0  0  0  0
    6.9464  -11.2252   25.9195 C   0  0  0  0  0  0  0  0  0  0  0  0
    7.6084  -11.4034   24.7009 C   0  0  0  0  0  0  0  0  0  0  0  0
    7.6651  -12.6881   24.2025 C   0  0  0  0  0  0  0  0  0  0  0  0
    7.0888  -13.7481   24.8865 C   0  0  0  0  0  0  0  0  0  0  0  0
    8.9593  -17.6947   23.8722 C   0  0  0  0  0  0  0  0  0  0  0  0
    9.4150  -17.4741   25.0188 O   0  0  0  0  0  0  0  0  0  0  0  0
    9.8453  -18.3436   22.9498 N   0  0  0  0  0  0  0  0  0  0  0  0
   10.8725  -17.6845   22.2253 C   0  0  1  0  0  0  0  0  0  0  0  0
   10.4714  -16.6453   21.2454 C   0  0  0  0  0  0  0  0  0  0  0  0
   11.5878  -16.1340   20.4009 C   0  0  0  0  0  0  0  0  0  0  0  0
   12.7345  -16.5725   20.5268 O   0  0  0  0  0  0  0  0  0  0  0  0
   11.9024  -17.0797   23.1437 C   0  0  0  0  0  0  0  0  0  0  0  0
   12.9781  -16.6190   22.7314 O   0  0  0  0  0  0  0  0  0  0  0  0
   11.3568  -15.1290   19.4251 O   0  0  0  0  0  0  0  0  0  0  0  0
    9.5205  -15.9043   28.9287 N   0  0  0  0  0  0  0  0  0  0  0  0
   10.7774  -15.2163   28.9387 C   0  0  0  0  0  0  0  0  0  0  0  0
   11.1035  -14.5316   29.9419 O   0  0  0  0  0  0  0  0  0  0  0  0
   11.7023  -15.2932   27.8118 C   0  0  0  0  0  0  0  0  0  0  0  0
   11.2648  -16.0060   26.6007 C   0  0  0  0  0  0  0  0  0  0  0  0
   12.2232  -16.0942   25.4592 C   0  0  2  0  0  0  0  0  0  0  0  0
   11.5962  -17.0524   24.5225 N   0  0  0  0  0  0  0  0  0  0  0  0
   13.5221  -16.6304   25.8317 C   0  0  0  0  0  0  0  0  0  0  0  0
   13.8312  -17.9586   25.5165 O   0  0  0  0  0  0  0  0  0  0  0  0
   14.4130  -15.9899   26.4285 O   0  0  0  0  0  0  0  0  0  0  0  0
  2  1  1  1
  3  4  1  0
  3  2  1  0
  4 12  1  0
  4  5  2  0
  5  6  1  0
  7  8  2  0
  7  6  1  0
  9  8  1  0
 10  9  2  0
 11 10  1  0
 11 12  2  0
 12  7  1  0
 13  2  1  0
 14 13  2  0
 15 13  1  0
 16 15  1  0
 16 17  1  1
 18 19  2  0
 18 17  1  0
 20 16  1  0
 21 20  2  0
 22 18  1  0
 23 24  1  0
 24 26  1  0
 25 24  2  0
 27 26  1  0
 28 27  1  1
 28 29  1  0
 29 20  1  0
 30 28  1  0
 30 31  1  0
 32 30  2  0
M  END
$$$$
