MPW.pdb
     RDKit          3D

 30 32  0  0  1  0  0  0  0  0999 V2000
    9.1051  -11.8014   20.2115 C   0  0  0  0  0  0  0  0  0  0  0  0
    7.8856  -12.1919   18.9195 S   0  0  0  0  0  0  0  0  0  0  0  0
    7.3361  -13.9147   19.0334 C   0  0  0  0  0  0  0  0  0  0  0  0
    7.9934  -14.5923   20.1960 C   0  0  0  0  0  0  0  0  0  0  0  0
    7.5363  -16.0229   20.3946 C   0  0  2  0  0  0  0  0  0  0  0  0
    6.1173  -16.0960   20.3458 N   0  0  0  0  0  0  0  0  0  0  0  0
    8.2140  -16.6988   21.4849 C   0  0  0  0  0  0  0  0  0  0  0  0
    7.5847  -16.6905   22.6077 O   0  0  0  0  0  0  0  0  0  0  0  0
    9.4862  -17.3664   21.4660 N   0  0  0  0  0  0  0  0  0  0  0  0
   10.2096  -17.5844   20.2507 C   0  0  0  0  0  0  0  0  0  0  0  0
   11.0761  -18.8209   20.5718 C   0  0  0  0  0  0  0  0  0  0  0  0
   11.3809  -18.6449   22.0335 C   0  0  0  0  0  0  0  0  0  0  0  0
   10.1997  -17.9071   22.5564 C   0  0  1  0  0  0  0  0  0  0  0  0
   10.5801  -16.9142   23.5964 C   0  0  0  0  0  0  0  0  0  0  0  0
   11.2123  -15.8772   23.3664 O   0  0  0  0  0  0  0  0  0  0  0  0
   10.1814  -17.1965   24.9231 N   0  0  0  0  0  0  0  0  0  0  0  0
   10.5195  -16.3642   26.0741 C   0  0  1  0  0  0  0  0  0  0  0  0
    9.9796  -14.9982   25.7511 C   0  0  0  0  0  0  0  0  0  0  0  0
    8.5374  -14.8198   25.9934 C   0  0  0  0  0  0  0  0  0  0  0  0
    7.5980  -15.8323   25.8917 C   0  0  0  0  0  0  0  0  0  0  0  0
    6.3856  -15.3153   26.1450 N   0  0  0  0  0  0  0  0  0  0  0  0
    6.4801  -14.0037   26.4111 C   0  0  0  0  0  0  0  0  0  0  0  0
    5.5150  -13.0679   26.7372 C   0  0  0  0  0  0  0  0  0  0  0  0
    5.9038  -11.7709   26.9805 C   0  0  0  0  0  0  0  0  0  0  0  0
    7.2376  -11.4529   26.8904 C   0  0  0  0  0  0  0  0  0  0  0  0
    8.1948  -12.3871   26.5648 C   0  0  0  0  0  0  0  0  0  0  0  0
    7.8282  -13.6835   26.3185 C   0  0  0  0  0  0  0  0  0  0  0  0
   10.1423  -16.9506   27.3362 C   0  0  0  0  0  0  0  0  0  0  0  0
   10.4384  -16.4086   28.4235 O   0  0  0  0  0  0  0  0  0  0  0  0
    9.4347  -18.1419   27.3845 O   0  0  0  0  0  0  0  0  0  0  0  0
  1  2  1  0
  2  3  1  0
  4  3  1  0
  4  5  1  0
  5  7  1  0
  5  6  1  1
  7  8  2  0
  9 13  1  0
  9  7  1  0
 10  9  1  0
 11 10  1  0
 11 12  1  0
 12 13  1  0
 13 14  1  1
 14 15  2  0
 16 14  1  0
 16 17  1  0
 17 28  1  0
 17 18  1  6
 19 18  1  0
 20 19  2  0
 21 20  1  0
 22 21  1  0
 22 27  2  0
 23 22  1  0
 24 23  2  0
 24 25  1  0
 25 26  2  0
 26 27  1  0
 27 19  1  0
 28 29  2  0
 28 30  1  0
M  END
$$$$
