MPW.pdb
     RDKit          3D

 30 32  0  0  1  0  0  0  0  0999 V2000
    7.9574  -12.1043   20.3779 C   0  0  0  0  0  0  0  0  0  0  0  0
    7.5724  -12.7064   18.7051 S   0  0  0  0  0  0  0  0  0  0  0  0
    7.3482  -14.5044   18.6892 C   0  0  0  0  0  0  0  0  0  0  0  0
    8.2083  -15.1430   19.7357 C   0  0  0  0  0  0  0  0  0  0  0  0
    8.1188  -16.6552   19.7462 C   0  0  2  0  0  0  0  0  0  0  0  0
    6.7628  -17.0675   19.6340 N   0  0  0  0  0  0  0  0  0  0  0  0
    8.9339  -17.2740   20.7746 C   0  0  0  0  0  0  0  0  0  0  0  0
    8.2822  -17.7318   21.7859 O   0  0  0  0  0  0  0  0  0  0  0  0
   10.3614  -17.4350   20.8035 N   0  0  0  0  0  0  0  0  0  0  0  0
   11.1682  -17.2543   19.6355 C   0  0  0  0  0  0  0  0  0  0  0  0
   12.4105  -18.1232   19.9258 C   0  0  0  0  0  0  0  0  0  0  0  0
   12.5644  -17.9991   21.4161 C   0  0  0  0  0  0  0  0  0  0  0  0
   11.1733  -17.7915   21.9008 C   0  0  1  0  0  0  0  0  0  0  0  0
   11.1185  -16.8394   23.0421 C   0  0  0  0  0  0  0  0  0  0  0  0
   11.3905  -15.6367   22.9552 O   0  0  0  0  0  0  0  0  0  0  0  0
   10.7274  -17.3671   24.2940 N   0  0  0  0  0  0  0  0  0  0  0  0
   10.2091  -16.5616   25.3961 C   0  0  1  0  0  0  0  0  0  0  0  0
    9.1441  -15.6913   24.7877 C   0  0  0  0  0  0  0  0  0  0  0  0
    8.2761  -14.9941   25.7526 C   0  0  0  0  0  0  0  0  0  0  0  0
    7.7796  -15.5673   26.9115 C   0  0  0  0  0  0  0  0  0  0  0  0
    7.0035  -14.6663   27.5335 N   0  0  0  0  0  0  0  0  0  0  0  0
    6.9641  -13.5197   26.8378 C   0  0  0  0  0  0  0  0  0  0  0  0
    6.3169  -12.3231   27.0885 C   0  0  0  0  0  0  0  0  0  0  0  0
    6.4683  -11.2872   26.1961 C   0  0  0  0  0  0  0  0  0  0  0  0
    7.2574  -11.4799   25.0877 C   0  0  0  0  0  0  0  0  0  0  0  0
    7.8992  -12.6725   24.8416 C   0  0  0  0  0  0  0  0  0  0  0  0
    7.7609  -13.7162   25.7176 C   0  0  0  0  0  0  0  0  0  0  0  0
    9.8539  -17.3395   26.5571 C   0  0  0  0  0  0  0  0  0  0  0  0
   10.1902  -16.9863   27.7085 O   0  0  0  0  0  0  0  0  0  0  0  0
    9.1233  -18.5112   26.4326 O   0  0  0  0  0  0  0  0  0  0  0  0
  1  2  1  0
  2  3  1  0
  4  3  1  0
  4  5  1  0
  5  7  1  0
  5  6  1  1
  7  8  2  0
  9 13  1  0
  9  7  1  0
 10  9  1  0
 11 10  1  0
 11 12  1  0
 12 13  1  0
 13 14  1  1
 14 15  2  0
 16 14  1  0
 16 17  1  0
 17 28  1  0
 17 18  1  6
 19 18  1  0
 20 19  2  0
 21 20  1  0
 22 21  1  0
 22 27  2  0
 23 22  1  0
 24 23  2  0
 24 25  1  0
 25 26  2  0
 26 27  1  0
 27 19  1  0
 28 29  2  0
 28 30  1  0
M  END
$$$$
