MPW.pdb
     RDKit          3D

 30 32  0  0  1  0  0  0  0  0999 V2000
   14.4259  -15.0015   18.1288 C   0  0  0  0  0  0  0  0  0  0  0  0
   13.3514  -14.0201   17.0374 S   0  0  0  0  0  0  0  0  0  0  0  0
   11.7422  -14.8204   16.8065 C   0  0  0  0  0  0  0  0  0  0  0  0
   11.1747  -15.2337   18.1293 C   0  0  0  0  0  0  0  0  0  0  0  0
    9.6985  -14.9252   18.2725 C   0  0  2  0  0  0  0  0  0  0  0  0
    9.4118  -13.6391   17.7387 N   0  0  0  0  0  0  0  0  0  0  0  0
    9.1655  -15.2512   19.5819 C   0  0  0  0  0  0  0  0  0  0  0  0
    9.2861  -14.3241   20.4667 O   0  0  0  0  0  0  0  0  0  0  0  0
    8.5293  -16.4671   20.0075 N   0  0  0  0  0  0  0  0  0  0  0  0
    8.3089  -17.5609   19.1116 C   0  0  0  0  0  0  0  0  0  0  0  0
    7.0997  -18.2905   19.7347 C   0  0  0  0  0  0  0  0  0  0  0  0
    7.3073  -18.0826   21.2091 C   0  0  0  0  0  0  0  0  0  0  0  0
    8.0244  -16.7816   21.2869 C   0  0  1  0  0  0  0  0  0  0  0  0
    9.0436  -16.7723   22.3702 C   0  0  0  0  0  0  0  0  0  0  0  0
   10.2389  -17.0372   22.1996 O   0  0  0  0  0  0  0  0  0  0  0  0
    8.5921  -16.4357   23.6669 N   0  0  0  0  0  0  0  0  0  0  0  0
    9.4471  -16.4098   24.8503 C   0  0  1  0  0  0  0  0  0  0  0  0
    9.3506  -15.0061   25.3815 C   0  0  0  0  0  0  0  0  0  0  0  0
    7.9908  -14.5586   25.7293 C   0  0  0  0  0  0  0  0  0  0  0  0
    6.8848  -15.3905   25.7808 C   0  0  0  0  0  0  0  0  0  0  0  0
    5.8099  -14.6511   26.0955 N   0  0  0  0  0  0  0  0  0  0  0  0
    6.1550  -13.3644   26.2557 C   0  0  0  0  0  0  0  0  0  0  0  0
    5.4020  -12.2537   26.5913 C   0  0  0  0  0  0  0  0  0  0  0  0
    6.0310  -11.0355   26.7055 C   0  0  0  0  0  0  0  0  0  0  0  0
    7.3850  -10.9674   26.4816 C   0  0  0  0  0  0  0  0  0  0  0  0
    8.1306  -12.0751   26.1470 C   0  0  0  0  0  0  0  0  0  0  0  0
    7.5232  -13.2968   26.0279 C   0  0  0  0  0  0  0  0  0  0  0  0
    9.1883  -17.4911   25.7684 C   0  0  0  0  0  0  0  0  0  0  0  0
    8.1144  -18.1310   25.7388 O   0  0  0  0  0  0  0  0  0  0  0  0
   10.1283  -17.8580   26.7192 O   0  0  0  0  0  0  0  0  0  0  0  0
  1  2  1  0
  2  3  1  0
  4  3  1  0
  4  5  1  0
  5  7  1  0
  5  6  1  1
  7  8  2  0
  9 13  1  0
  9  7  1  0
 10  9  1  0
 11 10  1  0
 11 12  1  0
 12 13  1  0
 13 14  1  1
 14 15  2  0
 16 14  1  0
 16 17  1  0
 17 28  1  0
 17 18  1  1
 19 18  1  0
 20 19  2  0
 21 20  1  0
 22 21  1  0
 22 27  2  0
 23 22  1  0
 24 23  2  0
 24 25  1  0
 25 26  2  0
 26 27  1  0
 27 19  1  0
 28 29  2  0
 28 30  1  0
M  END
$$$$
