MPW.pdb
     RDKit          3D

 30 32  0  0  1  0  0  0  0  0999 V2000
    8.6908  -11.7480   21.5041 C   0  0  0  0  0  0  0  0  0  0  0  0
    7.6064  -13.1320   21.0380 S   0  0  0  0  0  0  0  0  0  0  0  0
    7.4017  -14.2975   22.4102 C   0  0  0  0  0  0  0  0  0  0  0  0
    6.4573  -15.3933   22.0226 C   0  0  0  0  0  0  0  0  0  0  0  0
    7.1448  -16.5779   21.3753 C   0  0  2  0  0  0  0  0  0  0  0  0
    6.1790  -17.5093   20.9053 N   0  0  0  0  0  0  0  0  0  0  0  0
    8.2617  -17.0891   22.1475 C   0  0  0  0  0  0  0  0  0  0  0  0
    7.9429  -17.6625   23.2549 O   0  0  0  0  0  0  0  0  0  0  0  0
    9.6625  -17.0331   21.8326 N   0  0  0  0  0  0  0  0  0  0  0  0
   10.1342  -16.6202   20.5462 C   0  0  0  0  0  0  0  0  0  0  0  0
   11.5086  -17.3139   20.4340 C   0  0  0  0  0  0  0  0  0  0  0  0
   12.0010  -17.3118   21.8545 C   0  0  0  0  0  0  0  0  0  0  0  0
   10.7534  -17.3659   22.6630 C   0  0  1  0  0  0  0  0  0  0  0  0
   10.8571  -16.5475   23.9007 C   0  0  0  0  0  0  0  0  0  0  0  0
   11.3698  -15.4237   23.9477 O   0  0  0  0  0  0  0  0  0  0  0  0
   10.3283  -17.1121   25.0840 N   0  0  0  0  0  0  0  0  0  0  0  0
   10.4924  -16.5299   26.4130 C   0  0  1  0  0  0  0  0  0  0  0  0
   10.0724  -15.0926   26.2736 C   0  0  0  0  0  0  0  0  0  0  0  0
    8.6396  -14.8804   26.0043 C   0  0  0  0  0  0  0  0  0  0  0  0
    7.7314  -15.8984   25.7655 C   0  0  0  0  0  0  0  0  0  0  0  0
    6.5299  -15.3500   25.5273 N   0  0  0  0  0  0  0  0  0  0  0  0
    6.6014  -14.0121   25.5983 C   0  0  0  0  0  0  0  0  0  0  0  0
    5.6320  -13.0378   25.4417 C   0  0  0  0  0  0  0  0  0  0  0  0
    5.9885  -11.7174   25.5892 C   0  0  0  0  0  0  0  0  0  0  0  0
    7.2955  -11.4150   25.8868 C   0  0  0  0  0  0  0  0  0  0  0  0
    8.2573  -12.3876   26.0411 C   0  0  0  0  0  0  0  0  0  0  0  0
    7.9228  -13.7079   25.8979 C   0  0  0  0  0  0  0  0  0  0  0  0
    9.8766  -17.3076   27.4595 C   0  0  0  0  0  0  0  0  0  0  0  0
    9.1730  -18.3088   27.2023 O   0  0  0  0  0  0  0  0  0  0  0  0
   10.0465  -16.9676   28.7928 O   0  0  0  0  0  0  0  0  0  0  0  0
  1  2  1  0
  2  3  1  0
  4  3  1  0
  4  5  1  0
  5  7  1  0
  5  6  1  1
  7  8  2  0
  9 13  1  0
  9  7  1  0
 10  9  1  0
 11 10  1  0
 11 12  1  0
 12 13  1  0
 13 14  1  1
 14 15  2  0
 16 14  1  0
 16 17  1  0
 17 28  1  0
 17 18  1  6
 19 18  1  0
 20 19  2  0
 21 20  1  0
 22 21  1  0
 22 27  2  0
 23 22  1  0
 24 23  2  0
 24 25  1  0
 25 26  2  0
 26 27  1  0
 27 19  1  0
 28 29  2  0
 28 30  1  0
M  END
$$$$
