MPW.pdb
     RDKit          3D

 30 32  0  0  1  0  0  0  0  0999 V2000
    7.7426  -11.7431   17.5717 C   0  0  0  0  0  0  0  0  0  0  0  0
    7.4958  -12.5516   19.1823 S   0  0  0  0  0  0  0  0  0  0  0  0
    8.8568  -13.6851   19.5643 C   0  0  0  0  0  0  0  0  0  0  0  0
    8.5864  -14.4049   20.8494 C   0  0  0  0  0  0  0  0  0  0  0  0
    8.0404  -15.8040   20.6510 C   0  0  2  0  0  0  0  0  0  0  0  0
    6.7133  -15.7457   20.1444 N   0  0  0  0  0  0  0  0  0  0  0  0
    8.3017  -16.6891   21.7705 C   0  0  0  0  0  0  0  0  0  0  0  0
    7.4790  -16.5822   22.7546 O   0  0  0  0  0  0  0  0  0  0  0  0
    9.3539  -17.6569   21.9145 N   0  0  0  0  0  0  0  0  0  0  0  0
   10.1258  -18.1090   20.7975 C   0  0  0  0  0  0  0  0  0  0  0  0
   10.6050  -19.5076   21.2416 C   0  0  0  0  0  0  0  0  0  0  0  0
   10.7826  -19.3445   22.7256 C   0  0  0  0  0  0  0  0  0  0  0  0
    9.7805  -18.3076   23.0914 C   0  0  1  0  0  0  0  0  0  0  0  0
   10.2867  -17.3944   24.1507 C   0  0  0  0  0  0  0  0  0  0  0  0
   11.0355  -16.4341   23.9383 O   0  0  0  0  0  0  0  0  0  0  0  0
    9.8707  -17.6622   25.4750 N   0  0  0  0  0  0  0  0  0  0  0  0
   10.3495  -16.9339   26.6465 C   0  0  1  0  0  0  0  0  0  0  0  0
   10.0268  -15.4898   26.3779 C   0  0  0  0  0  0  0  0  0  0  0  0
    8.5922  -15.1547   26.3877 C   0  0  0  0  0  0  0  0  0  0  0  0
    7.5731  -16.0832   26.2564 C   0  0  0  0  0  0  0  0  0  0  0  0
    6.3993  -15.4328   26.2753 N   0  0  0  0  0  0  0  0  0  0  0  0
    6.5955  -14.1128   26.4142 C   0  0  0  0  0  0  0  0  0  0  0  0
    5.6999  -13.0618   26.4971 C   0  0  0  0  0  0  0  0  0  0  0  0
    6.1875  -11.7856   26.6581 C   0  0  0  0  0  0  0  0  0  0  0  0
    7.5475  -11.6021   26.7305 C   0  0  0  0  0  0  0  0  0  0  0  0
    8.4353  -12.6506   26.6468 C   0  0  0  0  0  0  0  0  0  0  0  0
    7.9700  -13.9286   26.4860 C   0  0  0  0  0  0  0  0  0  0  0  0
    9.9004  -17.4979   27.8952 C   0  0  0  0  0  0  0  0  0  0  0  0
    9.0433  -18.4077   27.9310 O   0  0  0  0  0  0  0  0  0  0  0  0
   10.4080  -17.0463   29.1037 O   0  0  0  0  0  0  0  0  0  0  0  0
  1  2  1  0
  2  3  1  0
  4  3  1  0
  4  5  1  0
  5  7  1  0
  5  6  1  1
  7  8  2  0
  9 13  1  0
  9  7  1  0
 10  9  1  0
 11 10  1  0
 11 12  1  0
 12 13  1  0
 13 14  1  1
 14 15  2  0
 16 14  1  0
 16 17  1  0
 17 28  1  0
 17 18  1  6
 19 18  1  0
 20 19  2  0
 21 20  1  0
 22 21  1  0
 22 27  2  0
 23 22  1  0
 24 23  2  0
 24 25  1  0
 25 26  2  0
 26 27  1  0
 27 19  1  0
 28 29  2  0
 28 30  1  0
M  END
$$$$
