MPW.pdb
     RDKit          3D

 30 32  0  0  1  0  0  0  0  0999 V2000
    5.2706  -20.3375   23.7103 C   0  0  0  0  0  0  0  0  0  0  0  0
    5.2996  -21.0115   22.0211 S   0  0  0  0  0  0  0  0  0  0  0  0
    5.6015  -19.7086   20.7986 C   0  0  0  0  0  0  0  0  0  0  0  0
    6.5870  -18.7155   21.3326 C   0  0  0  0  0  0  0  0  0  0  0  0
    7.4460  -18.0834   20.2568 C   0  0  2  0  0  0  0  0  0  0  0  0
    8.0965  -19.0908   19.4932 N   0  0  0  0  0  0  0  0  0  0  0  0
    8.2460  -16.9720   20.7363 C   0  0  0  0  0  0  0  0  0  0  0  0
    9.4087  -17.2907   21.1871 O   0  0  0  0  0  0  0  0  0  0  0  0
    7.9032  -15.5771   20.7711 N   0  0  0  0  0  0  0  0  0  0  0  0
    6.7353  -15.0672   20.1202 C   0  0  0  0  0  0  0  0  0  0  0  0
    7.0999  -13.5931   19.8431 C   0  0  0  0  0  0  0  0  0  0  0  0
    7.9651  -13.2359   21.0196 C   0  0  0  0  0  0  0  0  0  0  0  0
    8.6088  -14.5245   21.3914 C   0  0  1  0  0  0  0  0  0  0  0  0
    8.7575  -14.6671   22.8644 C   0  0  0  0  0  0  0  0  0  0  0  0
    7.9934  -14.1562   23.6910 O   0  0  0  0  0  0  0  0  0  0  0  0
    9.8484  -15.4407   23.3228 N   0  0  0  0  0  0  0  0  0  0  0  0
   10.2264  -15.5716   24.7271 C   0  0  1  0  0  0  0  0  0  0  0  0
    9.0580  -16.2440   25.3938 C   0  0  0  0  0  0  0  0  0  0  0  0
    7.8224  -15.4438   25.4517 C   0  0  0  0  0  0  0  0  0  0  0  0
    6.6289  -15.8065   24.8500 C   0  0  0  0  0  0  0  0  0  0  0  0
    5.7272  -14.8382   25.0745 N   0  0  0  0  0  0  0  0  0  0  0  0
    6.2706  -13.8488   25.7999 C   0  0  0  0  0  0  0  0  0  0  0  0
    5.7321  -12.6683   26.2792 C   0  0  0  0  0  0  0  0  0  0  0  0
    6.5285  -11.8305   27.0251 C   0  0  0  0  0  0  0  0  0  0  0  0
    7.8305  -12.1978   27.2663 C   0  0  0  0  0  0  0  0  0  0  0  0
    8.3627  -13.3732   26.7868 C   0  0  0  0  0  0  0  0  0  0  0  0
    7.5865  -14.2207   26.0419 C   0  0  0  0  0  0  0  0  0  0  0  0
   11.5311  -16.1550   24.9176 C   0  0  0  0  0  0  0  0  0  0  0  0
   11.9900  -16.3713   26.0605 O   0  0  0  0  0  0  0  0  0  0  0  0
   12.3233  -16.4970   23.8324 O   0  0  0  0  0  0  0  0  0  0  0  0
  1  2  1  0
  2  3  1  0
  4  3  1  0
  4  5  1  0
  5  7  1  0
  5  6  1  1
  7  8  2  0
  9 13  1  0
  9  7  1  0
 10  9  1  0
 11 10  1  0
 11 12  1  0
 12 13  1  0
 13 14  1  1
 14 15  2  0
 16 14  1  0
 16 17  1  0
 17 28  1  0
 17 18  1  1
 19 18  1  0
 20 19  2  0
 21 20  1  0
 22 21  1  0
 22 27  2  0
 23 22  1  0
 24 23  2  0
 24 25  1  0
 25 26  2  0
 26 27  1  0
 27 19  1  0
 28 29  2  0
 28 30  1  0
M  END
$$$$
