IFT.pdb
     RDKit          3D

 27 27  0  0  1  0  0  0  0  0999 V2000
    7.2574  -13.6499   18.3347 C   0  0  0  0  0  0  0  0  0  0  0  0
    7.3005  -12.7707   19.5698 C   0  0  0  0  0  0  0  0  0  0  0  0
    8.3935  -13.2285   20.5322 C   0  0  2  0  0  0  0  0  0  0  0  0
    9.6420  -13.4168   19.7160 C   0  0  0  0  0  0  0  0  0  0  0  0
    7.9099  -14.4966   21.1696 C   0  0  2  0  0  0  0  0  0  0  0  0
    6.4676  -14.4181   21.2885 N   0  0  0  0  0  0  0  0  0  0  0  0
    8.5576  -14.7475   22.4886 C   0  0  0  0  0  0  0  0  0  0  0  0
    9.7093  -14.4020   22.7597 O   0  0  0  0  0  0  0  0  0  0  0  0
    7.7818  -15.4230   23.4669 N   0  0  0  0  0  0  0  0  0  0  0  0
    8.2382  -15.8038   24.7698 C   0  0  1  0  0  0  0  0  0  0  0  0
    7.2477  -15.5035   25.8511 C   0  0  0  0  0  0  0  0  0  0  0  0
    7.0958  -14.0627   26.1130 C   0  0  0  0  0  0  0  0  0  0  0  0
    5.9527  -13.3983   25.7347 C   0  0  0  0  0  0  0  0  0  0  0  0
    5.7867  -12.0386   25.9713 C   0  0  0  0  0  0  0  0  0  0  0  0
    6.7723  -11.3059   26.5988 C   0  0  0  0  0  0  0  0  0  0  0  0
    7.9170  -11.9663   26.9788 C   0  0  0  0  0  0  0  0  0  0  0  0
    8.0676  -13.3145   26.7376 C   0  0  0  0  0  0  0  0  0  0  0  0
    8.7302  -17.1868   24.8901 C   0  0  0  0  0  0  0  0  0  0  0  0
    7.9860  -18.1862   24.8450 O   0  0  0  0  0  0  0  0  0  0  0  0
   11.5002  -18.8062   22.8296 C   0  0  0  0  0  0  0  0  0  0  0  0
   11.9291  -18.8537   24.2836 C   0  0  1  0  0  0  0  0  0  0  0  0
   12.8204  -17.8235   24.5358 O   0  0  0  0  0  0  0  0  0  0  0  0
   10.6814  -18.7484   25.1702 C   0  0  2  0  0  0  0  0  0  0  0  0
   10.1204  -17.4003   25.0649 N   0  0  0  0  0  0  0  0  0  0  0  0
   11.1271  -18.9996   26.5575 C   0  0  0  0  0  0  0  0  0  0  0  0
   11.5752  -20.2570   26.9189 O   0  0  0  0  0  0  0  0  0  0  0  0
   11.0967  -18.0811   27.3891 O   0  0  0  0  0  0  0  0  0  0  0  0
  2  1  1  0
  3  2  1  0
  3  4  1  6
  5  3  1  0
  5  6  1  1
  7  8  2  0
  7  5  1  0
  9  7  1  0
 10  9  1  0
 11 12  1  0
 10 11  1  1
 12 13  2  0
 12 17  1  0
 13 14  1  0
 14 15  2  0
 16 15  1  0
 17 16  2  0
 18 24  1  0
 18 10  1  0
 19 18  2  0
 21 20  1  6
 22 21  1  0
 23 24  1  1
 23 21  1  0
 25 23  1  0
 26 25  1  0
 27 25  2  0
M  END
$$$$
