IFT.pdb
     RDKit          3D

 27 27  0  0  1  0  0  0  0  0999 V2000
    7.8317  -19.5832   18.1044 C   0  0  0  0  0  0  0  0  0  0  0  0
    8.3369  -18.1644   18.2833 C   0  0  0  0  0  0  0  0  0  0  0  0
    8.5501  -17.8392   19.7595 C   0  0  2  0  0  0  0  0  0  0  0  0
    7.2475  -18.1128   20.4586 C   0  0  0  0  0  0  0  0  0  0  0  0
    8.9673  -16.4009   19.8332 C   0  0  2  0  0  0  0  0  0  0  0  0
   10.1391  -16.2296   18.9978 N   0  0  0  0  0  0  0  0  0  0  0  0
    9.2209  -15.9582   21.2338 C   0  0  0  0  0  0  0  0  0  0  0  0
   10.2089  -16.2975   21.8881 O   0  0  0  0  0  0  0  0  0  0  0  0
    8.2550  -15.0993   21.8208 N   0  0  0  0  0  0  0  0  0  0  0  0
    8.2387  -14.6826   23.1907 C   0  0  1  0  0  0  0  0  0  0  0  0
    7.2880  -13.5563   23.4517 C   0  0  0  0  0  0  0  0  0  0  0  0
    7.2469  -13.1495   24.8661 C   0  0  0  0  0  0  0  0  0  0  0  0
    6.0950  -13.2934   25.6035 C   0  0  0  0  0  0  0  0  0  0  0  0
    6.0323  -12.9165   26.9400 C   0  0  0  0  0  0  0  0  0  0  0  0
    7.1335  -12.3813   27.5748 C   0  0  0  0  0  0  0  0  0  0  0  0
    8.2874  -12.2356   26.8412 C   0  0  0  0  0  0  0  0  0  0  0  0
    8.3348  -12.6137   25.5170 C   0  0  0  0  0  0  0  0  0  0  0  0
    8.0481  -15.7584   24.1785 C   0  0  0  0  0  0  0  0  0  0  0  0
    6.9412  -16.2779   24.4222 O   0  0  0  0  0  0  0  0  0  0  0  0
    9.1604  -19.0333   23.9334 C   0  0  0  0  0  0  0  0  0  0  0  0
    9.8707  -18.5627   25.1881 C   0  0  1  0  0  0  0  0  0  0  0  0
   11.1704  -18.2001   24.8741 O   0  0  0  0  0  0  0  0  0  0  0  0
    9.0875  -17.3876   25.7877 C   0  0  2  0  0  0  0  0  0  0  0  0
    9.1772  -16.2335   24.8915 N   0  0  0  0  0  0  0  0  0  0  0  0
    9.7289  -17.0694   27.0814 C   0  0  0  0  0  0  0  0  0  0  0  0
   10.4308  -15.8870   27.2287 O   0  0  0  0  0  0  0  0  0  0  0  0
    9.6337  -17.8648   28.0271 O   0  0  0  0  0  0  0  0  0  0  0  0
  2  1  1  0
  3  2  1  0
  3  4  1  1
  5  3  1  0
  5  6  1  6
  7  8  2  0
  7  5  1  0
  9  7  1  0
 10  9  1  0
 11 12  1  0
 10 11  1  6
 12 13  2  0
 12 17  1  0
 13 14  1  0
 14 15  2  0
 16 15  1  0
 17 16  2  0
 18 24  1  0
 18 10  1  0
 19 18  2  0
 21 20  1  6
 22 21  1  0
 23 24  1  6
 23 21  1  0
 25 23  1  0
 26 25  1  0
 27 25  2  0
M  END
$$$$
