IFT.pdb
     RDKit          3D

 27 27  0  0  1  0  0  0  0  0999 V2000
    8.1856  -20.0047   18.5400 C   0  0  0  0  0  0  0  0  0  0  0  0
    8.0440  -18.4948   18.5592 C   0  0  0  0  0  0  0  0  0  0  0  0
    8.5004  -17.9173   19.8967 C   0  0  2  0  0  0  0  0  0  0  0  0
    7.6648  -18.5715   20.9617 C   0  0  0  0  0  0  0  0  0  0  0  0
    8.3015  -16.4330   19.8211 C   0  0  2  0  0  0  0  0  0  0  0  0
    9.0061  -15.9442   18.6527 N   0  0  0  0  0  0  0  0  0  0  0  0
    8.7488  -15.7401   21.0628 C   0  0  0  0  0  0  0  0  0  0  0  0
    9.9323  -15.5449   21.3465 O   0  0  0  0  0  0  0  0  0  0  0  0
    7.7344  -15.2913   21.9488 N   0  0  0  0  0  0  0  0  0  0  0  0
    7.9559  -14.7302   23.2475 C   0  0  1  0  0  0  0  0  0  0  0  0
    6.9238  -13.7175   23.6346 C   0  0  0  0  0  0  0  0  0  0  0  0
    7.1057  -13.1986   25.0003 C   0  0  0  0  0  0  0  0  0  0  0  0
    8.0487  -12.2327   25.2632 C   0  0  0  0  0  0  0  0  0  0  0  0
    8.2385  -11.7277   26.5442 C   0  0  0  0  0  0  0  0  0  0  0  0
    7.4802  -12.1834   27.6021 C   0  0  0  0  0  0  0  0  0  0  0  0
    6.5360  -13.1492   27.3438 C   0  0  0  0  0  0  0  0  0  0  0  0
    6.3590  -13.6405   26.0686 C   0  0  0  0  0  0  0  0  0  0  0  0
    8.1554  -15.7048   24.3336 C   0  0  0  0  0  0  0  0  0  0  0  0
    7.2681  -16.4892   24.7233 O   0  0  0  0  0  0  0  0  0  0  0  0
   11.6442  -18.4720   26.3577 C   0  0  0  0  0  0  0  0  0  0  0  0
   11.2159  -17.3640   25.4149 C   0  0  1  0  0  0  0  0  0  0  0  0
   11.2539  -17.8280   24.1100 O   0  0  0  0  0  0  0  0  0  0  0  0
    9.8071  -16.8993   25.8065 C   0  0  2  0  0  0  0  0  0  0  0  0
    9.4195  -15.7604   24.9723 N   0  0  0  0  0  0  0  0  0  0  0  0
    9.8790  -16.4823   27.2233 C   0  0  0  0  0  0  0  0  0  0  0  0
    9.7846  -17.4310   28.2250 O   0  0  0  0  0  0  0  0  0  0  0  0
   10.0235  -15.2842   27.5051 O   0  0  0  0  0  0  0  0  0  0  0  0
  2  1  1  0
  3  2  1  0
  3  4  1  1
  5  3  1  0
  5  6  1  6
  7  8  2  0
  7  5  1  0
  9  7  1  0
 10  9  1  0
 11 12  1  0
 10 11  1  1
 12 13  2  0
 12 17  1  0
 13 14  1  0
 14 15  2  0
 16 15  1  0
 17 16  2  0
 18 24  1  0
 18 10  1  0
 19 18  2  0
 21 20  1  1
 22 21  1  0
 23 24  1  6
 23 21  1  0
 25 23  1  0
 26 25  1  0
 27 25  2  0
M  END
$$$$
