IFT.pdb
     RDKit          3D

 27 27  0  0  1  0  0  0  0  0999 V2000
    8.8282  -19.7423   18.1417 C   0  0  0  0  0  0  0  0  0  0  0  0
    8.8866  -18.2333   18.2823 C   0  0  0  0  0  0  0  0  0  0  0  0
    9.1339  -17.8259   19.7326 C   0  0  2  0  0  0  0  0  0  0  0  0
    8.0342  -18.4421   20.5520 C   0  0  0  0  0  0  0  0  0  0  0  0
    9.1279  -16.3270   19.7713 C   0  0  2  0  0  0  0  0  0  0  0  0
   10.1199  -15.8492   18.8290 N   0  0  0  0  0  0  0  0  0  0  0  0
    9.3723  -15.7973   21.1431 C   0  0  0  0  0  0  0  0  0  0  0  0
   10.4719  -15.8258   21.6994 O   0  0  0  0  0  0  0  0  0  0  0  0
    8.2597  -15.2350   21.8222 N   0  0  0  0  0  0  0  0  0  0  0  0
    8.2714  -14.7400   23.1659 C   0  0  1  0  0  0  0  0  0  0  0  0
    7.2216  -13.7039   23.4203 C   0  0  0  0  0  0  0  0  0  0  0  0
    7.1913  -13.2416   24.8177 C   0  0  0  0  0  0  0  0  0  0  0  0
    8.2073  -12.4630   25.3206 C   0  0  0  0  0  0  0  0  0  0  0  0
    8.2005  -12.0148   26.6363 C   0  0  0  0  0  0  0  0  0  0  0  0
    7.1649  -12.3396   27.4872 C   0  0  0  0  0  0  0  0  0  0  0  0
    6.1468  -13.1179   26.9887 C   0  0  0  0  0  0  0  0  0  0  0  0
    6.1670  -13.5550   25.6820 C   0  0  0  0  0  0  0  0  0  0  0  0
    8.2483  -15.7680   24.2204 C   0  0  0  0  0  0  0  0  0  0  0  0
    7.2521  -16.4761   24.4667 O   0  0  0  0  0  0  0  0  0  0  0  0
   10.1267  -18.6871   24.1151 C   0  0  0  0  0  0  0  0  0  0  0  0
   10.6076  -18.0673   25.4131 C   0  0  1  0  0  0  0  0  0  0  0  0
   11.8149  -17.4228   25.1973 O   0  0  0  0  0  0  0  0  0  0  0  0
    9.5348  -17.0969   25.9243 C   0  0  2  0  0  0  0  0  0  0  0  0
    9.4159  -15.9692   24.9984 N   0  0  0  0  0  0  0  0  0  0  0  0
    9.9955  -16.6159   27.2444 C   0  0  0  0  0  0  0  0  0  0  0  0
   10.0546  -17.4915   28.3132 O   0  0  0  0  0  0  0  0  0  0  0  0
   10.3264  -15.4299   27.3857 O   0  0  0  0  0  0  0  0  0  0  0  0
  2  1  1  0
  3  2  1  0
  3  4  1  1
  5  3  1  0
  5  6  1  6
  7  8  2  0
  7  5  1  0
  9  7  1  0
 10  9  1  0
 11 12  1  0
 10 11  1  1
 12 13  2  0
 12 17  1  0
 13 14  1  0
 14 15  2  0
 16 15  1  0
 17 16  2  0
 18 24  1  0
 18 10  1  0
 19 18  2  0
 21 20  1  6
 22 21  1  0
 23 24  1  6
 23 21  1  0
 25 23  1  0
 26 25  1  0
 27 25  2  0
M  END
$$$$
