IFT.pdb
     RDKit          3D

 27 27  0  0  1  0  0  0  0  0999 V2000
    6.8065  -17.6679   18.0335 C   0  0  0  0  0  0  0  0  0  0  0  0
    6.5925  -16.4089   18.8516 C   0  0  0  0  0  0  0  0  0  0  0  0
    7.5389  -16.3641   20.0486 C   0  0  2  0  0  0  0  0  0  0  0  0
    7.3608  -17.6577   20.7937 C   0  0  0  0  0  0  0  0  0  0  0  0
    7.1601  -15.1607   20.8589 C   0  0  2  0  0  0  0  0  0  0  0  0
    7.2071  -14.0013   19.9907 N   0  0  0  0  0  0  0  0  0  0  0  0
    8.0334  -14.9882   22.0546 C   0  0  0  0  0  0  0  0  0  0  0  0
    9.1692  -14.5118   22.0068 O   0  0  0  0  0  0  0  0  0  0  0  0
    7.5019  -15.4041   23.3036 N   0  0  0  0  0  0  0  0  0  0  0  0
    8.2310  -15.4726   24.5341 C   0  0  1  0  0  0  0  0  0  0  0  0
    7.3829  -15.1985   25.7366 C   0  0  0  0  0  0  0  0  0  0  0  0
    7.0681  -13.7707   25.9096 C   0  0  0  0  0  0  0  0  0  0  0  0
    5.7625  -13.3441   25.9781 C   0  0  0  0  0  0  0  0  0  0  0  0
    5.4410  -12.0017   26.1411 C   0  0  0  0  0  0  0  0  0  0  0  0
    6.4303  -11.0460   26.2402 C   0  0  0  0  0  0  0  0  0  0  0  0
    7.7373  -11.4681   26.1722 C   0  0  0  0  0  0  0  0  0  0  0  0
    8.0409  -12.8023   26.0104 C   0  0  0  0  0  0  0  0  0  0  0  0
    9.0271  -16.6959   24.7320 C   0  0  0  0  0  0  0  0  0  0  0  0
    8.5233  -17.8118   24.9674 O   0  0  0  0  0  0  0  0  0  0  0  0
   11.9439  -17.5070   22.3467 C   0  0  0  0  0  0  0  0  0  0  0  0
   12.4738  -17.6396   23.7616 C   0  0  1  0  0  0  0  0  0  0  0  0
   13.2349  -16.5253   24.0757 O   0  0  0  0  0  0  0  0  0  0  0  0
   11.2869  -17.7993   24.7206 C   0  0  2  0  0  0  0  0  0  0  0  0
   10.4394  -16.6076   24.6506 N   0  0  0  0  0  0  0  0  0  0  0  0
   11.8565  -17.9310   26.0787 C   0  0  0  0  0  0  0  0  0  0  0  0
   12.5718  -19.0650   26.4175 O   0  0  0  0  0  0  0  0  0  0  0  0
   11.6896  -17.0237   26.9063 O   0  0  0  0  0  0  0  0  0  0  0  0
  2  1  1  0
  3  2  1  0
  3  4  1  1
  5  3  1  0
  5  6  1  6
  7  8  2  0
  7  5  1  0
  9  7  1  0
 10  9  1  0
 11 12  1  0
 10 11  1  1
 12 13  2  0
 12 17  1  0
 13 14  1  0
 14 15  2  0
 16 15  1  0
 17 16  2  0
 18 24  1  0
 18 10  1  0
 19 18  2  0
 21 20  1  6
 22 21  1  0
 23 24  1  1
 23 21  1  0
 25 23  1  0
 26 25  1  0
 27 25  2  0
M  END
$$$$
