IFT.pdb
     RDKit          3D

 27 27  0  0  1  0  0  0  0  0999 V2000
    9.2391  -19.9418   18.8024 C   0  0  0  0  0  0  0  0  0  0  0  0
    8.6712  -18.5551   19.0370 C   0  0  0  0  0  0  0  0  0  0  0  0
    9.0776  -18.0196   20.4076 C   0  0  2  0  0  0  0  0  0  0  0  0
    8.3110  -18.8120   21.4299 C   0  0  0  0  0  0  0  0  0  0  0  0
    8.7413  -16.5585   20.4218 C   0  0  2  0  0  0  0  0  0  0  0  0
    9.4029  -15.9341   19.2936 N   0  0  0  0  0  0  0  0  0  0  0  0
    9.1157  -15.9061   21.7089 C   0  0  0  0  0  0  0  0  0  0  0  0
   10.2761  -15.6355   22.0242 O   0  0  0  0  0  0  0  0  0  0  0  0
    8.0572  -15.5907   22.6007 N   0  0  0  0  0  0  0  0  0  0  0  0
    8.2156  -15.0651   23.9233 C   0  0  1  0  0  0  0  0  0  0  0  0
    7.0683  -14.2070   24.3566 C   0  0  0  0  0  0  0  0  0  0  0  0
    7.2650  -13.6056   25.6860 C   0  0  0  0  0  0  0  0  0  0  0  0
    6.9498  -14.3071   26.8261 C   0  0  0  0  0  0  0  0  0  0  0  0
    7.1268  -13.7602   28.0918 C   0  0  0  0  0  0  0  0  0  0  0  0
    7.6288  -12.4850   28.2457 C   0  0  0  0  0  0  0  0  0  0  0  0
    7.9452  -11.7799   27.1083 C   0  0  0  0  0  0  0  0  0  0  0  0
    7.7644  -12.3350   25.8602 C   0  0  0  0  0  0  0  0  0  0  0  0
    8.5417  -16.0549   24.9641 C   0  0  0  0  0  0  0  0  0  0  0  0
    7.7528  -16.9467   25.3342 O   0  0  0  0  0  0  0  0  0  0  0  0
   11.2944  -18.3717   24.7451 C   0  0  0  0  0  0  0  0  0  0  0  0
   11.5589  -17.6516   26.0534 C   0  0  1  0  0  0  0  0  0  0  0  0
   12.5483  -16.7003   25.8647 O   0  0  0  0  0  0  0  0  0  0  0  0
   10.2506  -17.0145   26.5398 C   0  0  2  0  0  0  0  0  0  0  0  0
    9.8169  -15.9976   25.5801 N   0  0  0  0  0  0  0  0  0  0  0  0
   10.5486  -16.3809   27.8421 C   0  0  0  0  0  0  0  0  0  0  0  0
   10.8157  -17.1701   28.9458 O   0  0  0  0  0  0  0  0  0  0  0  0
   10.5573  -15.1452   27.9372 O   0  0  0  0  0  0  0  0  0  0  0  0
  2  1  1  0
  3  2  1  0
  3  4  1  1
  5  3  1  0
  5  6  1  6
  7  8  2  0
  7  5  1  0
  9  7  1  0
 10  9  1  0
 11 12  1  0
 10 11  1  1
 12 13  2  0
 12 17  1  0
 13 14  1  0
 14 15  2  0
 16 15  1  0
 17 16  2  0
 18 24  1  0
 18 10  1  0
 19 18  2  0
 21 20  1  6
 22 21  1  0
 23 24  1  6
 23 21  1  0
 25 23  1  0
 26 25  1  0
 27 25  2  0
M  END
$$$$
