IFT.pdb
     RDKit          3D

 27 27  0  0  1  0  0  0  0  0999 V2000
   10.1216  -14.1040   29.6129 C   0  0  0  0  0  0  0  0  0  0  0  0
   11.0812  -15.1408   29.0611 C   0  0  0  0  0  0  0  0  0  0  0  0
   10.6620  -15.5885   27.6632 C   0  0  2  0  0  0  0  0  0  0  0  0
   10.5547  -14.3470   26.8219 C   0  0  0  0  0  0  0  0  0  0  0  0
    9.3584  -16.3144   27.8106 C   0  0  2  0  0  0  0  0  0  0  0  0
    9.5795  -17.4668   28.6612 N   0  0  0  0  0  0  0  0  0  0  0  0
    8.7787  -16.7058   26.4941 C   0  0  0  0  0  0  0  0  0  0  0  0
    8.4556  -17.8601   26.2072 O   0  0  0  0  0  0  0  0  0  0  0  0
    8.6003  -15.6717   25.5381 N   0  0  0  0  0  0  0  0  0  0  0  0
    7.9513  -15.8172   24.2699 C   0  0  1  0  0  0  0  0  0  0  0  0
    7.3668  -14.5379   23.7579 C   0  0  0  0  0  0  0  0  0  0  0  0
    7.0951  -13.5586   24.8230 C   0  0  0  0  0  0  0  0  0  0  0  0
    7.8761  -12.4346   24.9575 C   0  0  0  0  0  0  0  0  0  0  0  0
    7.6389  -11.4962   25.9551 C   0  0  0  0  0  0  0  0  0  0  0  0
    6.6032  -11.6641   26.8502 C   0  0  0  0  0  0  0  0  0  0  0  0
    5.8197  -12.7866   26.7194 C   0  0  0  0  0  0  0  0  0  0  0  0
    6.0668  -13.7083   25.7255 C   0  0  0  0  0  0  0  0  0  0  0  0
    8.7488  -16.4763   23.2215 C   0  0  0  0  0  0  0  0  0  0  0  0
    8.3126  -16.7209   22.0794 O   0  0  0  0  0  0  0  0  0  0  0  0
   11.6670  -15.5200   21.3661 C   0  0  0  0  0  0  0  0  0  0  0  0
   12.1314  -16.7079   22.1868 C   0  0  1  0  0  0  0  0  0  0  0  0
   12.7879  -16.2572   23.3205 O   0  0  0  0  0  0  0  0  0  0  0  0
   10.9119  -17.5668   22.5463 C   0  0  2  0  0  0  0  0  0  0  0  0
   10.0824  -16.8533   23.5190 N   0  0  0  0  0  0  0  0  0  0  0  0
   11.4354  -18.8110   23.1500 C   0  0  0  0  0  0  0  0  0  0  0  0
   11.2480  -19.0528   24.4986 O   0  0  0  0  0  0  0  0  0  0  0  0
   12.0395  -19.6306   22.4434 O   0  0  0  0  0  0  0  0  0  0  0  0
  2  1  1  0
  3  2  1  0
  3  4  1  6
  5  3  1  0
  5  6  1  1
  7  8  2  0
  7  5  1  0
  9  7  1  0
 10  9  1  0
 11 12  1  0
 10 11  1  6
 12 13  2  0
 12 17  1  0
 13 14  1  0
 14 15  2  0
 16 15  1  0
 17 16  2  0
 18 24  1  0
 18 10  1  0
 19 18  2  0
 21 20  1  1
 22 21  1  0
 23 24  1  1
 23 21  1  0
 25 23  1  0
 26 25  1  0
 27 25  2  0
M  END
$$$$
