IFT.pdb
     RDKit          3D

 27 27  0  0  1  0  0  0  0  0999 V2000
    7.6982  -12.0957   19.3938 C   0  0  0  0  0  0  0  0  0  0  0  0
    7.6903  -13.4448   20.0867 C   0  0  0  0  0  0  0  0  0  0  0  0
    8.7591  -14.3671   19.5057 C   0  0  2  0  0  0  0  0  0  0  0  0
    8.3828  -14.6218   18.0726 C   0  0  0  0  0  0  0  0  0  0  0  0
    8.7639  -15.6107   20.3433 C   0  0  2  0  0  0  0  0  0  0  0  0
    7.4897  -16.2778   20.1646 N   0  0  0  0  0  0  0  0  0  0  0  0
    9.0367  -15.3220   21.7801 C   0  0  0  0  0  0  0  0  0  0  0  0
   10.1243  -14.9228   22.2011 O   0  0  0  0  0  0  0  0  0  0  0  0
    7.9672  -15.5270   22.6907 N   0  0  0  0  0  0  0  0  0  0  0  0
    8.0356  -15.3335   24.1080 C   0  0  1  0  0  0  0  0  0  0  0  0
    6.7704  -14.7829   24.6883 C   0  0  0  0  0  0  0  0  0  0  0  0
    6.9903  -13.9923   25.9106 C   0  0  0  0  0  0  0  0  0  0  0  0
    7.3990  -14.6003   27.0745 C   0  0  0  0  0  0  0  0  0  0  0  0
    7.6129  -13.8747   28.2407 C   0  0  0  0  0  0  0  0  0  0  0  0
    7.4204  -12.5094   28.2678 C   0  0  0  0  0  0  0  0  0  0  0  0
    7.0118  -11.8973   27.1062 C   0  0  0  0  0  0  0  0  0  0  0  0
    6.8036  -12.6295   25.9576 C   0  0  0  0  0  0  0  0  0  0  0  0
    8.4965  -16.4966   24.8851 C   0  0  0  0  0  0  0  0  0  0  0  0
    7.8014  -17.5141   25.0750 O   0  0  0  0  0  0  0  0  0  0  0  0
   11.2986  -18.5352   24.0608 C   0  0  0  0  0  0  0  0  0  0  0  0
   11.6391  -18.0778   25.4662 C   0  0  1  0  0  0  0  0  0  0  0  0
   12.5765  -17.0594   25.4057 O   0  0  0  0  0  0  0  0  0  0  0  0
   10.3512  -17.6171   26.1613 C   0  0  2  0  0  0  0  0  0  0  0  0
    9.7970  -16.4651   25.4478 N   0  0  0  0  0  0  0  0  0  0  0  0
   10.7312  -17.2216   27.5345 C   0  0  0  0  0  0  0  0  0  0  0  0
   11.1516  -18.1828   28.4355 O   0  0  0  0  0  0  0  0  0  0  0  0
   10.6708  -16.0302   27.8703 O   0  0  0  0  0  0  0  0  0  0  0  0
  2  1  1  0
  3  2  1  0
  3  4  1  6
  5  3  1  0
  5  6  1  1
  7  8  2  0
  7  5  1  0
  9  7  1  0
 10  9  1  0
 11 12  1  0
 10 11  1  1
 12 13  2  0
 12 17  1  0
 13 14  1  0
 14 15  2  0
 16 15  1  0
 17 16  2  0
 18 24  1  0
 18 10  1  0
 19 18  2  0
 21 20  1  6
 22 21  1  0
 23 24  1  6
 23 21  1  0
 25 23  1  0
 26 25  1  0
 27 25  2  0
M  END
$$$$
