IFT.pdb
     RDKit          3D

 27 27  0  0  1  0  0  0  0  0999 V2000
    7.8913  -20.0147   18.4130 C   0  0  0  0  0  0  0  0  0  0  0  0
    8.1189  -18.5173   18.4911 C   0  0  0  0  0  0  0  0  0  0  0  0
    8.4279  -18.0825   19.9215 C   0  0  2  0  0  0  0  0  0  0  0  0
    7.2600  -18.5067   20.7679 C   0  0  0  0  0  0  0  0  0  0  0  0
    8.6251  -16.5964   19.8923 C   0  0  2  0  0  0  0  0  0  0  0  0
    9.6428  -16.2974   18.9047 N   0  0  0  0  0  0  0  0  0  0  0  0
    8.9811  -16.0483   21.2321 C   0  0  0  0  0  0  0  0  0  0  0  0
   10.0952  -16.1705   21.7450 O   0  0  0  0  0  0  0  0  0  0  0  0
    7.9615  -15.3521   21.9328 N   0  0  0  0  0  0  0  0  0  0  0  0
    8.0790  -14.8218   23.2578 C   0  0  1  0  0  0  0  0  0  0  0  0
    7.1102  -13.7154   23.5367 C   0  0  0  0  0  0  0  0  0  0  0  0
    7.2349  -13.1662   24.8970 C   0  0  0  0  0  0  0  0  0  0  0  0
    8.2655  -12.3137   25.2170 C   0  0  0  0  0  0  0  0  0  0  0  0
    8.4037  -11.7828   26.4941 C   0  0  0  0  0  0  0  0  0  0  0  0
    7.5031  -12.0970   27.4903 C   0  0  0  0  0  0  0  0  0  0  0  0
    6.4710  -12.9490   27.1748 C   0  0  0  0  0  0  0  0  0  0  0  0
    6.3467  -13.4677   25.9043 C   0  0  0  0  0  0  0  0  0  0  0  0
    8.0527  -15.8168   24.3435 C   0  0  0  0  0  0  0  0  0  0  0  0
    7.0193  -16.4170   24.6993 O   0  0  0  0  0  0  0  0  0  0  0  0
    9.6266  -18.9419   24.2299 C   0  0  0  0  0  0  0  0  0  0  0  0
   10.2820  -18.2996   25.4374 C   0  0  1  0  0  0  0  0  0  0  0  0
   11.5119  -17.7773   25.0717 O   0  0  0  0  0  0  0  0  0  0  0  0
    9.3489  -17.2122   25.9857 C   0  0  2  0  0  0  0  0  0  0  0  0
    9.2611  -16.1135   25.0222 N   0  0  0  0  0  0  0  0  0  0  0  0
    9.9574  -16.7290   27.2437 C   0  0  0  0  0  0  0  0  0  0  0  0
   10.0104  -17.5620   28.3463 O   0  0  0  0  0  0  0  0  0  0  0  0
   10.4169  -15.5795   27.3029 O   0  0  0  0  0  0  0  0  0  0  0  0
  2  1  1  0
  3  2  1  0
  3  4  1  1
  5  3  1  0
  5  6  1  6
  7  8  2  0
  7  5  1  0
  9  7  1  0
 10  9  1  0
 11 12  1  0
 10 11  1  1
 12 13  2  0
 12 17  1  0
 13 14  1  0
 14 15  2  0
 16 15  1  0
 17 16  2  0
 18 24  1  0
 18 10  1  0
 19 18  2  0
 21 20  1  6
 22 21  1  0
 23 24  1  6
 23 21  1  0
 25 23  1  0
 26 25  1  0
 27 25  2  0
M  END
$$$$
