IFT.pdb
     RDKit          3D

 27 27  0  0  1  0  0  0  0  0999 V2000
   10.4667  -20.7188   19.5583 C   0  0  0  0  0  0  0  0  0  0  0  0
    9.8894  -19.3250   19.4023 C   0  0  0  0  0  0  0  0  0  0  0  0
   10.0736  -18.5082   20.6787 C   0  0  2  0  0  0  0  0  0  0  0  0
    9.4191  -19.2817   21.7895 C   0  0  0  0  0  0  0  0  0  0  0  0
    9.4370  -17.1723   20.4369 C   0  0  2  0  0  0  0  0  0  0  0  0
    9.9893  -16.6263   19.2133 N   0  0  0  0  0  0  0  0  0  0  0  0
    9.6229  -16.2425   21.5871 C   0  0  0  0  0  0  0  0  0  0  0  0
   10.7154  -15.7787   21.9197 O   0  0  0  0  0  0  0  0  0  0  0  0
    8.4607  -15.8891   22.3216 N   0  0  0  0  0  0  0  0  0  0  0  0
    8.4468  -15.1457   23.5455 C   0  0  1  0  0  0  0  0  0  0  0  0
    7.2853  -14.2075   23.6508 C   0  0  0  0  0  0  0  0  0  0  0  0
    7.2492  -13.4718   24.9256 C   0  0  0  0  0  0  0  0  0  0  0  0
    8.0601  -12.3796   25.1277 C   0  0  0  0  0  0  0  0  0  0  0  0
    8.0435  -11.6695   26.3225 C   0  0  0  0  0  0  0  0  0  0  0  0
    7.2055  -12.0412   27.3529 C   0  0  0  0  0  0  0  0  0  0  0  0
    6.3930  -13.1328   27.1551 C   0  0  0  0  0  0  0  0  0  0  0  0
    6.4203  -13.8271   25.9652 C   0  0  0  0  0  0  0  0  0  0  0  0
    8.5767  -15.9463   24.7750 C   0  0  0  0  0  0  0  0  0  0  0  0
    7.6449  -16.6204   25.2565 O   0  0  0  0  0  0  0  0  0  0  0  0
   11.2321  -18.5170   25.1308 C   0  0  0  0  0  0  0  0  0  0  0  0
   11.3962  -17.6104   26.3356 C   0  0  1  0  0  0  0  0  0  0  0  0
   12.4468  -16.7347   26.1144 O   0  0  0  0  0  0  0  0  0  0  0  0
   10.0787  -16.8608   26.5727 C   0  0  2  0  0  0  0  0  0  0  0  0
    9.8230  -15.9567   25.4501 N   0  0  0  0  0  0  0  0  0  0  0  0
   10.2554  -16.0800   27.8158 C   0  0  0  0  0  0  0  0  0  0  0  0
   10.4154  -16.7356   29.0229 O   0  0  0  0  0  0  0  0  0  0  0  0
   10.2591  -14.8415   27.7689 O   0  0  0  0  0  0  0  0  0  0  0  0
  2  1  1  0
  3  2  1  0
  3  4  1  1
  5  3  1  0
  5  6  1  6
  7  8  2  0
  7  5  1  0
  9  7  1  0
 10  9  1  0
 11 12  1  0
 10 11  1  1
 12 13  2  0
 12 17  1  0
 13 14  1  0
 14 15  2  0
 16 15  1  0
 17 16  2  0
 18 24  1  0
 18 10  1  0
 19 18  2  0
 21 20  1  6
 22 21  1  0
 23 24  1  6
 23 21  1  0
 25 23  1  0
 26 25  1  0
 27 25  2  0
M  END
$$$$
