QVN.pdb
     RDKit          3D

 25 24  0  0  1  0  0  0  0  0999 V2000
    7.8548  -19.3532   21.7896 N   0  0  0  0  0  0  0  0  0  0  0  0
    7.5478  -18.7263   20.5472 C   0  0  0  0  0  0  0  0  0  0  0  0
    7.3878  -19.4766   19.5394 O   0  0  0  0  0  0  0  0  0  0  0  0
    7.4155  -17.2548   20.4154 C   0  0  0  0  0  0  0  0  0  0  0  0
    7.7111  -16.6303   21.7693 C   0  0  0  0  0  0  0  0  0  0  0  0
    7.5823  -15.1065   21.6855 C   0  0  2  0  0  0  0  0  0  0  0  0
    8.3090  -14.6310   20.5170 N   0  0  0  0  0  0  0  0  0  0  0  0
    8.1860  -14.5635   22.9366 C   0  0  0  0  0  0  0  0  0  0  0  0
    9.4372  -14.5117   22.9991 O   0  0  0  0  0  0  0  0  0  0  0  0
    6.7484  -11.6667   25.4353 C   0  0  0  0  0  0  0  0  0  0  0  0
    6.9925  -12.9783   26.1459 C   0  0  2  0  0  0  0  0  0  0  0  0
    7.4455  -12.7036   27.5509 C   0  0  0  0  0  0  0  0  0  0  0  0
    7.9444  -13.8123   25.3493 C   0  0  2  0  0  0  0  0  0  0  0  0
    7.4231  -14.1166   24.0279 N   0  0  0  0  0  0  0  0  0  0  0  0
    8.3178  -15.0903   26.0598 C   0  0  0  0  0  0  0  0  0  0  0  0
    7.4594  -15.9949   26.2199 O   0  0  0  0  0  0  0  0  0  0  0  0
   13.2143  -18.0805   27.5594 N   0  0  0  0  0  0  0  0  0  0  0  0
   11.8793  -18.1918   27.0553 C   0  0  0  0  0  0  0  0  0  0  0  0
   11.3357  -19.3169   27.1706 O   0  0  0  0  0  0  0  0  0  0  0  0
   11.1947  -17.0464   26.4413 C   0  0  0  0  0  0  0  0  0  0  0  0
   10.0419  -16.5170   27.2435 C   0  0  2  0  0  0  0  0  0  0  0  0
    9.6282  -15.2847   26.5506 N   0  0  0  0  0  0  0  0  0  0  0  0
   10.4636  -16.1798   28.6362 C   0  0  0  0  0  0  0  0  0  0  0  0
   10.5966  -17.1965   29.5666 O   0  0  0  0  0  0  0  0  0  0  0  0
   10.6969  -15.0070   28.9817 O   0  0  0  0  0  0  0  0  0  0  0  0
  2  3  2  0
  2  1  1  0
  4  2  1  0
  5  4  1  0
  6  5  1  0
  6  7  1  6
  8  6  1  0
  9  8  2  0
 11 10  1  6
 11 13  1  0
 12 11  1  0
 13 15  1  0
 13 14  1  6
 14  8  1  0
 15 16  2  0
 18 17  1  0
 18 19  2  0
 21 20  1  6
 20 18  1  0
 22 15  1  0
 22 21  1  0
 23 21  1  0
 23 24  1  0
 25 23  2  0
M  END
$$$$
