QVN.pdb
     RDKit          3D

 25 24  0  0  1  0  0  0  0  0999 V2000
    8.6257  -21.7832   15.7998 N   0  0  0  0  0  0  0  0  0  0  0  0
    8.1187  -20.9468   16.8361 C   0  0  0  0  0  0  0  0  0  0  0  0
    7.9985  -21.4556   17.9898 O   0  0  0  0  0  0  0  0  0  0  0  0
    7.7401  -19.5327   16.5969 C   0  0  0  0  0  0  0  0  0  0  0  0
    8.4415  -18.6731   17.6360 C   0  0  0  0  0  0  0  0  0  0  0  0
    8.5043  -17.2187   17.1605 C   0  0  2  0  0  0  0  0  0  0  0  0
    9.4108  -17.1280   16.0249 N   0  0  0  0  0  0  0  0  0  0  0  0
    9.0211  -16.4217   18.3104 C   0  0  0  0  0  0  0  0  0  0  0  0
   10.2625  -16.3976   18.4851 O   0  0  0  0  0  0  0  0  0  0  0  0
    7.4501  -12.9177   19.4991 C   0  0  0  0  0  0  0  0  0  0  0  0
    7.6525  -13.8463   20.6745 C   0  0  2  0  0  0  0  0  0  0  0  0
    8.0329  -13.0401   21.8828 C   0  0  0  0  0  0  0  0  0  0  0  0
    8.6418  -14.9077   20.3123 C   0  0  2  0  0  0  0  0  0  0  0  0
    8.1883  -15.7106   19.1897 N   0  0  0  0  0  0  0  0  0  0  0  0
    8.9744  -15.8023   21.4811 C   0  0  0  0  0  0  0  0  0  0  0  0
    8.1358  -16.6477   21.8849 O   0  0  0  0  0  0  0  0  0  0  0  0
   13.5768  -16.1829   21.2839 N   0  0  0  0  0  0  0  0  0  0  0  0
   12.7799  -17.0251   22.1231 C   0  0  0  0  0  0  0  0  0  0  0  0
   12.6967  -18.2293   21.7803 O   0  0  0  0  0  0  0  0  0  0  0  0
   12.1039  -16.4981   23.3160 C   0  0  0  0  0  0  0  0  0  0  0  0
   10.6060  -16.5726   23.2570 C   0  0  2  0  0  0  0  0  0  0  0  0
   10.2242  -15.7017   22.1321 N   0  0  0  0  0  0  0  0  0  0  0  0
    9.9901  -16.0505   24.5137 C   0  0  0  0  0  0  0  0  0  0  0  0
    9.9064  -16.8792   25.6198 O   0  0  0  0  0  0  0  0  0  0  0  0
    9.5485  -14.8894   24.5908 O   0  0  0  0  0  0  0  0  0  0  0  0
  2  3  2  0
  2  1  1  0
  4  2  1  0
  5  4  1  0
  6  5  1  0
  6  7  1  6
  8  6  1  0
  9  8  2  0
 11 10  1  6
 11 13  1  0
 12 11  1  0
 13 15  1  0
 13 14  1  6
 14  8  1  0
 15 16  2  0
 18 17  1  0
 18 19  2  0
 21 20  1  1
 20 18  1  0
 22 15  1  0
 22 21  1  0
 23 21  1  0
 23 24  1  0
 25 23  2  0
M  END
$$$$
