QVN.pdb
     RDKit          3D

 25 24  0  0  1  0  0  0  0  0999 V2000
    4.7819  -21.3303   24.9479 N   0  0  0  0  0  0  0  0  0  0  0  0
    4.9968  -22.0914   23.7625 C   0  0  0  0  0  0  0  0  0  0  0  0
    4.4454  -23.2296   23.6924 O   0  0  0  0  0  0  0  0  0  0  0  0
    5.8293  -21.5910   22.6415 C   0  0  0  0  0  0  0  0  0  0  0  0
    6.3014  -20.1893   22.9921 C   0  0  0  0  0  0  0  0  0  0  0  0
    5.7969  -19.1876   21.9493 C   0  0  2  0  0  0  0  0  0  0  0  0
    5.4827  -19.8994   20.7187 N   0  0  0  0  0  0  0  0  0  0  0  0
    6.9071  -18.2171   21.7261 C   0  0  0  0  0  0  0  0  0  0  0  0
    7.9540  -18.6503   21.1892 O   0  0  0  0  0  0  0  0  0  0  0  0
    6.4163  -14.1903   21.0558 C   0  0  0  0  0  0  0  0  0  0  0  0
    7.4292  -14.4947   22.1357 C   0  0  2  0  0  0  0  0  0  0  0  0
    8.5195  -13.4630   22.0970 C   0  0  0  0  0  0  0  0  0  0  0  0
    7.9141  -15.9016   21.9881 C   0  0  2  0  0  0  0  0  0  0  0  0
    6.8286  -16.8620   22.0871 N   0  0  0  0  0  0  0  0  0  0  0  0
    8.9928  -16.2425   22.9868 C   0  0  0  0  0  0  0  0  0  0  0  0
    8.7260  -16.2723   24.2152 O   0  0  0  0  0  0  0  0  0  0  0  0
   10.5331  -18.7621   25.3991 N   0  0  0  0  0  0  0  0  0  0  0  0
   11.2665  -19.2200   24.2584 C   0  0  0  0  0  0  0  0  0  0  0  0
   11.4817  -20.4547   24.1973 O   0  0  0  0  0  0  0  0  0  0  0  0
   11.7342  -18.2877   23.2240 C   0  0  0  0  0  0  0  0  0  0  0  0
   11.3974  -16.8503   23.4943 C   0  0  2  0  0  0  0  0  0  0  0  0
   10.3073  -16.5305   22.5567 N   0  0  0  0  0  0  0  0  0  0  0  0
   12.5641  -15.9609   23.2133 C   0  0  0  0  0  0  0  0  0  0  0  0
   12.7671  -15.5003   21.9234 O   0  0  0  0  0  0  0  0  0  0  0  0
   13.3595  -15.6247   24.1096 O   0  0  0  0  0  0  0  0  0  0  0  0
  2  3  2  0
  2  1  1  0
  4  2  1  0
  5  4  1  0
  6  5  1  0
  6  7  1  6
  8  6  1  0
  9  8  2  0
 11 10  1  6
 11 13  1  0
 12 11  1  0
 13 15  1  0
 13 14  1  1
 14  8  1  0
 15 16  2  0
 18 17  1  0
 18 19  2  0
 21 20  1  6
 20 18  1  0
 22 15  1  0
 22 21  1  0
 23 21  1  0
 23 24  1  0
 25 23  2  0
M  END
$$$$
