QVN.pdb
     RDKit          3D

 25 24  0  0  1  0  0  0  0  0999 V2000
    9.9359  -19.6305   21.2968 N   0  0  0  0  0  0  0  0  0  0  0  0
    9.0492  -19.1905   20.2716 C   0  0  0  0  0  0  0  0  0  0  0  0
    8.7380  -20.0259   19.3718 O   0  0  0  0  0  0  0  0  0  0  0  0
    8.4996  -17.8133   20.2389 C   0  0  0  0  0  0  0  0  0  0  0  0
    8.9023  -17.1127   21.5264 C   0  0  0  0  0  0  0  0  0  0  0  0
    8.1511  -15.7849   21.6604 C   0  0  2  0  0  0  0  0  0  0  0  0
    8.4962  -14.9272   20.5357 N   0  0  0  0  0  0  0  0  0  0  0  0
    8.6012  -15.1741   22.9444 C   0  0  0  0  0  0  0  0  0  0  0  0
    9.8361  -15.0545   23.1257 O   0  0  0  0  0  0  0  0  0  0  0  0
    6.8003  -12.1727   24.8929 C   0  0  0  0  0  0  0  0  0  0  0  0
    7.0533  -13.3329   25.8282 C   0  0  2  0  0  0  0  0  0  0  0  0
    7.3882  -12.8046   27.1933 C   0  0  0  0  0  0  0  0  0  0  0  0
    8.0997  -14.2289   25.2464 C   0  0  2  0  0  0  0  0  0  0  0  0
    7.7136  -14.7362   23.9410 N   0  0  0  0  0  0  0  0  0  0  0  0
    8.4419  -15.3784   26.1622 C   0  0  0  0  0  0  0  0  0  0  0  0
    7.5580  -16.2142   26.4801 O   0  0  0  0  0  0  0  0  0  0  0  0
   13.5292  -18.0846   28.1338 N   0  0  0  0  0  0  0  0  0  0  0  0
   12.1572  -18.1527   27.7315 C   0  0  0  0  0  0  0  0  0  0  0  0
   11.5373  -19.1959   28.0511 O   0  0  0  0  0  0  0  0  0  0  0  0
   11.5218  -17.0565   26.9884 C   0  0  0  0  0  0  0  0  0  0  0  0
   10.1575  -16.6832   27.4903 C   0  0  2  0  0  0  0  0  0  0  0  0
    9.7515  -15.5287   26.6705 N   0  0  0  0  0  0  0  0  0  0  0  0
   10.2042  -16.2743   28.9262 C   0  0  0  0  0  0  0  0  0  0  0  0
   10.1368  -17.2480   29.9083 O   0  0  0  0  0  0  0  0  0  0  0  0
   10.3004  -15.0797   29.2619 O   0  0  0  0  0  0  0  0  0  0  0  0
  2  3  2  0
  2  1  1  0
  4  2  1  0
  5  4  1  0
  6  5  1  0
  6  7  1  6
  8  6  1  0
  9  8  2  0
 11 10  1  6
 11 13  1  0
 12 11  1  0
 13 15  1  0
 13 14  1  6
 14  8  1  0
 15 16  2  0
 18 17  1  0
 18 19  2  0
 21 20  1  6
 20 18  1  0
 22 15  1  0
 22 21  1  0
 23 21  1  0
 23 24  1  0
 25 23  2  0
M  END
$$$$
