QVN.pdb
     RDKit          3D

 25 24  0  0  1  0  0  0  0  0999 V2000
    8.2843  -20.7309   19.2142 N   0  0  0  0  0  0  0  0  0  0  0  0
    8.5654  -20.8026   17.8190 C   0  0  0  0  0  0  0  0  0  0  0  0
    9.1062  -21.8634   17.3869 O   0  0  0  0  0  0  0  0  0  0  0  0
    8.2462  -19.6914   16.8898 C   0  0  0  0  0  0  0  0  0  0  0  0
    7.4607  -18.6421   17.6597 C   0  0  0  0  0  0  0  0  0  0  0  0
    7.7955  -17.2432   17.1342 C   0  0  2  0  0  0  0  0  0  0  0  0
    8.6703  -17.3663   15.9769 N   0  0  0  0  0  0  0  0  0  0  0  0
    8.4909  -16.5313   18.2451 C   0  0  0  0  0  0  0  0  0  0  0  0
    9.6980  -16.8072   18.4419 O   0  0  0  0  0  0  0  0  0  0  0  0
    7.2726  -12.8401   19.7488 C   0  0  0  0  0  0  0  0  0  0  0  0
    7.5669  -13.8865   20.7992 C   0  0  2  0  0  0  0  0  0  0  0  0
    8.1215  -13.2170   22.0235 C   0  0  0  0  0  0  0  0  0  0  0  0
    8.4576  -14.9406   20.2231 C   0  0  2  0  0  0  0  0  0  0  0  0
    7.8591  -15.5821   19.0652 N   0  0  0  0  0  0  0  0  0  0  0  0
    8.8444  -15.9829   21.2437 C   0  0  0  0  0  0  0  0  0  0  0  0
    8.0273  -16.8834   21.5639 O   0  0  0  0  0  0  0  0  0  0  0  0
   13.2706  -19.3912   22.8574 N   0  0  0  0  0  0  0  0  0  0  0  0
   11.8832  -19.0467   22.9287 C   0  0  0  0  0  0  0  0  0  0  0  0
   11.1902  -19.7046   23.7420 O   0  0  0  0  0  0  0  0  0  0  0  0
   11.3149  -17.9807   22.0930 C   0  0  0  0  0  0  0  0  0  0  0  0
   10.5398  -16.9475   22.8574 C   0  0  2  0  0  0  0  0  0  0  0  0
   10.1211  -15.9598   21.8480 N   0  0  0  0  0  0  0  0  0  0  0  0
   11.3987  -16.2741   23.8773 C   0  0  0  0  0  0  0  0  0  0  0  0
   11.3931  -16.7422   25.1803 O   0  0  0  0  0  0  0  0  0  0  0  0
   12.1182  -15.3014   23.5852 O   0  0  0  0  0  0  0  0  0  0  0  0
  2  3  2  0
  2  1  1  0
  4  2  1  0
  5  4  1  0
  6  5  1  0
  6  7  1  6
  8  6  1  0
  9  8  2  0
 11 10  1  6
 11 13  1  0
 12 11  1  0
 13 15  1  0
 13 14  1  6
 14  8  1  0
 15 16  2  0
 18 17  1  0
 18 19  2  0
 21 20  1  6
 20 18  1  0
 22 15  1  0
 22 21  1  0
 23 21  1  0
 23 24  1  0
 25 23  2  0
M  END
$$$$
