QVN.pdb
     RDKit          3D

 25 24  0  0  1  0  0  0  0  0999 V2000
    7.1155  -18.8653   20.8979 N   0  0  0  0  0  0  0  0  0  0  0  0
    6.4736  -18.0824   19.8950 C   0  0  0  0  0  0  0  0  0  0  0  0
    5.8758  -18.7016   18.9657 O   0  0  0  0  0  0  0  0  0  0  0  0
    6.4913  -16.5994   19.9178 C   0  0  0  0  0  0  0  0  0  0  0  0
    7.2700  -16.1546   21.1451 C   0  0  0  0  0  0  0  0  0  0  0  0
    7.2779  -14.6260   21.2381 C   0  0  2  0  0  0  0  0  0  0  0  0
    8.0046  -14.0836   20.0991 N   0  0  0  0  0  0  0  0  0  0  0  0
    7.9708  -14.2853   22.5141 C   0  0  0  0  0  0  0  0  0  0  0  0
    9.2063  -14.4906   22.5733 O   0  0  0  0  0  0  0  0  0  0  0  0
    7.7007  -12.5360   27.1706 C   0  0  0  0  0  0  0  0  0  0  0  0
    7.0350  -12.7132   25.8252 C   0  0  2  0  0  0  0  0  0  0  0  0
    5.6454  -13.2453   26.0265 C   0  0  0  0  0  0  0  0  0  0  0  0
    7.8943  -13.5661   24.9474 C   0  0  2  0  0  0  0  0  0  0  0  0
    7.3070  -13.7539   23.6320 N   0  0  0  0  0  0  0  0  0  0  0  0
    8.1952  -14.9072   25.5705 C   0  0  0  0  0  0  0  0  0  0  0  0
    7.3000  -15.7881   25.6304 O   0  0  0  0  0  0  0  0  0  0  0  0
   11.1372  -18.8573   27.5501 N   0  0  0  0  0  0  0  0  0  0  0  0
   11.8419  -17.9992   26.6469 C   0  0  0  0  0  0  0  0  0  0  0  0
   12.9855  -18.3808   26.2989 O   0  0  0  0  0  0  0  0  0  0  0  0
   11.2489  -16.7462   26.1611 C   0  0  0  0  0  0  0  0  0  0  0  0
    9.8443  -16.5074   26.6330 C   0  0  2  0  0  0  0  0  0  0  0  0
    9.4783  -15.1876   26.0911 N   0  0  0  0  0  0  0  0  0  0  0  0
    9.7767  -16.4622   28.1246 C   0  0  0  0  0  0  0  0  0  0  0  0
    9.6310  -15.2393   28.7573 O   0  0  0  0  0  0  0  0  0  0  0  0
    9.8497  -17.4965   28.8130 O   0  0  0  0  0  0  0  0  0  0  0  0
  2  3  2  0
  2  1  1  0
  4  2  1  0
  5  4  1  0
  6  5  1  0
  6  7  1  6
  8  6  1  0
  9  8  2  0
 11 10  1  1
 11 13  1  0
 12 11  1  0
 13 15  1  0
 13 14  1  6
 14  8  1  0
 15 16  2  0
 18 17  1  0
 18 19  2  0
 21 20  1  1
 20 18  1  0
 22 15  1  0
 22 21  1  0
 23 21  1  0
 23 24  1  0
 25 23  2  0
M  END
$$$$
