QVN.pdb
     RDKit          3D

 25 24  0  0  1  0  0  0  0  0999 V2000
    8.6596  -18.5436   19.1648 N   0  0  0  0  0  0  0  0  0  0  0  0
    9.0892  -17.1888   19.2681 C   0  0  0  0  0  0  0  0  0  0  0  0
   10.3355  -16.9765   19.3447 O   0  0  0  0  0  0  0  0  0  0  0  0
    8.1327  -16.0552   19.2869 C   0  0  0  0  0  0  0  0  0  0  0  0
    8.4174  -15.2168   20.5225 C   0  0  0  0  0  0  0  0  0  0  0  0
    7.8254  -15.8906   21.7638 C   0  0  2  0  0  0  0  0  0  0  0  0
    6.3744  -15.7796   21.7191 N   0  0  0  0  0  0  0  0  0  0  0  0
    8.3724  -15.1577   22.9420 C   0  0  0  0  0  0  0  0  0  0  0  0
    9.6141  -14.9923   22.9939 O   0  0  0  0  0  0  0  0  0  0  0  0
    6.6670  -12.0305   24.8069 C   0  0  0  0  0  0  0  0  0  0  0  0
    7.0335  -13.1137   25.7954 C   0  0  2  0  0  0  0  0  0  0  0  0
    7.4640  -12.4805   27.0870 C   0  0  0  0  0  0  0  0  0  0  0  0
    8.0556  -14.0221   25.1900 C   0  0  2  0  0  0  0  0  0  0  0  0
    7.5671  -14.6552   23.9772 N   0  0  0  0  0  0  0  0  0  0  0  0
    8.5325  -15.0741   26.1611 C   0  0  0  0  0  0  0  0  0  0  0  0
    7.7382  -15.9586   26.5706 O   0  0  0  0  0  0  0  0  0  0  0  0
   11.8550  -18.2494   28.7107 N   0  0  0  0  0  0  0  0  0  0  0  0
   12.3706  -17.6789   27.5034 C   0  0  0  0  0  0  0  0  0  0  0  0
   13.4696  -18.1323   27.1018 O   0  0  0  0  0  0  0  0  0  0  0  0
   11.6444  -16.6241   26.7839 C   0  0  0  0  0  0  0  0  0  0  0  0
   10.4084  -16.1409   27.4849 C   0  0  2  0  0  0  0  0  0  0  0  0
    9.8689  -15.0782   26.6192 N   0  0  0  0  0  0  0  0  0  0  0  0
   10.7375  -15.5647   28.8232 C   0  0  0  0  0  0  0  0  0  0  0  0
   10.8228  -16.4071   29.9187 O   0  0  0  0  0  0  0  0  0  0  0  0
   10.9353  -14.3458   28.9784 O   0  0  0  0  0  0  0  0  0  0  0  0
  2  3  2  0
  2  1  1  0
  4  2  1  0
  5  4  1  0
  6  5  1  0
  6  7  1  6
  8  6  1  0
  9  8  2  0
 11 10  1  6
 11 13  1  0
 12 11  1  0
 13 15  1  0
 13 14  1  6
 14  8  1  0
 15 16  2  0
 18 17  1  0
 18 19  2  0
 21 20  1  6
 20 18  1  0
 22 15  1  0
 22 21  1  0
 23 21  1  0
 23 24  1  0
 25 23  2  0
M  END
$$$$
