QVN.pdb
     RDKit          3D

 25 24  0  0  1  0  0  0  0  0999 V2000
    8.2337  -19.9292   17.8970 N   0  0  0  0  0  0  0  0  0  0  0  0
    8.3746  -19.8784   16.4799 C   0  0  0  0  0  0  0  0  0  0  0  0
    7.7209  -20.7224   15.7983 O   0  0  0  0  0  0  0  0  0  0  0  0
    9.2466  -18.8848   15.8071 C   0  0  0  0  0  0  0  0  0  0  0  0
    9.8307  -17.9705   16.8717 C   0  0  0  0  0  0  0  0  0  0  0  0
    9.6295  -16.5050   16.4751 C   0  0  2  0  0  0  0  0  0  0  0  0
   10.5754  -16.1627   15.4227 N   0  0  0  0  0  0  0  0  0  0  0  0
    9.8923  -15.6972   17.7010 C   0  0  0  0  0  0  0  0  0  0  0  0
   11.0878  -15.4402   17.9782 O   0  0  0  0  0  0  0  0  0  0  0  0
    7.6237  -12.6762   19.1827 C   0  0  0  0  0  0  0  0  0  0  0  0
    7.8866  -13.7446   20.2191 C   0  0  2  0  0  0  0  0  0  0  0  0
    8.0100  -13.1033   21.5712 C   0  0  0  0  0  0  0  0  0  0  0  0
    9.0778  -14.5539   19.8160 C   0  0  2  0  0  0  0  0  0  0  0  0
    8.8730  -15.2220   18.5424 N   0  0  0  0  0  0  0  0  0  0  0  0
    9.4657  -15.5639   20.8681 C   0  0  0  0  0  0  0  0  0  0  0  0
    8.7696  -16.5976   21.0346 O   0  0  0  0  0  0  0  0  0  0  0  0
   13.2742  -16.9095   20.9627 N   0  0  0  0  0  0  0  0  0  0  0  0
   13.5068  -16.1593   22.1594 C   0  0  0  0  0  0  0  0  0  0  0  0
   14.6853  -15.7731   22.3507 O   0  0  0  0  0  0  0  0  0  0  0  0
   12.4192  -15.8638   23.1014 C   0  0  0  0  0  0  0  0  0  0  0  0
   11.0718  -16.3544   22.6582 C   0  0  2  0  0  0  0  0  0  0  0  0
   10.6085  -15.3616   21.6737 N   0  0  0  0  0  0  0  0  0  0  0  0
   10.1111  -16.3985   23.8012 C   0  0  0  0  0  0  0  0  0  0  0  0
   10.0674  -17.5260   24.6037 O   0  0  0  0  0  0  0  0  0  0  0  0
    9.3475  -15.4475   24.0492 O   0  0  0  0  0  0  0  0  0  0  0  0
  2  3  2  0
  2  1  1  0
  4  2  1  0
  5  4  1  0
  6  5  1  0
  6  7  1  6
  8  6  1  0
  9  8  2  0
 11 10  1  6
 11 13  1  0
 12 11  1  0
 13 15  1  0
 13 14  1  6
 14  8  1  0
 15 16  2  0
 18 17  1  0
 18 19  2  0
 21 20  1  1
 20 18  1  0
 22 15  1  0
 22 21  1  0
 23 21  1  0
 23 24  1  0
 25 23  2  0
M  END
$$$$
