QVN.pdb
     RDKit          3D

 25 24  0  0  1  0  0  0  0  0999 V2000
    7.7707  -16.6587   18.3107 N   0  0  0  0  0  0  0  0  0  0  0  0
    6.7594  -17.2325   19.1345 C   0  0  0  0  0  0  0  0  0  0  0  0
    5.8803  -17.9462   18.5668 O   0  0  0  0  0  0  0  0  0  0  0  0
    6.7177  -17.0168   20.6014 C   0  0  0  0  0  0  0  0  0  0  0  0
    7.8842  -16.1191   20.9807 C   0  0  0  0  0  0  0  0  0  0  0  0
    7.3690  -14.7509   21.4368 C   0  0  2  0  0  0  0  0  0  0  0  0
    7.7505  -13.7469   20.4540 N   0  0  0  0  0  0  0  0  0  0  0  0
    8.0178  -14.4732   22.7507 C   0  0  0  0  0  0  0  0  0  0  0  0
    9.2614  -14.6159   22.8226 O   0  0  0  0  0  0  0  0  0  0  0  0
    6.6090  -11.7814   25.5313 C   0  0  0  0  0  0  0  0  0  0  0  0
    6.9357  -13.1354   26.1183 C   0  0  2  0  0  0  0  0  0  0  0  0
    7.4496  -12.9575   27.5179 C   0  0  0  0  0  0  0  0  0  0  0  0
    7.8751  -13.8635   25.2108 C   0  0  2  0  0  0  0  0  0  0  0  0
    7.3046  -14.0664   23.8903 N   0  0  0  0  0  0  0  0  0  0  0  0
    8.3168  -15.1865   25.7870 C   0  0  0  0  0  0  0  0  0  0  0  0
    7.5369  -16.1726   25.7683 O   0  0  0  0  0  0  0  0  0  0  0  0
    9.8746  -18.8138   25.1158 N   0  0  0  0  0  0  0  0  0  0  0  0
   11.0970  -18.0693   25.1315 C   0  0  0  0  0  0  0  0  0  0  0  0
   11.9756  -18.4298   24.3113 O   0  0  0  0  0  0  0  0  0  0  0  0
   11.2989  -16.9482   26.0589 C   0  0  0  0  0  0  0  0  0  0  0  0
   10.0945  -16.6128   26.8892 C   0  0  2  0  0  0  0  0  0  0  0  0
    9.6039  -15.3324   26.3510 N   0  0  0  0  0  0  0  0  0  0  0  0
   10.4626  -16.4332   28.3257 C   0  0  0  0  0  0  0  0  0  0  0  0
   11.1621  -15.3009   28.7073 O   0  0  0  0  0  0  0  0  0  0  0  0
   10.1576  -17.2771   29.1882 O   0  0  0  0  0  0  0  0  0  0  0  0
  2  3  2  0
  2  1  1  0
  4  2  1  0
  5  4  1  0
  6  5  1  0
  6  7  1  6
  8  6  1  0
  9  8  2  0
 11 10  1  6
 11 13  1  0
 12 11  1  0
 13 15  1  0
 13 14  1  6
 14  8  1  0
 15 16  2  0
 18 17  1  0
 18 19  2  0
 21 20  1  6
 20 18  1  0
 22 15  1  0
 22 21  1  0
 23 21  1  0
 23 24  1  0
 25 23  2  0
M  END
$$$$
