QVN.pdb
     RDKit          3D

 25 24  0  0  1  0  0  0  0  0999 V2000
    8.3923  -19.8165   22.2440 N   0  0  0  0  0  0  0  0  0  0  0  0
    7.8570  -19.3672   21.0020 C   0  0  0  0  0  0  0  0  0  0  0  0
    7.5054  -20.2505   20.1650 O   0  0  0  0  0  0  0  0  0  0  0  0
    7.7079  -17.9270   20.6799 C   0  0  0  0  0  0  0  0  0  0  0  0
    8.1164  -17.1239   21.9041 C   0  0  0  0  0  0  0  0  0  0  0  0
    7.8312  -15.6365   21.6771 C   0  0  2  0  0  0  0  0  0  0  0  0
    8.5089  -15.2016   20.4642 N   0  0  0  0  0  0  0  0  0  0  0  0
    8.3712  -14.9178   22.8672 C   0  0  0  0  0  0  0  0  0  0  0  0
    9.6017  -14.6782   22.8883 O   0  0  0  0  0  0  0  0  0  0  0  0
    6.3471  -12.1923   25.0375 C   0  0  0  0  0  0  0  0  0  0  0  0
    6.9911  -13.2199   25.9397 C   0  0  2  0  0  0  0  0  0  0  0  0
    7.4658  -12.5481   27.1958 C   0  0  0  0  0  0  0  0  0  0  0  0
    8.0643  -13.9441   25.1914 C   0  0  2  0  0  0  0  0  0  0  0  0
    7.5712  -14.5066   23.9460 N   0  0  0  0  0  0  0  0  0  0  0  0
    8.7104  -15.0258   26.0219 C   0  0  0  0  0  0  0  0  0  0  0  0
    8.0857  -16.0894   26.2658 O   0  0  0  0  0  0  0  0  0  0  0  0
   11.6356  -15.1488   29.8256 N   0  0  0  0  0  0  0  0  0  0  0  0
   10.3924  -15.8508   29.7237 C   0  0  0  0  0  0  0  0  0  0  0  0
    9.8012  -16.0900   30.8044 O   0  0  0  0  0  0  0  0  0  0  0  0
    9.8494  -16.2615   28.4222 C   0  0  0  0  0  0  0  0  0  0  0  0
   10.7306  -15.9251   27.2547 C   0  0  2  0  0  0  0  0  0  0  0  0
   10.0169  -14.8579   26.5325 N   0  0  0  0  0  0  0  0  0  0  0  0
   10.9005  -17.1017   26.3503 C   0  0  0  0  0  0  0  0  0  0  0  0
   11.6521  -18.1818   26.7812 O   0  0  0  0  0  0  0  0  0  0  0  0
   10.3846  -17.1348   25.2182 O   0  0  0  0  0  0  0  0  0  0  0  0
  2  3  2  0
  2  1  1  0
  4  2  1  0
  5  4  1  0
  6  5  1  0
  6  7  1  6
  8  6  1  0
  9  8  2  0
 11 10  1  6
 11 13  1  0
 12 11  1  0
 13 15  1  0
 13 14  1  6
 14  8  1  0
 15 16  2  0
 18 17  1  0
 18 19  2  0
 21 20  1  1
 20 18  1  0
 22 15  1  0
 22 21  1  0
 23 21  1  0
 23 24  1  0
 25 23  2  0
M  END
$$$$
