SAF.pdb
     RDKit          3D

 23 23  0  0  1  0  0  0  0  0999 V2000
    6.4300  -18.6721   23.4766 O   0  0  0  0  0  0  0  0  0  0  0  0
    6.7235  -19.3994   22.3479 C   0  0  0  0  0  0  0  0  0  0  0  0
    6.8194  -18.5118   21.1283 C   0  0  2  0  0  0  0  0  0  0  0  0
    7.2663  -19.3541   20.0346 N   0  0  0  0  0  0  0  0  0  0  0  0
    7.7401  -17.3713   21.3179 C   0  0  0  0  0  0  0  0  0  0  0  0
    8.9793  -17.5725   21.2408 O   0  0  0  0  0  0  0  0  0  0  0  0
    7.5034  -13.6122   21.3556 C   0  0  0  0  0  0  0  0  0  0  0  0
    8.1880  -14.9111   21.6428 C   0  0  2  0  0  0  0  0  0  0  0  0
    7.3131  -16.0533   21.5833 N   0  0  0  0  0  0  0  0  0  0  0  0
    8.8708  -14.7951   22.9621 C   0  0  0  0  0  0  0  0  0  0  0  0
    9.7617  -13.9404   23.2011 O   0  0  0  0  0  0  0  0  0  0  0  0
    8.4902  -15.6955   23.9885 N   0  0  0  0  0  0  0  0  0  0  0  0
    9.0429  -15.6411   25.3316 C   0  0  1  0  0  0  0  0  0  0  0  0
    7.8783  -15.4961   26.2833 C   0  0  0  0  0  0  0  0  0  0  0  0
    7.3832  -14.1130   26.4028 C   0  0  0  0  0  0  0  0  0  0  0  0
    8.2323  -13.0692   26.6873 C   0  0  0  0  0  0  0  0  0  0  0  0
    7.7594  -11.7572   26.7952 C   0  0  0  0  0  0  0  0  0  0  0  0
    6.4076  -11.4936   26.6134 C   0  0  0  0  0  0  0  0  0  0  0  0
    5.5634  -12.5454   26.3287 C   0  0  0  0  0  0  0  0  0  0  0  0
    6.0447  -13.8300   26.2259 C   0  0  0  0  0  0  0  0  0  0  0  0
    9.8145  -16.8612   25.6523 C   0  0  0  0  0  0  0  0  0  0  0  0
    9.9039  -17.9131   24.7212 O   0  0  0  0  0  0  0  0  0  0  0  0
   10.4128  -17.0247   26.7329 O   0  0  0  0  0  0  0  0  0  0  0  0
  2  1  1  0
  3  4  1  6
  3  2  1  0
  5  3  1  0
  5  6  2  0
  8  7  1  1
  8  9  1  0
  8 10  1  0
  9  5  1  0
 10 12  1  0
 10 11  2  0
 12 13  1  0
 13 14  1  1
 14 15  1  0
 15 20  2  0
 16 15  1  0
 16 17  2  0
 17 18  1  0
 18 19  2  0
 20 19  1  0
 21 22  1  0
 21 13  1  0
 23 21  2  0
M  END
$$$$
