SAF.pdb
     RDKit          3D

 23 23  0  0  1  0  0  0  0  0999 V2000
   10.6038  -13.2190   20.0871 O   0  0  0  0  0  0  0  0  0  0  0  0
   10.0738  -13.8593   18.9925 C   0  0  0  0  0  0  0  0  0  0  0  0
    8.5628  -13.8629   19.0327 C   0  0  2  0  0  0  0  0  0  0  0  0
    8.1396  -12.4816   18.8976 N   0  0  0  0  0  0  0  0  0  0  0  0
    8.0218  -14.4549   20.2741 C   0  0  0  0  0  0  0  0  0  0  0  0
    7.6056  -13.6887   21.1806 O   0  0  0  0  0  0  0  0  0  0  0  0
    7.3298  -17.9161   21.6847 C   0  0  0  0  0  0  0  0  0  0  0  0
    7.5104  -16.4324   21.7528 C   0  0  2  0  0  0  0  0  0  0  0  0
    7.9409  -15.8431   20.5115 N   0  0  0  0  0  0  0  0  0  0  0  0
    8.4454  -16.1287   22.8724 C   0  0  0  0  0  0  0  0  0  0  0  0
    9.6738  -15.9195   22.7034 O   0  0  0  0  0  0  0  0  0  0  0  0
    7.9144  -16.0757   24.1856 N   0  0  0  0  0  0  0  0  0  0  0  0
    8.7210  -15.7544   25.3511 C   0  0  1  0  0  0  0  0  0  0  0  0
    7.7652  -15.3921   26.4639 C   0  0  0  0  0  0  0  0  0  0  0  0
    7.2827  -14.0011   26.3972 C   0  0  0  0  0  0  0  0  0  0  0  0
    5.9736  -13.6819   26.6725 C   0  0  0  0  0  0  0  0  0  0  0  0
    5.5205  -12.3598   26.6128 C   0  0  0  0  0  0  0  0  0  0  0  0
    6.4024  -11.3429   26.2695 C   0  0  0  0  0  0  0  0  0  0  0  0
    7.7126  -11.6712   25.9949 C   0  0  0  0  0  0  0  0  0  0  0  0
    8.1421  -12.9766   26.0582 C   0  0  0  0  0  0  0  0  0  0  0  0
    9.5680  -16.8962   25.7581 C   0  0  0  0  0  0  0  0  0  0  0  0
   10.7330  -16.6837   26.5191 O   0  0  0  0  0  0  0  0  0  0  0  0
    9.3080  -18.0778   25.4603 O   0  0  0  0  0  0  0  0  0  0  0  0
  2  1  1  0
  3  4  1  1
  3  2  1  0
  5  3  1  0
  5  6  2  0
  8  7  1  6
  8  9  1  0
  8 10  1  0
  9  5  1  0
 10 12  1  0
 10 11  2  0
 12 13  1  0
 13 14  1  1
 14 15  1  0
 15 20  2  0
 16 15  1  0
 16 17  2  0
 17 18  1  0
 18 19  2  0
 20 19  1  0
 21 22  1  0
 21 13  1  0
 23 21  2  0
M  END
$$$$
