SAF.pdb
     RDKit          3D

 23 23  0  0  1  0  0  0  0  0999 V2000
    6.3051  -18.2345   22.9767 O   0  0  0  0  0  0  0  0  0  0  0  0
    5.2229  -18.1758   22.1313 C   0  0  0  0  0  0  0  0  0  0  0  0
    5.5992  -17.5834   20.7927 C   0  0  2  0  0  0  0  0  0  0  0  0
    5.8099  -18.6985   19.8885 N   0  0  0  0  0  0  0  0  0  0  0  0
    6.8049  -16.7312   20.8593 C   0  0  0  0  0  0  0  0  0  0  0  0
    7.9319  -17.2590   20.6768 O   0  0  0  0  0  0  0  0  0  0  0  0
    7.6119  -13.0446   20.8886 C   0  0  0  0  0  0  0  0  0  0  0  0
    7.9313  -14.4892   21.1109 C   0  0  2  0  0  0  0  0  0  0  0  0
    6.7731  -15.3448   21.1177 N   0  0  0  0  0  0  0  0  0  0  0  0
    8.7204  -14.6026   22.3697 C   0  0  0  0  0  0  0  0  0  0  0  0
    9.8806  -14.1344   22.4972 O   0  0  0  0  0  0  0  0  0  0  0  0
    8.1255  -15.2716   23.4687 N   0  0  0  0  0  0  0  0  0  0  0  0
    8.7732  -15.3923   24.7642 C   0  0  1  0  0  0  0  0  0  0  0  0
    7.6963  -15.2377   25.8128 C   0  0  0  0  0  0  0  0  0  0  0  0
    7.3734  -13.8338   26.1239 C   0  0  0  0  0  0  0  0  0  0  0  0
    6.0716  -13.3952   26.1920 C   0  0  0  0  0  0  0  0  0  0  0  0
    5.7690  -12.0630   26.4923 C   0  0  0  0  0  0  0  0  0  0  0  0
    6.7963  -11.1580   26.7277 C   0  0  0  0  0  0  0  0  0  0  0  0
    8.0982  -11.6056   26.6574 C   0  0  0  0  0  0  0  0  0  0  0  0
    8.3786  -12.9193   26.3609 C   0  0  0  0  0  0  0  0  0  0  0  0
    9.4482  -16.6993   24.9154 C   0  0  0  0  0  0  0  0  0  0  0  0
    9.3844  -17.6576   23.8864 O   0  0  0  0  0  0  0  0  0  0  0  0
   10.0937  -17.0193   25.9320 O   0  0  0  0  0  0  0  0  0  0  0  0
  2  1  1  0
  3  4  1  6
  3  2  1  0
  5  3  1  0
  5  6  2  0
  8  7  1  1
  8  9  1  0
  8 10  1  0
  9  5  1  0
 10 12  1  0
 10 11  2  0
 12 13  1  0
 13 14  1  1
 14 15  1  0
 15 20  2  0
 16 15  1  0
 16 17  2  0
 17 18  1  0
 18 19  2  0
 20 19  1  0
 21 22  1  0
 21 13  1  0
 23 21  2  0
M  END
$$$$
