SAF.pdb
     RDKit          3D

 23 23  0  0  1  0  0  0  0  0999 V2000
   12.1622  -19.9697   25.6601 O   0  0  0  0  0  0  0  0  0  0  0  0
   12.2624  -20.9013   26.6657 C   0  0  0  0  0  0  0  0  0  0  0  0
   10.9811  -21.6881   26.8195 C   0  0  2  0  0  0  0  0  0  0  0  0
   11.1023  -22.8526   25.9622 N   0  0  0  0  0  0  0  0  0  0  0  0
    9.7789  -20.9041   26.4670 C   0  0  0  0  0  0  0  0  0  0  0  0
    9.1866  -21.1544   25.3860 O   0  0  0  0  0  0  0  0  0  0  0  0
    7.3366  -18.5474   28.0704 C   0  0  0  0  0  0  0  0  0  0  0  0
    8.1298  -19.0473   26.9044 C   0  0  2  0  0  0  0  0  0  0  0  0
    9.2451  -19.8790   27.2758 N   0  0  0  0  0  0  0  0  0  0  0  0
    8.5519  -17.8724   26.0912 C   0  0  0  0  0  0  0  0  0  0  0  0
    7.7361  -17.0758   25.5608 O   0  0  0  0  0  0  0  0  0  0  0  0
    9.9409  -17.6519   25.9137 N   0  0  0  0  0  0  0  0  0  0  0  0
   10.4712  -16.5544   25.1221 C   0  0  1  0  0  0  0  0  0  0  0  0
   11.4024  -15.7723   26.0189 C   0  0  0  0  0  0  0  0  0  0  0  0
   10.7300  -15.1662   27.1820 C   0  0  0  0  0  0  0  0  0  0  0  0
    9.8437  -14.1247   27.0359 C   0  0  0  0  0  0  0  0  0  0  0  0
    9.2038  -13.5552   28.1417 C   0  0  0  0  0  0  0  0  0  0  0  0
    9.4622  -14.0441   29.4161 C   0  0  0  0  0  0  0  0  0  0  0  0
   10.3519  -15.0880   29.5538 C   0  0  0  0  0  0  0  0  0  0  0  0
   10.9727  -15.6369   28.4558 C   0  0  0  0  0  0  0  0  0  0  0  0
   11.2009  -17.0443   23.9328 C   0  0  0  0  0  0  0  0  0  0  0  0
   11.3486  -18.4257   23.7063 O   0  0  0  0  0  0  0  0  0  0  0  0
   11.7123  -16.2858   23.0868 O   0  0  0  0  0  0  0  0  0  0  0  0
  2  1  1  0
  3  4  1  6
  3  2  1  0
  5  3  1  0
  5  6  2  0
  8  7  1  1
  8  9  1  0
  8 10  1  0
  9  5  1  0
 10 12  1  0
 10 11  2  0
 12 13  1  0
 13 14  1  1
 14 15  1  0
 15 20  2  0
 16 15  1  0
 16 17  2  0
 17 18  1  0
 18 19  2  0
 20 19  1  0
 21 22  1  0
 21 13  1  0
 23 21  2  0
M  END
$$$$
