SAF.pdb
     RDKit          3D

 23 23  0  0  1  0  0  0  0  0999 V2000
   10.4182  -12.8397   19.9566 O   0  0  0  0  0  0  0  0  0  0  0  0
    9.9963  -13.7275   18.9959 C   0  0  0  0  0  0  0  0  0  0  0  0
    8.4909  -13.8638   18.9929 C   0  0  2  0  0  0  0  0  0  0  0  0
    7.9521  -12.5245   18.8461 N   0  0  0  0  0  0  0  0  0  0  0  0
    7.9689  -14.5044   20.2182 C   0  0  0  0  0  0  0  0  0  0  0  0
    7.4581  -13.7805   21.1110 O   0  0  0  0  0  0  0  0  0  0  0  0
    7.6081  -18.0146   21.6350 C   0  0  0  0  0  0  0  0  0  0  0  0
    7.6259  -16.5197   21.6945 C   0  0  2  0  0  0  0  0  0  0  0  0
    8.0069  -15.8946   20.4545 N   0  0  0  0  0  0  0  0  0  0  0  0
    8.5072  -16.1098   22.8238 C   0  0  0  0  0  0  0  0  0  0  0  0
    9.7098  -15.7760   22.6699 O   0  0  0  0  0  0  0  0  0  0  0  0
    7.9534  -16.0994   24.1286 N   0  0  0  0  0  0  0  0  0  0  0  0
    8.7267  -15.7614   25.3119 C   0  0  1  0  0  0  0  0  0  0  0  0
    7.7420  -15.3424   26.3786 C   0  0  0  0  0  0  0  0  0  0  0  0
    7.3358  -13.9289   26.2836 C   0  0  0  0  0  0  0  0  0  0  0  0
    6.0113  -13.5596   26.3118 C   0  0  0  0  0  0  0  0  0  0  0  0
    5.6298  -12.2166   26.2262 C   0  0  0  0  0  0  0  0  0  0  0  0
    6.6004  -11.2295   26.1101 C   0  0  0  0  0  0  0  0  0  0  0  0
    7.9256  -11.6080   26.0824 C   0  0  0  0  0  0  0  0  0  0  0  0
    8.2838  -12.9334   26.1677 C   0  0  0  0  0  0  0  0  0  0  0  0
    9.5306  -16.9097   25.7828 C   0  0  0  0  0  0  0  0  0  0  0  0
    9.3047  -18.1985   25.2638 O   0  0  0  0  0  0  0  0  0  0  0  0
   10.4281  -16.8070   26.6410 O   0  0  0  0  0  0  0  0  0  0  0  0
  2  1  1  0
  3  4  1  1
  3  2  1  0
  5  3  1  0
  5  6  2  0
  8  7  1  6
  8  9  1  0
  8 10  1  0
  9  5  1  0
 10 12  1  0
 10 11  2  0
 12 13  1  0
 13 14  1  1
 14 15  1  0
 15 20  2  0
 16 15  1  0
 16 17  2  0
 17 18  1  0
 18 19  2  0
 20 19  1  0
 21 22  1  0
 21 13  1  0
 23 21  2  0
M  END
$$$$
