SAF.pdb
     RDKit          3D

 23 23  0  0  1  0  0  0  0  0999 V2000
    9.4319  -12.5388   20.5578 O   0  0  0  0  0  0  0  0  0  0  0  0
    9.2058  -13.6566   19.7905 C   0  0  0  0  0  0  0  0  0  0  0  0
    7.8834  -14.3034   20.1330 C   0  0  2  0  0  0  0  0  0  0  0  0
    6.8681  -13.2768   19.9885 N   0  0  0  0  0  0  0  0  0  0  0  0
    7.8578  -14.8735   21.4963 C   0  0  0  0  0  0  0  0  0  0  0  0
    7.3105  -14.2166   22.4187 O   0  0  0  0  0  0  0  0  0  0  0  0
    8.6841  -18.1826   23.1533 C   0  0  0  0  0  0  0  0  0  0  0  0
    8.3220  -16.7310   23.1374 C   0  0  2  0  0  0  0  0  0  0  0  0
    8.4154  -16.1243   21.8348 N   0  0  0  0  0  0  0  0  0  0  0  0
    9.1667  -16.0300   24.1449 C   0  0  0  0  0  0  0  0  0  0  0  0
   10.2248  -15.4188   23.8479 O   0  0  0  0  0  0  0  0  0  0  0  0
    8.7484  -16.0601   25.4989 N   0  0  0  0  0  0  0  0  0  0  0  0
    9.5028  -15.4350   26.5725 C   0  0  1  0  0  0  0  0  0  0  0  0
    8.4976  -14.8319   27.5260 C   0  0  0  0  0  0  0  0  0  0  0  0
    7.7346  -13.7116   26.9474 C   0  0  0  0  0  0  0  0  0  0  0  0
    6.3694  -13.7771   26.7937 C   0  0  0  0  0  0  0  0  0  0  0  0
    5.6481  -12.7098   26.2485 C   0  0  0  0  0  0  0  0  0  0  0  0
    6.3146  -11.5575   25.8516 C   0  0  0  0  0  0  0  0  0  0  0  0
    7.6828  -11.5000   26.0089 C   0  0  0  0  0  0  0  0  0  0  0  0
    8.3773  -12.5586   26.5469 C   0  0  0  0  0  0  0  0  0  0  0  0
   10.3538  -16.4147   27.2814 C   0  0  0  0  0  0  0  0  0  0  0  0
   11.3443  -15.9787   28.1815 O   0  0  0  0  0  0  0  0  0  0  0  0
   10.2473  -17.6467   27.1282 O   0  0  0  0  0  0  0  0  0  0  0  0
  2  1  1  0
  3  4  1  1
  3  2  1  0
  5  3  1  0
  5  6  2  0
  8  7  1  6
  8  9  1  0
  8 10  1  0
  9  5  1  0
 10 12  1  0
 10 11  2  0
 12 13  1  0
 13 14  1  1
 14 15  1  0
 15 20  2  0
 16 15  1  0
 16 17  2  0
 17 18  1  0
 18 19  2  0
 20 19  1  0
 21 22  1  0
 21 13  1  0
 23 21  2  0
M  END
$$$$
