SAF.pdb
     RDKit          3D

 23 23  0  0  1  0  0  0  0  0999 V2000
    8.3344  -11.9800   19.0215 O   0  0  0  0  0  0  0  0  0  0  0  0
    9.3292  -12.9173   19.1659 C   0  0  0  0  0  0  0  0  0  0  0  0
    8.8539  -14.2940   18.7618 C   0  0  2  0  0  0  0  0  0  0  0  0
    8.0908  -14.1284   17.5388 N   0  0  0  0  0  0  0  0  0  0  0  0
    8.0342  -14.9482   19.8032 C   0  0  0  0  0  0  0  0  0  0  0  0
    6.8528  -15.2796   19.5264 O   0  0  0  0  0  0  0  0  0  0  0  0
    7.8545  -17.5842   21.3998 C   0  0  0  0  0  0  0  0  0  0  0  0
    7.9116  -16.2080   21.9841 C   0  0  2  0  0  0  0  0  0  0  0  0
    8.4975  -15.2289   21.1057 N   0  0  0  0  0  0  0  0  0  0  0  0
    8.6229  -16.2869   23.2909 C   0  0  0  0  0  0  0  0  0  0  0  0
    9.8597  -16.4928   23.3879 O   0  0  0  0  0  0  0  0  0  0  0  0
    7.8598  -16.1207   24.4738 N   0  0  0  0  0  0  0  0  0  0  0  0
    8.4625  -15.9737   25.7881 C   0  0  1  0  0  0  0  0  0  0  0  0
    7.3916  -15.4346   26.7077 C   0  0  0  0  0  0  0  0  0  0  0  0
    7.1155  -13.9999   26.5139 C   0  0  0  0  0  0  0  0  0  0  0  0
    5.8290  -13.5239   26.4147 C   0  0  0  0  0  0  0  0  0  0  0  0
    5.5708  -12.1608   26.2357 C   0  0  0  0  0  0  0  0  0  0  0  0
    6.6277  -11.2630   26.1551 C   0  0  0  0  0  0  0  0  0  0  0  0
    7.9141  -11.7482   26.2552 C   0  0  0  0  0  0  0  0  0  0  0  0
    8.1507  -13.0918   26.4313 C   0  0  0  0  0  0  0  0  0  0  0  0
    8.9721  -17.2639   26.3003 C   0  0  0  0  0  0  0  0  0  0  0  0
    9.9996  -17.2932   27.2619 O   0  0  0  0  0  0  0  0  0  0  0  0
    8.5350  -18.3677   25.9221 O   0  0  0  0  0  0  0  0  0  0  0  0
  2  1  1  0
  3  4  1  6
  3  2  1  0
  5  3  1  0
  5  6  2  0
  8  7  1  6
  8  9  1  0
  8 10  1  0
  9  5  1  0
 10 12  1  0
 10 11  2  0
 12 13  1  0
 13 14  1  1
 14 15  1  0
 15 20  2  0
 16 15  1  0
 16 17  2  0
 17 18  1  0
 18 19  2  0
 20 19  1  0
 21 22  1  0
 21 13  1  0
 23 21  2  0
M  END
$$$$
