AKS.pdb
     RDKit          3D

 21 20  0  0  1  0  0  0  0  0999 V2000
   17.5791  -12.6656  -15.6295 C   0  0  0  0  0  0  0  0  0  0  0  0
   17.4043  -11.1998  -15.3161 C   0  0  2  0  0  0  0  0  0  0  0  0
   16.4126  -10.5634  -16.1575 N   0  0  0  0  0  0  0  0  0  0  0  0
   18.6932  -10.4606  -15.4297 C   0  0  0  0  0  0  0  0  0  0  0  0
   19.6173  -10.6770  -14.5998 O   0  0  0  0  0  0  0  0  0  0  0  0
   18.9499   -9.5075  -16.4365 N   0  0  0  0  0  0  0  0  0  0  0  0
   20.1836   -8.7405  -16.5264 C   0  0  1  0  0  0  0  0  0  0  0  0
   20.4995   -8.6108  -17.9937 C   0  0  0  0  0  0  0  0  0  0  0  0
   21.8074   -9.2471  -18.3711 C   0  0  0  0  0  0  0  0  0  0  0  0
   21.5926  -10.4891  -19.2269 C   0  0  0  0  0  0  0  0  0  0  0  0
   22.8621  -11.1203  -19.6932 C   0  0  0  0  0  0  0  0  0  0  0  0
   22.5256  -12.3518  -20.4107 N   0  0  0  0  0  0  0  0  0  0  0  0
   20.1359   -7.4972  -15.7792 C   0  0  0  0  0  0  0  0  0  0  0  0
   19.1313   -6.7576  -15.8330 O   0  0  0  0  0  0  0  0  0  0  0  0
   21.2268   -6.6988  -12.0433 O   0  0  0  0  0  0  0  0  0  0  0  0
   21.8597   -5.8038  -12.9153 C   0  0  0  0  0  0  0  0  0  0  0  0
   21.1570   -5.7624  -14.2507 C   0  0  2  0  0  0  0  0  0  0  0  0
   21.2130   -7.0304  -14.9397 N   0  0  0  0  0  0  0  0  0  0  0  0
   21.7845   -4.6843  -15.0523 C   0  0  0  0  0  0  0  0  0  0  0  0
   22.3628   -4.8992  -16.1472 O   0  0  0  0  0  0  0  0  0  0  0  0
   21.7433   -3.3761  -14.5936 O   0  0  0  0  0  0  0  0  0  0  0  0
  2  1  1  6
  3  2  1  0
  4  5  2  0
  4  2  1  0
  6  4  1  0
  7  6  1  0
  7 13  1  0
  7  8  1  6
  9 10  1  0
  9  8  1  0
 11 12  1  0
 11 10  1  0
 13 14  2  0
 15 16  1  0
 17 16  1  1
 18 13  1  0
 18 17  1  0
 19 21  1  0
 19 17  1  0
 20 19  2  0
M  END
$$$$
