AKS.pdb
     RDKit          3D

 21 20  0  0  1  0  0  0  0  0999 V2000
   29.1855  -21.5140  -14.8372 C   0  0  0  0  0  0  0  0  0  0  0  0
   28.3882  -20.2853  -14.4738 C   0  0  2  0  0  0  0  0  0  0  0  0
   28.9824  -19.5355  -13.3870 N   0  0  0  0  0  0  0  0  0  0  0  0
   26.9825  -20.6323  -14.1212 C   0  0  0  0  0  0  0  0  0  0  0  0
   26.2678  -21.2700  -14.9410 O   0  0  0  0  0  0  0  0  0  0  0  0
   26.3861  -20.2813  -12.8927 N   0  0  0  0  0  0  0  0  0  0  0  0
   25.0122  -20.6074  -12.5401 C   0  0  1  0  0  0  0  0  0  0  0  0
   24.9768  -20.7407  -11.0399 C   0  0  0  0  0  0  0  0  0  0  0  0
   23.6066  -21.0581  -10.5109 C   0  0  0  0  0  0  0  0  0  0  0  0
   23.6126  -21.1748   -8.9920 C   0  0  0  0  0  0  0  0  0  0  0  0
   22.2553  -21.3687   -8.4023 C   0  0  0  0  0  0  0  0  0  0  0  0
   22.3813  -21.3458   -6.9435 N   0  0  0  0  0  0  0  0  0  0  0  0
   24.0447  -19.6908  -13.1149 C   0  0  0  0  0  0  0  0  0  0  0  0
   24.1661  -18.4571  -12.9650 O   0  0  0  0  0  0  0  0  0  0  0  0
   22.2470  -20.2972  -16.5816 O   0  0  0  0  0  0  0  0  0  0  0  0
   22.1795  -19.0410  -15.9655 C   0  0  0  0  0  0  0  0  0  0  0  0
   21.9772  -19.1799  -14.4760 C   0  0  2  0  0  0  0  0  0  0  0  0
   22.8998  -20.1189  -13.8822 N   0  0  0  0  0  0  0  0  0  0  0  0
   20.5701  -19.5909  -14.2528 C   0  0  0  0  0  0  0  0  0  0  0  0
   20.2577  -20.6573  -13.6658 O   0  0  0  0  0  0  0  0  0  0  0  0
   19.5391  -18.7795  -14.7024 O   0  0  0  0  0  0  0  0  0  0  0  0
  2  1  1  1
  3  2  1  0
  4  5  2  0
  4  2  1  0
  6  4  1  0
  7  6  1  0
  7 13  1  0
  7  8  1  1
  9 10  1  0
  9  8  1  0
 11 12  1  0
 11 10  1  0
 13 14  2  0
 15 16  1  0
 17 16  1  6
 18 13  1  0
 18 17  1  0
 19 21  1  0
 19 17  1  0
 20 19  2  0
M  END
$$$$
