AKS.pdb
     RDKit          3D

 21 20  0  0  1  0  0  0  0  0999 V2000
   22.9300  -17.3878  -20.4233 C   0  0  0  0  0  0  0  0  0  0  0  0
   22.3306  -17.5227  -19.0450 C   0  0  2  0  0  0  0  0  0  0  0  0
   23.2394  -17.1060  -17.9978 N   0  0  0  0  0  0  0  0  0  0  0  0
   21.8817  -18.9188  -18.7801 C   0  0  0  0  0  0  0  0  0  0  0  0
   20.9909  -19.4407  -19.5036 O   0  0  0  0  0  0  0  0  0  0  0  0
   22.4068  -19.7139  -17.7408 N   0  0  0  0  0  0  0  0  0  0  0  0
   22.0013  -21.0896  -17.4933 C   0  0  1  0  0  0  0  0  0  0  0  0
   23.2321  -21.9377  -17.6809 C   0  0  0  0  0  0  0  0  0  0  0  0
   23.2598  -22.6475  -19.0050 C   0  0  0  0  0  0  0  0  0  0  0  0
   23.1237  -24.1545  -18.8287 C   0  0  0  0  0  0  0  0  0  0  0  0
   23.3701  -24.9274  -20.0815 C   0  0  0  0  0  0  0  0  0  0  0  0
   22.9920  -26.3218  -19.8423 N   0  0  0  0  0  0  0  0  0  0  0  0
   21.3050  -21.2589  -16.2311 C   0  0  0  0  0  0  0  0  0  0  0  0
   20.9394  -22.3904  -15.8499 O   0  0  0  0  0  0  0  0  0  0  0  0
   20.4253  -18.0188  -13.6247 O   0  0  0  0  0  0  0  0  0  0  0  0
   20.6054  -19.2968  -13.0804 C   0  0  0  0  0  0  0  0  0  0  0  0
   20.2870  -20.3667  -14.0967 C   0  0  2  0  0  0  0  0  0  0  0  0
   20.9892  -20.1664  -15.3426 N   0  0  0  0  0  0  0  0  0  0  0  0
   18.8181  -20.3675  -14.2990 C   0  0  0  0  0  0  0  0  0  0  0  0
   18.2787  -19.9950  -15.3712 O   0  0  0  0  0  0  0  0  0  0  0  0
   17.9850  -20.7934  -13.2751 O   0  0  0  0  0  0  0  0  0  0  0  0
  2  1  1  6
  3  2  1  0
  4  5  2  0
  4  2  1  0
  6  4  1  0
  7  6  1  0
  7 13  1  0
  7  8  1  1
  9 10  1  0
  9  8  1  0
 11 12  1  0
 11 10  1  0
 13 14  2  0
 15 16  1  0
 17 16  1  1
 18 13  1  0
 18 17  1  0
 19 21  1  0
 19 17  1  0
 20 19  2  0
M  END
$$$$
