AKS.pdb
     RDKit          3D

 21 20  0  0  1  0  0  0  0  0999 V2000
   45.2992  -10.4322   -8.5303 C   0  0  0  0  0  0  0  0  0  0  0  0
   44.1704  -11.1992   -7.8863 C   0  0  2  0  0  0  0  0  0  0  0  0
   43.5458  -10.4689   -6.8032 N   0  0  0  0  0  0  0  0  0  0  0  0
   44.6287  -12.5256   -7.3852 C   0  0  0  0  0  0  0  0  0  0  0  0
   45.0340  -12.6430   -6.1971 O   0  0  0  0  0  0  0  0  0  0  0  0
   44.6372  -13.6899   -8.1804 N   0  0  0  0  0  0  0  0  0  0  0  0
   45.0899  -14.9889   -7.7050 C   0  0  1  0  0  0  0  0  0  0  0  0
   44.2890  -16.0209   -8.4553 C   0  0  0  0  0  0  0  0  0  0  0  0
   44.6909  -17.4305   -8.1244 C   0  0  0  0  0  0  0  0  0  0  0  0
   43.8293  -18.4417   -8.8700 C   0  0  0  0  0  0  0  0  0  0  0  0
   44.2094  -19.8606   -8.6057 C   0  0  0  0  0  0  0  0  0  0  0  0
   43.4132  -20.7201   -9.4843 N   0  0  0  0  0  0  0  0  0  0  0  0
   46.5318  -15.1449   -7.7632 C   0  0  0  0  0  0  0  0  0  0  0  0
   47.1780  -14.7453   -8.7541 O   0  0  0  0  0  0  0  0  0  0  0  0
   50.7442  -16.2053   -5.4859 O   0  0  0  0  0  0  0  0  0  0  0  0
   49.3492  -16.3319   -5.4753 C   0  0  0  0  0  0  0  0  0  0  0  0
   48.7513  -15.8311   -6.7677 C   0  0  2  0  0  0  0  0  0  0  0  0
   47.3101  -15.7557   -6.7126 N   0  0  0  0  0  0  0  0  0  0  0  0
   49.2034  -16.7382   -7.8500 C   0  0  0  0  0  0  0  0  0  0  0  0
   48.7080  -17.8785   -8.0333 O   0  0  0  0  0  0  0  0  0  0  0  0
   50.2142  -16.3315   -8.7081 O   0  0  0  0  0  0  0  0  0  0  0  0
  2  1  1  1
  3  2  1  0
  4  5  2  0
  4  2  1  0
  6  4  1  0
  7  6  1  0
  7 13  1  0
  7  8  1  6
  9 10  1  0
  9  8  1  0
 11 12  1  0
 11 10  1  0
 13 14  2  0
 15 16  1  0
 17 16  1  1
 18 13  1  0
 18 17  1  0
 19 21  1  0
 19 17  1  0
 20 19  2  0
M  END
$$$$
