AKS.pdb
     RDKit          3D

 21 20  0  0  1  0  0  0  0  0999 V2000
   16.4275   -8.6612  -17.7893 C   0  0  0  0  0  0  0  0  0  0  0  0
   17.3886   -9.8232  -17.7329 C   0  0  2  0  0  0  0  0  0  0  0  0
   16.7381  -11.0693  -17.3855 N   0  0  0  0  0  0  0  0  0  0  0  0
   18.5005   -9.5650  -16.7751 C   0  0  0  0  0  0  0  0  0  0  0  0
   18.2627   -9.4994  -15.5387 O   0  0  0  0  0  0  0  0  0  0  0  0
   19.8396   -9.3845  -17.1779 N   0  0  0  0  0  0  0  0  0  0  0  0
   20.9244   -9.0743  -16.2584 C   0  0  1  0  0  0  0  0  0  0  0  0
   22.1114   -9.8846  -16.7099 C   0  0  0  0  0  0  0  0  0  0  0  0
   23.3180   -9.6962  -15.8344 C   0  0  0  0  0  0  0  0  0  0  0  0
   24.5246  -10.4455  -16.3854 C   0  0  0  0  0  0  0  0  0  0  0  0
   25.7548  -10.2901  -15.5547 C   0  0  0  0  0  0  0  0  0  0  0  0
   26.8363  -11.0454  -16.1907 N   0  0  0  0  0  0  0  0  0  0  0  0
   21.1536   -7.6488  -16.1096 C   0  0  0  0  0  0  0  0  0  0  0  0
   21.4514   -6.9433  -17.0959 O   0  0  0  0  0  0  0  0  0  0  0  0
   19.1055   -4.9208  -15.5088 O   0  0  0  0  0  0  0  0  0  0  0  0
   20.0213   -4.7644  -14.4606 C   0  0  0  0  0  0  0  0  0  0  0  0
   21.2914   -5.5334  -14.7334 C   0  0  2  0  0  0  0  0  0  0  0  0
   21.0586   -6.9540  -14.8483 N   0  0  0  0  0  0  0  0  0  0  0  0
   22.2420   -5.2291  -13.6369 C   0  0  0  0  0  0  0  0  0  0  0  0
   22.6319   -6.0955  -12.8143 O   0  0  0  0  0  0  0  0  0  0  0  0
   22.7346   -3.9404  -13.4942 O   0  0  0  0  0  0  0  0  0  0  0  0
  2  1  1  1
  3  2  1  0
  4  5  2  0
  4  2  1  0
  6  4  1  0
  7  6  1  0
  7 13  1  0
  7  8  1  6
  9 10  1  0
  9  8  1  0
 11 12  1  0
 11 10  1  0
 13 14  2  0
 15 16  1  0
 17 16  1  1
 18 13  1  0
 18 17  1  0
 19 21  1  0
 19 17  1  0
 20 19  2  0
M  END
$$$$
