AKS.pdb
     RDKit          3D

 21 20  0  0  1  0  0  0  0  0999 V2000
   20.0552  -13.6515  -20.4845 C   0  0  0  0  0  0  0  0  0  0  0  0
   20.4725  -13.5275  -19.0396 C   0  0  2  0  0  0  0  0  0  0  0  0
   19.9036  -14.5636  -18.2033 N   0  0  0  0  0  0  0  0  0  0  0  0
   20.1147  -12.1930  -18.4814 C   0  0  0  0  0  0  0  0  0  0  0  0
   20.6260  -11.1495  -18.9704 O   0  0  0  0  0  0  0  0  0  0  0  0
   19.2144  -12.0210  -17.4101 N   0  0  0  0  0  0  0  0  0  0  0  0
   18.7973  -10.7205  -16.9070 C   0  0  1  0  0  0  0  0  0  0  0  0
   17.3709  -10.8777  -16.4487 C   0  0  0  0  0  0  0  0  0  0  0  0
   16.7558   -9.5856  -15.9901 C   0  0  0  0  0  0  0  0  0  0  0  0
   15.3069   -9.7827  -15.5628 C   0  0  0  0  0  0  0  0  0  0  0  0
   14.6181   -8.5143  -15.1830 C   0  0  0  0  0  0  0  0  0  0  0  0
   13.1904   -8.7978  -15.0226 N   0  0  0  0  0  0  0  0  0  0  0  0
   19.7166  -10.1674  -15.9295 C   0  0  0  0  0  0  0  0  0  0  0  0
   20.0066  -10.8027  -14.8943 O   0  0  0  0  0  0  0  0  0  0  0  0
   23.2351   -9.2864  -16.0937 O   0  0  0  0  0  0  0  0  0  0  0  0
   22.6384   -8.0968  -15.6568 C   0  0  0  0  0  0  0  0  0  0  0  0
   21.2666   -8.3591  -15.0838 C   0  0  2  0  0  0  0  0  0  0  0  0
   20.3497   -8.8783  -16.0713 N   0  0  0  0  0  0  0  0  0  0  0  0
   20.7733   -7.0859  -14.5057 C   0  0  0  0  0  0  0  0  0  0  0  0
   21.3374   -6.5136  -13.5394 O   0  0  0  0  0  0  0  0  0  0  0  0
   19.6432   -6.4833  -15.0381 O   0  0  0  0  0  0  0  0  0  0  0  0
  2  1  1  6
  3  2  1  0
  4  5  2  0
  4  2  1  0
  6  4  1  0
  7  6  1  0
  7 13  1  0
  7  8  1  1
  9 10  1  0
  9  8  1  0
 11 12  1  0
 11 10  1  0
 13 14  2  0
 15 16  1  0
 17 16  1  6
 18 13  1  0
 18 17  1  0
 19 21  1  0
 19 17  1  0
 20 19  2  0
M  END
$$$$
