KGT.pdb
     RDKit          3D

 21 20  0  0  1  0  0  0  0  0999 V2000
    6.3059  -22.9036   20.9671 N   0  0  0  0  0  0  0  0  0  0  0  0
    6.7889  -21.8570   20.0923 C   0  0  1  0  0  0  0  0  0  0  0  0
    6.1155  -21.8110   18.7607 C   0  0  0  0  0  0  0  0  0  0  0  0
    4.8637  -22.5882   18.6204 C   0  0  0  0  0  0  0  0  0  0  0  0
    3.5921  -21.8230   18.7378 C   0  0  0  0  0  0  0  0  0  0  0  0
    2.3929  -22.7469   18.5566 C   0  0  0  0  0  0  0  0  0  0  0  0
    1.1496  -22.0682   18.7652 N   0  0  0  0  0  0  0  0  0  0  0  0
    6.5310  -20.5544   20.7549 C   0  0  0  0  0  0  0  0  0  0  0  0
    6.7787  -19.5174   20.0615 O   0  0  0  0  0  0  0  0  0  0  0  0
    6.0405  -20.5029   22.0754 N   0  0  0  0  0  0  0  0  0  0  0  0
    5.6332  -19.2382   22.6250 C   0  0  0  0  0  0  0  0  0  0  0  0
    6.7521  -18.5473   23.3250 C   0  0  0  0  0  0  0  0  0  0  0  0
    7.8863  -19.0937   23.3985 O   0  0  0  0  0  0  0  0  0  0  0  0
    8.3799  -14.3108   25.3852 C   0  0  0  0  0  0  0  0  0  0  0  0
    7.3120  -15.1361   24.6923 C   0  0  1  0  0  0  0  0  0  0  0  0
    7.1953  -14.6321   23.3980 O   0  0  0  0  0  0  0  0  0  0  0  0
    7.7154  -16.6171   24.6416 C   0  0  2  0  0  0  0  0  0  0  0  0
    6.6102  -17.2770   23.9290 N   0  0  0  0  0  0  0  0  0  0  0  0
    7.7542  -17.0829   26.0380 C   0  0  0  0  0  0  0  0  0  0  0  0
    6.7154  -17.5016   26.5833 O   0  0  0  0  0  0  0  0  0  0  0  0
    8.9377  -17.0553   26.7389 O   0  0  0  0  0  0  0  0  0  0  0  0
  2  3  1  0
  2  1  1  1
  4  3  1  0
  5  4  1  0
  6  5  1  0
  7  6  1  0
  8  2  1  0
  8  9  2  0
 10  8  1  0
 11 10  1  0
 11 12  1  0
 12 13  2  0
 15 14  1  1
 15 16  1  0
 17 15  1  0
 18 12  1  0
 17 18  1  6
 19 21  1  0
 19 17  1  0
 20 19  2  0
M  END
$$$$
