KGT.pdb
     RDKit          3D

 21 20  0  0  1  0  0  0  0  0999 V2000
    9.2296  -18.6442   19.6728 N   0  0  0  0  0  0  0  0  0  0  0  0
    7.8751  -18.1433   19.5819 C   0  0  1  0  0  0  0  0  0  0  0  0
    6.9600  -18.6524   20.6459 C   0  0  0  0  0  0  0  0  0  0  0  0
    7.5099  -18.7255   22.0181 C   0  0  0  0  0  0  0  0  0  0  0  0
    6.6100  -19.2852   23.0636 C   0  0  0  0  0  0  0  0  0  0  0  0
    7.3036  -19.2876   24.4214 C   0  0  0  0  0  0  0  0  0  0  0  0
    6.4658  -19.8131   25.4568 N   0  0  0  0  0  0  0  0  0  0  0  0
    7.9252  -16.6667   19.7219 C   0  0  0  0  0  0  0  0  0  0  0  0
    7.8429  -16.0010   18.6414 O   0  0  0  0  0  0  0  0  0  0  0  0
    8.0569  -16.0679   20.9912 N   0  0  0  0  0  0  0  0  0  0  0  0
    8.0980  -14.6341   21.0910 C   0  0  0  0  0  0  0  0  0  0  0  0
    8.1765  -14.1749   22.5060 C   0  0  0  0  0  0  0  0  0  0  0  0
    8.3048  -12.9478   22.7670 O   0  0  0  0  0  0  0  0  0  0  0  0
    6.3251  -13.6884   25.4314 C   0  0  0  0  0  0  0  0  0  0  0  0
    7.3232  -14.7600   25.8276 C   0  0  1  0  0  0  0  0  0  0  0  0
    6.6868  -15.9861   25.6426 O   0  0  0  0  0  0  0  0  0  0  0  0
    8.5800  -14.6859   24.9480 C   0  0  2  0  0  0  0  0  0  0  0  0
    8.1135  -15.0627   23.6044 N   0  0  0  0  0  0  0  0  0  0  0  0
    9.5034  -15.7127   25.4591 C   0  0  0  0  0  0  0  0  0  0  0  0
    9.6953  -16.7568   24.8073 O   0  0  0  0  0  0  0  0  0  0  0  0
   10.1533  -15.5179   26.6560 O   0  0  0  0  0  0  0  0  0  0  0  0
  2  3  1  0
  2  1  1  1
  4  3  1  0
  5  4  1  0
  6  5  1  0
  7  6  1  0
  8  2  1  0
  8  9  2  0
 10  8  1  0
 11 10  1  0
 11 12  1  0
 12 13  2  0
 15 14  1  6
 15 16  1  0
 17 15  1  0
 18 12  1  0
 17 18  1  6
 19 21  1  0
 19 17  1  0
 20 19  2  0
M  END
$$$$
