KGT.pdb
     RDKit          3D

 21 20  0  0  1  0  0  0  0  0999 V2000
    7.0765  -19.7576   20.6582 N   0  0  0  0  0  0  0  0  0  0  0  0
    6.6575  -19.1312   19.4228 C   0  0  1  0  0  0  0  0  0  0  0  0
    5.2152  -18.7473   19.3880 C   0  0  0  0  0  0  0  0  0  0  0  0
    4.2617  -19.6826   20.0258 C   0  0  0  0  0  0  0  0  0  0  0  0
    2.8435  -19.2359   20.0980 C   0  0  0  0  0  0  0  0  0  0  0  0
    1.9598  -20.3476   20.6527 C   0  0  0  0  0  0  0  0  0  0  0  0
    0.5939  -19.9391   20.7845 N   0  0  0  0  0  0  0  0  0  0  0  0
    7.4434  -17.8835   19.2553 C   0  0  0  0  0  0  0  0  0  0  0  0
    7.5473  -17.4454   18.0659 O   0  0  0  0  0  0  0  0  0  0  0  0
    8.0277  -17.2457   20.3684 N   0  0  0  0  0  0  0  0  0  0  0  0
    8.7772  -16.0347   20.1710 C   0  0  0  0  0  0  0  0  0  0  0  0
    9.2299  -15.4419   21.4605 C   0  0  0  0  0  0  0  0  0  0  0  0
    9.9549  -14.4100   21.4629 O   0  0  0  0  0  0  0  0  0  0  0  0
    7.4393  -13.8985   24.1978 C   0  0  0  0  0  0  0  0  0  0  0  0
    8.1565  -15.0924   24.7994 C   0  0  1  0  0  0  0  0  0  0  0  0
    7.2556  -16.1555   24.7701 O   0  0  0  0  0  0  0  0  0  0  0  0
    9.4076  -15.4452   23.9816 C   0  0  2  0  0  0  0  0  0  0  0  0
    8.8828  -15.9865   22.7182 N   0  0  0  0  0  0  0  0  0  0  0  0
   10.1022  -16.5085   24.7267 C   0  0  0  0  0  0  0  0  0  0  0  0
   10.0709  -17.6822   24.3106 O   0  0  0  0  0  0  0  0  0  0  0  0
   10.7851  -16.2045   25.8818 O   0  0  0  0  0  0  0  0  0  0  0  0
  2  3  1  0
  2  1  1  1
  4  3  1  0
  5  4  1  0
  6  5  1  0
  7  6  1  0
  8  2  1  0
  8  9  2  0
 10  8  1  0
 11 10  1  0
 11 12  1  0
 12 13  2  0
 15 14  1  6
 15 16  1  0
 17 15  1  0
 18 12  1  0
 17 18  1  6
 19 21  1  0
 19 17  1  0
 20 19  2  0
M  END
$$$$
