KGT.pdb
     RDKit          3D

 21 20  0  0  1  0  0  0  0  0999 V2000
    6.6189  -16.0871   23.2931 N   0  0  0  0  0  0  0  0  0  0  0  0
    7.2143  -16.8604   22.2246 C   0  0  1  0  0  0  0  0  0  0  0  0
    7.2473  -16.1611   20.9060 C   0  0  0  0  0  0  0  0  0  0  0  0
    7.8143  -14.7940   20.8914 C   0  0  0  0  0  0  0  0  0  0  0  0
    7.7487  -14.0633   19.5960 C   0  0  0  0  0  0  0  0  0  0  0  0
    8.4594  -12.7188   19.7034 C   0  0  0  0  0  0  0  0  0  0  0  0
    8.4381  -11.9945   18.4685 N   0  0  0  0  0  0  0  0  0  0  0  0
    8.6212  -17.1474   22.5996 C   0  0  0  0  0  0  0  0  0  0  0  0
    9.2888  -17.8422   21.7695 O   0  0  0  0  0  0  0  0  0  0  0  0
    9.1565  -16.6644   23.8108 N   0  0  0  0  0  0  0  0  0  0  0  0
   10.5384  -16.9156   24.1182 C   0  0  0  0  0  0  0  0  0  0  0  0
   10.9714  -16.2122   25.3580 C   0  0  0  0  0  0  0  0  0  0  0  0
   12.1304  -16.3978   25.8190 O   0  0  0  0  0  0  0  0  0  0  0  0
    9.5359  -12.5136   26.9081 C   0  0  0  0  0  0  0  0  0  0  0  0
    9.3747  -13.7863   27.7179 C   0  0  1  0  0  0  0  0  0  0  0  0
    8.1379  -14.3267   27.3701 O   0  0  0  0  0  0  0  0  0  0  0  0
   10.4928  -14.7866   27.3892 C   0  0  2  0  0  0  0  0  0  0  0  0
   10.1321  -15.3228   26.0674 N   0  0  0  0  0  0  0  0  0  0  0  0
   10.4028  -15.8540   28.3995 C   0  0  0  0  0  0  0  0  0  0  0  0
    9.9875  -16.9831   28.0764 O   0  0  0  0  0  0  0  0  0  0  0  0
   10.7774  -15.6031   29.6994 O   0  0  0  0  0  0  0  0  0  0  0  0
  2  3  1  0
  2  1  1  1
  4  3  1  0
  5  4  1  0
  6  5  1  0
  7  6  1  0
  8  2  1  0
  8  9  2  0
 10  8  1  0
 11 10  1  0
 11 12  1  0
 12 13  2  0
 15 14  1  6
 15 16  1  0
 17 15  1  0
 18 12  1  0
 17 18  1  6
 19 21  1  0
 19 17  1  0
 20 19  2  0
M  END
$$$$
