KGT.pdb
     RDKit          3D

 21 20  0  0  1  0  0  0  0  0999 V2000
    7.7450  -18.3595   22.8626 N   0  0  0  0  0  0  0  0  0  0  0  0
    7.2937  -18.0780   21.5168 C   0  0  1  0  0  0  0  0  0  0  0  0
    5.9015  -18.5337   21.2286 C   0  0  0  0  0  0  0  0  0  0  0  0
    5.5346  -19.8893   21.6958 C   0  0  0  0  0  0  0  0  0  0  0  0
    4.1104  -20.2868   21.5229 C   0  0  0  0  0  0  0  0  0  0  0  0
    3.8563  -21.6535   22.1490 C   0  0  0  0  0  0  0  0  0  0  0  0
    2.4763  -22.0300   22.0866 N   0  0  0  0  0  0  0  0  0  0  0  0
    7.3173  -16.6063   21.3270 C   0  0  0  0  0  0  0  0  0  0  0  0
    7.1419  -16.1948   20.1364 O   0  0  0  0  0  0  0  0  0  0  0  0
    7.5240  -15.7424   22.4215 N   0  0  0  0  0  0  0  0  0  0  0  0
    7.4396  -14.3211   22.2207 C   0  0  0  0  0  0  0  0  0  0  0  0
    7.5620  -13.5683   23.5003 C   0  0  0  0  0  0  0  0  0  0  0  0
    7.5950  -12.3076   23.4924 O   0  0  0  0  0  0  0  0  0  0  0  0
    6.0660  -12.1049   26.1830 C   0  0  0  0  0  0  0  0  0  0  0  0
    6.8725  -13.2374   26.7901 C   0  0  1  0  0  0  0  0  0  0  0  0
    6.0485  -14.3616   26.7850 O   0  0  0  0  0  0  0  0  0  0  0  0
    8.1357  -13.5121   25.9610 C   0  0  2  0  0  0  0  0  0  0  0  0
    7.6458  -14.2056   24.7595 N   0  0  0  0  0  0  0  0  0  0  0  0
    8.9638  -14.4299   26.7611 C   0  0  0  0  0  0  0  0  0  0  0  0
    9.0973  -15.6166   26.4067 O   0  0  0  0  0  0  0  0  0  0  0  0
    9.5891  -13.9758   27.8994 O   0  0  0  0  0  0  0  0  0  0  0  0
  2  3  1  0
  2  1  1  1
  4  3  1  0
  5  4  1  0
  6  5  1  0
  7  6  1  0
  8  2  1  0
  8  9  2  0
 10  8  1  0
 11 10  1  0
 11 12  1  0
 12 13  2  0
 15 14  1  6
 15 16  1  0
 17 15  1  0
 18 12  1  0
 17 18  1  6
 19 21  1  0
 19 17  1  0
 20 19  2  0
M  END
$$$$
