HFS.pdb
     RDKit          3D

 28 29  0  0  1  0  0  0  0  0999 V2000
    9.3356  -15.0489   19.9894 N   0  0  0  0  0  0  0  0  0  0  0  0
    8.3900  -15.8209   20.7696 C   0  0  1  0  0  0  0  0  0  0  0  0
    8.4568  -17.2903   20.4607 C   0  0  0  0  0  0  0  0  0  0  0  0
    7.9830  -17.5943   19.0845 C   0  0  0  0  0  0  0  0  0  0  0  0
    8.0648  -16.8697   17.9363 C   0  0  0  0  0  0  0  0  0  0  0  0
    7.4992  -17.5368   16.9222 N   0  0  0  0  0  0  0  0  0  0  0  0
    7.0579  -18.6996   17.4547 C   0  0  0  0  0  0  0  0  0  0  0  0
    7.3503  -18.7391   18.7714 N   0  0  0  0  0  0  0  0  0  0  0  0
    8.7388  -15.6454   22.1980 C   0  0  0  0  0  0  0  0  0  0  0  0
    9.9011  -15.3083   22.5385 O   0  0  0  0  0  0  0  0  0  0  0  0
    7.8213  -15.8365   23.2649 N   0  0  0  0  0  0  0  0  0  0  0  0
    8.0933  -15.6531   24.6534 C   0  0  1  0  0  0  0  0  0  0  0  0
    6.9477  -15.2003   25.4866 C   0  0  0  0  0  0  0  0  0  0  0  0
    6.9559  -13.7392   25.7508 C   0  0  0  0  0  0  0  0  0  0  0  0
    5.8054  -12.9977   25.5977 C   0  0  0  0  0  0  0  0  0  0  0  0
    5.7947  -11.6183   25.8426 C   0  0  0  0  0  0  0  0  0  0  0  0
    6.9559  -10.9995   26.2425 C   0  0  0  0  0  0  0  0  0  0  0  0
    8.1205  -11.7173   26.4034 C   0  0  0  0  0  0  0  0  0  0  0  0
    8.0923  -13.0724   26.1532 C   0  0  0  0  0  0  0  0  0  0  0  0
    8.5858  -16.9544   25.1864 C   0  0  0  0  0  0  0  0  0  0  0  0
    7.8625  -17.9877   25.1920 O   0  0  0  0  0  0  0  0  0  0  0  0
   11.7071  -18.4298   24.2454 O   0  0  0  0  0  0  0  0  0  0  0  0
   11.8085  -18.4904   25.6349 C   0  0  0  0  0  0  0  0  0  0  0  0
   10.4491  -18.2565   26.2455 C   0  0  2  0  0  0  0  0  0  0  0  0
    9.9084  -17.0382   25.7039 N   0  0  0  0  0  0  0  0  0  0  0  0
   10.4978  -18.2079   27.7349 C   0  0  0  0  0  0  0  0  0  0  0  0
   10.0703  -17.2161   28.3392 O   0  0  0  0  0  0  0  0  0  0  0  0
   11.0189  -19.2646   28.4634 O   0  0  0  0  0  0  0  0  0  0  0  0
  2  1  1  6
  2  9  1  0
  3  2  1  0
  4  8  1  0
  4  3  1  0
  5  4  2  0
  6  5  1  0
  6  7  1  0
  7  8  2  0
  9 10  2  0
  9 11  1  0
 11 12  1  0
 12 13  1  1
 14 13  1  0
 14 19  1  0
 15 14  2  0
 16 15  1  0
 16 17  2  0
 17 18  1  0
 18 19  2  0
 20 12  1  0
 20 21  2  0
 22 23  1  0
 24 23  1  6
 24 25  1  0
 25 20  1  0
 26 24  1  0
 27 26  2  0
 28 26  1  0
M  END
$$$$
