HFS.pdb
     RDKit          3D

 28 29  0  0  1  0  0  0  0  0999 V2000
   10.8738  -16.4249   19.7317 N   0  0  0  0  0  0  0  0  0  0  0  0
    9.5692  -16.6164   20.3318 C   0  0  1  0  0  0  0  0  0  0  0  0
    9.2345  -18.0691   20.5237 C   0  0  0  0  0  0  0  0  0  0  0  0
    8.9173  -18.7442   19.2373 C   0  0  0  0  0  0  0  0  0  0  0  0
    8.9336  -18.2758   17.9604 C   0  0  0  0  0  0  0  0  0  0  0  0
    8.5724  -19.2406   17.1048 N   0  0  0  0  0  0  0  0  0  0  0  0
    8.3274  -20.3297   17.8691 C   0  0  0  0  0  0  0  0  0  0  0  0
    8.5361  -20.0322   19.1686 N   0  0  0  0  0  0  0  0  0  0  0  0
    9.5932  -15.9802   21.6688 C   0  0  0  0  0  0  0  0  0  0  0  0
   10.6527  -15.9458   22.3447 O   0  0  0  0  0  0  0  0  0  0  0  0
    8.4608  -15.3770   22.2775 N   0  0  0  0  0  0  0  0  0  0  0  0
    8.4138  -14.7948   23.5792 C   0  0  1  0  0  0  0  0  0  0  0  0
    7.3171  -13.8188   23.8162 C   0  0  0  0  0  0  0  0  0  0  0  0
    7.3145  -13.2621   25.1927 C   0  0  0  0  0  0  0  0  0  0  0  0
    8.2656  -12.3413   25.5729 C   0  0  0  0  0  0  0  0  0  0  0  0
    8.2784  -11.8055   26.8673 C   0  0  0  0  0  0  0  0  0  0  0  0
    7.3224  -12.2097   27.7696 C   0  0  0  0  0  0  0  0  0  0  0  0
    6.3598  -13.1292   27.4156 C   0  0  0  0  0  0  0  0  0  0  0  0
    6.3792  -13.6341   26.1332 C   0  0  0  0  0  0  0  0  0  0  0  0
    8.2819  -15.9081   24.5605 C   0  0  0  0  0  0  0  0  0  0  0  0
    7.2327  -16.6038   24.6406 O   0  0  0  0  0  0  0  0  0  0  0  0
   11.3440  -18.0919   25.5789 O   0  0  0  0  0  0  0  0  0  0  0  0
   10.0346  -18.4479   25.9005 C   0  0  0  0  0  0  0  0  0  0  0  0
    9.3026  -17.2380   26.4257 C   0  0  2  0  0  0  0  0  0  0  0  0
    9.3674  -16.1984   25.4331 N   0  0  0  0  0  0  0  0  0  0  0  0
    9.8473  -16.7692   27.7320 C   0  0  0  0  0  0  0  0  0  0  0  0
   10.2826  -15.6163   27.8466 O   0  0  0  0  0  0  0  0  0  0  0  0
    9.8754  -17.6098   28.8327 O   0  0  0  0  0  0  0  0  0  0  0  0
  2  1  1  1
  2  9  1  0
  3  2  1  0
  4  8  1  0
  4  3  1  0
  5  4  2  0
  6  5  1  0
  6  7  1  0
  7  8  2  0
  9 10  2  0
  9 11  1  0
 11 12  1  0
 12 13  1  6
 14 13  1  0
 14 19  1  0
 15 14  2  0
 16 15  1  0
 16 17  2  0
 17 18  1  0
 18 19  2  0
 20 12  1  0
 20 21  2  0
 22 23  1  0
 24 23  1  6
 24 25  1  0
 25 20  1  0
 26 24  1  0
 27 26  2  0
 28 26  1  0
M  END
$$$$
