HFS.pdb
     RDKit          3D

 28 29  0  0  1  0  0  0  0  0999 V2000
   10.2116  -15.1038   20.2908 N   0  0  0  0  0  0  0  0  0  0  0  0
    9.1180  -15.8565   20.8710 C   0  0  1  0  0  0  0  0  0  0  0  0
    9.1799  -17.3174   20.5231 C   0  0  0  0  0  0  0  0  0  0  0  0
    8.9208  -17.5596   19.0791 C   0  0  0  0  0  0  0  0  0  0  0  0
    8.7320  -16.6882   18.0519 C   0  0  0  0  0  0  0  0  0  0  0  0
    8.5285  -17.3530   16.9074 N   0  0  0  0  0  0  0  0  0  0  0  0
    8.5929  -18.6644   17.2337 C   0  0  0  0  0  0  0  0  0  0  0  0
    8.8317  -18.7952   18.5553 N   0  0  0  0  0  0  0  0  0  0  0  0
    9.2252  -15.7399   22.3433 C   0  0  0  0  0  0  0  0  0  0  0  0
   10.3315  -15.4979   22.8895 O   0  0  0  0  0  0  0  0  0  0  0  0
    8.1257  -15.8867   23.2299 N   0  0  0  0  0  0  0  0  0  0  0  0
    8.1776  -15.8248   24.6543 C   0  0  1  0  0  0  0  0  0  0  0  0
    6.9163  -15.4280   25.3348 C   0  0  0  0  0  0  0  0  0  0  0  0
    6.9072  -14.0092   25.7727 C   0  0  0  0  0  0  0  0  0  0  0  0
    7.0614  -13.6906   27.1037 C   0  0  0  0  0  0  0  0  0  0  0  0
    7.0555  -12.3576   27.5349 C   0  0  0  0  0  0  0  0  0  0  0  0
    6.8924  -11.3543   26.6086 C   0  0  0  0  0  0  0  0  0  0  0  0
    6.7362  -11.6450   25.2713 C   0  0  0  0  0  0  0  0  0  0  0  0
    6.7474  -12.9680   24.8849 C   0  0  0  0  0  0  0  0  0  0  0  0
    8.5801  -17.1731   25.1443 C   0  0  0  0  0  0  0  0  0  0  0  0
    8.3143  -18.2228   24.4974 O   0  0  0  0  0  0  0  0  0  0  0  0
   12.4547  -18.8920   25.7130 O   0  0  0  0  0  0  0  0  0  0  0  0
   11.4209  -17.9713   25.5458 C   0  0  0  0  0  0  0  0  0  0  0  0
   10.3476  -18.2332   26.5730 C   0  0  2  0  0  0  0  0  0  0  0  0
    9.2845  -17.2840   26.3753 N   0  0  0  0  0  0  0  0  0  0  0  0
   10.8712  -18.1717   27.9676 C   0  0  0  0  0  0  0  0  0  0  0  0
   10.5439  -17.2406   28.7144 O   0  0  0  0  0  0  0  0  0  0  0  0
   11.7271  -19.1488   28.4488 O   0  0  0  0  0  0  0  0  0  0  0  0
  2  1  1  6
  2  9  1  0
  3  2  1  0
  4  8  1  0
  4  3  1  0
  5  4  2  0
  6  5  1  0
  6  7  1  0
  7  8  2  0
  9 10  2  0
  9 11  1  0
 11 12  1  0
 12 13  1  1
 14 13  1  0
 14 19  1  0
 15 14  2  0
 16 15  1  0
 16 17  2  0
 17 18  1  0
 18 19  2  0
 20 12  1  0
 20 21  2  0
 22 23  1  0
 24 23  1  6
 24 25  1  0
 25 20  1  0
 26 24  1  0
 27 26  2  0
 28 26  1  0
M  END
$$$$
