HFS.pdb
     RDKit          3D

 28 29  0  0  1  0  0  0  0  0999 V2000
    8.8917  -12.6857   19.4133 N   0  0  0  0  0  0  0  0  0  0  0  0
    8.3730  -13.9766   19.8173 C   0  0  1  0  0  0  0  0  0  0  0  0
    9.0247  -15.1124   19.0794 C   0  0  0  0  0  0  0  0  0  0  0  0
    8.6636  -15.1222   17.6371 C   0  0  0  0  0  0  0  0  0  0  0  0
    7.9484  -14.2353   16.8941 C   0  0  0  0  0  0  0  0  0  0  0  0
    7.8696  -14.6482   15.6227 N   0  0  0  0  0  0  0  0  0  0  0  0
    8.5510  -15.8162   15.5781 C   0  0  0  0  0  0  0  0  0  0  0  0
    9.0364  -16.1090   16.8026 N   0  0  0  0  0  0  0  0  0  0  0  0
    8.6693  -14.1476   21.2581 C   0  0  0  0  0  0  0  0  0  0  0  0
    9.7175  -13.6678   21.7595 O   0  0  0  0  0  0  0  0  0  0  0  0
    7.8234  -14.8437   22.1617 N   0  0  0  0  0  0  0  0  0  0  0  0
    7.9968  -14.9394   23.5746 C   0  0  1  0  0  0  0  0  0  0  0  0
    6.7769  -14.7195   24.3962 C   0  0  0  0  0  0  0  0  0  0  0  0
    6.9729  -13.7272   25.4833 C   0  0  0  0  0  0  0  0  0  0  0  0
    7.2589  -12.4137   25.1836 C   0  0  0  0  0  0  0  0  0  0  0  0
    7.4469  -11.4640   26.1962 C   0  0  0  0  0  0  0  0  0  0  0  0
    7.3430  -11.8558   27.5103 C   0  0  0  0  0  0  0  0  0  0  0  0
    7.0579  -13.1630   27.8381 C   0  0  0  0  0  0  0  0  0  0  0  0
    6.8795  -14.0689   26.8146 C   0  0  0  0  0  0  0  0  0  0  0  0
    8.5296  -16.2999   23.8666 C   0  0  0  0  0  0  0  0  0  0  0  0
    7.9716  -17.3418   23.4260 O   0  0  0  0  0  0  0  0  0  0  0  0
   12.3674  -16.9089   24.5156 O   0  0  0  0  0  0  0  0  0  0  0  0
   11.4939  -17.9805   24.3334 C   0  0  0  0  0  0  0  0  0  0  0  0
   10.2107  -17.7114   25.0793 C   0  0  2  0  0  0  0  0  0  0  0  0
    9.7004  -16.4319   24.6639 N   0  0  0  0  0  0  0  0  0  0  0  0
   10.3935  -17.7632   26.5581 C   0  0  0  0  0  0  0  0  0  0  0  0
   10.1581  -16.7639   27.2493 O   0  0  0  0  0  0  0  0  0  0  0  0
   10.8269  -18.9226   27.1801 O   0  0  0  0  0  0  0  0  0  0  0  0
  2  1  1  6
  2  9  1  0
  3  2  1  0
  4  8  1  0
  4  3  1  0
  5  4  2  0
  6  5  1  0
  6  7  1  0
  7  8  2  0
  9 10  2  0
  9 11  1  0
 11 12  1  0
 12 13  1  1
 14 13  1  0
 14 19  1  0
 15 14  2  0
 16 15  1  0
 16 17  2  0
 17 18  1  0
 18 19  2  0
 20 12  1  0
 20 21  2  0
 22 23  1  0
 24 23  1  6
 24 25  1  0
 25 20  1  0
 26 24  1  0
 27 26  2  0
 28 26  1  0
M  END
$$$$
