HFS.pdb
     RDKit          3D

 28 29  0  0  1  0  0  0  0  0999 V2000
   10.2340  -16.7029   19.3200 N   0  0  0  0  0  0  0  0  0  0  0  0
    9.0484  -17.0134   20.0924 C   0  0  1  0  0  0  0  0  0  0  0  0
    8.8833  -18.4899   20.3201 C   0  0  0  0  0  0  0  0  0  0  0  0
    8.5722  -19.2182   19.0617 C   0  0  0  0  0  0  0  0  0  0  0  0
    9.3900  -19.8335   18.1657 C   0  0  0  0  0  0  0  0  0  0  0  0
    8.6726  -20.3666   17.1685 N   0  0  0  0  0  0  0  0  0  0  0  0
    7.3827  -20.0748   17.4538 C   0  0  0  0  0  0  0  0  0  0  0  0
    7.3166  -19.3755   18.6059 N   0  0  0  0  0  0  0  0  0  0  0  0
    9.1946  -16.3678   21.4170 C   0  0  0  0  0  0  0  0  0  0  0  0
   10.3331  -16.1654   21.9105 O   0  0  0  0  0  0  0  0  0  0  0  0
    8.0993  -15.9384   22.2123 N   0  0  0  0  0  0  0  0  0  0  0  0
    8.1805  -15.1998   23.4302 C   0  0  1  0  0  0  0  0  0  0  0  0
    7.0074  -14.3442   23.7517 C   0  0  0  0  0  0  0  0  0  0  0  0
    7.1411  -13.6274   25.0452 C   0  0  0  0  0  0  0  0  0  0  0  0
    7.5575  -12.3149   25.0739 C   0  0  0  0  0  0  0  0  0  0  0  0
    7.6892  -11.6231   26.2850 C   0  0  0  0  0  0  0  0  0  0  0  0
    7.3964  -12.2708   27.4622 C   0  0  0  0  0  0  0  0  0  0  0  0
    6.9780  -13.5831   27.4622 C   0  0  0  0  0  0  0  0  0  0  0  0
    6.8602  -14.2310   26.2513 C   0  0  0  0  0  0  0  0  0  0  0  0
    8.3719  -16.1815   24.5345 C   0  0  0  0  0  0  0  0  0  0  0  0
    7.4921  -17.0379   24.8234 O   0  0  0  0  0  0  0  0  0  0  0  0
   12.0728  -17.3117   25.4482 O   0  0  0  0  0  0  0  0  0  0  0  0
   10.9442  -18.0547   25.7929 C   0  0  0  0  0  0  0  0  0  0  0  0
    9.8729  -17.1259   26.3077 C   0  0  2  0  0  0  0  0  0  0  0  0
    9.5794  -16.1560   25.2862 N   0  0  0  0  0  0  0  0  0  0  0  0
   10.2644  -16.4615   27.5837 C   0  0  0  0  0  0  0  0  0  0  0  0
   10.5426  -17.1419   28.5794 O   0  0  0  0  0  0  0  0  0  0  0  0
   10.3233  -15.0806   27.6766 O   0  0  0  0  0  0  0  0  0  0  0  0
  2  1  1  6
  2  9  1  0
  3  2  1  0
  4  8  1  0
  4  3  1  0
  5  4  2  0
  6  5  1  0
  6  7  1  0
  7  8  2  0
  9 10  2  0
  9 11  1  0
 11 12  1  0
 12 13  1  1
 14 13  1  0
 14 19  1  0
 15 14  2  0
 16 15  1  0
 16 17  2  0
 17 18  1  0
 18 19  2  0
 20 12  1  0
 20 21  2  0
 22 23  1  0
 24 23  1  6
 24 25  1  0
 25 20  1  0
 26 24  1  0
 27 26  2  0
 28 26  1  0
M  END
$$$$
