HFS.pdb
     RDKit          3D

 28 29  0  0  1  0  0  0  0  0999 V2000
    8.5885  -17.6085   20.1200 N   0  0  0  0  0  0  0  0  0  0  0  0
    9.9512  -17.2865   20.4916 C   0  0  1  0  0  0  0  0  0  0  0  0
   10.6944  -16.5831   19.3905 C   0  0  0  0  0  0  0  0  0  0  0  0
   10.1677  -16.9371   18.0459 C   0  0  0  0  0  0  0  0  0  0  0  0
    9.1076  -17.7076   17.6814 C   0  0  0  0  0  0  0  0  0  0  0  0
    9.0007  -17.7533   16.3473 N   0  0  0  0  0  0  0  0  0  0  0  0
   10.0169  -16.9945   15.8761 C   0  0  0  0  0  0  0  0  0  0  0  0
   10.7304  -16.4953   16.9070 N   0  0  0  0  0  0  0  0  0  0  0  0
    9.8944  -16.3694   21.6529 C   0  0  0  0  0  0  0  0  0  0  0  0
   10.9494  -15.9262   22.1733 O   0  0  0  0  0  0  0  0  0  0  0  0
    8.6854  -15.9297   22.2542 N   0  0  0  0  0  0  0  0  0  0  0  0
    8.5671  -15.2116   23.4813 C   0  0  1  0  0  0  0  0  0  0  0  0
    7.3218  -14.4171   23.6529 C   0  0  0  0  0  0  0  0  0  0  0  0
    7.2560  -13.7029   24.9530 C   0  0  0  0  0  0  0  0  0  0  0  0
    8.0671  -12.6156   25.1917 C   0  0  0  0  0  0  0  0  0  0  0  0
    8.0184  -11.9298   26.4123 C   0  0  0  0  0  0  0  0  0  0  0  0
    7.1439  -12.3540   27.3852 C   0  0  0  0  0  0  0  0  0  0  0  0
    6.3215  -13.4384   27.1727 C   0  0  0  0  0  0  0  0  0  0  0  0
    6.3976  -14.0879   25.9593 C   0  0  0  0  0  0  0  0  0  0  0  0
    8.6558  -16.2045   24.5887 C   0  0  0  0  0  0  0  0  0  0  0  0
    7.7622  -17.0749   24.7752 O   0  0  0  0  0  0  0  0  0  0  0  0
   12.2124  -17.4341   25.9182 O   0  0  0  0  0  0  0  0  0  0  0  0
   11.0121  -18.1089   26.1384 C   0  0  0  0  0  0  0  0  0  0  0  0
    9.9469  -17.1172   26.5353 C   0  0  2  0  0  0  0  0  0  0  0  0
    9.7784  -16.1738   25.4621 N   0  0  0  0  0  0  0  0  0  0  0  0
   10.2673  -16.4238   27.8157 C   0  0  0  0  0  0  0  0  0  0  0  0
   10.3589  -15.1900   27.8488 O   0  0  0  0  0  0  0  0  0  0  0  0
   10.4665  -17.1432   28.9826 O   0  0  0  0  0  0  0  0  0  0  0  0
  2  1  1  6
  2  9  1  0
  3  2  1  0
  4  8  1  0
  4  3  1  0
  5  4  2  0
  6  5  1  0
  6  7  1  0
  7  8  2  0
  9 10  2  0
  9 11  1  0
 11 12  1  0
 12 13  1  6
 14 13  1  0
 14 19  1  0
 15 14  2  0
 16 15  1  0
 16 17  2  0
 17 18  1  0
 18 19  2  0
 20 12  1  0
 20 21  2  0
 22 23  1  0
 24 23  1  6
 24 25  1  0
 25 20  1  0
 26 24  1  0
 27 26  2  0
 28 26  1  0
M  END
$$$$
