MCQ.pdb
     RDKit          3D

 24 23  0  0  1  0  0  0  0  0999 V2000
    5.6208  -11.1768   28.1316 C   0  0  0  0  0  0  0  0  0  0  0  0
    6.9212  -12.0400   27.2406 S   0  0  0  0  0  0  0  0  0  0  0  0
    6.2099  -13.4724   26.3622 C   0  0  0  0  0  0  0  0  0  0  0  0
    7.2531  -14.2234   25.6054 C   0  0  0  0  0  0  0  0  0  0  0  0
    6.7404  -15.4134   24.8751 C   0  0  2  0  0  0  0  0  0  0  0  0
    6.2229  -16.4142   25.8150 N   0  0  0  0  0  0  0  0  0  0  0  0
    7.7219  -16.0499   23.9540 C   0  0  0  0  0  0  0  0  0  0  0  0
    8.3892  -17.0658   24.2657 O   0  0  0  0  0  0  0  0  0  0  0  0
    7.9585  -15.5272   22.6435 N   0  0  0  0  0  0  0  0  0  0  0  0
    8.9328  -16.1107   21.7181 C   0  0  1  0  0  0  0  0  0  0  0  0
    8.8116  -15.4543   20.3664 C   0  0  0  0  0  0  0  0  0  0  0  0
    7.1469  -15.4574   19.6925 S   0  0  0  0  0  0  0  0  0  0  0  0
   10.2923  -16.0514   22.3068 C   0  0  0  0  0  0  0  0  0  0  0  0
   10.7056  -14.9355   22.7882 O   0  0  0  0  0  0  0  0  0  0  0  0
   11.5129  -19.9851   25.6995 N   0  0  0  0  0  0  0  0  0  0  0  0
   11.6682  -18.7226   26.2939 C   0  0  0  0  0  0  0  0  0  0  0  0
   11.3727  -18.5059   27.4769 O   0  0  0  0  0  0  0  0  0  0  0  0
   12.2145  -17.5926   25.4594 C   0  0  0  0  0  0  0  0  0  0  0  0
   12.6098  -18.1073   24.1068 C   0  0  0  0  0  0  0  0  0  0  0  0
   12.4843  -17.0857   23.0499 C   0  0  2  0  0  0  0  0  0  0  0  0
   11.1808  -17.1287   22.3868 N   0  0  0  0  0  0  0  0  0  0  0  0
   13.5864  -16.9893   22.0980 C   0  0  0  0  0  0  0  0  0  0  0  0
   13.4296  -17.2203   20.8912 O   0  0  0  0  0  0  0  0  0  0  0  0
   14.8565  -16.6355   22.5170 O   0  0  0  0  0  0  0  0  0  0  0  0
  2  1  1  0
  2  3  1  0
  4  3  1  0
  5  7  1  0
  5  4  1  0
  5  6  1  1
  7  8  2  0
  9  7  1  0
  9 10  1  0
 10 11  1  6
 11 12  1  0
 13 21  1  0
 13 10  1  0
 14 13  2  0
 16 15  1  0
 17 16  2  0
 18 16  1  0
 20 19  1  6
 19 18  1  0
 20 22  1  0
 20 21  1  0
 22 24  1  0
 23 22  2  0
M  END
$$$$
