MCQ.pdb
     RDKit          3D

 24 23  0  0  1  0  0  0  0  0999 V2000
    7.9269  -11.9071   20.0996 C   0  0  0  0  0  0  0  0  0  0  0  0
    8.3000  -12.5981   18.4830 S   0  0  0  0  0  0  0  0  0  0  0  0
    8.3668  -14.4179   18.5995 C   0  0  0  0  0  0  0  0  0  0  0  0
    8.2084  -14.8821   20.0082 C   0  0  0  0  0  0  0  0  0  0  0  0
    8.2316  -16.3604   20.1707 C   0  0  2  0  0  0  0  0  0  0  0  0
    7.3112  -16.9997   19.2236 N   0  0  0  0  0  0  0  0  0  0  0  0
    7.9451  -16.8402   21.5508 C   0  0  0  0  0  0  0  0  0  0  0  0
    6.7813  -17.0450   21.9730 O   0  0  0  0  0  0  0  0  0  0  0  0
    9.0000  -17.0973   22.4822 N   0  0  0  0  0  0  0  0  0  0  0  0
    8.7563  -17.4412   23.8852 C   0  0  1  0  0  0  0  0  0  0  0  0
    9.2548  -18.8364   24.1642 C   0  0  0  0  0  0  0  0  0  0  0  0
    9.3791  -19.2388   25.9100 S   0  0  0  0  0  0  0  0  0  0  0  0
    9.3285  -16.3991   24.7712 C   0  0  0  0  0  0  0  0  0  0  0  0
   10.5187  -15.9789   24.5370 O   0  0  0  0  0  0  0  0  0  0  0  0
    6.3423  -12.1000   27.9681 N   0  0  0  0  0  0  0  0  0  0  0  0
    6.1811  -12.6019   26.6669 C   0  0  0  0  0  0  0  0  0  0  0  0
    5.2305  -12.2755   25.9434 O   0  0  0  0  0  0  0  0  0  0  0  0
    7.2037  -13.5729   26.1345 C   0  0  0  0  0  0  0  0  0  0  0  0
    8.2758  -13.7924   27.1606 C   0  0  0  0  0  0  0  0  0  0  0  0
    9.2544  -14.8176   26.7512 C   0  0  2  0  0  0  0  0  0  0  0  0
    8.6695  -15.8207   25.8609 N   0  0  0  0  0  0  0  0  0  0  0  0
   10.0551  -15.4196   27.8126 C   0  0  0  0  0  0  0  0  0  0  0  0
   10.0276  -16.6366   28.0416 O   0  0  0  0  0  0  0  0  0  0  0  0
   10.8780  -14.6422   28.6078 O   0  0  0  0  0  0  0  0  0  0  0  0
  2  1  1  0
  2  3  1  0
  4  3  1  0
  5  7  1  0
  5  4  1  0
  5  6  1  6
  7  8  2  0
  9  7  1  0
  9 10  1  0
 10 11  1  1
 11 12  1  0
 13 21  1  0
 13 10  1  0
 14 13  2  0
 16 15  1  0
 17 16  2  0
 18 16  1  0
 20 19  1  1
 19 18  1  0
 20 22  1  0
 20 21  1  0
 22 24  1  0
 23 22  2  0
M  END
$$$$
