MCQ.pdb
     RDKit          3D

 24 23  0  0  1  0  0  0  0  0999 V2000
    7.3129  -11.8325   20.8903 C   0  0  0  0  0  0  0  0  0  0  0  0
    7.8383  -12.6808   19.3954 S   0  0  0  0  0  0  0  0  0  0  0  0
    7.6812  -14.4834   19.6313 C   0  0  0  0  0  0  0  0  0  0  0  0
    7.2683  -14.8190   21.0248 C   0  0  0  0  0  0  0  0  0  0  0  0
    7.0003  -16.2643   21.2514 C   0  0  2  0  0  0  0  0  0  0  0  0
    5.8513  -16.7088   20.4546 N   0  0  0  0  0  0  0  0  0  0  0  0
    6.8002  -16.6451   22.6769 C   0  0  0  0  0  0  0  0  0  0  0  0
    5.7223  -16.4505   23.2892 O   0  0  0  0  0  0  0  0  0  0  0  0
    7.8443  -17.2631   23.4347 N   0  0  0  0  0  0  0  0  0  0  0  0
    7.7518  -17.4900   24.8790 C   0  0  1  0  0  0  0  0  0  0  0  0
    7.1802  -18.8592   25.1465 C   0  0  0  0  0  0  0  0  0  0  0  0
    7.2888  -19.3806   26.8616 S   0  0  0  0  0  0  0  0  0  0  0  0
    9.0662  -17.2409   25.5183 C   0  0  0  0  0  0  0  0  0  0  0  0
   10.1141  -17.7651   24.9939 O   0  0  0  0  0  0  0  0  0  0  0  0
    8.9579  -13.2867   26.3387 N   0  0  0  0  0  0  0  0  0  0  0  0
    8.8173  -13.5189   27.7162 C   0  0  0  0  0  0  0  0  0  0  0  0
    7.7874  -13.2224   28.3368 O   0  0  0  0  0  0  0  0  0  0  0  0
    9.9630  -14.1518   28.4635 C   0  0  0  0  0  0  0  0  0  0  0  0
   10.8829  -14.8353   27.4956 C   0  0  0  0  0  0  0  0  0  0  0  0
   10.5620  -16.2641   27.3171 C   0  0  2  0  0  0  0  0  0  0  0  0
    9.2677  -16.4662   26.6653 N   0  0  0  0  0  0  0  0  0  0  0  0
   10.7348  -17.1248   28.4829 C   0  0  0  0  0  0  0  0  0  0  0  0
    9.8095  -17.8195   28.9252 O   0  0  0  0  0  0  0  0  0  0  0  0
   11.9498  -17.1921   29.1409 O   0  0  0  0  0  0  0  0  0  0  0  0
  2  1  1  0
  2  3  1  0
  4  3  1  0
  5  7  1  0
  5  4  1  0
  5  6  1  6
  7  8  2  0
  9  7  1  0
  9 10  1  0
 10 11  1  6
 11 12  1  0
 13 21  1  0
 13 10  1  0
 14 13  2  0
 16 15  1  0
 17 16  2  0
 18 16  1  0
 20 19  1  1
 19 18  1  0
 20 22  1  0
 20 21  1  0
 22 24  1  0
 23 22  2  0
M  END
$$$$
