MCQ.pdb
     RDKit          3D

 24 23  0  0  1  0  0  0  0  0999 V2000
    7.5816  -11.3603   26.6023 C   0  0  0  0  0  0  0  0  0  0  0  0
    6.4020  -12.2808   27.5980 S   0  0  0  0  0  0  0  0  0  0  0  0
    5.9139  -13.8004   26.7137 C   0  0  0  0  0  0  0  0  0  0  0  0
    7.0368  -14.3411   25.8940 C   0  0  0  0  0  0  0  0  0  0  0  0
    6.6759  -15.5242   25.0680 C   0  0  2  0  0  0  0  0  0  0  0  0
    6.2981  -16.6559   25.9221 N   0  0  0  0  0  0  0  0  0  0  0  0
    7.7242  -15.9527   24.1015 C   0  0  0  0  0  0  0  0  0  0  0  0
    8.5120  -16.9029   24.3276 O   0  0  0  0  0  0  0  0  0  0  0  0
    7.8900  -15.2918   22.8436 N   0  0  0  0  0  0  0  0  0  0  0  0
    8.9644  -15.6253   21.9052 C   0  0  1  0  0  0  0  0  0  0  0  0
    8.7147  -14.9505   20.5804 C   0  0  0  0  0  0  0  0  0  0  0  0
    7.0988  -15.2897   19.8739 S   0  0  0  0  0  0  0  0  0  0  0  0
   10.2823  -15.3158   22.5100 C   0  0  0  0  0  0  0  0  0  0  0  0
   10.4090  -14.2321   23.1864 O   0  0  0  0  0  0  0  0  0  0  0  0
   11.0227  -15.9161   26.8616 N   0  0  0  0  0  0  0  0  0  0  0  0
   11.9842  -16.9378   26.9120 C   0  0  0  0  0  0  0  0  0  0  0  0
   12.6855  -17.1395   27.9126 O   0  0  0  0  0  0  0  0  0  0  0  0
   12.1670  -17.8192   25.7031 C   0  0  0  0  0  0  0  0  0  0  0  0
   11.3668  -17.2773   24.5557 C   0  0  0  0  0  0  0  0  0  0  0  0
   12.2046  -16.6047   23.5446 C   0  0  2  0  0  0  0  0  0  0  0  0
   11.4221  -16.1200   22.4073 N   0  0  0  0  0  0  0  0  0  0  0  0
   13.4144  -17.3051   23.1255 C   0  0  0  0  0  0  0  0  0  0  0  0
   14.5009  -17.1304   23.6943 O   0  0  0  0  0  0  0  0  0  0  0  0
   13.3880  -18.1947   22.0664 O   0  0  0  0  0  0  0  0  0  0  0  0
  2  1  1  0
  2  3  1  0
  4  3  1  0
  5  7  1  0
  5  4  1  0
  5  6  1  1
  7  8  2  0
  9  7  1  0
  9 10  1  0
 10 11  1  6
 11 12  1  0
 13 21  1  0
 13 10  1  0
 14 13  2  0
 16 15  1  0
 17 16  2  0
 18 16  1  0
 20 19  1  6
 19 18  1  0
 20 22  1  0
 20 21  1  0
 22 24  1  0
 23 22  2  0
M  END
$$$$
