MCQ.pdb
     RDKit          3D

 24 23  0  0  1  0  0  0  0  0999 V2000
    8.2513  -19.1544   21.6972 C   0  0  0  0  0  0  0  0  0  0  0  0
    7.1490  -18.7159   20.3471 S   0  0  0  0  0  0  0  0  0  0  0  0
    7.0165  -16.8995   20.2350 C   0  0  0  0  0  0  0  0  0  0  0  0
    7.5467  -16.2354   21.4609 C   0  0  0  0  0  0  0  0  0  0  0  0
    7.4972  -14.7494   21.4210 C   0  0  2  0  0  0  0  0  0  0  0  0
    8.2089  -14.2394   20.2436 N   0  0  0  0  0  0  0  0  0  0  0  0
    8.0073  -14.0757   22.6469 C   0  0  0  0  0  0  0  0  0  0  0  0
    9.2278  -14.0110   22.9310 O   0  0  0  0  0  0  0  0  0  0  0  0
    7.1168  -13.4566   23.5797 N   0  0  0  0  0  0  0  0  0  0  0  0
    7.5209  -13.0824   24.9372 C   0  0  1  0  0  0  0  0  0  0  0  0
    6.4459  -12.2417   25.5779 C   0  0  0  0  0  0  0  0  0  0  0  0
    6.6479  -12.0109   27.3474 S   0  0  0  0  0  0  0  0  0  0  0  0
    7.8917  -14.2927   25.7093 C   0  0  0  0  0  0  0  0  0  0  0  0
    7.1207  -15.3175   25.6536 O   0  0  0  0  0  0  0  0  0  0  0  0
   11.8279  -18.6106   25.9471 N   0  0  0  0  0  0  0  0  0  0  0  0
   12.2097  -17.3412   25.4845 C   0  0  0  0  0  0  0  0  0  0  0  0
   13.2454  -17.1577   24.8308 O   0  0  0  0  0  0  0  0  0  0  0  0
   11.3249  -16.1615   25.7964 C   0  0  0  0  0  0  0  0  0  0  0  0
   10.0389  -16.6396   26.4030 C   0  0  0  0  0  0  0  0  0  0  0  0
    9.3984  -15.6208   27.2563 C   0  0  2  0  0  0  0  0  0  0  0  0
    9.0334  -14.4178   26.5076 N   0  0  0  0  0  0  0  0  0  0  0  0
   10.0661  -15.3073   28.5156 C   0  0  0  0  0  0  0  0  0  0  0  0
   10.4478  -16.1944   29.2914 O   0  0  0  0  0  0  0  0  0  0  0  0
   10.2950  -13.9952   28.8895 O   0  0  0  0  0  0  0  0  0  0  0  0
  2  1  1  0
  2  3  1  0
  4  3  1  0
  5  7  1  0
  5  4  1  0
  5  6  1  6
  7  8  2  0
  9  7  1  0
  9 10  1  0
 10 11  1  1
 11 12  1  0
 13 21  1  0
 13 10  1  0
 14 13  2  0
 16 15  1  0
 17 16  2  0
 18 16  1  0
 20 19  1  6
 19 18  1  0
 20 22  1  0
 20 21  1  0
 22 24  1  0
 23 22  2  0
M  END
$$$$
