KTD.pdb
     RDKit          3D

 25 24  0  0  1  0  0  0  0  0999 V2000
   19.7264  -17.2516  -16.3973 N   0  0  0  0  0  0  0  0  0  0  0  0
   19.2893  -15.9245  -16.6324 C   0  0  1  0  0  0  0  0  0  0  0  0
   17.9334  -15.5974  -16.0515 C   0  0  0  0  0  0  0  0  0  0  0  0
   16.9457  -16.6874  -16.0312 C   0  0  0  0  0  0  0  0  0  0  0  0
   15.5564  -16.3919  -15.6168 C   0  0  0  0  0  0  0  0  0  0  0  0
   14.4929  -16.8461  -16.5879 C   0  0  0  0  0  0  0  0  0  0  0  0
   13.1486  -16.5805  -16.1720 N   0  0  0  0  0  0  0  0  0  0  0  0
   20.2765  -14.8582  -16.3465 C   0  0  0  0  0  0  0  0  0  0  0  0
   20.9595  -14.9484  -15.2857 O   0  0  0  0  0  0  0  0  0  0  0  0
   23.0839  -13.9473  -18.5996 C   0  0  0  0  0  0  0  0  0  0  0  0
   22.3408  -12.7093  -18.2208 C   0  0  1  0  0  0  0  0  0  0  0  0
   21.4738  -12.4130  -19.2930 O   0  0  0  0  0  0  0  0  0  0  0  0
   21.5522  -12.7845  -16.9607 C   0  0  2  0  0  0  0  0  0  0  0  0
   20.4849  -13.7686  -17.1832 N   0  0  0  0  0  0  0  0  0  0  0  0
   20.9688  -11.4647  -16.6403 C   0  0  0  0  0  0  0  0  0  0  0  0
   19.7851  -11.1504  -17.0005 O   0  0  0  0  0  0  0  0  0  0  0  0
   21.6697  -10.4762  -15.9212 N   0  0  0  0  0  0  0  0  0  0  0  0
   21.0893   -9.1709  -15.6298 C   0  0  1  0  0  0  0  0  0  0  0  0
   21.4025   -8.8015  -14.1635 C   0  0  0  0  0  0  0  0  0  0  0  0
   20.9153   -7.4513  -13.8531 C   0  0  0  0  0  0  0  0  0  0  0  0
   19.7408   -7.1372  -14.1660 O   0  0  0  0  0  0  0  0  0  0  0  0
   21.5956   -8.1111  -16.4881 C   0  0  0  0  0  0  0  0  0  0  0  0
   22.7215   -8.2239  -17.0325 O   0  0  0  0  0  0  0  0  0  0  0  0
   21.7289   -6.5352  -13.2286 O   0  0  0  0  0  0  0  0  0  0  0  0
   20.8641   -6.9629  -16.7289 O   0  0  0  0  0  0  0  0  0  0  0  0
  2  1  1  1
  3  4  1  0
  3  2  1  0
  5  6  1  0
  5  4  1  0
  6  7  1  0
  8  2  1  0
  8  9  2  0
 11 10  1  6
 11 13  1  0
 12 11  1  0
 13 14  1  6
 14  8  1  0
 15 13  1  0
 16 15  2  0
 17 15  1  0
 18 22  1  0
 18 17  1  0
 18 19  1  1
 20 19  1  0
 21 20  2  0
 22 25  1  0
 23 22  2  0
 24 20  1  0
M  END
$$$$
