KTD.pdb
     RDKit          3D

 25 24  0  0  1  0  0  0  0  0999 V2000
   25.7693  -15.2771  -19.7672 N   0  0  0  0  0  0  0  0  0  0  0  0
   25.4845  -16.1894  -18.7213 C   0  0  1  0  0  0  0  0  0  0  0  0
   26.7043  -16.7682  -18.0429 C   0  0  0  0  0  0  0  0  0  0  0  0
   27.7299  -17.3532  -18.9203 C   0  0  0  0  0  0  0  0  0  0  0  0
   28.8910  -18.0395  -18.3118 C   0  0  0  0  0  0  0  0  0  0  0  0
   29.8671  -18.6342  -19.2987 C   0  0  0  0  0  0  0  0  0  0  0  0
   29.7938  -20.0583  -19.4301 N   0  0  0  0  0  0  0  0  0  0  0  0
   24.4708  -15.7478  -17.7360 C   0  0  0  0  0  0  0  0  0  0  0  0
   24.4880  -14.5385  -17.3659 O   0  0  0  0  0  0  0  0  0  0  0  0
   22.3184  -13.9640  -17.6727 C   0  0  0  0  0  0  0  0  0  0  0  0
   21.6019  -15.1787  -17.1833 C   0  0  1  0  0  0  0  0  0  0  0  0
   21.1274  -15.8568  -18.3252 O   0  0  0  0  0  0  0  0  0  0  0  0
   22.4064  -16.1183  -16.3555 C   0  0  2  0  0  0  0  0  0  0  0  0
   23.5086  -16.5955  -17.2009 N   0  0  0  0  0  0  0  0  0  0  0  0
   21.5733  -17.2571  -15.9149 C   0  0  0  0  0  0  0  0  0  0  0  0
   21.4196  -18.2951  -16.6417 O   0  0  0  0  0  0  0  0  0  0  0  0
   20.9025  -17.2756  -14.6759 N   0  0  0  0  0  0  0  0  0  0  0  0
   20.1076  -18.4180  -14.2413 C   0  0  1  0  0  0  0  0  0  0  0  0
   20.0880  -18.4541  -12.6976 C   0  0  0  0  0  0  0  0  0  0  0  0
   19.3722  -19.6422  -12.2153 C   0  0  0  0  0  0  0  0  0  0  0  0
   19.2391  -19.8171  -10.9794 O   0  0  0  0  0  0  0  0  0  0  0  0
   18.7333  -18.3774  -14.7167 C   0  0  0  0  0  0  0  0  0  0  0  0
   18.1342  -17.2789  -14.8216 O   0  0  0  0  0  0  0  0  0  0  0  0
   18.8519  -20.5582  -13.0994 O   0  0  0  0  0  0  0  0  0  0  0  0
   18.0530  -19.5298  -15.0637 O   0  0  0  0  0  0  0  0  0  0  0  0
  2  1  1  1
  3  4  1  0
  3  2  1  0
  5  6  1  0
  5  4  1  0
  6  7  1  0
  8  2  1  0
  8  9  2  0
 11 10  1  6
 11 13  1  0
 12 11  1  0
 13 14  1  6
 14  8  1  0
 15 13  1  0
 16 15  2  0
 17 15  1  0
 18 22  1  0
 18 17  1  0
 18 19  1  1
 20 19  1  0
 21 20  2  0
 22 25  1  0
 23 22  2  0
 24 20  1  0
M  END
$$$$
