KTD.pdb
     RDKit          3D

 25 24  0  0  1  0  0  0  0  0999 V2000
   18.2942  -13.4853  -18.7529 N   0  0  0  0  0  0  0  0  0  0  0  0
   18.5505  -12.7748  -17.5541 C   0  0  1  0  0  0  0  0  0  0  0  0
   18.8916  -13.6464  -16.3680 C   0  0  0  0  0  0  0  0  0  0  0  0
   17.9471  -14.7294  -16.0537 C   0  0  0  0  0  0  0  0  0  0  0  0
   18.2274  -15.6178  -14.9041 C   0  0  0  0  0  0  0  0  0  0  0  0
   17.2461  -16.7510  -14.7219 C   0  0  0  0  0  0  0  0  0  0  0  0
   17.6130  -17.7063  -13.7202 N   0  0  0  0  0  0  0  0  0  0  0  0
   19.4759  -11.6243  -17.6693 C   0  0  0  0  0  0  0  0  0  0  0  0
   20.6539  -11.8463  -18.0730 O   0  0  0  0  0  0  0  0  0  0  0  0
   19.5166   -8.9691  -19.9800 C   0  0  0  0  0  0  0  0  0  0  0  0
   19.4841   -8.3467  -18.6236 C   0  0  1  0  0  0  0  0  0  0  0  0
   18.1359   -8.0325  -18.3541 O   0  0  0  0  0  0  0  0  0  0  0  0
   20.0237   -9.1788  -17.5137 C   0  0  2  0  0  0  0  0  0  0  0  0
   19.1134  -10.3204  -17.3547 N   0  0  0  0  0  0  0  0  0  0  0  0
   20.0783   -8.3934  -16.2626 C   0  0  0  0  0  0  0  0  0  0  0  0
   19.2392   -8.5784  -15.3186 O   0  0  0  0  0  0  0  0  0  0  0  0
   21.0506   -7.4010  -16.0281 N   0  0  0  0  0  0  0  0  0  0  0  0
   21.0648   -6.6017  -14.8088 C   0  0  1  0  0  0  0  0  0  0  0  0
   22.4080   -5.8447  -14.7238 C   0  0  0  0  0  0  0  0  0  0  0  0
   22.4480   -4.9911  -13.5295 C   0  0  0  0  0  0  0  0  0  0  0  0
   22.1743   -5.4903  -12.4107 O   0  0  0  0  0  0  0  0  0  0  0  0
   19.9851   -5.6289  -14.7455 C   0  0  0  0  0  0  0  0  0  0  0  0
   19.5912   -5.0547  -15.7905 O   0  0  0  0  0  0  0  0  0  0  0  0
   22.7789   -3.6597  -13.6260 O   0  0  0  0  0  0  0  0  0  0  0  0
   19.3667   -5.3103  -13.5508 O   0  0  0  0  0  0  0  0  0  0  0  0
  2  1  1  6
  3  4  1  0
  3  2  1  0
  5  6  1  0
  5  4  1  0
  6  7  1  0
  8  2  1  0
  8  9  2  0
 11 10  1  6
 11 13  1  0
 12 11  1  0
 13 14  1  1
 14  8  1  0
 15 13  1  0
 16 15  2  0
 17 15  1  0
 18 22  1  0
 18 17  1  0
 18 19  1  6
 20 19  1  0
 21 20  2  0
 22 25  1  0
 23 22  2  0
 24 20  1  0
M  END
$$$$
