KTD.pdb
     RDKit          3D

 25 24  0  0  1  0  0  0  0  0999 V2000
   15.9128  -12.5454  -14.8790 N   0  0  0  0  0  0  0  0  0  0  0  0
   17.2011  -11.9710  -15.0132 C   0  0  1  0  0  0  0  0  0  0  0  0
   18.1178  -12.7004  -15.9674 C   0  0  0  0  0  0  0  0  0  0  0  0
   18.1793  -14.1639  -15.8318 C   0  0  0  0  0  0  0  0  0  0  0  0
   17.6510  -15.0105  -16.9243 C   0  0  0  0  0  0  0  0  0  0  0  0
   17.8404  -16.4955  -16.7263 C   0  0  0  0  0  0  0  0  0  0  0  0
   17.3740  -17.3088  -17.8088 N   0  0  0  0  0  0  0  0  0  0  0  0
   17.2367  -10.5071  -15.2347 C   0  0  0  0  0  0  0  0  0  0  0  0
   16.3101   -9.9863  -15.9203 O   0  0  0  0  0  0  0  0  0  0  0  0
   15.7537   -8.3168  -14.1834 C   0  0  0  0  0  0  0  0  0  0  0  0
   17.1112   -7.7516  -13.9265 C   0  0  1  0  0  0  0  0  0  0  0  0
   17.4450   -8.0869  -12.5980 O   0  0  0  0  0  0  0  0  0  0  0  0
   18.1927   -8.2199  -14.8357 C   0  0  2  0  0  0  0  0  0  0  0  0
   18.2356   -9.6842  -14.7292 N   0  0  0  0  0  0  0  0  0  0  0  0
   19.4913   -7.6419  -14.4295 C   0  0  0  0  0  0  0  0  0  0  0  0
   20.2707   -8.2486  -13.6209 O   0  0  0  0  0  0  0  0  0  0  0  0
   19.9532   -6.3982  -14.9039 N   0  0  0  0  0  0  0  0  0  0  0  0
   21.2676   -5.8739  -14.5532 C   0  0  1  0  0  0  0  0  0  0  0  0
   22.1871   -5.9633  -15.7905 C   0  0  0  0  0  0  0  0  0  0  0  0
   23.4967   -5.3616  -15.5084 C   0  0  0  0  0  0  0  0  0  0  0  0
   23.6474   -4.1245  -15.6591 O   0  0  0  0  0  0  0  0  0  0  0  0
   21.2347   -4.4902  -14.1051 C   0  0  0  0  0  0  0  0  0  0  0  0
   22.2437   -3.9796  -13.5593 O   0  0  0  0  0  0  0  0  0  0  0  0
   24.5514   -6.1363  -15.0853 O   0  0  0  0  0  0  0  0  0  0  0  0
   20.1083   -3.7045  -14.2640 O   0  0  0  0  0  0  0  0  0  0  0  0
  2  1  1  6
  3  4  1  0
  3  2  1  0
  5  6  1  0
  5  4  1  0
  6  7  1  0
  8  2  1  0
  8  9  2  0
 11 10  1  6
 11 13  1  0
 12 11  1  0
 13 14  1  1
 14  8  1  0
 15 13  1  0
 16 15  2  0
 17 15  1  0
 18 22  1  0
 18 17  1  0
 18 19  1  6
 20 19  1  0
 21 20  2  0
 22 25  1  0
 23 22  2  0
 24 20  1  0
M  END
$$$$
