ELI.pdb
     RDKit          3D

 26 25  0  0  1  0  0  0  0  0999 V2000
    9.1925  -17.2340   19.9686 N   0  0  0  0  0  0  0  0  0  0  0  0
    8.5768  -17.3828   21.2480 C   0  0  1  0  0  0  0  0  0  0  0  0
    8.7306  -18.7764   21.7532 C   0  0  0  0  0  0  0  0  0  0  0  0
   10.1143  -19.3244   21.7492 C   0  0  0  0  0  0  0  0  0  0  0  0
   10.2389  -20.7307   22.1452 C   0  0  0  0  0  0  0  0  0  0  0  0
   11.3669  -21.2783   22.1237 O   0  0  0  0  0  0  0  0  0  0  0  0
    9.0249  -16.3576   22.2259 C   0  0  0  0  0  0  0  0  0  0  0  0
   10.2393  -16.1070   22.3368 O   0  0  0  0  0  0  0  0  0  0  0  0
    9.1589  -21.5090   22.5516 O   0  0  0  0  0  0  0  0  0  0  0  0
    7.8138  -11.9605   24.9607 C   0  0  0  0  0  0  0  0  0  0  0  0
    7.3443  -13.1884   25.7593 C   0  0  1  0  0  0  0  0  0  0  0  0
    5.9462  -12.7300   26.2858 C   0  0  0  0  0  0  0  0  0  0  0  0
    7.0459  -14.2473   24.7643 C   0  0  0  0  0  0  0  0  0  0  0  0
    8.3056  -14.7603   24.0756 C   0  0  2  0  0  0  0  0  0  0  0  0
    8.0906  -15.6807   23.0141 N   0  0  0  0  0  0  0  0  0  0  0  0
    9.4148  -15.0170   24.9691 C   0  0  0  0  0  0  0  0  0  0  0  0
   10.5094  -14.4052   24.7929 O   0  0  0  0  0  0  0  0  0  0  0  0
    9.8226  -13.6809   29.9856 C   0  0  0  0  0  0  0  0  0  0  0  0
    9.5198  -14.7602   28.9641 C   0  0  0  0  0  0  0  0  0  0  0  0
   10.6837  -14.9488   27.9963 C   0  0  2  0  0  0  0  0  0  0  0  0
   11.1536  -13.6487   27.4206 C   0  0  0  0  0  0  0  0  0  0  0  0
   10.4614  -16.0341   27.0250 C   0  0  2  0  0  0  0  0  0  0  0  0
    9.4329  -15.9013   26.0609 N   0  0  0  0  0  0  0  0  0  0  0  0
   10.1928  -17.2920   27.7935 C   0  0  0  0  0  0  0  0  0  0  0  0
   11.0332  -17.7717   28.6087 O   0  0  0  0  0  0  0  0  0  0  0  0
    9.0060  -18.0061   27.6570 O   0  0  0  0  0  0  0  0  0  0  0  0
  2  3  1  0
  2  1  1  6
  4  3  1  0
  5  4  1  0
  6  5  2  0
  7  8  2  0
  7  2  1  0
  9  5  1  0
 11 10  1  6
 11 12  1  0
 14 13  1  1
 13 11  1  0
 14 15  1  0
 15  7  1  0
 16 14  1  0
 17 16  2  0
 18 19  1  0
 19 20  1  0
 20 21  1  6
 22 20  1  0
 22 23  1  6
 23 16  1  0
 24 26  1  0
 24 22  1  0
 25 24  2  0
M  END
$$$$
