ELI.pdb
     RDKit          3D

 26 25  0  0  1  0  0  0  0  0999 V2000
    8.0621  -17.8666   21.0260 N   0  0  0  0  0  0  0  0  0  0  0  0
    9.3389  -17.2290   20.9870 C   0  0  1  0  0  0  0  0  0  0  0  0
    9.5290  -16.4979   19.7024 C   0  0  0  0  0  0  0  0  0  0  0  0
   10.1019  -17.2881   18.5789 C   0  0  0  0  0  0  0  0  0  0  0  0
    9.6104  -16.9365   17.2429 C   0  0  0  0  0  0  0  0  0  0  0  0
    9.4242  -17.8436   16.3973 O   0  0  0  0  0  0  0  0  0  0  0  0
    9.5970  -16.3826   22.1809 C   0  0  0  0  0  0  0  0  0  0  0  0
   10.6755  -15.7675   22.2735 O   0  0  0  0  0  0  0  0  0  0  0  0
    9.3327  -15.6303   16.8499 O   0  0  0  0  0  0  0  0  0  0  0  0
    5.5091  -13.5064   24.7947 C   0  0  0  0  0  0  0  0  0  0  0  0
    6.8152  -13.9561   24.1179 C   0  0  1  0  0  0  0  0  0  0  0  0
    7.7653  -12.7449   24.3872 C   0  0  0  0  0  0  0  0  0  0  0  0
    7.3607  -15.0575   24.9485 C   0  0  0  0  0  0  0  0  0  0  0  0
    8.6966  -15.5682   24.4205 C   0  0  2  0  0  0  0  0  0  0  0  0
    8.6370  -16.2782   23.1907 N   0  0  0  0  0  0  0  0  0  0  0  0
    9.5913  -16.0716   25.4407 C   0  0  0  0  0  0  0  0  0  0  0  0
   10.0596  -17.2432   25.3338 O   0  0  0  0  0  0  0  0  0  0  0  0
   10.5576  -13.7220   30.7266 C   0  0  0  0  0  0  0  0  0  0  0  0
   10.2129  -14.8465   29.7691 C   0  0  0  0  0  0  0  0  0  0  0  0
   11.2937  -15.0200   28.7067 C   0  0  2  0  0  0  0  0  0  0  0  0
   11.9032  -13.7125   28.3049 C   0  0  0  0  0  0  0  0  0  0  0  0
   10.8833  -15.9004   27.5990 C   0  0  2  0  0  0  0  0  0  0  0  0
   10.0283  -15.3929   26.5907 N   0  0  0  0  0  0  0  0  0  0  0  0
   10.2114  -17.1019   28.1904 C   0  0  0  0  0  0  0  0  0  0  0  0
   10.8440  -17.9496   28.8849 O   0  0  0  0  0  0  0  0  0  0  0  0
    8.8548  -17.3570   28.0118 O   0  0  0  0  0  0  0  0  0  0  0  0
  2  3  1  0
  2  1  1  1
  4  3  1  0
  5  4  1  0
  6  5  2  0
  7  8  2  0
  7  2  1  0
  9  5  1  0
 11 10  1  1
 11 12  1  0
 14 13  1  1
 13 11  1  0
 14 15  1  0
 15  7  1  0
 16 14  1  0
 17 16  2  0
 18 19  1  0
 19 20  1  0
 20 21  1  6
 22 20  1  0
 22 23  1  6
 23 16  1  0
 24 26  1  0
 24 22  1  0
 25 24  2  0
M  END
$$$$
