ELI.pdb
     RDKit          3D

 26 25  0  0  1  0  0  0  0  0999 V2000
   11.3300  -17.1057   18.6432 N   0  0  0  0  0  0  0  0  0  0  0  0
   11.1828  -17.7369   19.9152 C   0  0  1  0  0  0  0  0  0  0  0  0
   12.3066  -18.6809   20.1735 C   0  0  0  0  0  0  0  0  0  0  0  0
   12.6993  -19.5569   19.0363 C   0  0  0  0  0  0  0  0  0  0  0  0
   13.7242  -20.5618   19.3362 C   0  0  0  0  0  0  0  0  0  0  0  0
   13.3823  -21.7550   19.5148 O   0  0  0  0  0  0  0  0  0  0  0  0
   10.9748  -16.7651   21.0201 C   0  0  0  0  0  0  0  0  0  0  0  0
   11.9350  -16.0839   21.4249 O   0  0  0  0  0  0  0  0  0  0  0  0
   15.0803  -20.2642   19.4364 O   0  0  0  0  0  0  0  0  0  0  0  0
    6.3556  -13.9034   21.0506 C   0  0  0  0  0  0  0  0  0  0  0  0
    7.7836  -14.4716   21.1146 C   0  0  1  0  0  0  0  0  0  0  0  0
    8.6552  -13.1770   21.1925 C   0  0  0  0  0  0  0  0  0  0  0  0
    7.9242  -15.1039   22.4491 C   0  0  0  0  0  0  0  0  0  0  0  0
    9.2945  -15.7444   22.6401 C   0  0  2  0  0  0  0  0  0  0  0  0
    9.7118  -16.6177   21.5994 N   0  0  0  0  0  0  0  0  0  0  0  0
    9.5872  -16.1385   24.0017 C   0  0  0  0  0  0  0  0  0  0  0  0
    9.6877  -17.3686   24.2847 O   0  0  0  0  0  0  0  0  0  0  0  0
    9.5095  -13.3022   29.2449 C   0  0  0  0  0  0  0  0  0  0  0  0
    9.3717  -13.7554   27.8042 C   0  0  0  0  0  0  0  0  0  0  0  0
   10.5459  -14.6345   27.3856 C   0  0  2  0  0  0  0  0  0  0  0  0
   11.7601  -13.8271   27.0444 C   0  0  0  0  0  0  0  0  0  0  0  0
   10.1747  -15.6732   26.4090 C   0  0  2  0  0  0  0  0  0  0  0  0
    9.7842  -15.2888   25.1032 N   0  0  0  0  0  0  0  0  0  0  0  0
    9.0511  -16.4740   26.9930 C   0  0  0  0  0  0  0  0  0  0  0  0
    7.8878  -16.4585   26.4957 O   0  0  0  0  0  0  0  0  0  0  0  0
    9.2192  -17.2807   28.1148 O   0  0  0  0  0  0  0  0  0  0  0  0
  2  3  1  0
  2  1  1  6
  4  3  1  0
  5  4  1  0
  6  5  2  0
  7  8  2  0
  7  2  1  0
  9  5  1  0
 11 10  1  1
 11 12  1  0
 14 13  1  1
 13 11  1  0
 14 15  1  0
 15  7  1  0
 16 14  1  0
 17 16  2  0
 18 19  1  0
 19 20  1  0
 20 21  1  6
 22 20  1  0
 22 23  1  6
 23 16  1  0
 24 26  1  0
 24 22  1  0
 25 24  2  0
M  END
$$$$
