ELI.pdb
     RDKit          3D

 26 25  0  0  1  0  0  0  0  0999 V2000
    7.2550  -17.0370   22.0990 N   0  0  0  0  0  0  0  0  0  0  0  0
    8.6451  -16.7149   22.1424 C   0  0  1  0  0  0  0  0  0  0  0  0
    9.0690  -16.0198   20.8942 C   0  0  0  0  0  0  0  0  0  0  0  0
    8.3955  -16.4572   19.6412 C   0  0  0  0  0  0  0  0  0  0  0  0
    8.8767  -15.8230   18.4097 C   0  0  0  0  0  0  0  0  0  0  0  0
    9.9495  -16.2170   17.8934 O   0  0  0  0  0  0  0  0  0  0  0  0
    9.0280  -15.9794   23.3756 C   0  0  0  0  0  0  0  0  0  0  0  0
   10.2255  -15.7051   23.5778 O   0  0  0  0  0  0  0  0  0  0  0  0
    8.2004  -14.7899   17.7673 O   0  0  0  0  0  0  0  0  0  0  0  0
    5.4361  -12.3943   25.7405 C   0  0  0  0  0  0  0  0  0  0  0  0
    6.7045  -13.0582   25.1779 C   0  0  1  0  0  0  0  0  0  0  0  0
    7.8038  -11.9902   25.4822 C   0  0  0  0  0  0  0  0  0  0  0  0
    7.0191  -14.1934   26.0796 C   0  0  0  0  0  0  0  0  0  0  0  0
    8.2078  -15.0090   25.5837 C   0  0  2  0  0  0  0  0  0  0  0  0
    8.0518  -15.5989   24.3001 N   0  0  0  0  0  0  0  0  0  0  0  0
    8.8631  -15.7960   26.6064 C   0  0  0  0  0  0  0  0  0  0  0  0
    8.9703  -15.3275   27.7779 O   0  0  0  0  0  0  0  0  0  0  0  0
    7.1770  -19.8392   29.1433 C   0  0  0  0  0  0  0  0  0  0  0  0
    8.0697  -20.2980   28.0064 C   0  0  0  0  0  0  0  0  0  0  0  0
    8.2262  -19.2081   26.9508 C   0  0  2  0  0  0  0  0  0  0  0  0
    8.3462  -19.7747   25.5699 C   0  0  0  0  0  0  0  0  0  0  0  0
    9.2270  -18.1890   27.3121 C   0  0  2  0  0  0  0  0  0  0  0  0
    9.4224  -17.0764   26.4582 N   0  0  0  0  0  0  0  0  0  0  0  0
   10.5505  -18.8754   27.4603 C   0  0  0  0  0  0  0  0  0  0  0  0
   10.7296  -19.8137   28.2900 O   0  0  0  0  0  0  0  0  0  0  0  0
   11.6592  -18.5231   26.6962 O   0  0  0  0  0  0  0  0  0  0  0  0
  2  3  1  0
  2  1  1  6
  4  3  1  0
  5  4  1  0
  6  5  2  0
  7  8  2  0
  7  2  1  0
  9  5  1  0
 11 10  1  1
 11 12  1  0
 14 13  1  1
 13 11  1  0
 14 15  1  0
 15  7  1  0
 16 14  1  0
 17 16  2  0
 18 19  1  0
 19 20  1  0
 20 21  1  6
 22 20  1  0
 22 23  1  6
 23 16  1  0
 24 26  1  0
 24 22  1  0
 25 24  2  0
M  END
$$$$
