ELI.pdb
     RDKit          3D

 26 25  0  0  1  0  0  0  0  0999 V2000
    8.7527  -17.5873   20.3754 N   0  0  0  0  0  0  0  0  0  0  0  0
   10.0375  -17.4053   20.9707 C   0  0  1  0  0  0  0  0  0  0  0  0
   11.0309  -16.9432   19.9606 C   0  0  0  0  0  0  0  0  0  0  0  0
   11.0027  -17.6435   18.6477 C   0  0  0  0  0  0  0  0  0  0  0  0
   11.9836  -17.1791   17.6617 C   0  0  0  0  0  0  0  0  0  0  0  0
   12.8809  -16.3782   18.0166 O   0  0  0  0  0  0  0  0  0  0  0  0
    9.9952  -16.5434   22.1805 C   0  0  0  0  0  0  0  0  0  0  0  0
   11.0614  -16.1801   22.7108 O   0  0  0  0  0  0  0  0  0  0  0  0
   11.9780  -17.5824   16.3295 O   0  0  0  0  0  0  0  0  0  0  0  0
    7.3733  -12.5815   24.7712 C   0  0  0  0  0  0  0  0  0  0  0  0
    6.9764  -13.9890   25.2481 C   0  0  1  0  0  0  0  0  0  0  0  0
    5.4379  -13.8422   25.4791 C   0  0  0  0  0  0  0  0  0  0  0  0
    7.0991  -14.8815   24.0696 C   0  0  0  0  0  0  0  0  0  0  0  0
    8.4962  -15.4788   23.9439 C   0  0  2  0  0  0  0  0  0  0  0  0
    8.7688  -16.1443   22.7180 N   0  0  0  0  0  0  0  0  0  0  0  0
    9.0019  -16.0812   25.1588 C   0  0  0  0  0  0  0  0  0  0  0  0
    8.9556  -17.3393   25.2947 O   0  0  0  0  0  0  0  0  0  0  0  0
   10.0288  -13.6998   30.3817 C   0  0  0  0  0  0  0  0  0  0  0  0
    9.5717  -14.7418   29.3790 C   0  0  0  0  0  0  0  0  0  0  0  0
   10.7134  -15.1639   28.4597 C   0  0  2  0  0  0  0  0  0  0  0  0
   11.6002  -14.0126   28.0982 C   0  0  0  0  0  0  0  0  0  0  0  0
   10.2722  -16.0077   27.3354 C   0  0  2  0  0  0  0  0  0  0  0  0
    9.5657  -15.4158   26.2604 N   0  0  0  0  0  0  0  0  0  0  0  0
    9.4084  -17.0990   27.8900 C   0  0  0  0  0  0  0  0  0  0  0  0
    8.1671  -17.1575   27.6520 O   0  0  0  0  0  0  0  0  0  0  0  0
    9.9182  -18.1111   28.6980 O   0  0  0  0  0  0  0  0  0  0  0  0
  2  3  1  0
  2  1  1  6
  4  3  1  0
  5  4  1  0
  6  5  2  0
  7  8  2  0
  7  2  1  0
  9  5  1  0
 11 10  1  6
 11 12  1  0
 14 13  1  1
 13 11  1  0
 14 15  1  0
 15  7  1  0
 16 14  1  0
 17 16  2  0
 18 19  1  0
 19 20  1  0
 20 21  1  6
 22 20  1  0
 22 23  1  6
 23 16  1  0
 24 26  1  0
 24 22  1  0
 25 24  2  0
M  END
$$$$
