ELI.pdb
     RDKit          3D

 26 25  0  0  1  0  0  0  0  0999 V2000
    9.5676  -15.4178   19.9254 N   0  0  0  0  0  0  0  0  0  0  0  0
    8.8662  -16.1245   20.9486 C   0  0  1  0  0  0  0  0  0  0  0  0
    8.9910  -17.5973   20.7587 C   0  0  0  0  0  0  0  0  0  0  0  0
   10.3031  -18.1952   21.1272 C   0  0  0  0  0  0  0  0  0  0  0  0
   10.4010  -19.6502   20.9729 C   0  0  0  0  0  0  0  0  0  0  0  0
   10.5188  -20.3705   21.9926 O   0  0  0  0  0  0  0  0  0  0  0  0
    9.2419  -15.6811   22.3163 C   0  0  0  0  0  0  0  0  0  0  0  0
   10.4170  -15.3417   22.5485 O   0  0  0  0  0  0  0  0  0  0  0  0
   10.3702  -20.2917   19.7380 O   0  0  0  0  0  0  0  0  0  0  0  0
    5.4658  -13.0741   25.8011 C   0  0  0  0  0  0  0  0  0  0  0  0
    6.6205  -13.4800   24.8694 C   0  0  1  0  0  0  0  0  0  0  0  0
    7.7383  -12.4597   25.2585 C   0  0  0  0  0  0  0  0  0  0  0  0
    7.1153  -14.7895   25.3602 C   0  0  0  0  0  0  0  0  0  0  0  0
    8.4136  -15.2057   24.6780 C   0  0  2  0  0  0  0  0  0  0  0  0
    8.2839  -15.6457   23.3328 N   0  0  0  0  0  0  0  0  0  0  0  0
    9.3349  -15.9254   25.5313 C   0  0  0  0  0  0  0  0  0  0  0  0
    9.9048  -16.9672   25.0916 O   0  0  0  0  0  0  0  0  0  0  0  0
   10.4979  -13.4100   29.8330 C   0  0  0  0  0  0  0  0  0  0  0  0
   11.3368  -14.2141   28.8585 C   0  0  0  0  0  0  0  0  0  0  0  0
   11.0243  -15.7039   28.9570 C   0  0  2  0  0  0  0  0  0  0  0  0
   12.0814  -16.4524   29.7085 C   0  0  0  0  0  0  0  0  0  0  0  0
   10.6125  -16.2972   27.6728 C   0  0  2  0  0  0  0  0  0  0  0  0
    9.6956  -15.5995   26.8496 N   0  0  0  0  0  0  0  0  0  0  0  0
   10.0217  -17.6445   27.9564 C   0  0  0  0  0  0  0  0  0  0  0  0
    8.7854  -17.8764   27.8198 O   0  0  0  0  0  0  0  0  0  0  0  0
   10.7954  -18.7189   28.3859 O   0  0  0  0  0  0  0  0  0  0  0  0
  2  3  1  0
  2  1  1  6
  4  3  1  0
  5  4  1  0
  6  5  2  0
  7  8  2  0
  7  2  1  0
  9  5  1  0
 11 10  1  1
 11 12  1  0
 14 13  1  1
 13 11  1  0
 14 15  1  0
 15  7  1  0
 16 14  1  0
 17 16  2  0
 18 19  1  0
 19 20  1  0
 20 21  1  6
 22 20  1  0
 22 23  1  1
 23 16  1  0
 24 26  1  0
 24 22  1  0
 25 24  2  0
M  END
$$$$
