ELI.pdb
     RDKit          3D

 26 25  0  0  1  0  0  0  0  0999 V2000
   10.2803  -16.2519   20.0047 N   0  0  0  0  0  0  0  0  0  0  0  0
    9.4050  -16.7222   21.0298 C   0  0  1  0  0  0  0  0  0  0  0  0
    9.4458  -18.2089   21.1231 C   0  0  0  0  0  0  0  0  0  0  0  0
   10.7697  -18.8078   21.4447 C   0  0  0  0  0  0  0  0  0  0  0  0
   10.7789  -20.2631   21.6246 C   0  0  0  0  0  0  0  0  0  0  0  0
   11.5075  -20.7688   22.5112 O   0  0  0  0  0  0  0  0  0  0  0  0
    9.6345  -16.0516   22.3360 C   0  0  0  0  0  0  0  0  0  0  0  0
   10.7474  -15.5491   22.5788 O   0  0  0  0  0  0  0  0  0  0  0  0
   10.0121  -21.1333   20.8550 O   0  0  0  0  0  0  0  0  0  0  0  0
    5.3254  -13.5614   25.0083 C   0  0  0  0  0  0  0  0  0  0  0  0
    6.7030  -13.8497   24.3877 C   0  0  1  0  0  0  0  0  0  0  0  0
    7.5435  -12.6170   24.8526 C   0  0  0  0  0  0  0  0  0  0  0  0
    7.2688  -14.9983   25.1369 C   0  0  0  0  0  0  0  0  0  0  0  0
    8.6255  -15.4286   24.5906 C   0  0  2  0  0  0  0  0  0  0  0  0
    8.6096  -15.9859   23.2833 N   0  0  0  0  0  0  0  0  0  0  0  0
    9.4980  -16.0424   25.5688 C   0  0  0  0  0  0  0  0  0  0  0  0
   10.0746  -17.1345   25.2889 O   0  0  0  0  0  0  0  0  0  0  0  0
   10.8326  -13.1934   30.1176 C   0  0  0  0  0  0  0  0  0  0  0  0
   11.2246  -13.9987   28.8937 C   0  0  0  0  0  0  0  0  0  0  0  0
   10.9137  -15.4800   29.0826 C   0  0  2  0  0  0  0  0  0  0  0  0
   11.8993  -16.1511   29.9885 C   0  0  0  0  0  0  0  0  0  0  0  0
   10.6298  -16.1799   27.8176 C   0  0  2  0  0  0  0  0  0  0  0  0
    9.8021  -15.5572   26.8519 N   0  0  0  0  0  0  0  0  0  0  0  0
   10.0086  -17.5017   28.1519 C   0  0  0  0  0  0  0  0  0  0  0  0
   10.6950  -18.4774   28.5734 O   0  0  0  0  0  0  0  0  0  0  0  0
    8.6428  -17.7348   28.0192 O   0  0  0  0  0  0  0  0  0  0  0  0
  2  3  1  0
  2  1  1  6
  4  3  1  0
  5  4  1  0
  6  5  2  0
  7  8  2  0
  7  2  1  0
  9  5  1  0
 11 10  1  1
 11 12  1  0
 14 13  1  1
 13 11  1  0
 14 15  1  0
 15  7  1  0
 16 14  1  0
 17 16  2  0
 18 19  1  0
 19 20  1  0
 20 21  1  6
 22 20  1  0
 22 23  1  6
 23 16  1  0
 24 26  1  0
 24 22  1  0
 25 24  2  0
M  END
$$$$
