ELI.pdb
     RDKit          3D

 26 25  0  0  1  0  0  0  0  0999 V2000
   10.0700  -18.4327   19.1871 N   0  0  0  0  0  0  0  0  0  0  0  0
   11.2719  -17.9062   19.7498 C   0  0  1  0  0  0  0  0  0  0  0  0
   12.1861  -17.4105   18.6824 C   0  0  0  0  0  0  0  0  0  0  0  0
   12.4645  -18.3572   17.5684 C   0  0  0  0  0  0  0  0  0  0  0  0
   13.4623  -17.9091   16.5917 C   0  0  0  0  0  0  0  0  0  0  0  0
   13.0802  -17.4167   15.5035 O   0  0  0  0  0  0  0  0  0  0  0  0
   11.0176  -16.8978   20.8114 C   0  0  0  0  0  0  0  0  0  0  0  0
   11.9746  -16.2696   21.3006 O   0  0  0  0  0  0  0  0  0  0  0  0
   14.8348  -17.9994   16.8049 O   0  0  0  0  0  0  0  0  0  0  0  0
    6.1370  -14.3755   20.5117 C   0  0  0  0  0  0  0  0  0  0  0  0
    7.6406  -14.6681   20.6519 C   0  0  1  0  0  0  0  0  0  0  0  0
    8.2575  -13.2330   20.6966 C   0  0  0  0  0  0  0  0  0  0  0  0
    7.8374  -15.2079   22.0196 C   0  0  0  0  0  0  0  0  0  0  0  0
    9.2528  -15.7330   22.2321 C   0  0  2  0  0  0  0  0  0  0  0  0
    9.7151  -16.6571   21.2562 N   0  0  0  0  0  0  0  0  0  0  0  0
    9.5942  -15.9931   23.6143 C   0  0  0  0  0  0  0  0  0  0  0  0
    9.9992  -17.1454   23.9483 O   0  0  0  0  0  0  0  0  0  0  0  0
   10.6449  -13.4317   29.2683 C   0  0  0  0  0  0  0  0  0  0  0  0
   10.5512  -14.6224   28.3338 C   0  0  0  0  0  0  0  0  0  0  0  0
    9.9652  -14.2218   26.9836 C   0  0  2  0  0  0  0  0  0  0  0  0
    8.7283  -13.3907   27.1309 C   0  0  0  0  0  0  0  0  0  0  0  0
    9.8705  -15.3453   26.0352 C   0  0  2  0  0  0  0  0  0  0  0  0
    9.5310  -15.0857   24.6852 N   0  0  0  0  0  0  0  0  0  0  0  0
    8.8620  -16.3157   26.5701 C   0  0  0  0  0  0  0  0  0  0  0  0
    9.0290  -16.9175   27.6705 O   0  0  0  0  0  0  0  0  0  0  0  0
    7.6843  -16.6126   25.8903 O   0  0  0  0  0  0  0  0  0  0  0  0
  2  3  1  0
  2  1  1  6
  4  3  1  0
  5  4  1  0
  6  5  2  0
  7  8  2  0
  7  2  1  0
  9  5  1  0
 11 10  1  1
 11 12  1  0
 14 13  1  1
 13 11  1  0
 14 15  1  0
 15  7  1  0
 16 14  1  0
 17 16  2  0
 18 19  1  0
 19 20  1  0
 20 21  1  1
 22 20  1  0
 22 23  1  6
 23 16  1  0
 24 26  1  0
 24 22  1  0
 25 24  2  0
M  END
$$$$
