ELI.pdb
     RDKit          3D

 26 25  0  0  1  0  0  0  0  0999 V2000
    9.8721  -16.2921   19.5218 N   0  0  0  0  0  0  0  0  0  0  0  0
    9.6586  -16.8714   20.8091 C   0  0  1  0  0  0  0  0  0  0  0  0
   10.5797  -18.0210   21.0342 C   0  0  0  0  0  0  0  0  0  0  0  0
   10.3504  -19.2193   20.1819 C   0  0  0  0  0  0  0  0  0  0  0  0
   11.1888  -20.3829   20.4873 C   0  0  0  0  0  0  0  0  0  0  0  0
   11.0523  -21.4330   19.8156 O   0  0  0  0  0  0  0  0  0  0  0  0
    9.7010  -15.8697   21.9060 C   0  0  0  0  0  0  0  0  0  0  0  0
   10.7447  -15.2196   22.1012 O   0  0  0  0  0  0  0  0  0  0  0  0
   12.1458  -20.3912   21.4980 O   0  0  0  0  0  0  0  0  0  0  0  0
    7.5571  -12.5265   25.2383 C   0  0  0  0  0  0  0  0  0  0  0  0
    7.1236  -13.9216   25.7199 C   0  0  1  0  0  0  0  0  0  0  0  0
    5.6198  -13.6979   26.0814 C   0  0  0  0  0  0  0  0  0  0  0  0
    7.0991  -14.7914   24.5185 C   0  0  0  0  0  0  0  0  0  0  0  0
    8.5014  -15.1376   24.0308 C   0  0  2  0  0  0  0  0  0  0  0  0
    8.5785  -15.6595   22.7111 N   0  0  0  0  0  0  0  0  0  0  0  0
    9.3557  -15.7325   25.0363 C   0  0  0  0  0  0  0  0  0  0  0  0
   10.1981  -16.6137   24.6939 O   0  0  0  0  0  0  0  0  0  0  0  0
   10.4733  -12.8817   29.7028 C   0  0  0  0  0  0  0  0  0  0  0  0
   10.6951  -13.6512   28.4150 C   0  0  0  0  0  0  0  0  0  0  0  0
   10.4865  -15.1481   28.6215 C   0  0  2  0  0  0  0  0  0  0  0  0
   11.4714  -15.7255   29.5905 C   0  0  0  0  0  0  0  0  0  0  0  0
   10.3213  -15.8910   27.3600 C   0  0  2  0  0  0  0  0  0  0  0  0
    9.3707  -15.4425   26.4110 N   0  0  0  0  0  0  0  0  0  0  0  0
    9.9758  -17.3082   27.7020 C   0  0  0  0  0  0  0  0  0  0  0  0
    8.7773  -17.7073   27.7736 O   0  0  0  0  0  0  0  0  0  0  0  0
   10.9500  -18.2681   27.9608 O   0  0  0  0  0  0  0  0  0  0  0  0
  2  3  1  0
  2  1  1  6
  4  3  1  0
  5  4  1  0
  6  5  2  0
  7  8  2  0
  7  2  1  0
  9  5  1  0
 11 10  1  6
 11 12  1  0
 14 13  1  1
 13 11  1  0
 14 15  1  0
 15  7  1  0
 16 14  1  0
 17 16  2  0
 18 19  1  0
 19 20  1  0
 20 21  1  6
 22 20  1  0
 22 23  1  6
 23 16  1  0
 24 26  1  0
 24 22  1  0
 25 24  2  0
M  END
$$$$
