ELI.pdb
     RDKit          3D

 26 25  0  0  1  0  0  0  0  0999 V2000
    9.8339  -18.6838   19.4262 N   0  0  0  0  0  0  0  0  0  0  0  0
   11.0415  -17.9570   19.6533 C   0  0  1  0  0  0  0  0  0  0  0  0
   11.6256  -17.4814   18.3674 C   0  0  0  0  0  0  0  0  0  0  0  0
   12.3196  -18.5092   17.5446 C   0  0  0  0  0  0  0  0  0  0  0  0
   12.9713  -18.0119   16.3288 C   0  0  0  0  0  0  0  0  0  0  0  0
   13.6025  -18.8119   15.5979 O   0  0  0  0  0  0  0  0  0  0  0  0
   10.8809  -16.8713   20.6552 C   0  0  0  0  0  0  0  0  0  0  0  0
   11.8754  -16.2087   21.0044 O   0  0  0  0  0  0  0  0  0  0  0  0
   12.9301  -16.6790   15.9300 O   0  0  0  0  0  0  0  0  0  0  0  0
    6.2016  -13.9984   20.6639 C   0  0  0  0  0  0  0  0  0  0  0  0
    7.6683  -14.4593   20.7136 C   0  0  1  0  0  0  0  0  0  0  0  0
    8.4442  -13.1030   20.7360 C   0  0  0  0  0  0  0  0  0  0  0  0
    7.8804  -15.0394   22.0623 C   0  0  0  0  0  0  0  0  0  0  0  0
    9.2641  -15.6623   22.2090 C   0  0  2  0  0  0  0  0  0  0  0  0
    9.6241  -16.5968   21.2005 N   0  0  0  0  0  0  0  0  0  0  0  0
    9.6411  -15.9707   23.5719 C   0  0  0  0  0  0  0  0  0  0  0  0
   10.0622  -17.1313   23.8529 O   0  0  0  0  0  0  0  0  0  0  0  0
   10.5567  -13.5743   29.3253 C   0  0  0  0  0  0  0  0  0  0  0  0
   10.5731  -14.7338   28.3479 C   0  0  0  0  0  0  0  0  0  0  0  0
    9.8709  -14.3687   27.0439 C   0  0  2  0  0  0  0  0  0  0  0  0
    8.4765  -13.8739   27.2747 C   0  0  0  0  0  0  0  0  0  0  0  0
   10.0193  -15.3948   25.9972 C   0  0  2  0  0  0  0  0  0  0  0  0
    9.5979  -15.1040   24.6770 N   0  0  0  0  0  0  0  0  0  0  0  0
    9.2776  -16.6180   26.4430 C   0  0  0  0  0  0  0  0  0  0  0  0
    9.6543  -17.3054   27.4361 O   0  0  0  0  0  0  0  0  0  0  0  0
    8.1329  -17.0700   25.7930 O   0  0  0  0  0  0  0  0  0  0  0  0
  2  3  1  0
  2  1  1  6
  4  3  1  0
  5  4  1  0
  6  5  2  0
  7  8  2  0
  7  2  1  0
  9  5  1  0
 11 10  1  1
 11 12  1  0
 14 13  1  1
 13 11  1  0
 14 15  1  0
 15  7  1  0
 16 14  1  0
 17 16  2  0
 18 19  1  0
 19 20  1  0
 20 21  1  1
 22 20  1  0
 22 23  1  6
 23 16  1  0
 24 26  1  0
 24 22  1  0
 25 24  2  0
M  END
$$$$
