ELI.pdb
     RDKit          3D

 26 25  0  0  1  0  0  0  0  0999 V2000
    9.3032  -15.6953   19.7987 N   0  0  0  0  0  0  0  0  0  0  0  0
    9.2079  -16.5349   20.9494 C   0  0  1  0  0  0  0  0  0  0  0  0
   10.0902  -17.7280   20.8115 C   0  0  0  0  0  0  0  0  0  0  0  0
    9.4409  -18.9659   20.3007 C   0  0  0  0  0  0  0  0  0  0  0  0
   10.2929  -20.1589   20.2656 C   0  0  0  0  0  0  0  0  0  0  0  0
    9.8099  -21.2486   19.8761 O   0  0  0  0  0  0  0  0  0  0  0  0
    9.4236  -15.7966   22.2209 C   0  0  0  0  0  0  0  0  0  0  0  0
   10.4036  -15.0363   22.3285 O   0  0  0  0  0  0  0  0  0  0  0  0
   11.6317  -20.1535   20.6463 O   0  0  0  0  0  0  0  0  0  0  0  0
    5.3082  -13.5618   25.3169 C   0  0  0  0  0  0  0  0  0  0  0  0
    6.6225  -13.8353   24.5659 C   0  0  1  0  0  0  0  0  0  0  0  0
    7.5251  -12.6463   25.0281 C   0  0  0  0  0  0  0  0  0  0  0  0
    7.2244  -15.0355   25.1968 C   0  0  0  0  0  0  0  0  0  0  0  0
    8.5775  -15.3870   24.5886 C   0  0  2  0  0  0  0  0  0  0  0  0
    8.5337  -15.9548   23.2865 N   0  0  0  0  0  0  0  0  0  0  0  0
    9.5312  -15.9386   25.5271 C   0  0  0  0  0  0  0  0  0  0  0  0
   10.3156  -16.8577   25.1484 O   0  0  0  0  0  0  0  0  0  0  0  0
   10.5538  -13.0753   29.8307 C   0  0  0  0  0  0  0  0  0  0  0  0
   11.2820  -13.9798   28.8552 C   0  0  0  0  0  0  0  0  0  0  0  0
   10.8942  -15.4408   29.0596 C   0  0  2  0  0  0  0  0  0  0  0  0
   11.8249  -16.1445   29.9982 C   0  0  0  0  0  0  0  0  0  0  0  0
   10.6042  -16.1466   27.7992 C   0  0  2  0  0  0  0  0  0  0  0  0
    9.7069  -15.5658   26.8704 N   0  0  0  0  0  0  0  0  0  0  0  0
   10.0730  -17.5045   28.1434 C   0  0  0  0  0  0  0  0  0  0  0  0
   10.8314  -18.4463   28.5159 O   0  0  0  0  0  0  0  0  0  0  0  0
    8.7169  -17.8106   28.0743 O   0  0  0  0  0  0  0  0  0  0  0  0
  2  3  1  0
  2  1  1  6
  4  3  1  0
  5  4  1  0
  6  5  2  0
  7  8  2  0
  7  2  1  0
  9  5  1  0
 11 10  1  1
 11 12  1  0
 14 13  1  1
 13 11  1  0
 14 15  1  0
 15  7  1  0
 16 14  1  0
 17 16  2  0
 18 19  1  0
 19 20  1  0
 20 21  1  6
 22 20  1  0
 22 23  1  1
 23 16  1  0
 24 26  1  0
 24 22  1  0
 25 24  2  0
M  END
$$$$
