DDA.pdb
     RDKit          3D

 22 21  0  0  1  0  0  0  0  0999 V2000
   11.5237  -16.5661   20.9311 N   0  0  0  0  0  0  0  0  0  0  0  0
   10.0906  -16.6948   21.1233 C   0  0  1  0  0  0  0  0  0  0  0  0
    9.4798  -17.7096   20.1816 C   0  0  0  0  0  0  0  0  0  0  0  0
    9.9641  -17.5432   18.7988 C   0  0  0  0  0  0  0  0  0  0  0  0
   11.0911  -17.9909   18.4678 O   0  0  0  0  0  0  0  0  0  0  0  0
    9.8211  -17.0106   22.5382 C   0  0  0  0  0  0  0  0  0  0  0  0
    8.6287  -17.1473   22.9359 O   0  0  0  0  0  0  0  0  0  0  0  0
    9.2298  -16.9048   17.8161 O   0  0  0  0  0  0  0  0  0  0  0  0
   10.8297  -17.1769   23.5149 N   0  0  0  0  0  0  0  0  0  0  0  0
   10.5167  -17.4182   24.9263 C   0  0  1  0  0  0  0  0  0  0  0  0
   11.3383  -18.6163   25.3559 C   0  0  0  0  0  0  0  0  0  0  0  0
   11.2218  -18.9233   26.7915 C   0  0  0  0  0  0  0  0  0  0  0  0
   10.1145  -18.8278   27.3687 O   0  0  0  0  0  0  0  0  0  0  0  0
   10.7732  -16.2014   25.7281 C   0  0  0  0  0  0  0  0  0  0  0  0
   11.9302  -15.6545   25.7311 O   0  0  0  0  0  0  0  0  0  0  0  0
   12.3599  -19.3171   27.4798 O   0  0  0  0  0  0  0  0  0  0  0  0
    8.9337  -13.5543   27.4879 C   0  0  0  0  0  0  0  0  0  0  0  0
   10.1620  -14.4611   27.4296 C   0  0  2  0  0  0  0  0  0  0  0  0
    9.8097  -15.5424   26.5351 N   0  0  0  0  0  0  0  0  0  0  0  0
   10.4189  -14.9079   28.8162 C   0  0  0  0  0  0  0  0  0  0  0  0
   10.9267  -14.0413   29.7737 O   0  0  0  0  0  0  0  0  0  0  0  0
   10.1920  -16.0823   29.1920 O   0  0  0  0  0  0  0  0  0  0  0  0
  2  1  1  1
  2  3  1  0
  3  4  1  0
  4  8  1  0
  5  4  2  0
  6  2  1  0
  7  6  2  0
  9  6  1  0
 10  9  1  0
 10 14  1  0
 10 11  1  1
 12 13  2  0
 12 11  1  0
 14 19  1  0
 15 14  2  0
 16 12  1  0
 18 17  1  1
 18 20  1  0
 19 18  1  0
 20 22  2  0
 20 21  1  0
M  END
$$$$
