DDA.pdb
     RDKit          3D

 22 21  0  0  1  0  0  0  0  0999 V2000
   10.0573  -15.5493   20.4726 N   0  0  0  0  0  0  0  0  0  0  0  0
    8.6458  -15.7876   20.7138 C   0  0  1  0  0  0  0  0  0  0  0  0
    8.1122  -16.9323   19.8804 C   0  0  0  0  0  0  0  0  0  0  0  0
    8.9755  -17.2219   18.7205 C   0  0  0  0  0  0  0  0  0  0  0  0
   10.0202  -16.5495   18.5292 O   0  0  0  0  0  0  0  0  0  0  0  0
    8.4331  -15.9993   22.1575 C   0  0  0  0  0  0  0  0  0  0  0  0
    7.2694  -16.2309   22.5943 O   0  0  0  0  0  0  0  0  0  0  0  0
    8.6951  -18.2188   17.8041 O   0  0  0  0  0  0  0  0  0  0  0  0
    9.4672  -15.9611   23.1207 N   0  0  0  0  0  0  0  0  0  0  0  0
    9.2227  -16.2368   24.5393 C   0  0  1  0  0  0  0  0  0  0  0  0
   10.3764  -17.0916   25.0221 C   0  0  0  0  0  0  0  0  0  0  0  0
   10.2678  -17.4778   26.4391 C   0  0  0  0  0  0  0  0  0  0  0  0
    9.1910  -17.9340   26.8874 O   0  0  0  0  0  0  0  0  0  0  0  0
    9.0620  -14.9728   25.2915 C   0  0  0  0  0  0  0  0  0  0  0  0
    9.9127  -14.6335   26.1854 O   0  0  0  0  0  0  0  0  0  0  0  0
   11.3788  -17.3244   27.2553 O   0  0  0  0  0  0  0  0  0  0  0  0
    6.4796  -12.2843   25.5564 C   0  0  0  0  0  0  0  0  0  0  0  0
    7.7963  -12.9234   25.9951 C   0  0  2  0  0  0  0  0  0  0  0  0
    8.0024  -14.0470   25.1072 N   0  0  0  0  0  0  0  0  0  0  0  0
    7.6191  -13.3191   27.4094 C   0  0  0  0  0  0  0  0  0  0  0  0
    7.7147  -12.3924   28.4378 O   0  0  0  0  0  0  0  0  0  0  0  0
    7.3753  -14.5020   27.7461 O   0  0  0  0  0  0  0  0  0  0  0  0
  2  1  1  1
  2  3  1  0
  3  4  1  0
  4  8  1  0
  5  4  2  0
  6  2  1  0
  7  6  2  0
  9  6  1  0
 10  9  1  0
 10 14  1  0
 10 11  1  1
 12 13  2  0
 12 11  1  0
 14 19  1  0
 15 14  2  0
 16 12  1  0
 18 17  1  6
 18 20  1  0
 19 18  1  0
 20 22  2  0
 20 21  1  0
M  END
$$$$
