DDA.pdb
     RDKit          3D

 22 21  0  0  1  0  0  0  0  0999 V2000
    9.9852  -17.0893   15.6884 N   0  0  0  0  0  0  0  0  0  0  0  0
    8.5712  -17.2369   15.9823 C   0  0  1  0  0  0  0  0  0  0  0  0
    7.9268  -18.3200   15.1450 C   0  0  0  0  0  0  0  0  0  0  0  0
    8.2013  -18.1448   13.7068 C   0  0  0  0  0  0  0  0  0  0  0  0
    8.6788  -19.0947   13.0362 O   0  0  0  0  0  0  0  0  0  0  0  0
    8.4019  -17.4715   17.4282 C   0  0  0  0  0  0  0  0  0  0  0  0
    7.2449  -17.4501   17.9374 O   0  0  0  0  0  0  0  0  0  0  0  0
    7.9573  -16.9622   13.0328 O   0  0  0  0  0  0  0  0  0  0  0  0
    9.4721  -17.7269   18.3161 N   0  0  0  0  0  0  0  0  0  0  0  0
    9.2578  -17.9805   19.7437 C   0  0  1  0  0  0  0  0  0  0  0  0
   10.1791  -19.1204   20.1266 C   0  0  0  0  0  0  0  0  0  0  0  0
    9.7305  -20.4309   19.6264 C   0  0  0  0  0  0  0  0  0  0  0  0
    8.5077  -20.6822   19.5257 O   0  0  0  0  0  0  0  0  0  0  0  0
    9.4804  -16.7454   20.5274 C   0  0  0  0  0  0  0  0  0  0  0  0
   10.6256  -16.1743   20.5328 O   0  0  0  0  0  0  0  0  0  0  0  0
   10.6889  -21.3694   19.2734 O   0  0  0  0  0  0  0  0  0  0  0  0
    7.4749  -14.3327   22.5328 C   0  0  0  0  0  0  0  0  0  0  0  0
    8.8131  -14.9823   22.1837 C   0  0  2  0  0  0  0  0  0  0  0  0
    8.4949  -16.0934   21.3134 N   0  0  0  0  0  0  0  0  0  0  0  0
    9.4239  -15.3980   23.4652 C   0  0  0  0  0  0  0  0  0  0  0  0
   10.1032  -14.4945   24.2701 O   0  0  0  0  0  0  0  0  0  0  0  0
    9.3582  -16.5778   23.8844 O   0  0  0  0  0  0  0  0  0  0  0  0
  2  1  1  1
  2  3  1  0
  3  4  1  0
  4  8  1  0
  5  4  2  0
  6  2  1  0
  7  6  2  0
  9  6  1  0
 10  9  1  0
 10 14  1  0
 10 11  1  1
 12 13  2  0
 12 11  1  0
 14 19  1  0
 15 14  2  0
 16 12  1  0
 18 17  1  1
 18 20  1  0
 19 18  1  0
 20 22  2  0
 20 21  1  0
M  END
$$$$
