DDA.pdb
     RDKit          3D

 22 21  0  0  1  0  0  0  0  0999 V2000
   11.2578  -18.3422   17.3647 N   0  0  0  0  0  0  0  0  0  0  0  0
   11.7108  -19.1539   18.4797 C   0  0  1  0  0  0  0  0  0  0  0  0
   13.1053  -18.7751   18.9288 C   0  0  0  0  0  0  0  0  0  0  0  0
   14.0476  -18.6920   17.7975 C   0  0  0  0  0  0  0  0  0  0  0  0
   15.1449  -18.0942   17.9342 O   0  0  0  0  0  0  0  0  0  0  0  0
   10.7261  -19.0623   19.5734 C   0  0  0  0  0  0  0  0  0  0  0  0
   10.3486  -17.9285   19.9863 O   0  0  0  0  0  0  0  0  0  0  0  0
   13.7873  -19.2493   16.5590 O   0  0  0  0  0  0  0  0  0  0  0  0
   10.1542  -20.1846   20.2155 N   0  0  0  0  0  0  0  0  0  0  0  0
    9.2727  -20.0525   21.3790 C   0  0  1  0  0  0  0  0  0  0  0  0
    8.1509  -21.0531   21.1912 C   0  0  0  0  0  0  0  0  0  0  0  0
    7.1688  -21.0465   22.2886 C   0  0  0  0  0  0  0  0  0  0  0  0
    7.0166  -20.0216   22.9921 O   0  0  0  0  0  0  0  0  0  0  0  0
   10.0373  -20.2425   22.6313 C   0  0  0  0  0  0  0  0  0  0  0  0
    9.5127  -19.9622   23.7644 O   0  0  0  0  0  0  0  0  0  0  0  0
    6.4246  -22.1940   22.5195 O   0  0  0  0  0  0  0  0  0  0  0  0
   13.0618  -22.0537   23.7122 C   0  0  0  0  0  0  0  0  0  0  0  0
   12.0429  -20.9438   23.9666 C   0  0  2  0  0  0  0  0  0  0  0  0
   11.3660  -20.7355   22.7049 N   0  0  0  0  0  0  0  0  0  0  0  0
   12.8125  -19.7648   24.4203 C   0  0  0  0  0  0  0  0  0  0  0  0
   13.5842  -19.8037   25.5729 O   0  0  0  0  0  0  0  0  0  0  0  0
   12.8058  -18.6806   23.7906 O   0  0  0  0  0  0  0  0  0  0  0  0
  2  1  1  6
  2  3  1  0
  3  4  1  0
  4  8  1  0
  5  4  2  0
  6  2  1  0
  7  6  2  0
  9  6  1  0
 10  9  1  0
 10 14  1  0
 10 11  1  6
 12 13  2  0
 12 11  1  0
 14 19  1  0
 15 14  2  0
 16 12  1  0
 18 17  1  6
 18 20  1  0
 19 18  1  0
 20 22  2  0
 20 21  1  0
M  END
$$$$
