IPH.pdb
     RDKit          3D

 26 27  0  0  1  0  0  0  0  0999 V2000
    6.7441  -11.6496   27.3775 C   0  0  0  0  0  0  0  0  0  0  0  0
    6.0615  -12.7417   26.5972 C   0  0  0  0  0  0  0  0  0  0  0  0
    7.0943  -13.5825   25.8810 C   0  0  2  0  0  0  0  0  0  0  0  0
    8.0118  -12.7148   25.0429 C   0  0  0  0  0  0  0  0  0  0  0  0
    6.4801  -14.6886   25.0458 C   0  0  2  0  0  0  0  0  0  0  0  0
    5.6518  -15.4680   25.9713 N   0  0  0  0  0  0  0  0  0  0  0  0
    7.4512  -15.5415   24.3585 C   0  0  0  0  0  0  0  0  0  0  0  0
    7.8392  -16.6187   24.9023 O   0  0  0  0  0  0  0  0  0  0  0  0
    7.9649  -15.1797   23.0937 N   0  0  0  0  0  0  0  0  0  0  0  0
    7.7823  -13.9662   22.3694 C   0  0  0  0  0  0  0  0  0  0  0  0
    8.5364  -14.1104   21.0524 C   0  0  0  0  0  0  0  0  0  0  0  0
    8.7499  -15.5757   20.8854 C   0  0  0  0  0  0  0  0  0  0  0  0
    8.8057  -16.0650   22.3051 C   0  0  1  0  0  0  0  0  0  0  0  0
   10.2007  -16.1147   22.8145 C   0  0  0  0  0  0  0  0  0  0  0  0
   10.9380  -17.0874   22.5065 O   0  0  0  0  0  0  0  0  0  0  0  0
   10.7340  -15.1034   23.6385 N   0  0  0  0  0  0  0  0  0  0  0  0
   11.1730  -15.3382   25.0273 C   0  0  1  0  0  0  0  0  0  0  0  0
   10.0254  -15.2221   25.9621 C   0  0  0  0  0  0  0  0  0  0  0  0
   10.4263  -15.4246   27.3604 C   0  0  0  0  0  0  0  0  0  0  0  0
   10.9493  -14.3948   28.1704 C   0  0  0  0  0  0  0  0  0  0  0  0
   11.2130  -14.8976   29.3880 N   0  0  0  0  0  0  0  0  0  0  0  0
   10.8809  -16.1901   29.3794 C   0  0  0  0  0  0  0  0  0  0  0  0
   10.4152  -16.4841   28.1653 N   0  0  0  0  0  0  0  0  0  0  0  0
   11.7900  -16.6812   25.1147 C   0  0  0  0  0  0  0  0  0  0  0  0
   13.1574  -16.7493   25.4466 O   0  0  0  0  0  0  0  0  0  0  0  0
   11.2362  -17.7702   24.9278 O   0  0  0  0  0  0  0  0  0  0  0  0
  2  3  1  0
  2  1  1  0
  3  4  1  6
  5  6  1  1
  5  3  1  0
  7  5  1  0
  8  7  2  0
  9  7  1  0
 10  9  1  0
 11 10  1  0
 11 12  1  0
 12 13  1  0
 13  9  1  0
 14 15  2  0
 13 14  1  1
 16 14  1  0
 17 16  1  0
 17 24  1  0
 17 18  1  1
 19 18  1  0
 20 19  2  0
 21 22  1  0
 21 20  1  0
 22 23  2  0
 23 19  1  0
 24 26  2  0
 24 25  1  0
M  END
$$$$
