IPH.pdb
     RDKit          3D

 26 27  0  0  1  0  0  0  0  0999 V2000
    7.0953  -12.2467   19.1683 C   0  0  0  0  0  0  0  0  0  0  0  0
    7.4166  -13.6904   18.8858 C   0  0  0  0  0  0  0  0  0  0  0  0
    7.7558  -14.4022   20.1762 C   0  0  2  0  0  0  0  0  0  0  0  0
    8.9267  -13.7354   20.8703 C   0  0  0  0  0  0  0  0  0  0  0  0
    8.0103  -15.8843   19.9844 C   0  0  2  0  0  0  0  0  0  0  0  0
    6.8157  -16.4060   19.3130 N   0  0  0  0  0  0  0  0  0  0  0  0
    8.2854  -16.6184   21.2207 C   0  0  0  0  0  0  0  0  0  0  0  0
    7.3588  -16.7954   22.0674 O   0  0  0  0  0  0  0  0  0  0  0  0
    9.5734  -17.1336   21.4852 N   0  0  0  0  0  0  0  0  0  0  0  0
   10.6852  -17.2558   20.6023 C   0  0  0  0  0  0  0  0  0  0  0  0
   11.8200  -17.8961   21.3936 C   0  0  0  0  0  0  0  0  0  0  0  0
   11.1639  -18.5234   22.5754 C   0  0  0  0  0  0  0  0  0  0  0  0
    9.9609  -17.6484   22.7881 C   0  0  1  0  0  0  0  0  0  0  0  0
   10.2383  -16.5604   23.7614 C   0  0  0  0  0  0  0  0  0  0  0  0
   10.7637  -15.4894   23.3597 O   0  0  0  0  0  0  0  0  0  0  0  0
    9.9326  -16.6849   25.1315 N   0  0  0  0  0  0  0  0  0  0  0  0
    9.4437  -15.5641   25.9571 C   0  0  1  0  0  0  0  0  0  0  0  0
    8.1280  -15.0878   25.4606 C   0  0  0  0  0  0  0  0  0  0  0  0
    7.6313  -13.9355   26.2238 C   0  0  0  0  0  0  0  0  0  0  0  0
    8.3877  -13.2872   27.2227 C   0  0  0  0  0  0  0  0  0  0  0  0
    7.6587  -12.2772   27.7264 N   0  0  0  0  0  0  0  0  0  0  0  0
    6.4847  -12.2620   27.0920 C   0  0  0  0  0  0  0  0  0  0  0  0
    6.4880  -13.2553   26.2028 N   0  0  0  0  0  0  0  0  0  0  0  0
    9.3449  -16.0126   27.3646 C   0  0  0  0  0  0  0  0  0  0  0  0
   10.0743  -15.2918   28.3305 O   0  0  0  0  0  0  0  0  0  0  0  0
    8.6850  -16.9624   27.8004 O   0  0  0  0  0  0  0  0  0  0  0  0
  2  3  1  0
  2  1  1  0
  3  4  1  6
  5  6  1  1
  5  3  1  0
  7  5  1  0
  8  7  2  0
  9  7  1  0
 10  9  1  0
 11 10  1  0
 11 12  1  0
 12 13  1  0
 13  9  1  0
 14 15  2  0
 13 14  1  1
 16 14  1  0
 17 16  1  0
 17 24  1  0
 17 18  1  6
 19 18  1  0
 20 19  2  0
 21 22  1  0
 21 20  1  0
 22 23  2  0
 23 19  1  0
 24 26  2  0
 24 25  1  0
M  END
$$$$
