IPH.pdb
     RDKit          3D

 26 27  0  0  1  0  0  0  0  0999 V2000
    6.5047  -11.5993   27.1082 C   0  0  0  0  0  0  0  0  0  0  0  0
    5.8723  -12.7405   26.3564 C   0  0  0  0  0  0  0  0  0  0  0  0
    6.9477  -13.6446   25.7972 C   0  0  2  0  0  0  0  0  0  0  0  0
    7.9412  -12.8553   24.9682 C   0  0  0  0  0  0  0  0  0  0  0  0
    6.3874  -14.8114   25.0080 C   0  0  2  0  0  0  0  0  0  0  0  0
    5.6183  -15.6059   25.9710 N   0  0  0  0  0  0  0  0  0  0  0  0
    7.3970  -15.6295   24.3339 C   0  0  0  0  0  0  0  0  0  0  0  0
    7.7388  -16.7443   24.8311 O   0  0  0  0  0  0  0  0  0  0  0  0
    7.9988  -15.1926   23.1333 N   0  0  0  0  0  0  0  0  0  0  0  0
    7.9389  -13.9077   22.5202 C   0  0  0  0  0  0  0  0  0  0  0  0
    8.7475  -13.9865   21.2303 C   0  0  0  0  0  0  0  0  0  0  0  0
    8.8663  -15.4421   20.9344 C   0  0  0  0  0  0  0  0  0  0  0  0
    8.8150  -16.0621   22.3023 C   0  0  1  0  0  0  0  0  0  0  0  0
   10.1752  -16.2619   22.8662 C   0  0  0  0  0  0  0  0  0  0  0  0
   11.0245  -16.9239   22.2144 O   0  0  0  0  0  0  0  0  0  0  0  0
   10.5530  -15.7330   24.1166 N   0  0  0  0  0  0  0  0  0  0  0  0
   11.9287  -15.8067   24.6446 C   0  0  1  0  0  0  0  0  0  0  0  0
   12.1778  -14.7003   25.6028 C   0  0  0  0  0  0  0  0  0  0  0  0
   11.3597  -14.8227   26.8163 C   0  0  0  0  0  0  0  0  0  0  0  0
   10.3531  -15.7985   26.9736 C   0  0  0  0  0  0  0  0  0  0  0  0
    9.7946  -15.6486   28.1862 N   0  0  0  0  0  0  0  0  0  0  0  0
   10.4020  -14.6279   28.7947 C   0  0  0  0  0  0  0  0  0  0  0  0
   11.3291  -14.1504   27.9642 N   0  0  0  0  0  0  0  0  0  0  0  0
   12.1225  -17.1218   25.2964 C   0  0  0  0  0  0  0  0  0  0  0  0
   11.0356  -18.0181   25.2906 O   0  0  0  0  0  0  0  0  0  0  0  0
   13.1450  -17.5341   25.8551 O   0  0  0  0  0  0  0  0  0  0  0  0
  2  3  1  0
  2  1  1  0
  3  4  1  6
  5  6  1  1
  5  3  1  0
  7  5  1  0
  8  7  2  0
  9  7  1  0
 10  9  1  0
 11 10  1  0
 11 12  1  0
 12 13  1  0
 13  9  1  0
 14 15  2  0
 13 14  1  1
 16 14  1  0
 17 16  1  0
 17 24  1  0
 17 18  1  1
 19 18  1  0
 20 19  2  0
 21 22  1  0
 21 20  1  0
 22 23  2  0
 23 19  1  0
 24 26  2  0
 24 25  1  0
M  END
$$$$
