IPH.pdb
     RDKit          3D

 26 27  0  0  1  0  0  0  0  0999 V2000
    3.1549  -19.3027   20.8236 C   0  0  0  0  0  0  0  0  0  0  0  0
    4.0677  -18.6218   19.8383 C   0  0  0  0  0  0  0  0  0  0  0  0
    5.1362  -17.8491   20.5785 C   0  0  2  0  0  0  0  0  0  0  0  0
    4.5281  -16.7109   21.3735 C   0  0  0  0  0  0  0  0  0  0  0  0
    6.2400  -17.3473   19.6687 C   0  0  2  0  0  0  0  0  0  0  0  0
    6.6975  -18.5214   18.9189 N   0  0  0  0  0  0  0  0  0  0  0  0
    7.3522  -16.6975   20.3642 C   0  0  0  0  0  0  0  0  0  0  0  0
    8.2578  -17.4035   20.9011 O   0  0  0  0  0  0  0  0  0  0  0  0
    7.4308  -15.2899   20.4470 N   0  0  0  0  0  0  0  0  0  0  0  0
    6.5581  -14.3122   19.8874 C   0  0  0  0  0  0  0  0  0  0  0  0
    7.1163  -12.9439   20.2616 C   0  0  0  0  0  0  0  0  0  0  0  0
    8.5348  -13.1941   20.6434 C   0  0  0  0  0  0  0  0  0  0  0  0
    8.4929  -14.6034   21.1633 C   0  0  1  0  0  0  0  0  0  0  0  0
    8.2917  -14.6400   22.6351 C   0  0  0  0  0  0  0  0  0  0  0  0
    7.2377  -14.1600   23.1281 O   0  0  0  0  0  0  0  0  0  0  0  0
    9.2474  -15.1973   23.5083 N   0  0  0  0  0  0  0  0  0  0  0  0
    8.8899  -15.9676   24.7147 C   0  0  1  0  0  0  0  0  0  0  0  0
    7.8737  -17.0003   24.3901 C   0  0  0  0  0  0  0  0  0  0  0  0
    7.6151  -17.8992   25.5224 C   0  0  0  0  0  0  0  0  0  0  0  0
    8.1993  -17.7257   26.7947 C   0  0  0  0  0  0  0  0  0  0  0  0
    7.7631  -18.7045   27.6052 N   0  0  0  0  0  0  0  0  0  0  0  0
    6.9354  -19.4808   26.9028 C   0  0  0  0  0  0  0  0  0  0  0  0
    6.8606  -18.9855   25.6673 N   0  0  0  0  0  0  0  0  0  0  0  0
   10.1148  -16.5891   25.2674 C   0  0  0  0  0  0  0  0  0  0  0  0
   10.1855  -16.7590   26.6641 O   0  0  0  0  0  0  0  0  0  0  0  0
   11.1010  -16.9843   24.6359 O   0  0  0  0  0  0  0  0  0  0  0  0
  2  3  1  0
  2  1  1  0
  3  4  1  6
  5  6  1  1
  5  3  1  0
  7  5  1  0
  8  7  2  0
  9  7  1  0
 10  9  1  0
 11 10  1  0
 11 12  1  0
 12 13  1  0
 13  9  1  0
 14 15  2  0
 13 14  1  1
 16 14  1  0
 17 16  1  0
 17 24  1  0
 17 18  1  6
 19 18  1  0
 20 19  2  0
 21 22  1  0
 21 20  1  0
 22 23  2  0
 23 19  1  0
 24 26  2  0
 24 25  1  0
M  END
$$$$
