IPH.pdb
     RDKit          3D

 26 27  0  0  1  0  0  0  0  0999 V2000
    6.8872  -11.6466   27.6953 C   0  0  0  0  0  0  0  0  0  0  0  0
    6.0950  -12.4868   26.7288 C   0  0  0  0  0  0  0  0  0  0  0  0
    7.0060  -13.4858   26.0515 C   0  0  2  0  0  0  0  0  0  0  0  0
    8.1640  -12.7858   25.3685 C   0  0  0  0  0  0  0  0  0  0  0  0
    6.2726  -14.3932   25.0837 C   0  0  2  0  0  0  0  0  0  0  0  0
    5.2649  -15.0936   25.8862 N   0  0  0  0  0  0  0  0  0  0  0  0
    7.1309  -15.3396   24.3690 C   0  0  0  0  0  0  0  0  0  0  0  0
    7.3878  -16.4692   24.8835 O   0  0  0  0  0  0  0  0  0  0  0  0
    7.6798  -15.0106   23.1101 N   0  0  0  0  0  0  0  0  0  0  0  0
    7.5135  -13.8187   22.3471 C   0  0  0  0  0  0  0  0  0  0  0  0
    8.3063  -13.9959   21.0571 C   0  0  0  0  0  0  0  0  0  0  0  0
    8.5306  -15.4642   20.9375 C   0  0  0  0  0  0  0  0  0  0  0  0
    8.5469  -15.9134   22.3714 C   0  0  1  0  0  0  0  0  0  0  0  0
    9.9267  -15.9421   22.9223 C   0  0  0  0  0  0  0  0  0  0  0  0
   10.3995  -14.9079   23.4620 O   0  0  0  0  0  0  0  0  0  0  0  0
   10.7338  -17.0958   22.8615 N   0  0  0  0  0  0  0  0  0  0  0  0
   12.0627  -17.1885   23.4955 C   0  0  1  0  0  0  0  0  0  0  0  0
   12.2014  -18.4730   24.2271 C   0  0  0  0  0  0  0  0  0  0  0  0
   11.4739  -18.4660   25.5028 C   0  0  0  0  0  0  0  0  0  0  0  0
   10.9732  -17.2898   26.0995 C   0  0  0  0  0  0  0  0  0  0  0  0
   10.3604  -17.6182   27.2492 N   0  0  0  0  0  0  0  0  0  0  0  0
   10.4531  -18.9409   27.4006 C   0  0  0  0  0  0  0  0  0  0  0  0
   11.1182  -19.4265   26.3523 N   0  0  0  0  0  0  0  0  0  0  0  0
   13.1030  -17.0629   22.4495 C   0  0  0  0  0  0  0  0  0  0  0  0
   14.4105  -16.7443   22.8661 O   0  0  0  0  0  0  0  0  0  0  0  0
   12.9569  -17.2079   21.2308 O   0  0  0  0  0  0  0  0  0  0  0  0
  2  3  1  0
  2  1  1  0
  3  4  1  6
  5  6  1  1
  5  3  1  0
  7  5  1  0
  8  7  2  0
  9  7  1  0
 10  9  1  0
 11 10  1  0
 11 12  1  0
 12 13  1  0
 13  9  1  0
 14 15  2  0
 13 14  1  1
 16 14  1  0
 17 16  1  0
 17 24  1  0
 17 18  1  6
 19 18  1  0
 20 19  2  0
 21 22  1  0
 21 20  1  0
 22 23  2  0
 23 19  1  0
 24 26  2  0
 24 25  1  0
M  END
$$$$
