IPH.pdb
     RDKit          3D

 26 27  0  0  1  0  0  0  0  0999 V2000
    6.4625  -11.2841   27.1486 C   0  0  0  0  0  0  0  0  0  0  0  0
    5.7603  -12.4214   26.4550 C   0  0  0  0  0  0  0  0  0  0  0  0
    6.7797  -13.3803   25.8822 C   0  0  2  0  0  0  0  0  0  0  0  0
    7.7810  -12.6487   25.0107 C   0  0  0  0  0  0  0  0  0  0  0  0
    6.1477  -14.5355   25.1311 C   0  0  2  0  0  0  0  0  0  0  0  0
    5.3425  -15.2568   26.1218 N   0  0  0  0  0  0  0  0  0  0  0  0
    7.1037  -15.4290   24.4747 C   0  0  0  0  0  0  0  0  0  0  0  0
    7.5656  -16.4282   25.1031 O   0  0  0  0  0  0  0  0  0  0  0  0
    7.5213  -15.1922   23.1466 N   0  0  0  0  0  0  0  0  0  0  0  0
    7.2204  -14.0867   22.2993 C   0  0  0  0  0  0  0  0  0  0  0  0
    7.9074  -14.3440   20.9629 C   0  0  0  0  0  0  0  0  0  0  0  0
    8.2056  -15.8039   20.9540 C   0  0  0  0  0  0  0  0  0  0  0  0
    8.3723  -16.1156   22.4146 C   0  0  1  0  0  0  0  0  0  0  0  0
    9.7939  -16.0235   22.8371 C   0  0  0  0  0  0  0  0  0  0  0  0
   10.2961  -14.8949   23.0787 O   0  0  0  0  0  0  0  0  0  0  0  0
   10.6091  -17.1645   22.9779 N   0  0  0  0  0  0  0  0  0  0  0  0
   12.0229  -17.1030   23.3950 C   0  0  1  0  0  0  0  0  0  0  0  0
   12.4142  -18.3540   24.0921 C   0  0  0  0  0  0  0  0  0  0  0  0
   11.7066  -18.5227   25.3680 C   0  0  0  0  0  0  0  0  0  0  0  0
   11.0247  -17.4722   26.0172 C   0  0  0  0  0  0  0  0  0  0  0  0
   10.4843  -17.9470   27.1520 N   0  0  0  0  0  0  0  0  0  0  0  0
   10.7944  -19.2417   27.2442 C   0  0  0  0  0  0  0  0  0  0  0  0
   11.5212  -19.5648   26.1742 N   0  0  0  0  0  0  0  0  0  0  0  0
   12.8666  -16.8801   22.1990 C   0  0  0  0  0  0  0  0  0  0  0  0
   14.2431  -16.6620   22.4045 O   0  0  0  0  0  0  0  0  0  0  0  0
   12.4988  -16.8631   21.0192 O   0  0  0  0  0  0  0  0  0  0  0  0
  2  3  1  0
  2  1  1  0
  3  4  1  6
  5  6  1  1
  5  3  1  0
  7  5  1  0
  8  7  2  0
  9  7  1  0
 10  9  1  0
 11 10  1  0
 11 12  1  0
 12 13  1  0
 13  9  1  0
 14 15  2  0
 13 14  1  1
 16 14  1  0
 17 16  1  0
 17 24  1  0
 17 18  1  6
 19 18  1  0
 20 19  2  0
 21 22  1  0
 21 20  1  0
 22 23  2  0
 23 19  1  0
 24 26  2  0
 24 25  1  0
M  END
$$$$
