IPH.pdb
     RDKit          3D

 26 27  0  0  1  0  0  0  0  0999 V2000
    6.0151  -11.3285   27.2686 C   0  0  0  0  0  0  0  0  0  0  0  0
    5.5054  -12.5139   26.4925 C   0  0  0  0  0  0  0  0  0  0  0  0
    6.6695  -13.3489   26.0083 C   0  0  2  0  0  0  0  0  0  0  0  0
    7.6491  -12.5046   25.2179 C   0  0  0  0  0  0  0  0  0  0  0  0
    6.2349  -14.5642   25.2133 C   0  0  2  0  0  0  0  0  0  0  0  0
    5.3374  -15.3140   26.0979 N   0  0  0  0  0  0  0  0  0  0  0  0
    7.3352  -15.4056   24.7397 C   0  0  0  0  0  0  0  0  0  0  0  0
    7.8307  -16.2850   25.5065 O   0  0  0  0  0  0  0  0  0  0  0  0
    7.8556  -15.2506   23.4360 N   0  0  0  0  0  0  0  0  0  0  0  0
    7.4249  -14.3707   22.4012 C   0  0  0  0  0  0  0  0  0  0  0  0
    8.3175  -14.6267   21.1922 C   0  0  0  0  0  0  0  0  0  0  0  0
    8.9351  -15.9599   21.4406 C   0  0  0  0  0  0  0  0  0  0  0  0
    8.9790  -16.0288   22.9411 C   0  0  1  0  0  0  0  0  0  0  0  0
   10.2773  -15.5422   23.4755 C   0  0  0  0  0  0  0  0  0  0  0  0
   10.3541  -14.3797   23.9521 O   0  0  0  0  0  0  0  0  0  0  0  0
   11.4378  -16.3419   23.4676 N   0  0  0  0  0  0  0  0  0  0  0  0
   12.2710  -16.5713   24.6633 C   0  0  1  0  0  0  0  0  0  0  0  0
   11.4745  -17.2194   25.7356 C   0  0  0  0  0  0  0  0  0  0  0  0
   11.0775  -16.2693   26.7829 C   0  0  0  0  0  0  0  0  0  0  0  0
   11.0915  -14.8704   26.6016 C   0  0  0  0  0  0  0  0  0  0  0  0
   10.6741  -14.2856   27.7369 N   0  0  0  0  0  0  0  0  0  0  0  0
   10.3997  -15.2492   28.6184 C   0  0  0  0  0  0  0  0  0  0  0  0
   10.6458  -16.4211   28.0323 N   0  0  0  0  0  0  0  0  0  0  0  0
   13.4298  -17.4123   24.2863 C   0  0  0  0  0  0  0  0  0  0  0  0
   13.1619  -18.6746   23.7212 O   0  0  0  0  0  0  0  0  0  0  0  0
   14.6270  -17.1318   24.4107 O   0  0  0  0  0  0  0  0  0  0  0  0
  2  3  1  0
  2  1  1  0
  3  4  1  6
  5  6  1  1
  5  3  1  0
  7  5  1  0
  8  7  2  0
  9  7  1  0
 10  9  1  0
 11 10  1  0
 11 12  1  0
 12 13  1  0
 13  9  1  0
 14 15  2  0
 13 14  1  1
 16 14  1  0
 17 16  1  0
 17 24  1  0
 17 18  1  1
 19 18  1  0
 20 19  2  0
 21 22  1  0
 21 20  1  0
 22 23  2  0
 23 19  1  0
 24 26  2  0
 24 25  1  0
M  END
$$$$
