SPM.pdb
     RDKit          3D

 22 22  0  0  1  0  0  0  0  0999 V2000
   17.2843  -16.0061  -16.6038 O   0  0  0  0  0  0  0  0  0  0  0  0
   18.4022  -15.1655  -16.7002 C   0  0  0  0  0  0  0  0  0  0  0  0
   18.7797  -15.0022  -18.1802 C   0  0  2  0  0  0  0  0  0  0  0  0
   19.3851  -16.2907  -18.5486 N   0  0  0  0  0  0  0  0  0  0  0  0
   19.7633  -13.9303  -18.3821 C   0  0  0  0  0  0  0  0  0  0  0  0
   20.9901  -14.2577  -18.4763 O   0  0  0  0  0  0  0  0  0  0  0  0
   19.4433  -12.5470  -18.4814 N   0  0  0  0  0  0  0  0  0  0  0  0
   18.0720  -12.0560  -18.4147 C   0  0  0  0  0  0  0  0  0  0  0  0
   18.1012  -10.7556  -19.2014 C   0  0  0  0  0  0  0  0  0  0  0  0
   19.5356  -10.2662  -19.0458 C   0  0  0  0  0  0  0  0  0  0  0  0
   20.3544  -11.4572  -18.6563 C   0  0  1  0  0  0  0  0  0  0  0  0
   21.1042  -11.1403  -17.4065 C   0  0  0  0  0  0  0  0  0  0  0  0
   20.6284  -11.3579  -16.2839 O   0  0  0  0  0  0  0  0  0  0  0  0
   28.3381  -11.3295  -14.5566 C   0  0  0  0  0  0  0  0  0  0  0  0
   27.1516  -11.4289  -15.8941 S   0  0  0  0  0  0  0  0  0  0  0  0
   25.5615  -10.6582  -15.4976 C   0  0  0  0  0  0  0  0  0  0  0  0
   24.5952  -10.9192  -16.6316 C   0  0  0  0  0  0  0  0  0  0  0  0
   23.2505  -10.2656  -16.3800 C   0  0  2  0  0  0  0  0  0  0  0  0
   22.4018  -10.5726  -17.4968 N   0  0  0  0  0  0  0  0  0  0  0  0
   23.3525   -8.8349  -16.0918 C   0  0  0  0  0  0  0  0  0  0  0  0
   23.4558   -8.0087  -17.0490 O   0  0  0  0  0  0  0  0  0  0  0  0
   23.3459   -8.2948  -14.8180 O   0  0  0  0  0  0  0  0  0  0  0  0
  1  2  1  0
  3  2  1  0
  3  5  1  0
  3  4  1  1
  5  6  2  0
  7  5  1  0
  7 11  1  0
  8  7  1  0
  9  8  1  0
  9 10  1  0
 10 11  1  0
 11 12  1  1
 12 19  1  0
 12 13  2  0
 14 15  1  0
 16 15  1  0
 18 17  1  6
 17 16  1  0
 18 20  1  0
 19 18  1  0
 20 22  1  0
 21 20  2  0
M  END
$$$$
