SPM.pdb
     RDKit          3D

 22 22  0  0  1  0  0  0  0  0999 V2000
   20.7500  -14.7558  -16.8078 O   0  0  0  0  0  0  0  0  0  0  0  0
   20.9251  -13.3690  -16.7003 C   0  0  0  0  0  0  0  0  0  0  0  0
   19.7239  -12.6612  -17.3452 C   0  0  2  0  0  0  0  0  0  0  0  0
   19.8665  -12.9336  -18.7832 N   0  0  0  0  0  0  0  0  0  0  0  0
   19.7559  -11.2098  -17.1224 C   0  0  0  0  0  0  0  0  0  0  0  0
   20.4248  -10.4966  -17.9379 O   0  0  0  0  0  0  0  0  0  0  0  0
   19.0904  -10.5401  -16.0574 N   0  0  0  0  0  0  0  0  0  0  0  0
   18.3222  -11.2544  -15.0446 C   0  0  0  0  0  0  0  0  0  0  0  0
   17.2925  -10.2412  -14.5719 C   0  0  0  0  0  0  0  0  0  0  0  0
   17.9692   -8.8962  -14.8045 C   0  0  0  0  0  0  0  0  0  0  0  0
   19.0558   -9.1314  -15.8067 C   0  0  1  0  0  0  0  0  0  0  0  0
   20.3436   -8.6238  -15.2512 C   0  0  0  0  0  0  0  0  0  0  0  0
   21.0777   -9.3309  -14.5476 O   0  0  0  0  0  0  0  0  0  0  0  0
   26.5500   -4.7480  -17.6120 C   0  0  0  0  0  0  0  0  0  0  0  0
   24.8852   -5.3846  -17.7842 S   0  0  0  0  0  0  0  0  0  0  0  0
   24.1174   -5.8148  -16.2014 C   0  0  0  0  0  0  0  0  0  0  0  0
   22.7732   -6.4552  -16.4678 C   0  0  0  0  0  0  0  0  0  0  0  0
   22.0174   -6.7213  -15.1809 C   0  0  2  0  0  0  0  0  0  0  0  0
   20.7477   -7.2926  -15.5322 N   0  0  0  0  0  0  0  0  0  0  0  0
   21.9164   -5.5426  -14.3201 C   0  0  0  0  0  0  0  0  0  0  0  0
   20.9330   -4.7522  -14.4527 O   0  0  0  0  0  0  0  0  0  0  0  0
   22.8380   -5.2109  -13.3428 O   0  0  0  0  0  0  0  0  0  0  0  0
  1  2  1  0
  3  2  1  0
  3  5  1  0
  3  4  1  6
  5  6  2  0
  7  5  1  0
  7 11  1  0
  8  7  1  0
  9  8  1  0
  9 10  1  0
 10 11  1  0
 11 12  1  1
 12 19  1  0
 12 13  2  0
 14 15  1  0
 16 15  1  0
 18 17  1  6
 17 16  1  0
 18 20  1  0
 19 18  1  0
 20 22  1  0
 21 20  2  0
M  END
$$$$
