SPM.pdb
     RDKit          3D

 22 22  0  0  1  0  0  0  0  0999 V2000
   17.4739  -26.4270  -16.4773 O   0  0  0  0  0  0  0  0  0  0  0  0
   18.1309  -27.1495  -17.4832 C   0  0  0  0  0  0  0  0  0  0  0  0
   19.5837  -26.6609  -17.5831 C   0  0  2  0  0  0  0  0  0  0  0  0
   20.1556  -27.4356  -18.6944 N   0  0  0  0  0  0  0  0  0  0  0  0
   20.3435  -26.9400  -16.3576 C   0  0  0  0  0  0  0  0  0  0  0  0
   20.8175  -28.1119  -16.2044 O   0  0  0  0  0  0  0  0  0  0  0  0
   20.5901  -25.9920  -15.3251 N   0  0  0  0  0  0  0  0  0  0  0  0
   20.0699  -24.6306  -15.3745 C   0  0  0  0  0  0  0  0  0  0  0  0
   21.0525  -23.8239  -14.5412 C   0  0  0  0  0  0  0  0  0  0  0  0
   21.6071  -24.8367  -13.5473 C   0  0  0  0  0  0  0  0  0  0  0  0
   21.3486  -26.1919  -14.1280 C   0  0  1  0  0  0  0  0  0  0  0  0
   20.6148  -27.0157  -13.1241 C   0  0  0  0  0  0  0  0  0  0  0  0
   19.3791  -27.0995  -13.1226 O   0  0  0  0  0  0  0  0  0  0  0  0
   22.3296  -32.8651   -8.0153 C   0  0  0  0  0  0  0  0  0  0  0  0
   22.8009  -31.4074   -8.9424 S   0  0  0  0  0  0  0  0  0  0  0  0
   21.3906  -30.5420   -9.6786 C   0  0  0  0  0  0  0  0  0  0  0  0
   21.9078  -29.4636  -10.6046 C   0  0  0  0  0  0  0  0  0  0  0  0
   20.7775  -28.6317  -11.1780 C   0  0  2  0  0  0  0  0  0  0  0  0
   21.3460  -27.7280  -12.1381 N   0  0  0  0  0  0  0  0  0  0  0  0
   19.9722  -27.9712  -10.1504 C   0  0  0  0  0  0  0  0  0  0  0  0
   20.2678  -26.7934   -9.7836 O   0  0  0  0  0  0  0  0  0  0  0  0
   18.8800  -28.5481   -9.5270 O   0  0  0  0  0  0  0  0  0  0  0  0
  1  2  1  0
  3  2  1  0
  3  5  1  0
  3  4  1  6
  5  6  2  0
  7  5  1  0
  7 11  1  0
  8  7  1  0
  9  8  1  0
  9 10  1  0
 10 11  1  0
 11 12  1  1
 12 19  1  0
 12 13  2  0
 14 15  1  0
 16 15  1  0
 18 17  1  1
 17 16  1  0
 18 20  1  0
 19 18  1  0
 20 22  1  0
 21 20  2  0
M  END
$$$$
