SPM.pdb
     RDKit          3D

 22 22  0  0  1  0  0  0  0  0999 V2000
   24.5868  -17.3564  -13.2789 O   0  0  0  0  0  0  0  0  0  0  0  0
   25.4327  -17.0526  -14.3550 C   0  0  0  0  0  0  0  0  0  0  0  0
   25.4665  -18.2485  -15.3184 C   0  0  2  0  0  0  0  0  0  0  0  0
   24.1119  -18.2985  -15.8885 N   0  0  0  0  0  0  0  0  0  0  0  0
   25.7440  -19.5102  -14.6196 C   0  0  0  0  0  0  0  0  0  0  0  0
   24.7519  -20.2240  -14.2624 O   0  0  0  0  0  0  0  0  0  0  0  0
   27.0463  -19.9951  -14.3122 N   0  0  0  0  0  0  0  0  0  0  0  0
   28.2477  -19.1975  -14.5283 C   0  0  0  0  0  0  0  0  0  0  0  0
   29.3476  -20.2260  -14.7357 C   0  0  0  0  0  0  0  0  0  0  0  0
   28.8661  -21.4399  -13.9510 C   0  0  0  0  0  0  0  0  0  0  0  0
   27.3892  -21.2751  -13.7715 C   0  0  1  0  0  0  0  0  0  0  0  0
   27.0641  -21.3817  -12.3197 C   0  0  0  0  0  0  0  0  0  0  0  0
   27.8929  -21.7803  -11.4902 O   0  0  0  0  0  0  0  0  0  0  0  0
   28.4688  -19.7584   -6.9801 C   0  0  0  0  0  0  0  0  0  0  0  0
   26.9482  -18.9078   -7.3932 S   0  0  0  0  0  0  0  0  0  0  0  0
   25.7668  -19.9496   -8.2869 C   0  0  0  0  0  0  0  0  0  0  0  0
   26.2546  -20.1351   -9.7066 C   0  0  0  0  0  0  0  0  0  0  0  0
   25.3338  -21.0425  -10.4986 C   0  0  2  0  0  0  0  0  0  0  0  0
   25.7693  -21.0174  -11.8666 N   0  0  0  0  0  0  0  0  0  0  0  0
   23.9180  -20.7176  -10.3238 C   0  0  0  0  0  0  0  0  0  0  0  0
   23.2916  -20.1249  -11.2543 O   0  0  0  0  0  0  0  0  0  0  0  0
   23.1855  -21.0141   -9.1881 O   0  0  0  0  0  0  0  0  0  0  0  0
  1  2  1  0
  3  2  1  0
  3  5  1  0
  3  4  1  1
  5  6  2  0
  7  5  1  0
  7 11  1  0
  8  7  1  0
  9  8  1  0
  9 10  1  0
 10 11  1  0
 11 12  1  1
 12 19  1  0
 12 13  2  0
 14 15  1  0
 16 15  1  0
 18 17  1  1
 17 16  1  0
 18 20  1  0
 19 18  1  0
 20 22  1  0
 21 20  2  0
M  END
$$$$
