SPM.pdb
     RDKit          3D

 22 22  0  0  1  0  0  0  0  0999 V2000
   27.9879  -21.5956  -16.4323 O   0  0  0  0  0  0  0  0  0  0  0  0
   26.6810  -22.0266  -16.1645 C   0  0  0  0  0  0  0  0  0  0  0  0
   26.7020  -22.9623  -14.9465 C   0  0  2  0  0  0  0  0  0  0  0  0
   26.8087  -24.3112  -15.5221 N   0  0  0  0  0  0  0  0  0  0  0  0
   25.4654  -22.8688  -14.1595 C   0  0  0  0  0  0  0  0  0  0  0  0
   24.5337  -23.6988  -14.4131 O   0  0  0  0  0  0  0  0  0  0  0  0
   25.2324  -21.9146  -13.1295 N   0  0  0  0  0  0  0  0  0  0  0  0
   26.2304  -20.9248  -12.7416 C   0  0  0  0  0  0  0  0  0  0  0  0
   25.9053  -20.6147  -11.2894 C   0  0  0  0  0  0  0  0  0  0  0  0
   24.4090  -20.8809  -11.1845 C   0  0  0  0  0  0  0  0  0  0  0  0
   24.0501  -21.7666  -12.3367 C   0  0  1  0  0  0  0  0  0  0  0  0
   22.9325  -21.1384  -13.0991 C   0  0  0  0  0  0  0  0  0  0  0  0
   23.1192  -20.1892  -13.8725 O   0  0  0  0  0  0  0  0  0  0  0  0
   15.5265  -23.0325  -15.2829 C   0  0  0  0  0  0  0  0  0  0  0  0
   17.0269  -23.3225  -14.3495 S   0  0  0  0  0  0  0  0  0  0  0  0
   18.1960  -21.9416  -14.4289 C   0  0  0  0  0  0  0  0  0  0  0  0
   19.4385  -22.3072  -13.6476 C   0  0  0  0  0  0  0  0  0  0  0  0
   20.4658  -21.1927  -13.6803 C   0  0  2  0  0  0  0  0  0  0  0  0
   21.6132  -21.6367  -12.9399 N   0  0  0  0  0  0  0  0  0  0  0  0
   19.9330  -19.9073  -13.2284 C   0  0  0  0  0  0  0  0  0  0  0  0
   20.0350  -19.5813  -12.0066 O   0  0  0  0  0  0  0  0  0  0  0  0
   19.3061  -18.9907  -14.0537 O   0  0  0  0  0  0  0  0  0  0  0  0
  1  2  1  0
  3  2  1  0
  3  5  1  0
  3  4  1  6
  5  6  2  0
  7  5  1  0
  7 11  1  0
  8  7  1  0
  9  8  1  0
  9 10  1  0
 10 11  1  0
 11 12  1  6
 12 19  1  0
 12 13  2  0
 14 15  1  0
 16 15  1  0
 18 17  1  1
 17 16  1  0
 18 20  1  0
 19 18  1  0
 20 22  1  0
 21 20  2  0
M  END
$$$$
