SPM.pdb
     RDKit          3D

 22 22  0  0  1  0  0  0  0  0999 V2000
   12.9625  -18.7485    2.6332 O   0  0  0  0  0  0  0  0  0  0  0  0
   14.2635  -18.8070    3.1524 C   0  0  0  0  0  0  0  0  0  0  0  0
   15.2693  -18.6873    1.9977 C   0  0  2  0  0  0  0  0  0  0  0  0
   15.1170  -19.9425    1.2470 N   0  0  0  0  0  0  0  0  0  0  0  0
   16.6518  -18.5777    2.4814 C   0  0  0  0  0  0  0  0  0  0  0  0
   17.3398  -19.6458    2.5655 O   0  0  0  0  0  0  0  0  0  0  0  0
   17.2808  -17.3596    2.8638 N   0  0  0  0  0  0  0  0  0  0  0  0
   16.6181  -16.0665    2.7413 C   0  0  0  0  0  0  0  0  0  0  0  0
   17.7592  -15.0742    2.5867 C   0  0  0  0  0  0  0  0  0  0  0  0
   18.9215  -15.7367    3.3154 C   0  0  0  0  0  0  0  0  0  0  0  0
   18.5970  -17.1955    3.4015 C   0  0  1  0  0  0  0  0  0  0  0  0
   18.6837  -17.6265    4.8268 C   0  0  0  0  0  0  0  0  0  0  0  0
   17.7005  -17.6024    5.5796 O   0  0  0  0  0  0  0  0  0  0  0  0
   20.9058  -23.3657    6.7385 C   0  0  0  0  0  0  0  0  0  0  0  0
   21.9209  -22.1718    7.6049 S   0  0  0  0  0  0  0  0  0  0  0  0
   21.0912  -20.5832    7.8649 C   0  0  0  0  0  0  0  0  0  0  0  0
   20.8836  -19.9146    6.5240 C   0  0  0  0  0  0  0  0  0  0  0  0
   20.1293  -18.6070    6.6637 C   0  0  2  0  0  0  0  0  0  0  0  0
   19.9254  -18.0791    5.3440 N   0  0  0  0  0  0  0  0  0  0  0  0
   20.7734  -17.6678    7.5821 C   0  0  0  0  0  0  0  0  0  0  0  0
   21.7374  -16.9521    7.1723 O   0  0  0  0  0  0  0  0  0  0  0  0
   20.4035  -17.4936    8.9039 O   0  0  0  0  0  0  0  0  0  0  0  0
  1  2  1  0
  3  2  1  0
  3  5  1  0
  3  4  1  6
  5  6  2  0
  7  5  1  0
  7 11  1  0
  8  7  1  0
  9  8  1  0
  9 10  1  0
 10 11  1  0
 11 12  1  1
 12 19  1  0
 12 13  2  0
 14 15  1  0
 16 15  1  0
 18 17  1  6
 17 16  1  0
 18 20  1  0
 19 18  1  0
 20 22  1  0
 21 20  2  0
M  END
$$$$
