SPM.pdb
     RDKit          3D

 22 22  0  0  1  0  0  0  0  0999 V2000
   15.9470  -14.5928  -14.4730 O   0  0  0  0  0  0  0  0  0  0  0  0
   16.8844  -13.5967  -14.7807 C   0  0  0  0  0  0  0  0  0  0  0  0
   16.9883  -13.4615  -16.3073 C   0  0  2  0  0  0  0  0  0  0  0  0
   17.5278  -14.7544  -16.7542 N   0  0  0  0  0  0  0  0  0  0  0  0
   17.9112  -12.3896  -16.7031 C   0  0  0  0  0  0  0  0  0  0  0  0
   19.1258  -12.7009  -16.9246 O   0  0  0  0  0  0  0  0  0  0  0  0
   17.5448  -11.0231  -16.8584 N   0  0  0  0  0  0  0  0  0  0  0  0
   16.1860  -10.5477  -16.6264 C   0  0  0  0  0  0  0  0  0  0  0  0
   16.0661   -9.3131  -17.5050 C   0  0  0  0  0  0  0  0  0  0  0  0
   17.4947   -8.7927  -17.6015 C   0  0  0  0  0  0  0  0  0  0  0  0
   18.3921   -9.9377  -17.2487 C   0  0  1  0  0  0  0  0  0  0  0  0
   19.3089   -9.5127  -16.1516 C   0  0  0  0  0  0  0  0  0  0  0  0
   19.1588   -9.9006  -14.9851 O   0  0  0  0  0  0  0  0  0  0  0  0
   26.5425  -10.4399  -14.6093 C   0  0  0  0  0  0  0  0  0  0  0  0
   25.0438  -10.4953  -15.5877 S   0  0  0  0  0  0  0  0  0  0  0  0
   23.7940   -9.3005  -15.0487 C   0  0  0  0  0  0  0  0  0  0  0  0
   22.5682   -9.4472  -15.9226 C   0  0  0  0  0  0  0  0  0  0  0  0
   21.5187   -8.4047  -15.5905 C   0  0  2  0  0  0  0  0  0  0  0  0
   20.3880   -8.6384  -16.4441 N   0  0  0  0  0  0  0  0  0  0  0  0
   22.0304   -7.0354  -15.6504 C   0  0  0  0  0  0  0  0  0  0  0  0
   22.0105   -6.4066  -16.7520 O   0  0  0  0  0  0  0  0  0  0  0  0
   22.5516   -6.3509  -14.5668 O   0  0  0  0  0  0  0  0  0  0  0  0
  1  2  1  0
  3  2  1  0
  3  5  1  0
  3  4  1  6
  5  6  2  0
  7  5  1  0
  7 11  1  0
  8  7  1  0
  9  8  1  0
  9 10  1  0
 10 11  1  0
 11 12  1  1
 12 19  1  0
 12 13  2  0
 14 15  1  0
 16 15  1  0
 18 17  1  6
 17 16  1  0
 18 20  1  0
 19 18  1  0
 20 22  1  0
 21 20  2  0
M  END
$$$$
