SPM.pdb
     RDKit          3D

 22 22  0  0  1  0  0  0  0  0999 V2000
   22.2565  -20.7520  -18.8342 O   0  0  0  0  0  0  0  0  0  0  0  0
   22.4993  -21.8247  -17.9648 C   0  0  0  0  0  0  0  0  0  0  0  0
   23.3164  -21.3219  -16.7652 C   0  0  2  0  0  0  0  0  0  0  0  0
   24.5971  -22.0370  -16.8680 N   0  0  0  0  0  0  0  0  0  0  0  0
   22.6774  -21.6558  -15.4856 C   0  0  0  0  0  0  0  0  0  0  0  0
   22.8931  -22.8110  -14.9956 O   0  0  0  0  0  0  0  0  0  0  0  0
   21.8319  -20.7781  -14.7503 N   0  0  0  0  0  0  0  0  0  0  0  0
   21.5591  -19.4125  -15.1825 C   0  0  0  0  0  0  0  0  0  0  0  0
   21.2417  -18.6687  -13.8954 C   0  0  0  0  0  0  0  0  0  0  0  0
   20.6792  -19.7477  -12.9787 C   0  0  0  0  0  0  0  0  0  0  0  0
   21.1424  -21.0607  -13.5284 C   0  0  1  0  0  0  0  0  0  0  0  0
   19.9572  -21.9417  -13.7382 C   0  0  0  0  0  0  0  0  0  0  0  0
   19.2496  -21.8580  -14.7512 O   0  0  0  0  0  0  0  0  0  0  0  0
   17.0701  -26.9482   -9.2364 C   0  0  0  0  0  0  0  0  0  0  0  0
   18.1533  -27.2853  -10.6219 S   0  0  0  0  0  0  0  0  0  0  0  0
   17.9137  -26.1467  -12.0097 C   0  0  0  0  0  0  0  0  0  0  0  0
   18.8667  -24.9820  -11.8569 C   0  0  0  0  0  0  0  0  0  0  0  0
   18.5933  -23.8995  -12.8824 C   0  0  2  0  0  0  0  0  0  0  0  0
   19.6233  -22.9075  -12.7532 N   0  0  0  0  0  0  0  0  0  0  0  0
   17.2372  -23.3569  -12.7969 C   0  0  0  0  0  0  0  0  0  0  0  0
   17.0125  -22.3440  -12.0669 O   0  0  0  0  0  0  0  0  0  0  0  0
   16.1462  -23.8780  -13.4696 O   0  0  0  0  0  0  0  0  0  0  0  0
  1  2  1  0
  3  2  1  0
  3  5  1  0
  3  4  1  1
  5  6  2  0
  7  5  1  0
  7 11  1  0
  8  7  1  0
  9  8  1  0
  9 10  1  0
 10 11  1  0
 11 12  1  6
 12 19  1  0
 12 13  2  0
 14 15  1  0
 16 15  1  0
 18 17  1  1
 17 16  1  0
 18 20  1  0
 19 18  1  0
 20 22  1  0
 21 20  2  0
M  END
$$$$
