SPM.pdb
     RDKit          3D

 22 22  0  0  1  0  0  0  0  0999 V2000
   22.9808  -19.5644  -14.0631 O   0  0  0  0  0  0  0  0  0  0  0  0
   23.7822  -19.1926  -15.1517 C   0  0  0  0  0  0  0  0  0  0  0  0
   24.6763  -20.3787  -15.5435 C   0  0  2  0  0  0  0  0  0  0  0  0
   23.7404  -21.3887  -16.0594 N   0  0  0  0  0  0  0  0  0  0  0  0
   25.3952  -20.9309  -14.3879 C   0  0  0  0  0  0  0  0  0  0  0  0
   24.9285  -21.9830  -13.8433 O   0  0  0  0  0  0  0  0  0  0  0  0
   26.5805  -20.3738  -13.8309 N   0  0  0  0  0  0  0  0  0  0  0  0
   27.1871  -19.1527  -14.3479 C   0  0  0  0  0  0  0  0  0  0  0  0
   28.6592  -19.2869  -13.9937 C   0  0  0  0  0  0  0  0  0  0  0  0
   28.6573  -20.1642  -12.7481 C   0  0  0  0  0  0  0  0  0  0  0  0
   27.3442  -20.8826  -12.7326 C   0  0  1  0  0  0  0  0  0  0  0  0
   26.6774  -20.6422  -11.4202 C   0  0  0  0  0  0  0  0  0  0  0  0
   25.8138  -19.7664  -11.2748 O   0  0  0  0  0  0  0  0  0  0  0  0
   27.7523  -19.0570   -4.1197 C   0  0  0  0  0  0  0  0  0  0  0  0
   28.1114  -19.1845   -5.8693 S   0  0  0  0  0  0  0  0  0  0  0  0
   26.9167  -20.2034   -6.7716 C   0  0  0  0  0  0  0  0  0  0  0  0
   27.4521  -20.4704   -8.1608 C   0  0  0  0  0  0  0  0  0  0  0  0
   26.4859  -21.3028   -8.9805 C   0  0  2  0  0  0  0  0  0  0  0  0
   27.0368  -21.4358  -10.2998 N   0  0  0  0  0  0  0  0  0  0  0  0
   25.1192  -20.7810   -8.9614 C   0  0  0  0  0  0  0  0  0  0  0  0
   24.2540  -21.3176   -8.2045 O   0  0  0  0  0  0  0  0  0  0  0  0
   24.6817  -19.7157   -9.7282 O   0  0  0  0  0  0  0  0  0  0  0  0
  1  2  1  0
  3  2  1  0
  3  5  1  0
  3  4  1  1
  5  6  2  0
  7  5  1  0
  7 11  1  0
  8  7  1  0
  9  8  1  0
  9 10  1  0
 10 11  1  0
 11 12  1  1
 12 19  1  0
 12 13  2  0
 14 15  1  0
 16 15  1  0
 18 17  1  1
 17 16  1  0
 18 20  1  0
 19 18  1  0
 20 22  1  0
 21 20  2  0
M  END
$$$$
