SPM.pdb
     RDKit          3D

 22 22  0  0  1  0  0  0  0  0999 V2000
   24.7747  -35.4405    0.9057 O   0  0  0  0  0  0  0  0  0  0  0  0
   23.6965  -36.2555    1.2784 C   0  0  0  0  0  0  0  0  0  0  0  0
   23.9658  -36.8340    2.6756 C   0  0  2  0  0  0  0  0  0  0  0  0
   22.7738  -37.6416    2.9743 N   0  0  0  0  0  0  0  0  0  0  0  0
   24.1030  -35.7808    3.6901 C   0  0  0  0  0  0  0  0  0  0  0  0
   23.0461  -35.1859    4.0778 O   0  0  0  0  0  0  0  0  0  0  0  0
   25.3362  -35.3758    4.2740 N   0  0  0  0  0  0  0  0  0  0  0  0
   26.6001  -36.0338    3.9644 C   0  0  0  0  0  0  0  0  0  0  0  0
   27.4539  -35.8055    5.2012 C   0  0  0  0  0  0  0  0  0  0  0  0
   26.9158  -34.5038    5.7819 C   0  0  0  0  0  0  0  0  0  0  0  0
   25.5435  -34.3168    5.2141 C   0  0  1  0  0  0  0  0  0  0  0  0
   25.4636  -32.9706    4.5768 C   0  0  0  0  0  0  0  0  0  0  0  0
   25.6526  -32.8078    3.3637 O   0  0  0  0  0  0  0  0  0  0  0  0
   20.8902  -26.8042    4.4366 C   0  0  0  0  0  0  0  0  0  0  0  0
   21.4427  -28.3845    5.0721 S   0  0  0  0  0  0  0  0  0  0  0  0
   23.1520  -28.7779    4.6211 C   0  0  0  0  0  0  0  0  0  0  0  0
   23.5172  -30.1211    5.2130 C   0  0  0  0  0  0  0  0  0  0  0  0
   24.9445  -30.5080    4.8793 C   0  0  2  0  0  0  0  0  0  0  0  0
   25.1626  -31.8374    5.3764 N   0  0  0  0  0  0  0  0  0  0  0  0
   25.9287  -29.5331    5.3500 C   0  0  0  0  0  0  0  0  0  0  0  0
   26.3549  -29.5989    6.5430 O   0  0  0  0  0  0  0  0  0  0  0  0
   26.4469  -28.5125    4.5727 O   0  0  0  0  0  0  0  0  0  0  0  0
  1  2  1  0
  3  2  1  0
  3  5  1  0
  3  4  1  1
  5  6  2  0
  7  5  1  0
  7 11  1  0
  8  7  1  0
  9  8  1  0
  9 10  1  0
 10 11  1  0
 11 12  1  6
 12 19  1  0
 12 13  2  0
 14 15  1  0
 16 15  1  0
 18 17  1  1
 17 16  1  0
 18 20  1  0
 19 18  1  0
 20 22  1  0
 21 20  2  0
M  END
$$$$
