HYT.pdb
     RDKit          3D

 30 31  0  0  1  0  0  0  0  0999 V2000
   10.1486  -14.4505   21.0056 N   0  0  0  0  0  0  0  0  0  0  0  0
    8.8151  -14.5817   21.5965 C   0  0  1  0  0  0  0  0  0  0  0  0
    8.0387  -15.5366   20.7267 C   0  0  0  0  0  0  0  0  0  0  0  0
    7.9045  -14.8584   19.3966 C   0  0  0  0  0  0  0  0  0  0  0  0
    7.9263  -13.4742   19.2126 C   0  0  0  0  0  0  0  0  0  0  0  0
    7.7743  -13.2519   17.9011 N   0  0  0  0  0  0  0  0  0  0  0  0
    7.6612  -14.4346   17.2791 C   0  0  0  0  0  0  0  0  0  0  0  0
    7.7394  -15.4123   18.1792 N   0  0  0  0  0  0  0  0  0  0  0  0
    8.9494  -15.0057   22.9792 C   0  0  0  0  0  0  0  0  0  0  0  0
   10.1081  -15.1530   23.4567 O   0  0  0  0  0  0  0  0  0  0  0  0
    6.6500   -9.6860   27.1944 O   0  0  0  0  0  0  0  0  0  0  0  0
    6.6555  -11.0274   26.9083 C   0  0  0  0  0  0  0  0  0  0  0  0
    5.6267  -11.6519   26.2097 C   0  0  0  0  0  0  0  0  0  0  0  0
    5.6617  -12.9928   25.9402 C   0  0  0  0  0  0  0  0  0  0  0  0
    6.7278  -13.8034   26.3509 C   0  0  0  0  0  0  0  0  0  0  0  0
    6.7680  -15.2612   26.0699 C   0  0  0  0  0  0  0  0  0  0  0  0
    7.9647  -15.6413   25.2363 C   0  0  2  0  0  0  0  0  0  0  0  0
    7.8793  -15.2762   23.8697 N   0  0  0  0  0  0  0  0  0  0  0  0
    8.2139  -17.0937   25.3539 C   0  0  0  0  0  0  0  0  0  0  0  0
    7.2863  -17.8696   25.0040 O   0  0  0  0  0  0  0  0  0  0  0  0
    7.7299  -13.1597   27.0384 C   0  0  0  0  0  0  0  0  0  0  0  0
    7.6991  -11.8007   27.3136 C   0  0  0  0  0  0  0  0  0  0  0  0
   10.3331  -19.5190   23.6759 C   0  0  0  0  0  0  0  0  0  0  0  0
   10.7050  -19.6237   25.1307 C   0  0  1  0  0  0  0  0  0  0  0  0
   11.8796  -18.8920   25.3217 O   0  0  0  0  0  0  0  0  0  0  0  0
    9.6005  -19.0891   26.0372 C   0  0  2  0  0  0  0  0  0  0  0  0
    9.4117  -17.6742   25.8247 N   0  0  0  0  0  0  0  0  0  0  0  0
    9.9174  -19.3723   27.4787 C   0  0  0  0  0  0  0  0  0  0  0  0
   10.0956  -18.4842   28.3329 O   0  0  0  0  0  0  0  0  0  0  0  0
   10.0181  -20.7048   27.8864 O   0  0  0  0  0  0  0  0  0  0  0  0
  2  1  1  6
  2  3  1  0
  3  4  1  0
  4  5  2  0
  5  6  1  0
  7  6  1  0
  8  4  1  0
  8  7  2  0
  9  2  1  0
  9 18  1  0
 10  9  2  0
 12 22  2  0
 12 11  1  0
 13 12  1  0
 14 15  1  0
 14 13  2  0
 15 21  2  0
 17 16  1  1
 16 15  1  0
 17 18  1  0
 19 17  1  0
 20 19  2  0
 21 22  1  0
 24 23  1  6
 24 26  1  0
 25 24  1  0
 26 27  1  1
 26 28  1  0
 27 19  1  0
 28 30  1  0
 29 28  2  0
M  END
$$$$
