HYT.pdb
     RDKit          3D

 30 31  0  0  1  0  0  0  0  0999 V2000
    9.8836  -16.6575   18.4445 N   0  0  0  0  0  0  0  0  0  0  0  0
    8.7351  -16.9633   19.3000 C   0  0  1  0  0  0  0  0  0  0  0  0
    8.6095  -18.4642   19.3510 C   0  0  0  0  0  0  0  0  0  0  0  0
    7.7611  -18.8419   18.1742 C   0  0  0  0  0  0  0  0  0  0  0  0
    8.2083  -18.8503   16.8512 C   0  0  0  0  0  0  0  0  0  0  0  0
    7.1742  -19.2327   16.0917 N   0  0  0  0  0  0  0  0  0  0  0  0
    6.1200  -19.4573   16.8895 C   0  0  0  0  0  0  0  0  0  0  0  0
    6.4685  -19.2226   18.1526 N   0  0  0  0  0  0  0  0  0  0  0  0
    8.9283  -16.3345   20.5949 C   0  0  0  0  0  0  0  0  0  0  0  0
   10.0508  -16.4471   21.1604 O   0  0  0  0  0  0  0  0  0  0  0  0
    7.6285  -12.1365   28.2929 O   0  0  0  0  0  0  0  0  0  0  0  0
    7.4340  -12.6540   27.0377 C   0  0  0  0  0  0  0  0  0  0  0  0
    6.7237  -13.8287   26.8100 C   0  0  0  0  0  0  0  0  0  0  0  0
    6.5473  -14.3193   25.5451 C   0  0  0  0  0  0  0  0  0  0  0  0
    7.0693  -13.6698   24.4191 C   0  0  0  0  0  0  0  0  0  0  0  0
    6.8896  -14.2015   23.0440 C   0  0  0  0  0  0  0  0  0  0  0  0
    8.0893  -14.9889   22.5833 C   0  0  2  0  0  0  0  0  0  0  0  0
    7.9555  -15.5856   21.3049 N   0  0  0  0  0  0  0  0  0  0  0  0
    8.4243  -16.0211   23.5872 C   0  0  0  0  0  0  0  0  0  0  0  0
    7.6412  -17.0012   23.6921 O   0  0  0  0  0  0  0  0  0  0  0  0
    7.7658  -12.5118   24.6739 C   0  0  0  0  0  0  0  0  0  0  0  0
    7.9470  -12.0103   25.9542 C   0  0  0  0  0  0  0  0  0  0  0  0
   11.7789  -18.6282   25.9678 C   0  0  0  0  0  0  0  0  0  0  0  0
   11.3118  -17.5952   24.9776 C   0  0  1  0  0  0  0  0  0  0  0  0
   11.2887  -18.1965   23.7169 O   0  0  0  0  0  0  0  0  0  0  0  0
    9.9273  -17.0596   25.3290 C   0  0  2  0  0  0  0  0  0  0  0  0
    9.5549  -15.9918   24.4324 N   0  0  0  0  0  0  0  0  0  0  0  0
    9.8889  -16.5921   26.7568 C   0  0  0  0  0  0  0  0  0  0  0  0
    9.7669  -17.3587   27.7303 O   0  0  0  0  0  0  0  0  0  0  0  0
    9.9961  -15.2223   27.0095 O   0  0  0  0  0  0  0  0  0  0  0  0
  2  1  1  6
  2  3  1  0
  3  4  1  0
  4  5  2  0
  5  6  1  0
  7  6  1  0
  8  4  1  0
  8  7  2  0
  9  2  1  0
  9 18  1  0
 10  9  2  0
 12 22  2  0
 12 11  1  0
 13 12  1  0
 14 15  1  0
 14 13  2  0
 15 21  2  0
 17 16  1  1
 16 15  1  0
 17 18  1  0
 19 17  1  0
 20 19  2  0
 21 22  1  0
 24 23  1  1
 24 26  1  0
 25 24  1  0
 26 27  1  6
 26 28  1  0
 27 19  1  0
 28 30  1  0
 29 28  2  0
M  END
$$$$
