HYT.pdb
     RDKit          3D

 30 31  0  0  1  0  0  0  0  0999 V2000
   10.4661  -13.7292   20.5843 N   0  0  0  0  0  0  0  0  0  0  0  0
    9.2402  -14.3987   21.0239 C   0  0  1  0  0  0  0  0  0  0  0  0
    9.0115  -15.5591   20.0899 C   0  0  0  0  0  0  0  0  0  0  0  0
    8.5760  -14.9549   18.7889 C   0  0  0  0  0  0  0  0  0  0  0  0
    8.5513  -13.5834   18.5267 C   0  0  0  0  0  0  0  0  0  0  0  0
    8.1040  -13.4332   17.2738 N   0  0  0  0  0  0  0  0  0  0  0  0
    7.8557  -14.6476   16.7618 C   0  0  0  0  0  0  0  0  0  0  0  0
    8.1396  -15.5743   17.6743 N   0  0  0  0  0  0  0  0  0  0  0  0
    9.3794  -14.7728   22.4203 C   0  0  0  0  0  0  0  0  0  0  0  0
   10.5341  -14.7923   22.9289 O   0  0  0  0  0  0  0  0  0  0  0  0
    6.4922   -9.9366   27.0088 O   0  0  0  0  0  0  0  0  0  0  0  0
    6.6772  -11.2480   26.6523 C   0  0  0  0  0  0  0  0  0  0  0  0
    7.7591  -12.0027   27.0953 C   0  0  0  0  0  0  0  0  0  0  0  0
    7.9155  -13.3094   26.7212 C   0  0  0  0  0  0  0  0  0  0  0  0
    7.0011  -13.9529   25.8774 C   0  0  0  0  0  0  0  0  0  0  0  0
    7.1694  -15.3683   25.4598 C   0  0  0  0  0  0  0  0  0  0  0  0
    8.4153  -15.5678   24.6354 C   0  0  2  0  0  0  0  0  0  0  0  0
    8.3183  -15.1262   23.2923 N   0  0  0  0  0  0  0  0  0  0  0  0
    8.8133  -16.9911   24.6691 C   0  0  0  0  0  0  0  0  0  0  0  0
    7.9671  -17.8375   24.2785 O   0  0  0  0  0  0  0  0  0  0  0  0
    5.9422  -13.1834   25.4557 C   0  0  0  0  0  0  0  0  0  0  0  0
    5.7792  -11.8587   25.8325 C   0  0  0  0  0  0  0  0  0  0  0  0
   11.2108  -18.9730   22.7994 C   0  0  0  0  0  0  0  0  0  0  0  0
   11.5858  -19.1781   24.2427 C   0  0  1  0  0  0  0  0  0  0  0  0
   12.6658  -18.3378   24.5235 O   0  0  0  0  0  0  0  0  0  0  0  0
   10.4223  -18.8679   25.1794 C   0  0  2  0  0  0  0  0  0  0  0  0
   10.0687  -17.4708   25.1020 N   0  0  0  0  0  0  0  0  0  0  0  0
   10.7645  -19.2520   26.5914 C   0  0  0  0  0  0  0  0  0  0  0  0
   11.0020  -20.4205   26.9500 O   0  0  0  0  0  0  0  0  0  0  0  0
   10.8207  -18.2447   27.5578 O   0  0  0  0  0  0  0  0  0  0  0  0
  2  1  1  6
  2  3  1  0
  3  4  1  0
  4  5  2  0
  5  6  1  0
  7  6  1  0
  8  4  1  0
  8  7  2  0
  9  2  1  0
  9 18  1  0
 10  9  2  0
 12 22  2  0
 12 11  1  0
 13 12  1  0
 14 15  1  0
 14 13  2  0
 15 21  2  0
 17 16  1  6
 16 15  1  0
 17 18  1  0
 19 17  1  0
 20 19  2  0
 21 22  1  0
 24 23  1  6
 24 26  1  0
 25 24  1  0
 26 27  1  1
 26 28  1  0
 27 19  1  0
 28 30  1  0
 29 28  2  0
M  END
$$$$
