HYT.pdb
     RDKit          3D

 30 31  0  0  1  0  0  0  0  0999 V2000
    8.8040  -17.6790   19.4301 N   0  0  0  0  0  0  0  0  0  0  0  0
   10.1288  -17.1865   19.8132 C   0  0  1  0  0  0  0  0  0  0  0  0
   10.7197  -16.5181   18.5986 C   0  0  0  0  0  0  0  0  0  0  0  0
   10.5621  -17.4997   17.4766 C   0  0  0  0  0  0  0  0  0  0  0  0
   11.5980  -18.2845   16.9655 C   0  0  0  0  0  0  0  0  0  0  0  0
   11.0774  -19.0239   15.9782 N   0  0  0  0  0  0  0  0  0  0  0  0
    9.7747  -18.7263   15.8648 C   0  0  0  0  0  0  0  0  0  0  0  0
    9.4556  -17.8035   16.7696 N   0  0  0  0  0  0  0  0  0  0  0  0
    9.9949  -16.3172   20.9690 C   0  0  0  0  0  0  0  0  0  0  0  0
   11.0193  -15.7165   21.3958 O   0  0  0  0  0  0  0  0  0  0  0  0
    6.9169  -11.9158   28.0287 O   0  0  0  0  0  0  0  0  0  0  0  0
    7.0538  -12.5228   26.8064 C   0  0  0  0  0  0  0  0  0  0  0  0
    7.8794  -12.0206   25.8051 C   0  0  0  0  0  0  0  0  0  0  0  0
    7.9942  -12.6498   24.5957 C   0  0  0  0  0  0  0  0  0  0  0  0
    7.2907  -13.8252   24.3025 C   0  0  0  0  0  0  0  0  0  0  0  0
    7.4033  -14.5084   22.9886 C   0  0  0  0  0  0  0  0  0  0  0  0
    8.6462  -15.3561   22.8992 C   0  0  2  0  0  0  0  0  0  0  0  0
    8.7953  -16.0691   21.6836 N   0  0  0  0  0  0  0  0  0  0  0  0
    8.6940  -16.2938   24.0410 C   0  0  0  0  0  0  0  0  0  0  0  0
    7.6876  -17.0260   24.2302 O   0  0  0  0  0  0  0  0  0  0  0  0
    6.4833  -14.2986   25.3100 C   0  0  0  0  0  0  0  0  0  0  0  0
    6.3640  -13.6645   26.5378 C   0  0  0  0  0  0  0  0  0  0  0  0
   10.3915  -19.3037   24.5165 C   0  0  0  0  0  0  0  0  0  0  0  0
   10.8128  -18.4990   25.7168 C   0  0  1  0  0  0  0  0  0  0  0  0
   12.0766  -17.9678   25.4484 O   0  0  0  0  0  0  0  0  0  0  0  0
    9.8254  -17.3765   26.0207 C   0  0  2  0  0  0  0  0  0  0  0  0
    9.7818  -16.4318   24.9305 N   0  0  0  0  0  0  0  0  0  0  0  0
   10.1884  -16.6880   27.3062 C   0  0  0  0  0  0  0  0  0  0  0  0
   10.5220  -15.4904   27.3768 O   0  0  0  0  0  0  0  0  0  0  0  0
   10.1500  -17.4294   28.4897 O   0  0  0  0  0  0  0  0  0  0  0  0
  2  1  1  6
  2  3  1  0
  3  4  1  0
  4  5  2  0
  5  6  1  0
  7  6  1  0
  8  4  1  0
  8  7  2  0
  9  2  1  0
  9 18  1  0
 10  9  2  0
 12 22  2  0
 12 11  1  0
 13 12  1  0
 14 15  1  0
 14 13  2  0
 15 21  2  0
 17 16  1  6
 16 15  1  0
 17 18  1  0
 19 17  1  0
 20 19  2  0
 21 22  1  0
 24 23  1  6
 24 26  1  0
 25 24  1  0
 26 27  1  6
 26 28  1  0
 27 19  1  0
 28 30  1  0
 29 28  2  0
M  END
$$$$
