HYT.pdb
     RDKit          3D

 30 31  0  0  1  0  0  0  0  0999 V2000
   10.4326  -14.0455   19.8324 N   0  0  0  0  0  0  0  0  0  0  0  0
    9.2218  -14.2406   20.6325 C   0  0  1  0  0  0  0  0  0  0  0  0
    8.3419  -15.2013   19.8749 C   0  0  0  0  0  0  0  0  0  0  0  0
    7.9614  -14.4934   18.6094 C   0  0  0  0  0  0  0  0  0  0  0  0
    7.9095  -13.1050   18.4687 C   0  0  0  0  0  0  0  0  0  0  0  0
    7.5285  -12.8538   17.2101 N   0  0  0  0  0  0  0  0  0  0  0  0
    7.3465  -14.0229   16.5789 C   0  0  0  0  0  0  0  0  0  0  0  0
    7.6071  -15.0206   17.4207 N   0  0  0  0  0  0  0  0  0  0  0  0
    9.5991  -14.6940   21.9598 C   0  0  0  0  0  0  0  0  0  0  0  0
   10.5620  -15.5019   22.0718 O   0  0  0  0  0  0  0  0  0  0  0  0
   10.4430  -15.4705   30.7485 O   0  0  0  0  0  0  0  0  0  0  0  0
    9.9726  -15.1349   29.5046 C   0  0  0  0  0  0  0  0  0  0  0  0
    9.0130  -15.8879   28.8348 C   0  0  0  0  0  0  0  0  0  0  0  0
    8.5642  -15.5265   27.5940 C   0  0  0  0  0  0  0  0  0  0  0  0
    9.0439  -14.3868   26.9356 C   0  0  0  0  0  0  0  0  0  0  0  0
    8.5680  -13.9936   25.5848 C   0  0  0  0  0  0  0  0  0  0  0  0
    9.3591  -14.6648   24.4915 C   0  0  2  0  0  0  0  0  0  0  0  0
    8.9773  -14.3075   23.1744 N   0  0  0  0  0  0  0  0  0  0  0  0
    9.2898  -16.1324   24.6544 C   0  0  0  0  0  0  0  0  0  0  0  0
    8.1526  -16.6684   24.5882 O   0  0  0  0  0  0  0  0  0  0  0  0
    9.9905  -13.6620   27.6210 C   0  0  0  0  0  0  0  0  0  0  0  0
   10.4483  -14.0241   28.8791 C   0  0  0  0  0  0  0  0  0  0  0  0
   10.2822  -19.0680   22.7341 C   0  0  0  0  0  0  0  0  0  0  0  0
   10.9950  -19.1958   24.0537 C   0  0  1  0  0  0  0  0  0  0  0  0
   12.3038  -18.7413   23.8742 O   0  0  0  0  0  0  0  0  0  0  0  0
   10.3054  -18.3895   25.1499 C   0  0  2  0  0  0  0  0  0  0  0  0
   10.4003  -16.9760   24.8746 N   0  0  0  0  0  0  0  0  0  0  0  0
   10.8980  -18.7102   26.4932 C   0  0  0  0  0  0  0  0  0  0  0  0
   11.4847  -17.8742   27.2054 O   0  0  0  0  0  0  0  0  0  0  0  0
   10.7859  -20.0175   26.9727 O   0  0  0  0  0  0  0  0  0  0  0  0
  2  1  1  6
  2  3  1  0
  3  4  1  0
  4  5  2  0
  5  6  1  0
  7  6  1  0
  8  4  1  0
  8  7  2  0
  9  2  1  0
  9 18  1  0
 10  9  2  0
 12 22  2  0
 12 11  1  0
 13 12  1  0
 14 15  1  0
 14 13  2  0
 15 21  2  0
 17 16  1  1
 16 15  1  0
 17 18  1  0
 19 17  1  0
 20 19  2  0
 21 22  1  0
 24 23  1  6
 24 26  1  0
 25 24  1  0
 26 27  1  6
 26 28  1  0
 27 19  1  0
 28 30  1  0
 29 28  2  0
M  END
$$$$
