HYT.pdb
     RDKit          3D

 30 31  0  0  1  0  0  0  0  0999 V2000
   10.8123  -17.5711   16.9851 N   0  0  0  0  0  0  0  0  0  0  0  0
   10.4822  -18.1051   18.3081 C   0  0  1  0  0  0  0  0  0  0  0  0
   11.2392  -19.3989   18.4635 C   0  0  0  0  0  0  0  0  0  0  0  0
   10.4360  -20.4311   17.7308 C   0  0  0  0  0  0  0  0  0  0  0  0
    9.0430  -20.5199   17.7718 C   0  0  0  0  0  0  0  0  0  0  0  0
    8.6950  -21.5602   17.0043 N   0  0  0  0  0  0  0  0  0  0  0  0
    9.8098  -22.1079   16.4985 C   0  0  0  0  0  0  0  0  0  0  0  0
   10.8684  -21.4287   16.9345 N   0  0  0  0  0  0  0  0  0  0  0  0
   10.7939  -17.1047   19.3139 C   0  0  0  0  0  0  0  0  0  0  0  0
   11.9178  -16.5327   19.2700 O   0  0  0  0  0  0  0  0  0  0  0  0
    6.8106  -12.1803   17.2720 O   0  0  0  0  0  0  0  0  0  0  0  0
    7.3323  -12.8510   18.3487 C   0  0  0  0  0  0  0  0  0  0  0  0
    6.8696  -14.0993   18.7537 C   0  0  0  0  0  0  0  0  0  0  0  0
    7.4111  -14.7426   19.8329 C   0  0  0  0  0  0  0  0  0  0  0  0
    8.4532  -14.1825   20.5831 C   0  0  0  0  0  0  0  0  0  0  0  0
    9.0396  -14.8710   21.7612 C   0  0  0  0  0  0  0  0  0  0  0  0
   10.2091  -15.7420   21.3801 C   0  0  2  0  0  0  0  0  0  0  0  0
    9.9372  -16.6952   20.3673 N   0  0  0  0  0  0  0  0  0  0  0  0
   10.7374  -16.4220   22.5816 C   0  0  0  0  0  0  0  0  0  0  0  0
    9.9003  -16.8494   23.4191 O   0  0  0  0  0  0  0  0  0  0  0  0
    8.8904  -12.9493   20.1599 C   0  0  0  0  0  0  0  0  0  0  0  0
    8.3449  -12.2933   19.0664 C   0  0  0  0  0  0  0  0  0  0  0  0
   12.1037  -19.6227   22.9646 C   0  0  0  0  0  0  0  0  0  0  0  0
   13.1730  -18.7221   23.5226 C   0  0  1  0  0  0  0  0  0  0  0  0
   14.1224  -18.5187   22.5183 O   0  0  0  0  0  0  0  0  0  0  0  0
   12.6024  -17.3846   23.9840 C   0  0  2  0  0  0  0  0  0  0  0  0
   12.1062  -16.6304   22.8580 N   0  0  0  0  0  0  0  0  0  0  0  0
   13.6407  -16.5984   24.7340 C   0  0  0  0  0  0  0  0  0  0  0  0
   14.1578  -15.5513   24.3023 O   0  0  0  0  0  0  0  0  0  0  0  0
   14.0504  -17.0652   25.9854 O   0  0  0  0  0  0  0  0  0  0  0  0
  2  1  1  6
  2  3  1  0
  3  4  1  0
  4  5  2  0
  5  6  1  0
  7  6  1  0
  8  4  1  0
  8  7  2  0
  9  2  1  0
  9 18  1  0
 10  9  2  0
 12 22  2  0
 12 11  1  0
 13 12  1  0
 14 15  1  0
 14 13  2  0
 15 21  2  0
 17 16  1  1
 16 15  1  0
 17 18  1  0
 19 17  1  0
 20 19  2  0
 21 22  1  0
 24 23  1  6
 24 26  1  0
 25 24  1  0
 26 27  1  6
 26 28  1  0
 27 19  1  0
 28 30  1  0
 29 28  2  0
M  END
$$$$
