HYT.pdb
     RDKit          3D

 30 31  0  0  1  0  0  0  0  0999 V2000
   15.0149  -20.1002   12.2540 N   0  0  0  0  0  0  0  0  0  0  0  0
   14.5385  -19.8672   13.6190 C   0  0  1  0  0  0  0  0  0  0  0  0
   13.2233  -20.5900   13.7572 C   0  0  0  0  0  0  0  0  0  0  0  0
   12.2326  -19.7869   12.9693 C   0  0  0  0  0  0  0  0  0  0  0  0
   12.0555  -18.4077   13.0994 C   0  0  0  0  0  0  0  0  0  0  0  0
   11.0882  -18.0556   12.2435 N   0  0  0  0  0  0  0  0  0  0  0  0
   10.6689  -19.1544   11.5992 C   0  0  0  0  0  0  0  0  0  0  0  0
   11.3581  -20.2071   12.0340 N   0  0  0  0  0  0  0  0  0  0  0  0
   15.5599  -20.2983   14.5573 C   0  0  0  0  0  0  0  0  0  0  0  0
   16.1676  -21.3814   14.3341 O   0  0  0  0  0  0  0  0  0  0  0  0
   21.2776  -19.8264   11.9313 O   0  0  0  0  0  0  0  0  0  0  0  0
   20.5458  -19.6699   13.0808 C   0  0  0  0  0  0  0  0  0  0  0  0
   20.6861  -20.5089   14.1821 C   0  0  0  0  0  0  0  0  0  0  0  0
   19.9407  -20.3264   15.3147 C   0  0  0  0  0  0  0  0  0  0  0  0
   19.0023  -19.2923   15.4253 C   0  0  0  0  0  0  0  0  0  0  0  0
   18.1831  -19.0938   16.6482 C   0  0  0  0  0  0  0  0  0  0  0  0
   16.9599  -19.9742   16.6557 C   0  0  2  0  0  0  0  0  0  0  0  0
   15.9533  -19.6037   15.7295 N   0  0  0  0  0  0  0  0  0  0  0  0
   16.3925  -20.0287   18.0196 C   0  0  0  0  0  0  0  0  0  0  0  0
   15.8930  -18.9691   18.4808 O   0  0  0  0  0  0  0  0  0  0  0  0
   18.8853  -18.4789   14.3226 C   0  0  0  0  0  0  0  0  0  0  0  0
   19.6390  -18.6597   13.1724 C   0  0  0  0  0  0  0  0  0  0  0  0
   13.5794  -22.3147   19.3636 C   0  0  0  0  0  0  0  0  0  0  0  0
   14.8143  -22.4700   20.2102 C   0  0  1  0  0  0  0  0  0  0  0  0
   15.4992  -23.6002   19.7572 O   0  0  0  0  0  0  0  0  0  0  0  0
   15.7157  -21.2420   20.1271 C   0  0  2  0  0  0  0  0  0  0  0  0
   16.3658  -21.1774   18.8403 N   0  0  0  0  0  0  0  0  0  0  0  0
   16.7308  -21.2564   21.2351 C   0  0  0  0  0  0  0  0  0  0  0  0
   17.9598  -21.3132   21.0437 O   0  0  0  0  0  0  0  0  0  0  0  0
   16.2738  -21.2028   22.5542 O   0  0  0  0  0  0  0  0  0  0  0  0
  2  1  1  6
  2  3  1  0
  3  4  1  0
  4  5  2  0
  5  6  1  0
  7  6  1  0
  8  4  1  0
  8  7  2  0
  9  2  1  0
  9 18  1  0
 10  9  2  0
 12 22  2  0
 12 11  1  0
 13 12  1  0
 14 15  1  0
 14 13  2  0
 15 21  2  0
 17 16  1  1
 16 15  1  0
 17 18  1  0
 19 17  1  0
 20 19  2  0
 21 22  1  0
 24 23  1  6
 24 26  1  0
 25 24  1  0
 26 27  1  6
 26 28  1  0
 27 19  1  0
 28 30  1  0
 29 28  2  0
M  END
$$$$
