ANN.pdb
     RDKit          3D

 22 21  0  0  1  0  0  0  0  0999 V2000
   13.8123  -10.7008  -14.8745 C   0  0  0  0  0  0  0  0  0  0  0  0
   15.0557  -10.3932  -14.0685 C   0  0  2  0  0  0  0  0  0  0  0  0
   15.6776  -11.6229  -13.6403 N   0  0  0  0  0  0  0  0  0  0  0  0
   14.6188   -9.5646  -12.9047 C   0  0  0  0  0  0  0  0  0  0  0  0
   14.0402   -8.4779  -13.1414 O   0  0  0  0  0  0  0  0  0  0  0  0
   11.6552  -10.0234  -10.7726 N   0  0  0  0  0  0  0  0  0  0  0  0
   12.4059  -10.5658   -9.6944 C   0  0  0  0  0  0  0  0  0  0  0  0
   11.8308  -11.4098   -8.9595 O   0  0  0  0  0  0  0  0  0  0  0  0
   13.7980  -10.1779   -9.4206 C   0  0  0  0  0  0  0  0  0  0  0  0
   14.3558   -9.2160  -10.4149 C   0  0  2  0  0  0  0  0  0  0  0  0
   14.8258   -9.9458  -11.5651 N   0  0  0  0  0  0  0  0  0  0  0  0
   15.5432   -8.4939   -9.8485 C   0  0  0  0  0  0  0  0  0  0  0  0
   16.4979   -9.1399   -9.3262 O   0  0  0  0  0  0  0  0  0  0  0  0
   19.2390   -5.1274   -8.5873 N   0  0  0  0  0  0  0  0  0  0  0  0
   19.2208   -5.9020   -9.7639 C   0  0  0  0  0  0  0  0  0  0  0  0
   20.2540   -5.9249  -10.4721 O   0  0  0  0  0  0  0  0  0  0  0  0
   18.0493   -6.6652  -10.1705 C   0  0  0  0  0  0  0  0  0  0  0  0
   16.8050   -6.3468   -9.3803 C   0  0  2  0  0  0  0  0  0  0  0  0
   15.6554   -7.0847   -9.8679 N   0  0  0  0  0  0  0  0  0  0  0  0
   16.5336   -4.8978   -9.3050 C   0  0  0  0  0  0  0  0  0  0  0  0
   17.3237   -4.1422   -8.6946 O   0  0  0  0  0  0  0  0  0  0  0  0
   15.4209   -4.3295   -9.8920 O   0  0  0  0  0  0  0  0  0  0  0  0
  2  1  1  6
  2  4  1  0
  2  3  1  0
  4 11  1  0
  5  4  2  0
  7  6  1  0
  7  8  2  0
  9  7  1  0
 10  9  1  1
 10 12  1  0
 11 10  1  0
 12 19  1  0
 12 13  2  0
 15 14  1  0
 15 17  1  0
 16 15  2  0
 18 17  1  6
 18 20  1  0
 19 18  1  0
 20 22  1  0
 21 20  2  0
M  END
$$$$
