ANN.pdb
     RDKit          3D

 22 21  0  0  1  0  0  0  0  0999 V2000
   17.4198  -13.4385  -17.2799 C   0  0  0  0  0  0  0  0  0  0  0  0
   17.7138  -12.7494  -15.9651 C   0  0  2  0  0  0  0  0  0  0  0  0
   16.6881  -13.0731  -15.0031 N   0  0  0  0  0  0  0  0  0  0  0  0
   17.7574  -11.2834  -16.2489 C   0  0  0  0  0  0  0  0  0  0  0  0
   17.6532  -10.9125  -17.4420 O   0  0  0  0  0  0  0  0  0  0  0  0
   17.1684   -6.1306  -15.7477 N   0  0  0  0  0  0  0  0  0  0  0  0
   16.4129   -6.9235  -14.8417 C   0  0  0  0  0  0  0  0  0  0  0  0
   15.5105   -6.3441  -14.1836 O   0  0  0  0  0  0  0  0  0  0  0  0
   16.6507   -8.3632  -14.6563 C   0  0  0  0  0  0  0  0  0  0  0  0
   17.8000   -8.8852  -15.4510 C   0  0  2  0  0  0  0  0  0  0  0  0
   17.9087  -10.3073  -15.2455 N   0  0  0  0  0  0  0  0  0  0  0  0
   19.0907   -8.2820  -14.9792 C   0  0  0  0  0  0  0  0  0  0  0  0
   19.8793   -8.9468  -14.2458 O   0  0  0  0  0  0  0  0  0  0  0  0
   24.1193   -7.1875  -15.0738 N   0  0  0  0  0  0  0  0  0  0  0  0
   23.1735   -6.6426  -15.9646 C   0  0  0  0  0  0  0  0  0  0  0  0
   23.5301   -5.6880  -16.6934 O   0  0  0  0  0  0  0  0  0  0  0  0
   21.8135   -7.1540  -16.0581 C   0  0  0  0  0  0  0  0  0  0  0  0
   20.8291   -6.4473  -15.1606 C   0  0  2  0  0  0  0  0  0  0  0  0
   19.4851   -6.9683  -15.3216 N   0  0  0  0  0  0  0  0  0  0  0  0
   20.8695   -4.9798  -15.3152 C   0  0  0  0  0  0  0  0  0  0  0  0
   20.0865   -4.4106  -16.1094 O   0  0  0  0  0  0  0  0  0  0  0  0
   21.7539   -4.1926  -14.6054 O   0  0  0  0  0  0  0  0  0  0  0  0
  2  1  1  6
  2  4  1  0
  2  3  1  0
  4 11  1  0
  5  4  2  0
  7  6  1  0
  7  8  2  0
  9  7  1  0
 10  9  1  1
 10 12  1  0
 11 10  1  0
 12 19  1  0
 12 13  2  0
 15 14  1  0
 15 17  1  0
 16 15  2  0
 18 17  1  6
 18 20  1  0
 19 18  1  0
 20 22  1  0
 21 20  2  0
M  END
$$$$
