ANN.pdb
     RDKit          3D

 22 21  0  0  1  0  0  0  0  0999 V2000
   16.7265  -30.1844   -8.7866 C   0  0  0  0  0  0  0  0  0  0  0  0
   17.1723  -28.8142   -9.2492 C   0  0  2  0  0  0  0  0  0  0  0  0
   18.0747  -28.9452  -10.3675 N   0  0  0  0  0  0  0  0  0  0  0  0
   17.8367  -28.1617   -8.0810 C   0  0  0  0  0  0  0  0  0  0  0  0
   18.8794  -28.6899   -7.6276 O   0  0  0  0  0  0  0  0  0  0  0  0
   18.5818  -23.8577   -8.9326 N   0  0  0  0  0  0  0  0  0  0  0  0
   18.8979  -24.2760   -7.6114 C   0  0  0  0  0  0  0  0  0  0  0  0
   20.0995  -24.1836   -7.2501 O   0  0  0  0  0  0  0  0  0  0  0  0
   17.8871  -24.8005   -6.6804 C   0  0  0  0  0  0  0  0  0  0  0  0
   18.0170  -26.2637   -6.4213 C   0  0  2  0  0  0  0  0  0  0  0  0
   17.3489  -26.9901   -7.4713 N   0  0  0  0  0  0  0  0  0  0  0  0
   17.3364  -26.6392   -5.1375 C   0  0  0  0  0  0  0  0  0  0  0  0
   16.1247  -27.0046   -5.1367 O   0  0  0  0  0  0  0  0  0  0  0  0
   17.3015  -28.8760   -0.0103 N   0  0  0  0  0  0  0  0  0  0  0  0
   17.8623  -27.6098   -0.2698 C   0  0  0  0  0  0  0  0  0  0  0  0
   17.8717  -26.7670    0.6571 O   0  0  0  0  0  0  0  0  0  0  0  0
   18.4228  -27.2625   -1.5679 C   0  0  0  0  0  0  0  0  0  0  0  0
   17.3876  -26.9764   -2.6266 C   0  0  2  0  0  0  0  0  0  0  0  0
   17.9983  -26.6053   -3.8888 N   0  0  0  0  0  0  0  0  0  0  0  0
   16.3863  -25.9835   -2.1902 C   0  0  0  0  0  0  0  0  0  0  0  0
   16.4574  -24.8007   -2.5949 O   0  0  0  0  0  0  0  0  0  0  0  0
   15.3530  -26.3123   -1.3359 O   0  0  0  0  0  0  0  0  0  0  0  0
  2  1  1  1
  2  4  1  0
  2  3  1  0
  4 11  1  0
  5  4  2  0
  7  6  1  0
  7  8  2  0
  9  7  1  0
 10  9  1  6
 10 12  1  0
 11 10  1  0
 12 19  1  0
 12 13  2  0
 15 14  1  0
 15 17  1  0
 16 15  2  0
 18 17  1  1
 18 20  1  0
 19 18  1  0
 20 22  1  0
 21 20  2  0
M  END
$$$$
