ANN.pdb
     RDKit          3D

 22 21  0  0  1  0  0  0  0  0999 V2000
   27.7570  -19.9838  -15.3003 C   0  0  0  0  0  0  0  0  0  0  0  0
   26.4343  -19.2811  -15.0836 C   0  0  2  0  0  0  0  0  0  0  0  0
   26.6452  -18.0579  -14.3478 N   0  0  0  0  0  0  0  0  0  0  0  0
   25.5617  -20.2313  -14.3304 C   0  0  0  0  0  0  0  0  0  0  0  0
   25.3482  -21.3591  -14.8349 O   0  0  0  0  0  0  0  0  0  0  0  0
   26.5646  -21.9665  -11.5394 N   0  0  0  0  0  0  0  0  0  0  0  0
   25.7592  -21.3069  -10.5716 C   0  0  0  0  0  0  0  0  0  0  0  0
   26.2055  -21.2445   -9.3969 O   0  0  0  0  0  0  0  0  0  0  0  0
   24.4536  -20.7123  -10.8961 C   0  0  0  0  0  0  0  0  0  0  0  0
   24.1037  -20.7947  -12.3437 C   0  0  2  0  0  0  0  0  0  0  0  0
   24.9729  -19.9204  -13.0898 N   0  0  0  0  0  0  0  0  0  0  0  0
   22.7022  -20.3132  -12.5807 C   0  0  0  0  0  0  0  0  0  0  0  0
   22.4673  -19.0816  -12.7530 O   0  0  0  0  0  0  0  0  0  0  0  0
   18.0706  -20.2007  -14.8215 N   0  0  0  0  0  0  0  0  0  0  0  0
   19.3394  -20.1042  -15.4264 C   0  0  0  0  0  0  0  0  0  0  0  0
   19.3983  -19.7191  -16.6170 O   0  0  0  0  0  0  0  0  0  0  0  0
   20.5646  -20.4354  -14.7128 C   0  0  0  0  0  0  0  0  0  0  0  0
   20.3428  -20.8995  -13.2952 C   0  0  2  0  0  0  0  0  0  0  0  0
   21.5946  -21.1908  -12.6231 N   0  0  0  0  0  0  0  0  0  0  0  0
   19.3983  -22.0306  -13.2076 C   0  0  0  0  0  0  0  0  0  0  0  0
   18.2699  -21.8674  -12.6901 O   0  0  0  0  0  0  0  0  0  0  0  0
   19.7148  -23.2875  -13.6827 O   0  0  0  0  0  0  0  0  0  0  0  0
  2  1  1  1
  2  4  1  0
  2  3  1  0
  4 11  1  0
  5  4  2  0
  7  6  1  0
  7  8  2  0
  9  7  1  0
 10  9  1  1
 10 12  1  0
 11 10  1  0
 12 19  1  0
 12 13  2  0
 15 14  1  0
 15 17  1  0
 16 15  2  0
 18 17  1  6
 18 20  1  0
 19 18  1  0
 20 22  1  0
 21 20  2  0
M  END
$$$$
