ANN.pdb
     RDKit          3D

 22 21  0  0  1  0  0  0  0  0999 V2000
   29.1074  -34.6972   -4.5556 C   0  0  0  0  0  0  0  0  0  0  0  0
   27.6001  -34.6016   -4.4603 C   0  0  2  0  0  0  0  0  0  0  0  0
   27.0417  -34.3599   -5.7687 N   0  0  0  0  0  0  0  0  0  0  0  0
   27.2995  -33.4809   -3.5194 C   0  0  0  0  0  0  0  0  0  0  0  0
   27.3533  -32.3099   -3.9641 O   0  0  0  0  0  0  0  0  0  0  0  0
   23.5086  -30.9102   -1.5329 N   0  0  0  0  0  0  0  0  0  0  0  0
   23.5549  -32.3306   -1.5107 C   0  0  0  0  0  0  0  0  0  0  0  0
   22.6139  -32.9284   -0.9274 O   0  0  0  0  0  0  0  0  0  0  0  0
   24.6430  -33.1003   -2.1328 C   0  0  0  0  0  0  0  0  0  0  0  0
   25.9577  -32.9353   -1.4478 C   0  0  2  0  0  0  0  0  0  0  0  0
   26.9612  -33.6784   -2.1670 N   0  0  0  0  0  0  0  0  0  0  0  0
   25.9104  -33.5067   -0.0608 C   0  0  0  0  0  0  0  0  0  0  0  0
   25.9333  -34.7593    0.1182 O   0  0  0  0  0  0  0  0  0  0  0  0
   28.3556  -32.5092    3.3083 N   0  0  0  0  0  0  0  0  0  0  0  0
   27.2652  -31.7696    3.8072 C   0  0  0  0  0  0  0  0  0  0  0  0
   27.5055  -30.8014    4.5650 O   0  0  0  0  0  0  0  0  0  0  0  0
   25.8875  -32.0973    3.4685 C   0  0  0  0  0  0  0  0  0  0  0  0
   25.7519  -33.2007    2.4496 C   0  0  2  0  0  0  0  0  0  0  0  0
   25.8394  -32.6937    1.0936 N   0  0  0  0  0  0  0  0  0  0  0  0
   24.5382  -34.0163    2.6518 C   0  0  0  0  0  0  0  0  0  0  0  0
   23.4559  -33.6724    2.1244 O   0  0  0  0  0  0  0  0  0  0  0  0
   24.5475  -35.1667    3.4148 O   0  0  0  0  0  0  0  0  0  0  0  0
  2  1  1  6
  2  4  1  0
  2  3  1  0
  4 11  1  0
  5  4  2  0
  7  6  1  0
  7  8  2  0
  9  7  1  0
 10  9  1  6
 10 12  1  0
 11 10  1  0
 12 19  1  0
 12 13  2  0
 15 14  1  0
 15 17  1  0
 16 15  2  0
 18 17  1  1
 18 20  1  0
 19 18  1  0
 20 22  1  0
 21 20  2  0
M  END
$$$$
