ANN.pdb
     RDKit          3D

 22 21  0  0  1  0  0  0  0  0999 V2000
   17.3954   -9.7564  -18.8412 C   0  0  0  0  0  0  0  0  0  0  0  0
   18.6425  -10.6101  -18.9203 C   0  0  2  0  0  0  0  0  0  0  0  0
   18.2963  -11.9993  -18.7410 N   0  0  0  0  0  0  0  0  0  0  0  0
   19.5606  -10.1297  -17.8441 C   0  0  0  0  0  0  0  0  0  0  0  0
   19.2063  -10.2943  -16.6528 O   0  0  0  0  0  0  0  0  0  0  0  0
   22.9279  -11.1014  -15.4256 N   0  0  0  0  0  0  0  0  0  0  0  0
   23.6213  -10.6833  -16.5938 C   0  0  0  0  0  0  0  0  0  0  0  0
   24.7223  -11.2401  -16.8402 O   0  0  0  0  0  0  0  0  0  0  0  0
   23.1022   -9.6455  -17.4977 C   0  0  0  0  0  0  0  0  0  0  0  0
   21.7600   -9.1279  -17.1032 C   0  0  2  0  0  0  0  0  0  0  0  0
   20.7955   -9.5057  -18.1050 N   0  0  0  0  0  0  0  0  0  0  0  0
   21.7622   -7.6281  -17.0516 C   0  0  0  0  0  0  0  0  0  0  0  0
   21.8197   -6.9494  -18.1183 O   0  0  0  0  0  0  0  0  0  0  0  0
   21.3542   -2.6087  -16.0921 N   0  0  0  0  0  0  0  0  0  0  0  0
   20.2745   -3.4350  -15.7227 C   0  0  0  0  0  0  0  0  0  0  0  0
   19.2439   -2.8902  -15.2637 O   0  0  0  0  0  0  0  0  0  0  0  0
   20.3258   -4.8836  -15.8595 C   0  0  0  0  0  0  0  0  0  0  0  0
   21.7127   -5.4629  -15.7360 C   0  0  2  0  0  0  0  0  0  0  0  0
   21.7014   -6.9099  -15.8354 N   0  0  0  0  0  0  0  0  0  0  0  0
   22.4157   -5.0030  -14.5223 C   0  0  0  0  0  0  0  0  0  0  0  0
   22.3701   -5.6860  -13.4737 O   0  0  0  0  0  0  0  0  0  0  0  0
   23.1364   -3.8260  -14.4949 O   0  0  0  0  0  0  0  0  0  0  0  0
  2  1  1  1
  2  4  1  0
  2  3  1  0
  4 11  1  0
  5  4  2  0
  7  6  1  0
  7  8  2  0
  9  7  1  0
 10  9  1  6
 10 12  1  0
 11 10  1  0
 12 19  1  0
 12 13  2  0
 15 14  1  0
 15 17  1  0
 16 15  2  0
 18 17  1  1
 18 20  1  0
 19 18  1  0
 20 22  1  0
 21 20  2  0
M  END
$$$$
