TEV.pdb
     RDKit          3D

 24 23  0  0  1  0  0  0  0  0999 V2000
    8.8019  -12.9025   18.2124 C   0  0  0  0  0  0  0  0  0  0  0  0
    8.7197  -13.3888   19.6484 C   0  0  1  0  0  0  0  0  0  0  0  0
    8.0750  -12.4932   20.4664 O   0  0  0  0  0  0  0  0  0  0  0  0
    8.0367  -14.7377   19.7532 C   0  0  2  0  0  0  0  0  0  0  0  0
    6.6983  -14.6830   19.1761 N   0  0  0  0  0  0  0  0  0  0  0  0
    7.8930  -15.2067   21.1538 C   0  0  0  0  0  0  0  0  0  0  0  0
    6.8498  -14.9565   21.8149 O   0  0  0  0  0  0  0  0  0  0  0  0
    8.8939  -15.9533   21.8357 N   0  0  0  0  0  0  0  0  0  0  0  0
    8.7002  -16.4480   23.1979 C   0  0  1  0  0  0  0  0  0  0  0  0
    9.7496  -17.4930   23.4483 C   0  0  0  0  0  0  0  0  0  0  0  0
    9.6945  -18.1221   24.7969 C   0  0  0  0  0  0  0  0  0  0  0  0
   10.8068  -19.0557   24.9961 C   0  0  0  0  0  0  0  0  0  0  0  0
   11.6766  -19.2512   24.1296 O   0  0  0  0  0  0  0  0  0  0  0  0
    8.9128  -15.3497   24.1833 C   0  0  0  0  0  0  0  0  0  0  0  0
    9.8818  -14.5719   24.0145 O   0  0  0  0  0  0  0  0  0  0  0  0
   10.8881  -19.7448   26.1973 O   0  0  0  0  0  0  0  0  0  0  0  0
    7.2914  -12.1337   27.3969 C   0  0  0  0  0  0  0  0  0  0  0  0
    7.0204  -13.2439   26.4270 C   0  0  1  0  0  0  0  0  0  0  0  0
    6.4199  -12.6984   25.1670 C   0  0  0  0  0  0  0  0  0  0  0  0
    8.2891  -14.0435   26.1780 C   0  0  2  0  0  0  0  0  0  0  0  0
    8.0615  -15.1598   25.2950 N   0  0  0  0  0  0  0  0  0  0  0  0
    8.8412  -14.4626   27.4783 C   0  0  0  0  0  0  0  0  0  0  0  0
    9.3666  -13.5196   28.3380 O   0  0  0  0  0  0  0  0  0  0  0  0
    8.8467  -15.6660   27.8282 O   0  0  0  0  0  0  0  0  0  0  0  0
  2  1  1  6
  2  4  1  0
  2  3  1  0
  4  5  1  1
  6  8  1  0
  6  4  1  0
  7  6  2  0
  9  8  1  0
 10 11  1  0
  9 10  1  1
 12 11  1  0
 13 12  2  0
 14  9  1  0
 14 21  1  0
 15 14  2  0
 16 12  1  0
 18 20  1  0
 18 17  1  1
 19 18  1  0
 20 21  1  6
 20 22  1  0
 22 24  2  0
 22 23  1  0
M  END
$$$$
