TEV.pdb
     RDKit          3D

 24 23  0  0  1  0  0  0  0  0999 V2000
    8.9593  -12.5011   18.1678 C   0  0  0  0  0  0  0  0  0  0  0  0
    8.5963  -13.0020   19.5543 C   0  0  1  0  0  0  0  0  0  0  0  0
    7.5278  -12.3252   20.0903 O   0  0  0  0  0  0  0  0  0  0  0  0
    8.2970  -14.4877   19.5614 C   0  0  2  0  0  0  0  0  0  0  0  0
    7.1545  -14.7867   18.7054 N   0  0  0  0  0  0  0  0  0  0  0  0
    7.9810  -15.0082   20.9147 C   0  0  0  0  0  0  0  0  0  0  0  0
    6.7927  -15.0407   21.3329 O   0  0  0  0  0  0  0  0  0  0  0  0
    8.9680  -15.4964   21.8157 N   0  0  0  0  0  0  0  0  0  0  0  0
    8.6260  -15.9885   23.1494 C   0  0  1  0  0  0  0  0  0  0  0  0
    9.5232  -17.1579   23.4388 C   0  0  0  0  0  0  0  0  0  0  0  0
    9.2994  -17.8037   24.7618 C   0  0  0  0  0  0  0  0  0  0  0  0
   10.2304  -18.9149   24.9775 C   0  0  0  0  0  0  0  0  0  0  0  0
   11.3943  -18.9040   24.5408 O   0  0  0  0  0  0  0  0  0  0  0  0
    8.9031  -14.9424   24.1747 C   0  0  0  0  0  0  0  0  0  0  0  0
    9.8892  -14.1858   24.0081 O   0  0  0  0  0  0  0  0  0  0  0  0
    9.7926  -20.0179   25.6960 O   0  0  0  0  0  0  0  0  0  0  0  0
    6.9300  -12.0697   25.0929 C   0  0  0  0  0  0  0  0  0  0  0  0
    7.2112  -12.7536   26.3966 C   0  0  1  0  0  0  0  0  0  0  0  0
    5.9738  -13.4266   26.9081 C   0  0  0  0  0  0  0  0  0  0  0  0
    8.3831  -13.7100   26.2446 C   0  0  2  0  0  0  0  0  0  0  0  0
    8.0942  -14.7787   25.3215 N   0  0  0  0  0  0  0  0  0  0  0  0
    8.7557  -14.2098   27.5798 C   0  0  0  0  0  0  0  0  0  0  0  0
    9.2984  -13.3467   28.5099 O   0  0  0  0  0  0  0  0  0  0  0  0
    8.5915  -15.4110   27.8967 O   0  0  0  0  0  0  0  0  0  0  0  0
  2  1  1  6
  2  4  1  0
  2  3  1  0
  4  5  1  6
  6  8  1  0
  6  4  1  0
  7  6  2  0
  9  8  1  0
 10 11  1  0
  9 10  1  1
 12 11  1  0
 13 12  2  0
 14  9  1  0
 14 21  1  0
 15 14  2  0
 16 12  1  0
 18 20  1  0
 18 17  1  6
 19 18  1  0
 20 21  1  6
 20 22  1  0
 22 24  2  0
 22 23  1  0
M  END
$$$$
