TEV.pdb
     RDKit          3D

 24 23  0  0  1  0  0  0  0  0999 V2000
    8.5286  -12.9988   18.5059 C   0  0  0  0  0  0  0  0  0  0  0  0
    8.5576  -13.5577   19.9172 C   0  0  1  0  0  0  0  0  0  0  0  0
    8.0459  -12.6761   20.8380 O   0  0  0  0  0  0  0  0  0  0  0  0
    7.8129  -14.8735   20.0227 C   0  0  2  0  0  0  0  0  0  0  0  0
    6.4353  -14.7231   19.5677 N   0  0  0  0  0  0  0  0  0  0  0  0
    7.7633  -15.4013   21.4088 C   0  0  0  0  0  0  0  0  0  0  0  0
    6.7597  -15.1958   22.1426 O   0  0  0  0  0  0  0  0  0  0  0  0
    8.8152  -16.1580   21.9962 N   0  0  0  0  0  0  0  0  0  0  0  0
    8.7528  -16.6314   23.3782 C   0  0  1  0  0  0  0  0  0  0  0  0
    9.8242  -17.6709   23.5443 C   0  0  0  0  0  0  0  0  0  0  0  0
    9.8708  -18.3097   24.8886 C   0  0  0  0  0  0  0  0  0  0  0  0
   10.9830  -19.2590   24.9901 C   0  0  0  0  0  0  0  0  0  0  0  0
   10.9290  -20.2755   25.7038 O   0  0  0  0  0  0  0  0  0  0  0  0
    9.0544  -15.5175   24.3218 C   0  0  0  0  0  0  0  0  0  0  0  0
    9.9966  -14.7370   24.0466 O   0  0  0  0  0  0  0  0  0  0  0  0
   12.1368  -19.0100   24.2612 O   0  0  0  0  0  0  0  0  0  0  0  0
    7.6259  -12.1476   27.4218 C   0  0  0  0  0  0  0  0  0  0  0  0
    7.3201  -13.3195   26.5388 C   0  0  1  0  0  0  0  0  0  0  0  0
    6.6915  -12.8565   25.2596 C   0  0  0  0  0  0  0  0  0  0  0  0
    8.5750  -14.1476   26.3137 C   0  0  2  0  0  0  0  0  0  0  0  0
    8.3164  -15.3156   25.5097 N   0  0  0  0  0  0  0  0  0  0  0  0
    9.1526  -14.4885   27.6257 C   0  0  0  0  0  0  0  0  0  0  0  0
    9.7515  -13.5071   28.3890 O   0  0  0  0  0  0  0  0  0  0  0  0
    9.1143  -15.6590   28.0718 O   0  0  0  0  0  0  0  0  0  0  0  0
  2  1  1  6
  2  4  1  0
  2  3  1  0
  4  5  1  1
  6  8  1  0
  6  4  1  0
  7  6  2  0
  9  8  1  0
 10 11  1  0
  9 10  1  6
 12 11  1  0
 13 12  2  0
 14  9  1  0
 14 21  1  0
 15 14  2  0
 16 12  1  0
 18 20  1  0
 18 17  1  1
 19 18  1  0
 20 21  1  1
 20 22  1  0
 22 24  2  0
 22 23  1  0
M  END
$$$$
