TEV.pdb
     RDKit          3D

 24 23  0  0  1  0  0  0  0  0999 V2000
    8.7756  -12.3514   20.0641 C   0  0  0  0  0  0  0  0  0  0  0  0
    8.0129  -13.2391   19.0969 C   0  0  1  0  0  0  0  0  0  0  0  0
    8.1741  -12.8463   17.7905 O   0  0  0  0  0  0  0  0  0  0  0  0
    8.4090  -14.6959   19.2297 C   0  0  2  0  0  0  0  0  0  0  0  0
    7.6106  -15.5297   18.3381 N   0  0  0  0  0  0  0  0  0  0  0  0
    8.2265  -15.2225   20.6052 C   0  0  0  0  0  0  0  0  0  0  0  0
    7.0735  -15.3854   21.0867 O   0  0  0  0  0  0  0  0  0  0  0  0
    9.3092  -15.5733   21.4589 N   0  0  0  0  0  0  0  0  0  0  0  0
    9.0967  -16.1709   22.7763 C   0  0  1  0  0  0  0  0  0  0  0  0
   10.2453  -17.1034   23.0356 C   0  0  0  0  0  0  0  0  0  0  0  0
   10.2015  -17.7963   24.3529 C   0  0  0  0  0  0  0  0  0  0  0  0
   11.3295  -18.7191   24.5084 C   0  0  0  0  0  0  0  0  0  0  0  0
   12.1948  -18.8687   23.6283 O   0  0  0  0  0  0  0  0  0  0  0  0
    9.1218  -15.1192   23.8326 C   0  0  0  0  0  0  0  0  0  0  0  0
    9.9740  -14.2033   23.7468 O   0  0  0  0  0  0  0  0  0  0  0  0
   11.4316  -19.4510   25.6824 O   0  0  0  0  0  0  0  0  0  0  0  0
    7.0034  -12.3512   27.1580 C   0  0  0  0  0  0  0  0  0  0  0  0
    6.9105  -13.4177   26.1090 C   0  0  1  0  0  0  0  0  0  0  0  0
    6.3172  -12.8594   24.8512 C   0  0  0  0  0  0  0  0  0  0  0  0
    8.2731  -14.0543   25.8868 C   0  0  2  0  0  0  0  0  0  0  0  0
    8.2208  -15.1230   24.9210 N   0  0  0  0  0  0  0  0  0  0  0  0
    8.7986  -14.5021   27.1885 C   0  0  0  0  0  0  0  0  0  0  0  0
    9.1978  -13.5710   28.1256 O   0  0  0  0  0  0  0  0  0  0  0  0
    8.8942  -15.7194   27.4704 O   0  0  0  0  0  0  0  0  0  0  0  0
  2  1  1  1
  2  4  1  0
  2  3  1  0
  4  5  1  6
  6  8  1  0
  6  4  1  0
  7  6  2  0
  9  8  1  0
 10 11  1  0
  9 10  1  1
 12 11  1  0
 13 12  2  0
 14  9  1  0
 14 21  1  0
 15 14  2  0
 16 12  1  0
 18 20  1  0
 18 17  1  1
 19 18  1  0
 20 21  1  6
 20 22  1  0
 22 24  2  0
 22 23  1  0
M  END
$$$$
