TEV.pdb
     RDKit          3D

 24 23  0  0  1  0  0  0  0  0999 V2000
    8.9236  -12.9071   18.3841 C   0  0  0  0  0  0  0  0  0  0  0  0
    8.7728  -13.4851   19.7799 C   0  0  1  0  0  0  0  0  0  0  0  0
    8.3850  -12.5390   20.6972 O   0  0  0  0  0  0  0  0  0  0  0  0
    7.7926  -14.6404   19.8136 C   0  0  2  0  0  0  0  0  0  0  0  0
    6.4950  -14.2298   19.2890 N   0  0  0  0  0  0  0  0  0  0  0  0
    7.5668  -15.1685   21.1820 C   0  0  0  0  0  0  0  0  0  0  0  0
    6.6236  -14.7327   21.8950 O   0  0  0  0  0  0  0  0  0  0  0  0
    8.3752  -16.1783   21.7744 N   0  0  0  0  0  0  0  0  0  0  0  0
    8.1592  -16.6410   23.1445 C   0  0  1  0  0  0  0  0  0  0  0  0
    8.9976  -17.8720   23.3388 C   0  0  0  0  0  0  0  0  0  0  0  0
    8.9537  -18.4466   24.7119 C   0  0  0  0  0  0  0  0  0  0  0  0
    9.8494  -19.6000   24.8367 C   0  0  0  0  0  0  0  0  0  0  0  0
   10.6058  -19.9594   23.9178 O   0  0  0  0  0  0  0  0  0  0  0  0
    8.6308  -15.6154   24.1183 C   0  0  0  0  0  0  0  0  0  0  0  0
    9.7291  -15.0483   23.9072 O   0  0  0  0  0  0  0  0  0  0  0  0
    9.8498  -20.3147   26.0257 O   0  0  0  0  0  0  0  0  0  0  0  0
    7.9092  -12.2014   27.4516 C   0  0  0  0  0  0  0  0  0  0  0  0
    7.3512  -13.1979   26.4810 C   0  0  1  0  0  0  0  0  0  0  0  0
    6.8373  -12.5007   25.2580 C   0  0  0  0  0  0  0  0  0  0  0  0
    8.3925  -14.2585   26.1618 C   0  0  2  0  0  0  0  0  0  0  0  0
    7.8831  -15.2654   25.2650 N   0  0  0  0  0  0  0  0  0  0  0  0
    8.8796  -14.8325   27.4285 C   0  0  0  0  0  0  0  0  0  0  0  0
    9.6372  -14.0612   28.2862 O   0  0  0  0  0  0  0  0  0  0  0  0
    8.6217  -16.0156   27.7512 O   0  0  0  0  0  0  0  0  0  0  0  0
  2  1  1  6
  2  4  1  0
  2  3  1  0
  4  5  1  1
  6  8  1  0
  6  4  1  0
  7  6  2  0
  9  8  1  0
 10 11  1  0
  9 10  1  1
 12 11  1  0
 13 12  2  0
 14  9  1  0
 14 21  1  0
 15 14  2  0
 16 12  1  0
 18 20  1  0
 18 17  1  1
 19 18  1  0
 20 21  1  6
 20 22  1  0
 22 24  2  0
 22 23  1  0
M  END
$$$$
