TEV.pdb
     RDKit          3D

 24 23  0  0  1  0  0  0  0  0999 V2000
    8.6417  -12.4229   18.2622 C   0  0  0  0  0  0  0  0  0  0  0  0
    8.4187  -13.1224   19.5911 C   0  0  1  0  0  0  0  0  0  0  0  0
    7.1996  -12.8149   20.1444 O   0  0  0  0  0  0  0  0  0  0  0  0
    8.5428  -14.6279   19.4686 C   0  0  2  0  0  0  0  0  0  0  0  0
    7.5546  -15.1512   18.5321 N   0  0  0  0  0  0  0  0  0  0  0  0
    8.3421  -15.3324   20.7592 C   0  0  0  0  0  0  0  0  0  0  0  0
    7.2260  -15.8390   21.0517 O   0  0  0  0  0  0  0  0  0  0  0  0
    9.3661  -15.4849   21.7351 N   0  0  0  0  0  0  0  0  0  0  0  0
    9.1374  -16.1872   22.9969 C   0  0  1  0  0  0  0  0  0  0  0  0
   10.2438  -17.1902   23.1580 C   0  0  0  0  0  0  0  0  0  0  0  0
   10.1362  -18.3851   22.2759 C   0  0  0  0  0  0  0  0  0  0  0  0
   11.2498  -19.3125   22.4954 C   0  0  0  0  0  0  0  0  0  0  0  0
   12.4237  -18.9253   22.6279 O   0  0  0  0  0  0  0  0  0  0  0  0
    9.2200  -15.2362   24.1419 C   0  0  0  0  0  0  0  0  0  0  0  0
   10.1967  -14.4517   24.2005 O   0  0  0  0  0  0  0  0  0  0  0  0
   10.9795  -20.6718   22.5568 O   0  0  0  0  0  0  0  0  0  0  0  0
    7.1967  -12.4582   27.5263 C   0  0  0  0  0  0  0  0  0  0  0  0
    7.0356  -13.4719   26.4341 C   0  0  1  0  0  0  0  0  0  0  0  0
    6.5089  -12.8188   25.1924 C   0  0  0  0  0  0  0  0  0  0  0  0
    8.3462  -14.2070   26.2037 C   0  0  2  0  0  0  0  0  0  0  0  0
    8.2382  -15.1921   25.1571 N   0  0  0  0  0  0  0  0  0  0  0  0
    8.7842  -14.7948   27.4819 C   0  0  0  0  0  0  0  0  0  0  0  0
    9.3024  -13.9827   28.4701 O   0  0  0  0  0  0  0  0  0  0  0  0
    8.6982  -16.0262   27.6979 O   0  0  0  0  0  0  0  0  0  0  0  0
  2  1  1  6
  2  4  1  0
  2  3  1  0
  4  5  1  6
  6  8  1  0
  6  4  1  0
  7  6  2  0
  9  8  1  0
 10 11  1  0
  9 10  1  1
 12 11  1  0
 13 12  2  0
 14  9  1  0
 14 21  1  0
 15 14  2  0
 16 12  1  0
 18 20  1  0
 18 17  1  1
 19 18  1  0
 20 21  1  6
 20 22  1  0
 22 24  2  0
 22 23  1  0
M  END
$$$$
