TEV.pdb
     RDKit          3D

 24 23  0  0  1  0  0  0  0  0999 V2000
    7.4357  -12.2972   19.7118 C   0  0  0  0  0  0  0  0  0  0  0  0
    8.5756  -13.1472   19.1794 C   0  0  1  0  0  0  0  0  0  0  0  0
    9.7642  -12.8834   19.8155 O   0  0  0  0  0  0  0  0  0  0  0  0
    8.2755  -14.6291   19.2824 C   0  0  2  0  0  0  0  0  0  0  0  0
    7.0902  -14.9695   18.5037 N   0  0  0  0  0  0  0  0  0  0  0  0
    8.0290  -15.0744   20.6764 C   0  0  0  0  0  0  0  0  0  0  0  0
    6.8581  -15.1316   21.1386 O   0  0  0  0  0  0  0  0  0  0  0  0
    9.0669  -15.4599   21.5700 N   0  0  0  0  0  0  0  0  0  0  0  0
    8.7867  -15.9693   22.9115 C   0  0  1  0  0  0  0  0  0  0  0  0
    9.8213  -17.0139   23.2190 C   0  0  0  0  0  0  0  0  0  0  0  0
    9.6096  -18.3213   22.5383 C   0  0  0  0  0  0  0  0  0  0  0  0
   10.6930  -19.2614   22.8396 C   0  0  0  0  0  0  0  0  0  0  0  0
   11.5381  -19.0434   23.7249 O   0  0  0  0  0  0  0  0  0  0  0  0
    8.9307  -14.8808   23.9199 C   0  0  0  0  0  0  0  0  0  0  0  0
    9.1495  -13.7141   23.5156 O   0  0  0  0  0  0  0  0  0  0  0  0
   10.7749  -20.4368   22.1073 O   0  0  0  0  0  0  0  0  0  0  0  0
    7.8219  -12.5693   24.4684 C   0  0  0  0  0  0  0  0  0  0  0  0
    7.7128  -13.0138   25.8957 C   0  0  1  0  0  0  0  0  0  0  0  0
    6.3430  -13.5574   26.1676 C   0  0  0  0  0  0  0  0  0  0  0  0
    8.8170  -14.0066   26.2213 C   0  0  2  0  0  0  0  0  0  0  0  0
    8.8295  -15.1219   25.3084 N   0  0  0  0  0  0  0  0  0  0  0  0
    8.6645  -14.4333   27.6234 C   0  0  0  0  0  0  0  0  0  0  0  0
    8.3755  -15.7513   27.9132 O   0  0  0  0  0  0  0  0  0  0  0  0
    8.7913  -13.6223   28.5704 O   0  0  0  0  0  0  0  0  0  0  0  0
  2  1  1  1
  2  4  1  0
  2  3  1  0
  4  5  1  6
  6  8  1  0
  6  4  1  0
  7  6  2  0
  9  8  1  0
 10 11  1  0
  9 10  1  1
 12 11  1  0
 13 12  2  0
 14  9  1  0
 14 21  1  0
 15 14  2  0
 16 12  1  0
 18 20  1  0
 18 17  1  6
 19 18  1  0
 20 21  1  6
 20 22  1  0
 22 24  2  0
 22 23  1  0
M  END
$$$$
