CIA.pdb
     RDKit          3D

 20 19  0  0  1  0  0  0  0  0999 V2000
   20.5906  -21.3474  -13.0969 N   0  0  0  0  0  0  0  0  0  0  0  0
   21.5122  -21.0505  -14.1503 C   0  0  1  0  0  0  0  0  0  0  0  0
   20.7759  -20.3931  -15.2944 C   0  0  0  0  0  0  0  0  0  0  0  0
   19.5908  -21.6138  -15.9374 S   0  0  0  0  0  0  0  0  0  0  0  0
   22.6594  -20.2230  -13.6854 C   0  0  0  0  0  0  0  0  0  0  0  0
   22.4101  -19.2824  -12.8905 O   0  0  0  0  0  0  0  0  0  0  0  0
   26.5168  -22.1126  -11.0969 C   0  0  0  0  0  0  0  0  0  0  0  0
   25.4792  -21.1562  -11.6991 C   0  0  0  0  0  0  0  0  0  0  0  0
   26.0726  -20.4877  -12.8845 C   0  0  2  0  0  0  0  0  0  0  0  0
   27.3014  -19.7209  -12.4419 C   0  0  0  0  0  0  0  0  0  0  0  0
   25.1242  -19.6282  -13.6726 C   0  0  2  0  0  0  0  0  0  0  0  0
   23.9938  -20.4602  -14.1039 N   0  0  0  0  0  0  0  0  0  0  0  0
   25.7176  -18.8917  -14.7839 C   0  0  0  0  0  0  0  0  0  0  0  0
   26.2614  -19.4857  -15.7465 O   0  0  0  0  0  0  0  0  0  0  0  0
   27.7342  -17.0822  -16.2333 C   0  0  0  0  0  0  0  0  0  0  0  0
   26.2552  -16.7494  -15.9937 C   0  0  2  0  0  0  0  0  0  0  0  0
   25.7287  -17.4516  -14.8673 N   0  0  0  0  0  0  0  0  0  0  0  0
   25.5496  -17.0353  -17.2576 C   0  0  0  0  0  0  0  0  0  0  0  0
   25.1295  -18.2008  -17.4411 O   0  0  0  0  0  0  0  0  0  0  0  0
   25.3192  -16.1085  -18.2532 O   0  0  0  0  0  0  0  0  0  0  0  0
  2  1  1  1
  2  3  1  0
  4  3  1  0
  5  2  1  0
  5  6  2  0
  7  8  1  0
  8  9  1  0
  9 11  1  0
  9 10  1  1
 11 12  1  6
 11 13  1  0
 12  5  1  0
 13 14  2  0
 16 15  1  6
 17 13  1  0
 17 16  1  0
 18 20  1  0
 18 16  1  0
 19 18  2  0
M  END
$$$$
