CIA.pdb
     RDKit          3D

 20 19  0  0  1  0  0  0  0  0999 V2000
   20.3220  -20.4420  -13.3473 N   0  0  0  0  0  0  0  0  0  0  0  0
   21.5372  -21.1810  -13.5030 C   0  0  1  0  0  0  0  0  0  0  0  0
   21.7549  -21.4914  -14.9657 C   0  0  0  0  0  0  0  0  0  0  0  0
   20.5230  -22.7447  -15.4341 S   0  0  0  0  0  0  0  0  0  0  0  0
   22.7086  -20.4807  -12.9080 C   0  0  0  0  0  0  0  0  0  0  0  0
   22.7008  -19.2243  -12.9229 O   0  0  0  0  0  0  0  0  0  0  0  0
   24.1147  -21.1913   -8.0754 C   0  0  0  0  0  0  0  0  0  0  0  0
   23.8981  -20.5971   -9.4731 C   0  0  0  0  0  0  0  0  0  0  0  0
   25.0844  -20.8995  -10.3131 C   0  0  2  0  0  0  0  0  0  0  0  0
   26.3096  -20.3049   -9.6504 C   0  0  0  0  0  0  0  0  0  0  0  0
   24.9664  -20.4883  -11.7540 C   0  0  2  0  0  0  0  0  0  0  0  0
   23.8071  -21.1743  -12.3385 N   0  0  0  0  0  0  0  0  0  0  0  0
   26.1704  -20.6646  -12.5595 C   0  0  0  0  0  0  0  0  0  0  0  0
   26.6303  -21.8056  -12.8079 O   0  0  0  0  0  0  0  0  0  0  0  0
   29.1134  -20.6527  -13.2599 C   0  0  0  0  0  0  0  0  0  0  0  0
   28.0692  -19.7604  -13.9449 C   0  0  2  0  0  0  0  0  0  0  0  0
   26.9163  -19.5669  -13.1249 N   0  0  0  0  0  0  0  0  0  0  0  0
   27.7750  -20.3828  -15.2499 C   0  0  0  0  0  0  0  0  0  0  0  0
   26.5915  -20.7206  -15.4823 O   0  0  0  0  0  0  0  0  0  0  0  0
   28.7123  -20.6197  -16.2341 O   0  0  0  0  0  0  0  0  0  0  0  0
  2  1  1  6
  2  3  1  0
  4  3  1  0
  5  2  1  0
  5  6  2  0
  7  8  1  0
  8  9  1  0
  9 11  1  0
  9 10  1  1
 11 12  1  6
 11 13  1  0
 12  5  1  0
 13 14  2  0
 16 15  1  1
 17 13  1  0
 17 16  1  0
 18 20  1  0
 18 16  1  0
 19 18  2  0
M  END
$$$$
