CIA.pdb
     RDKit          3D

 20 19  0  0  1  0  0  0  0  0999 V2000
   23.7602  -11.1461  -19.5356 N   0  0  0  0  0  0  0  0  0  0  0  0
   23.8567   -9.7459  -19.2578 C   0  0  1  0  0  0  0  0  0  0  0  0
   23.8754   -8.9741  -20.5568 C   0  0  0  0  0  0  0  0  0  0  0  0
   25.5457   -9.1463  -21.2555 S   0  0  0  0  0  0  0  0  0  0  0  0
   22.7766   -9.2707  -18.3500 C   0  0  0  0  0  0  0  0  0  0  0  0
   21.6118   -9.6887  -18.5676 O   0  0  0  0  0  0  0  0  0  0  0  0
   22.8487  -10.3333  -13.4581 C   0  0  0  0  0  0  0  0  0  0  0  0
   22.4359   -9.9566  -14.8868 C   0  0  0  0  0  0  0  0  0  0  0  0
   22.2983   -8.4809  -14.9742 C   0  0  2  0  0  0  0  0  0  0  0  0
   21.2990   -8.0264  -13.9308 C   0  0  0  0  0  0  0  0  0  0  0  0
   21.9671   -7.9517  -16.3414 C   0  0  2  0  0  0  0  0  0  0  0  0
   23.0186   -8.3810  -17.2721 N   0  0  0  0  0  0  0  0  0  0  0  0
   21.7211   -6.5153  -16.4178 C   0  0  0  0  0  0  0  0  0  0  0  0
   22.5732   -5.6835  -16.0212 O   0  0  0  0  0  0  0  0  0  0  0  0
   19.2382   -4.1629  -18.0603 C   0  0  0  0  0  0  0  0  0  0  0  0
   20.2737   -4.5356  -16.9905 C   0  0  2  0  0  0  0  0  0  0  0  0
   20.5055   -5.9438  -16.9437 N   0  0  0  0  0  0  0  0  0  0  0  0
   19.7867   -3.9689  -15.7182 C   0  0  0  0  0  0  0  0  0  0  0  0
   19.0620   -4.6917  -14.9964 O   0  0  0  0  0  0  0  0  0  0  0  0
   20.0734   -2.6973  -15.2663 O   0  0  0  0  0  0  0  0  0  0  0  0
  2  1  1  6
  2  3  1  0
  4  3  1  0
  5  2  1  0
  5  6  2  0
  7  8  1  0
  8  9  1  0
  9 11  1  0
  9 10  1  1
 11 12  1  6
 11 13  1  0
 12  5  1  0
 13 14  2  0
 16 15  1  6
 17 13  1  0
 17 16  1  0
 18 20  1  0
 18 16  1  0
 19 18  2  0
M  END
$$$$
