CIA.pdb
     RDKit          3D

 20 19  0  0  1  0  0  0  0  0999 V2000
   26.4153  -34.0468  -13.4996 N   0  0  0  0  0  0  0  0  0  0  0  0
   26.4199  -34.8181  -12.2945 C   0  0  1  0  0  0  0  0  0  0  0  0
   27.4645  -35.9052  -12.3953 C   0  0  0  0  0  0  0  0  0  0  0  0
   26.6071  -37.4921  -12.1622 S   0  0  0  0  0  0  0  0  0  0  0  0
   26.6155  -33.9766  -11.0818 C   0  0  0  0  0  0  0  0  0  0  0  0
   27.4554  -33.0449  -11.1531 O   0  0  0  0  0  0  0  0  0  0  0  0
   22.9050  -31.2350   -9.0142 C   0  0  0  0  0  0  0  0  0  0  0  0
   24.2717  -31.7868   -9.4398 C   0  0  0  0  0  0  0  0  0  0  0  0
   24.7858  -32.6765   -8.3681 C   0  0  2  0  0  0  0  0  0  0  0  0
   24.8536  -31.8878   -7.0769 C   0  0  0  0  0  0  0  0  0  0  0  0
   26.0861  -33.3633   -8.6792 C   0  0  2  0  0  0  0  0  0  0  0  0
   25.8981  -34.1913   -9.8771 N   0  0  0  0  0  0  0  0  0  0  0  0
   26.6784  -34.1176   -7.5793 C   0  0  0  0  0  0  0  0  0  0  0  0
   26.1568  -35.1786   -7.1580 O   0  0  0  0  0  0  0  0  0  0  0  0
   29.8038  -33.9055   -5.3798 C   0  0  0  0  0  0  0  0  0  0  0  0
   28.4330  -34.4503   -5.8037 C   0  0  2  0  0  0  0  0  0  0  0  0
   27.8857  -33.7163   -6.8995 N   0  0  0  0  0  0  0  0  0  0  0  0
   27.5846  -34.4403   -4.5964 C   0  0  0  0  0  0  0  0  0  0  0  0
   26.8717  -33.4310   -4.3920 O   0  0  0  0  0  0  0  0  0  0  0  0
   27.5208  -35.4653   -3.6753 O   0  0  0  0  0  0  0  0  0  0  0  0
  2  1  1  6
  2  3  1  0
  4  3  1  0
  5  2  1  0
  5  6  2  0
  7  8  1  0
  8  9  1  0
  9 11  1  0
  9 10  1  1
 11 12  1  6
 11 13  1  0
 12  5  1  0
 13 14  2  0
 16 15  1  1
 17 13  1  0
 17 16  1  0
 18 20  1  0
 18 16  1  0
 19 18  2  0
M  END
$$$$
