CIA.pdb
     RDKit          3D

 20 19  0  0  1  0  0  0  0  0999 V2000
   16.4740  -10.6139  -11.3351 N   0  0  0  0  0  0  0  0  0  0  0  0
   17.0300   -9.3592  -10.9306 C   0  0  1  0  0  0  0  0  0  0  0  0
   18.0895   -8.9343  -11.9206 C   0  0  0  0  0  0  0  0  0  0  0  0
   19.4544  -10.1289  -11.7865 S   0  0  0  0  0  0  0  0  0  0  0  0
   15.9906   -8.3084  -10.7510 C   0  0  0  0  0  0  0  0  0  0  0  0
   15.0636   -8.2603  -11.5978 O   0  0  0  0  0  0  0  0  0  0  0  0
   12.4968   -8.0909   -7.1795 C   0  0  0  0  0  0  0  0  0  0  0  0
   13.3102   -7.8866   -8.4642 C   0  0  0  0  0  0  0  0  0  0  0  0
   14.1609   -6.6799   -8.3078 C   0  0  2  0  0  0  0  0  0  0  0  0
   13.2837   -5.5234   -7.8755 C   0  0  0  0  0  0  0  0  0  0  0  0
   15.0022   -6.3340   -9.5043 C   0  0  2  0  0  0  0  0  0  0  0  0
   16.0160   -7.3821   -9.6770 N   0  0  0  0  0  0  0  0  0  0  0  0
   15.5909   -4.9987   -9.4950 C   0  0  0  0  0  0  0  0  0  0  0  0
   16.4475   -4.6673   -8.6397 O   0  0  0  0  0  0  0  0  0  0  0  0
   15.4114   -1.8155  -11.6087 C   0  0  0  0  0  0  0  0  0  0  0  0
   15.7506   -2.6383  -10.3582 C   0  0  2  0  0  0  0  0  0  0  0  0
   15.2455   -3.9710  -10.4465 N   0  0  0  0  0  0  0  0  0  0  0  0
   15.2337   -1.8802   -9.2028 C   0  0  0  0  0  0  0  0  0  0  0  0
   15.8218   -0.8195   -8.8899 O   0  0  0  0  0  0  0  0  0  0  0  0
   14.1469   -2.2572   -8.4412 O   0  0  0  0  0  0  0  0  0  0  0  0
  2  1  1  6
  2  3  1  0
  4  3  1  0
  5  2  1  0
  5  6  2  0
  7  8  1  0
  8  9  1  0
  9 11  1  0
  9 10  1  6
 11 12  1  1
 11 13  1  0
 12  5  1  0
 13 14  2  0
 16 15  1  6
 17 13  1  0
 17 16  1  0
 18 20  1  0
 18 16  1  0
 19 18  2  0
M  END
$$$$
