DHR.pdb
     RDKit          3D

 30 30  0  0  1  0  0  0  0  0999 V2000
   26.5426  -20.1011  -16.0022 N   0  0  0  0  0  0  0  0  0  0  0  0
   26.1659  -21.4982  -15.9800 C   0  0  1  0  0  0  0  0  0  0  0  0
   27.2732  -22.2504  -15.2636 C   0  0  0  0  0  0  0  0  0  0  0  0
   28.2862  -22.7591  -16.2241 C   0  0  0  0  0  0  0  0  0  0  0  0
   28.1178  -22.4720  -17.4336 O   0  0  0  0  0  0  0  0  0  0  0  0
   24.9287  -21.6895  -15.2178 C   0  0  0  0  0  0  0  0  0  0  0  0
   24.4498  -22.8729  -15.1502 O   0  0  0  0  0  0  0  0  0  0  0  0
   29.3728  -23.5105  -15.8632 O   0  0  0  0  0  0  0  0  0  0  0  0
   24.2386  -20.6334  -14.5542 N   0  0  0  0  0  0  0  0  0  0  0  0
   23.0755  -20.9230  -13.7874 C   0  0  1  0  0  0  0  0  0  0  0  0
   23.0398  -20.2000  -12.4589 C   0  0  0  0  0  0  0  0  0  0  0  0
   24.0820  -20.6806  -11.5334 C   0  0  0  0  0  0  0  0  0  0  0  0
   25.0630  -21.6310  -11.7171 C   0  0  0  0  0  0  0  0  0  0  0  0
   25.8000  -21.7399  -10.5734 N   0  0  0  0  0  0  0  0  0  0  0  0
   25.2903  -20.8779   -9.6980 C   0  0  0  0  0  0  0  0  0  0  0  0
   24.2460  -20.2313  -10.2759 N   0  0  0  0  0  0  0  0  0  0  0  0
   21.8108  -20.5961  -14.4935 C   0  0  0  0  0  0  0  0  0  0  0  0
   21.7767  -19.5661  -15.2207 O   0  0  0  0  0  0  0  0  0  0  0  0
   19.6284  -26.8581  -16.0157 N   0  0  0  0  0  0  0  0  0  0  0  0
   18.2338  -26.7006  -15.7764 C   0  0  0  0  0  0  0  0  0  0  0  0
   17.5668  -27.6301  -15.1929 N   0  0  0  0  0  0  0  0  0  0  0  0
   17.5514  -25.5227  -16.1731 N   0  0  0  0  0  0  0  0  0  0  0  0
   18.3202  -24.4257  -16.7540 C   0  0  0  0  0  0  0  0  0  0  0  0
   18.5133  -23.3046  -15.8035 C   0  0  0  0  0  0  0  0  0  0  0  0
   19.2084  -22.0760  -16.1794 C   0  0  0  0  0  0  0  0  0  0  0  0
   19.3970  -20.9994  -15.1936 C   0  0  2  0  0  0  0  0  0  0  0  0
   20.6459  -21.3685  -14.3993 N   0  0  0  0  0  0  0  0  0  0  0  0
   18.3681  -20.7885  -14.1811 C   0  0  0  0  0  0  0  0  0  0  0  0
   17.2517  -20.2659  -14.3311 O   0  0  0  0  0  0  0  0  0  0  0  0
   18.6336  -21.2174  -12.8557 O   0  0  0  0  0  0  0  0  0  0  0  0
  2  1  1  1
  2  3  1  0
  4  3  1  0
  4  5  2  0
  6  2  1  0
  6  7  2  0
  8  4  1  0
  9  6  1  0
 10  9  1  0
 11 12  1  0
 10 11  1  1
 12 13  2  0
 12 16  1  0
 13 14  1  0
 14 15  1  0
 16 15  2  0
 17 10  1  0
 18 17  2  0
 19 20  1  0
 20 21  2  0
 22 20  1  0
 23 22  1  0
 24 23  1  0
 25 24  1  0
 26 25  1  6
 26 27  1  0
 27 17  1  0
 28 26  1  0
 29 28  2  0
 30 28  1  0
M  END
$$$$
