DHR.pdb
     RDKit          3D

 30 30  0  0  1  0  0  0  0  0999 V2000
   13.2292  -12.1555  -11.7739 N   0  0  0  0  0  0  0  0  0  0  0  0
   14.4833  -11.7782  -11.1580 C   0  0  1  0  0  0  0  0  0  0  0  0
   15.5944  -12.4019  -11.9836 C   0  0  0  0  0  0  0  0  0  0  0  0
   15.6274  -13.8775  -11.8132 C   0  0  0  0  0  0  0  0  0  0  0  0
   15.7853  -14.5664  -12.8497 O   0  0  0  0  0  0  0  0  0  0  0  0
   14.6614  -10.3238  -11.1935 C   0  0  0  0  0  0  0  0  0  0  0  0
   14.2841   -9.7049  -12.2465 O   0  0  0  0  0  0  0  0  0  0  0  0
   15.4967  -14.5112  -10.6062 O   0  0  0  0  0  0  0  0  0  0  0  0
   15.2285   -9.5714  -10.1239 N   0  0  0  0  0  0  0  0  0  0  0  0
   15.3168   -8.1548  -10.2270 C   0  0  1  0  0  0  0  0  0  0  0  0
   14.8881   -7.4357   -8.9669 C   0  0  0  0  0  0  0  0  0  0  0  0
   13.4436   -7.5761   -8.7077 C   0  0  0  0  0  0  0  0  0  0  0  0
   12.4159   -6.6776   -8.8974 C   0  0  0  0  0  0  0  0  0  0  0  0
   11.2404   -7.2550   -8.5130 N   0  0  0  0  0  0  0  0  0  0  0  0
   11.5287   -8.4840   -8.0938 C   0  0  0  0  0  0  0  0  0  0  0  0
   12.8662   -8.6847   -8.2099 N   0  0  0  0  0  0  0  0  0  0  0  0
   16.6825   -7.6746  -10.5576 C   0  0  0  0  0  0  0  0  0  0  0  0
   17.6619   -8.4299  -10.3105 O   0  0  0  0  0  0  0  0  0  0  0  0
   22.7632  -10.0758  -14.4082 N   0  0  0  0  0  0  0  0  0  0  0  0
   22.6946   -8.8390  -15.1101 C   0  0  0  0  0  0  0  0  0  0  0  0
   23.5109   -8.5920  -16.0703 N   0  0  0  0  0  0  0  0  0  0  0  0
   21.7309   -7.8564  -14.7693 N   0  0  0  0  0  0  0  0  0  0  0  0
   20.7199   -8.1800  -13.7668 C   0  0  0  0  0  0  0  0  0  0  0  0
   19.6935   -7.1185  -13.6352 C   0  0  0  0  0  0  0  0  0  0  0  0
   18.5854   -7.2198  -12.6889 C   0  0  0  0  0  0  0  0  0  0  0  0
   18.3115   -6.1222  -11.7472 C   0  0  2  0  0  0  0  0  0  0  0  0
   16.9492   -6.4247  -11.1311 N   0  0  0  0  0  0  0  0  0  0  0  0
   18.1840   -4.7662  -12.2700 C   0  0  0  0  0  0  0  0  0  0  0  0
   17.1661   -4.2220  -12.7278 O   0  0  0  0  0  0  0  0  0  0  0  0
   19.3349   -3.9377  -12.2732 O   0  0  0  0  0  0  0  0  0  0  0  0
  2  1  1  6
  2  3  1  0
  4  3  1  0
  4  5  2  0
  6  2  1  0
  6  7  2  0
  8  4  1  0
  9  6  1  0
 10  9  1  0
 11 12  1  0
 10 11  1  1
 12 13  2  0
 12 16  1  0
 13 14  1  0
 14 15  1  0
 16 15  2  0
 17 10  1  0
 18 17  2  0
 19 20  1  0
 20 21  2  0
 22 20  1  0
 23 22  1  0
 24 23  1  0
 25 24  1  0
 26 25  1  6
 26 27  1  0
 27 17  1  0
 28 26  1  0
 29 28  2  0
 30 28  1  0
M  END
$$$$
