DHR.pdb
     RDKit          3D

 30 30  0  0  1  0  0  0  0  0999 V2000
   28.6154  -25.2845  -15.9085 N   0  0  0  0  0  0  0  0  0  0  0  0
   27.4684  -24.8402  -16.6711 C   0  0  1  0  0  0  0  0  0  0  0  0
   26.3319  -25.8020  -16.3741 C   0  0  0  0  0  0  0  0  0  0  0  0
   26.3184  -26.9324  -17.3381 C   0  0  0  0  0  0  0  0  0  0  0  0
   26.8978  -26.7508  -18.4359 O   0  0  0  0  0  0  0  0  0  0  0  0
   27.0473  -23.5033  -16.2427 C   0  0  0  0  0  0  0  0  0  0  0  0
   26.5603  -23.3825  -15.0669 O   0  0  0  0  0  0  0  0  0  0  0  0
   25.7174  -28.1387  -17.0941 O   0  0  0  0  0  0  0  0  0  0  0  0
   27.1521  -22.3418  -17.0624 N   0  0  0  0  0  0  0  0  0  0  0  0
   26.7777  -21.0727  -16.5387 C   0  0  1  0  0  0  0  0  0  0  0  0
   27.5907  -19.9290  -17.1046 C   0  0  0  0  0  0  0  0  0  0  0  0
   27.2168  -18.6317  -16.5125 C   0  0  0  0  0  0  0  0  0  0  0  0
   26.2070  -18.3168  -15.6291 C   0  0  0  0  0  0  0  0  0  0  0  0
   26.2477  -16.9789  -15.3617 N   0  0  0  0  0  0  0  0  0  0  0  0
   27.2588  -16.4723  -16.0618 C   0  0  0  0  0  0  0  0  0  0  0  0
   27.8514  -17.4721  -16.7631 N   0  0  0  0  0  0  0  0  0  0  0  0
   25.3479  -20.7428  -16.7659 C   0  0  0  0  0  0  0  0  0  0  0  0
   24.8636  -20.9261  -17.9160 O   0  0  0  0  0  0  0  0  0  0  0  0
   19.9034  -22.0683  -10.5609 N   0  0  0  0  0  0  0  0  0  0  0  0
   19.3582  -21.4658  -11.7300 C   0  0  0  0  0  0  0  0  0  0  0  0
   18.0899  -21.4725  -11.9318 N   0  0  0  0  0  0  0  0  0  0  0  0
   20.1951  -20.8480  -12.6934 N   0  0  0  0  0  0  0  0  0  0  0  0
   21.6424  -20.9048  -12.5084 C   0  0  0  0  0  0  0  0  0  0  0  0
   22.3800  -20.2409  -13.6097 C   0  0  0  0  0  0  0  0  0  0  0  0
   22.2799  -20.6906  -14.9959 C   0  0  0  0  0  0  0  0  0  0  0  0
   23.0214  -19.9911  -16.0578 C   0  0  2  0  0  0  0  0  0  0  0  0
   24.4996  -20.2369  -15.7725 N   0  0  0  0  0  0  0  0  0  0  0  0
   22.9036  -18.5403  -16.1554 C   0  0  0  0  0  0  0  0  0  0  0  0
   21.8843  -17.8769  -16.4064 O   0  0  0  0  0  0  0  0  0  0  0  0
   24.0670  -17.7573  -15.9450 O   0  0  0  0  0  0  0  0  0  0  0  0
  2  1  1  1
  2  3  1  0
  4  3  1  0
  4  5  2  0
  6  2  1  0
  6  7  2  0
  8  4  1  0
  9  6  1  0
 10  9  1  0
 11 12  1  0
 10 11  1  6
 12 13  2  0
 12 16  1  0
 13 14  1  0
 14 15  1  0
 16 15  2  0
 17 10  1  0
 18 17  2  0
 19 20  1  0
 20 21  2  0
 22 20  1  0
 23 22  1  0
 24 23  1  0
 25 24  1  0
 26 25  1  1
 26 27  1  0
 27 17  1  0
 28 26  1  0
 29 28  2  0
 30 28  1  0
M  END
$$$$
