DHR.pdb
     RDKit          3D

 30 30  0  0  1  0  0  0  0  0999 V2000
   45.4524  -16.5026   -9.4110 N   0  0  0  0  0  0  0  0  0  0  0  0
   44.9292  -15.9769   -8.1683 C   0  0  1  0  0  0  0  0  0  0  0  0
   46.0592  -16.0117   -7.1549 C   0  0  0  0  0  0  0  0  0  0  0  0
   46.3869  -17.4069   -6.7628 C   0  0  0  0  0  0  0  0  0  0  0  0
   45.4278  -18.2091   -6.6606 O   0  0  0  0  0  0  0  0  0  0  0  0
   44.5153  -14.5801   -8.3297 C   0  0  0  0  0  0  0  0  0  0  0  0
   45.2256  -13.8340   -9.0868 O   0  0  0  0  0  0  0  0  0  0  0  0
   47.6573  -17.8527   -6.5123 O   0  0  0  0  0  0  0  0  0  0  0  0
   43.3721  -14.0164   -7.6916 N   0  0  0  0  0  0  0  0  0  0  0  0
   43.0485  -12.6473   -7.9050 C   0  0  1  0  0  0  0  0  0  0  0  0
   41.6004  -12.3223   -7.6111 C   0  0  0  0  0  0  0  0  0  0  0  0
   41.2572  -10.9327   -7.9641 C   0  0  0  0  0  0  0  0  0  0  0  0
   42.0332   -9.9415   -8.5252 C   0  0  0  0  0  0  0  0  0  0  0  0
   41.2807   -8.8118   -8.6687 N   0  0  0  0  0  0  0  0  0  0  0  0
   40.0649   -9.0924   -8.2081 C   0  0  0  0  0  0  0  0  0  0  0  0
   40.0447  -10.3799   -7.7786 N   0  0  0  0  0  0  0  0  0  0  0  0
   43.8750  -11.7160   -7.0959 C   0  0  0  0  0  0  0  0  0  0  0  0
   44.2895  -12.1033   -5.9694 O   0  0  0  0  0  0  0  0  0  0  0  0
   51.6746  -11.2178   -5.9654 N   0  0  0  0  0  0  0  0  0  0  0  0
   51.2923  -10.0472   -5.2510 C   0  0  0  0  0  0  0  0  0  0  0  0
   52.1535   -9.4087   -4.5439 N   0  0  0  0  0  0  0  0  0  0  0  0
   49.9616   -9.5604   -5.3019 N   0  0  0  0  0  0  0  0  0  0  0  0
   48.9512  -10.3458   -6.0049 C   0  0  0  0  0  0  0  0  0  0  0  0
   47.6379   -9.6603   -6.0583 C   0  0  0  0  0  0  0  0  0  0  0  0
   46.4759  -10.2538   -6.7152 C   0  0  0  0  0  0  0  0  0  0  0  0
   45.1747   -9.5666   -6.6835 C   0  0  2  0  0  0  0  0  0  0  0  0
   44.2240  -10.4248   -7.5122 N   0  0  0  0  0  0  0  0  0  0  0  0
   45.0714   -8.2348   -7.2700 C   0  0  0  0  0  0  0  0  0  0  0  0
   44.8962   -7.9431   -8.4642 O   0  0  0  0  0  0  0  0  0  0  0  0
   45.1773   -7.1129   -6.4091 O   0  0  0  0  0  0  0  0  0  0  0  0
  2  1  1  6
  2  3  1  0
  4  3  1  0
  4  5  2  0
  6  2  1  0
  6  7  2  0
  8  4  1  0
  9  6  1  0
 10  9  1  0
 11 12  1  0
 10 11  1  1
 12 13  2  0
 12 16  1  0
 13 14  1  0
 14 15  1  0
 16 15  2  0
 17 10  1  0
 18 17  2  0
 19 20  1  0
 20 21  2  0
 22 20  1  0
 23 22  1  0
 24 23  1  0
 25 24  1  0
 26 25  1  6
 26 27  1  0
 27 17  1  0
 28 26  1  0
 29 28  2  0
 30 28  1  0
M  END
$$$$
