HME.pdb
     RDKit          3D

 28 28  0  0  1  0  0  0  0  0999 V2000
   28.2669  -21.3809  -16.9343 N   0  0  0  0  0  0  0  0  0  0  0  0
   27.6719  -20.2566  -16.2424 C   0  0  1  0  0  0  0  0  0  0  0  0
   26.9472  -19.4201  -17.2766 C   0  0  0  0  0  0  0  0  0  0  0  0
   27.9092  -18.4438  -17.8500 C   0  0  0  0  0  0  0  0  0  0  0  0
   27.8470  -17.0607  -17.8422 C   0  0  0  0  0  0  0  0  0  0  0  0
   28.9277  -16.5649  -18.4756 N   0  0  0  0  0  0  0  0  0  0  0  0
   29.6664  -17.5986  -18.8807 C   0  0  0  0  0  0  0  0  0  0  0  0
   29.0568  -18.7280  -18.5062 N   0  0  0  0  0  0  0  0  0  0  0  0
   26.7578  -20.7695  -15.2044 C   0  0  0  0  0  0  0  0  0  0  0  0
   25.8906  -21.6219  -15.5394 O   0  0  0  0  0  0  0  0  0  0  0  0
   24.8736  -20.9986   -7.5557 C   0  0  0  0  0  0  0  0  0  0  0  0
   26.0926  -20.4842   -8.8020 S   0  0  0  0  0  0  0  0  0  0  0  0
   25.4471  -21.0543  -10.4164 C   0  0  0  0  0  0  0  0  0  0  0  0
   26.3402  -20.5974  -11.5337 C   0  0  0  0  0  0  0  0  0  0  0  0
   25.8504  -20.9047  -12.9126 C   0  0  2  0  0  0  0  0  0  0  0  0
   26.8173  -20.3406  -13.8450 N   0  0  0  0  0  0  0  0  0  0  0  0
   24.5082  -20.3216  -13.1345 C   0  0  0  0  0  0  0  0  0  0  0  0
   24.3091  -19.0900  -13.2212 O   0  0  0  0  0  0  0  0  0  0  0  0
   23.3353  -21.1331  -13.2668 N   0  0  0  0  0  0  0  0  0  0  0  0
   22.0217  -20.6567  -13.5340 C   0  0  1  0  0  0  0  0  0  0  0  0
   21.1695  -21.4715  -14.4129 C   0  0  0  0  0  0  0  0  0  0  0  0
   21.3506  -21.3498  -15.8792 C   0  0  0  0  0  0  0  0  0  0  0  0
   20.4356  -22.1386  -16.7148 C   0  0  0  0  0  0  0  0  0  0  0  0
   19.6092  -22.8961  -16.1477 O   0  0  0  0  0  0  0  0  0  0  0  0
   21.3318  -20.2957  -12.2716 C   0  0  0  0  0  0  0  0  0  0  0  0
   20.2471  -19.6443  -12.2512 O   0  0  0  0  0  0  0  0  0  0  0  0
   20.4166  -22.1080  -18.1049 O   0  0  0  0  0  0  0  0  0  0  0  0
   21.8426  -20.6556  -11.0308 O   0  0  0  0  0  0  0  0  0  0  0  0
  2  1  1  6
  3  4  1  0
  3  2  1  0
  4  5  2  0
  4  8  1  0
  5  6  1  0
  6  7  1  0
  8  7  2  0
  9  2  1  0
  9 10  2  0
 11 12  1  0
 13 12  1  0
 14 13  1  0
 15 16  1  0
 15 14  1  1
 16  9  1  0
 17 15  1  0
 18 17  2  0
 19 17  1  0
 20 19  1  0
 20 21  1  1
 22 21  1  0
 22 23  1  0
 23 27  1  0
 23 24  2  0
 25 20  1  0
 25 28  1  0
 26 25  2  0
M  END
$$$$
