HME.pdb
     RDKit          3D

 28 28  0  0  1  0  0  0  0  0999 V2000
   28.5219  -20.1375  -17.1149 N   0  0  0  0  0  0  0  0  0  0  0  0
   28.7155  -19.3713  -15.9015 C   0  0  1  0  0  0  0  0  0  0  0  0
   27.9500  -18.0736  -16.0581 C   0  0  0  0  0  0  0  0  0  0  0  0
   28.6995  -17.1951  -16.9928 C   0  0  0  0  0  0  0  0  0  0  0  0
   29.9097  -17.4332  -17.6220 C   0  0  0  0  0  0  0  0  0  0  0  0
   30.2292  -16.3698  -18.3849 N   0  0  0  0  0  0  0  0  0  0  0  0
   29.2531  -15.4711  -18.2520 C   0  0  0  0  0  0  0  0  0  0  0  0
   28.3334  -15.9644  -17.4165 N   0  0  0  0  0  0  0  0  0  0  0  0
   28.2309  -20.1665  -14.7574 C   0  0  0  0  0  0  0  0  0  0  0  0
   27.1986  -20.8739  -14.9151 O   0  0  0  0  0  0  0  0  0  0  0  0
   31.6505  -20.7835   -9.5292 C   0  0  0  0  0  0  0  0  0  0  0  0
   31.7730  -22.2557  -10.5882 S   0  0  0  0  0  0  0  0  0  0  0  0
   30.5270  -22.0409  -11.9109 C   0  0  0  0  0  0  0  0  0  0  0  0
   29.3693  -21.2213  -11.4181 C   0  0  0  0  0  0  0  0  0  0  0  0
   28.2915  -20.9651  -12.4223 C   0  0  2  0  0  0  0  0  0  0  0  0
   28.8816  -20.1655  -13.4877 N   0  0  0  0  0  0  0  0  0  0  0  0
   27.1545  -20.2503  -11.8005 C   0  0  0  0  0  0  0  0  0  0  0  0
   27.1622  -19.0180  -11.5871 O   0  0  0  0  0  0  0  0  0  0  0  0
   25.9569  -20.9247  -11.3970 N   0  0  0  0  0  0  0  0  0  0  0  0
   24.8201  -20.3126  -10.7997 C   0  0  1  0  0  0  0  0  0  0  0  0
   23.6552  -20.0578  -11.6603 C   0  0  0  0  0  0  0  0  0  0  0  0
   22.7663  -21.1954  -11.9967 C   0  0  0  0  0  0  0  0  0  0  0  0
   21.8402  -20.9873  -13.1178 C   0  0  0  0  0  0  0  0  0  0  0  0
   20.6129  -20.8838  -12.8695 O   0  0  0  0  0  0  0  0  0  0  0  0
   24.4435  -21.0197   -9.5514 C   0  0  0  0  0  0  0  0  0  0  0  0
   24.9747  -22.1140   -9.2025 O   0  0  0  0  0  0  0  0  0  0  0  0
   22.2269  -20.8952  -14.4503 O   0  0  0  0  0  0  0  0  0  0  0  0
   23.4782  -20.5157   -8.6887 O   0  0  0  0  0  0  0  0  0  0  0  0
  2  1  1  6
  3  4  1  0
  3  2  1  0
  4  5  2  0
  4  8  1  0
  5  6  1  0
  6  7  1  0
  8  7  2  0
  9  2  1  0
  9 10  2  0
 11 12  1  0
 13 12  1  0
 14 13  1  0
 15 16  1  0
 15 14  1  1
 16  9  1  0
 17 15  1  0
 18 17  2  0
 19 17  1  0
 20 19  1  0
 20 21  1  6
 22 21  1  0
 22 23  1  0
 23 27  1  0
 23 24  2  0
 25 20  1  0
 25 28  1  0
 26 25  2  0
M  END
$$$$
