HME.pdb
     RDKit          3D

 28 28  0  0  1  0  0  0  0  0999 V2000
   28.0793  -20.6418  -15.4898 N   0  0  0  0  0  0  0  0  0  0  0  0
   26.6780  -20.9276  -15.7170 C   0  0  1  0  0  0  0  0  0  0  0  0
   26.5961  -21.9003  -16.8753 C   0  0  0  0  0  0  0  0  0  0  0  0
   27.2176  -21.2665  -18.0666 C   0  0  0  0  0  0  0  0  0  0  0  0
   28.2140  -21.7625  -18.8902 C   0  0  0  0  0  0  0  0  0  0  0  0
   28.4823  -20.8603  -19.8540 N   0  0  0  0  0  0  0  0  0  0  0  0
   27.6819  -19.8119  -19.6582 C   0  0  0  0  0  0  0  0  0  0  0  0
   26.9215  -20.0534  -18.5854 N   0  0  0  0  0  0  0  0  0  0  0  0
   26.1029  -21.4887  -14.4799 C   0  0  0  0  0  0  0  0  0  0  0  0
   25.2787  -22.4382  -14.5804 O   0  0  0  0  0  0  0  0  0  0  0  0
   27.4942  -20.8459   -7.9152 C   0  0  0  0  0  0  0  0  0  0  0  0
   26.0149  -19.8393   -8.2348 S   0  0  0  0  0  0  0  0  0  0  0  0
   25.1707  -20.6082   -9.6646 C   0  0  0  0  0  0  0  0  0  0  0  0
   26.0414  -20.5491  -10.8866 C   0  0  0  0  0  0  0  0  0  0  0  0
   25.4626  -21.1710  -12.1170 C   0  0  2  0  0  0  0  0  0  0  0  0
   26.4415  -21.0011  -13.1825 N   0  0  0  0  0  0  0  0  0  0  0  0
   24.1802  -20.5257  -12.4772 C   0  0  0  0  0  0  0  0  0  0  0  0
   24.0968  -19.3258  -12.8198 O   0  0  0  0  0  0  0  0  0  0  0  0
   22.9363  -21.2356  -12.4588 N   0  0  0  0  0  0  0  0  0  0  0  0
   21.6817  -20.7241  -12.8927 C   0  0  1  0  0  0  0  0  0  0  0  0
   20.9735  -21.4662  -13.9464 C   0  0  0  0  0  0  0  0  0  0  0  0
   19.7748  -22.2527  -13.5693 C   0  0  0  0  0  0  0  0  0  0  0  0
   19.0611  -22.9170  -14.6680 C   0  0  0  0  0  0  0  0  0  0  0  0
   19.7305  -23.3687  -15.6304 O   0  0  0  0  0  0  0  0  0  0  0  0
   20.8054  -20.4390  -11.7304 C   0  0  0  0  0  0  0  0  0  0  0  0
   19.8164  -19.6526  -11.8006 O   0  0  0  0  0  0  0  0  0  0  0  0
   17.6818  -23.0848  -14.7216 O   0  0  0  0  0  0  0  0  0  0  0  0
   21.0237  -21.0243  -10.4895 O   0  0  0  0  0  0  0  0  0  0  0  0
  2  1  1  1
  3  4  1  0
  3  2  1  0
  4  5  2  0
  4  8  1  0
  5  6  1  0
  6  7  1  0
  8  7  2  0
  9  2  1  0
  9 10  2  0
 11 12  1  0
 13 12  1  0
 14 13  1  0
 15 16  1  0
 15 14  1  1
 16  9  1  0
 17 15  1  0
 18 17  2  0
 19 17  1  0
 20 19  1  0
 20 21  1  6
 22 21  1  0
 22 23  1  0
 23 27  1  0
 23 24  2  0
 25 20  1  0
 25 28  1  0
 26 25  2  0
M  END
$$$$
