HME.pdb
     RDKit          3D

 28 28  0  0  1  0  0  0  0  0999 V2000
   25.7971  -12.0646  -20.7498 N   0  0  0  0  0  0  0  0  0  0  0  0
   25.8800  -10.6488  -20.4569 C   0  0  1  0  0  0  0  0  0  0  0  0
   25.2542   -9.9081  -21.6206 C   0  0  0  0  0  0  0  0  0  0  0  0
   26.2332   -9.8741  -22.7377 C   0  0  0  0  0  0  0  0  0  0  0  0
   26.1856   -9.1362  -23.9083 C   0  0  0  0  0  0  0  0  0  0  0  0
   27.2789   -9.4068  -24.6474 N   0  0  0  0  0  0  0  0  0  0  0  0
   28.0114  -10.2939  -23.9731 C   0  0  0  0  0  0  0  0  0  0  0  0
   27.3855  -10.5761  -22.8259 N   0  0  0  0  0  0  0  0  0  0  0  0
   25.1745  -10.3860  -19.1883 C   0  0  0  0  0  0  0  0  0  0  0  0
   24.0903  -10.9924  -18.9700 O   0  0  0  0  0  0  0  0  0  0  0  0
   27.5527  -13.4253  -14.5163 C   0  0  0  0  0  0  0  0  0  0  0  0
   27.2510  -11.6345  -14.4408 S   0  0  0  0  0  0  0  0  0  0  0  0
   26.1173  -11.2469  -15.8238 C   0  0  0  0  0  0  0  0  0  0  0  0
   25.8043   -9.7785  -15.8547 C   0  0  0  0  0  0  0  0  0  0  0  0
   24.9111   -9.3367  -16.9694 C   0  0  2  0  0  0  0  0  0  0  0  0
   25.6690   -9.4776  -18.2056 N   0  0  0  0  0  0  0  0  0  0  0  0
   24.4846   -7.9328  -16.7746 C   0  0  0  0  0  0  0  0  0  0  0  0
   25.2499   -6.9599  -16.9532 O   0  0  0  0  0  0  0  0  0  0  0  0
   23.1559   -7.5880  -16.3654 N   0  0  0  0  0  0  0  0  0  0  0  0
   22.6543   -6.2670  -16.2007 C   0  0  1  0  0  0  0  0  0  0  0  0
   21.4381   -5.9048  -16.9439 C   0  0  0  0  0  0  0  0  0  0  0  0
   20.9028   -4.5309  -16.7914 C   0  0  0  0  0  0  0  0  0  0  0  0
   19.6648   -4.2306  -17.5227 C   0  0  0  0  0  0  0  0  0  0  0  0
   18.6556   -4.9488  -17.3121 O   0  0  0  0  0  0  0  0  0  0  0  0
   22.5466   -5.9265  -14.7611 C   0  0  0  0  0  0  0  0  0  0  0  0
   22.4024   -6.8061  -13.8627 O   0  0  0  0  0  0  0  0  0  0  0  0
   19.5259   -3.1968  -18.4422 O   0  0  0  0  0  0  0  0  0  0  0  0
   22.5982   -4.6118  -14.3151 O   0  0  0  0  0  0  0  0  0  0  0  0
  2  1  1  6
  3  4  1  0
  3  2  1  0
  4  5  2  0
  4  8  1  0
  5  6  1  0
  6  7  1  0
  8  7  2  0
  9  2  1  0
  9 10  2  0
 11 12  1  0
 13 12  1  0
 14 13  1  0
 15 16  1  0
 15 14  1  1
 16  9  1  0
 17 15  1  0
 18 17  2  0
 19 17  1  0
 20 19  1  0
 20 21  1  1
 22 21  1  0
 22 23  1  0
 23 27  1  0
 23 24  2  0
 25 20  1  0
 25 28  1  0
 26 25  2  0
M  END
$$$$
