HME.pdb
     RDKit          3D

 28 28  0  0  1  0  0  0  0  0999 V2000
   27.7594  -21.7997  -15.4509 N   0  0  0  0  0  0  0  0  0  0  0  0
   27.2887  -20.6883  -14.6508 C   0  0  1  0  0  0  0  0  0  0  0  0
   26.5079  -19.7690  -15.5672 C   0  0  0  0  0  0  0  0  0  0  0  0
   27.4597  -19.1221  -16.5068 C   0  0  0  0  0  0  0  0  0  0  0  0
   27.6908  -19.4116  -17.8408 C   0  0  0  0  0  0  0  0  0  0  0  0
   28.6398  -18.5821  -18.3164 N   0  0  0  0  0  0  0  0  0  0  0  0
   29.0107  -17.7800  -17.3178 C   0  0  0  0  0  0  0  0  0  0  0  0
   28.3034  -18.1023  -16.2300 N   0  0  0  0  0  0  0  0  0  0  0  0
   26.4561  -21.2149  -13.5529 C   0  0  0  0  0  0  0  0  0  0  0  0
   25.5696  -22.0681  -13.8306 O   0  0  0  0  0  0  0  0  0  0  0  0
   26.5416  -20.2943   -6.6606 C   0  0  0  0  0  0  0  0  0  0  0  0
   27.8110  -20.3433   -7.9606 S   0  0  0  0  0  0  0  0  0  0  0  0
   27.0775  -21.2682   -9.3588 C   0  0  0  0  0  0  0  0  0  0  0  0
   25.9217  -20.5100   -9.9454 C   0  0  0  0  0  0  0  0  0  0  0  0
   25.4790  -20.9629  -11.2998 C   0  0  2  0  0  0  0  0  0  0  0  0
   26.6146  -20.7981  -12.1976 N   0  0  0  0  0  0  0  0  0  0  0  0
   24.3228  -20.1658  -11.7674 C   0  0  0  0  0  0  0  0  0  0  0  0
   24.4449  -19.0418  -12.3019 O   0  0  0  0  0  0  0  0  0  0  0  0
   22.9736  -20.6298  -11.6398 N   0  0  0  0  0  0  0  0  0  0  0  0
   21.8628  -20.1730  -12.4022 C   0  0  1  0  0  0  0  0  0  0  0  0
   21.8675  -20.4556  -13.8454 C   0  0  0  0  0  0  0  0  0  0  0  0
   21.6463  -21.8524  -14.2900 C   0  0  0  0  0  0  0  0  0  0  0  0
   22.1570  -22.1989  -15.6230 C   0  0  0  0  0  0  0  0  0  0  0  0
   22.6091  -21.2786  -16.3490 O   0  0  0  0  0  0  0  0  0  0  0  0
   20.5886  -20.5800  -11.7614 C   0  0  0  0  0  0  0  0  0  0  0  0
   19.4633  -20.1546  -12.1539 O   0  0  0  0  0  0  0  0  0  0  0  0
   22.1772  -23.4869  -16.1467 O   0  0  0  0  0  0  0  0  0  0  0  0
   20.5595  -21.4583  -10.6854 O   0  0  0  0  0  0  0  0  0  0  0  0
  2  1  1  6
  3  4  1  0
  3  2  1  0
  4  5  2  0
  4  8  1  0
  5  6  1  0
  6  7  1  0
  8  7  2  0
  9  2  1  0
  9 10  2  0
 11 12  1  0
 13 12  1  0
 14 13  1  0
 15 16  1  0
 15 14  1  1
 16  9  1  0
 17 15  1  0
 18 17  2  0
 19 17  1  0
 20 19  1  0
 20 21  1  6
 22 21  1  0
 22 23  1  0
 23 27  1  0
 23 24  2  0
 25 20  1  0
 25 28  1  0
 26 25  2  0
M  END
$$$$
