HME.pdb
     RDKit          3D

 28 28  0  0  1  0  0  0  0  0999 V2000
   27.5388  -21.6549  -16.2924 N   0  0  0  0  0  0  0  0  0  0  0  0
   27.2002  -20.5594  -15.4081 C   0  0  1  0  0  0  0  0  0  0  0  0
   26.4673  -19.5215  -16.2327 C   0  0  0  0  0  0  0  0  0  0  0  0
   27.4729  -18.6770  -16.9276 C   0  0  0  0  0  0  0  0  0  0  0  0
   28.3063  -19.0133  -17.9809 C   0  0  0  0  0  0  0  0  0  0  0  0
   29.0637  -17.9472  -18.3045 N   0  0  0  0  0  0  0  0  0  0  0  0
   28.7288  -16.9513  -17.4835 C   0  0  0  0  0  0  0  0  0  0  0  0
   27.7737  -17.3871  -16.6557 N   0  0  0  0  0  0  0  0  0  0  0  0
   26.3691  -21.0803  -14.3062 C   0  0  0  0  0  0  0  0  0  0  0  0
   25.4707  -21.9220  -14.5809 O   0  0  0  0  0  0  0  0  0  0  0  0
   27.5163  -20.7993   -7.9991 C   0  0  0  0  0  0  0  0  0  0  0  0
   25.7595  -20.3394   -7.9217 S   0  0  0  0  0  0  0  0  0  0  0  0
   25.0234  -20.8569   -9.5150 C   0  0  0  0  0  0  0  0  0  0  0  0
   25.9838  -20.6154  -10.6439 C   0  0  0  0  0  0  0  0  0  0  0  0
   25.4935  -21.0138  -11.9991 C   0  0  2  0  0  0  0  0  0  0  0  0
   26.5420  -20.6706  -12.9506 N   0  0  0  0  0  0  0  0  0  0  0  0
   24.2355  -20.3078  -12.3301 C   0  0  0  0  0  0  0  0  0  0  0  0
   24.1835  -19.0762  -12.5414 O   0  0  0  0  0  0  0  0  0  0  0  0
   22.9806  -20.9908  -12.4327 N   0  0  0  0  0  0  0  0  0  0  0  0
   21.7567  -20.4171  -12.8763 C   0  0  1  0  0  0  0  0  0  0  0  0
   21.0116  -21.1322  -13.9233 C   0  0  0  0  0  0  0  0  0  0  0  0
   20.5559  -22.5148  -13.6435 C   0  0  0  0  0  0  0  0  0  0  0  0
   20.6805  -23.4762  -14.7471 C   0  0  0  0  0  0  0  0  0  0  0  0
   21.1551  -23.0759  -15.8394 O   0  0  0  0  0  0  0  0  0  0  0  0
   20.8945  -20.0710  -11.7201 C   0  0  0  0  0  0  0  0  0  0  0  0
   19.8259  -19.4045  -11.8436 O   0  0  0  0  0  0  0  0  0  0  0  0
   20.3072  -24.8135  -14.6706 O   0  0  0  0  0  0  0  0  0  0  0  0
   21.2151  -20.4625  -10.4262 O   0  0  0  0  0  0  0  0  0  0  0  0
  2  1  1  6
  3  4  1  0
  3  2  1  0
  4  5  2  0
  4  8  1  0
  5  6  1  0
  6  7  1  0
  8  7  2  0
  9  2  1  0
  9 10  2  0
 11 12  1  0
 13 12  1  0
 14 13  1  0
 15 16  1  0
 15 14  1  1
 16  9  1  0
 17 15  1  0
 18 17  2  0
 19 17  1  0
 20 19  1  0
 20 21  1  6
 22 21  1  0
 22 23  1  0
 23 27  1  0
 23 24  2  0
 25 20  1  0
 25 28  1  0
 26 25  2  0
M  END
$$$$
