HME.pdb
     RDKit          3D

 28 28  0  0  1  0  0  0  0  0999 V2000
   25.0733  -11.8997  -18.2555 N   0  0  0  0  0  0  0  0  0  0  0  0
   24.2896  -12.0167  -17.0435 C   0  0  1  0  0  0  0  0  0  0  0  0
   25.1563  -11.5411  -15.8959 C   0  0  0  0  0  0  0  0  0  0  0  0
   26.2448  -12.5304  -15.6869 C   0  0  0  0  0  0  0  0  0  0  0  0
   26.1570  -13.8247  -15.2031 C   0  0  0  0  0  0  0  0  0  0  0  0
   27.3879  -14.3714  -15.1740 N   0  0  0  0  0  0  0  0  0  0  0  0
   28.2457  -13.4560  -15.6262 C   0  0  0  0  0  0  0  0  0  0  0  0
   27.5616  -12.3496  -15.9348 N   0  0  0  0  0  0  0  0  0  0  0  0
   23.0676  -11.2035  -17.1898 C   0  0  0  0  0  0  0  0  0  0  0  0
   23.1670  -10.0653  -17.7243 O   0  0  0  0  0  0  0  0  0  0  0  0
   15.2581  -11.2768  -17.7926 C   0  0  0  0  0  0  0  0  0  0  0  0
   16.7829  -12.2351  -17.5471 S   0  0  0  0  0  0  0  0  0  0  0  0
   18.1353  -11.0136  -17.3832 C   0  0  0  0  0  0  0  0  0  0  0  0
   19.4523  -11.7069  -17.1840 C   0  0  0  0  0  0  0  0  0  0  0  0
   20.6360  -10.8053  -17.0380 C   0  0  2  0  0  0  0  0  0  0  0  0
   21.7861  -11.6528  -16.7524 N   0  0  0  0  0  0  0  0  0  0  0  0
   20.4209   -9.8301  -15.9456 C   0  0  0  0  0  0  0  0  0  0  0  0
   21.0297   -9.8876  -14.8547 O   0  0  0  0  0  0  0  0  0  0  0  0
   19.4940   -8.7443  -16.0625 N   0  0  0  0  0  0  0  0  0  0  0  0
   19.4688   -7.5820  -15.2426 C   0  0  1  0  0  0  0  0  0  0  0  0
   20.7191   -6.8199  -15.1062 C   0  0  0  0  0  0  0  0  0  0  0  0
   20.7180   -5.6140  -14.2440 C   0  0  0  0  0  0  0  0  0  0  0  0
   22.0054   -4.9236  -14.0903 C   0  0  0  0  0  0  0  0  0  0  0  0
   23.0426   -5.6167  -13.9411 O   0  0  0  0  0  0  0  0  0  0  0  0
   18.3254   -6.7110  -15.6088 C   0  0  0  0  0  0  0  0  0  0  0  0
   17.7678   -6.7614  -16.7436 O   0  0  0  0  0  0  0  0  0  0  0  0
   22.1624   -3.5420  -14.0980 O   0  0  0  0  0  0  0  0  0  0  0  0
   17.7989   -5.7834  -14.7186 O   0  0  0  0  0  0  0  0  0  0  0  0
  2  1  1  6
  3  4  1  0
  3  2  1  0
  4  5  2  0
  4  8  1  0
  5  6  1  0
  6  7  1  0
  8  7  2  0
  9  2  1  0
  9 10  2  0
 11 12  1  0
 13 12  1  0
 14 13  1  0
 15 16  1  0
 15 14  1  1
 16  9  1  0
 17 15  1  0
 18 17  2  0
 19 17  1  0
 20 19  1  0
 20 21  1  6
 22 21  1  0
 22 23  1  0
 23 27  1  0
 23 24  2  0
 25 20  1  0
 25 28  1  0
 26 25  2  0
M  END
$$$$
