HME.pdb
     RDKit          3D

 28 28  0  0  1  0  0  0  0  0999 V2000
   30.3776  -23.3221   -9.7908 N   0  0  0  0  0  0  0  0  0  0  0  0
   30.0327  -21.9516  -10.1063 C   0  0  1  0  0  0  0  0  0  0  0  0
   30.4244  -21.7063  -11.5487 C   0  0  0  0  0  0  0  0  0  0  0  0
   31.8946  -21.8806  -11.6731 C   0  0  0  0  0  0  0  0  0  0  0  0
   32.8794  -21.6210  -10.7352 C   0  0  0  0  0  0  0  0  0  0  0  0
   34.0829  -21.9191  -11.2622 N   0  0  0  0  0  0  0  0  0  0  0  0
   33.8806  -22.3586  -12.5048 C   0  0  0  0  0  0  0  0  0  0  0  0
   32.5672  -22.3364  -12.7539 N   0  0  0  0  0  0  0  0  0  0  0  0
   28.5862  -21.7647   -9.8849 C   0  0  0  0  0  0  0  0  0  0  0  0
   27.7938  -22.6315  -10.3449 O   0  0  0  0  0  0  0  0  0  0  0  0
   28.9232  -19.4325   -4.0508 C   0  0  0  0  0  0  0  0  0  0  0  0
   27.4266  -19.1953   -5.0546 S   0  0  0  0  0  0  0  0  0  0  0  0
   27.7008  -20.1192   -6.6101 C   0  0  0  0  0  0  0  0  0  0  0  0
   26.4914  -20.0330   -7.4960 C   0  0  0  0  0  0  0  0  0  0  0  0
   26.6354  -20.6698   -8.8412 C   0  0  2  0  0  0  0  0  0  0  0  0
   28.0534  -20.6479   -9.1747 N   0  0  0  0  0  0  0  0  0  0  0  0
   25.8480  -19.9347   -9.8563 C   0  0  0  0  0  0  0  0  0  0  0  0
   26.2964  -18.9467  -10.4784 O   0  0  0  0  0  0  0  0  0  0  0  0
   24.5081  -20.3065  -10.2000 N   0  0  0  0  0  0  0  0  0  0  0  0
   23.9526  -20.2934  -11.5095 C   0  0  1  0  0  0  0  0  0  0  0  0
   24.6775  -21.0210  -12.5620 C   0  0  0  0  0  0  0  0  0  0  0  0
   24.1020  -21.0414  -13.9280 C   0  0  0  0  0  0  0  0  0  0  0  0
   24.8688  -20.3413  -14.9670 C   0  0  0  0  0  0  0  0  0  0  0  0
   25.9715  -20.8248  -15.3257 O   0  0  0  0  0  0  0  0  0  0  0  0
   22.5162  -20.6610  -11.4697 C   0  0  0  0  0  0  0  0  0  0  0  0
   22.0220  -21.3757  -10.5498 O   0  0  0  0  0  0  0  0  0  0  0  0
   24.4586  -19.1681  -15.5906 O   0  0  0  0  0  0  0  0  0  0  0  0
   21.6260  -20.2376  -12.4487 O   0  0  0  0  0  0  0  0  0  0  0  0
  2  1  1  6
  3  4  1  0
  3  2  1  0
  4  5  2  0
  4  8  1  0
  5  6  1  0
  6  7  1  0
  8  7  2  0
  9  2  1  0
  9 10  2  0
 11 12  1  0
 13 12  1  0
 14 13  1  0
 15 16  1  0
 15 14  1  1
 16  9  1  0
 17 15  1  0
 18 17  2  0
 19 17  1  0
 20 19  1  0
 20 21  1  6
 22 21  1  0
 22 23  1  0
 23 27  1  0
 23 24  2  0
 25 20  1  0
 25 28  1  0
 26 25  2  0
M  END
$$$$
