HME.pdb
     RDKit          3D

 28 28  0  0  1  0  0  0  0  0999 V2000
   28.1336  -22.5967  -16.8725 N   0  0  0  0  0  0  0  0  0  0  0  0
   27.6228  -21.2937  -16.5006 C   0  0  1  0  0  0  0  0  0  0  0  0
   26.9873  -20.6871  -17.7345 C   0  0  0  0  0  0  0  0  0  0  0  0
   27.9898  -19.8155  -18.3998 C   0  0  0  0  0  0  0  0  0  0  0  0
   28.6155  -18.6832  -17.9066 C   0  0  0  0  0  0  0  0  0  0  0  0
   29.4542  -18.1973  -18.8422 N   0  0  0  0  0  0  0  0  0  0  0  0
   29.3722  -18.9933  -19.9089 C   0  0  0  0  0  0  0  0  0  0  0  0
   28.4934  -19.9658  -19.6456 N   0  0  0  0  0  0  0  0  0  0  0  0
   26.6523  -21.4617  -15.4024 C   0  0  0  0  0  0  0  0  0  0  0  0
   25.9050  -22.4778  -15.4148 O   0  0  0  0  0  0  0  0  0  0  0  0
   24.5187  -21.5978   -8.4417 C   0  0  0  0  0  0  0  0  0  0  0  0
   25.6893  -21.4851   -9.8277 S   0  0  0  0  0  0  0  0  0  0  0  0
   25.1096  -20.1027  -10.8771 C   0  0  0  0  0  0  0  0  0  0  0  0
   25.9784  -19.9627  -12.0939 C   0  0  0  0  0  0  0  0  0  0  0  0
   25.6302  -20.8613  -13.2370 C   0  0  2  0  0  0  0  0  0  0  0  0
   26.5278  -20.5245  -14.3340 N   0  0  0  0  0  0  0  0  0  0  0  0
   24.2184  -20.6740  -13.6402 C   0  0  0  0  0  0  0  0  0  0  0  0
   23.7937  -19.6154  -14.1532 O   0  0  0  0  0  0  0  0  0  0  0  0
   23.2330  -21.6996  -13.4702 N   0  0  0  0  0  0  0  0  0  0  0  0
   21.8539  -21.5893  -13.8017 C   0  0  1  0  0  0  0  0  0  0  0  0
   21.0480  -22.8191  -13.7722 C   0  0  0  0  0  0  0  0  0  0  0  0
   19.6081  -22.7253  -14.1120 C   0  0  0  0  0  0  0  0  0  0  0  0
   18.8641  -23.9914  -14.1446 C   0  0  0  0  0  0  0  0  0  0  0  0
   19.4681  -25.0491  -13.8363 O   0  0  0  0  0  0  0  0  0  0  0  0
   21.2194  -20.4917  -13.0319 C   0  0  0  0  0  0  0  0  0  0  0  0
   21.4585  -20.2943  -11.8050 O   0  0  0  0  0  0  0  0  0  0  0  0
   17.5236  -24.1068  -14.4958 O   0  0  0  0  0  0  0  0  0  0  0  0
   20.3193  -19.6120  -13.6201 O   0  0  0  0  0  0  0  0  0  0  0  0
  2  1  1  6
  3  4  1  0
  3  2  1  0
  4  5  2  0
  4  8  1  0
  5  6  1  0
  6  7  1  0
  8  7  2  0
  9  2  1  0
  9 10  2  0
 11 12  1  0
 13 12  1  0
 14 13  1  0
 15 16  1  0
 15 14  1  1
 16  9  1  0
 17 15  1  0
 18 17  2  0
 19 17  1  0
 20 19  1  0
 20 21  1  1
 22 21  1  0
 22 23  1  0
 23 27  1  0
 23 24  2  0
 25 20  1  0
 25 28  1  0
 26 25  2  0
M  END
$$$$
