FTD.pdb
     RDKit          3D

 27 27  0  0  1  0  0  0  0  0999 V2000
    8.0889  -15.4160   25.6851 N   0  0  0  0  0  0  0  0  0  0  0  0
    7.1427  -15.2378   24.5996 C   0  0  1  0  0  0  0  0  0  0  0  0
    7.0341  -13.7719   24.3123 C   0  0  0  0  0  0  0  0  0  0  0  0
    6.8508  -13.0471   25.6122 C   0  0  0  0  0  0  0  0  0  0  0  0
    7.9137  -12.4341   26.2512 C   0  0  0  0  0  0  0  0  0  0  0  0
    7.7368  -11.7677   27.4496 C   0  0  0  0  0  0  0  0  0  0  0  0
    6.4949  -11.6945   28.0432 C   0  0  0  0  0  0  0  0  0  0  0  0
    5.4425  -12.3114   27.3935 C   0  0  0  0  0  0  0  0  0  0  0  0
    5.6045  -12.9809   26.1958 C   0  0  0  0  0  0  0  0  0  0  0  0
    7.5808  -15.9671   23.3756 C   0  0  0  0  0  0  0  0  0  0  0  0
    6.8826  -16.8298   22.7974 O   0  0  0  0  0  0  0  0  0  0  0  0
    6.8980  -15.4906   20.9725 C   0  0  0  0  0  0  0  0  0  0  0  0
    8.3237  -15.3789   20.5494 C   0  0  1  0  0  0  0  0  0  0  0  0
    8.7788  -14.0984   20.4003 O   0  0  0  0  0  0  0  0  0  0  0  0
    9.2699  -16.1119   21.5044 C   0  0  2  0  0  0  0  0  0  0  0  0
    8.8570  -15.6751   22.8279 N   0  0  0  0  0  0  0  0  0  0  0  0
   10.6795  -15.8598   21.2317 C   0  0  0  0  0  0  0  0  0  0  0  0
   11.1059  -14.7107   20.9464 O   0  0  0  0  0  0  0  0  0  0  0  0
   11.6235  -16.9110   21.2805 N   0  0  0  0  0  0  0  0  0  0  0  0
   12.6277  -17.0099   22.3453 C   0  0  1  0  0  0  0  0  0  0  0  0
   11.9725  -17.2039   23.6722 C   0  0  0  0  0  0  0  0  0  0  0  0
   12.9334  -17.3279   24.7764 C   0  0  0  0  0  0  0  0  0  0  0  0
   14.1656  -17.3331   24.6298 O   0  0  0  0  0  0  0  0  0  0  0  0
   13.4931  -18.1843   22.0592 C   0  0  0  0  0  0  0  0  0  0  0  0
   14.7333  -18.1941   22.2258 O   0  0  0  0  0  0  0  0  0  0  0  0
   12.4363  -17.4471   26.0674 O   0  0  0  0  0  0  0  0  0  0  0  0
   12.9131  -19.3526   21.5772 O   0  0  0  0  0  0  0  0  0  0  0  0
  2 10  1  0
  2  1  1  1
  3  2  1  0
  4  9  2  0
  4  3  1  0
  5  4  1  0
  6  7  1  0
  6  5  2  0
  7  8  2  0
  8  9  1  0
 10 11  2  0
 13 12  1  1
 13 14  1  0
 15 13  1  0
 16 10  1  0
 15 16  1  1
 17 18  2  0
 17 15  1  0
 19 17  1  0
 20 19  1  0
 20 21  1  1
 22 26  1  0
 22 21  1  0
 23 22  2  0
 24 20  1  0
 24 27  1  0
 25 24  2  0
M  END
$$$$
