FTD.pdb
     RDKit          3D

 27 27  0  0  1  0  0  0  0  0999 V2000
    6.4886  -15.8882   26.1001 N   0  0  0  0  0  0  0  0  0  0  0  0
    7.0065  -15.1409   24.9694 C   0  0  1  0  0  0  0  0  0  0  0  0
    7.9641  -14.1135   25.4894 C   0  0  0  0  0  0  0  0  0  0  0  0
    7.1852  -13.0827   26.2506 C   0  0  0  0  0  0  0  0  0  0  0  0
    7.2398  -13.0132   27.6313 C   0  0  0  0  0  0  0  0  0  0  0  0
    6.5188  -12.0599   28.3262 C   0  0  0  0  0  0  0  0  0  0  0  0
    5.7236  -11.1501   27.6629 C   0  0  0  0  0  0  0  0  0  0  0  0
    5.6787  -11.2314   26.2839 C   0  0  0  0  0  0  0  0  0  0  0  0
    6.3938  -12.1786   25.5764 C   0  0  0  0  0  0  0  0  0  0  0  0
    7.6968  -16.0378   23.9993 C   0  0  0  0  0  0  0  0  0  0  0  0
    8.0411  -17.2110   24.2663 O   0  0  0  0  0  0  0  0  0  0  0  0
    6.7925  -16.0205   20.3262 C   0  0  0  0  0  0  0  0  0  0  0  0
    8.2759  -15.8778   20.3832 C   0  0  1  0  0  0  0  0  0  0  0  0
    8.7458  -14.6380   20.0496 O   0  0  0  0  0  0  0  0  0  0  0  0
    8.8404  -16.2464   21.7580 C   0  0  2  0  0  0  0  0  0  0  0  0
    7.9840  -15.5450   22.7000 N   0  0  0  0  0  0  0  0  0  0  0  0
   10.2522  -15.9179   21.9127 C   0  0  0  0  0  0  0  0  0  0  0  0
   10.6313  -14.8930   22.5366 O   0  0  0  0  0  0  0  0  0  0  0  0
   11.2520  -16.7511   21.3607 N   0  0  0  0  0  0  0  0  0  0  0  0
   12.6526  -16.6802   21.7907 C   0  0  1  0  0  0  0  0  0  0  0  0
   12.7847  -17.0713   23.2251 C   0  0  0  0  0  0  0  0  0  0  0  0
   14.1792  -17.1108   23.6852 C   0  0  0  0  0  0  0  0  0  0  0  0
   15.1610  -16.9297   22.9482 O   0  0  0  0  0  0  0  0  0  0  0  0
   13.4419  -17.6264   20.9590 C   0  0  0  0  0  0  0  0  0  0  0  0
   14.6887  -17.5944   20.8587 O   0  0  0  0  0  0  0  0  0  0  0  0
   14.4189  -17.3664   25.0288 O   0  0  0  0  0  0  0  0  0  0  0  0
   12.7775  -18.6144   20.2405 O   0  0  0  0  0  0  0  0  0  0  0  0
  2 10  1  0
  2  1  1  1
  3  2  1  0
  4  9  2  0
  4  3  1  0
  5  4  1  0
  6  7  1  0
  6  5  2  0
  7  8  2  0
  8  9  1  0
 10 11  2  0
 13 12  1  1
 13 14  1  0
 15 13  1  0
 16 10  1  0
 15 16  1  1
 17 18  2  0
 17 15  1  0
 19 17  1  0
 20 19  1  0
 20 21  1  1
 22 26  1  0
 22 21  1  0
 23 22  2  0
 24 20  1  0
 24 27  1  0
 25 24  2  0
M  END
$$$$
