FTD.pdb
     RDKit          3D

 27 27  0  0  1  0  0  0  0  0999 V2000
    5.5977  -17.4879   25.6453 N   0  0  0  0  0  0  0  0  0  0  0  0
    6.4405  -16.3410   25.3627 C   0  0  1  0  0  0  0  0  0  0  0  0
    7.1117  -15.9309   26.6372 C   0  0  0  0  0  0  0  0  0  0  0  0
    7.2060  -14.4345   26.6623 C   0  0  0  0  0  0  0  0  0  0  0  0
    8.3501  -13.7779   26.2454 C   0  0  0  0  0  0  0  0  0  0  0  0
    8.4296  -12.3978   26.2715 C   0  0  0  0  0  0  0  0  0  0  0  0
    7.3700  -11.6352   26.7140 C   0  0  0  0  0  0  0  0  0  0  0  0
    6.2337  -12.3047   27.1273 C   0  0  0  0  0  0  0  0  0  0  0  0
    6.1402  -13.6831   27.1068 C   0  0  0  0  0  0  0  0  0  0  0  0
    7.4635  -16.6641   24.3277 C   0  0  0  0  0  0  0  0  0  0  0  0
    8.2051  -17.6708   24.3789 O   0  0  0  0  0  0  0  0  0  0  0  0
    6.5672  -15.6006   20.7374 C   0  0  0  0  0  0  0  0  0  0  0  0
    8.0071  -15.2771   20.9519 C   0  0  1  0  0  0  0  0  0  0  0  0
    8.2816  -13.9444   21.0849 O   0  0  0  0  0  0  0  0  0  0  0  0
    8.5896  -16.0063   22.1658 C   0  0  2  0  0  0  0  0  0  0  0  0
    7.6129  -15.7896   23.2202 N   0  0  0  0  0  0  0  0  0  0  0  0
    9.9293  -15.5575   22.5245 C   0  0  0  0  0  0  0  0  0  0  0  0
   10.1209  -14.6587   23.3842 O   0  0  0  0  0  0  0  0  0  0  0  0
   11.0694  -16.1253   21.9110 N   0  0  0  0  0  0  0  0  0  0  0  0
   12.4263  -15.8912   22.4167 C   0  0  1  0  0  0  0  0  0  0  0  0
   12.5689  -16.4143   23.8073 C   0  0  0  0  0  0  0  0  0  0  0  0
   13.8980  -16.1676   24.3820 C   0  0  0  0  0  0  0  0  0  0  0  0
   14.8013  -15.5426   23.8046 O   0  0  0  0  0  0  0  0  0  0  0  0
   13.3814  -16.6089   21.5320 C   0  0  0  0  0  0  0  0  0  0  0  0
   13.3064  -17.8301   21.2693 O   0  0  0  0  0  0  0  0  0  0  0  0
   14.1655  -16.6632   25.6513 O   0  0  0  0  0  0  0  0  0  0  0  0
   14.4285  -15.9028   20.9501 O   0  0  0  0  0  0  0  0  0  0  0  0
  2 10  1  0
  2  1  1  1
  3  2  1  0
  4  9  2  0
  4  3  1  0
  5  4  1  0
  6  7  1  0
  6  5  2  0
  7  8  2  0
  8  9  1  0
 10 11  2  0
 13 12  1  1
 13 14  1  0
 15 13  1  0
 16 10  1  0
 15 16  1  1
 17 18  2  0
 17 15  1  0
 19 17  1  0
 20 19  1  0
 20 21  1  1
 22 26  1  0
 22 21  1  0
 23 22  2  0
 24 20  1  0
 24 27  1  0
 25 24  2  0
M  END
$$$$
