FTD.pdb
     RDKit          3D

 27 27  0  0  1  0  0  0  0  0999 V2000
    5.9974  -16.3175   24.7425 N   0  0  0  0  0  0  0  0  0  0  0  0
    7.2553  -15.6839   24.3936 C   0  0  1  0  0  0  0  0  0  0  0  0
    7.8346  -15.0828   25.6370 C   0  0  0  0  0  0  0  0  0  0  0  0
    7.1504  -13.7733   25.8929 C   0  0  0  0  0  0  0  0  0  0  0  0
    7.6048  -12.5990   25.3197 C   0  0  0  0  0  0  0  0  0  0  0  0
    6.9686  -11.3953   25.5604 C   0  0  0  0  0  0  0  0  0  0  0  0
    5.8618  -11.3301   26.3794 C   0  0  0  0  0  0  0  0  0  0  0  0
    5.4192  -12.5109   26.9451 C   0  0  0  0  0  0  0  0  0  0  0  0
    6.0449  -13.7208   26.7135 C   0  0  0  0  0  0  0  0  0  0  0  0
    8.2111  -16.6663   23.8079 C   0  0  0  0  0  0  0  0  0  0  0  0
    7.8656  -17.7780   23.3486 O   0  0  0  0  0  0  0  0  0  0  0  0
    8.5571  -17.2331   21.3373 C   0  0  0  0  0  0  0  0  0  0  0  0
    9.9546  -16.7291   21.4673 C   0  0  1  0  0  0  0  0  0  0  0  0
   10.1162  -15.4044   21.1702 O   0  0  0  0  0  0  0  0  0  0  0  0
   10.5320  -16.9774   22.8635 C   0  0  2  0  0  0  0  0  0  0  0  0
    9.5898  -16.3333   23.7638 N   0  0  0  0  0  0  0  0  0  0  0  0
   11.8978  -16.4931   23.0212 C   0  0  0  0  0  0  0  0  0  0  0  0
   12.1893  -15.2752   22.8975 O   0  0  0  0  0  0  0  0  0  0  0  0
   12.9506  -17.3871   23.3227 N   0  0  0  0  0  0  0  0  0  0  0  0
   14.1728  -16.9519   24.0071 C   0  0  1  0  0  0  0  0  0  0  0  0
   14.8107  -18.0941   24.7254 C   0  0  0  0  0  0  0  0  0  0  0  0
   13.9836  -18.6207   25.8193 C   0  0  0  0  0  0  0  0  0  0  0  0
   13.2760  -17.9179   26.5577 O   0  0  0  0  0  0  0  0  0  0  0  0
   15.1200  -16.4376   22.9832 C   0  0  0  0  0  0  0  0  0  0  0  0
   14.9296  -16.5263   21.7496 O   0  0  0  0  0  0  0  0  0  0  0  0
   13.9908  -19.9907   26.0452 O   0  0  0  0  0  0  0  0  0  0  0  0
   16.2940  -15.8174   23.3962 O   0  0  0  0  0  0  0  0  0  0  0  0
  2 10  1  0
  2  1  1  1
  3  2  1  0
  4  9  2  0
  4  3  1  0
  5  4  1  0
  6  7  1  0
  6  5  2  0
  7  8  2  0
  8  9  1  0
 10 11  2  0
 13 12  1  1
 13 14  1  0
 15 13  1  0
 16 10  1  0
 15 16  1  1
 17 18  2  0
 17 15  1  0
 19 17  1  0
 20 19  1  0
 20 21  1  6
 22 26  1  0
 22 21  1  0
 23 22  2  0
 24 20  1  0
 24 27  1  0
 25 24  2  0
M  END
$$$$
