FTD.pdb
     RDKit          3D

 27 27  0  0  1  0  0  0  0  0999 V2000
    7.8061  -13.4949   20.5146 N   0  0  0  0  0  0  0  0  0  0  0  0
    7.9911  -13.6061   21.9494 C   0  0  1  0  0  0  0  0  0  0  0  0
    6.8138  -12.9695   22.6215 C   0  0  0  0  0  0  0  0  0  0  0  0
    7.0443  -12.9936   24.1030 C   0  0  0  0  0  0  0  0  0  0  0  0
    7.8616  -12.0633   24.7200 C   0  0  0  0  0  0  0  0  0  0  0  0
    8.0694  -12.0920   26.0867 C   0  0  0  0  0  0  0  0  0  0  0  0
    7.4676  -13.0493   26.8750 C   0  0  0  0  0  0  0  0  0  0  0  0
    6.6539  -13.9720   26.2450 C   0  0  0  0  0  0  0  0  0  0  0  0
    6.4372  -13.9554   24.8805 C   0  0  0  0  0  0  0  0  0  0  0  0
    8.1105  -15.0311   22.3701 C   0  0  0  0  0  0  0  0  0  0  0  0
    7.3730  -15.9444   21.9364 O   0  0  0  0  0  0  0  0  0  0  0  0
    8.6098  -17.5798   21.4522 C   0  0  0  0  0  0  0  0  0  0  0  0
    9.7778  -17.4383   22.3686 C   0  0  1  0  0  0  0  0  0  0  0  0
   10.8463  -16.7714   21.8367 O   0  0  0  0  0  0  0  0  0  0  0  0
    9.4001  -16.7569   23.6868 C   0  0  2  0  0  0  0  0  0  0  0  0
    9.1112  -15.3822   23.3130 N   0  0  0  0  0  0  0  0  0  0  0  0
   10.4295  -16.8674   24.7130 C   0  0  0  0  0  0  0  0  0  0  0  0
   11.4549  -16.1380   24.7067 O   0  0  0  0  0  0  0  0  0  0  0  0
   10.3063  -17.8085   25.7607 N   0  0  0  0  0  0  0  0  0  0  0  0
   11.2972  -17.9126   26.8373 C   0  0  1  0  0  0  0  0  0  0  0  0
   10.7697  -18.7400   27.9619 C   0  0  0  0  0  0  0  0  0  0  0  0
   10.2577  -20.0458   27.5254 C   0  0  0  0  0  0  0  0  0  0  0  0
    9.5691  -20.2189   26.5076 O   0  0  0  0  0  0  0  0  0  0  0  0
   12.5132  -18.5672   26.2870 C   0  0  0  0  0  0  0  0  0  0  0  0
   12.5299  -19.2270   25.2239 O   0  0  0  0  0  0  0  0  0  0  0  0
   10.5606  -21.1598   28.2970 O   0  0  0  0  0  0  0  0  0  0  0  0
   13.7154  -18.4538   26.9766 O   0  0  0  0  0  0  0  0  0  0  0  0
  2 10  1  0
  2  1  1  6
  3  2  1  0
  4  9  2  0
  4  3  1  0
  5  4  1  0
  6  7  1  0
  6  5  2  0
  7  8  2  0
  8  9  1  0
 10 11  2  0
 13 12  1  6
 13 14  1  0
 15 13  1  0
 16 10  1  0
 15 16  1  6
 17 18  2  0
 17 15  1  0
 19 17  1  0
 20 19  1  0
 20 21  1  1
 22 26  1  0
 22 21  1  0
 23 22  2  0
 24 20  1  0
 24 27  1  0
 25 24  2  0
M  END
$$$$
