IFF.pdb
     RDKit          3D

 31 32  0  0  1  0  0  0  0  0999 V2000
   33.5299  -25.0503  -24.2864 C   0  0  0  0  0  0  0  0  0  0  0  0
   33.6364  -24.9609  -22.7661 C   0  0  0  0  0  0  0  0  0  0  0  0
   33.5202  -26.3540  -22.2243 C   0  0  2  0  0  0  0  0  0  0  0  0
   32.3172  -27.0862  -22.7779 C   0  0  0  0  0  0  0  0  0  0  0  0
   33.6253  -26.4392  -20.7428 C   0  0  2  0  0  0  0  0  0  0  0  0
   34.9778  -25.9792  -20.3740 N   0  0  0  0  0  0  0  0  0  0  0  0
   33.3726  -27.7825  -20.1690 C   0  0  0  0  0  0  0  0  0  0  0  0
   34.1664  -28.7318  -20.3753 O   0  0  0  0  0  0  0  0  0  0  0  0
   32.2181  -28.0049  -19.3741 N   0  0  0  0  0  0  0  0  0  0  0  0
   31.9002  -29.3316  -18.7904 C   0  0  1  0  0  0  0  0  0  0  0  0
   31.5405  -29.1711  -17.3550 C   0  0  0  0  0  0  0  0  0  0  0  0
   30.9597  -30.3137  -16.6661 C   0  0  0  0  0  0  0  0  0  0  0  0
   31.6977  -31.4427  -16.3577 C   0  0  0  0  0  0  0  0  0  0  0  0
   31.1530  -32.5079  -15.6706 C   0  0  0  0  0  0  0  0  0  0  0  0
   29.8412  -32.4849  -15.2629 C   0  0  0  0  0  0  0  0  0  0  0  0
   29.0967  -31.3781  -15.5588 C   0  0  0  0  0  0  0  0  0  0  0  0
   29.6461  -30.3066  -16.2505 C   0  0  0  0  0  0  0  0  0  0  0  0
   30.9512  -30.0456  -19.6425 C   0  0  0  0  0  0  0  0  0  0  0  0
   29.8912  -29.4172  -20.0178 O   0  0  0  0  0  0  0  0  0  0  0  0
   31.0586  -31.3689  -20.1194 N   0  0  0  0  0  0  0  0  0  0  0  0
   29.9553  -32.0059  -20.8663 C   0  0  1  0  0  0  0  0  0  0  0  0
   30.5886  -32.9978  -21.8128 C   0  0  0  0  0  0  0  0  0  0  0  0
   29.6632  -33.7391  -22.6574 C   0  0  0  0  0  0  0  0  0  0  0  0
   29.0595  -34.8902  -22.2009 C   0  0  0  0  0  0  0  0  0  0  0  0
   28.1762  -35.5667  -23.0159 C   0  0  0  0  0  0  0  0  0  0  0  0
   27.8780  -35.1196  -24.2854 C   0  0  0  0  0  0  0  0  0  0  0  0
   28.4842  -33.9752  -24.7268 C   0  0  0  0  0  0  0  0  0  0  0  0
   29.3645  -33.2929  -23.9263 C   0  0  0  0  0  0  0  0  0  0  0  0
   29.0039  -32.6907  -20.0027 C   0  0  0  0  0  0  0  0  0  0  0  0
   29.3634  -33.4821  -19.1037 O   0  0  0  0  0  0  0  0  0  0  0  0
   27.6506  -32.4813  -20.1529 O   0  0  0  0  0  0  0  0  0  0  0  0
  1  2  1  0
  3  5  1  0
  3  2  1  0
  3  4  1  1
  5  6  1  6
  7  9  1  0
  7  5  1  0
  8  7  2  0
 10  9  1  0
 11 12  1  0
 10 11  1  1
 12 17  1  0
 13 12  2  0
 13 14  1  0
 14 15  2  0
 15 16  1  0
 17 16  2  0
 18 10  1  0
 18 20  1  0
 19 18  2  0
 21 20  1  0
 21 29  1  0
 21 22  1  6
 23 22  1  0
 23 24  2  0
 25 24  1  0
 26 25  2  0
 27 28  2  0
 27 26  1  0
 28 23  1  0
 29 30  2  0
 29 31  1  0
M  END
$$$$
