IFF.pdb
     RDKit          3D

 31 32  0  0  1  0  0  0  0  0999 V2000
   23.9076  -20.4702  -17.6862 C   0  0  0  0  0  0  0  0  0  0  0  0
   22.9387  -20.0980  -16.5667 C   0  0  0  0  0  0  0  0  0  0  0  0
   22.2605  -21.3585  -16.1209 C   0  0  2  0  0  0  0  0  0  0  0  0
   20.8581  -21.4824  -16.6759 C   0  0  0  0  0  0  0  0  0  0  0  0
   22.3321  -21.5999  -14.6547 C   0  0  2  0  0  0  0  0  0  0  0  0
   21.7099  -20.4386  -13.9904 N   0  0  0  0  0  0  0  0  0  0  0  0
   23.6962  -21.8203  -14.1179 C   0  0  0  0  0  0  0  0  0  0  0  0
   24.3588  -22.8364  -14.4377 O   0  0  0  0  0  0  0  0  0  0  0  0
   24.2669  -20.8723  -13.2292 N   0  0  0  0  0  0  0  0  0  0  0  0
   25.6002  -21.0691  -12.6084 C   0  0  1  0  0  0  0  0  0  0  0  0
   26.5983  -20.1957  -13.2841 C   0  0  0  0  0  0  0  0  0  0  0  0
   27.9745  -20.2432  -12.8140 C   0  0  0  0  0  0  0  0  0  0  0  0
   28.7152  -21.4119  -12.8160 C   0  0  0  0  0  0  0  0  0  0  0  0
   30.0318  -21.4446  -12.4053 C   0  0  0  0  0  0  0  0  0  0  0  0
   30.6625  -20.3028  -11.9739 C   0  0  0  0  0  0  0  0  0  0  0  0
   29.9467  -19.1390  -11.9648 C   0  0  0  0  0  0  0  0  0  0  0  0
   28.6215  -19.1073  -12.3784 C   0  0  0  0  0  0  0  0  0  0  0  0
   25.5010  -20.9708  -11.1534 C   0  0  0  0  0  0  0  0  0  0  0  0
   24.6843  -20.1025  -10.6650 O   0  0  0  0  0  0  0  0  0  0  0  0
   26.2035  -21.7316  -10.1954 N   0  0  0  0  0  0  0  0  0  0  0  0
   26.2357  -21.3324   -8.7740 C   0  0  1  0  0  0  0  0  0  0  0  0
   27.6743  -21.0093   -8.4471 C   0  0  0  0  0  0  0  0  0  0  0  0
   27.9164  -20.5147   -7.0995 C   0  0  0  0  0  0  0  0  0  0  0  0
   27.9413  -21.3774   -6.0257 C   0  0  0  0  0  0  0  0  0  0  0  0
   28.1859  -20.8855   -4.7607 C   0  0  0  0  0  0  0  0  0  0  0  0
   28.4082  -19.5431   -4.5388 C   0  0  0  0  0  0  0  0  0  0  0  0
   28.3808  -18.6969   -5.6136 C   0  0  0  0  0  0  0  0  0  0  0  0
   28.1387  -19.1734   -6.8767 C   0  0  0  0  0  0  0  0  0  0  0  0
   25.3965  -20.1776   -8.4877 C   0  0  0  0  0  0  0  0  0  0  0  0
   24.4540  -20.2207   -7.6669 O   0  0  0  0  0  0  0  0  0  0  0  0
   25.6218  -18.9774   -9.1252 O   0  0  0  0  0  0  0  0  0  0  0  0
  1  2  1  0
  3  5  1  0
  3  2  1  0
  3  4  1  1
  5  6  1  1
  7  9  1  0
  7  5  1  0
  8  7  2  0
 10  9  1  0
 11 12  1  0
 10 11  1  6
 12 17  1  0
 13 12  2  0
 13 14  1  0
 14 15  2  0
 15 16  1  0
 17 16  2  0
 18 10  1  0
 18 20  1  0
 19 18  2  0
 21 20  1  0
 21 29  1  0
 21 22  1  6
 23 22  1  0
 23 24  2  0
 25 24  1  0
 26 25  2  0
 27 28  2  0
 27 26  1  0
 28 23  1  0
 29 30  2  0
 29 31  1  0
M  END
$$$$
