IFF.pdb
     RDKit          3D

 31 32  0  0  1  0  0  0  0  0999 V2000
   26.1012  -17.0869  -19.4424 C   0  0  0  0  0  0  0  0  0  0  0  0
   25.6952  -18.5042  -19.8384 C   0  0  0  0  0  0  0  0  0  0  0  0
   25.2959  -19.2245  -18.5856 C   0  0  2  0  0  0  0  0  0  0  0  0
   24.1031  -18.5830  -17.9106 C   0  0  0  0  0  0  0  0  0  0  0  0
   26.4237  -19.4883  -17.6519 C   0  0  2  0  0  0  0  0  0  0  0  0
   27.4395  -20.2535  -18.3998 N   0  0  0  0  0  0  0  0  0  0  0  0
   26.0582  -20.2099  -16.4097 C   0  0  0  0  0  0  0  0  0  0  0  0
   25.5325  -21.3480  -16.4558 O   0  0  0  0  0  0  0  0  0  0  0  0
   26.3037  -19.6106  -15.1468 N   0  0  0  0  0  0  0  0  0  0  0  0
   25.8446  -20.2227  -13.8754 C   0  0  1  0  0  0  0  0  0  0  0  0
   26.8021  -19.8866  -12.7865 C   0  0  0  0  0  0  0  0  0  0  0  0
   26.4483  -20.2657  -11.4269 C   0  0  0  0  0  0  0  0  0  0  0  0
   26.8491  -21.4660  -10.8674 C   0  0  0  0  0  0  0  0  0  0  0  0
   26.5438  -21.8045   -9.5652 C   0  0  0  0  0  0  0  0  0  0  0  0
   25.8214  -20.9505   -8.7675 C   0  0  0  0  0  0  0  0  0  0  0  0
   25.4169  -19.7604   -9.3030 C   0  0  0  0  0  0  0  0  0  0  0  0
   25.7247  -19.4208  -10.6139 C   0  0  0  0  0  0  0  0  0  0  0  0
   24.4344  -19.9149  -13.6453 C   0  0  0  0  0  0  0  0  0  0  0  0
   24.0651  -18.6846  -13.7425 O   0  0  0  0  0  0  0  0  0  0  0  0
   23.4024  -20.8225  -13.3267 N   0  0  0  0  0  0  0  0  0  0  0  0
   22.1447  -20.3642  -12.7030 C   0  0  1  0  0  0  0  0  0  0  0  0
   21.4904  -19.4239  -13.6873 C   0  0  0  0  0  0  0  0  0  0  0  0
   21.1180  -20.0123  -14.9657 C   0  0  0  0  0  0  0  0  0  0  0  0
   19.8703  -20.5667  -15.1498 C   0  0  0  0  0  0  0  0  0  0  0  0
   19.5374  -21.1059  -16.3747 C   0  0  0  0  0  0  0  0  0  0  0  0
   20.4256  -21.1056  -17.4291 C   0  0  0  0  0  0  0  0  0  0  0  0
   21.6614  -20.5519  -17.2331 C   0  0  0  0  0  0  0  0  0  0  0  0
   22.0050  -20.0124  -16.0199 C   0  0  0  0  0  0  0  0  0  0  0  0
   21.2343  -21.4560  -12.3883 C   0  0  0  0  0  0  0  0  0  0  0  0
   20.1249  -21.2677  -11.8428 O   0  0  0  0  0  0  0  0  0  0  0  0
   21.5750  -22.7561  -12.6901 O   0  0  0  0  0  0  0  0  0  0  0  0
  1  2  1  0
  3  5  1  0
  3  2  1  0
  3  4  1  1
  5  6  1  6
  7  9  1  0
  7  5  1  0
  8  7  2  0
 10  9  1  0
 11 12  1  0
 10 11  1  1
 12 17  1  0
 13 12  2  0
 13 14  1  0
 14 15  2  0
 15 16  1  0
 17 16  2  0
 18 10  1  0
 18 20  1  0
 19 18  2  0
 21 20  1  0
 21 29  1  0
 21 22  1  6
 23 22  1  0
 23 24  2  0
 25 24  1  0
 26 25  2  0
 27 28  2  0
 27 26  1  0
 28 23  1  0
 29 30  2  0
 29 31  1  0
M  END
$$$$
