IFF.pdb
     RDKit          3D

 31 32  0  0  1  0  0  0  0  0999 V2000
   17.9770   -0.7927  -18.2251 C   0  0  0  0  0  0  0  0  0  0  0  0
   18.9324   -1.8892  -18.6891 C   0  0  0  0  0  0  0  0  0  0  0  0
   20.3161   -1.4838  -18.2784 C   0  0  2  0  0  0  0  0  0  0  0  0
   20.6595   -0.0801  -18.7273 C   0  0  0  0  0  0  0  0  0  0  0  0
   21.3666   -2.4801  -18.6206 C   0  0  2  0  0  0  0  0  0  0  0  0
   21.4009   -2.5904  -20.0915 N   0  0  0  0  0  0  0  0  0  0  0  0
   21.1846   -3.8212  -18.0157 C   0  0  0  0  0  0  0  0  0  0  0  0
   20.6945   -4.7667  -18.6786 O   0  0  0  0  0  0  0  0  0  0  0  0
   21.5681   -4.0456  -16.6678 N   0  0  0  0  0  0  0  0  0  0  0  0
   21.3561   -5.3479  -15.9889 C   0  0  1  0  0  0  0  0  0  0  0  0
   22.6568   -5.8614  -15.4788 C   0  0  0  0  0  0  0  0  0  0  0  0
   22.6566   -7.1308  -14.7674 C   0  0  0  0  0  0  0  0  0  0  0  0
   22.2520   -7.2375  -13.4486 C   0  0  0  0  0  0  0  0  0  0  0  0
   22.2170   -8.4491  -12.7897 C   0  0  0  0  0  0  0  0  0  0  0  0
   22.5874   -9.6078  -13.4282 C   0  0  0  0  0  0  0  0  0  0  0  0
   22.9900   -9.5218  -14.7309 C   0  0  0  0  0  0  0  0  0  0  0  0
   23.0249   -8.3017  -15.3931 C   0  0  0  0  0  0  0  0  0  0  0  0
   20.2549   -5.2475  -15.0330 C   0  0  0  0  0  0  0  0  0  0  0  0
   20.2969   -4.2946  -14.1673 O   0  0  0  0  0  0  0  0  0  0  0  0
   19.1222   -6.0836  -14.9432 N   0  0  0  0  0  0  0  0  0  0  0  0
   18.1900   -5.9904  -13.8017 C   0  0  1  0  0  0  0  0  0  0  0  0
   16.8047   -5.8408  -14.3844 C   0  0  0  0  0  0  0  0  0  0  0  0
   16.3432   -6.9543  -15.2008 C   0  0  0  0  0  0  0  0  0  0  0  0
   15.5809   -7.9622  -14.6523 C   0  0  0  0  0  0  0  0  0  0  0  0
   15.1449   -8.9992  -15.4503 C   0  0  0  0  0  0  0  0  0  0  0  0
   15.4531   -9.0558  -16.7928 C   0  0  0  0  0  0  0  0  0  0  0  0
   16.2108   -8.0485  -17.3252 C   0  0  0  0  0  0  0  0  0  0  0  0
   16.6507   -7.0116  -16.5426 C   0  0  0  0  0  0  0  0  0  0  0  0
   18.2335   -7.1589  -12.9341 C   0  0  0  0  0  0  0  0  0  0  0  0
   18.7770   -8.2307  -13.2798 O   0  0  0  0  0  0  0  0  0  0  0  0
   17.6663   -7.1165  -11.6794 O   0  0  0  0  0  0  0  0  0  0  0  0
  1  2  1  0
  3  5  1  0
  3  2  1  0
  3  4  1  6
  5  6  1  6
  7  9  1  0
  7  5  1  0
  8  7  2  0
 10  9  1  0
 11 12  1  0
 10 11  1  1
 12 17  1  0
 13 12  2  0
 13 14  1  0
 14 15  2  0
 15 16  1  0
 17 16  2  0
 18 10  1  0
 18 20  1  0
 19 18  2  0
 21 20  1  0
 21 29  1  0
 21 22  1  6
 23 22  1  0
 23 24  2  0
 25 24  1  0
 26 25  2  0
 27 28  2  0
 27 26  1  0
 28 23  1  0
 29 30  2  0
 29 31  1  0
M  END
$$$$
