IFF.pdb
     RDKit          3D

 31 32  0  0  1  0  0  0  0  0999 V2000
   30.6826  -20.6468  -19.4819 C   0  0  0  0  0  0  0  0  0  0  0  0
   29.3265  -19.9754  -19.6833 C   0  0  0  0  0  0  0  0  0  0  0  0
   28.7974  -19.6142  -18.3278 C   0  0  2  0  0  0  0  0  0  0  0  0
   28.7696  -20.8002  -17.3883 C   0  0  0  0  0  0  0  0  0  0  0  0
   27.5139  -18.8626  -18.3583 C   0  0  2  0  0  0  0  0  0  0  0  0
   27.7434  -17.6390  -19.1499 N   0  0  0  0  0  0  0  0  0  0  0  0
   26.9580  -18.5104  -17.0300 C   0  0  0  0  0  0  0  0  0  0  0  0
   27.4902  -17.6210  -16.3232 O   0  0  0  0  0  0  0  0  0  0  0  0
   25.8074  -19.1849  -16.5447 N   0  0  0  0  0  0  0  0  0  0  0  0
   25.2125  -18.8855  -15.2187 C   0  0  1  0  0  0  0  0  0  0  0  0
   23.9493  -18.1194  -15.4010 C   0  0  0  0  0  0  0  0  0  0  0  0
   24.0441  -16.7613  -15.9147 C   0  0  0  0  0  0  0  0  0  0  0  0
   24.2122  -15.6680  -15.0834 C   0  0  0  0  0  0  0  0  0  0  0  0
   24.3401  -14.3861  -15.5773 C   0  0  0  0  0  0  0  0  0  0  0  0
   24.3044  -14.1466  -16.9296 C   0  0  0  0  0  0  0  0  0  0  0  0
   24.1389  -15.2142  -17.7660 C   0  0  0  0  0  0  0  0  0  0  0  0
   24.0102  -16.5041  -17.2678 C   0  0  0  0  0  0  0  0  0  0  0  0
   25.1479  -20.0992  -14.4068 C   0  0  0  0  0  0  0  0  0  0  0  0
   24.6091  -21.1446  -14.9322 O   0  0  0  0  0  0  0  0  0  0  0  0
   25.6190  -20.2714  -13.0882 N   0  0  0  0  0  0  0  0  0  0  0  0
   25.4707  -21.5610  -12.3842 C   0  0  1  0  0  0  0  0  0  0  0  0
   26.6777  -21.7069  -11.4881 C   0  0  0  0  0  0  0  0  0  0  0  0
   26.6515  -20.9170  -10.2656 C   0  0  0  0  0  0  0  0  0  0  0  0
   26.8173  -19.5500  -10.3057 C   0  0  0  0  0  0  0  0  0  0  0  0
   26.7750  -18.8229   -9.1346 C   0  0  0  0  0  0  0  0  0  0  0  0
   26.5697  -19.4308   -7.9145 C   0  0  0  0  0  0  0  0  0  0  0  0
   26.4064  -20.7891   -7.8883 C   0  0  0  0  0  0  0  0  0  0  0  0
   26.4463  -21.5238   -9.0458 C   0  0  0  0  0  0  0  0  0  0  0  0
   24.2553  -21.6377  -11.5861 C   0  0  0  0  0  0  0  0  0  0  0  0
   23.5866  -20.6252  -11.2841 O   0  0  0  0  0  0  0  0  0  0  0  0
   23.7957  -22.8543  -11.1319 O   0  0  0  0  0  0  0  0  0  0  0  0
  1  2  1  0
  3  5  1  0
  3  2  1  0
  3  4  1  1
  5  6  1  6
  7  9  1  0
  7  5  1  0
  8  7  2  0
 10  9  1  0
 11 12  1  0
 10 11  1  6
 12 17  1  0
 13 12  2  0
 13 14  1  0
 14 15  2  0
 15 16  1  0
 17 16  2  0
 18 10  1  0
 18 20  1  0
 19 18  2  0
 21 20  1  0
 21 29  1  0
 21 22  1  1
 23 22  1  0
 23 24  2  0
 25 24  1  0
 26 25  2  0
 27 28  2  0
 27 26  1  0
 28 23  1  0
 29 30  2  0
 29 31  1  0
M  END
$$$$
