IFF.pdb
     RDKit          3D

 31 32  0  0  1  0  0  0  0  0999 V2000
   27.7083  -18.7879  -16.7927 C   0  0  0  0  0  0  0  0  0  0  0  0
   28.6893  -19.6671  -16.0212 C   0  0  0  0  0  0  0  0  0  0  0  0
   28.0629  -19.9851  -14.6967 C   0  0  2  0  0  0  0  0  0  0  0  0
   27.5771  -18.7444  -13.9794 C   0  0  0  0  0  0  0  0  0  0  0  0
   28.8869  -20.8739  -13.8339 C   0  0  2  0  0  0  0  0  0  0  0  0
   29.1137  -22.1233  -14.5852 N   0  0  0  0  0  0  0  0  0  0  0  0
   28.3042  -21.1798  -12.5056 C   0  0  0  0  0  0  0  0  0  0  0  0
   27.3084  -21.9349  -12.3963 O   0  0  0  0  0  0  0  0  0  0  0  0
   28.8762  -20.6137  -11.3365 N   0  0  0  0  0  0  0  0  0  0  0  0
   28.2847  -20.8085   -9.9896 C   0  0  1  0  0  0  0  0  0  0  0  0
   29.2018  -20.2522   -8.9576 C   0  0  0  0  0  0  0  0  0  0  0  0
   28.7114  -20.1555   -7.5910 C   0  0  0  0  0  0  0  0  0  0  0  0
   28.9829  -21.1224   -6.6394 C   0  0  0  0  0  0  0  0  0  0  0  0
   28.5482  -21.0079   -5.3350 C   0  0  0  0  0  0  0  0  0  0  0  0
   27.8208  -19.9152   -4.9296 C   0  0  0  0  0  0  0  0  0  0  0  0
   27.5429  -18.9499   -5.8558 C   0  0  0  0  0  0  0  0  0  0  0  0
   27.9809  -19.0664   -7.1684 C   0  0  0  0  0  0  0  0  0  0  0  0
   26.8986  -20.3449   -9.9732 C   0  0  0  0  0  0  0  0  0  0  0  0
   26.6434  -19.1975  -10.5001 O   0  0  0  0  0  0  0  0  0  0  0  0
   25.7784  -21.0184   -9.4423 N   0  0  0  0  0  0  0  0  0  0  0  0
   24.4346  -20.4064   -9.4661 C   0  0  1  0  0  0  0  0  0  0  0  0
   23.7425  -20.9284  -10.7028 C   0  0  0  0  0  0  0  0  0  0  0  0
   22.3772  -20.4640  -10.9018 C   0  0  0  0  0  0  0  0  0  0  0  0
   22.1035  -19.4311  -11.7713 C   0  0  0  0  0  0  0  0  0  0  0  0
   20.8000  -19.0187  -11.9521 C   0  0  0  0  0  0  0  0  0  0  0  0
   19.7542  -19.6163  -11.2814 C   0  0  0  0  0  0  0  0  0  0  0  0
   20.0394  -20.6410  -10.4208 C   0  0  0  0  0  0  0  0  0  0  0  0
   21.3315  -21.0607  -10.2320 C   0  0  0  0  0  0  0  0  0  0  0  0
   23.6417  -20.7275   -8.2879 C   0  0  0  0  0  0  0  0  0  0  0  0
   23.8181  -21.7735   -7.6257 O   0  0  0  0  0  0  0  0  0  0  0  0
   22.6536  -19.8692   -7.8581 O   0  0  0  0  0  0  0  0  0  0  0  0
  1  2  1  0
  3  5  1  0
  3  2  1  0
  3  4  1  1
  5  6  1  6
  7  9  1  0
  7  5  1  0
  8  7  2  0
 10  9  1  0
 11 12  1  0
 10 11  1  1
 12 17  1  0
 13 12  2  0
 13 14  1  0
 14 15  2  0
 15 16  1  0
 17 16  2  0
 18 10  1  0
 18 20  1  0
 19 18  2  0
 21 20  1  0
 21 29  1  0
 21 22  1  6
 23 22  1  0
 23 24  2  0
 25 24  1  0
 26 25  2  0
 27 28  2  0
 27 26  1  0
 28 23  1  0
 29 30  2  0
 29 31  1  0
M  END
$$$$
