IFF.pdb
     RDKit          3D

 31 32  0  0  1  0  0  0  0  0999 V2000
   19.6423  -14.5918  -14.8747 C   0  0  0  0  0  0  0  0  0  0  0  0
   20.5302  -14.6470  -16.1153 C   0  0  0  0  0  0  0  0  0  0  0  0
   21.0090  -13.2527  -16.3884 C   0  0  2  0  0  0  0  0  0  0  0  0
   21.7515  -12.6602  -15.2104 C   0  0  0  0  0  0  0  0  0  0  0  0
   19.9618  -12.3479  -16.9341 C   0  0  2  0  0  0  0  0  0  0  0  0
   19.3654  -13.0247  -18.1016 N   0  0  0  0  0  0  0  0  0  0  0  0
   20.4342  -10.9963  -17.3182 C   0  0  0  0  0  0  0  0  0  0  0  0
   21.5536  -10.8342  -17.8609 O   0  0  0  0  0  0  0  0  0  0  0  0
   19.6135   -9.8650  -17.0715 N   0  0  0  0  0  0  0  0  0  0  0  0
   20.0439   -8.4846  -17.4049 C   0  0  1  0  0  0  0  0  0  0  0  0
   19.1275   -7.9103  -18.4277 C   0  0  0  0  0  0  0  0  0  0  0  0
   19.3137   -6.5171  -18.8040 C   0  0  0  0  0  0  0  0  0  0  0  0
   20.2499   -6.1255  -19.7446 C   0  0  0  0  0  0  0  0  0  0  0  0
   20.3968   -4.8079  -20.1264 C   0  0  0  0  0  0  0  0  0  0  0  0
   19.6083   -3.8250  -19.5789 C   0  0  0  0  0  0  0  0  0  0  0  0
   18.6782   -4.1929  -18.6482 C   0  0  0  0  0  0  0  0  0  0  0  0
   18.5313   -5.5194  -18.2646 C   0  0  0  0  0  0  0  0  0  0  0  0
   20.2528   -7.7101  -16.1830 C   0  0  0  0  0  0  0  0  0  0  0  0
   19.3422   -7.7668  -15.2737 O   0  0  0  0  0  0  0  0  0  0  0  0
   21.3582   -6.8922  -15.8680 N   0  0  0  0  0  0  0  0  0  0  0  0
   21.3443   -6.0077  -14.6855 C   0  0  1  0  0  0  0  0  0  0  0  0
   22.3604   -6.5638  -13.7164 C   0  0  0  0  0  0  0  0  0  0  0  0
   23.2104   -7.6246  -14.2374 C   0  0  0  0  0  0  0  0  0  0  0  0
   24.1324   -7.3668  -15.2280 C   0  0  0  0  0  0  0  0  0  0  0  0
   24.9350   -8.3864  -15.6952 C   0  0  0  0  0  0  0  0  0  0  0  0
   24.8397   -9.6673  -15.1944 C   0  0  0  0  0  0  0  0  0  0  0  0
   23.9200   -9.9102  -14.2108 C   0  0  0  0  0  0  0  0  0  0  0  0
   23.1158   -8.9050  -13.7375 C   0  0  0  0  0  0  0  0  0  0  0  0
   21.6753   -4.6260  -15.0039 C   0  0  0  0  0  0  0  0  0  0  0  0
   21.5729   -3.7022  -14.1674 O   0  0  0  0  0  0  0  0  0  0  0  0
   22.1221   -4.2890  -16.2626 O   0  0  0  0  0  0  0  0  0  0  0  0
  1  2  1  0
  3  5  1  0
  3  2  1  0
  3  4  1  1
  5  6  1  6
  7  9  1  0
  7  5  1  0
  8  7  2  0
 10  9  1  0
 11 12  1  0
 10 11  1  6
 12 17  1  0
 13 12  2  0
 13 14  1  0
 14 15  2  0
 15 16  1  0
 17 16  2  0
 18 10  1  0
 18 20  1  0
 19 18  2  0
 21 20  1  0
 21 29  1  0
 21 22  1  1
 23 22  1  0
 23 24  2  0
 25 24  1  0
 26 25  2  0
 27 28  2  0
 27 26  1  0
 28 23  1  0
 29 30  2  0
 29 31  1  0
M  END
$$$$
