VNE.pdb
     RDKit          3D

 25 24  0  0  1  0  0  0  0  0999 V2000
   18.7391  -12.5390  -15.6058 C   0  0  0  0  0  0  0  0  0  0  0  0
   17.2203  -12.3305  -15.6129 C   0  0  2  0  0  0  0  0  0  0  0  0
   16.6569  -13.3656  -16.5563 C   0  0  0  0  0  0  0  0  0  0  0  0
   16.9514  -10.9610  -16.2259 C   0  0  2  0  0  0  0  0  0  0  0  0
   17.2690  -11.0254  -17.6394 N   0  0  0  0  0  0  0  0  0  0  0  0
   17.8040   -9.9253  -15.6011 C   0  0  0  0  0  0  0  0  0  0  0  0
   17.6681   -9.6818  -14.3786 O   0  0  0  0  0  0  0  0  0  0  0  0
   21.2261   -9.3341  -13.6751 N   0  0  0  0  0  0  0  0  0  0  0  0
   21.7787   -8.9299  -14.9592 C   0  0  0  0  0  0  0  0  0  0  0  0
   22.9869   -9.1808  -15.0775 O   0  0  0  0  0  0  0  0  0  0  0  0
   20.9418   -8.2982  -15.9622 C   0  0  0  0  0  0  0  0  0  0  0  0
   19.4981   -8.0369  -15.6370 C   0  0  2  0  0  0  0  0  0  0  0  0
   18.7817   -9.1719  -16.2903 N   0  0  0  0  0  0  0  0  0  0  0  0
   18.9347   -6.7827  -16.1238 C   0  0  0  0  0  0  0  0  0  0  0  0
   18.8142   -6.5905  -17.4091 O   0  0  0  0  0  0  0  0  0  0  0  0
   18.4738   -5.6989  -15.3634 N   0  0  0  0  0  0  0  0  0  0  0  0
   17.8703   -4.4947  -15.9659 C   0  0  1  0  0  0  0  0  0  0  0  0
   16.7635   -3.9859  -15.1253 C   0  0  0  0  0  0  0  0  0  0  0  0
   16.1160   -2.7728  -15.7241 C   0  0  0  0  0  0  0  0  0  0  0  0
   15.0175   -2.2629  -14.8153 C   0  0  0  0  0  0  0  0  0  0  0  0
   14.7385   -2.8747  -13.7709 O   0  0  0  0  0  0  0  0  0  0  0  0
   18.9359   -3.4956  -16.1313 C   0  0  0  0  0  0  0  0  0  0  0  0
   19.9532   -3.4491  -15.4122 O   0  0  0  0  0  0  0  0  0  0  0  0
   14.3404   -1.1154  -15.1694 O   0  0  0  0  0  0  0  0  0  0  0  0
   18.8280   -2.5342  -17.1424 O   0  0  0  0  0  0  0  0  0  0  0  0
  2  1  1  6
  3  2  1  0
  4  2  1  0
  4  6  1  0
  4  5  1  6
  6  7  2  0
  9  8  1  0
 10  9  2  0
 12 11  1  6
 11  9  1  0
 12 14  1  0
 13  6  1  0
 13 12  1  0
 14 15  2  0
 16 17  1  0
 16 14  1  0
 17 22  1  0
 17 18  1  1
 19 18  1  0
 20 19  1  0
 21 20  2  0
 22 23  2  0
 22 25  1  0
 24 20  1  0
M  END
$$$$
