VNE.pdb
     RDKit          3D

 25 24  0  0  1  0  0  0  0  0999 V2000
   25.4677  -14.9393  -15.7020 C   0  0  0  0  0  0  0  0  0  0  0  0
   24.7379  -13.7134  -16.2630 C   0  0  2  0  0  0  0  0  0  0  0  0
   24.8102  -12.6526  -15.1914 C   0  0  0  0  0  0  0  0  0  0  0  0
   23.2711  -14.0933  -16.4299 C   0  0  2  0  0  0  0  0  0  0  0  0
   23.1802  -15.1152  -17.4548 N   0  0  0  0  0  0  0  0  0  0  0  0
   22.4683  -12.9267  -16.8592 C   0  0  0  0  0  0  0  0  0  0  0  0
   22.6716  -12.4325  -17.9935 O   0  0  0  0  0  0  0  0  0  0  0  0
   16.9078  -11.0852  -17.2723 N   0  0  0  0  0  0  0  0  0  0  0  0
   18.2923  -10.6614  -17.1263 C   0  0  0  0  0  0  0  0  0  0  0  0
   18.4724   -9.4639  -17.3915 O   0  0  0  0  0  0  0  0  0  0  0  0
   19.3161  -11.6002  -16.7069 C   0  0  0  0  0  0  0  0  0  0  0  0
   20.7271  -11.1072  -16.5510 C   0  0  2  0  0  0  0  0  0  0  0  0
   21.4674  -12.3118  -16.0725 N   0  0  0  0  0  0  0  0  0  0  0  0
   20.9384  -10.0184  -15.6037 C   0  0  0  0  0  0  0  0  0  0  0  0
   20.8920  -10.2653  -14.3230 O   0  0  0  0  0  0  0  0  0  0  0  0
   21.2052   -8.6727  -15.8917 N   0  0  0  0  0  0  0  0  0  0  0  0
   21.3328   -7.6383  -14.8470 C   0  0  1  0  0  0  0  0  0  0  0  0
   21.9657   -6.4168  -15.3927 C   0  0  0  0  0  0  0  0  0  0  0  0
   22.0991   -5.3424  -14.3548 C   0  0  0  0  0  0  0  0  0  0  0  0
   22.6810   -4.0879  -14.9713 C   0  0  0  0  0  0  0  0  0  0  0  0
   23.8026   -4.1179  -15.5043 O   0  0  0  0  0  0  0  0  0  0  0  0
   19.9878   -7.3685  -14.3184 C   0  0  0  0  0  0  0  0  0  0  0  0
   18.9593   -7.3660  -15.0229 O   0  0  0  0  0  0  0  0  0  0  0  0
   21.9453   -2.9227  -14.9284 O   0  0  0  0  0  0  0  0  0  0  0  0
   19.8250   -7.0974  -12.9553 O   0  0  0  0  0  0  0  0  0  0  0  0
  2  1  1  1
  3  2  1  0
  4  2  1  0
  4  6  1  0
  4  5  1  6
  6  7  2  0
  9  8  1  0
 10  9  2  0
 12 11  1  1
 11  9  1  0
 12 14  1  0
 13  6  1  0
 13 12  1  0
 14 15  2  0
 16 17  1  0
 16 14  1  0
 17 22  1  0
 17 18  1  6
 19 18  1  0
 20 19  1  0
 21 20  2  0
 22 23  2  0
 22 25  1  0
 24 20  1  0
M  END
$$$$
