VNE.pdb
     RDKit          3D

 25 24  0  0  1  0  0  0  0  0999 V2000
   13.0714  -10.8578   -9.7483 C   0  0  0  0  0  0  0  0  0  0  0  0
   13.6955  -11.0962  -11.1281 C   0  0  2  0  0  0  0  0  0  0  0  0
   14.0839  -12.5544  -11.1691 C   0  0  0  0  0  0  0  0  0  0  0  0
   14.9814  -10.2801  -11.1937 C   0  0  2  0  0  0  0  0  0  0  0  0
   15.9041  -10.8057  -10.2061 N   0  0  0  0  0  0  0  0  0  0  0  0
   14.7212   -8.8573  -10.8810 C   0  0  0  0  0  0  0  0  0  0  0  0
   14.0290   -8.1768  -11.6747 O   0  0  0  0  0  0  0  0  0  0  0  0
   14.4672   -4.1261   -8.3022 N   0  0  0  0  0  0  0  0  0  0  0  0
   14.5110   -5.3127   -7.4608 C   0  0  0  0  0  0  0  0  0  0  0  0
   14.3458   -5.0700   -6.2564 O   0  0  0  0  0  0  0  0  0  0  0  0
   14.7309   -6.6253   -8.0389 C   0  0  0  0  0  0  0  0  0  0  0  0
   14.9695   -6.7313   -9.5188 C   0  0  2  0  0  0  0  0  0  0  0  0
   15.2031   -8.1902   -9.7315 N   0  0  0  0  0  0  0  0  0  0  0  0
   16.1069   -5.9903  -10.0525 C   0  0  0  0  0  0  0  0  0  0  0  0
   16.1322   -4.6899   -9.9441 O   0  0  0  0  0  0  0  0  0  0  0  0
   17.2407   -6.5076  -10.6944 N   0  0  0  0  0  0  0  0  0  0  0  0
   18.3343   -5.6565  -11.2013 C   0  0  1  0  0  0  0  0  0  0  0  0
   19.5085   -6.4771  -11.5733 C   0  0  0  0  0  0  0  0  0  0  0  0
   19.2945   -7.2102  -12.8641 C   0  0  0  0  0  0  0  0  0  0  0  0
   20.5513   -7.9579  -13.2565 C   0  0  0  0  0  0  0  0  0  0  0  0
   21.5910   -7.8215  -12.5908 O   0  0  0  0  0  0  0  0  0  0  0  0
   17.8142   -4.8947  -12.3460 C   0  0  0  0  0  0  0  0  0  0  0  0
   16.7166   -5.1308  -12.8880 O   0  0  0  0  0  0  0  0  0  0  0  0
   20.5161   -8.7857  -14.3584 O   0  0  0  0  0  0  0  0  0  0  0  0
   18.5709   -3.8431  -12.8748 O   0  0  0  0  0  0  0  0  0  0  0  0
  2  1  1  1
  3  2  1  0
  4  2  1  0
  4  6  1  0
  4  5  1  1
  6  7  2  0
  9  8  1  0
 10  9  2  0
 12 11  1  1
 11  9  1  0
 12 14  1  0
 13  6  1  0
 13 12  1  0
 14 15  2  0
 16 17  1  0
 16 14  1  0
 17 22  1  0
 17 18  1  6
 19 18  1  0
 20 19  1  0
 21 20  2  0
 22 23  2  0
 22 25  1  0
 24 20  1  0
M  END
$$$$
