VNE.pdb
     RDKit          3D

 25 24  0  0  1  0  0  0  0  0999 V2000
   26.3046  -34.7771   -9.0881 C   0  0  0  0  0  0  0  0  0  0  0  0
   25.7894  -33.3359   -9.1758 C   0  0  2  0  0  0  0  0  0  0  0  0
   26.3845  -32.6028   -7.9979 C   0  0  0  0  0  0  0  0  0  0  0  0
   24.2795  -33.3786   -8.9704 C   0  0  2  0  0  0  0  0  0  0  0  0
   23.7691  -32.0247   -9.0682 N   0  0  0  0  0  0  0  0  0  0  0  0
   23.9428  -33.9104   -7.6311 C   0  0  0  0  0  0  0  0  0  0  0  0
   23.7889  -33.1089   -6.6793 O   0  0  0  0  0  0  0  0  0  0  0  0
   20.0045  -36.5079   -7.2780 N   0  0  0  0  0  0  0  0  0  0  0  0
   20.9343  -36.1266   -6.2255 C   0  0  0  0  0  0  0  0  0  0  0  0
   20.4596  -35.3147   -5.4179 O   0  0  0  0  0  0  0  0  0  0  0  0
   22.2750  -36.6800   -6.1825 C   0  0  0  0  0  0  0  0  0  0  0  0
   23.4332  -35.7490   -5.9587 C   0  0  2  0  0  0  0  0  0  0  0  0
   23.7777  -35.2828   -7.3342 N   0  0  0  0  0  0  0  0  0  0  0  0
   24.6249  -36.3238   -5.3448 C   0  0  0  0  0  0  0  0  0  0  0  0
   25.3909  -37.1126   -6.0478 O   0  0  0  0  0  0  0  0  0  0  0  0
   25.0914  -36.1320   -4.0368 N   0  0  0  0  0  0  0  0  0  0  0  0
   26.3740  -36.6790   -3.5538 C   0  0  1  0  0  0  0  0  0  0  0  0
   26.7679  -36.0432   -2.2767 C   0  0  0  0  0  0  0  0  0  0  0  0
   28.0759  -36.5711   -1.7670 C   0  0  0  0  0  0  0  0  0  0  0  0
   28.4179  -35.9297   -0.4388 C   0  0  0  0  0  0  0  0  0  0  0  0
   29.4288  -36.2913    0.1860 O   0  0  0  0  0  0  0  0  0  0  0  0
   26.2156  -38.1339   -3.4149 C   0  0  0  0  0  0  0  0  0  0  0  0
   25.1530  -38.6793   -3.0574 O   0  0  0  0  0  0  0  0  0  0  0  0
   27.5903  -34.9448    0.0569 O   0  0  0  0  0  0  0  0  0  0  0  0
   27.2991  -38.9746   -3.6929 O   0  0  0  0  0  0  0  0  0  0  0  0
  2  1  1  1
  3  2  1  0
  4  2  1  0
  4  6  1  0
  4  5  1  1
  6  7  2  0
  9  8  1  0
 10  9  2  0
 12 11  1  6
 11  9  1  0
 12 14  1  0
 13  6  1  0
 13 12  1  0
 14 15  2  0
 16 17  1  0
 16 14  1  0
 17 22  1  0
 17 18  1  1
 19 18  1  0
 20 19  1  0
 21 20  2  0
 22 23  2  0
 22 25  1  0
 24 20  1  0
M  END
$$$$
