VNE.pdb
     RDKit          3D

 25 24  0  0  1  0  0  0  0  0999 V2000
   20.8163  -13.3948  -18.5000 C   0  0  0  0  0  0  0  0  0  0  0  0
   19.7813  -13.8380  -17.4594 C   0  0  2  0  0  0  0  0  0  0  0  0
   18.4431  -13.8106  -18.1573 C   0  0  0  0  0  0  0  0  0  0  0  0
   19.7481  -12.7740  -16.3683 C   0  0  2  0  0  0  0  0  0  0  0  0
   18.7601  -13.1656  -15.3816 N   0  0  0  0  0  0  0  0  0  0  0  0
   19.3594  -11.4587  -16.9239 C   0  0  0  0  0  0  0  0  0  0  0  0
   20.1926  -10.8159  -17.6055 O   0  0  0  0  0  0  0  0  0  0  0  0
   16.8859   -8.0073  -19.5672 N   0  0  0  0  0  0  0  0  0  0  0  0
   15.9376   -8.7979  -18.7969 C   0  0  0  0  0  0  0  0  0  0  0  0
   14.7868   -8.7743  -19.2571 O   0  0  0  0  0  0  0  0  0  0  0  0
   16.3627   -9.5212  -17.6130 C   0  0  0  0  0  0  0  0  0  0  0  0
   17.8115   -9.4699  -17.2173 C   0  0  2  0  0  0  0  0  0  0  0  0
   18.0933  -10.8565  -16.7418 N   0  0  0  0  0  0  0  0  0  0  0  0
   18.1681   -8.5291  -16.1613 C   0  0  0  0  0  0  0  0  0  0  0  0
   17.9521   -8.8523  -14.9154 O   0  0  0  0  0  0  0  0  0  0  0  0
   18.7475   -7.2606  -16.3045 N   0  0  0  0  0  0  0  0  0  0  0  0
   19.0731   -6.3928  -15.1564 C   0  0  1  0  0  0  0  0  0  0  0  0
   20.5355   -6.1921  -15.0485 C   0  0  0  0  0  0  0  0  0  0  0  0
   20.8918   -5.2448  -13.9416 C   0  0  0  0  0  0  0  0  0  0  0  0
   22.3911   -5.0393  -13.8903 C   0  0  0  0  0  0  0  0  0  0  0  0
   23.1410   -5.7456  -14.5844 O   0  0  0  0  0  0  0  0  0  0  0  0
   18.3583   -5.1214  -15.3399 C   0  0  0  0  0  0  0  0  0  0  0  0
   17.9844   -4.6964  -16.4507 O   0  0  0  0  0  0  0  0  0  0  0  0
   22.9004   -4.0602  -13.0642 O   0  0  0  0  0  0  0  0  0  0  0  0
   18.0690   -4.3265  -14.2253 O   0  0  0  0  0  0  0  0  0  0  0  0
  2  1  1  6
  3  2  1  0
  4  2  1  0
  4  6  1  0
  4  5  1  1
  6  7  2  0
  9  8  1  0
 10  9  2  0
 12 11  1  1
 11  9  1  0
 12 14  1  0
 13  6  1  0
 13 12  1  0
 14 15  2  0
 16 17  1  0
 16 14  1  0
 17 22  1  0
 17 18  1  6
 19 18  1  0
 20 19  1  0
 21 20  2  0
 22 23  2  0
 22 25  1  0
 24 20  1  0
M  END
$$$$
