VNE.pdb
     RDKit          3D

 25 24  0  0  1  0  0  0  0  0999 V2000
   21.0837  -13.1902  -19.1569 C   0  0  0  0  0  0  0  0  0  0  0  0
   21.9431  -12.0527  -19.7206 C   0  0  2  0  0  0  0  0  0  0  0  0
   23.2939  -12.6548  -20.0235 C   0  0  0  0  0  0  0  0  0  0  0  0
   22.1386  -11.0333  -18.6042 C   0  0  2  0  0  0  0  0  0  0  0  0
   22.8290  -11.6859  -17.5085 N   0  0  0  0  0  0  0  0  0  0  0  0
   20.8361  -10.5366  -18.1076 C   0  0  0  0  0  0  0  0  0  0  0  0
   20.1129   -9.8556  -18.8727 O   0  0  0  0  0  0  0  0  0  0  0  0
   16.3660   -9.7512  -15.2731 N   0  0  0  0  0  0  0  0  0  0  0  0
   16.9041  -11.0993  -15.3775 C   0  0  0  0  0  0  0  0  0  0  0  0
   16.1538  -11.9678  -14.9089 O   0  0  0  0  0  0  0  0  0  0  0  0
   18.2013  -11.3363  -15.9830 C   0  0  0  0  0  0  0  0  0  0  0  0
   19.0589  -10.1543  -16.3376 C   0  0  2  0  0  0  0  0  0  0  0  0
   20.3322  -10.7751  -16.8083 N   0  0  0  0  0  0  0  0  0  0  0  0
   19.3620   -9.2194  -15.2598 C   0  0  0  0  0  0  0  0  0  0  0  0
   20.3974   -9.4364  -14.4956 O   0  0  0  0  0  0  0  0  0  0  0  0
   18.6628   -8.0542  -14.9154 N   0  0  0  0  0  0  0  0  0  0  0  0
   19.2861   -6.9279  -14.1939 C   0  0  1  0  0  0  0  0  0  0  0  0
   20.5553   -6.5280  -14.8417 C   0  0  0  0  0  0  0  0  0  0  0  0
   21.2510   -5.4351  -14.0860 C   0  0  0  0  0  0  0  0  0  0  0  0
   22.5794   -5.1119  -14.7367 C   0  0  0  0  0  0  0  0  0  0  0  0
   23.0138   -3.9483  -14.7219 O   0  0  0  0  0  0  0  0  0  0  0  0
   18.3155   -5.8243  -14.1637 C   0  0  0  0  0  0  0  0  0  0  0  0
   17.3709   -5.7164  -14.9703 O   0  0  0  0  0  0  0  0  0  0  0  0
   23.2893   -6.1281  -15.3399 O   0  0  0  0  0  0  0  0  0  0  0  0
   18.4347   -4.8284  -13.1880 O   0  0  0  0  0  0  0  0  0  0  0  0
  2  1  1  1
  3  2  1  0
  4  2  1  0
  4  6  1  0
  4  5  1  1
  6  7  2  0
  9  8  1  0
 10  9  2  0
 12 11  1  1
 11  9  1  0
 12 14  1  0
 13  6  1  0
 13 12  1  0
 14 15  2  0
 16 17  1  0
 16 14  1  0
 17 22  1  0
 17 18  1  6
 19 18  1  0
 20 19  1  0
 21 20  2  0
 22 23  2  0
 22 25  1  0
 24 20  1  0
M  END
$$$$
