TTN.pdb
     RDKit          3D

 23 22  0  0  1  0  0  0  0  0999 V2000
   21.8100  -11.9443  -15.9734 C   0  0  0  0  0  0  0  0  0  0  0  0
   20.9930  -12.7679  -16.9463 C   0  0  1  0  0  0  0  0  0  0  0  0
   21.3286  -14.1168  -16.8198 O   0  0  0  0  0  0  0  0  0  0  0  0
   19.5361  -12.5982  -16.6372 C   0  0  2  0  0  0  0  0  0  0  0  0
   18.7499  -13.5310  -17.3872 N   0  0  0  0  0  0  0  0  0  0  0  0
   19.1235  -11.1988  -16.9107 C   0  0  0  0  0  0  0  0  0  0  0  0
   19.1834  -10.7449  -18.0957 O   0  0  0  0  0  0  0  0  0  0  0  0
   15.8656   -9.3105  -16.5016 C   0  0  0  0  0  0  0  0  0  0  0  0
   16.9268   -8.6347  -15.6853 C   0  0  1  0  0  0  0  0  0  0  0  0
   16.8934   -9.1266  -14.3636 O   0  0  0  0  0  0  0  0  0  0  0  0
   18.3393   -8.9056  -16.2140 C   0  0  2  0  0  0  0  0  0  0  0  0
   18.6568  -10.3241  -15.8964 N   0  0  0  0  0  0  0  0  0  0  0  0
   19.3345   -8.1004  -15.4693 C   0  0  0  0  0  0  0  0  0  0  0  0
   19.8888   -8.5915  -14.4278 O   0  0  0  0  0  0  0  0  0  0  0  0
   22.6544   -4.4912  -13.7308 N   0  0  0  0  0  0  0  0  0  0  0  0
   22.7677   -4.7560  -15.1047 C   0  0  0  0  0  0  0  0  0  0  0  0
   23.7509   -4.2662  -15.7316 O   0  0  0  0  0  0  0  0  0  0  0  0
   21.8135   -5.5705  -15.8542 C   0  0  0  0  0  0  0  0  0  0  0  0
   20.6592   -6.0662  -15.0205 C   0  0  2  0  0  0  0  0  0  0  0  0
   19.7074   -6.8018  -15.8635 N   0  0  0  0  0  0  0  0  0  0  0  0
   19.9382   -4.9952  -14.3144 C   0  0  0  0  0  0  0  0  0  0  0  0
   18.6216   -4.6836  -14.5419 O   0  0  0  0  0  0  0  0  0  0  0  0
   20.5307   -4.2980  -13.4396 O   0  0  0  0  0  0  0  0  0  0  0  0
  2  1  1  1
  2  3  1  0
  4  6  1  0
  4  2  1  0
  4  5  1  6
  6  7  2  0
  6 12  1  0
  9  8  1  6
  9 11  1  0
 10  9  1  0
 11 13  1  0
 11 12  1  1
 13 20  1  0
 13 14  2  0
 15 16  1  0
 16 17  2  0
 19 18  1  6
 18 16  1  0
 19 21  1  0
 20 19  1  0
 21 22  1  0
 23 21  2  0
M  END
$$$$
