TTN.pdb
     RDKit          3D

 23 22  0  0  1  0  0  0  0  0999 V2000
   21.0654  -12.3127  -15.7619 C   0  0  0  0  0  0  0  0  0  0  0  0
   20.1429  -13.0594  -16.7019 C   0  0  1  0  0  0  0  0  0  0  0  0
   20.3334  -14.4344  -16.5560 O   0  0  0  0  0  0  0  0  0  0  0  0
   18.7200  -12.7274  -16.3669 C   0  0  2  0  0  0  0  0  0  0  0  0
   17.8210  -13.5773  -17.0882 N   0  0  0  0  0  0  0  0  0  0  0  0
   18.4573  -11.2946  -16.6521 C   0  0  0  0  0  0  0  0  0  0  0  0
   18.5894  -10.8537  -17.8362 O   0  0  0  0  0  0  0  0  0  0  0  0
   15.3196   -9.4255  -16.4830 C   0  0  0  0  0  0  0  0  0  0  0  0
   16.2970   -8.7041  -15.6035 C   0  0  1  0  0  0  0  0  0  0  0  0
   16.1632   -9.1574  -14.2745 O   0  0  0  0  0  0  0  0  0  0  0  0
   17.7531   -8.9611  -16.0055 C   0  0  2  0  0  0  0  0  0  0  0  0
   18.0586  -10.3733  -15.6502 N   0  0  0  0  0  0  0  0  0  0  0  0
   18.6704   -8.1383  -15.1838 C   0  0  0  0  0  0  0  0  0  0  0  0
   19.2921   -8.6760  -14.2053 O   0  0  0  0  0  0  0  0  0  0  0  0
   21.9850   -4.6419  -13.3245 N   0  0  0  0  0  0  0  0  0  0  0  0
   22.2801   -5.5852  -14.3213 C   0  0  0  0  0  0  0  0  0  0  0  0
   23.4906   -5.7589  -14.6442 O   0  0  0  0  0  0  0  0  0  0  0  0
   21.2661   -6.3830  -15.0075 C   0  0  0  0  0  0  0  0  0  0  0  0
   19.8559   -6.0574  -14.5850 C   0  0  2  0  0  0  0  0  0  0  0  0
   18.8963   -6.7724  -15.4368 N   0  0  0  0  0  0  0  0  0  0  0  0
   19.5452   -4.6196  -14.6237 C   0  0  0  0  0  0  0  0  0  0  0  0
   18.9437   -3.9976  -15.6886 O   0  0  0  0  0  0  0  0  0  0  0  0
   19.8332   -3.8790  -13.6383 O   0  0  0  0  0  0  0  0  0  0  0  0
  2  1  1  1
  2  3  1  0
  4  6  1  0
  4  2  1  0
  4  5  1  6
  6  7  2  0
  6 12  1  0
  9  8  1  6
  9 11  1  0
 10  9  1  0
 11 13  1  0
 11 12  1  1
 13 20  1  0
 13 14  2  0
 15 16  1  0
 16 17  2  0
 19 18  1  6
 18 16  1  0
 19 21  1  0
 20 19  1  0
 21 22  1  0
 23 21  2  0
M  END
$$$$
