TTN.pdb
     RDKit          3D

 23 22  0  0  1  0  0  0  0  0999 V2000
   24.2930  -12.9484  -14.9833 C   0  0  0  0  0  0  0  0  0  0  0  0
   24.8669  -13.6061  -16.2203 C   0  0  1  0  0  0  0  0  0  0  0  0
   25.2576  -14.9124  -15.9215 O   0  0  0  0  0  0  0  0  0  0  0  0
   23.8193  -13.6450  -17.2917 C   0  0  2  0  0  0  0  0  0  0  0  0
   24.2632  -14.4329  -18.4022 N   0  0  0  0  0  0  0  0  0  0  0  0
   23.4766  -12.2629  -17.7106 C   0  0  0  0  0  0  0  0  0  0  0  0
   24.2661  -11.6217  -18.4719 O   0  0  0  0  0  0  0  0  0  0  0  0
   20.7277  -10.9537  -19.8324 C   0  0  0  0  0  0  0  0  0  0  0  0
   20.6354  -10.2917  -18.4899 C   0  0  1  0  0  0  0  0  0  0  0  0
   19.7705  -11.0304  -17.6556 O   0  0  0  0  0  0  0  0  0  0  0  0
   21.9861  -10.2296  -17.7690 C   0  0  2  0  0  0  0  0  0  0  0  0
   22.2892  -11.6074  -17.2959 N   0  0  0  0  0  0  0  0  0  0  0  0
   21.8821   -9.4038  -16.5439 C   0  0  0  0  0  0  0  0  0  0  0  0
   21.5745   -9.9594  -15.4349 O   0  0  0  0  0  0  0  0  0  0  0  0
   21.9477   -5.5598  -13.0055 N   0  0  0  0  0  0  0  0  0  0  0  0
   22.6864   -5.1836  -14.1383 C   0  0  0  0  0  0  0  0  0  0  0  0
   23.3315   -4.0963  -14.1006 O   0  0  0  0  0  0  0  0  0  0  0  0
   22.7560   -5.9802  -15.3614 C   0  0  0  0  0  0  0  0  0  0  0  0
   22.0303   -7.2981  -15.2641 C   0  0  2  0  0  0  0  0  0  0  0  0
   22.1141   -8.0157  -16.5430 N   0  0  0  0  0  0  0  0  0  0  0  0
   20.6142   -7.1657  -14.8863 C   0  0  0  0  0  0  0  0  0  0  0  0
   20.1566   -7.2627  -13.5965 O   0  0  0  0  0  0  0  0  0  0  0  0
   19.7363   -6.9495  -15.7722 O   0  0  0  0  0  0  0  0  0  0  0  0
  2  1  1  1
  2  3  1  0
  4  6  1  0
  4  2  1  0
  4  5  1  6
  6  7  2  0
  6 12  1  0
  9  8  1  6
  9 11  1  0
 10  9  1  0
 11 13  1  0
 11 12  1  1
 13 20  1  0
 13 14  2  0
 15 16  1  0
 16 17  2  0
 19 18  1  6
 18 16  1  0
 19 21  1  0
 20 19  1  0
 21 22  1  0
 23 21  2  0
M  END
$$$$
