TTN.pdb
     RDKit          3D

 23 22  0  0  1  0  0  0  0  0999 V2000
   18.3517  -11.1806  -17.5062 C   0  0  0  0  0  0  0  0  0  0  0  0
   18.8184  -12.5649  -17.1085 C   0  0  1  0  0  0  0  0  0  0  0  0
   18.2896  -13.5113  -17.9876 O   0  0  0  0  0  0  0  0  0  0  0  0
   20.3148  -12.6213  -17.1758 C   0  0  2  0  0  0  0  0  0  0  0  0
   20.7762  -13.9671  -17.0123 N   0  0  0  0  0  0  0  0  0  0  0  0
   20.8988  -11.7201  -16.1510 C   0  0  0  0  0  0  0  0  0  0  0  0
   20.6688  -11.9338  -14.9201 O   0  0  0  0  0  0  0  0  0  0  0  0
   24.3908  -11.3633  -15.2666 C   0  0  0  0  0  0  0  0  0  0  0  0
   23.9021   -9.9916  -15.6255 C   0  0  1  0  0  0  0  0  0  0  0  0
   24.1409   -9.7462  -16.9939 O   0  0  0  0  0  0  0  0  0  0  0  0
   22.3936   -9.8285  -15.4118 C   0  0  2  0  0  0  0  0  0  0  0  0
   21.7167  -10.6097  -16.4820 N   0  0  0  0  0  0  0  0  0  0  0  0
   21.9883   -8.4210  -15.6318 C   0  0  0  0  0  0  0  0  0  0  0  0
   21.7335   -8.0177  -16.8174 O   0  0  0  0  0  0  0  0  0  0  0  0
   20.4859   -3.4762  -15.2956 N   0  0  0  0  0  0  0  0  0  0  0  0
   19.6047   -4.5155  -14.9581 C   0  0  0  0  0  0  0  0  0  0  0  0
   18.3758   -4.2440  -14.8329 O   0  0  0  0  0  0  0  0  0  0  0  0
   20.0266   -5.8984  -14.7456 C   0  0  0  0  0  0  0  0  0  0  0  0
   21.5101   -6.1082  -14.9133 C   0  0  2  0  0  0  0  0  0  0  0  0
   21.8644   -7.4943  -14.5800 N   0  0  0  0  0  0  0  0  0  0  0  0
   22.3308   -5.1994  -14.0972 C   0  0  0  0  0  0  0  0  0  0  0  0
   22.6895   -3.9350  -14.4906 O   0  0  0  0  0  0  0  0  0  0  0  0
   22.7498   -5.5672  -12.9607 O   0  0  0  0  0  0  0  0  0  0  0  0
  2  1  1  6
  2  3  1  0
  4  6  1  0
  4  2  1  0
  4  5  1  1
  6  7  2  0
  6 12  1  0
  9  8  1  6
  9 11  1  0
 10  9  1  0
 11 13  1  0
 11 12  1  6
 13 20  1  0
 13 14  2  0
 15 16  1  0
 16 17  2  0
 19 18  1  1
 18 16  1  0
 19 21  1  0
 20 19  1  0
 21 22  1  0
 23 21  2  0
M  END
$$$$
