TTN.pdb
     RDKit          3D

 23 22  0  0  1  0  0  0  0  0999 V2000
   17.3032  -15.6077  -15.9898 C   0  0  0  0  0  0  0  0  0  0  0  0
   17.2617  -14.2152  -16.5827 C   0  0  1  0  0  0  0  0  0  0  0  0
   15.9358  -13.8033  -16.7263 O   0  0  0  0  0  0  0  0  0  0  0  0
   17.9694  -13.2648  -15.6646 C   0  0  2  0  0  0  0  0  0  0  0  0
   17.3351  -13.2377  -14.3809 N   0  0  0  0  0  0  0  0  0  0  0  0
   18.0127  -11.9130  -16.2761 C   0  0  0  0  0  0  0  0  0  0  0  0
   18.6631  -11.7289  -17.3517 O   0  0  0  0  0  0  0  0  0  0  0  0
   15.1595   -9.4244  -17.3466 C   0  0  0  0  0  0  0  0  0  0  0  0
   16.0755   -8.8219  -16.3233 C   0  0  1  0  0  0  0  0  0  0  0  0
   15.5533   -9.0419  -15.0315 O   0  0  0  0  0  0  0  0  0  0  0  0
   17.4728   -9.4505  -16.3398 C   0  0  2  0  0  0  0  0  0  0  0  0
   17.3522  -10.7929  -15.7096 N   0  0  0  0  0  0  0  0  0  0  0  0
   18.3954   -8.6856  -15.4695 C   0  0  0  0  0  0  0  0  0  0  0  0
   18.5656   -9.0520  -14.2571 O   0  0  0  0  0  0  0  0  0  0  0  0
   21.6737   -5.2035  -13.3879 N   0  0  0  0  0  0  0  0  0  0  0  0
   22.1508   -5.8459  -14.5413 C   0  0  0  0  0  0  0  0  0  0  0  0
   23.3566   -5.6621  -14.8757 O   0  0  0  0  0  0  0  0  0  0  0  0
   21.3325   -6.7202  -15.3788 C   0  0  0  0  0  0  0  0  0  0  0  0
   19.8902   -6.7921  -14.9457 C   0  0  2  0  0  0  0  0  0  0  0  0
   19.1076   -7.5598  -15.9234 N   0  0  0  0  0  0  0  0  0  0  0  0
   19.2617   -5.4739  -14.7650 C   0  0  0  0  0  0  0  0  0  0  0  0
   19.3198   -4.7547  -13.5980 O   0  0  0  0  0  0  0  0  0  0  0  0
   18.6215   -4.9377  -15.7164 O   0  0  0  0  0  0  0  0  0  0  0  0
  2  1  1  1
  2  3  1  0
  4  6  1  0
  4  2  1  0
  4  5  1  1
  6  7  2  0
  6 12  1  0
  9  8  1  6
  9 11  1  0
 10  9  1  0
 11 13  1  0
 11 12  1  1
 13 20  1  0
 13 14  2  0
 15 16  1  0
 16 17  2  0
 19 18  1  6
 18 16  1  0
 19 21  1  0
 20 19  1  0
 21 22  1  0
 23 21  2  0
M  END
$$$$
