TTN.pdb
     RDKit          3D

 23 22  0  0  1  0  0  0  0  0999 V2000
   18.1972  -12.1301  -19.1556 C   0  0  0  0  0  0  0  0  0  0  0  0
   18.7941  -11.3332  -18.0150 C   0  0  1  0  0  0  0  0  0  0  0  0
   17.7786  -10.8976  -17.1622 O   0  0  0  0  0  0  0  0  0  0  0  0
   19.7373  -12.2051  -17.2422 C   0  0  2  0  0  0  0  0  0  0  0  0
   19.0607  -13.3675  -16.7503 N   0  0  0  0  0  0  0  0  0  0  0  0
   20.3505  -11.4269  -16.1369 C   0  0  0  0  0  0  0  0  0  0  0  0
   19.8917  -11.5393  -14.9576 O   0  0  0  0  0  0  0  0  0  0  0  0
   23.7284  -11.6000  -14.7002 C   0  0  0  0  0  0  0  0  0  0  0  0
   23.5110  -10.1755  -15.1156 C   0  0  1  0  0  0  0  0  0  0  0  0
   24.0344   -9.9738  -16.4098 O   0  0  0  0  0  0  0  0  0  0  0  0
   22.0266   -9.8013  -15.1843 C   0  0  2  0  0  0  0  0  0  0  0  0
   21.4443  -10.5456  -16.3335 N   0  0  0  0  0  0  0  0  0  0  0  0
   21.8687   -8.3674  -15.5198 C   0  0  0  0  0  0  0  0  0  0  0  0
   21.5473   -8.0315  -16.7102 O   0  0  0  0  0  0  0  0  0  0  0  0
   20.4428   -3.6833  -16.9929 N   0  0  0  0  0  0  0  0  0  0  0  0
   20.1547   -4.3417  -15.7870 C   0  0  0  0  0  0  0  0  0  0  0  0
   19.5786   -3.6893  -14.8694 O   0  0  0  0  0  0  0  0  0  0  0  0
   20.4803   -5.7432  -15.5313 C   0  0  0  0  0  0  0  0  0  0  0  0
   21.8807   -5.9514  -15.0130 C   0  0  2  0  0  0  0  0  0  0  0  0
   22.0543   -7.3423  -14.5736 N   0  0  0  0  0  0  0  0  0  0  0  0
   22.2384   -5.0548  -13.9023 C   0  0  0  0  0  0  0  0  0  0  0  0
   22.3873   -5.4713  -12.6035 O   0  0  0  0  0  0  0  0  0  0  0  0
   22.4281   -3.8215  -14.1152 O   0  0  0  0  0  0  0  0  0  0  0  0
  2  1  1  6
  2  3  1  0
  4  6  1  0
  4  2  1  0
  4  5  1  1
  6  7  2  0
  6 12  1  0
  9  8  1  6
  9 11  1  0
 10  9  1  0
 11 13  1  0
 11 12  1  6
 13 20  1  0
 13 14  2  0
 15 16  1  0
 16 17  2  0
 19 18  1  1
 18 16  1  0
 19 21  1  0
 20 19  1  0
 21 22  1  0
 23 21  2  0
M  END
$$$$
