HFW.pdb
     RDKit          3D

 36 39  0  0  1  0  0  0  0  0999 V2000
    8.5344  -18.2215   19.2872 N   0  0  0  0  0  0  0  0  0  0  0  0
    8.3536  -18.1645   20.7496 C   0  0  1  0  0  0  0  0  0  0  0  0
    8.4967  -19.5685   21.2714 C   0  0  0  0  0  0  0  0  0  0  0  0
    7.4374  -20.4652   20.8175 C   0  0  0  0  0  0  0  0  0  0  0  0
    7.5227  -21.1212   19.5784 C   0  0  0  0  0  0  0  0  0  0  0  0
    6.4061  -21.8503   19.4777 N   0  0  0  0  0  0  0  0  0  0  0  0
    5.6366  -21.6859   20.5768 C   0  0  0  0  0  0  0  0  0  0  0  0
    6.2811  -20.8400   21.3795 N   0  0  0  0  0  0  0  0  0  0  0  0
    9.4418  -17.3108   21.3264 C   0  0  0  0  0  0  0  0  0  0  0  0
   10.6131  -17.2759   20.8966 O   0  0  0  0  0  0  0  0  0  0  0  0
    9.1554  -16.4654   22.4456 N   0  0  0  0  0  0  0  0  0  0  0  0
   10.1088  -15.4509   22.8503 C   0  0  1  0  0  0  0  0  0  0  0  0
    9.4205  -14.2096   23.3645 C   0  0  0  0  0  0  0  0  0  0  0  0
    8.2817  -13.7877   22.5102 C   0  0  0  0  0  0  0  0  0  0  0  0
    7.0618  -13.5073   23.0930 C   0  0  0  0  0  0  0  0  0  0  0  0
    6.0285  -13.1149   22.2585 C   0  0  0  0  0  0  0  0  0  0  0  0
    6.1933  -13.0016   20.8842 C   0  0  0  0  0  0  0  0  0  0  0  0
    7.3988  -13.2791   20.3109 C   0  0  0  0  0  0  0  0  0  0  0  0
    8.4429  -13.6745   21.1453 C   0  0  0  0  0  0  0  0  0  0  0  0
   10.9855  -15.9411   23.9523 C   0  0  0  0  0  0  0  0  0  0  0  0
   11.9877  -15.3008   24.3630 O   0  0  0  0  0  0  0  0  0  0  0  0
   10.6442  -17.1892   24.5413 N   0  0  0  0  0  0  0  0  0  0  0  0
   11.2955  -17.6884   25.7397 C   0  0  1  0  0  0  0  0  0  0  0  0
   10.1518  -18.0995   26.6775 C   0  0  0  0  0  0  0  0  0  0  0  0
    9.1370  -17.0445   26.7845 C   0  0  0  0  0  0  0  0  0  0  0  0
    7.8244  -17.0846   26.3231 C   0  0  0  0  0  0  0  0  0  0  0  0
    7.2254  -15.9163   26.6180 N   0  0  0  0  0  0  0  0  0  0  0  0
    8.1301  -15.1366   27.2563 C   0  0  0  0  0  0  0  0  0  0  0  0
    8.0305  -13.8592   27.7676 C   0  0  0  0  0  0  0  0  0  0  0  0
    9.1350  -13.2904   28.3846 C   0  0  0  0  0  0  0  0  0  0  0  0
   10.3149  -13.9654   28.4965 C   0  0  0  0  0  0  0  0  0  0  0  0
   10.4293  -15.2528   27.9860 C   0  0  0  0  0  0  0  0  0  0  0  0
    9.3307  -15.8186   27.3723 C   0  0  0  0  0  0  0  0  0  0  0  0
   12.1048  -18.8729   25.3773 C   0  0  0  0  0  0  0  0  0  0  0  0
   12.9407  -19.5132   26.2923 O   0  0  0  0  0  0  0  0  0  0  0  0
   12.0606  -19.3396   24.2230 O   0  0  0  0  0  0  0  0  0  0  0  0
  2  1  1  6
  3  2  1  0
  4  5  2  0
  4  3  1  0
  6  5  1  0
  7  8  2  0
  7  6  1  0
  8  4  1  0
  9  2  1  0
 10  9  2  0
 11  9  1  0
 12 11  1  0
 12 13  1  1
 13 14  1  0
 14 15  2  0
 15 16  1  0
 17 16  2  0
 18 17  1  0
 19 14  1  0
 19 18  2  0
 20 21  2  0
 20 12  1  0
 22 20  1  0
 23 22  1  0
 23 24  1  1
 24 25  1  0
 25 26  2  0
 25 33  1  0
 26 27  1  0
 27 28  1  0
 28 29  2  0
 29 30  1  0
 31 30  2  0
 32 31  1  0
 33 32  2  0
 33 28  1  0
 34 35  1  0
 34 23  1  0
 36 34  2  0
M  END
$$$$
