HFW.pdb
     RDKit          3D

 36 39  0  0  1  0  0  0  0  0999 V2000
   11.3310  -19.1944   17.7709 N   0  0  0  0  0  0  0  0  0  0  0  0
   10.1148  -19.3636   18.5874 C   0  0  1  0  0  0  0  0  0  0  0  0
   10.2996  -20.6104   19.4092 C   0  0  0  0  0  0  0  0  0  0  0  0
   10.0898  -21.8400   18.6501 C   0  0  0  0  0  0  0  0  0  0  0  0
    8.8127  -22.4135   18.5353 C   0  0  0  0  0  0  0  0  0  0  0  0
    8.9749  -23.5104   17.7876 N   0  0  0  0  0  0  0  0  0  0  0  0
   10.2718  -23.6503   17.4334 C   0  0  0  0  0  0  0  0  0  0  0  0
   10.9335  -22.6247   17.9676 N   0  0  0  0  0  0  0  0  0  0  0  0
    9.9934  -18.1833   19.5028 C   0  0  0  0  0  0  0  0  0  0  0  0
   10.9502  -17.6619   20.1117 O   0  0  0  0  0  0  0  0  0  0  0  0
    8.7097  -17.5871   19.7169 N   0  0  0  0  0  0  0  0  0  0  0  0
    8.5916  -16.3936   20.5316 C   0  0  1  0  0  0  0  0  0  0  0  0
    7.4524  -15.5147   20.0747 C   0  0  0  0  0  0  0  0  0  0  0  0
    7.3720  -14.2386   20.8296 C   0  0  0  0  0  0  0  0  0  0  0  0
    8.2121  -13.1957   20.4934 C   0  0  0  0  0  0  0  0  0  0  0  0
    8.1008  -12.0233   21.2223 C   0  0  0  0  0  0  0  0  0  0  0  0
    7.1845  -11.8823   22.2563 C   0  0  0  0  0  0  0  0  0  0  0  0
    6.3560  -12.9134   22.5865 C   0  0  0  0  0  0  0  0  0  0  0  0
    6.4630  -14.0962   21.8567 C   0  0  0  0  0  0  0  0  0  0  0  0
    8.3218  -16.7362   21.9574 C   0  0  0  0  0  0  0  0  0  0  0  0
    7.1815  -16.6350   22.4795 O   0  0  0  0  0  0  0  0  0  0  0  0
    9.4237  -17.1942   22.7304 N   0  0  0  0  0  0  0  0  0  0  0  0
    9.9178  -16.4688   23.8876 C   0  0  1  0  0  0  0  0  0  0  0  0
    9.3807  -15.0398   23.7260 C   0  0  0  0  0  0  0  0  0  0  0  0
    8.1937  -14.8128   24.5591 C   0  0  0  0  0  0  0  0  0  0  0  0
    7.1480  -15.6995   24.7998 C   0  0  0  0  0  0  0  0  0  0  0  0
    6.2566  -15.1072   25.6153 N   0  0  0  0  0  0  0  0  0  0  0  0
    6.7148  -13.8643   25.8967 C   0  0  0  0  0  0  0  0  0  0  0  0
    6.1888  -12.8557   26.6773 C   0  0  0  0  0  0  0  0  0  0  0  0
    6.8823  -11.6601   26.7937 C   0  0  0  0  0  0  0  0  0  0  0  0
    8.0705  -11.4604   26.1544 C   0  0  0  0  0  0  0  0  0  0  0  0
    8.6118  -12.4677   25.3650 C   0  0  0  0  0  0  0  0  0  0  0  0
    7.9220  -13.6571   25.2492 C   0  0  0  0  0  0  0  0  0  0  0  0
    9.3539  -17.0877   25.1075 C   0  0  0  0  0  0  0  0  0  0  0  0
    9.9888  -17.0057   26.3469 O   0  0  0  0  0  0  0  0  0  0  0  0
    8.2760  -17.7105   25.0600 O   0  0  0  0  0  0  0  0  0  0  0  0
  2  1  1  6
  3  2  1  0
  4  5  2  0
  4  3  1  0
  6  5  1  0
  7  8  2  0
  7  6  1  0
  8  4  1  0
  9  2  1  0
 10  9  2  0
 11  9  1  0
 12 11  1  0
 12 13  1  6
 13 14  1  0
 14 15  2  0
 15 16  1  0
 17 16  2  0
 18 17  1  0
 19 14  1  0
 19 18  2  0
 20 21  2  0
 20 12  1  0
 22 20  1  0
 23 22  1  0
 23 24  1  6
 24 25  1  0
 25 26  2  0
 25 33  1  0
 26 27  1  0
 27 28  1  0
 28 29  2  0
 29 30  1  0
 31 30  2  0
 32 31  1  0
 33 32  2  0
 33 28  1  0
 34 35  1  0
 34 23  1  0
 36 34  2  0
M  END
$$$$
