HFW.pdb
     RDKit          3D

 36 39  0  0  1  0  0  0  0  0999 V2000
    9.2023  -18.3042   20.4629 N   0  0  0  0  0  0  0  0  0  0  0  0
   10.4864  -17.5941   20.3172 C   0  0  1  0  0  0  0  0  0  0  0  0
   10.6031  -17.1752   18.8768 C   0  0  0  0  0  0  0  0  0  0  0  0
   10.7119  -18.3015   17.9538 C   0  0  0  0  0  0  0  0  0  0  0  0
    9.7183  -19.2928   17.8976 C   0  0  0  0  0  0  0  0  0  0  0  0
   10.1248  -20.1595   16.9637 N   0  0  0  0  0  0  0  0  0  0  0  0
   11.3069  -19.7657   16.4396 C   0  0  0  0  0  0  0  0  0  0  0  0
   11.6471  -18.6339   17.0549 N   0  0  0  0  0  0  0  0  0  0  0  0
   10.4508  -16.3726   21.1846 C   0  0  0  0  0  0  0  0  0  0  0  0
   11.3459  -15.5032   21.2152 O   0  0  0  0  0  0  0  0  0  0  0  0
    9.3305  -16.1547   22.0487 N   0  0  0  0  0  0  0  0  0  0  0  0
    9.1756  -14.8833   22.7281 C   0  0  1  0  0  0  0  0  0  0  0  0
    7.8035  -14.2940   22.5064 C   0  0  0  0  0  0  0  0  0  0  0  0
    7.5735  -13.8864   21.0973 C   0  0  0  0  0  0  0  0  0  0  0  0
    8.1449  -12.7216   20.6246 C   0  0  0  0  0  0  0  0  0  0  0  0
    7.9060  -12.3815   19.3034 C   0  0  0  0  0  0  0  0  0  0  0  0
    7.1238  -13.1694   18.4692 C   0  0  0  0  0  0  0  0  0  0  0  0
    6.5605  -14.3191   18.9382 C   0  0  0  0  0  0  0  0  0  0  0  0
    6.7971  -14.6671   20.2670 C   0  0  0  0  0  0  0  0  0  0  0  0
    9.3432  -15.0335   24.2021 C   0  0  0  0  0  0  0  0  0  0  0  0
    9.1226  -14.0969   25.0128 O   0  0  0  0  0  0  0  0  0  0  0  0
    9.7716  -16.3034   24.6765 N   0  0  0  0  0  0  0  0  0  0  0  0
   10.0963  -16.5443   26.0715 C   0  0  1  0  0  0  0  0  0  0  0  0
    8.7626  -16.9105   26.7374 C   0  0  0  0  0  0  0  0  0  0  0  0
    7.7633  -15.8500   26.5617 C   0  0  0  0  0  0  0  0  0  0  0  0
    6.5477  -15.9373   25.8892 C   0  0  0  0  0  0  0  0  0  0  0  0
    5.9282  -14.7447   25.9570 N   0  0  0  0  0  0  0  0  0  0  0  0
    6.7249  -13.9034   26.6580 C   0  0  0  0  0  0  0  0  0  0  0  0
    6.5626  -12.5800   27.0121 C   0  0  0  0  0  0  0  0  0  0  0  0
    7.5561  -11.9508   27.7478 C   0  0  0  0  0  0  0  0  0  0  0  0
    8.6876  -12.6108   28.1277 C   0  0  0  0  0  0  0  0  0  0  0  0
    8.8641  -13.9440   27.7779 C   0  0  0  0  0  0  0  0  0  0  0  0
    7.8760  -14.5699   27.0461 C   0  0  0  0  0  0  0  0  0  0  0  0
   11.0316  -17.6883   26.1466 C   0  0  0  0  0  0  0  0  0  0  0  0
   11.5809  -18.1244   27.3525 O   0  0  0  0  0  0  0  0  0  0  0  0
   11.3603  -18.3049   25.1152 O   0  0  0  0  0  0  0  0  0  0  0  0
  2  1  1  6
  3  2  1  0
  4  5  2  0
  4  3  1  0
  6  5  1  0
  7  8  2  0
  7  6  1  0
  8  4  1  0
  9  2  1  0
 10  9  2  0
 11  9  1  0
 12 11  1  0
 12 13  1  1
 13 14  1  0
 14 15  2  0
 15 16  1  0
 17 16  2  0
 18 17  1  0
 19 14  1  0
 19 18  2  0
 20 21  2  0
 20 12  1  0
 22 20  1  0
 23 22  1  0
 23 24  1  1
 24 25  1  0
 25 26  2  0
 25 33  1  0
 26 27  1  0
 27 28  1  0
 28 29  2  0
 29 30  1  0
 31 30  2  0
 32 31  1  0
 33 32  2  0
 33 28  1  0
 34 35  1  0
 34 23  1  0
 36 34  2  0
M  END
$$$$
