HFW.pdb
     RDKit          3D

 36 39  0  0  1  0  0  0  0  0999 V2000
   11.7294  -17.3812   19.1280 N   0  0  0  0  0  0  0  0  0  0  0  0
   10.3249  -17.5835   19.5292 C   0  0  1  0  0  0  0  0  0  0  0  0
   10.1373  -19.0572   19.7673 C   0  0  0  0  0  0  0  0  0  0  0  0
    9.7292  -19.7892   18.5716 C   0  0  0  0  0  0  0  0  0  0  0  0
    9.5249  -19.1273   17.3495 C   0  0  0  0  0  0  0  0  0  0  0  0
    9.1647  -20.0773   16.4798 N   0  0  0  0  0  0  0  0  0  0  0  0
    9.1337  -21.2840   17.0878 C   0  0  0  0  0  0  0  0  0  0  0  0
    9.4800  -21.0877   18.3593 N   0  0  0  0  0  0  0  0  0  0  0  0
   10.0892  -16.8430   20.8105 C   0  0  0  0  0  0  0  0  0  0  0  0
   10.9645  -16.6342   21.6755 O   0  0  0  0  0  0  0  0  0  0  0  0
    8.7852  -16.3256   21.0954 N   0  0  0  0  0  0  0  0  0  0  0  0
    8.5171  -15.7011   22.3761 C   0  0  1  0  0  0  0  0  0  0  0  0
    7.2504  -14.8804   22.3442 C   0  0  0  0  0  0  0  0  0  0  0  0
    7.0244  -14.1224   23.6008 C   0  0  0  0  0  0  0  0  0  0  0  0
    6.1644  -14.6288   24.5550 C   0  0  0  0  0  0  0  0  0  0  0  0
    5.9855  -13.8898   25.7127 C   0  0  0  0  0  0  0  0  0  0  0  0
    6.6378  -12.6823   25.9245 C   0  0  0  0  0  0  0  0  0  0  0  0
    7.4865  -12.1841   24.9809 C   0  0  0  0  0  0  0  0  0  0  0  0
    7.6709  -12.9230   23.8134 C   0  0  0  0  0  0  0  0  0  0  0  0
    8.3384  -16.7213   23.4487 C   0  0  0  0  0  0  0  0  0  0  0  0
    7.7648  -17.8239   23.2529 O   0  0  0  0  0  0  0  0  0  0  0  0
    8.8510  -16.4009   24.7355 N   0  0  0  0  0  0  0  0  0  0  0  0
    9.0717  -17.4081   25.7584 C   0  0  1  0  0  0  0  0  0  0  0  0
    8.2913  -16.9140   26.9845 C   0  0  0  0  0  0  0  0  0  0  0  0
    8.7429  -15.5841   27.4108 C   0  0  0  0  0  0  0  0  0  0  0  0
    8.1802  -14.3545   27.0808 C   0  0  0  0  0  0  0  0  0  0  0  0
    8.8925  -13.3788   27.6735 N   0  0  0  0  0  0  0  0  0  0  0  0
    9.8945  -13.9635   28.3721 C   0  0  0  0  0  0  0  0  0  0  0  0
   10.8974  -13.4229   29.1499 C   0  0  0  0  0  0  0  0  0  0  0  0
   11.8077  -14.2708   29.7636 C   0  0  0  0  0  0  0  0  0  0  0  0
   11.7329  -15.6245   29.6148 C   0  0  0  0  0  0  0  0  0  0  0  0
   10.7279  -16.1825   28.8341 C   0  0  0  0  0  0  0  0  0  0  0  0
    9.8223  -15.3392   28.2237 C   0  0  0  0  0  0  0  0  0  0  0  0
    8.5106  -18.6923   25.2838 C   0  0  0  0  0  0  0  0  0  0  0  0
    8.7464  -19.8984   25.9439 O   0  0  0  0  0  0  0  0  0  0  0  0
    7.7986  -18.7320   24.2623 O   0  0  0  0  0  0  0  0  0  0  0  0
  2  1  1  1
  3  2  1  0
  4  5  2  0
  4  3  1  0
  6  5  1  0
  7  8  2  0
  7  6  1  0
  8  4  1  0
  9  2  1  0
 10  9  2  0
 11  9  1  0
 12 11  1  0
 12 13  1  6
 13 14  1  0
 14 15  2  0
 15 16  1  0
 17 16  2  0
 18 17  1  0
 19 14  1  0
 19 18  2  0
 20 21  2  0
 20 12  1  0
 22 20  1  0
 23 22  1  0
 23 24  1  1
 24 25  1  0
 25 26  2  0
 25 33  1  0
 26 27  1  0
 27 28  1  0
 28 29  2  0
 29 30  1  0
 31 30  2  0
 32 31  1  0
 33 32  2  0
 33 28  1  0
 34 35  1  0
 34 23  1  0
 36 34  2  0
M  END
$$$$
