HFW.pdb
     RDKit          3D

 36 39  0  0  1  0  0  0  0  0999 V2000
   10.8447  -19.3326   17.3874 N   0  0  0  0  0  0  0  0  0  0  0  0
    9.9251  -19.4852   18.5300 C   0  0  1  0  0  0  0  0  0  0  0  0
   10.4848  -20.5691   19.4108 C   0  0  0  0  0  0  0  0  0  0  0  0
    9.8582  -21.8704   19.1960 C   0  0  0  0  0  0  0  0  0  0  0  0
    9.7770  -22.4341   17.9120 C   0  0  0  0  0  0  0  0  0  0  0  0
    9.1553  -23.6075   18.0711 N   0  0  0  0  0  0  0  0  0  0  0  0
    8.8475  -23.8038   19.3725 C   0  0  0  0  0  0  0  0  0  0  0  0
    9.2831  -22.7363   20.0403 N   0  0  0  0  0  0  0  0  0  0  0  0
    9.9006  -18.1947   19.2913 C   0  0  0  0  0  0  0  0  0  0  0  0
   10.8456  -17.3801   19.3286 O   0  0  0  0  0  0  0  0  0  0  0  0
    8.7315  -17.8388   20.0369 N   0  0  0  0  0  0  0  0  0  0  0  0
    8.6831  -16.5777   20.7507 C   0  0  1  0  0  0  0  0  0  0  0  0
    7.3242  -15.9283   20.6476 C   0  0  0  0  0  0  0  0  0  0  0  0
    7.2831  -14.5792   21.2664 C   0  0  0  0  0  0  0  0  0  0  0  0
    7.8702  -13.5136   20.6135 C   0  0  0  0  0  0  0  0  0  0  0  0
    7.8057  -12.2730   21.2259 C   0  0  0  0  0  0  0  0  0  0  0  0
    7.1784  -12.0874   22.4509 C   0  0  0  0  0  0  0  0  0  0  0  0
    6.5994  -13.1411   23.0939 C   0  0  0  0  0  0  0  0  0  0  0  0
    6.6608  -14.3923   22.4828 C   0  0  0  0  0  0  0  0  0  0  0  0
    8.9570  -16.7677   22.2040 C   0  0  0  0  0  0  0  0  0  0  0  0
    8.3133  -17.5783   22.9193 O   0  0  0  0  0  0  0  0  0  0  0  0
    9.9974  -15.9829   22.7723 N   0  0  0  0  0  0  0  0  0  0  0  0
   10.3595  -16.0693   24.1761 C   0  0  1  0  0  0  0  0  0  0  0  0
    9.9897  -14.7037   24.7717 C   0  0  0  0  0  0  0  0  0  0  0  0
    8.5880  -14.6666   25.2055 C   0  0  0  0  0  0  0  0  0  0  0  0
    7.6789  -15.7206   25.2173 C   0  0  0  0  0  0  0  0  0  0  0  0
    6.5002  -15.2710   25.6855 N   0  0  0  0  0  0  0  0  0  0  0  0
    6.6427  -13.9549   25.9708 C   0  0  0  0  0  0  0  0  0  0  0  0
    5.7496  -13.0306   26.4719 C   0  0  0  0  0  0  0  0  0  0  0  0
    6.1704  -11.7240   26.6716 C   0  0  0  0  0  0  0  0  0  0  0  0
    7.4453  -11.3342   26.3836 C   0  0  0  0  0  0  0  0  0  0  0  0
    8.3553  -12.2548   25.8783 C   0  0  0  0  0  0  0  0  0  0  0  0
    7.9368  -13.5545   25.6797 C   0  0  0  0  0  0  0  0  0  0  0  0
    9.5487  -17.1341   24.8070 C   0  0  0  0  0  0  0  0  0  0  0  0
   10.0062  -17.8716   25.8992 O   0  0  0  0  0  0  0  0  0  0  0  0
    8.4136  -17.4061   24.3716 O   0  0  0  0  0  0  0  0  0  0  0  0
  2  1  1  6
  3  2  1  0
  4  5  2  0
  4  3  1  0
  6  5  1  0
  7  8  2  0
  7  6  1  0
  8  4  1  0
  9  2  1  0
 10  9  2  0
 11  9  1  0
 12 11  1  0
 12 13  1  1
 13 14  1  0
 14 15  2  0
 15 16  1  0
 17 16  2  0
 18 17  1  0
 19 14  1  0
 19 18  2  0
 20 21  2  0
 20 12  1  0
 22 20  1  0
 23 22  1  0
 23 24  1  1
 24 25  1  0
 25 26  2  0
 25 33  1  0
 26 27  1  0
 27 28  1  0
 28 29  2  0
 29 30  1  0
 31 30  2  0
 32 31  1  0
 33 32  2  0
 33 28  1  0
 34 35  1  0
 34 23  1  0
 36 34  2  0
M  END
$$$$
