HFW.pdb
     RDKit          3D

 36 39  0  0  1  0  0  0  0  0999 V2000
    9.2440  -17.3696   18.4648 N   0  0  0  0  0  0  0  0  0  0  0  0
    8.6374  -17.8815   19.7075 C   0  0  1  0  0  0  0  0  0  0  0  0
    9.3912  -19.1257   20.0918 C   0  0  0  0  0  0  0  0  0  0  0  0
   10.8282  -19.0290   19.8511 C   0  0  0  0  0  0  0  0  0  0  0  0
   11.3492  -18.1092   18.9261 C   0  0  0  0  0  0  0  0  0  0  0  0
   12.6751  -18.2822   18.9520 N   0  0  0  0  0  0  0  0  0  0  0  0
   13.0056  -19.2509   19.8348 C   0  0  0  0  0  0  0  0  0  0  0  0
   11.8687  -19.6925   20.3711 N   0  0  0  0  0  0  0  0  0  0  0  0
    8.8130  -16.8481   20.7785 C   0  0  0  0  0  0  0  0  0  0  0  0
    9.7527  -16.0276   20.8192 O   0  0  0  0  0  0  0  0  0  0  0  0
    7.8582  -16.7666   21.8420 N   0  0  0  0  0  0  0  0  0  0  0  0
    8.0152  -15.7688   22.8821 C   0  0  1  0  0  0  0  0  0  0  0  0
    6.6839  -15.2241   23.3404 C   0  0  0  0  0  0  0  0  0  0  0  0
    6.8197  -14.1749   24.3822 C   0  0  0  0  0  0  0  0  0  0  0  0
    6.3622  -14.4234   25.6611 C   0  0  0  0  0  0  0  0  0  0  0  0
    6.5116  -13.4175   26.6014 C   0  0  0  0  0  0  0  0  0  0  0  0
    7.0971  -12.1976   26.2892 C   0  0  0  0  0  0  0  0  0  0  0  0
    7.5481  -11.9544   25.0257 C   0  0  0  0  0  0  0  0  0  0  0  0
    7.4007  -12.9627   24.0746 C   0  0  0  0  0  0  0  0  0  0  0  0
    8.6798  -16.3430   24.0869 C   0  0  0  0  0  0  0  0  0  0  0  0
    8.1116  -16.4226   25.2068 O   0  0  0  0  0  0  0  0  0  0  0  0
   10.0125  -16.8115   23.9267 N   0  0  0  0  0  0  0  0  0  0  0  0
   11.0984  -16.3795   24.7890 C   0  0  1  0  0  0  0  0  0  0  0  0
   11.1546  -17.4194   25.9168 C   0  0  0  0  0  0  0  0  0  0  0  0
   10.5551  -16.9056   27.1540 C   0  0  0  0  0  0  0  0  0  0  0  0
    9.8132  -17.6173   28.0926 C   0  0  0  0  0  0  0  0  0  0  0  0
    9.4451  -16.7798   29.0794 N   0  0  0  0  0  0  0  0  0  0  0  0
    9.9376  -15.5528   28.7866 C   0  0  0  0  0  0  0  0  0  0  0  0
    9.8501  -14.3525   29.4609 C   0  0  0  0  0  0  0  0  0  0  0  0
   10.4618  -13.2295   28.9234 C   0  0  0  0  0  0  0  0  0  0  0  0
   11.1463  -13.2862   27.7450 C   0  0  0  0  0  0  0  0  0  0  0  0
   11.2424  -14.4887   27.0553 C   0  0  0  0  0  0  0  0  0  0  0  0
   10.6341  -15.6058   27.5899 C   0  0  0  0  0  0  0  0  0  0  0  0
   12.3567  -16.4064   24.0111 C   0  0  0  0  0  0  0  0  0  0  0  0
   13.5890  -16.0746   24.5747 O   0  0  0  0  0  0  0  0  0  0  0  0
   12.3498  -16.7325   22.8088 O   0  0  0  0  0  0  0  0  0  0  0  0
  2  1  1  6
  3  2  1  0
  4  5  2  0
  4  3  1  0
  6  5  1  0
  7  8  2  0
  7  6  1  0
  8  4  1  0
  9  2  1  0
 10  9  2  0
 11  9  1  0
 12 11  1  0
 12 13  1  1
 13 14  1  0
 14 15  2  0
 15 16  1  0
 17 16  2  0
 18 17  1  0
 19 14  1  0
 19 18  2  0
 20 21  2  0
 20 12  1  0
 22 20  1  0
 23 22  1  0
 23 24  1  1
 24 25  1  0
 25 26  2  0
 25 33  1  0
 26 27  1  0
 27 28  1  0
 28 29  2  0
 29 30  1  0
 31 30  2  0
 32 31  1  0
 33 32  2  0
 33 28  1  0
 34 35  1  0
 34 23  1  0
 36 34  2  0
M  END
$$$$
