HFW.pdb
     RDKit          3D

 36 39  0  0  1  0  0  0  0  0999 V2000
    8.1938  -22.4628   25.0783 N   0  0  0  0  0  0  0  0  0  0  0  0
    9.1311  -21.5260   24.4314 C   0  0  1  0  0  0  0  0  0  0  0  0
    8.8015  -21.5085   22.9634 C   0  0  0  0  0  0  0  0  0  0  0  0
    9.1527  -22.7485   22.2768 C   0  0  0  0  0  0  0  0  0  0  0  0
   10.4889  -23.0560   21.9715 C   0  0  0  0  0  0  0  0  0  0  0  0
   10.4549  -24.2420   21.3544 N   0  0  0  0  0  0  0  0  0  0  0  0
    9.1819  -24.6862   21.2595 C   0  0  0  0  0  0  0  0  0  0  0  0
    8.4050  -23.7639   21.8261 N   0  0  0  0  0  0  0  0  0  0  0  0
    8.9032  -20.1601   25.0042 C   0  0  0  0  0  0  0  0  0  0  0  0
    7.9097  -19.4473   24.7537 O   0  0  0  0  0  0  0  0  0  0  0  0
    9.8683  -19.6032   25.9029 N   0  0  0  0  0  0  0  0  0  0  0  0
    9.9058  -18.1718   26.1302 C   0  0  1  0  0  0  0  0  0  0  0  0
   10.9083  -17.8006   27.1962 C   0  0  0  0  0  0  0  0  0  0  0  0
   10.6942  -16.4341   27.7362 C   0  0  0  0  0  0  0  0  0  0  0  0
   11.4852  -15.9814   28.7734 C   0  0  0  0  0  0  0  0  0  0  0  0
   11.2524  -14.6997   29.2440 C   0  0  0  0  0  0  0  0  0  0  0  0
   10.2649  -13.8849   28.7058 C   0  0  0  0  0  0  0  0  0  0  0  0
    9.4850  -14.3341   27.6817 C   0  0  0  0  0  0  0  0  0  0  0  0
    9.7143  -15.6232   27.2035 C   0  0  0  0  0  0  0  0  0  0  0  0
   10.3040  -17.4380   24.8949 C   0  0  0  0  0  0  0  0  0  0  0  0
   11.3744  -17.6732   24.2767 O   0  0  0  0  0  0  0  0  0  0  0  0
    9.4116  -16.4366   24.4235 N   0  0  0  0  0  0  0  0  0  0  0  0
    9.5221  -15.8579   23.0960 C   0  0  1  0  0  0  0  0  0  0  0  0
    8.7756  -14.5191   23.1775 C   0  0  0  0  0  0  0  0  0  0  0  0
    7.6743  -14.5741   24.1461 C   0  0  0  0  0  0  0  0  0  0  0  0
    7.0419  -15.7102   24.6431 C   0  0  0  0  0  0  0  0  0  0  0  0
    6.0834  -15.3296   25.5074 N   0  0  0  0  0  0  0  0  0  0  0  0
    6.0946  -13.9768   25.5689 C   0  0  0  0  0  0  0  0  0  0  0  0
    5.3241  -13.0926   26.2952 C   0  0  0  0  0  0  0  0  0  0  0  0
    5.5545  -11.7309   26.1651 C   0  0  0  0  0  0  0  0  0  0  0  0
    6.5243  -11.2484   25.3362 C   0  0  0  0  0  0  0  0  0  0  0  0
    7.3078  -12.1278   24.5988 C   0  0  0  0  0  0  0  0  0  0  0  0
    7.0787  -13.4822   24.7282 C   0  0  0  0  0  0  0  0  0  0  0  0
   10.9531  -15.6237   22.8019 C   0  0  0  0  0  0  0  0  0  0  0  0
   11.4098  -15.3116   21.5211 O   0  0  0  0  0  0  0  0  0  0  0  0
   11.8053  -15.7001   23.7073 O   0  0  0  0  0  0  0  0  0  0  0  0
  2  1  1  1
  3  2  1  0
  4  5  2  0
  4  3  1  0
  6  5  1  0
  7  8  2  0
  7  6  1  0
  8  4  1  0
  9  2  1  0
 10  9  2  0
 11  9  1  0
 12 11  1  0
 12 13  1  1
 13 14  1  0
 14 15  2  0
 15 16  1  0
 17 16  2  0
 18 17  1  0
 19 14  1  0
 19 18  2  0
 20 21  2  0
 20 12  1  0
 22 20  1  0
 23 22  1  0
 23 24  1  1
 24 25  1  0
 25 26  2  0
 25 33  1  0
 26 27  1  0
 27 28  1  0
 28 29  2  0
 29 30  1  0
 31 30  2  0
 32 31  1  0
 33 32  2  0
 33 28  1  0
 34 35  1  0
 34 23  1  0
 36 34  2  0
M  END
$$$$
