HFW.pdb
     RDKit          3D

 36 39  0  0  1  0  0  0  0  0999 V2000
    9.1333  -19.6088   19.1598 N   0  0  0  0  0  0  0  0  0  0  0  0
    8.6983  -19.0903   20.4699 C   0  0  1  0  0  0  0  0  0  0  0  0
    8.5077  -20.2754   21.3772 C   0  0  0  0  0  0  0  0  0  0  0  0
    7.4393  -21.1708   20.9427 C   0  0  0  0  0  0  0  0  0  0  0  0
    6.6879  -20.8979   19.7876 C   0  0  0  0  0  0  0  0  0  0  0  0
    5.8097  -21.9010   19.6823 N   0  0  0  0  0  0  0  0  0  0  0  0
    5.9715  -22.7762   20.6996 C   0  0  0  0  0  0  0  0  0  0  0  0
    6.9671  -22.3144   21.4550 N   0  0  0  0  0  0  0  0  0  0  0  0
    9.7880  -18.2198   21.0180 C   0  0  0  0  0  0  0  0  0  0  0  0
   11.0057  -18.4012   20.8127 O   0  0  0  0  0  0  0  0  0  0  0  0
    9.4471  -17.0954   21.8357 N   0  0  0  0  0  0  0  0  0  0  0  0
   10.4763  -16.1624   22.2508 C   0  0  1  0  0  0  0  0  0  0  0  0
   10.1578  -14.7505   21.8216 C   0  0  0  0  0  0  0  0  0  0  0  0
    8.7943  -14.3211   22.2231 C   0  0  0  0  0  0  0  0  0  0  0  0
    7.6985  -14.8135   21.5425 C   0  0  0  0  0  0  0  0  0  0  0  0
    6.4458  -14.3881   21.9525 C   0  0  0  0  0  0  0  0  0  0  0  0
    6.2774  -13.4999   23.0067 C   0  0  0  0  0  0  0  0  0  0  0  0
    7.3610  -13.0149   23.6772 C   0  0  0  0  0  0  0  0  0  0  0  0
    8.6246  -13.4392   23.2695 C   0  0  0  0  0  0  0  0  0  0  0  0
   10.6165  -16.1366   23.7350 C   0  0  0  0  0  0  0  0  0  0  0  0
   11.3801  -15.3361   24.3344 O   0  0  0  0  0  0  0  0  0  0  0  0
    9.8387  -17.0703   24.4727 N   0  0  0  0  0  0  0  0  0  0  0  0
    9.9728  -17.2319   25.9098 C   0  0  1  0  0  0  0  0  0  0  0  0
    8.5354  -17.3273   26.4398 C   0  0  0  0  0  0  0  0  0  0  0  0
    7.7128  -16.2054   25.9718 C   0  0  0  0  0  0  0  0  0  0  0  0
    6.4770  -16.2716   25.3347 C   0  0  0  0  0  0  0  0  0  0  0  0
    6.0585  -15.0205   25.0696 N   0  0  0  0  0  0  0  0  0  0  0  0
    7.0023  -14.1629   25.5249 C   0  0  0  0  0  0  0  0  0  0  0  0
    7.0653  -12.7849   25.5049 C   0  0  0  0  0  0  0  0  0  0  0  0
    8.1706  -12.1511   26.0534 C   0  0  0  0  0  0  0  0  0  0  0  0
    9.1944  -12.8594   26.6107 C   0  0  0  0  0  0  0  0  0  0  0  0
    9.1440  -14.2478   26.6376 C   0  0  0  0  0  0  0  0  0  0  0  0
    8.0446  -14.8782   26.0921 C   0  0  0  0  0  0  0  0  0  0  0  0
   10.6964  -18.4947   26.1762 C   0  0  0  0  0  0  0  0  0  0  0  0
   11.0584  -18.8892   27.4645 O   0  0  0  0  0  0  0  0  0  0  0  0
   11.0079  -19.2546   25.2395 O   0  0  0  0  0  0  0  0  0  0  0  0
  2  1  1  6
  3  2  1  0
  4  5  2  0
  4  3  1  0
  6  5  1  0
  7  8  2  0
  7  6  1  0
  8  4  1  0
  9  2  1  0
 10  9  2  0
 11  9  1  0
 12 11  1  0
 12 13  1  1
 13 14  1  0
 14 15  2  0
 15 16  1  0
 17 16  2  0
 18 17  1  0
 19 14  1  0
 19 18  2  0
 20 21  2  0
 20 12  1  0
 22 20  1  0
 23 22  1  0
 23 24  1  1
 24 25  1  0
 25 26  2  0
 25 33  1  0
 26 27  1  0
 27 28  1  0
 28 29  2  0
 29 30  1  0
 31 30  2  0
 32 31  1  0
 33 32  2  0
 33 28  1  0
 34 35  1  0
 34 23  1  0
 36 34  2  0
M  END
$$$$
