KCT.pdb
     RDKit          3D

 23 22  0  0  1  0  0  0  0  0999 V2000
    9.7055  -16.8026   16.3755 N   0  0  0  0  0  0  0  0  0  0  0  0
    9.6525  -17.6134   17.5505 C   0  0  1  0  0  0  0  0  0  0  0  0
   10.4724  -18.8700   17.4283 C   0  0  0  0  0  0  0  0  0  0  0  0
   10.1306  -19.5916   16.1589 C   0  0  0  0  0  0  0  0  0  0  0  0
   10.8840  -20.8796   15.9819 C   0  0  0  0  0  0  0  0  0  0  0  0
   10.9528  -21.6554   17.2980 C   0  0  0  0  0  0  0  0  0  0  0  0
   11.6000  -22.9320   16.9682 N   0  0  0  0  0  0  0  0  0  0  0  0
   10.0823  -16.8093   18.7507 C   0  0  0  0  0  0  0  0  0  0  0  0
   11.0166  -15.9874   18.6746 O   0  0  0  0  0  0  0  0  0  0  0  0
    9.4381  -16.9573   20.0174 N   0  0  0  0  0  0  0  0  0  0  0  0
    9.7910  -16.1904   21.1768 C   0  0  1  0  0  0  0  0  0  0  0  0
    8.5889  -15.8208   22.0163 C   0  0  0  0  0  0  0  0  0  0  0  0
    9.0576  -15.0173   23.5591 S   0  0  0  0  0  0  0  0  0  0  0  0
   10.8074  -16.9342   21.9462 C   0  0  0  0  0  0  0  0  0  0  0  0
   10.6290  -18.1500   22.2010 O   0  0  0  0  0  0  0  0  0  0  0  0
   15.4959  -17.1070   23.6076 C   0  0  0  0  0  0  0  0  0  0  0  0
   14.3622  -16.2994   23.0431 C   0  0  1  0  0  0  0  0  0  0  0  0
   14.7007  -15.9252   21.7566 O   0  0  0  0  0  0  0  0  0  0  0  0
   13.0432  -17.0759   23.0620 C   0  0  2  0  0  0  0  0  0  0  0  0
   12.0111  -16.3190   22.4240 N   0  0  0  0  0  0  0  0  0  0  0  0
   12.6991  -17.4820   24.4425 C   0  0  0  0  0  0  0  0  0  0  0  0
   11.9005  -16.7977   25.1287 O   0  0  0  0  0  0  0  0  0  0  0  0
   13.2358  -18.6185   25.0277 O   0  0  0  0  0  0  0  0  0  0  0  0
  2  8  1  0
  2  1  1  6
  3  2  1  0
  4  3  1  0
  5  4  1  0
  6  5  1  0
  7  6  1  0
  8  9  2  0
 10 11  1  0
 10  8  1  0
 11 12  1  1
 12 13  1  0
 14 11  1  0
 15 14  2  0
 17 16  1  6
 17 19  1  0
 18 17  1  0
 19 20  1  1
 20 14  1  0
 21 23  1  0
 21 19  1  0
 22 21  2  0
M  END
$$$$
