KCT.pdb
     RDKit          3D

 23 22  0  0  1  0  0  0  0  0999 V2000
    7.7953  -15.7094   16.7748 N   0  0  0  0  0  0  0  0  0  0  0  0
    7.4848  -16.3221   18.0274 C   0  0  1  0  0  0  0  0  0  0  0  0
    7.5950  -17.8229   17.9848 C   0  0  0  0  0  0  0  0  0  0  0  0
    8.8423  -18.2315   17.2595 C   0  0  0  0  0  0  0  0  0  0  0  0
    8.9563  -19.7160   17.0557 C   0  0  0  0  0  0  0  0  0  0  0  0
   10.1836  -20.0567   16.2093 C   0  0  0  0  0  0  0  0  0  0  0  0
   10.2458  -21.5238   16.1803 N   0  0  0  0  0  0  0  0  0  0  0  0
    8.3637  -15.7522   19.1112 C   0  0  0  0  0  0  0  0  0  0  0  0
    9.5024  -15.3150   18.8538 O   0  0  0  0  0  0  0  0  0  0  0  0
    7.9274  -15.6911   20.4704 N   0  0  0  0  0  0  0  0  0  0  0  0
    8.7211  -15.1402   21.5302 C   0  0  1  0  0  0  0  0  0  0  0  0
    7.8997  -14.3378   22.5140 C   0  0  0  0  0  0  0  0  0  0  0  0
    6.7034  -15.3581   23.3932 S   0  0  0  0  0  0  0  0  0  0  0  0
    9.4680  -16.2341   22.1812 C   0  0  0  0  0  0  0  0  0  0  0  0
    8.9226  -17.3534   22.3378 O   0  0  0  0  0  0  0  0  0  0  0  0
   12.8401  -17.5372   21.1650 C   0  0  0  0  0  0  0  0  0  0  0  0
   12.9174  -17.2900   22.6445 C   0  0  1  0  0  0  0  0  0  0  0  0
   13.6790  -16.1556   22.8509 O   0  0  0  0  0  0  0  0  0  0  0  0
   11.5290  -17.1433   23.2721 C   0  0  2  0  0  0  0  0  0  0  0  0
   10.8130  -16.0723   22.6512 N   0  0  0  0  0  0  0  0  0  0  0  0
   11.6352  -16.9985   24.7408 C   0  0  0  0  0  0  0  0  0  0  0  0
   11.2100  -15.9645   25.3125 O   0  0  0  0  0  0  0  0  0  0  0  0
   12.2003  -17.9839   25.5357 O   0  0  0  0  0  0  0  0  0  0  0  0
  2  8  1  0
  2  1  1  6
  3  2  1  0
  4  3  1  0
  5  4  1  0
  6  5  1  0
  7  6  1  0
  8  9  2  0
 10 11  1  0
 10  8  1  0
 11 12  1  1
 12 13  1  0
 14 11  1  0
 15 14  2  0
 17 16  1  6
 17 19  1  0
 18 17  1  0
 19 20  1  6
 20 14  1  0
 21 23  1  0
 21 19  1  0
 22 21  2  0
M  END
$$$$
