KCT.pdb
     RDKit          3D

 23 22  0  0  1  0  0  0  0  0999 V2000
    8.3707  -16.1214   18.0528 N   0  0  0  0  0  0  0  0  0  0  0  0
    7.4025  -16.0459   19.1004 C   0  0  1  0  0  0  0  0  0  0  0  0
    6.5791  -17.3002   19.2238 C   0  0  0  0  0  0  0  0  0  0  0  0
    7.4646  -18.4768   19.5075 C   0  0  0  0  0  0  0  0  0  0  0  0
    6.7230  -19.7823   19.5681 C   0  0  0  0  0  0  0  0  0  0  0  0
    7.6948  -20.9543   19.7131 C   0  0  0  0  0  0  0  0  0  0  0  0
    6.8521  -22.1424   19.9006 N   0  0  0  0  0  0  0  0  0  0  0  0
    8.0813  -15.7215   20.4065 C   0  0  0  0  0  0  0  0  0  0  0  0
    9.2902  -15.9694   20.5832 O   0  0  0  0  0  0  0  0  0  0  0  0
    7.3683  -15.1196   21.4885 N   0  0  0  0  0  0  0  0  0  0  0  0
    7.9816  -14.7563   22.7329 C   0  0  1  0  0  0  0  0  0  0  0  0
    7.0776  -13.9099   23.6005 C   0  0  0  0  0  0  0  0  0  0  0  0
    7.8099  -13.5611   25.2091 S   0  0  0  0  0  0  0  0  0  0  0  0
    8.4294  -15.9849   23.4174 C   0  0  0  0  0  0  0  0  0  0  0  0
    7.5936  -16.8732   23.7124 O   0  0  0  0  0  0  0  0  0  0  0  0
   10.9815  -18.4663   22.3155 C   0  0  0  0  0  0  0  0  0  0  0  0
   11.3725  -18.0674   23.7098 C   0  0  1  0  0  0  0  0  0  0  0  0
   12.4665  -17.2275   23.6252 O   0  0  0  0  0  0  0  0  0  0  0  0
   10.2177  -17.3945   24.4561 C   0  0  2  0  0  0  0  0  0  0  0  0
    9.8012  -16.2128   23.7667 N   0  0  0  0  0  0  0  0  0  0  0  0
   10.5857  -17.1463   25.8675 C   0  0  0  0  0  0  0  0  0  0  0  0
   10.8491  -18.1037   26.6362 O   0  0  0  0  0  0  0  0  0  0  0  0
   10.6540  -15.8652   26.3930 O   0  0  0  0  0  0  0  0  0  0  0  0
  2  8  1  0
  2  1  1  6
  3  2  1  0
  4  3  1  0
  5  4  1  0
  6  5  1  0
  7  6  1  0
  8  9  2  0
 10 11  1  0
 10  8  1  0
 11 12  1  1
 12 13  1  0
 14 11  1  0
 15 14  2  0
 17 16  1  6
 17 19  1  0
 18 17  1  0
 19 20  1  6
 20 14  1  0
 21 23  1  0
 21 19  1  0
 22 21  2  0
M  END
$$$$
