IYN.pdb
     RDKit          3D

 29 29  0  0  1  0  0  0  0  0999 V2000
    7.4973  -13.5099   16.6314 C   0  0  0  0  0  0  0  0  0  0  0  0
    8.2652  -14.5003   17.4711 C   0  0  0  0  0  0  0  0  0  0  0  0
    8.4251  -14.0546   18.9079 C   0  0  2  0  0  0  0  0  0  0  0  0
    9.0839  -12.7192   18.9286 C   0  0  0  0  0  0  0  0  0  0  0  0
    9.1578  -15.1336   19.6503 C   0  0  2  0  0  0  0  0  0  0  0  0
    8.3761  -16.3497   19.4940 N   0  0  0  0  0  0  0  0  0  0  0  0
    9.3334  -14.8265   21.0922 C   0  0  0  0  0  0  0  0  0  0  0  0
   10.4139  -14.3542   21.5436 O   0  0  0  0  0  0  0  0  0  0  0  0
    6.5796  -11.8540   29.0056 O   0  0  0  0  0  0  0  0  0  0  0  0
    6.6942  -12.4186   27.7295 C   0  0  0  0  0  0  0  0  0  0  0  0
    6.1520  -13.6384   27.4679 C   0  0  0  0  0  0  0  0  0  0  0  0
    6.2556  -14.2160   26.2052 C   0  0  0  0  0  0  0  0  0  0  0  0
    6.9000  -13.5904   25.1796 C   0  0  0  0  0  0  0  0  0  0  0  0
    7.0575  -14.0893   23.8158 C   0  0  0  0  0  0  0  0  0  0  0  0
    8.3667  -14.6745   23.4215 C   0  0  2  0  0  0  0  0  0  0  0  0
    8.2808  -15.0639   21.9753 N   0  0  0  0  0  0  0  0  0  0  0  0
    8.8807  -15.8072   24.1757 C   0  0  0  0  0  0  0  0  0  0  0  0
    8.7962  -15.7814   25.4430 O   0  0  0  0  0  0  0  0  0  0  0  0
    7.4432  -12.3439   25.4825 C   0  0  0  0  0  0  0  0  0  0  0  0
    7.3510  -11.7613   26.7185 C   0  0  0  0  0  0  0  0  0  0  0  0
    9.1425  -21.2951   25.4784 N   0  0  0  0  0  0  0  0  0  0  0  0
    9.9748  -20.4815   24.6360 C   0  0  0  0  0  0  0  0  0  0  0  0
   11.1696  -20.8191   24.5554 O   0  0  0  0  0  0  0  0  0  0  0  0
    9.4482  -19.3246   23.9162 C   0  0  0  0  0  0  0  0  0  0  0  0
    9.9405  -17.9969   24.4878 C   0  0  2  0  0  0  0  0  0  0  0  0
    9.4585  -16.9347   23.5734 N   0  0  0  0  0  0  0  0  0  0  0  0
   11.4004  -17.9282   24.5669 C   0  0  0  0  0  0  0  0  0  0  0  0
   12.0676  -18.3052   25.5804 O   0  0  0  0  0  0  0  0  0  0  0  0
   12.1124  -17.4243   23.4747 O   0  0  0  0  0  0  0  0  0  0  0  0
  2  1  1  0
  3  5  1  0
  3  2  1  0
  3  4  1  6
  5  6  1  1
  7  5  1  0
  7 16  1  0
  8  7  2  0
  9 10  1  0
 10 20  2  0
 10 11  1  0
 11 12  2  0
 12 13  1  0
 13 14  1  0
 15 14  1  1
 15 16  1  0
 17 15  1  0
 18 17  2  0
 19 13  2  0
 20 19  1  0
 21 22  1  0
 22 24  1  0
 23 22  2  0
 25 24  1  6
 25 26  1  0
 25 27  1  0
 26 17  1  0
 27 29  1  0
 28 27  2  0
M  END
$$$$
