IYN.pdb
     RDKit          3D

 29 29  0  0  1  0  0  0  0  0999 V2000
    6.7781  -12.5981   18.8683 C   0  0  0  0  0  0  0  0  0  0  0  0
    7.4003  -13.8800   19.3635 C   0  0  0  0  0  0  0  0  0  0  0  0
    8.0368  -13.7364   20.7283 C   0  0  2  0  0  0  0  0  0  0  0  0
    9.0358  -12.6329   20.6813 C   0  0  0  0  0  0  0  0  0  0  0  0
    8.5891  -15.0738   21.1265 C   0  0  2  0  0  0  0  0  0  0  0  0
    7.4791  -16.0121   21.0800 N   0  0  0  0  0  0  0  0  0  0  0  0
    9.1920  -15.0698   22.4833 C   0  0  0  0  0  0  0  0  0  0  0  0
   10.2428  -14.4187   22.7407 O   0  0  0  0  0  0  0  0  0  0  0  0
    5.9585  -10.5679   26.8744 O   0  0  0  0  0  0  0  0  0  0  0  0
    6.4543  -11.8526   26.6211 C   0  0  0  0  0  0  0  0  0  0  0  0
    5.6348  -12.8186   26.1256 C   0  0  0  0  0  0  0  0  0  0  0  0
    6.1096  -14.1019   25.8673 C   0  0  0  0  0  0  0  0  0  0  0  0
    7.4082  -14.4473   26.0968 C   0  0  0  0  0  0  0  0  0  0  0  0
    8.0200  -15.7507   25.8507 C   0  0  0  0  0  0  0  0  0  0  0  0
    9.1538  -15.8323   24.8916 C   0  0  2  0  0  0  0  0  0  0  0  0
    8.5862  -15.8022   23.5032 N   0  0  0  0  0  0  0  0  0  0  0  0
   10.0731  -16.9551   24.9912 C   0  0  0  0  0  0  0  0  0  0  0  0
   10.5578  -17.2439   26.1294 O   0  0  0  0  0  0  0  0  0  0  0  0
    8.2187  -13.4343   26.6043 C   0  0  0  0  0  0  0  0  0  0  0  0
    7.7685  -12.1673   26.8644 C   0  0  0  0  0  0  0  0  0  0  0  0
   13.6746  -20.4384   25.0293 N   0  0  0  0  0  0  0  0  0  0  0  0
   12.9514  -19.6079   25.9520 C   0  0  0  0  0  0  0  0  0  0  0  0
   13.1229  -19.8522   27.1599 O   0  0  0  0  0  0  0  0  0  0  0  0
   12.0658  -18.5387   25.4979 C   0  0  0  0  0  0  0  0  0  0  0  0
   11.3838  -18.8585   24.1695 C   0  0  2  0  0  0  0  0  0  0  0  0
   10.4465  -17.7441   23.8930 N   0  0  0  0  0  0  0  0  0  0  0  0
   10.6299  -20.1122   24.2146 C   0  0  0  0  0  0  0  0  0  0  0  0
   10.5389  -20.9129   23.2322 O   0  0  0  0  0  0  0  0  0  0  0  0
    9.9709  -20.4613   25.3969 O   0  0  0  0  0  0  0  0  0  0  0  0
  2  1  1  0
  3  5  1  0
  3  2  1  0
  3  4  1  6
  5  6  1  1
  7  5  1  0
  7 16  1  0
  8  7  2  0
  9 10  1  0
 10 20  2  0
 10 11  1  0
 11 12  2  0
 12 13  1  0
 13 14  1  0
 15 14  1  1
 15 16  1  0
 17 15  1  0
 18 17  2  0
 19 13  2  0
 20 19  1  0
 21 22  1  0
 22 24  1  0
 23 22  2  0
 25 24  1  1
 25 26  1  0
 25 27  1  0
 26 17  1  0
 27 29  1  0
 28 27  2  0
M  END
$$$$
