IYN.pdb
     RDKit          3D

 29 29  0  0  1  0  0  0  0  0999 V2000
    7.8176  -11.6809   20.2881 C   0  0  0  0  0  0  0  0  0  0  0  0
    7.7389  -13.0780   20.8516 C   0  0  0  0  0  0  0  0  0  0  0  0
    8.2208  -14.1326   19.8800 C   0  0  2  0  0  0  0  0  0  0  0  0
    7.3744  -14.0838   18.6556 C   0  0  0  0  0  0  0  0  0  0  0  0
    8.2272  -15.4531   20.5929 C   0  0  2  0  0  0  0  0  0  0  0  0
    6.8510  -15.7247   20.9764 N   0  0  0  0  0  0  0  0  0  0  0  0
    9.0979  -15.4570   21.7954 C   0  0  0  0  0  0  0  0  0  0  0  0
   10.3507  -15.3259   21.7081 O   0  0  0  0  0  0  0  0  0  0  0  0
   10.7938  -14.7453   30.6129 O   0  0  0  0  0  0  0  0  0  0  0  0
   10.2470  -14.8313   29.3269 C   0  0  0  0  0  0  0  0  0  0  0  0
    9.7413  -16.0100   28.8740 C   0  0  0  0  0  0  0  0  0  0  0  0
    9.1934  -16.1151   27.5982 C   0  0  0  0  0  0  0  0  0  0  0  0
    9.1380  -15.0493   26.7500 C   0  0  0  0  0  0  0  0  0  0  0  0
    8.5754  -15.0364   25.4021 C   0  0  0  0  0  0  0  0  0  0  0  0
    9.3593  -15.6558   24.3004 C   0  0  2  0  0  0  0  0  0  0  0  0
    8.5224  -15.6088   23.0562 N   0  0  0  0  0  0  0  0  0  0  0  0
    9.8551  -17.0123   24.4734 C   0  0  0  0  0  0  0  0  0  0  0  0
    9.1064  -17.9804   24.1329 O   0  0  0  0  0  0  0  0  0  0  0  0
    9.6647  -13.8588   27.2459 C   0  0  0  0  0  0  0  0  0  0  0  0
   10.2075  -13.7377   28.4974 C   0  0  0  0  0  0  0  0  0  0  0  0
   11.3955  -21.6809   23.3230 N   0  0  0  0  0  0  0  0  0  0  0  0
   12.1961  -20.4883   23.3514 C   0  0  0  0  0  0  0  0  0  0  0  0
   13.4231  -20.6486   23.2221 O   0  0  0  0  0  0  0  0  0  0  0  0
   11.6033  -19.1642   23.5223 C   0  0  0  0  0  0  0  0  0  0  0  0
   11.5237  -18.7353   24.9857 C   0  0  2  0  0  0  0  0  0  0  0  0
   11.1255  -17.3076   24.9900 N   0  0  0  0  0  0  0  0  0  0  0  0
   12.8049  -18.8724   25.6800 C   0  0  0  0  0  0  0  0  0  0  0  0
   13.7001  -17.9707   25.6871 O   0  0  0  0  0  0  0  0  0  0  0  0
   13.0708  -20.0533   26.3790 O   0  0  0  0  0  0  0  0  0  0  0  0
  2  1  1  0
  3  5  1  0
  3  2  1  0
  3  4  1  6
  5  6  1  1
  7  5  1  0
  7 16  1  0
  8  7  2  0
  9 10  1  0
 10 20  2  0
 10 11  1  0
 11 12  2  0
 12 13  1  0
 13 14  1  0
 15 14  1  1
 15 16  1  0
 17 15  1  0
 18 17  2  0
 19 13  2  0
 20 19  1  0
 21 22  1  0
 22 24  1  0
 23 22  2  0
 25 24  1  6
 25 26  1  0
 25 27  1  0
 26 17  1  0
 27 29  1  0
 28 27  2  0
M  END
$$$$
