IYN.pdb
     RDKit          3D

 29 29  0  0  1  0  0  0  0  0999 V2000
    6.4888  -18.9683   16.8268 C   0  0  0  0  0  0  0  0  0  0  0  0
    7.5001  -17.9147   16.4489 C   0  0  0  0  0  0  0  0  0  0  0  0
    8.6792  -17.8643   17.3954 C   0  0  2  0  0  0  0  0  0  0  0  0
    8.1748  -17.6965   18.7865 C   0  0  0  0  0  0  0  0  0  0  0  0
    9.6077  -16.7837   16.9240 C   0  0  2  0  0  0  0  0  0  0  0  0
    9.9293  -17.0875   15.5387 N   0  0  0  0  0  0  0  0  0  0  0  0
   10.8540  -16.7012   17.7266 C   0  0  0  0  0  0  0  0  0  0  0  0
   11.7724  -17.5607   17.6166 O   0  0  0  0  0  0  0  0  0  0  0  0
   18.3879  -13.1428   19.3290 O   0  0  0  0  0  0  0  0  0  0  0  0
   17.0097  -13.3885   19.3048 C   0  0  0  0  0  0  0  0  0  0  0  0
   16.3328  -13.6144   20.4628 C   0  0  0  0  0  0  0  0  0  0  0  0
   14.9624  -13.8606   20.4589 C   0  0  0  0  0  0  0  0  0  0  0  0
   14.2402  -13.8858   19.3028 C   0  0  0  0  0  0  0  0  0  0  0  0
   12.8033  -14.1169   19.1776 C   0  0  0  0  0  0  0  0  0  0  0  0
   12.2817  -15.4881   19.4216 C   0  0  2  0  0  0  0  0  0  0  0  0
   11.0196  -15.6495   18.6267 N   0  0  0  0  0  0  0  0  0  0  0  0
   12.0217  -15.9028   20.7914 C   0  0  0  0  0  0  0  0  0  0  0  0
   10.8568  -15.7291   21.2676 O   0  0  0  0  0  0  0  0  0  0  0  0
   14.9648  -13.6509   18.1365 C   0  0  0  0  0  0  0  0  0  0  0  0
   16.3125  -13.4076   18.1220 C   0  0  0  0  0  0  0  0  0  0  0  0
   11.6214  -19.6989   24.0997 N   0  0  0  0  0  0  0  0  0  0  0  0
   11.3004  -19.6464   22.7004 C   0  0  0  0  0  0  0  0  0  0  0  0
   10.6485  -20.6063   22.2511 O   0  0  0  0  0  0  0  0  0  0  0  0
   11.7157  -18.5305   21.8541 C   0  0  0  0  0  0  0  0  0  0  0  0
   12.5000  -17.4668   22.6192 C   0  0  2  0  0  0  0  0  0  0  0  0
   12.9916  -16.4949   21.6138 N   0  0  0  0  0  0  0  0  0  0  0  0
   13.6455  -18.0251   23.3389 C   0  0  0  0  0  0  0  0  0  0  0  0
   13.6964  -18.1313   24.6041 O   0  0  0  0  0  0  0  0  0  0  0  0
   14.7498  -18.4716   22.6074 O   0  0  0  0  0  0  0  0  0  0  0  0
  2  1  1  0
  3  5  1  0
  3  2  1  0
  3  4  1  1
  5  6  1  6
  7  5  1  0
  7 16  1  0
  8  7  2  0
  9 10  1  0
 10 20  2  0
 10 11  1  0
 11 12  2  0
 12 13  1  0
 13 14  1  0
 15 14  1  1
 15 16  1  0
 17 15  1  0
 18 17  2  0
 19 13  2  0
 20 19  1  0
 21 22  1  0
 22 24  1  0
 23 22  2  0
 25 24  1  6
 25 26  1  0
 25 27  1  0
 26 17  1  0
 27 29  1  0
 28 27  2  0
M  END
$$$$
