CWG.pdb
     RDKit          3D

 25 26  0  0  1  0  0  0  0  0999 V2000
   28.0042  -21.3846  -15.6253 N   0  0  0  0  0  0  0  0  0  0  0  0
   28.4336  -20.6506  -14.4616 C   0  0  1  0  0  0  0  0  0  0  0  0
   28.5010  -19.1673  -14.6704 C   0  0  0  0  0  0  0  0  0  0  0  0
   26.8384  -18.6017  -15.0992 S   0  0  0  0  0  0  0  0  0  0  0  0
   27.5810  -21.0363  -13.2918 C   0  0  0  0  0  0  0  0  0  0  0  0
   26.5322  -21.7110  -13.4370 O   0  0  0  0  0  0  0  0  0  0  0  0
   27.9360  -20.6479  -11.9749 N   0  0  0  0  0  0  0  0  0  0  0  0
   27.1661  -20.8406  -10.7923 C   0  0  1  0  0  0  0  0  0  0  0  0
   27.8885  -20.3079   -9.6007 C   0  0  0  0  0  0  0  0  0  0  0  0
   27.1188  -20.4657   -8.3483 C   0  0  0  0  0  0  0  0  0  0  0  0
   25.8079  -20.8726   -8.2151 C   0  0  0  0  0  0  0  0  0  0  0  0
   25.5480  -20.8605   -6.8917 N   0  0  0  0  0  0  0  0  0  0  0  0
   26.6300  -20.4672   -6.2002 C   0  0  0  0  0  0  0  0  0  0  0  0
   26.8476  -20.2978   -4.8405 C   0  0  0  0  0  0  0  0  0  0  0  0
   28.0803  -19.8724   -4.4130 C   0  0  0  0  0  0  0  0  0  0  0  0
   29.1189  -19.6052   -5.2946 C   0  0  0  0  0  0  0  0  0  0  0  0
   28.9023  -19.7741   -6.6465 C   0  0  0  0  0  0  0  0  0  0  0  0
   27.6596  -20.2026   -7.0731 C   0  0  0  0  0  0  0  0  0  0  0  0
   25.7911  -20.2741  -10.9202 C   0  0  0  0  0  0  0  0  0  0  0  0
   25.6870  -19.0290  -10.9980 O   0  0  0  0  0  0  0  0  0  0  0  0
   24.6106  -21.0469  -10.9582 N   0  0  0  0  0  0  0  0  0  0  0  0
   23.3669  -20.5202  -11.5015 C   0  0  0  0  0  0  0  0  0  0  0  0
   22.2582  -20.6137  -10.5502 C   0  0  0  0  0  0  0  0  0  0  0  0
   22.3818  -21.1375   -9.3887 O   0  0  0  0  0  0  0  0  0  0  0  0
   20.9919  -20.1392  -10.8449 O   0  0  0  0  0  0  0  0  0  0  0  0
  2  1  1  6
  3  2  1  0
  4  3  1  0
  5  7  1  0
  5  2  1  0
  6  5  2  0
  8  7  1  0
  8  9  1  1
  9 10  1  0
 10 11  2  0
 10 18  1  0
 11 12  1  0
 12 13  1  0
 13 14  2  0
 14 15  1  0
 16 15  2  0
 17 16  1  0
 18 17  2  0
 18 13  1  0
 19  8  1  0
 20 19  2  0
 21 19  1  0
 22 23  1  0
 22 21  1  0
 23 25  1  0
 24 23  2  0
M  END
$$$$
