CWG.pdb
     RDKit          3D

 25 26  0  0  1  0  0  0  0  0999 V2000
   28.1776  -16.0507  -20.1811 N   0  0  0  0  0  0  0  0  0  0  0  0
   27.3569  -14.8804  -20.3663 C   0  0  1  0  0  0  0  0  0  0  0  0
   27.2289  -14.4491  -21.7966 C   0  0  0  0  0  0  0  0  0  0  0  0
   28.8004  -13.6989  -22.2818 S   0  0  0  0  0  0  0  0  0  0  0  0
   26.0318  -15.0960  -19.7016 C   0  0  0  0  0  0  0  0  0  0  0  0
   25.3897  -16.1651  -19.8472 O   0  0  0  0  0  0  0  0  0  0  0  0
   25.4585  -14.0911  -18.8816 N   0  0  0  0  0  0  0  0  0  0  0  0
   24.2201  -14.1653  -18.1819 C   0  0  1  0  0  0  0  0  0  0  0  0
   24.4171  -13.8807  -16.7308 C   0  0  0  0  0  0  0  0  0  0  0  0
   25.1020  -14.9816  -16.0205 C   0  0  0  0  0  0  0  0  0  0  0  0
   26.3902  -14.9888  -15.5282 C   0  0  0  0  0  0  0  0  0  0  0  0
   26.5668  -16.2031  -14.9681 N   0  0  0  0  0  0  0  0  0  0  0  0
   25.4550  -16.9465  -15.0889 C   0  0  0  0  0  0  0  0  0  0  0  0
   25.1574  -18.2387  -14.6807 C   0  0  0  0  0  0  0  0  0  0  0  0
   23.9127  -18.7502  -14.9496 C   0  0  0  0  0  0  0  0  0  0  0  0
   22.9392  -18.0189  -15.6167 C   0  0  0  0  0  0  0  0  0  0  0  0
   23.2353  -16.7340  -16.0221 C   0  0  0  0  0  0  0  0  0  0  0  0
   24.4899  -16.2226  -15.7495 C   0  0  0  0  0  0  0  0  0  0  0  0
   23.1775  -13.2897  -18.7937 C   0  0  0  0  0  0  0  0  0  0  0  0
   23.5294  -12.1451  -19.1586 O   0  0  0  0  0  0  0  0  0  0  0  0
   21.8310  -13.6674  -18.9848 N   0  0  0  0  0  0  0  0  0  0  0  0
   20.8705  -12.7819  -19.6272 C   0  0  0  0  0  0  0  0  0  0  0  0
   20.1947  -11.9032  -18.6711 C   0  0  0  0  0  0  0  0  0  0  0  0
   19.4933  -12.3463  -17.6961 O   0  0  0  0  0  0  0  0  0  0  0  0
   20.2683  -10.5239  -18.7578 O   0  0  0  0  0  0  0  0  0  0  0  0
  2  1  1  6
  3  2  1  0
  4  3  1  0
  5  7  1  0
  5  2  1  0
  6  5  2  0
  8  7  1  0
  8  9  1  1
  9 10  1  0
 10 11  2  0
 10 18  1  0
 11 12  1  0
 12 13  1  0
 13 14  2  0
 14 15  1  0
 16 15  2  0
 17 16  1  0
 18 17  2  0
 18 13  1  0
 19  8  1  0
 20 19  2  0
 21 19  1  0
 22 23  1  0
 22 21  1  0
 23 25  1  0
 24 23  2  0
M  END
$$$$
