CWG.pdb
     RDKit          3D

 25 26  0  0  1  0  0  0  0  0999 V2000
   29.0017  -21.1351  -18.8855 N   0  0  0  0  0  0  0  0  0  0  0  0
   27.6863  -20.9041  -18.3437 C   0  0  1  0  0  0  0  0  0  0  0  0
   26.5742  -21.4077  -19.2143 C   0  0  0  0  0  0  0  0  0  0  0  0
   26.3720  -20.2329  -20.5732 S   0  0  0  0  0  0  0  0  0  0  0  0
   27.6247  -21.4454  -16.9481 C   0  0  0  0  0  0  0  0  0  0  0  0
   28.1907  -22.5215  -16.6350 O   0  0  0  0  0  0  0  0  0  0  0  0
   26.9198  -20.7530  -15.9310 N   0  0  0  0  0  0  0  0  0  0  0  0
   26.7117  -21.1874  -14.5907 C   0  0  1  0  0  0  0  0  0  0  0  0
   26.7108  -20.0260  -13.6545 C   0  0  0  0  0  0  0  0  0  0  0  0
   26.6022  -20.4342  -12.2377 C   0  0  0  0  0  0  0  0  0  0  0  0
   27.6205  -20.8419  -11.4019 C   0  0  0  0  0  0  0  0  0  0  0  0
   27.0406  -21.1119  -10.2144 N   0  0  0  0  0  0  0  0  0  0  0  0
   25.7170  -20.8925  -10.2731 C   0  0  0  0  0  0  0  0  0  0  0  0
   24.7138  -21.0290   -9.3245 C   0  0  0  0  0  0  0  0  0  0  0  0
   23.4217  -20.7290   -9.6763 C   0  0  0  0  0  0  0  0  0  0  0  0
   23.0826  -20.2932  -10.9500 C   0  0  0  0  0  0  0  0  0  0  0  0
   24.0803  -20.1572  -11.8929 C   0  0  0  0  0  0  0  0  0  0  0  0
   25.3802  -20.4603  -11.5348 C   0  0  0  0  0  0  0  0  0  0  0  0
   25.4819  -22.0227  -14.4569 C   0  0  0  0  0  0  0  0  0  0  0  0
   24.4174  -21.5582  -14.9242 O   0  0  0  0  0  0  0  0  0  0  0  0
   25.4434  -23.2924  -13.8415 N   0  0  0  0  0  0  0  0  0  0  0  0
   24.1969  -24.0258  -13.6748 C   0  0  0  0  0  0  0  0  0  0  0  0
   23.7809  -24.7060  -14.9025 C   0  0  0  0  0  0  0  0  0  0  0  0
   22.9279  -24.2087  -15.7173 O   0  0  0  0  0  0  0  0  0  0  0  0
   24.2849  -25.9423  -15.2675 O   0  0  0  0  0  0  0  0  0  0  0  0
  2  1  1  6
  3  2  1  0
  4  3  1  0
  5  7  1  0
  5  2  1  0
  6  5  2  0
  8  7  1  0
  8  9  1  1
  9 10  1  0
 10 11  2  0
 10 18  1  0
 11 12  1  0
 12 13  1  0
 13 14  2  0
 14 15  1  0
 16 15  2  0
 17 16  1  0
 18 17  2  0
 18 13  1  0
 19  8  1  0
 20 19  2  0
 21 19  1  0
 22 23  1  0
 22 21  1  0
 23 25  1  0
 24 23  2  0
M  END
$$$$
