CWG.pdb
     RDKit          3D

 25 26  0  0  1  0  0  0  0  0999 V2000
   27.3006  -21.1097  -12.7178 N   0  0  0  0  0  0  0  0  0  0  0  0
   26.0646  -20.6448  -12.1405 C   0  0  1  0  0  0  0  0  0  0  0  0
   24.8716  -20.8310  -13.0295 C   0  0  0  0  0  0  0  0  0  0  0  0
   24.9941  -19.6197  -14.3658 S   0  0  0  0  0  0  0  0  0  0  0  0
   25.8866  -21.2652  -10.7886 C   0  0  0  0  0  0  0  0  0  0  0  0
   26.1873  -22.4646  -10.5711 O   0  0  0  0  0  0  0  0  0  0  0  0
   25.3690  -20.5103   -9.7054 N   0  0  0  0  0  0  0  0  0  0  0  0
   25.1375  -20.9718   -8.3780 C   0  0  1  0  0  0  0  0  0  0  0  0
   25.3808  -19.8802   -7.3908 C   0  0  0  0  0  0  0  0  0  0  0  0
   26.8186  -19.6575   -7.1282 C   0  0  0  0  0  0  0  0  0  0  0  0
   27.7579  -19.1349   -7.9922 C   0  0  0  0  0  0  0  0  0  0  0  0
   28.9233  -19.1273   -7.3133 N   0  0  0  0  0  0  0  0  0  0  0  0
   28.7531  -19.6182   -6.0749 C   0  0  0  0  0  0  0  0  0  0  0  0
   29.6406  -19.8103   -5.0260 C   0  0  0  0  0  0  0  0  0  0  0  0
   29.1749  -20.3459   -3.8514 C   0  0  0  0  0  0  0  0  0  0  0  0
   27.8448  -20.7028   -3.6757 C   0  0  0  0  0  0  0  0  0  0  0  0
   26.9625  -20.5113   -4.7187 C   0  0  0  0  0  0  0  0  0  0  0  0
   27.4354  -19.9718   -5.8999 C   0  0  0  0  0  0  0  0  0  0  0  0
   23.7837  -21.5816   -8.2249 C   0  0  0  0  0  0  0  0  0  0  0  0
   22.8962  -21.2217   -9.0311 O   0  0  0  0  0  0  0  0  0  0  0  0
   23.4437  -22.5301   -7.2365 N   0  0  0  0  0  0  0  0  0  0  0  0
   22.1403  -23.1782   -7.2125 C   0  0  0  0  0  0  0  0  0  0  0  0
   21.0376  -22.2158   -7.2412 C   0  0  0  0  0  0  0  0  0  0  0  0
   21.0288  -21.1482   -6.5348 O   0  0  0  0  0  0  0  0  0  0  0  0
   19.9215  -22.3969   -8.0394 O   0  0  0  0  0  0  0  0  0  0  0  0
  2  1  1  6
  3  2  1  0
  4  3  1  0
  5  7  1  0
  5  2  1  0
  6  5  2  0
  8  7  1  0
  8  9  1  1
  9 10  1  0
 10 11  2  0
 10 18  1  0
 11 12  1  0
 12 13  1  0
 13 14  2  0
 14 15  1  0
 16 15  2  0
 17 16  1  0
 18 17  2  0
 18 13  1  0
 19  8  1  0
 20 19  2  0
 21 19  1  0
 22 23  1  0
 22 21  1  0
 23 25  1  0
 24 23  2  0
M  END
$$$$
