CWG.pdb
     RDKit          3D

 25 26  0  0  1  0  0  0  0  0999 V2000
   26.1600  -24.4259  -16.4524 N   0  0  0  0  0  0  0  0  0  0  0  0
   25.8510  -23.0528  -16.1419 C   0  0  1  0  0  0  0  0  0  0  0  0
   24.5932  -22.5528  -16.7871 C   0  0  0  0  0  0  0  0  0  0  0  0
   24.8224  -22.6536  -18.5773 S   0  0  0  0  0  0  0  0  0  0  0  0
   25.8561  -22.8693  -14.6551 C   0  0  0  0  0  0  0  0  0  0  0  0
   25.5404  -23.8023  -13.8766 O   0  0  0  0  0  0  0  0  0  0  0  0
   26.2208  -21.6263  -14.0779 N   0  0  0  0  0  0  0  0  0  0  0  0
   26.2486  -21.3059  -12.6905 C   0  0  1  0  0  0  0  0  0  0  0  0
   27.4175  -20.4347  -12.3744 C   0  0  0  0  0  0  0  0  0  0  0  0
   28.1045  -20.8309  -11.1266 C   0  0  0  0  0  0  0  0  0  0  0  0
   29.2718  -21.5551  -11.0055 C   0  0  0  0  0  0  0  0  0  0  0  0
   29.5027  -21.6687   -9.6815 N   0  0  0  0  0  0  0  0  0  0  0  0
   28.5387  -21.0526   -8.9782 C   0  0  0  0  0  0  0  0  0  0  0  0
   28.3420  -20.9025   -7.6130 C   0  0  0  0  0  0  0  0  0  0  0  0
   27.2415  -20.2109   -7.1726 C   0  0  0  0  0  0  0  0  0  0  0  0
   26.3168  -19.6552   -8.0464 C   0  0  0  0  0  0  0  0  0  0  0  0
   26.5129  -19.8043   -9.4037 C   0  0  0  0  0  0  0  0  0  0  0  0
   27.6222  -20.5016   -9.8433 C   0  0  0  0  0  0  0  0  0  0  0  0
   24.9596  -20.7136  -12.2262 C   0  0  0  0  0  0  0  0  0  0  0  0
   24.5028  -19.7474  -12.8780 O   0  0  0  0  0  0  0  0  0  0  0  0
   24.2296  -21.1698  -11.1076 N   0  0  0  0  0  0  0  0  0  0  0  0
   23.0059  -20.5129  -10.6713 C   0  0  0  0  0  0  0  0  0  0  0  0
   21.8455  -20.9043  -11.4734 C   0  0  0  0  0  0  0  0  0  0  0  0
   21.8481  -20.8869  -12.7534 O   0  0  0  0  0  0  0  0  0  0  0  0
   20.6583  -21.3220  -10.8976 O   0  0  0  0  0  0  0  0  0  0  0  0
  2  1  1  1
  3  2  1  0
  4  3  1  0
  5  7  1  0
  5  2  1  0
  6  5  2  0
  8  7  1  0
  8  9  1  6
  9 10  1  0
 10 11  2  0
 10 18  1  0
 11 12  1  0
 12 13  1  0
 13 14  2  0
 14 15  1  0
 16 15  2  0
 17 16  1  0
 18 17  2  0
 18 13  1  0
 19  8  1  0
 20 19  2  0
 21 19  1  0
 22 23  1  0
 22 21  1  0
 23 25  1  0
 24 23  2  0
M  END
$$$$
