CWG.pdb
     RDKit          3D

 25 26  0  0  1  0  0  0  0  0999 V2000
   30.7002  -35.2833   -7.2214 N   0  0  0  0  0  0  0  0  0  0  0  0
   29.9195  -36.1653   -6.3910 C   0  0  1  0  0  0  0  0  0  0  0  0
   30.6432  -37.4137   -5.9833 C   0  0  0  0  0  0  0  0  0  0  0  0
   31.0629  -38.3170   -7.4919 S   0  0  0  0  0  0  0  0  0  0  0  0
   29.3805  -35.3965   -5.2236 C   0  0  0  0  0  0  0  0  0  0  0  0
   30.1215  -34.6711   -4.5159 O   0  0  0  0  0  0  0  0  0  0  0  0
   28.0063  -35.4657   -4.8805 N   0  0  0  0  0  0  0  0  0  0  0  0
   27.3369  -34.7002   -3.8833 C   0  0  1  0  0  0  0  0  0  0  0  0
   25.9292  -34.4207   -4.2904 C   0  0  0  0  0  0  0  0  0  0  0  0
   25.8005  -33.1834   -5.0894 C   0  0  0  0  0  0  0  0  0  0  0  0
   25.5649  -31.9063   -4.6255 C   0  0  0  0  0  0  0  0  0  0  0  0
   25.5260  -31.1158   -5.7177 N   0  0  0  0  0  0  0  0  0  0  0  0
   25.7250  -31.8381   -6.8323 C   0  0  0  0  0  0  0  0  0  0  0  0
   25.7696  -31.4789   -8.1716 C   0  0  0  0  0  0  0  0  0  0  0  0
   25.9916  -32.4522   -9.1133 C   0  0  0  0  0  0  0  0  0  0  0  0
   26.1733  -33.7856   -8.7723 C   0  0  0  0  0  0  0  0  0  0  0  0
   26.1292  -34.1424   -7.4405 C   0  0  0  0  0  0  0  0  0  0  0  0
   25.9054  -33.1594   -6.4952 C   0  0  0  0  0  0  0  0  0  0  0  0
   27.4202  -35.3389   -2.5368 C   0  0  0  0  0  0  0  0  0  0  0  0
   26.5177  -36.1497   -2.2279 O   0  0  0  0  0  0  0  0  0  0  0  0
   28.4433  -35.0882   -1.5973 N   0  0  0  0  0  0  0  0  0  0  0  0
   28.4675  -35.7432   -0.2974 C   0  0  0  0  0  0  0  0  0  0  0  0
   29.7142  -35.4965    0.4291 C   0  0  0  0  0  0  0  0  0  0  0  0
   30.6811  -34.8161   -0.0617 O   0  0  0  0  0  0  0  0  0  0  0  0
   29.9336  -35.9865    1.7047 O   0  0  0  0  0  0  0  0  0  0  0  0
  2  1  1  1
  3  2  1  0
  4  3  1  0
  5  7  1  0
  5  2  1  0
  6  5  2  0
  8  7  1  0
  8  9  1  6
  9 10  1  0
 10 11  2  0
 10 18  1  0
 11 12  1  0
 12 13  1  0
 13 14  2  0
 14 15  1  0
 16 15  2  0
 17 16  1  0
 18 17  2  0
 18 13  1  0
 19  8  1  0
 20 19  2  0
 21 19  1  0
 22 23  1  0
 22 21  1  0
 23 25  1  0
 24 23  2  0
M  END
$$$$
