WGF.pdb
     RDKit          3D

 30 32  0  0  1  0  0  0  0  0999 V2000
    8.6245  -16.0334   20.5788 N   0  0  0  0  0  0  0  0  0  0  0  0
    9.1103  -16.0723   21.9400 C   0  0  1  0  0  0  0  0  0  0  0  0
    8.0471  -16.4400   22.9309 C   0  0  0  0  0  0  0  0  0  0  0  0
    7.2258  -15.3001   23.4010 C   0  0  0  0  0  0  0  0  0  0  0  0
    6.0427  -14.8815   22.7782 C   0  0  0  0  0  0  0  0  0  0  0  0
    5.5585  -13.8165   23.4380 N   0  0  0  0  0  0  0  0  0  0  0  0
    6.3505  -13.4932   24.4735 C   0  0  0  0  0  0  0  0  0  0  0  0
    6.2682  -12.5010   25.4235 C   0  0  0  0  0  0  0  0  0  0  0  0
    7.2439  -12.4145   26.3885 C   0  0  0  0  0  0  0  0  0  0  0  0
    8.2694  -13.3346   26.3596 C   0  0  0  0  0  0  0  0  0  0  0  0
    8.3606  -14.3380   25.4058 C   0  0  0  0  0  0  0  0  0  0  0  0
    7.3959  -14.4242   24.4499 C   0  0  0  0  0  0  0  0  0  0  0  0
   10.3156  -16.9256   22.0523 C   0  0  0  0  0  0  0  0  0  0  0  0
   10.8830  -17.3126   21.0113 O   0  0  0  0  0  0  0  0  0  0  0  0
   10.8330  -17.3084   23.3136 N   0  0  0  0  0  0  0  0  0  0  0  0
   12.0767  -18.0171   23.4807 C   0  0  0  0  0  0  0  0  0  0  0  0
   12.3997  -18.2885   24.8980 C   0  0  0  0  0  0  0  0  0  0  0  0
   13.5017  -18.8500   25.2232 O   0  0  0  0  0  0  0  0  0  0  0  0
   11.5266  -17.9546   25.9612 N   0  0  0  0  0  0  0  0  0  0  0  0
   11.9024  -18.1556   27.3253 C   0  0  1  0  0  0  0  0  0  0  0  0
   12.4535  -16.9732   28.0364 C   0  0  0  0  0  0  0  0  0  0  0  0
   11.4331  -15.9100   28.0851 C   0  0  0  0  0  0  0  0  0  0  0  0
   11.2107  -15.0512   27.0365 C   0  0  0  0  0  0  0  0  0  0  0  0
   10.2396  -14.0878   27.1656 C   0  0  0  0  0  0  0  0  0  0  0  0
    9.4807  -13.9523   28.3096 C   0  0  0  0  0  0  0  0  0  0  0  0
    9.7034  -14.8119   29.3592 C   0  0  0  0  0  0  0  0  0  0  0  0
   10.6777  -15.7774   29.2277 C   0  0  0  0  0  0  0  0  0  0  0  0
   10.7037  -18.7148   28.0546 C   0  0  0  0  0  0  0  0  0  0  0  0
    9.5972  -18.7476   27.4598 O   0  0  0  0  0  0  0  0  0  0  0  0
   10.7766  -19.1874   29.3444 O   0  0  0  0  0  0  0  0  0  0  0  0
  2  1  1  6
  2 13  1  0
  2  3  1  0
  3  4  1  0
  4  5  2  0
  5  6  1  0
  7  6  1  0
  8  7  2  0
  9  8  1  0
 10 11  1  0
 10  9  2  0
 11 12  2  0
 12  4  1  0
 12  7  1  0
 13 15  1  0
 14 13  2  0
 15 16  1  0
 17 18  2  0
 17 16  1  0
 19 17  1  0
 20 21  1  1
 20 19  1  0
 21 22  1  0
 22 23  2  0
 23 24  1  0
 25 24  2  0
 26 25  1  0
 27 26  2  0
 27 22  1  0
 28 30  1  0
 28 20  1  0
 29 28  2  0
M  END
$$$$
