WGF.pdb
     RDKit          3D

 30 32  0  0  1  0  0  0  0  0999 V2000
    9.4361  -17.8760   22.3213 N   0  0  0  0  0  0  0  0  0  0  0  0
   10.1226  -16.6066   22.4091 C   0  0  1  0  0  0  0  0  0  0  0  0
    9.2483  -15.5024   22.9228 C   0  0  0  0  0  0  0  0  0  0  0  0
    8.1982  -15.0602   21.9760 C   0  0  0  0  0  0  0  0  0  0  0  0
    6.8398  -15.3736   22.1153 C   0  0  0  0  0  0  0  0  0  0  0  0
    6.1636  -14.8400   21.0847 N   0  0  0  0  0  0  0  0  0  0  0  0
    6.9919  -14.1826   20.2566 C   0  0  0  0  0  0  0  0  0  0  0  0
    6.7694  -13.4842   19.0920 C   0  0  0  0  0  0  0  0  0  0  0  0
    7.8337  -12.8972   18.4488 C   0  0  0  0  0  0  0  0  0  0  0  0
    9.0864  -13.0367   19.0058 C   0  0  0  0  0  0  0  0  0  0  0  0
    9.3201  -13.7390   20.1793 C   0  0  0  0  0  0  0  0  0  0  0  0
    8.2678  -14.3208   20.8164 C   0  0  0  0  0  0  0  0  0  0  0  0
   11.3869  -16.7351   23.1695 C   0  0  0  0  0  0  0  0  0  0  0  0
   12.2945  -15.9005   22.9814 O   0  0  0  0  0  0  0  0  0  0  0  0
   11.5835  -17.7828   24.1016 N   0  0  0  0  0  0  0  0  0  0  0  0
   12.3128  -17.6236   25.3343 C   0  0  0  0  0  0  0  0  0  0  0  0
   11.4611  -17.7819   26.5328 C   0  0  0  0  0  0  0  0  0  0  0  0
   10.3494  -18.4106   26.4684 O   0  0  0  0  0  0  0  0  0  0  0  0
   11.8133  -17.2555   27.7989 N   0  0  0  0  0  0  0  0  0  0  0  0
   10.9796  -17.4471   28.9438 C   0  0  1  0  0  0  0  0  0  0  0  0
    9.5911  -16.9287   28.8400 C   0  0  0  0  0  0  0  0  0  0  0  0
    9.6203  -15.5452   28.3310 C   0  0  0  0  0  0  0  0  0  0  0  0
   10.2635  -14.5281   28.9929 C   0  0  0  0  0  0  0  0  0  0  0  0
   10.2414  -13.2669   28.4482 C   0  0  0  0  0  0  0  0  0  0  0  0
    9.5968  -12.9858   27.2614 C   0  0  0  0  0  0  0  0  0  0  0  0
    8.9528  -14.0040   26.5989 C   0  0  0  0  0  0  0  0  0  0  0  0
    8.9763  -15.2681   27.1468 C   0  0  0  0  0  0  0  0  0  0  0  0
   10.9832  -18.9211   29.2733 C   0  0  0  0  0  0  0  0  0  0  0  0
   10.3705  -19.3113   30.2988 O   0  0  0  0  0  0  0  0  0  0  0  0
   11.6324  -19.8515   28.4955 O   0  0  0  0  0  0  0  0  0  0  0  0
  2  1  1  1
  2 13  1  0
  2  3  1  0
  3  4  1  0
  4  5  2  0
  5  6  1  0
  7  6  1  0
  8  7  2  0
  9  8  1  0
 10 11  1  0
 10  9  2  0
 11 12  2  0
 12  4  1  0
 12  7  1  0
 13 15  1  0
 14 13  2  0
 15 16  1  0
 17 18  2  0
 17 16  1  0
 19 17  1  0
 20 21  1  6
 20 19  1  0
 21 22  1  0
 22 23  2  0
 23 24  1  0
 25 24  2  0
 26 25  1  0
 27 26  2  0
 27 22  1  0
 28 30  1  0
 28 20  1  0
 29 28  2  0
M  END
$$$$
