WGF.pdb
     RDKit          3D

 30 32  0  0  1  0  0  0  0  0999 V2000
    7.8240  -17.8208   23.3440 N   0  0  0  0  0  0  0  0  0  0  0  0
    8.1422  -16.9218   22.2573 C   0  0  1  0  0  0  0  0  0  0  0  0
    7.3504  -15.6494   22.2992 C   0  0  0  0  0  0  0  0  0  0  0  0
    6.9764  -15.2040   23.6617 C   0  0  0  0  0  0  0  0  0  0  0  0
    6.4214  -16.0472   24.6334 C   0  0  0  0  0  0  0  0  0  0  0  0
    6.1822  -15.3307   25.7440 N   0  0  0  0  0  0  0  0  0  0  0  0
    6.5460  -14.0487   25.5753 C   0  0  0  0  0  0  0  0  0  0  0  0
    6.4995  -12.9585   26.4135 C   0  0  0  0  0  0  0  0  0  0  0  0
    6.9578  -11.7441   25.9597 C   0  0  0  0  0  0  0  0  0  0  0  0
    7.4475  -11.6742   24.6735 C   0  0  0  0  0  0  0  0  0  0  0  0
    7.4981  -12.7679   23.8214 C   0  0  0  0  0  0  0  0  0  0  0  0
    7.0443  -13.9701   24.2692 C   0  0  0  0  0  0  0  0  0  0  0  0
    9.6014  -16.6841   22.1711 C   0  0  0  0  0  0  0  0  0  0  0  0
   10.0359  -15.8871   21.3159 O   0  0  0  0  0  0  0  0  0  0  0  0
   10.5080  -17.3419   23.0374 N   0  0  0  0  0  0  0  0  0  0  0  0
   11.9309  -17.1141   23.0206 C   0  0  0  0  0  0  0  0  0  0  0  0
   12.4919  -16.8705   24.3671 C   0  0  0  0  0  0  0  0  0  0  0  0
   13.7398  -16.6404   24.5253 O   0  0  0  0  0  0  0  0  0  0  0  0
   11.7005  -16.8801   25.5408 N   0  0  0  0  0  0  0  0  0  0  0  0
   12.2156  -17.3640   26.7830 C   0  0  1  0  0  0  0  0  0  0  0  0
   12.4418  -16.3467   27.8419 C   0  0  0  0  0  0  0  0  0  0  0  0
   11.3045  -15.4088   27.8726 C   0  0  0  0  0  0  0  0  0  0  0  0
   10.6323  -15.1007   29.0301 C   0  0  0  0  0  0  0  0  0  0  0  0
    9.5826  -14.2163   28.9695 C   0  0  0  0  0  0  0  0  0  0  0  0
    9.1799  -13.6272   27.7889 C   0  0  0  0  0  0  0  0  0  0  0  0
    9.8527  -13.9357   26.6303 C   0  0  0  0  0  0  0  0  0  0  0  0
   10.9052  -14.8229   26.6932 C   0  0  0  0  0  0  0  0  0  0  0  0
   11.2913  -18.4548   27.2700 C   0  0  0  0  0  0  0  0  0  0  0  0
   10.2412  -18.6899   26.6210 O   0  0  0  0  0  0  0  0  0  0  0  0
   11.5541  -19.1989   28.3968 O   0  0  0  0  0  0  0  0  0  0  0  0
  2  1  1  1
  2 13  1  0
  2  3  1  0
  3  4  1  0
  4  5  2  0
  5  6  1  0
  7  6  1  0
  8  7  2  0
  9  8  1  0
 10 11  1  0
 10  9  2  0
 11 12  2  0
 12  4  1  0
 12  7  1  0
 13 15  1  0
 14 13  2  0
 15 16  1  0
 17 18  2  0
 17 16  1  0
 19 17  1  0
 20 21  1  1
 20 19  1  0
 21 22  1  0
 22 23  2  0
 23 24  1  0
 25 24  2  0
 26 25  1  0
 27 26  2  0
 27 22  1  0
 28 30  1  0
 28 20  1  0
 29 28  2  0
M  END
$$$$
