WGF.pdb
     RDKit          3D

 30 32  0  0  1  0  0  0  0  0999 V2000
    8.3967  -17.8329   20.8325 N   0  0  0  0  0  0  0  0  0  0  0  0
    8.9008  -17.0573   21.9436 C   0  0  1  0  0  0  0  0  0  0  0  0
    7.9211  -16.0350   22.4363 C   0  0  0  0  0  0  0  0  0  0  0  0
    7.3959  -15.1321   21.3856 C   0  0  0  0  0  0  0  0  0  0  0  0
    6.0549  -15.1024   20.9812 C   0  0  0  0  0  0  0  0  0  0  0  0
    5.9169  -14.1927   20.0026 N   0  0  0  0  0  0  0  0  0  0  0  0
    7.0926  -13.6057   19.7244 C   0  0  0  0  0  0  0  0  0  0  0  0
    7.4455  -12.6297   18.8209 C   0  0  0  0  0  0  0  0  0  0  0  0
    8.7544  -12.2122   18.7624 C   0  0  0  0  0  0  0  0  0  0  0  0
    9.6613  -12.7961   19.6201 C   0  0  0  0  0  0  0  0  0  0  0  0
    9.3145  -13.7806   20.5341 C   0  0  0  0  0  0  0  0  0  0  0  0
    8.0197  -14.1951   20.5924 C   0  0  0  0  0  0  0  0  0  0  0  0
    9.4011  -17.9368   23.0250 C   0  0  0  0  0  0  0  0  0  0  0  0
    9.2896  -19.1727   22.9011 O   0  0  0  0  0  0  0  0  0  0  0  0
   10.0008  -17.4029   24.1913 N   0  0  0  0  0  0  0  0  0  0  0  0
   11.3997  -17.5505   24.5048 C   0  0  0  0  0  0  0  0  0  0  0  0
   11.7494  -17.0265   25.8426 C   0  0  0  0  0  0  0  0  0  0  0  0
   12.9293  -17.1694   26.3146 O   0  0  0  0  0  0  0  0  0  0  0  0
   10.8191  -16.3513   26.6690 N   0  0  0  0  0  0  0  0  0  0  0  0
   11.2380  -15.6382   27.8346 C   0  0  1  0  0  0  0  0  0  0  0  0
   10.7771  -14.2300   27.9446 C   0  0  0  0  0  0  0  0  0  0  0  0
    9.3301  -14.1641   27.6691 C   0  0  0  0  0  0  0  0  0  0  0  0
    8.6367  -15.2087   27.1084 C   0  0  0  0  0  0  0  0  0  0  0  0
    7.2888  -15.0633   26.8848 C   0  0  0  0  0  0  0  0  0  0  0  0
    6.6076  -13.9066   27.2031 C   0  0  0  0  0  0  0  0  0  0  0  0
    7.3018  -12.8610   27.7644 C   0  0  0  0  0  0  0  0  0  0  0  0
    8.6535  -13.0089   27.9878 C   0  0  0  0  0  0  0  0  0  0  0  0
   10.8148  -16.4415   29.0416 C   0  0  0  0  0  0  0  0  0  0  0  0
   11.1621  -16.0445   30.1822 O   0  0  0  0  0  0  0  0  0  0  0  0
   10.0660  -17.5909   28.9399 O   0  0  0  0  0  0  0  0  0  0  0  0
  2  1  1  6
  2 13  1  0
  2  3  1  0
  3  4  1  0
  4  5  2  0
  5  6  1  0
  7  6  1  0
  8  7  2  0
  9  8  1  0
 10 11  1  0
 10  9  2  0
 11 12  2  0
 12  4  1  0
 12  7  1  0
 13 15  1  0
 14 13  2  0
 15 16  1  0
 17 18  2  0
 17 16  1  0
 19 17  1  0
 20 21  1  1
 20 19  1  0
 21 22  1  0
 22 23  2  0
 23 24  1  0
 25 24  2  0
 26 25  1  0
 27 26  2  0
 27 22  1  0
 28 30  1  0
 28 20  1  0
 29 28  2  0
M  END
$$$$
