WGF.pdb
     RDKit          3D

 30 32  0  0  1  0  0  0  0  0999 V2000
   10.4792  -16.4612   21.3977 N   0  0  0  0  0  0  0  0  0  0  0  0
    9.2218  -16.9306   21.9350 C   0  0  1  0  0  0  0  0  0  0  0  0
    8.1544  -17.0695   20.8914 C   0  0  0  0  0  0  0  0  0  0  0  0
    7.9444  -15.8589   20.0636 C   0  0  0  0  0  0  0  0  0  0  0  0
    7.8213  -15.8796   18.6681 C   0  0  0  0  0  0  0  0  0  0  0  0
    7.6612  -14.6207   18.2281 N   0  0  0  0  0  0  0  0  0  0  0  0
    7.6690  -13.7504   19.2512 C   0  0  0  0  0  0  0  0  0  0  0  0
    7.5376  -12.3815   19.2990 C   0  0  0  0  0  0  0  0  0  0  0  0
    7.5803  -11.7463   20.5179 C   0  0  0  0  0  0  0  0  0  0  0  0
    7.7543  -12.5177   21.6465 C   0  0  0  0  0  0  0  0  0  0  0  0
    7.8878  -13.8981   21.6078 C   0  0  0  0  0  0  0  0  0  0  0  0
    7.8464  -14.5277   20.4021 C   0  0  0  0  0  0  0  0  0  0  0  0
    9.4088  -18.1667   22.7289 C   0  0  0  0  0  0  0  0  0  0  0  0
    9.0152  -19.2533   22.2600 O   0  0  0  0  0  0  0  0  0  0  0  0
   10.0232  -18.1379   24.0044 N   0  0  0  0  0  0  0  0  0  0  0  0
   10.6211  -19.2930   24.6250 C   0  0  0  0  0  0  0  0  0  0  0  0
   11.1526  -19.0115   25.9760 C   0  0  0  0  0  0  0  0  0  0  0  0
   11.7563  -19.9189   26.6449 O   0  0  0  0  0  0  0  0  0  0  0  0
   11.0259  -17.7481   26.6020 N   0  0  0  0  0  0  0  0  0  0  0  0
   11.8530  -17.3778   27.7072 C   0  0  1  0  0  0  0  0  0  0  0  0
   12.2098  -15.9391   27.8082 C   0  0  0  0  0  0  0  0  0  0  0  0
   10.9789  -15.1274   27.8171 C   0  0  0  0  0  0  0  0  0  0  0  0
   10.4795  -14.5557   28.9618 C   0  0  0  0  0  0  0  0  0  0  0  0
    9.3256  -13.8141   28.8813 C   0  0  0  0  0  0  0  0  0  0  0  0
    8.6513  -13.6234   27.6929 C   0  0  0  0  0  0  0  0  0  0  0  0
    9.1512  -14.1958   26.5472 C   0  0  0  0  0  0  0  0  0  0  0  0
   10.3086  -14.9391   26.6301 C   0  0  0  0  0  0  0  0  0  0  0  0
   11.1750  -17.8564   28.9692 C   0  0  0  0  0  0  0  0  0  0  0  0
   10.0136  -18.3296   28.8876 O   0  0  0  0  0  0  0  0  0  0  0  0
   11.7790  -17.7926   30.2034 O   0  0  0  0  0  0  0  0  0  0  0  0
  2  1  1  6
  2 13  1  0
  2  3  1  0
  3  4  1  0
  4  5  2  0
  5  6  1  0
  7  6  1  0
  8  7  2  0
  9  8  1  0
 10 11  1  0
 10  9  2  0
 11 12  2  0
 12  4  1  0
 12  7  1  0
 13 15  1  0
 14 13  2  0
 15 16  1  0
 17 18  2  0
 17 16  1  0
 19 17  1  0
 20 21  1  1
 20 19  1  0
 21 22  1  0
 22 23  2  0
 23 24  1  0
 25 24  2  0
 26 25  1  0
 27 26  2  0
 27 22  1  0
 28 30  1  0
 28 20  1  0
 29 28  2  0
M  END
$$$$
