WGF.pdb
     RDKit          3D

 30 32  0  0  1  0  0  0  0  0999 V2000
    8.3841  -17.4647   17.4546 N   0  0  0  0  0  0  0  0  0  0  0  0
    9.2134  -18.1200   18.4411 C   0  0  1  0  0  0  0  0  0  0  0  0
    9.6524  -17.2006   19.5408 C   0  0  0  0  0  0  0  0  0  0  0  0
    8.5714  -16.3598   20.1059 C   0  0  0  0  0  0  0  0  0  0  0  0
    7.5199  -16.8604   20.8847 C   0  0  0  0  0  0  0  0  0  0  0  0
    6.7063  -15.8452   21.2191 N   0  0  0  0  0  0  0  0  0  0  0  0
    7.1518  -14.6855   20.7085 C   0  0  0  0  0  0  0  0  0  0  0  0
    6.6688  -13.3991   20.7817 C   0  0  0  0  0  0  0  0  0  0  0  0
    7.3546  -12.3887   20.1497 C   0  0  0  0  0  0  0  0  0  0  0  0
    8.5057  -12.7141   19.4655 C   0  0  0  0  0  0  0  0  0  0  0  0
    9.0000  -14.0080   19.3863 C   0  0  0  0  0  0  0  0  0  0  0  0
    8.3218  -15.0089   20.0107 C   0  0  0  0  0  0  0  0  0  0  0  0
    8.5659  -19.3509   18.9499 C   0  0  0  0  0  0  0  0  0  0  0  0
    7.3206  -19.4182   18.9658 O   0  0  0  0  0  0  0  0  0  0  0  0
    9.3308  -20.4475   19.4164 N   0  0  0  0  0  0  0  0  0  0  0  0
    9.1569  -21.0415   20.7179 C   0  0  0  0  0  0  0  0  0  0  0  0
   10.1713  -20.5938   21.6963 C   0  0  0  0  0  0  0  0  0  0  0  0
   10.2747  -21.1594   22.8385 O   0  0  0  0  0  0  0  0  0  0  0  0
   11.0701  -19.5311   21.4373 N   0  0  0  0  0  0  0  0  0  0  0  0
   12.0328  -19.1158   22.4085 C   0  0  1  0  0  0  0  0  0  0  0  0
   13.4318  -18.9748   21.9288 C   0  0  0  0  0  0  0  0  0  0  0  0
   13.8799  -20.2502   21.3402 C   0  0  0  0  0  0  0  0  0  0  0  0
   14.3912  -21.2746   22.0990 C   0  0  0  0  0  0  0  0  0  0  0  0
   14.7858  -22.4304   21.4696 C   0  0  0  0  0  0  0  0  0  0  0  0
   14.6869  -22.5987   20.1039 C   0  0  0  0  0  0  0  0  0  0  0  0
   14.1752  -21.5733   19.3444 C   0  0  0  0  0  0  0  0  0  0  0  0
   13.7800  -20.4150   19.9776 C   0  0  0  0  0  0  0  0  0  0  0  0
   11.5394  -17.8271   23.0227 C   0  0  0  0  0  0  0  0  0  0  0  0
   12.2355  -17.2783   23.9135 O   0  0  0  0  0  0  0  0  0  0  0  0
   10.3574  -17.2328   22.6458 O   0  0  0  0  0  0  0  0  0  0  0  0
  2  1  1  6
  2 13  1  0
  2  3  1  0
  3  4  1  0
  4  5  2  0
  5  6  1  0
  7  6  1  0
  8  7  2  0
  9  8  1  0
 10 11  1  0
 10  9  2  0
 11 12  2  0
 12  4  1  0
 12  7  1  0
 13 15  1  0
 14 13  2  0
 15 16  1  0
 17 18  2  0
 17 16  1  0
 19 17  1  0
 20 21  1  6
 20 19  1  0
 21 22  1  0
 22 23  2  0
 23 24  1  0
 25 24  2  0
 26 25  1  0
 27 26  2  0
 27 22  1  0
 28 30  1  0
 28 20  1  0
 29 28  2  0
M  END
$$$$
