RLI.pdb
     RDKit          3D

 28 27  0  0  1  0  0  0  0  0999 V2000
   18.2997  -23.4532  -15.5042 N   0  0  0  0  0  0  0  0  0  0  0  0
   17.5339  -22.5200  -14.7689 C   0  0  0  0  0  0  0  0  0  0  0  0
   16.4232  -22.8621  -14.1682 N   0  0  0  0  0  0  0  0  0  0  0  0
   17.9000  -21.1604  -14.6243 N   0  0  0  0  0  0  0  0  0  0  0  0
   19.1195  -20.6411  -15.1920 C   0  0  0  0  0  0  0  0  0  0  0  0
   20.3040  -21.5192  -14.9290 C   0  0  0  0  0  0  0  0  0  0  0  0
   21.4440  -20.8770  -14.2227 C   0  0  0  0  0  0  0  0  0  0  0  0
   22.6356  -21.7615  -13.9789 C   0  0  2  0  0  0  0  0  0  0  0  0
   22.3449  -22.9298  -13.1784 N   0  0  0  0  0  0  0  0  0  0  0  0
   23.6553  -20.9341  -13.2770 C   0  0  0  0  0  0  0  0  0  0  0  0
   23.3700  -20.3337  -12.2037 O   0  0  0  0  0  0  0  0  0  0  0  0
   15.9095  -22.1017  -13.6848 C   0  0  0  0  0  0  0  0  0  0  0  0
   25.0190  -19.2968  -10.2442 C   0  0  2  0  0  0  0  0  0  0  0  0
   24.9981  -20.7325  -10.7101 C   0  0  0  0  0  0  0  0  0  0  0  0
   25.3334  -21.6093   -9.5018 C   0  0  0  0  0  0  0  0  0  0  0  0
   26.1411  -20.9245  -11.6791 C   0  0  2  0  0  0  0  0  0  0  0  0
   25.9849  -20.1397  -12.9420 N   0  0  0  0  0  0  0  0  0  0  0  0
   24.9804  -20.7754  -13.7637 C   0  0  0  0  0  0  0  0  0  0  0  0
   27.2594  -19.9412  -13.6700 O   0  0  0  0  0  0  0  0  0  0  0  0
   28.2094  -19.3580  -13.0898 C   0  0  0  0  0  0  0  0  0  0  0  0
   28.4605  -22.4216  -18.7920 C   0  0  0  0  0  0  0  0  0  0  0  0
   27.9079  -21.3803  -17.8323 C   0  0  2  0  0  0  0  0  0  0  0  0
   28.9403  -20.9637  -16.8182 C   0  0  0  0  0  0  0  0  0  0  0  0
   29.3397  -22.2182  -16.0495 C   0  0  1  0  0  0  0  0  0  0  0  0
   28.4439  -19.8983  -15.9059 N   0  0  0  0  0  0  0  0  0  0  0  0
   27.4152  -20.3975  -14.9982 C   0  0  0  0  0  0  0  0  0  0  0  0
   28.0286  -18.6394  -16.5491 O   0  0  0  0  0  0  0  0  0  0  0  0
   26.7498  -18.1280  -16.6064 O   0  0  0  0  0  0  0  0  0  0  0  0
  1  2  1  0
  2  3  2  0
  4  2  1  0
  4  5  1  0
  6  5  1  0
  7  6  1  0
  8  7  1  0
  8  9  1  1
 10  8  1  0
 10 11  2  0
 13 12  1  1
 13 15  1  0
 13 14  1  0
 16 15  1  1
 16 17  1  0
 17 10  1  0
 18 16  1  0
 19 18  2  0
 20 21  1  0
 21 22  1  0
 22 24  1  0
 22 23  1  6
 24 25  1  1
 24 26  1  0
 25 18  1  0
 26 27  1  0
 28 26  2  0
M  END
$$$$
