RLI.pdb
     RDKit          3D

 28 27  0  0  1  0  0  0  0  0999 V2000
   20.0597  -21.9144  -21.3010 N   0  0  0  0  0  0  0  0  0  0  0  0
   20.0819  -20.9126  -20.3042 C   0  0  0  0  0  0  0  0  0  0  0  0
   18.9805  -20.4286  -19.7900 N   0  0  0  0  0  0  0  0  0  0  0  0
   21.2783  -20.3595  -19.7884 N   0  0  0  0  0  0  0  0  0  0  0  0
   22.5669  -20.9339  -20.0862 C   0  0  0  0  0  0  0  0  0  0  0  0
   22.7404  -22.3050  -19.5090 C   0  0  0  0  0  0  0  0  0  0  0  0
   23.0580  -22.3628  -18.0575 C   0  0  0  0  0  0  0  0  0  0  0  0
   24.5206  -22.3064  -17.7121 C   0  0  2  0  0  0  0  0  0  0  0  0
   25.1811  -23.5921  -17.7452 N   0  0  0  0  0  0  0  0  0  0  0  0
   24.6215  -21.7446  -16.3369 C   0  0  0  0  0  0  0  0  0  0  0  0
   24.5152  -22.4930  -15.3258 O   0  0  0  0  0  0  0  0  0  0  0  0
   19.0943  -19.6715  -19.0904 C   0  0  0  0  0  0  0  0  0  0  0  0
   27.9482  -19.8468  -14.6759 C   0  0  1  0  0  0  0  0  0  0  0  0
   27.1002  -18.8705  -15.4547 C   0  0  0  0  0  0  0  0  0  0  0  0
   27.8097  -17.5154  -15.4132 C   0  0  0  0  0  0  0  0  0  0  0  0
   25.8060  -18.6728  -14.7010 C   0  0  2  0  0  0  0  0  0  0  0  0
   24.9145  -19.8728  -14.7304 N   0  0  0  0  0  0  0  0  0  0  0  0
   24.8386  -20.3629  -16.0877 C   0  0  0  0  0  0  0  0  0  0  0  0
   23.5748  -19.6219  -14.1506 O   0  0  0  0  0  0  0  0  0  0  0  0
   23.4899  -19.1990  -12.9702 C   0  0  0  0  0  0  0  0  0  0  0  0
   19.8117  -17.0713  -16.9078 C   0  0  0  0  0  0  0  0  0  0  0  0
   20.6896  -17.6753  -15.8237 C   0  0  2  0  0  0  0  0  0  0  0  0
   20.1585  -19.0074  -15.3641 C   0  0  0  0  0  0  0  0  0  0  0  0
   18.7720  -18.7564  -14.7823 C   0  0  2  0  0  0  0  0  0  0  0  0
   21.0548  -19.6670  -14.3764 N   0  0  0  0  0  0  0  0  0  0  0  0
   22.4027  -19.8513  -14.9057 C   0  0  0  0  0  0  0  0  0  0  0  0
   20.5423  -20.9066  -13.7666 O   0  0  0  0  0  0  0  0  0  0  0  0
   19.7775  -21.0059  -12.6240 O   0  0  0  0  0  0  0  0  0  0  0  0
  1  2  1  0
  2  3  2  0
  4  2  1  0
  4  5  1  0
  6  5  1  0
  7  6  1  0
  8  7  1  0
  8  9  1  1
 10  8  1  0
 10 11  2  0
 13 12  1  6
 13 15  1  0
 13 14  1  0
 16 15  1  1
 16 17  1  0
 17 10  1  0
 18 16  1  0
 19 18  2  0
 20 21  1  0
 21 22  1  0
 22 24  1  0
 22 23  1  6
 24 25  1  1
 24 26  1  0
 25 18  1  0
 26 27  1  0
 28 26  2  0
M  END
$$$$
