RLI.pdb
     RDKit          3D

 28 27  0  0  1  0  0  0  0  0999 V2000
   21.6034  -21.0252  -17.2825 N   0  0  0  0  0  0  0  0  0  0  0  0
   20.9593  -21.2198  -16.0394 C   0  0  0  0  0  0  0  0  0  0  0  0
   20.0486  -22.1442  -15.8733 N   0  0  0  0  0  0  0  0  0  0  0  0
   21.2421  -20.4429  -14.8906 N   0  0  0  0  0  0  0  0  0  0  0  0
   22.1889  -19.3559  -14.9268 C   0  0  0  0  0  0  0  0  0  0  0  0
   23.5356  -19.7393  -14.3953 C   0  0  0  0  0  0  0  0  0  0  0  0
   23.5696  -20.1931  -12.9797 C   0  0  0  0  0  0  0  0  0  0  0  0
   24.9411  -20.3541  -12.3841 C   0  0  2  0  0  0  0  0  0  0  0  0
   25.8278  -21.1833  -13.1693 N   0  0  0  0  0  0  0  0  0  0  0  0
   24.7625  -20.9711  -11.0409 C   0  0  0  0  0  0  0  0  0  0  0  0
   24.5690  -22.2130  -10.9230 O   0  0  0  0  0  0  0  0  0  0  0  0
   19.6145  -22.1975  -14.9329 C   0  0  0  0  0  0  0  0  0  0  0  0
   27.3156  -21.2459   -7.5517 C   0  0  1  0  0  0  0  0  0  0  0  0
   26.6191  -19.9213   -7.7490 C   0  0  0  0  0  0  0  0  0  0  0  0
   27.1139  -18.9775   -6.6509 C   0  0  0  0  0  0  0  0  0  0  0  0
   25.1471  -20.1235   -7.4758 C   0  0  2  0  0  0  0  0  0  0  0  0
   24.4306  -20.8273   -8.5834 N   0  0  0  0  0  0  0  0  0  0  0  0
   24.7987  -20.2143   -9.8392 C   0  0  0  0  0  0  0  0  0  0  0  0
   22.9624  -20.8759   -8.3938 O   0  0  0  0  0  0  0  0  0  0  0  0
   22.2804  -19.8506   -8.6444 C   0  0  0  0  0  0  0  0  0  0  0  0
   19.7164  -23.2442  -11.1458 C   0  0  0  0  0  0  0  0  0  0  0  0
   20.2892  -22.3258  -10.0785 C   0  0  2  0  0  0  0  0  0  0  0  0
   20.1902  -22.9445   -8.7091 C   0  0  0  0  0  0  0  0  0  0  0  0
   18.7059  -23.0881   -8.3926 C   0  0  2  0  0  0  0  0  0  0  0  0
   20.8957  -22.1450   -7.6714 N   0  0  0  0  0  0  0  0  0  0  0  0
   22.3280  -22.0534   -7.9382 C   0  0  0  0  0  0  0  0  0  0  0  0
   20.6325  -22.5266   -6.2727 O   0  0  0  0  0  0  0  0  0  0  0  0
   19.6245  -22.0456   -5.4649 O   0  0  0  0  0  0  0  0  0  0  0  0
  1  2  1  0
  2  3  2  0
  4  2  1  0
  4  5  1  0
  6  5  1  0
  7  6  1  0
  8  7  1  0
  8  9  1  6
 10  8  1  0
 10 11  2  0
 13 12  1  6
 13 15  1  0
 13 14  1  0
 16 15  1  6
 16 17  1  0
 17 10  1  0
 18 16  1  0
 19 18  2  0
 20 21  1  0
 21 22  1  0
 22 24  1  0
 22 23  1  1
 24 25  1  1
 24 26  1  0
 25 18  1  0
 26 27  1  0
 28 26  2  0
M  END
$$$$
