RLI.pdb
     RDKit          3D

 28 27  0  0  1  0  0  0  0  0999 V2000
   38.6552  -27.4673    2.2226 N   0  0  0  0  0  0  0  0  0  0  0  0
   37.6132  -28.4106    2.3724 C   0  0  0  0  0  0  0  0  0  0  0  0
   37.4342  -29.3808    1.5132 N   0  0  0  0  0  0  0  0  0  0  0  0
   36.6925  -28.3835    3.4471 N   0  0  0  0  0  0  0  0  0  0  0  0
   36.8095  -27.4265    4.5193 C   0  0  0  0  0  0  0  0  0  0  0  0
   38.1589  -26.7793    4.5770 C   0  0  0  0  0  0  0  0  0  0  0  0
   38.3758  -25.8295    5.7003 C   0  0  0  0  0  0  0  0  0  0  0  0
   38.4725  -24.3796    5.3127 C   0  0  2  0  0  0  0  0  0  0  0  0
   39.6830  -23.7311    5.7649 N   0  0  0  0  0  0  0  0  0  0  0  0
   37.2986  -23.6891    5.9144 C   0  0  0  0  0  0  0  0  0  0  0  0
   37.2803  -23.4022    7.1437 O   0  0  0  0  0  0  0  0  0  0  0  0
   36.6760  -30.0539    1.7319 C   0  0  0  0  0  0  0  0  0  0  0  0
   31.8177  -21.4434    4.1890 C   0  0  1  0  0  0  0  0  0  0  0  0
   32.7664  -21.7036    5.3341 C   0  0  0  0  0  0  0  0  0  0  0  0
   33.1495  -20.3460    5.9268 C   0  0  0  0  0  0  0  0  0  0  0  0
   34.0443  -22.2700    4.7610 C   0  0  2  0  0  0  0  0  0  0  0  0
   35.0188  -22.7085    5.8066 N   0  0  0  0  0  0  0  0  0  0  0  0
   36.1549  -23.3208    5.1564 C   0  0  0  0  0  0  0  0  0  0  0  0
   34.4189  -23.5916    6.8333 O   0  0  0  0  0  0  0  0  0  0  0  0
   34.1423  -24.7796    6.5305 C   0  0  0  0  0  0  0  0  0  0  0  0
   36.7439  -24.8791   11.1788 C   0  0  0  0  0  0  0  0  0  0  0  0
   35.8090  -24.7679    9.9854 C   0  0  2  0  0  0  0  0  0  0  0  0
   34.5269  -24.0691   10.3538 C   0  0  0  0  0  0  0  0  0  0  0  0
   33.9008  -24.8619   11.4955 C   0  0  2  0  0  0  0  0  0  0  0  0
   33.5958  -23.9435    9.2002 N   0  0  0  0  0  0  0  0  0  0  0  0
   34.1575  -23.1151    8.1375 C   0  0  0  0  0  0  0  0  0  0  0  0
   32.2164  -23.5393    9.5248 O   0  0  0  0  0  0  0  0  0  0  0  0
   31.1321  -24.3744    9.6898 O   0  0  0  0  0  0  0  0  0  0  0  0
  1  2  1  0
  2  3  2  0
  4  2  1  0
  4  5  1  0
  6  5  1  0
  7  6  1  0
  8  7  1  0
  8  9  1  1
 10  8  1  0
 10 11  2  0
 13 12  1  1
 13 15  1  0
 13 14  1  0
 16 15  1  6
 16 17  1  0
 17 10  1  0
 18 16  1  0
 19 18  2  0
 20 21  1  0
 21 22  1  0
 22 24  1  0
 22 23  1  1
 24 25  1  6
 24 26  1  0
 25 18  1  0
 26 27  1  0
 28 26  2  0
M  END
$$$$
