RLI.pdb
     RDKit          3D

 28 27  0  0  1  0  0  0  0  0999 V2000
   17.5792  -23.6360  -12.7457 N   0  0  0  0  0  0  0  0  0  0  0  0
   17.5886  -22.2943  -12.3013 C   0  0  0  0  0  0  0  0  0  0  0  0
   16.7537  -21.4060  -12.7763 N   0  0  0  0  0  0  0  0  0  0  0  0
   18.4875  -21.8091  -11.3216 N   0  0  0  0  0  0  0  0  0  0  0  0
   19.8517  -21.4737  -11.6468 C   0  0  0  0  0  0  0  0  0  0  0  0
   20.5396  -22.5406  -12.4416 C   0  0  0  0  0  0  0  0  0  0  0  0
   21.8911  -22.1961  -12.9573 C   0  0  0  0  0  0  0  0  0  0  0  0
   22.8386  -21.6082  -11.9482 C   0  0  2  0  0  0  0  0  0  0  0  0
   22.2069  -20.7195  -10.9987 N   0  0  0  0  0  0  0  0  0  0  0  0
   23.8699  -20.8508  -12.7095 C   0  0  0  0  0  0  0  0  0  0  0  0
   23.7322  -19.6148  -12.9266 O   0  0  0  0  0  0  0  0  0  0  0  0
   16.9237  -20.4213  -12.4984 C   0  0  0  0  0  0  0  0  0  0  0  0
   27.9847  -19.2739  -11.9288 C   0  0  2  0  0  0  0  0  0  0  0  0
   27.7882  -20.7707  -11.9273 C   0  0  0  0  0  0  0  0  0  0  0  0
   29.1513  -21.4096  -11.6535 C   0  0  0  0  0  0  0  0  0  0  0  0
   27.4175  -21.1933  -13.3295 C   0  0  2  0  0  0  0  0  0  0  0  0
   26.1008  -20.6492  -13.7833 N   0  0  0  0  0  0  0  0  0  0  0  0
   25.0443  -21.4618  -13.2251 C   0  0  0  0  0  0  0  0  0  0  0  0
   25.9935  -20.5264  -15.2554 O   0  0  0  0  0  0  0  0  0  0  0  0
   26.8494  -19.8463  -15.8753 C   0  0  0  0  0  0  0  0  0  0  0  0
   22.0319  -19.1930  -19.4307 C   0  0  0  0  0  0  0  0  0  0  0  0
   23.2643  -20.0416  -19.1628 C   0  0  2  0  0  0  0  0  0  0  0  0
   23.5473  -20.1507  -17.6877 C   0  0  0  0  0  0  0  0  0  0  0  0
   23.7355  -18.7311  -17.1650 C   0  0  2  0  0  0  0  0  0  0  0  0
   24.7327  -21.0019  -17.3974 N   0  0  0  0  0  0  0  0  0  0  0  0
   24.9476  -21.1612  -15.9623 C   0  0  0  0  0  0  0  0  0  0  0  0
   25.9793  -20.6306  -18.0899 O   0  0  0  0  0  0  0  0  0  0  0  0
   26.4796  -21.1971  -19.2427 O   0  0  0  0  0  0  0  0  0  0  0  0
  1  2  1  0
  2  3  2  0
  4  2  1  0
  4  5  1  0
  6  5  1  0
  7  6  1  0
  8  7  1  0
  8  9  1  1
 10  8  1  0
 10 11  2  0
 13 12  1  1
 13 15  1  0
 13 14  1  0
 16 15  1  1
 16 17  1  0
 17 10  1  0
 18 16  1  0
 19 18  2  0
 20 21  1  0
 21 22  1  0
 22 24  1  0
 22 23  1  1
 24 25  1  6
 24 26  1  0
 25 18  1  0
 26 27  1  0
 28 26  2  0
M  END
$$$$
