RLI.pdb
     RDKit          3D

 28 27  0  0  1  0  0  0  0  0999 V2000
   20.6965  -24.3187  -13.6312 N   0  0  0  0  0  0  0  0  0  0  0  0
   21.2935  -25.5202  -14.0761 C   0  0  0  0  0  0  0  0  0  0  0  0
   22.2680  -25.5226  -14.9490 N   0  0  0  0  0  0  0  0  0  0  0  0
   20.8925  -26.7991  -13.6212 N   0  0  0  0  0  0  0  0  0  0  0  0
   19.8128  -26.9626  -12.6794 C   0  0  0  0  0  0  0  0  0  0  0  0
   20.2899  -27.1139  -11.2678 C   0  0  0  0  0  0  0  0  0  0  0  0
   19.2306  -27.3021  -10.2414 C   0  0  0  0  0  0  0  0  0  0  0  0
   18.6274  -28.6783  -10.1783 C   0  0  2  0  0  0  0  0  0  0  0  0
   17.7056  -28.9645  -11.2547 N   0  0  0  0  0  0  0  0  0  0  0  0
   17.9038  -28.7772   -8.8808 C   0  0  0  0  0  0  0  0  0  0  0  0
   16.8121  -28.1684   -8.7040 O   0  0  0  0  0  0  0  0  0  0  0  0
   22.6200  -26.4533  -15.2418 C   0  0  0  0  0  0  0  0  0  0  0  0
   17.6287  -32.4993   -4.0505 C   0  0  1  0  0  0  0  0  0  0  0  0
   17.1102  -31.2287   -4.6796 C   0  0  0  0  0  0  0  0  0  0  0  0
   15.6615  -31.4859   -5.0997 C   0  0  0  0  0  0  0  0  0  0  0  0
   17.8701  -31.0015   -5.9653 C   0  0  2  0  0  0  0  0  0  0  0  0
   17.6083  -29.6636   -6.5792 N   0  0  0  0  0  0  0  0  0  0  0  0
   18.3894  -29.5460   -7.7893 C   0  0  0  0  0  0  0  0  0  0  0  0
   17.8451  -28.5356   -5.6489 O   0  0  0  0  0  0  0  0  0  0  0  0
   19.0270  -28.2094   -5.3731 C   0  0  0  0  0  0  0  0  0  0  0  0
   15.6033  -23.8728   -6.3361 C   0  0  0  0  0  0  0  0  0  0  0  0
   16.5439  -24.9745   -5.8755 C   0  0  2  0  0  0  0  0  0  0  0  0
   16.1240  -25.5349   -4.5423 C   0  0  0  0  0  0  0  0  0  0  0  0
   16.2458  -24.4045   -3.5267 C   0  0  2  0  0  0  0  0  0  0  0  0
   16.9323  -26.7184   -4.1427 N   0  0  0  0  0  0  0  0  0  0  0  0
   16.7642  -27.8296   -5.0744 C   0  0  0  0  0  0  0  0  0  0  0  0
   16.7821  -27.1609   -2.7452 O   0  0  0  0  0  0  0  0  0  0  0  0
   15.9897  -28.1930   -2.2901 O   0  0  0  0  0  0  0  0  0  0  0  0
  1  2  1  0
  2  3  2  0
  4  2  1  0
  4  5  1  0
  6  5  1  0
  7  6  1  0
  8  7  1  0
  8  9  1  6
 10  8  1  0
 10 11  2  0
 13 12  1  1
 13 15  1  0
 13 14  1  0
 16 15  1  6
 16 17  1  0
 17 10  1  0
 18 16  1  0
 19 18  2  0
 20 21  1  0
 21 22  1  0
 22 24  1  0
 22 23  1  1
 24 25  1  1
 24 26  1  0
 25 18  1  0
 26 27  1  0
 28 26  2  0
M  END
$$$$
