RLI.pdb
     RDKit          3D

 28 27  0  0  1  0  0  0  0  0999 V2000
   30.5855  -23.4330  -17.3026 N   0  0  0  0  0  0  0  0  0  0  0  0
   30.3823  -22.6174  -18.4389 C   0  0  0  0  0  0  0  0  0  0  0  0
   30.2594  -23.1259  -19.6381 N   0  0  0  0  0  0  0  0  0  0  0  0
   30.2964  -21.2062  -18.3741 N   0  0  0  0  0  0  0  0  0  0  0  0
   29.4662  -20.5430  -17.3993 C   0  0  0  0  0  0  0  0  0  0  0  0
   28.0168  -20.5370  -17.7768 C   0  0  0  0  0  0  0  0  0  0  0  0
   27.0620  -20.8867  -16.6919 C   0  0  0  0  0  0  0  0  0  0  0  0
   27.4471  -22.0698  -15.8470 C   0  0  2  0  0  0  0  0  0  0  0  0
   27.6680  -23.2827  -16.6022 N   0  0  0  0  0  0  0  0  0  0  0  0
   26.3362  -22.2950  -14.8816 C   0  0  0  0  0  0  0  0  0  0  0  0
   26.3028  -23.3369  -14.1695 O   0  0  0  0  0  0  0  0  0  0  0  0
   30.1043  -22.4504  -20.4097 C   0  0  0  0  0  0  0  0  0  0  0  0
   25.7666  -19.9439  -10.1598 C   0  0  1  0  0  0  0  0  0  0  0  0
   24.8874  -20.8307  -11.0080 C   0  0  0  0  0  0  0  0  0  0  0  0
   24.9292  -22.2331  -10.3973 C   0  0  0  0  0  0  0  0  0  0  0  0
   25.5319  -20.9621  -12.3679 C   0  0  2  0  0  0  0  0  0  0  0  0
   24.5616  -21.3061  -13.4522 N   0  0  0  0  0  0  0  0  0  0  0  0
   25.2717  -21.3701  -14.7091 C   0  0  0  0  0  0  0  0  0  0  0  0
   23.4003  -20.3887  -13.5120 O   0  0  0  0  0  0  0  0  0  0  0  0
   23.5033  -19.2401  -13.0125 C   0  0  0  0  0  0  0  0  0  0  0  0
   20.9956  -20.5311  -17.9063 C   0  0  0  0  0  0  0  0  0  0  0  0
   21.3409  -19.7315  -16.6605 C   0  0  2  0  0  0  0  0  0  0  0  0
   20.3683  -20.0050  -15.5438 C   0  0  0  0  0  0  0  0  0  0  0  0
   19.2392  -18.9897  -15.6791 C   0  0  2  0  0  0  0  0  0  0  0  0
   21.0082  -19.9356  -14.2024 N   0  0  0  0  0  0  0  0  0  0  0  0
   22.1894  -20.7894  -14.1201 C   0  0  0  0  0  0  0  0  0  0  0  0
   20.1144  -20.1415  -13.0492 O   0  0  0  0  0  0  0  0  0  0  0  0
   19.7687  -21.3495  -12.4821 O   0  0  0  0  0  0  0  0  0  0  0  0
  1  2  1  0
  2  3  2  0
  4  2  1  0
  4  5  1  0
  6  5  1  0
  7  6  1  0
  8  7  1  0
  8  9  1  6
 10  8  1  0
 10 11  2  0
 13 12  1  1
 13 15  1  0
 13 14  1  0
 16 15  1  1
 16 17  1  0
 17 10  1  0
 18 16  1  0
 19 18  2  0
 20 21  1  0
 21 22  1  0
 22 24  1  0
 22 23  1  1
 24 25  1  1
 24 26  1  0
 25 18  1  0
 26 27  1  0
 28 26  2  0
M  END
$$$$
