NHR.pdb
     RDKit          3D

 30 30  0  0  1  0  0  0  0  0999 V2000
   11.8196  -16.3444   12.8201 N   0  0  0  0  0  0  0  0  0  0  0  0
   10.6631  -15.7476   13.3941 C   0  0  0  0  0  0  0  0  0  0  0  0
    9.5789  -15.7464   12.7564 O   0  0  0  0  0  0  0  0  0  0  0  0
   10.6865  -15.1144   14.7334 C   0  0  0  0  0  0  0  0  0  0  0  0
   11.4758  -16.0509   15.6509 C   0  0  2  0  0  0  0  0  0  0  0  0
   10.7838  -17.3239   15.7532 N   0  0  0  0  0  0  0  0  0  0  0  0
   11.6320  -15.4047   16.9715 C   0  0  0  0  0  0  0  0  0  0  0  0
   12.6584  -14.7094   17.1865 O   0  0  0  0  0  0  0  0  0  0  0  0
   10.6371  -15.5719   17.9656 N   0  0  0  0  0  0  0  0  0  0  0  0
   10.7066  -14.9855   19.2781 C   0  0  1  0  0  0  0  0  0  0  0  0
    9.3936  -14.9973   19.9687 C   0  0  0  0  0  0  0  0  0  0  0  0
    8.3681  -14.0824   19.4438 C   0  0  0  0  0  0  0  0  0  0  0  0
    8.3919  -13.1149   18.4761 C   0  0  0  0  0  0  0  0  0  0  0  0
    7.1560  -12.5625   18.4080 N   0  0  0  0  0  0  0  0  0  0  0  0
    6.3856  -13.1708   19.3098 C   0  0  0  0  0  0  0  0  0  0  0  0
    7.1101  -14.0849   19.9345 N   0  0  0  0  0  0  0  0  0  0  0  0
   11.6106  -15.8923   20.0902 C   0  0  0  0  0  0  0  0  0  0  0  0
   11.6959  -17.1233   19.8649 O   0  0  0  0  0  0  0  0  0  0  0  0
   17.5803  -12.8255   17.7411 N   0  0  0  0  0  0  0  0  0  0  0  0
   17.5228  -13.2389   19.0967 C   0  0  0  0  0  0  0  0  0  0  0  0
   18.4276  -12.9075   19.9601 N   0  0  0  0  0  0  0  0  0  0  0  0
   16.4380  -14.0432   19.5310 N   0  0  0  0  0  0  0  0  0  0  0  0
   16.4770  -15.5000   19.5768 C   0  0  0  0  0  0  0  0  0  0  0  0
   15.1055  -15.9770   19.9748 C   0  0  0  0  0  0  0  0  0  0  0  0
   14.7791  -15.5641   21.3692 C   0  0  0  0  0  0  0  0  0  0  0  0
   13.4356  -16.0226   21.7998 C   0  0  2  0  0  0  0  0  0  0  0  0
   12.3650  -15.2924   21.1236 N   0  0  0  0  0  0  0  0  0  0  0  0
   13.1698  -16.0256   23.2393 C   0  0  0  0  0  0  0  0  0  0  0  0
   12.1053  -15.3672   23.8321 O   0  0  0  0  0  0  0  0  0  0  0  0
   13.9259  -16.6515   24.0526 O   0  0  0  0  0  0  0  0  0  0  0  0
  1  2  1  0
  2  3  2  0
  4  2  1  0
  5  6  1  1
  5  4  1  0
  7  5  1  0
  8  7  2  0
  9  7  1  0
 10  9  1  0
 11 12  1  0
 10 11  1  1
 12 13  2  0
 14 13  1  0
 15 14  1  0
 16 15  2  0
 16 12  1  0
 17 10  1  0
 17 18  2  0
 19 20  1  0
 20 21  2  0
 22 23  1  0
 22 20  1  0
 23 24  1  0
 26 25  1  1
 25 24  1  0
 26 27  1  0
 27 17  1  0
 28 26  1  0
 29 28  1  0
 30 28  2  0
M  END
$$$$
