NHR.pdb
     RDKit          3D

 30 30  0  0  1  0  0  0  0  0999 V2000
   10.6227  -18.3128   13.9632 N   0  0  0  0  0  0  0  0  0  0  0  0
   11.7127  -18.3019   13.0496 C   0  0  0  0  0  0  0  0  0  0  0  0
   11.4907  -18.2504   11.8126 O   0  0  0  0  0  0  0  0  0  0  0  0
   13.1218  -18.3530   13.5048 C   0  0  0  0  0  0  0  0  0  0  0  0
   13.0888  -18.5151   15.0261 C   0  0  2  0  0  0  0  0  0  0  0  0
   13.0467  -17.2045   15.6511 N   0  0  0  0  0  0  0  0  0  0  0  0
   14.2774  -19.2858   15.4495 C   0  0  0  0  0  0  0  0  0  0  0  0
   14.1885  -20.5384   15.5295 O   0  0  0  0  0  0  0  0  0  0  0  0
   15.4868  -18.6147   15.7543 N   0  0  0  0  0  0  0  0  0  0  0  0
   16.6805  -19.2775   16.2093 C   0  0  1  0  0  0  0  0  0  0  0  0
   17.9084  -18.6922   15.6170 C   0  0  0  0  0  0  0  0  0  0  0  0
   18.1558  -18.9855   14.1968 C   0  0  0  0  0  0  0  0  0  0  0  0
   17.9566  -18.2659   13.0498 C   0  0  0  0  0  0  0  0  0  0  0  0
   18.3533  -19.0306   12.0034 N   0  0  0  0  0  0  0  0  0  0  0  0
   18.7870  -20.1941   12.4880 C   0  0  0  0  0  0  0  0  0  0  0  0
   18.6700  -20.1712   13.8058 N   0  0  0  0  0  0  0  0  0  0  0  0
   16.7661  -19.0023   17.6980 C   0  0  0  0  0  0  0  0  0  0  0  0
   16.0428  -18.1452   18.2598 O   0  0  0  0  0  0  0  0  0  0  0  0
   13.9762  -23.9474   22.5426 N   0  0  0  0  0  0  0  0  0  0  0  0
   14.4744  -24.0244   21.2168 C   0  0  0  0  0  0  0  0  0  0  0  0
   13.7829  -24.5277   20.2460 N   0  0  0  0  0  0  0  0  0  0  0  0
   15.7751  -23.5333   20.9351 N   0  0  0  0  0  0  0  0  0  0  0  0
   16.2549  -22.2225   21.3562 C   0  0  0  0  0  0  0  0  0  0  0  0
   15.9576  -21.2529   20.2432 C   0  0  0  0  0  0  0  0  0  0  0  0
   16.4929  -19.8978   20.5568 C   0  0  0  0  0  0  0  0  0  0  0  0
   17.7928  -19.6309   19.8936 C   0  0  2  0  0  0  0  0  0  0  0  0
   17.7022  -19.7572   18.4402 N   0  0  0  0  0  0  0  0  0  0  0  0
   18.9440  -20.4029   20.3644 C   0  0  0  0  0  0  0  0  0  0  0  0
   19.4178  -20.3721   21.6654 O   0  0  0  0  0  0  0  0  0  0  0  0
   19.5953  -21.1683   19.5805 O   0  0  0  0  0  0  0  0  0  0  0  0
  1  2  1  0
  2  3  2  0
  4  2  1  0
  5  6  1  1
  5  4  1  0
  7  5  1  0
  8  7  2  0
  9  7  1  0
 10  9  1  0
 11 12  1  0
 10 11  1  6
 12 13  2  0
 14 13  1  0
 15 14  1  0
 16 15  2  0
 16 12  1  0
 17 10  1  0
 17 18  2  0
 19 20  1  0
 20 21  2  0
 22 23  1  0
 22 20  1  0
 23 24  1  0
 26 25  1  1
 25 24  1  0
 26 27  1  0
 27 17  1  0
 28 26  1  0
 29 28  1  0
 30 28  2  0
M  END
$$$$
