NHR.pdb
     RDKit          3D

 30 30  0  0  1  0  0  0  0  0999 V2000
    8.4913  -12.0440   16.4528 N   0  0  0  0  0  0  0  0  0  0  0  0
    8.4467  -13.4341   16.7502 C   0  0  0  0  0  0  0  0  0  0  0  0
    8.9682  -14.2597   15.9574 O   0  0  0  0  0  0  0  0  0  0  0  0
    7.7970  -13.9565   17.9750 C   0  0  0  0  0  0  0  0  0  0  0  0
    8.8709  -13.9899   19.0647 C   0  0  2  0  0  0  0  0  0  0  0  0
   10.0234  -14.7326   18.5849 N   0  0  0  0  0  0  0  0  0  0  0  0
    8.2955  -14.5987   20.2830 C   0  0  0  0  0  0  0  0  0  0  0  0
    7.2662  -14.0811   20.7888 O   0  0  0  0  0  0  0  0  0  0  0  0
    8.9001  -15.7432   20.8580 N   0  0  0  0  0  0  0  0  0  0  0  0
    8.4235  -16.3886   22.0528 C   0  0  1  0  0  0  0  0  0  0  0  0
    8.0773  -17.8126   21.8219 C   0  0  0  0  0  0  0  0  0  0  0  0
    6.7678  -18.0780   21.2063 C   0  0  0  0  0  0  0  0  0  0  0  0
    5.7108  -17.2707   20.8836 C   0  0  0  0  0  0  0  0  0  0  0  0
    4.7413  -18.0488   20.3432 N   0  0  0  0  0  0  0  0  0  0  0  0
    5.1848  -19.3058   20.3312 C   0  0  0  0  0  0  0  0  0  0  0  0
    6.4023  -19.3278   20.8490 N   0  0  0  0  0  0  0  0  0  0  0  0
    9.5951  -16.3972   23.0152 C   0  0  0  0  0  0  0  0  0  0  0  0
   10.7835  -16.4545   22.6179 O   0  0  0  0  0  0  0  0  0  0  0  0
   10.7918  -18.7034   29.8957 N   0  0  0  0  0  0  0  0  0  0  0  0
   11.4801  -17.6607   30.5671 C   0  0  0  0  0  0  0  0  0  0  0  0
   12.3196  -17.8902   31.5245 N   0  0  0  0  0  0  0  0  0  0  0  0
   11.2477  -16.3156   30.1812 N   0  0  0  0  0  0  0  0  0  0  0  0
   10.2692  -15.9187   29.1759 C   0  0  0  0  0  0  0  0  0  0  0  0
   10.7863  -16.3735   27.8369 C   0  0  0  0  0  0  0  0  0  0  0  0
    9.8654  -15.9616   26.7397 C   0  0  0  0  0  0  0  0  0  0  0  0
   10.3567  -16.3686   25.4004 C   0  0  2  0  0  0  0  0  0  0  0  0
    9.2962  -16.3364   24.3950 N   0  0  0  0  0  0  0  0  0  0  0  0
   11.0500  -17.6550   25.3153 C   0  0  0  0  0  0  0  0  0  0  0  0
   10.4499  -18.8328   24.9019 O   0  0  0  0  0  0  0  0  0  0  0  0
   12.2808  -17.7677   25.6271 O   0  0  0  0  0  0  0  0  0  0  0  0
  1  2  1  0
  2  3  2  0
  4  2  1  0
  5  6  1  6
  5  4  1  0
  7  5  1  0
  8  7  2  0
  9  7  1  0
 10  9  1  0
 11 12  1  0
 10 11  1  6
 12 13  2  0
 14 13  1  0
 15 14  1  0
 16 15  2  0
 16 12  1  0
 17 10  1  0
 17 18  2  0
 19 20  1  0
 20 21  2  0
 22 23  1  0
 22 20  1  0
 23 24  1  0
 26 25  1  1
 25 24  1  0
 26 27  1  0
 27 17  1  0
 28 26  1  0
 29 28  1  0
 30 28  2  0
M  END
$$$$
