PYQ.pdb
     RDKit          3D

 29 30  0  0  1  0  0  0  0  0999 V2000
    8.3793  -18.7239   19.7654 N   0  0  0  0  0  0  0  0  0  0  0  0
    8.1843  -19.2704   18.4128 C   0  0  0  0  0  0  0  0  0  0  0  0
    8.6961  -18.2074   17.4756 C   0  0  0  0  0  0  0  0  0  0  0  0
    9.5138  -17.3007   18.3692 C   0  0  0  0  0  0  0  0  0  0  0  0
    9.6351  -18.0642   19.6631 C   0  0  1  0  0  0  0  0  0  0  0  0
    9.8913  -17.1036   20.7731 C   0  0  0  0  0  0  0  0  0  0  0  0
   11.0334  -16.6031   20.9174 O   0  0  0  0  0  0  0  0  0  0  0  0
    7.4132  -12.0239   17.7933 O   0  0  0  0  0  0  0  0  0  0  0  0
    7.6479  -12.6408   19.0325 C   0  0  0  0  0  0  0  0  0  0  0  0
    6.8035  -13.6186   19.4580 C   0  0  0  0  0  0  0  0  0  0  0  0
    7.0127  -14.2532   20.6917 C   0  0  0  0  0  0  0  0  0  0  0  0
    8.0721  -13.9020   21.4952 C   0  0  0  0  0  0  0  0  0  0  0  0
    8.2518  -14.5817   22.7606 C   0  0  0  0  0  0  0  0  0  0  0  0
    9.1546  -15.7750   22.7458 C   0  0  2  0  0  0  0  0  0  0  0  0
    8.8879  -16.7101   21.7048 N   0  0  0  0  0  0  0  0  0  0  0  0
    9.1847  -16.3937   24.0946 C   0  0  0  0  0  0  0  0  0  0  0  0
    8.1113  -16.9875   24.4513 O   0  0  0  0  0  0  0  0  0  0  0  0
    8.9167  -12.9119   21.0513 C   0  0  0  0  0  0  0  0  0  0  0  0
    8.7085  -12.2775   19.8191 C   0  0  0  0  0  0  0  0  0  0  0  0
    9.4876  -20.8753   23.3493 N   0  0  0  0  0  0  0  0  0  0  0  0
   10.5194  -21.1216   24.2813 C   0  0  0  0  0  0  0  0  0  0  0  0
   10.8072  -22.3085   24.5656 O   0  0  0  0  0  0  0  0  0  0  0  0
   11.2462  -20.0143   24.9003 C   0  0  0  0  0  0  0  0  0  0  0  0
   10.8631  -18.6437   24.5306 C   0  0  0  0  0  0  0  0  0  0  0  0
   10.7058  -17.6129   25.5983 C   0  0  2  0  0  0  0  0  0  0  0  0
   10.2872  -16.3592   24.9591 N   0  0  0  0  0  0  0  0  0  0  0  0
   11.8924  -17.4000   26.4128 C   0  0  0  0  0  0  0  0  0  0  0  0
   12.8171  -16.5701   26.0874 O   0  0  0  0  0  0  0  0  0  0  0  0
   12.1586  -18.0545   27.6306 O   0  0  0  0  0  0  0  0  0  0  0  0
  1  2  1  0
  3  2  1  0
  4  5  1  0
  4  3  1  0
  5  6  1  1
  5  1  1  0
  6  7  2  0
  9  8  1  0
  9 19  2  0
 10  9  1  0
 11 10  2  0
 11 12  1  0
 12 18  2  0
 13 12  1  0
 14 13  1  1
 15 14  1  0
 15  6  1  0
 16 17  2  0
 16 14  1  0
 18 19  1  0
 20 21  1  0
 21 22  2  0
 23 21  1  0
 23 24  1  0
 25 24  1  6
 25 26  1  0
 25 27  1  0
 26 16  1  0
 27 29  1  0
 28 27  2  0
M  END
$$$$
