PYQ.pdb
     RDKit          3D

 29 30  0  0  1  0  0  0  0  0999 V2000
    7.4907  -15.2376   18.5056 N   0  0  0  0  0  0  0  0  0  0  0  0
    7.3117  -14.8704   17.0916 C   0  0  0  0  0  0  0  0  0  0  0  0
    7.7104  -13.4202   17.0027 C   0  0  0  0  0  0  0  0  0  0  0  0
    8.4689  -13.1742   18.2886 C   0  0  0  0  0  0  0  0  0  0  0  0
    8.6837  -14.5510   18.8633 C   0  0  1  0  0  0  0  0  0  0  0  0
    8.8832  -14.4383   20.3356 C   0  0  0  0  0  0  0  0  0  0  0  0
   10.0331  -14.2410   20.7989 O   0  0  0  0  0  0  0  0  0  0  0  0
    7.4858  -12.8892   28.9330 O   0  0  0  0  0  0  0  0  0  0  0  0
    7.3373  -13.0736   27.5491 C   0  0  0  0  0  0  0  0  0  0  0  0
    6.8305  -14.2480   27.0863 C   0  0  0  0  0  0  0  0  0  0  0  0
    6.6706  -14.4611   25.7088 C   0  0  0  0  0  0  0  0  0  0  0  0
    7.0213  -13.4910   24.7993 C   0  0  0  0  0  0  0  0  0  0  0  0
    6.8400  -13.7515   23.3869 C   0  0  0  0  0  0  0  0  0  0  0  0
    8.0161  -14.3330   22.6673 C   0  0  2  0  0  0  0  0  0  0  0  0
    7.8155  -14.5445   21.2729 N   0  0  0  0  0  0  0  0  0  0  0  0
    8.4871  -15.5460   23.3814 C   0  0  0  0  0  0  0  0  0  0  0  0
    7.8258  -16.6137   23.1470 O   0  0  0  0  0  0  0  0  0  0  0  0
    7.5321  -12.3094   25.2826 C   0  0  0  0  0  0  0  0  0  0  0  0
    7.6922  -12.0958   26.6584 C   0  0  0  0  0  0  0  0  0  0  0  0
   13.8913  -17.7278   22.8595 N   0  0  0  0  0  0  0  0  0  0  0  0
   13.3664  -18.6474   23.7936 C   0  0  0  0  0  0  0  0  0  0  0  0
   14.0287  -19.6763   24.0674 O   0  0  0  0  0  0  0  0  0  0  0  0
   12.0767  -18.4034   24.4375 C   0  0  0  0  0  0  0  0  0  0  0  0
   11.3546  -17.1697   24.0929 C   0  0  0  0  0  0  0  0  0  0  0  0
   10.0431  -16.8813   24.7441 C   0  0  2  0  0  0  0  0  0  0  0  0
    9.5762  -15.5752   24.2630 N   0  0  0  0  0  0  0  0  0  0  0  0
   10.0706  -16.9103   26.1984 C   0  0  0  0  0  0  0  0  0  0  0  0
   10.3004  -15.8650   26.9086 O   0  0  0  0  0  0  0  0  0  0  0  0
    9.8447  -18.0571   26.9833 O   0  0  0  0  0  0  0  0  0  0  0  0
  1  2  1  0
  3  2  1  0
  4  5  1  0
  4  3  1  0
  5  6  1  1
  5  1  1  0
  6  7  2  0
  9  8  1  0
  9 19  2  0
 10  9  1  0
 11 10  2  0
 11 12  1  0
 12 18  2  0
 13 12  1  0
 14 13  1  1
 15 14  1  0
 15  6  1  0
 16 17  2  0
 16 14  1  0
 18 19  1  0
 20 21  1  0
 21 22  2  0
 23 21  1  0
 23 24  1  0
 25 24  1  6
 25 26  1  0
 25 27  1  0
 26 16  1  0
 27 29  1  0
 28 27  2  0
M  END
$$$$
