PYQ.pdb
     RDKit          3D

 29 30  0  0  1  0  0  0  0  0999 V2000
    7.6683  -15.5242   18.6330 N   0  0  0  0  0  0  0  0  0  0  0  0
    7.4661  -15.2153   17.2082 C   0  0  0  0  0  0  0  0  0  0  0  0
    7.7225  -13.7361   17.0807 C   0  0  0  0  0  0  0  0  0  0  0  0
    8.4428  -13.3820   18.3633 C   0  0  0  0  0  0  0  0  0  0  0  0
    8.7858  -14.7150   18.9777 C   0  0  1  0  0  0  0  0  0  0  0  0
    8.9613  -14.5429   20.4474 C   0  0  0  0  0  0  0  0  0  0  0  0
   10.1097  -14.3761   20.9261 O   0  0  0  0  0  0  0  0  0  0  0  0
    7.4465  -12.6641   28.9704 O   0  0  0  0  0  0  0  0  0  0  0  0
    7.3386  -12.8698   27.5858 C   0  0  0  0  0  0  0  0  0  0  0  0
    6.5358  -13.8656   27.1229 C   0  0  0  0  0  0  0  0  0  0  0  0
    6.4081  -14.0950   25.7447 C   0  0  0  0  0  0  0  0  0  0  0  0
    7.0891  -13.3211   24.8345 C   0  0  0  0  0  0  0  0  0  0  0  0
    6.9292  -13.5912   23.4214 C   0  0  0  0  0  0  0  0  0  0  0  0
    8.0578  -14.3146   22.7564 C   0  0  2  0  0  0  0  0  0  0  0  0
    7.8716  -14.5573   21.3651 N   0  0  0  0  0  0  0  0  0  0  0  0
    8.3856  -15.5410   23.5256 C   0  0  0  0  0  0  0  0  0  0  0  0
    7.5738  -16.5162   23.3777 O   0  0  0  0  0  0  0  0  0  0  0  0
    7.8966  -12.3186   25.3179 C   0  0  0  0  0  0  0  0  0  0  0  0
    8.0248  -12.0888   26.6944 C   0  0  0  0  0  0  0  0  0  0  0  0
   13.6372  -18.2604   23.1926 N   0  0  0  0  0  0  0  0  0  0  0  0
   13.0196  -19.0738   24.1677 C   0  0  0  0  0  0  0  0  0  0  0  0
   13.5961  -20.1263   24.5311 O   0  0  0  0  0  0  0  0  0  0  0  0
   11.7335  -18.6943   24.7505 C   0  0  0  0  0  0  0  0  0  0  0  0
   11.1185  -17.4345   24.3070 C   0  0  0  0  0  0  0  0  0  0  0  0
    9.8126  -17.0103   24.8916 C   0  0  2  0  0  0  0  0  0  0  0  0
    9.4957  -15.6748   24.3705 N   0  0  0  0  0  0  0  0  0  0  0  0
    9.7711  -17.0145   26.3459 C   0  0  0  0  0  0  0  0  0  0  0  0
    9.8459  -15.9395   27.0449 O   0  0  0  0  0  0  0  0  0  0  0  0
    9.6374  -18.1680   27.1422 O   0  0  0  0  0  0  0  0  0  0  0  0
  1  2  1  0
  3  2  1  0
  4  5  1  0
  4  3  1  0
  5  6  1  1
  5  1  1  0
  6  7  2  0
  9  8  1  0
  9 19  2  0
 10  9  1  0
 11 10  2  0
 11 12  1  0
 12 18  2  0
 13 12  1  0
 14 13  1  1
 15 14  1  0
 15  6  1  0
 16 17  2  0
 16 14  1  0
 18 19  1  0
 20 21  1  0
 21 22  2  0
 23 21  1  0
 23 24  1  0
 25 24  1  1
 25 26  1  0
 25 27  1  0
 26 16  1  0
 27 29  1  0
 28 27  2  0
M  END
$$$$
