PYQ.pdb
     RDKit          3D

 29 30  0  0  1  0  0  0  0  0999 V2000
    6.9313  -14.7095   20.1241 N   0  0  0  0  0  0  0  0  0  0  0  0
    6.3659  -14.1114   18.9040 C   0  0  0  0  0  0  0  0  0  0  0  0
    6.8856  -12.6974   18.8753 C   0  0  0  0  0  0  0  0  0  0  0  0
    8.0300  -12.7127   19.8649 C   0  0  0  0  0  0  0  0  0  0  0  0
    8.2487  -14.1749   20.1586 C   0  0  1  0  0  0  0  0  0  0  0  0
    8.9083  -14.3112   21.4878 C   0  0  0  0  0  0  0  0  0  0  0  0
   10.1471  -14.1375   21.5933 O   0  0  0  0  0  0  0  0  0  0  0  0
   10.1272  -14.6759   30.2770 O   0  0  0  0  0  0  0  0  0  0  0  0
    9.5838  -14.5563   28.9880 C   0  0  0  0  0  0  0  0  0  0  0  0
    8.9311  -15.6171   28.4414 C   0  0  0  0  0  0  0  0  0  0  0  0
    8.3777  -15.5272   27.1552 C   0  0  0  0  0  0  0  0  0  0  0  0
    8.4826  -14.3689   26.4213 C   0  0  0  0  0  0  0  0  0  0  0  0
    7.8975  -14.3183   25.0983 C   0  0  0  0  0  0  0  0  0  0  0  0
    8.8196  -14.6145   23.9575 C   0  0  2  0  0  0  0  0  0  0  0  0
    8.1949  -14.6360   22.6775 N   0  0  0  0  0  0  0  0  0  0  0  0
    9.5954  -15.8454   24.2508 C   0  0  0  0  0  0  0  0  0  0  0  0
   10.3871  -15.7713   25.2507 O   0  0  0  0  0  0  0  0  0  0  0  0
    9.1454  -13.3055   26.9875 C   0  0  0  0  0  0  0  0  0  0  0  0
    9.6984  -13.3944   28.2721 C   0  0  0  0  0  0  0  0  0  0  0  0
    7.5332  -21.4710   24.6582 N   0  0  0  0  0  0  0  0  0  0  0  0
    7.1029  -20.1453   24.8841 C   0  0  0  0  0  0  0  0  0  0  0  0
    5.9152  -19.9459   25.2334 O   0  0  0  0  0  0  0  0  0  0  0  0
    8.0256  -19.0229   24.7211 C   0  0  0  0  0  0  0  0  0  0  0  0
    9.3878  -19.3111   24.2484 C   0  0  0  0  0  0  0  0  0  0  0  0
   10.3143  -18.1805   23.9478 C   0  0  2  0  0  0  0  0  0  0  0  0
    9.5049  -17.0347   23.5149 N   0  0  0  0  0  0  0  0  0  0  0  0
   11.3391  -18.4845   22.9608 C   0  0  0  0  0  0  0  0  0  0  0  0
   12.2255  -19.3967   23.1398 O   0  0  0  0  0  0  0  0  0  0  0  0
   11.4733  -17.8381   21.7172 O   0  0  0  0  0  0  0  0  0  0  0  0
  1  2  1  0
  3  2  1  0
  4  5  1  0
  4  3  1  0
  5  6  1  1
  5  1  1  0
  6  7  2  0
  9  8  1  0
  9 19  2  0
 10  9  1  0
 11 10  2  0
 11 12  1  0
 12 18  2  0
 13 12  1  0
 14 13  1  1
 15 14  1  0
 15  6  1  0
 16 17  2  0
 16 14  1  0
 18 19  1  0
 20 21  1  0
 21 22  2  0
 23 21  1  0
 23 24  1  0
 25 24  1  6
 25 26  1  0
 25 27  1  0
 26 16  1  0
 27 29  1  0
 28 27  2  0
M  END
$$$$
