PYQ.pdb
     RDKit          3D

 29 30  0  0  1  0  0  0  0  0999 V2000
    6.9780  -14.9481   20.3518 N   0  0  0  0  0  0  0  0  0  0  0  0
    6.3452  -14.3118   19.1852 C   0  0  0  0  0  0  0  0  0  0  0  0
    6.7452  -12.8609   19.2566 C   0  0  0  0  0  0  0  0  0  0  0  0
    7.9028  -12.8525   20.2308 C   0  0  0  0  0  0  0  0  0  0  0  0
    8.2468  -14.3086   20.4128 C   0  0  1  0  0  0  0  0  0  0  0  0
    8.9369  -14.4861   21.7215 C   0  0  0  0  0  0  0  0  0  0  0  0
   10.1589  -14.2189   21.8268 O   0  0  0  0  0  0  0  0  0  0  0  0
   10.6693  -14.8876   30.3549 O   0  0  0  0  0  0  0  0  0  0  0  0
   10.0361  -14.8032   29.1047 C   0  0  0  0  0  0  0  0  0  0  0  0
    9.5162  -15.9293   28.5463 C   0  0  0  0  0  0  0  0  0  0  0  0
    8.8777  -15.8759   27.2981 C   0  0  0  0  0  0  0  0  0  0  0  0
    8.7637  -14.6883   26.6141 C   0  0  0  0  0  0  0  0  0  0  0  0
    8.0974  -14.6771   25.3290 C   0  0  0  0  0  0  0  0  0  0  0  0
    8.9375  -15.0473   24.1473 C   0  0  2  0  0  0  0  0  0  0  0  0
    8.2719  -14.9540   22.8913 N   0  0  0  0  0  0  0  0  0  0  0  0
    9.5673  -16.3712   24.3790 C   0  0  0  0  0  0  0  0  0  0  0  0
    8.7610  -17.3601   24.4427 O   0  0  0  0  0  0  0  0  0  0  0  0
    9.2942  -13.5588   27.1916 C   0  0  0  0  0  0  0  0  0  0  0  0
    9.9321  -13.6113   28.4384 C   0  0  0  0  0  0  0  0  0  0  0  0
   13.2256  -19.7696   21.6945 N   0  0  0  0  0  0  0  0  0  0  0  0
   13.1407  -18.3729   21.5053 C   0  0  0  0  0  0  0  0  0  0  0  0
   13.2926  -17.9084   20.3506 O   0  0  0  0  0  0  0  0  0  0  0  0
   12.8732  -17.4818   22.6331 C   0  0  0  0  0  0  0  0  0  0  0  0
   12.7258  -18.0811   23.9677 C   0  0  0  0  0  0  0  0  0  0  0  0
   11.4241  -17.9581   24.6872 C   0  0  2  0  0  0  0  0  0  0  0  0
   10.9455  -16.5798   24.5249 N   0  0  0  0  0  0  0  0  0  0  0  0
   11.4753  -18.3188   26.0958 C   0  0  0  0  0  0  0  0  0  0  0  0
   12.0632  -17.5921   26.9768 O   0  0  0  0  0  0  0  0  0  0  0  0
   10.8927  -19.4742   26.6507 O   0  0  0  0  0  0  0  0  0  0  0  0
  1  2  1  0
  3  2  1  0
  4  5  1  0
  4  3  1  0
  5  6  1  1
  5  1  1  0
  6  7  2  0
  9  8  1  0
  9 19  2  0
 10  9  1  0
 11 10  2  0
 11 12  1  0
 12 18  2  0
 13 12  1  0
 14 13  1  1
 15 14  1  0
 15  6  1  0
 16 17  2  0
 16 14  1  0
 18 19  1  0
 20 21  1  0
 21 22  2  0
 23 21  1  0
 23 24  1  0
 25 24  1  1
 25 26  1  0
 25 27  1  0
 26 16  1  0
 27 29  1  0
 28 27  2  0
M  END
$$$$
