QEQ.pdb
     RDKit          3D

 28 27  0  0  1  0  0  0  0  0999 V2000
   16.9309  -11.7277  -19.1473 N   0  0  0  0  0  0  0  0  0  0  0  0
   16.2227  -12.7219  -18.3966 C   0  0  0  0  0  0  0  0  0  0  0  0
   15.7180  -13.7039  -18.9898 O   0  0  0  0  0  0  0  0  0  0  0  0
   16.0787  -12.6031  -16.9229 C   0  0  0  0  0  0  0  0  0  0  0  0
   16.7610  -11.3428  -16.4734 C   0  0  0  0  0  0  0  0  0  0  0  0
   18.1275  -11.6498  -15.9334 C   0  0  2  0  0  0  0  0  0  0  0  0
   18.1283  -12.6211  -14.8931 N   0  0  0  0  0  0  0  0  0  0  0  0
   18.8197  -10.3925  -15.4614 C   0  0  0  0  0  0  0  0  0  0  0  0
   18.3976   -9.8036  -14.4481 O   0  0  0  0  0  0  0  0  0  0  0  0
   19.9379   -9.8695  -16.1460 N   0  0  0  0  0  0  0  0  0  0  0  0
   20.6471   -8.6655  -15.9445 C   0  0  1  0  0  0  0  0  0  0  0  0
   22.0971   -8.6288  -16.3669 C   0  0  0  0  0  0  0  0  0  0  0  0
   22.8327   -7.3798  -16.0521 C   0  0  0  0  0  0  0  0  0  0  0  0
   24.2696   -7.4413  -16.4644 C   0  0  0  0  0  0  0  0  0  0  0  0
   25.0891   -8.0149  -15.7194 O   0  0  0  0  0  0  0  0  0  0  0  0
   19.9995   -7.4226  -16.3715 C   0  0  0  0  0  0  0  0  0  0  0  0
   19.6718   -7.3033  -17.5697 O   0  0  0  0  0  0  0  0  0  0  0  0
   24.7320   -6.8883  -17.6402 O   0  0  0  0  0  0  0  0  0  0  0  0
   15.1586   -4.7067  -14.2653 N   0  0  0  0  0  0  0  0  0  0  0  0
   15.6706   -3.5977  -14.9943 C   0  0  0  0  0  0  0  0  0  0  0  0
   15.0201   -2.5436  -15.1341 O   0  0  0  0  0  0  0  0  0  0  0  0
   17.0156   -3.7211  -15.5976 C   0  0  0  0  0  0  0  0  0  0  0  0
   17.6904   -5.0225  -15.3283 C   0  0  0  0  0  0  0  0  0  0  0  0
   19.0593   -5.1082  -15.9038 C   0  0  2  0  0  0  0  0  0  0  0  0
   19.7282   -6.3475  -15.4800 N   0  0  0  0  0  0  0  0  0  0  0  0
   19.8953   -3.9374  -15.5881 C   0  0  0  0  0  0  0  0  0  0  0  0
   19.6403   -2.8240  -16.0754 O   0  0  0  0  0  0  0  0  0  0  0  0
   20.9835   -4.0598  -14.7400 O   0  0  0  0  0  0  0  0  0  0  0  0
  2  3  2  0
  2  1  1  0
  4  2  1  0
  5  4  1  0
  6  5  1  0
  6  7  1  1
  8  9  2  0
  8  6  1  0
 10  8  1  0
 11 10  1  0
 12 13  1  0
 11 12  1  6
 13 14  1  0
 14 15  2  0
 14 18  1  0
 16 11  1  0
 16 17  2  0
 20 19  1  0
 21 20  2  0
 22 20  1  0
 23 22  1  0
 24 25  1  0
 24 23  1  1
 25 16  1  0
 26 24  1  0
 27 26  2  0
 28 26  1  0
M  END
$$$$
