QEQ.pdb
     RDKit          3D

 28 27  0  0  1  0  0  0  0  0999 V2000
   23.5400  -30.5530   -9.7184 N   0  0  0  0  0  0  0  0  0  0  0  0
   22.5566  -30.9038  -10.6999 C   0  0  0  0  0  0  0  0  0  0  0  0
   22.8047  -30.7289  -11.9160 O   0  0  0  0  0  0  0  0  0  0  0  0
   21.2457  -31.4722  -10.2941 C   0  0  0  0  0  0  0  0  0  0  0  0
   20.1664  -30.4873  -10.6419 C   0  0  0  0  0  0  0  0  0  0  0  0
   19.7749  -29.6890   -9.4324 C   0  0  2  0  0  0  0  0  0  0  0  0
   19.0414  -30.4337   -8.4665 N   0  0  0  0  0  0  0  0  0  0  0  0
   18.9983  -28.4539   -9.8253 C   0  0  0  0  0  0  0  0  0  0  0  0
   18.3368  -28.4555  -10.8809 O   0  0  0  0  0  0  0  0  0  0  0  0
   19.0063  -27.2952   -9.0193 N   0  0  0  0  0  0  0  0  0  0  0  0
   18.3905  -26.0410   -9.2224 C   0  0  1  0  0  0  0  0  0  0  0  0
   17.9908  -25.2516   -7.9980 C   0  0  0  0  0  0  0  0  0  0  0  0
   17.0534  -25.9275   -7.0682 C   0  0  0  0  0  0  0  0  0  0  0  0
   16.8505  -25.1598   -5.8002 C   0  0  0  0  0  0  0  0  0  0  0  0
   17.7975  -25.0607   -4.9945 O   0  0  0  0  0  0  0  0  0  0  0  0
   19.0153  -25.1320  -10.1868 C   0  0  0  0  0  0  0  0  0  0  0  0
   20.2425  -24.9233  -10.0993 O   0  0  0  0  0  0  0  0  0  0  0  0
   15.6546  -24.5522   -5.4799 O   0  0  0  0  0  0  0  0  0  0  0  0
   19.9063  -25.5046  -15.8367 N   0  0  0  0  0  0  0  0  0  0  0  0
   20.2551  -24.1305  -15.7193 C   0  0  0  0  0  0  0  0  0  0  0  0
   20.8362  -23.5171  -16.6356 O   0  0  0  0  0  0  0  0  0  0  0  0
   19.9107  -23.4288  -14.4634 C   0  0  0  0  0  0  0  0  0  0  0  0
   19.1846  -24.2709  -13.4707 C   0  0  0  0  0  0  0  0  0  0  0  0
   18.9117  -23.5690  -12.1881 C   0  0  2  0  0  0  0  0  0  0  0  0
   18.2841  -24.4783  -11.2174 N   0  0  0  0  0  0  0  0  0  0  0  0
   18.0985  -22.3522  -12.3548 C   0  0  0  0  0  0  0  0  0  0  0  0
   16.9032  -22.3352  -12.0185 O   0  0  0  0  0  0  0  0  0  0  0  0
   18.6557  -21.2035  -12.8919 O   0  0  0  0  0  0  0  0  0  0  0  0
  2  3  2  0
  2  1  1  0
  4  2  1  0
  5  4  1  0
  6  5  1  0
  6  7  1  1
  8  9  2  0
  8  6  1  0
 10  8  1  0
 11 10  1  0
 12 13  1  0
 11 12  1  1
 13 14  1  0
 14 15  2  0
 14 18  1  0
 16 11  1  0
 16 17  2  0
 20 19  1  0
 21 20  2  0
 22 20  1  0
 23 22  1  0
 24 25  1  0
 24 23  1  6
 25 16  1  0
 26 24  1  0
 27 26  2  0
 28 26  1  0
M  END
$$$$
