QEQ.pdb
     RDKit          3D

 28 27  0  0  1  0  0  0  0  0999 V2000
   27.4049  -15.2524  -15.3745 N   0  0  0  0  0  0  0  0  0  0  0  0
   27.3310  -15.4705  -16.7888 C   0  0  0  0  0  0  0  0  0  0  0  0
   27.8655  -14.6501  -17.5713 O   0  0  0  0  0  0  0  0  0  0  0  0
   26.6281  -16.6574  -17.3400 C   0  0  0  0  0  0  0  0  0  0  0  0
   26.1402  -17.5007  -16.1969 C   0  0  0  0  0  0  0  0  0  0  0  0
   27.1998  -18.4770  -15.7755 C   0  0  2  0  0  0  0  0  0  0  0  0
   27.9962  -18.9592  -16.8520 N   0  0  0  0  0  0  0  0  0  0  0  0
   26.5975  -19.6400  -15.0222 C   0  0  0  0  0  0  0  0  0  0  0  0
   26.0865  -20.5827  -15.6562 O   0  0  0  0  0  0  0  0  0  0  0  0
   26.6019  -19.6814  -13.6113 N   0  0  0  0  0  0  0  0  0  0  0  0
   25.7393  -20.3529  -12.7177 C   0  0  1  0  0  0  0  0  0  0  0  0
   26.0432  -20.2496  -11.2416 C   0  0  0  0  0  0  0  0  0  0  0  0
   25.2006  -21.0796  -10.3464 C   0  0  0  0  0  0  0  0  0  0  0  0
   25.6020  -20.9625   -8.9100 C   0  0  0  0  0  0  0  0  0  0  0  0
   26.4836  -20.1389   -8.5930 O   0  0  0  0  0  0  0  0  0  0  0  0
   24.2978  -20.1816  -12.9160 C   0  0  0  0  0  0  0  0  0  0  0  0
   23.8831  -19.0901  -13.3563 O   0  0  0  0  0  0  0  0  0  0  0  0
   25.0368  -21.7298   -7.9131 O   0  0  0  0  0  0  0  0  0  0  0  0
   21.0024  -18.1322  -15.3673 N   0  0  0  0  0  0  0  0  0  0  0  0
   19.8656  -18.7131  -14.7398 C   0  0  0  0  0  0  0  0  0  0  0  0
   18.7117  -18.5454  -15.1803 O   0  0  0  0  0  0  0  0  0  0  0  0
   20.0817  -19.5348  -13.5289 C   0  0  0  0  0  0  0  0  0  0  0  0
   21.5130  -19.6935  -13.1440 C   0  0  0  0  0  0  0  0  0  0  0  0
   21.9355  -21.1137  -13.0140 C   0  0  2  0  0  0  0  0  0  0  0  0
   23.3519  -21.2048  -12.6287 N   0  0  0  0  0  0  0  0  0  0  0  0
   21.6795  -21.9081  -14.2277 C   0  0  0  0  0  0  0  0  0  0  0  0
   20.6216  -22.5451  -14.3593 O   0  0  0  0  0  0  0  0  0  0  0  0
   22.6181  -21.9582  -15.2450 O   0  0  0  0  0  0  0  0  0  0  0  0
  2  3  2  0
  2  1  1  0
  4  2  1  0
  5  4  1  0
  6  5  1  0
  6  7  1  6
  8  9  2  0
  8  6  1  0
 10  8  1  0
 11 10  1  0
 12 13  1  0
 11 12  1  1
 13 14  1  0
 14 15  2  0
 14 18  1  0
 16 11  1  0
 16 17  2  0
 20 19  1  0
 21 20  2  0
 22 20  1  0
 23 22  1  0
 24 25  1  0
 24 23  1  6
 25 16  1  0
 26 24  1  0
 27 26  2  0
 28 26  1  0
M  END
$$$$
