QEQ.pdb
     RDKit          3D

 28 27  0  0  1  0  0  0  0  0999 V2000
   18.7100  -14.5601  -17.0259 N   0  0  0  0  0  0  0  0  0  0  0  0
   17.4693  -14.8109  -16.3543 C   0  0  0  0  0  0  0  0  0  0  0  0
   17.0975  -15.9919  -16.1593 O   0  0  0  0  0  0  0  0  0  0  0  0
   16.6171  -13.6879  -15.8860 C   0  0  0  0  0  0  0  0  0  0  0  0
   17.2615  -12.3936  -16.2926 C   0  0  0  0  0  0  0  0  0  0  0  0
   17.4855  -11.5193  -15.0931 C   0  0  2  0  0  0  0  0  0  0  0  0
   16.3099  -11.2871  -14.3252 N   0  0  0  0  0  0  0  0  0  0  0  0
   18.1069  -10.2008  -15.4908 C   0  0  0  0  0  0  0  0  0  0  0  0
   19.0243  -10.1848  -16.3334 O   0  0  0  0  0  0  0  0  0  0  0  0
   17.6688   -8.9835  -14.9266 N   0  0  0  0  0  0  0  0  0  0  0  0
   18.0874   -7.6594  -15.1814 C   0  0  1  0  0  0  0  0  0  0  0  0
   17.1299   -6.5439  -14.8338 C   0  0  0  0  0  0  0  0  0  0  0  0
   15.8606   -6.5162  -15.6009 C   0  0  0  0  0  0  0  0  0  0  0  0
   14.7007   -6.0591  -14.7739 C   0  0  0  0  0  0  0  0  0  0  0  0
   14.8908   -5.7586  -13.5783 O   0  0  0  0  0  0  0  0  0  0  0  0
   19.4325   -7.2814  -14.7402 C   0  0  0  0  0  0  0  0  0  0  0  0
   19.7868   -7.5856  -13.5829 O   0  0  0  0  0  0  0  0  0  0  0  0
   13.4213   -5.9540  -15.2780 O   0  0  0  0  0  0  0  0  0  0  0  0
   24.5556   -6.3848  -18.2825 N   0  0  0  0  0  0  0  0  0  0  0  0
   25.0368   -6.0236  -16.9935 C   0  0  0  0  0  0  0  0  0  0  0  0
   26.2294   -5.7198  -16.7963 O   0  0  0  0  0  0  0  0  0  0  0  0
   24.0771   -6.0171  -15.8678 C   0  0  0  0  0  0  0  0  0  0  0  0
   22.6784   -6.3584  -16.2536 C   0  0  0  0  0  0  0  0  0  0  0  0
   21.7066   -6.2182  -15.1363 C   0  0  2  0  0  0  0  0  0  0  0  0
   20.3508   -6.5837  -15.5733 N   0  0  0  0  0  0  0  0  0  0  0  0
   21.7086   -4.8752  -14.5314 C   0  0  0  0  0  0  0  0  0  0  0  0
   20.9215   -3.9992  -14.9254 O   0  0  0  0  0  0  0  0  0  0  0  0
   22.5920   -4.5663  -13.5104 O   0  0  0  0  0  0  0  0  0  0  0  0
  2  3  2  0
  2  1  1  0
  4  2  1  0
  5  4  1  0
  6  5  1  0
  6  7  1  6
  8  9  2  0
  8  6  1  0
 10  8  1  0
 11 10  1  0
 12 13  1  0
 11 12  1  1
 13 14  1  0
 14 15  2  0
 14 18  1  0
 16 11  1  0
 16 17  2  0
 20 19  1  0
 21 20  2  0
 22 20  1  0
 23 22  1  0
 24 25  1  0
 24 23  1  6
 25 16  1  0
 26 24  1  0
 27 26  2  0
 28 26  1  0
M  END
$$$$
