QEQ.pdb
     RDKit          3D

 28 27  0  0  1  0  0  0  0  0999 V2000
   13.8902  -10.6769  -10.1781 N   0  0  0  0  0  0  0  0  0  0  0  0
   13.4377   -9.6946   -9.2381 C   0  0  0  0  0  0  0  0  0  0  0  0
   12.2829   -9.7812   -8.7584 O   0  0  0  0  0  0  0  0  0  0  0  0
   14.3204   -8.5736   -8.8248 C   0  0  0  0  0  0  0  0  0  0  0  0
   15.6737   -8.7740   -9.4446 C   0  0  0  0  0  0  0  0  0  0  0  0
   15.8011   -7.9617  -10.7005 C   0  0  2  0  0  0  0  0  0  0  0  0
   14.9589   -8.4054  -11.7585 N   0  0  0  0  0  0  0  0  0  0  0  0
   17.2355   -7.9138  -11.1728 C   0  0  0  0  0  0  0  0  0  0  0  0
   18.1152   -7.4597  -10.4166 O   0  0  0  0  0  0  0  0  0  0  0  0
   17.6012   -8.3743  -12.4560 N   0  0  0  0  0  0  0  0  0  0  0  0
   18.8353   -8.2884  -13.1363 C   0  0  1  0  0  0  0  0  0  0  0  0
   19.2084   -9.4282  -14.0549 C   0  0  0  0  0  0  0  0  0  0  0  0
   20.5198   -9.3083  -14.7375 C   0  0  0  0  0  0  0  0  0  0  0  0
   20.8709  -10.5318  -15.5236 C   0  0  0  0  0  0  0  0  0  0  0  0
   20.0154  -11.0299  -16.2825 O   0  0  0  0  0  0  0  0  0  0  0  0
   19.1504   -7.0224  -13.8031 C   0  0  0  0  0  0  0  0  0  0  0  0
   18.4360   -6.6596  -14.7598 O   0  0  0  0  0  0  0  0  0  0  0  0
   22.1073  -11.1381  -15.4465 O   0  0  0  0  0  0  0  0  0  0  0  0
   18.3870   -1.5805  -12.7610 N   0  0  0  0  0  0  0  0  0  0  0  0
   19.3811   -1.3471  -13.7514 C   0  0  0  0  0  0  0  0  0  0  0  0
   19.5880   -0.2120  -14.2231 O   0  0  0  0  0  0  0  0  0  0  0  0
   20.1799   -2.4996  -14.2225 C   0  0  0  0  0  0  0  0  0  0  0  0
   19.8080   -3.7996  -13.5953 C   0  0  0  0  0  0  0  0  0  0  0  0
   20.5906   -4.9521  -14.1166 C   0  0  2  0  0  0  0  0  0  0  0  0
   20.2342   -6.1901  -13.4072 N   0  0  0  0  0  0  0  0  0  0  0  0
   22.0464   -4.7325  -14.0704 C   0  0  0  0  0  0  0  0  0  0  0  0
   22.7238   -5.1577  -13.1204 O   0  0  0  0  0  0  0  0  0  0  0  0
   22.6855   -4.0451  -15.0890 O   0  0  0  0  0  0  0  0  0  0  0  0
  2  3  2  0
  2  1  1  0
  4  2  1  0
  5  4  1  0
  6  5  1  0
  6  7  1  6
  8  9  2  0
  8  6  1  0
 10  8  1  0
 11 10  1  0
 12 13  1  0
 11 12  1  6
 13 14  1  0
 14 15  2  0
 14 18  1  0
 16 11  1  0
 16 17  2  0
 20 19  1  0
 21 20  2  0
 22 20  1  0
 23 22  1  0
 24 25  1  0
 24 23  1  1
 25 16  1  0
 26 24  1  0
 27 26  2  0
 28 26  1  0
M  END
$$$$
