QEQ.pdb
     RDKit          3D

 28 27  0  0  1  0  0  0  0  0999 V2000
   27.1002  -18.5969  -19.2349 N   0  0  0  0  0  0  0  0  0  0  0  0
   28.4215  -18.3876  -18.7212 C   0  0  0  0  0  0  0  0  0  0  0  0
   29.3158  -17.9377  -19.4753 O   0  0  0  0  0  0  0  0  0  0  0  0
   28.7451  -18.6976  -17.3050 C   0  0  0  0  0  0  0  0  0  0  0  0
   27.4731  -19.0478  -16.5870 C   0  0  0  0  0  0  0  0  0  0  0  0
   27.6517  -20.3048  -15.7861 C   0  0  2  0  0  0  0  0  0  0  0  0
   28.1437  -21.4035  -16.5452 N   0  0  0  0  0  0  0  0  0  0  0  0
   26.3665  -20.6945  -15.0938 C   0  0  0  0  0  0  0  0  0  0  0  0
   25.4519  -21.2253  -15.7522 O   0  0  0  0  0  0  0  0  0  0  0  0
   26.1796  -20.4694  -13.7129 N   0  0  0  0  0  0  0  0  0  0  0  0
   25.0352  -20.6549  -12.9072 C   0  0  1  0  0  0  0  0  0  0  0  0
   25.2426  -20.7806  -11.4161 C   0  0  0  0  0  0  0  0  0  0  0  0
   24.0279  -21.0669  -10.6143 C   0  0  0  0  0  0  0  0  0  0  0  0
   24.3270  -21.2251   -9.1570 C   0  0  0  0  0  0  0  0  0  0  0  0
   23.4222  -21.6154   -8.3922 O   0  0  0  0  0  0  0  0  0  0  0  0
   23.8892  -19.7754  -13.1518 C   0  0  0  0  0  0  0  0  0  0  0  0
   24.0614  -18.5411  -13.0860 O   0  0  0  0  0  0  0  0  0  0  0  0
   25.5675  -20.9569   -8.6173 O   0  0  0  0  0  0  0  0  0  0  0  0
   21.6424  -18.8867  -18.0029 N   0  0  0  0  0  0  0  0  0  0  0  0
   20.8443  -19.9591  -17.5164 C   0  0  0  0  0  0  0  0  0  0  0  0
   20.2724  -20.7566  -18.2848 O   0  0  0  0  0  0  0  0  0  0  0  0
   20.7006  -20.1125  -16.0521 C   0  0  0  0  0  0  0  0  0  0  0  0
   21.4366  -19.0910  -15.2543 C   0  0  0  0  0  0  0  0  0  0  0  0
   21.4620  -19.3860  -13.7966 C   0  0  2  0  0  0  0  0  0  0  0  0
   22.5906  -20.2673  -13.4609 N   0  0  0  0  0  0  0  0  0  0  0  0
   20.1980  -19.9548  -13.2982 C   0  0  0  0  0  0  0  0  0  0  0  0
   20.0931  -21.1716  -13.0736 O   0  0  0  0  0  0  0  0  0  0  0  0
   19.1019  -19.1388  -13.0720 O   0  0  0  0  0  0  0  0  0  0  0  0
  2  3  2  0
  2  1  1  0
  4  2  1  0
  5  4  1  0
  6  5  1  0
  6  7  1  6
  8  9  2  0
  8  6  1  0
 10  8  1  0
 11 10  1  0
 12 13  1  0
 11 12  1  1
 13 14  1  0
 14 15  2  0
 14 18  1  0
 16 11  1  0
 16 17  2  0
 20 19  1  0
 21 20  2  0
 22 20  1  0
 23 22  1  0
 24 25  1  0
 24 23  1  6
 25 16  1  0
 26 24  1  0
 27 26  2  0
 28 26  1  0
M  END
$$$$
