QEQ.pdb
     RDKit          3D

 28 27  0  0  1  0  0  0  0  0999 V2000
   16.0244  -12.3827  -16.7594 N   0  0  0  0  0  0  0  0  0  0  0  0
   17.2007  -13.1517  -17.0393 C   0  0  0  0  0  0  0  0  0  0  0  0
   17.1130  -14.1844  -17.7442 O   0  0  0  0  0  0  0  0  0  0  0  0
   18.5239  -12.7403  -16.5041 C   0  0  0  0  0  0  0  0  0  0  0  0
   18.3396  -11.5130  -15.6581 C   0  0  0  0  0  0  0  0  0  0  0  0
   19.0327  -10.3367  -16.2819 C   0  0  2  0  0  0  0  0  0  0  0  0
   20.4434  -10.4924  -16.3883 N   0  0  0  0  0  0  0  0  0  0  0  0
   18.7123   -9.0609  -15.5385 C   0  0  0  0  0  0  0  0  0  0  0  0
   17.7717   -9.0469  -14.7219 O   0  0  0  0  0  0  0  0  0  0  0  0
   19.4583   -7.8815  -15.7500 N   0  0  0  0  0  0  0  0  0  0  0  0
   19.2929   -6.5898  -15.2045 C   0  0  1  0  0  0  0  0  0  0  0  0
   20.5396   -5.7834  -14.9259 C   0  0  0  0  0  0  0  0  0  0  0  0
   20.9422   -5.6829  -13.5018 C   0  0  0  0  0  0  0  0  0  0  0  0
   22.1608   -4.8367  -13.3088 C   0  0  0  0  0  0  0  0  0  0  0  0
   23.2864   -5.3651  -13.4063 O   0  0  0  0  0  0  0  0  0  0  0  0
   18.2961   -5.7169  -15.8297 C   0  0  0  0  0  0  0  0  0  0  0  0
   18.3394   -5.5540  -17.0662 O   0  0  0  0  0  0  0  0  0  0  0  0
   22.0948   -3.4884  -13.0262 O   0  0  0  0  0  0  0  0  0  0  0  0
   12.5010   -4.3609  -13.7661 N   0  0  0  0  0  0  0  0  0  0  0  0
   12.5732   -3.5949  -14.9625 C   0  0  0  0  0  0  0  0  0  0  0  0
   11.5869   -2.9791  -15.4116 O   0  0  0  0  0  0  0  0  0  0  0  0
   13.8657   -3.5430  -15.6801 C   0  0  0  0  0  0  0  0  0  0  0  0
   14.9554   -4.3305  -15.0365 C   0  0  0  0  0  0  0  0  0  0  0  0
   16.2695   -4.1874  -15.7186 C   0  0  2  0  0  0  0  0  0  0  0  0
   17.2821   -5.0482  -15.0889 N   0  0  0  0  0  0  0  0  0  0  0  0
   16.7428   -2.7939  -15.7785 C   0  0  0  0  0  0  0  0  0  0  0  0
   17.5067   -2.3439  -14.9091 O   0  0  0  0  0  0  0  0  0  0  0  0
   16.3414   -1.9598  -16.8089 O   0  0  0  0  0  0  0  0  0  0  0  0
  2  3  2  0
  2  1  1  0
  4  2  1  0
  5  4  1  0
  6  5  1  0
  6  7  1  1
  8  9  2  0
  8  6  1  0
 10  8  1  0
 11 10  1  0
 12 13  1  0
 11 12  1  6
 13 14  1  0
 14 15  2  0
 14 18  1  0
 16 11  1  0
 16 17  2  0
 20 19  1  0
 21 20  2  0
 22 20  1  0
 23 22  1  0
 24 25  1  0
 24 23  1  1
 25 16  1  0
 26 24  1  0
 27 26  2  0
 28 26  1  0
M  END
$$$$
