QEQ.pdb
     RDKit          3D

 28 27  0  0  1  0  0  0  0  0999 V2000
   28.4125  -18.8276  -16.0406 N   0  0  0  0  0  0  0  0  0  0  0  0
   28.5573  -17.4949  -16.5467 C   0  0  0  0  0  0  0  0  0  0  0  0
   29.6614  -17.1241  -17.0099 O   0  0  0  0  0  0  0  0  0  0  0  0
   27.4145  -16.5461  -16.5292 C   0  0  0  0  0  0  0  0  0  0  0  0
   26.2312  -17.2304  -15.9068 C   0  0  0  0  0  0  0  0  0  0  0  0
   25.8243  -18.4219  -16.7242 C   0  0  2  0  0  0  0  0  0  0  0  0
   25.6891  -18.1451  -18.1137 N   0  0  0  0  0  0  0  0  0  0  0  0
   24.5468  -19.0318  -16.1961 C   0  0  0  0  0  0  0  0  0  0  0  0
   23.4725  -18.8125  -16.7874 O   0  0  0  0  0  0  0  0  0  0  0  0
   24.5447  -19.8473  -15.0441 N   0  0  0  0  0  0  0  0  0  0  0  0
   23.4963  -20.5861  -14.4538 C   0  0  1  0  0  0  0  0  0  0  0  0
   23.8737  -21.7176  -13.5268 C   0  0  0  0  0  0  0  0  0  0  0  0
   24.5621  -22.8703  -14.1572 C   0  0  0  0  0  0  0  0  0  0  0  0
   24.8552  -23.9664  -13.1819 C   0  0  0  0  0  0  0  0  0  0  0  0
   25.4092  -25.0070  -13.5892 O   0  0  0  0  0  0  0  0  0  0  0  0
   22.3951  -19.8301  -13.8519 C   0  0  0  0  0  0  0  0  0  0  0  0
   22.6185  -19.1810  -12.8097 O   0  0  0  0  0  0  0  0  0  0  0  0
   24.5380  -23.8770  -11.8427 O   0  0  0  0  0  0  0  0  0  0  0  0
   17.3306  -17.5581  -16.8458 N   0  0  0  0  0  0  0  0  0  0  0  0
   17.0508  -17.1904  -15.5004 C   0  0  0  0  0  0  0  0  0  0  0  0
   16.0425  -16.5242  -15.1951 O   0  0  0  0  0  0  0  0  0  0  0  0
   17.9986  -17.6197  -14.4490 C   0  0  0  0  0  0  0  0  0  0  0  0
   19.1017  -18.4943  -14.9390 C   0  0  0  0  0  0  0  0  0  0  0  0
   20.0037  -18.9698  -13.8561 C   0  0  2  0  0  0  0  0  0  0  0  0
   21.0841  -19.8039  -14.4038 N   0  0  0  0  0  0  0  0  0  0  0  0
   19.2934  -19.6860  -12.7827 C   0  0  0  0  0  0  0  0  0  0  0  0
   19.0755  -20.9056  -12.8680 O   0  0  0  0  0  0  0  0  0  0  0  0
   18.8548  -19.0082  -11.6572 O   0  0  0  0  0  0  0  0  0  0  0  0
  2  3  2  0
  2  1  1  0
  4  2  1  0
  5  4  1  0
  6  5  1  0
  6  7  1  6
  8  9  2  0
  8  6  1  0
 10  8  1  0
 11 10  1  0
 12 13  1  0
 11 12  1  1
 13 14  1  0
 14 15  2  0
 14 18  1  0
 16 11  1  0
 16 17  2  0
 20 19  1  0
 21 20  2  0
 22 20  1  0
 23 22  1  0
 24 25  1  0
 24 23  1  6
 25 16  1  0
 26 24  1  0
 27 26  2  0
 28 26  1  0
M  END
$$$$
