FMW.pdb
     RDKit          3D

 34 36  0  0  1  0  0  0  0  0999 V2000
    8.9633  -15.9779   19.0426 N   0  0  0  0  0  0  0  0  0  0  0  0
   10.0809  -15.1186   19.3464 C   0  0  1  0  0  0  0  0  0  0  0  0
    9.8019  -13.8220   18.5892 C   0  0  0  0  0  0  0  0  0  0  0  0
    9.1554  -14.2132   17.3090 C   0  0  0  0  0  0  0  0  0  0  0  0
    9.8696  -14.9165   16.3333 C   0  0  0  0  0  0  0  0  0  0  0  0
    9.2940  -15.3011   15.1322 C   0  0  0  0  0  0  0  0  0  0  0  0
    7.9763  -14.9892   14.8728 C   0  0  0  0  0  0  0  0  0  0  0  0
    7.2445  -14.2916   15.8258 C   0  0  0  0  0  0  0  0  0  0  0  0
    7.8428  -13.9231   17.0089 C   0  0  0  0  0  0  0  0  0  0  0  0
   10.2533  -14.8603   20.7905 C   0  0  0  0  0  0  0  0  0  0  0  0
   11.1963  -14.1806   21.1861 O   0  0  0  0  0  0  0  0  0  0  0  0
    6.2333  -11.7050   25.5236 C   0  0  0  0  0  0  0  0  0  0  0  0
    6.8195  -13.4135   25.4711 S   0  0  0  0  0  0  0  0  0  0  0  0
    7.5881  -13.7980   23.8630 C   0  0  0  0  0  0  0  0  0  0  0  0
    8.1081  -15.2207   23.8388 C   0  0  0  0  0  0  0  0  0  0  0  0
    9.4300  -15.3271   23.1238 C   0  0  2  0  0  0  0  0  0  0  0  0
    9.3402  -15.3831   21.7061 N   0  0  0  0  0  0  0  0  0  0  0  0
   10.0979  -16.5320   23.6560 C   0  0  0  0  0  0  0  0  0  0  0  0
   11.1892  -16.8899   23.1333 O   0  0  0  0  0  0  0  0  0  0  0  0
    9.5502  -17.2970   24.7214 N   0  0  0  0  0  0  0  0  0  0  0  0
   10.4430  -18.0975   25.5751 C   0  0  1  0  0  0  0  0  0  0  0  0
    9.7897  -18.3686   26.8737 C   0  0  0  0  0  0  0  0  0  0  0  0
    9.0623  -17.2008   27.3818 C   0  0  0  0  0  0  0  0  0  0  0  0
    7.7279  -16.9370   27.3448 C   0  0  0  0  0  0  0  0  0  0  0  0
    7.5064  -15.7102   27.8876 N   0  0  0  0  0  0  0  0  0  0  0  0
    8.6819  -15.1807   28.2768 C   0  0  0  0  0  0  0  0  0  0  0  0
    9.0050  -13.9692   28.8973 C   0  0  0  0  0  0  0  0  0  0  0  0
   10.2938  -13.6565   29.2235 C   0  0  0  0  0  0  0  0  0  0  0  0
   11.2865  -14.5941   28.9098 C   0  0  0  0  0  0  0  0  0  0  0  0
   10.9665  -15.7812   28.2968 C   0  0  0  0  0  0  0  0  0  0  0  0
    9.6616  -16.0859   27.9743 C   0  0  0  0  0  0  0  0  0  0  0  0
   10.8902  -19.2196   24.7628 C   0  0  0  0  0  0  0  0  0  0  0  0
   10.3231  -19.5078   23.6910 O   0  0  0  0  0  0  0  0  0  0  0  0
   11.9756  -20.0486   25.1180 O   0  0  0  0  0  0  0  0  0  0  0  0
  2  1  1  1
  3  2  1  0
  4  3  1  0
  4  5  2  0
  6  5  1  0
  7  6  2  0
  8  9  2  0
  8  7  1  0
  9  4  1  0
 10 11  2  0
 10  2  1  0
 13 12  1  0
 14 13  1  0
 15 14  1  0
 16 15  1  1
 16 17  1  0
 17 10  1  0
 18 16  1  0
 19 18  2  0
 20 18  1  0
 21 20  1  0
 22 23  1  0
 21 22  1  1
 23 31  1  0
 24 23  2  0
 24 25  1  0
 25 26  1  0
 26 27  1  0
 27 28  2  0
 29 28  1  0
 30 29  2  0
 31 26  2  0
 31 30  1  0
 32 34  1  0
 32 21  1  0
 33 32  2  0
M  END
$$$$
