FMW.pdb
     RDKit          3D

 34 36  0  0  1  0  0  0  0  0999 V2000
    7.6969  -17.5824   18.3462 N   0  0  0  0  0  0  0  0  0  0  0  0
    8.0287  -16.7188   19.4525 C   0  0  1  0  0  0  0  0  0  0  0  0
    6.8000  -15.8329   19.6468 C   0  0  0  0  0  0  0  0  0  0  0  0
    7.2534  -14.6491   20.4233 C   0  0  0  0  0  0  0  0  0  0  0  0
    7.7244  -13.5045   19.7716 C   0  0  0  0  0  0  0  0  0  0  0  0
    8.1486  -12.3823   20.4664 C   0  0  0  0  0  0  0  0  0  0  0  0
    8.1126  -12.3756   21.8447 C   0  0  0  0  0  0  0  0  0  0  0  0
    7.6486  -13.4998   22.5163 C   0  0  0  0  0  0  0  0  0  0  0  0
    7.2342  -14.5990   21.7997 C   0  0  0  0  0  0  0  0  0  0  0  0
    8.3561  -17.4478   20.6948 C   0  0  0  0  0  0  0  0  0  0  0  0
    7.5288  -18.1988   21.2041 O   0  0  0  0  0  0  0  0  0  0  0  0
   13.3649  -20.6339   19.0480 C   0  0  0  0  0  0  0  0  0  0  0  0
   13.0846  -20.1175   20.7569 S   0  0  0  0  0  0  0  0  0  0  0  0
   11.5903  -19.0822   20.8963 C   0  0  0  0  0  0  0  0  0  0  0  0
   11.3033  -18.7395   22.3439 C   0  0  0  0  0  0  0  0  0  0  0  0
   10.0645  -17.8944   22.4896 C   0  0  2  0  0  0  0  0  0  0  0  0
    9.6089  -17.2888   21.2868 N   0  0  0  0  0  0  0  0  0  0  0  0
   10.3736  -16.8712   23.5088 C   0  0  0  0  0  0  0  0  0  0  0  0
   11.1925  -15.9589   23.2099 O   0  0  0  0  0  0  0  0  0  0  0  0
    9.7894  -16.8877   24.8044 N   0  0  0  0  0  0  0  0  0  0  0  0
   10.4954  -16.2510   25.9282 C   0  0  1  0  0  0  0  0  0  0  0  0
   10.0920  -14.8327   26.0385 C   0  0  0  0  0  0  0  0  0  0  0  0
    8.6382  -14.6620   25.9475 C   0  0  0  0  0  0  0  0  0  0  0  0
    7.6729  -15.6027   25.7610 C   0  0  0  0  0  0  0  0  0  0  0  0
    6.4641  -14.9845   25.6877 N   0  0  0  0  0  0  0  0  0  0  0  0
    6.6380  -13.6565   25.8274 C   0  0  0  0  0  0  0  0  0  0  0  0
    5.7338  -12.5890   25.8445 C   0  0  0  0  0  0  0  0  0  0  0  0
    6.1530  -11.3023   26.0285 C   0  0  0  0  0  0  0  0  0  0  0  0
    7.5272  -11.0870   26.1963 C   0  0  0  0  0  0  0  0  0  0  0  0
    8.4130  -12.1369   26.1751 C   0  0  0  0  0  0  0  0  0  0  0  0
    7.9772  -13.4314   25.9903 C   0  0  0  0  0  0  0  0  0  0  0  0
   10.3138  -17.1273   27.0763 C   0  0  0  0  0  0  0  0  0  0  0  0
   10.8068  -16.8481   28.1864 O   0  0  0  0  0  0  0  0  0  0  0  0
    9.5821  -18.3327   27.0222 O   0  0  0  0  0  0  0  0  0  0  0  0
  2  1  1  6
  3  2  1  0
  4  3  1  0
  4  5  2  0
  6  5  1  0
  7  6  2  0
  8  9  2  0
  8  7  1  0
  9  4  1  0
 10 11  2  0
 10  2  1  0
 13 12  1  0
 14 13  1  0
 15 14  1  0
 16 15  1  6
 16 17  1  0
 17 10  1  0
 18 16  1  0
 19 18  2  0
 20 18  1  0
 21 20  1  0
 22 23  1  0
 21 22  1  1
 23 31  1  0
 24 23  2  0
 24 25  1  0
 25 26  1  0
 26 27  1  0
 27 28  2  0
 29 28  1  0
 30 29  2  0
 31 26  2  0
 31 30  1  0
 32 34  1  0
 32 21  1  0
 33 32  2  0
M  END
$$$$
