FMW.pdb
     RDKit          3D

 34 36  0  0  1  0  0  0  0  0999 V2000
    9.3241  -17.7192   20.7814 N   0  0  0  0  0  0  0  0  0  0  0  0
    9.2216  -16.3046   20.5200 C   0  0  1  0  0  0  0  0  0  0  0  0
    8.1531  -16.1777   19.4363 C   0  0  0  0  0  0  0  0  0  0  0  0
    7.8053  -14.7346   19.3554 C   0  0  0  0  0  0  0  0  0  0  0  0
    6.6340  -14.2477   19.9451 C   0  0  0  0  0  0  0  0  0  0  0  0
    6.2844  -12.9071   19.8928 C   0  0  0  0  0  0  0  0  0  0  0  0
    7.1048  -12.0099   19.2428 C   0  0  0  0  0  0  0  0  0  0  0  0
    8.2745  -12.4678   18.6490 C   0  0  0  0  0  0  0  0  0  0  0  0
    8.5954  -13.8042   18.7173 C   0  0  0  0  0  0  0  0  0  0  0  0
    8.8637  -15.5072   21.7108 C   0  0  0  0  0  0  0  0  0  0  0  0
    8.2357  -14.4596   21.5842 O   0  0  0  0  0  0  0  0  0  0  0  0
    7.6494  -12.4896   27.3826 C   0  0  0  0  0  0  0  0  0  0  0  0
    6.9459  -13.1305   25.8464 S   0  0  0  0  0  0  0  0  0  0  0  0
    6.9377  -14.9538   25.8349 C   0  0  0  0  0  0  0  0  0  0  0  0
    7.3178  -15.4874   24.4690 C   0  0  0  0  0  0  0  0  0  0  0  0
    8.8029  -15.4120   24.2261 C   0  0  2  0  0  0  0  0  0  0  0  0
    9.2332  -15.9477   22.9815 N   0  0  0  0  0  0  0  0  0  0  0  0
    9.4474  -16.1169   25.3525 C   0  0  0  0  0  0  0  0  0  0  0  0
    9.2978  -15.6481   26.5145 O   0  0  0  0  0  0  0  0  0  0  0  0
   10.2295  -17.2894   25.1683 N   0  0  0  0  0  0  0  0  0  0  0  0
   11.6976  -17.1868   25.1404 C   0  0  1  0  0  0  0  0  0  0  0  0
   12.2548  -17.5683   26.4558 C   0  0  0  0  0  0  0  0  0  0  0  0
   11.3593  -17.2112   27.5610 C   0  0  0  0  0  0  0  0  0  0  0  0
   10.5402  -18.0115   28.2959 C   0  0  0  0  0  0  0  0  0  0  0  0
    9.8528  -17.2428   29.1821 N   0  0  0  0  0  0  0  0  0  0  0  0
   10.2210  -15.9564   29.0295 C   0  0  0  0  0  0  0  0  0  0  0  0
    9.8354  -14.7859   29.6915 C   0  0  0  0  0  0  0  0  0  0  0  0
   10.3765  -13.5737   29.3703 C   0  0  0  0  0  0  0  0  0  0  0  0
   11.3329  -13.5426   28.3470 C   0  0  0  0  0  0  0  0  0  0  0  0
   11.7065  -14.6933   27.6960 C   0  0  0  0  0  0  0  0  0  0  0  0
   11.1543  -15.9109   28.0307 C   0  0  0  0  0  0  0  0  0  0  0  0
   12.1367  -17.9055   23.9531 C   0  0  0  0  0  0  0  0  0  0  0  0
   11.3176  -18.4517   23.1888 O   0  0  0  0  0  0  0  0  0  0  0  0
   13.4926  -18.0361   23.5843 O   0  0  0  0  0  0  0  0  0  0  0  0
  2  1  1  1
  3  2  1  0
  4  3  1  0
  4  5  2  0
  6  5  1  0
  7  6  2  0
  8  9  2  0
  8  7  1  0
  9  4  1  0
 10 11  2  0
 10  2  1  0
 13 12  1  0
 14 13  1  0
 15 14  1  0
 16 15  1  1
 16 17  1  0
 17 10  1  0
 18 16  1  0
 19 18  2  0
 20 18  1  0
 21 20  1  0
 22 23  1  0
 21 22  1  1
 23 31  1  0
 24 23  2  0
 24 25  1  0
 25 26  1  0
 26 27  1  0
 27 28  2  0
 29 28  1  0
 30 29  2  0
 31 26  2  0
 31 30  1  0
 32 34  1  0
 32 21  1  0
 33 32  2  0
M  END
$$$$
