FMW.pdb
     RDKit          3D

 34 36  0  0  1  0  0  0  0  0999 V2000
    6.1959  -17.6393   20.4595 N   0  0  0  0  0  0  0  0  0  0  0  0
    7.2000  -16.7292   20.9527 C   0  0  1  0  0  0  0  0  0  0  0  0
    6.4177  -15.5739   21.5738 C   0  0  0  0  0  0  0  0  0  0  0  0
    7.1460  -14.3297   21.2112 C   0  0  0  0  0  0  0  0  0  0  0  0
    7.7644  -13.5510   22.1950 C   0  0  0  0  0  0  0  0  0  0  0  0
    8.4561  -12.3892   21.8890 C   0  0  0  0  0  0  0  0  0  0  0  0
    8.5481  -11.9715   20.5783 C   0  0  0  0  0  0  0  0  0  0  0  0
    7.9430  -12.7273   19.5818 C   0  0  0  0  0  0  0  0  0  0  0  0
    7.2631  -13.8761   19.9160 C   0  0  0  0  0  0  0  0  0  0  0  0
    8.1165  -17.3371   21.9388 C   0  0  0  0  0  0  0  0  0  0  0  0
    7.7194  -18.2344   22.6770 O   0  0  0  0  0  0  0  0  0  0  0  0
   13.8864  -18.5010   18.7522 C   0  0  0  0  0  0  0  0  0  0  0  0
   13.6988  -17.7314   20.3764 S   0  0  0  0  0  0  0  0  0  0  0  0
   11.9924  -17.9042   20.9950 C   0  0  0  0  0  0  0  0  0  0  0  0
   11.8505  -17.2841   22.3699 C   0  0  0  0  0  0  0  0  0  0  0  0
   10.4438  -17.3959   22.8979 C   0  0  2  0  0  0  0  0  0  0  0  0
    9.4369  -16.8966   22.0273 N   0  0  0  0  0  0  0  0  0  0  0  0
   10.4236  -16.6805   24.1897 C   0  0  0  0  0  0  0  0  0  0  0  0
   10.7217  -15.4544   24.1981 O   0  0  0  0  0  0  0  0  0  0  0  0
   10.0904  -17.3261   25.4113 N   0  0  0  0  0  0  0  0  0  0  0  0
   10.3046  -16.6233   26.6868 C   0  0  1  0  0  0  0  0  0  0  0  0
    9.0553  -16.6221   27.4779 C   0  0  0  0  0  0  0  0  0  0  0  0
    7.9288  -16.0508   26.7326 C   0  0  0  0  0  0  0  0  0  0  0  0
    6.9574  -16.6867   26.0231 C   0  0  0  0  0  0  0  0  0  0  0  0
    6.1477  -15.7553   25.4524 N   0  0  0  0  0  0  0  0  0  0  0  0
    6.5839  -14.5261   25.7876 C   0  0  0  0  0  0  0  0  0  0  0  0
    6.1068  -13.2466   25.4836 C   0  0  0  0  0  0  0  0  0  0  0  0
    6.7157  -12.1245   25.9687 C   0  0  0  0  0  0  0  0  0  0  0  0
    7.8428  -12.3002   26.7822 C   0  0  0  0  0  0  0  0  0  0  0  0
    8.3113  -13.5579   27.0757 C   0  0  0  0  0  0  0  0  0  0  0  0
    7.6867  -14.6827   26.5813 C   0  0  0  0  0  0  0  0  0  0  0  0
   11.5095  -17.1933   27.2721 C   0  0  0  0  0  0  0  0  0  0  0  0
   12.0722  -18.1802   26.7594 O   0  0  0  0  0  0  0  0  0  0  0  0
   12.1194  -16.6840   28.4383 O   0  0  0  0  0  0  0  0  0  0  0  0
  2  1  1  1
  3  2  1  0
  4  3  1  0
  4  5  2  0
  6  5  1  0
  7  6  2  0
  8  9  2  0
  8  7  1  0
  9  4  1  0
 10 11  2  0
 10  2  1  0
 13 12  1  0
 14 13  1  0
 15 14  1  0
 16 15  1  6
 16 17  1  0
 17 10  1  0
 18 16  1  0
 19 18  2  0
 20 18  1  0
 21 20  1  0
 22 23  1  0
 21 22  1  1
 23 31  1  0
 24 23  2  0
 24 25  1  0
 25 26  1  0
 26 27  1  0
 27 28  2  0
 29 28  1  0
 30 29  2  0
 31 26  2  0
 31 30  1  0
 32 34  1  0
 32 21  1  0
 33 32  2  0
M  END
$$$$
