FMW.pdb
     RDKit          3D

 34 36  0  0  1  0  0  0  0  0999 V2000
    8.2207  -16.8989   16.5001 N   0  0  0  0  0  0  0  0  0  0  0  0
    8.4709  -16.1532   17.7089 C   0  0  1  0  0  0  0  0  0  0  0  0
    7.4635  -15.0057   17.6830 C   0  0  0  0  0  0  0  0  0  0  0  0
    7.5727  -14.3202   18.9976 C   0  0  0  0  0  0  0  0  0  0  0  0
    6.8799  -14.8007   20.1138 C   0  0  0  0  0  0  0  0  0  0  0  0
    6.9655  -14.1881   21.3546 C   0  0  0  0  0  0  0  0  0  0  0  0
    7.7535  -13.0680   21.5128 C   0  0  0  0  0  0  0  0  0  0  0  0
    8.4525  -12.5707   20.4199 C   0  0  0  0  0  0  0  0  0  0  0  0
    8.3480  -13.2000   19.2006 C   0  0  0  0  0  0  0  0  0  0  0  0
    8.3255  -16.9560   18.9403 C   0  0  0  0  0  0  0  0  0  0  0  0
    7.2865  -17.5751   19.1526 O   0  0  0  0  0  0  0  0  0  0  0  0
   10.7973  -22.2037   23.9420 C   0  0  0  0  0  0  0  0  0  0  0  0
   10.8172  -21.3826   22.3324 S   0  0  0  0  0  0  0  0  0  0  0  0
   10.0321  -19.7393   22.4205 C   0  0  0  0  0  0  0  0  0  0  0  0
   10.0996  -19.0355   21.0806 C   0  0  0  0  0  0  0  0  0  0  0  0
    9.3762  -17.7141   21.0993 C   0  0  2  0  0  0  0  0  0  0  0  0
    9.3721  -17.0170   19.8602 N   0  0  0  0  0  0  0  0  0  0  0  0
   10.0133  -16.9031   22.1563 C   0  0  0  0  0  0  0  0  0  0  0  0
   11.1970  -16.5062   21.9727 O   0  0  0  0  0  0  0  0  0  0  0  0
    9.3440  -16.5670   23.3643 N   0  0  0  0  0  0  0  0  0  0  0  0
   10.0891  -15.9072   24.4488 C   0  0  1  0  0  0  0  0  0  0  0  0
    9.7080  -14.4805   24.5270 C   0  0  0  0  0  0  0  0  0  0  0  0
    8.2953  -14.3035   24.8786 C   0  0  0  0  0  0  0  0  0  0  0  0
    7.2699  -15.1937   24.7904 C   0  0  0  0  0  0  0  0  0  0  0  0
    6.1196  -14.5802   25.1766 N   0  0  0  0  0  0  0  0  0  0  0  0
    6.3913  -13.3054   25.5154 C   0  0  0  0  0  0  0  0  0  0  0  0
    5.5808  -12.2679   25.9885 C   0  0  0  0  0  0  0  0  0  0  0  0
    6.0981  -11.0410   26.2929 C   0  0  0  0  0  0  0  0  0  0  0  0
    7.4748  -10.8557   26.1101 C   0  0  0  0  0  0  0  0  0  0  0  0
    8.2673  -11.8754   25.6416 C   0  0  0  0  0  0  0  0  0  0  0  0
    7.7335  -13.1097   25.3396 C   0  0  0  0  0  0  0  0  0  0  0  0
    9.9272  -16.7461   25.6274 C   0  0  0  0  0  0  0  0  0  0  0  0
    9.1139  -17.6904   25.6415 O   0  0  0  0  0  0  0  0  0  0  0  0
   10.6620  -16.5591   26.8176 O   0  0  0  0  0  0  0  0  0  0  0  0
  2  1  1  6
  3  2  1  0
  4  3  1  0
  4  5  2  0
  6  5  1  0
  7  6  2  0
  8  9  2  0
  8  7  1  0
  9  4  1  0
 10 11  2  0
 10  2  1  0
 13 12  1  0
 14 13  1  0
 15 14  1  0
 16 15  1  6
 16 17  1  0
 17 10  1  0
 18 16  1  0
 19 18  2  0
 20 18  1  0
 21 20  1  0
 22 23  1  0
 21 22  1  1
 23 31  1  0
 24 23  2  0
 24 25  1  0
 25 26  1  0
 26 27  1  0
 27 28  2  0
 29 28  1  0
 30 29  2  0
 31 26  2  0
 31 30  1  0
 32 34  1  0
 32 21  1  0
 33 32  2  0
M  END
$$$$
