FMW.pdb
     RDKit          3D

 34 36  0  0  1  0  0  0  0  0999 V2000
    6.0945  -19.1145   24.3015 N   0  0  0  0  0  0  0  0  0  0  0  0
    6.4219  -17.7135   24.4004 C   0  0  1  0  0  0  0  0  0  0  0  0
    6.9019  -17.5185   25.8370 C   0  0  0  0  0  0  0  0  0  0  0  0
    6.9282  -16.0515   26.0762 C   0  0  0  0  0  0  0  0  0  0  0  0
    8.1399  -15.3815   26.2756 C   0  0  0  0  0  0  0  0  0  0  0  0
    8.1988  -14.0139   26.4949 C   0  0  0  0  0  0  0  0  0  0  0  0
    7.0361  -13.2734   26.5213 C   0  0  0  0  0  0  0  0  0  0  0  0
    5.8192  -13.9148   26.3255 C   0  0  0  0  0  0  0  0  0  0  0  0
    5.7921  -15.2736   26.1101 C   0  0  0  0  0  0  0  0  0  0  0  0
    7.4517  -17.2770   23.4355 C   0  0  0  0  0  0  0  0  0  0  0  0
    8.4200  -17.9949   23.2017 O   0  0  0  0  0  0  0  0  0  0  0  0
    8.9599  -11.7516   17.8417 C   0  0  0  0  0  0  0  0  0  0  0  0
    7.8706  -12.3288   19.1629 S   0  0  0  0  0  0  0  0  0  0  0  0
    8.5571  -13.8032   19.9870 C   0  0  0  0  0  0  0  0  0  0  0  0
    7.6430  -14.2759   21.0988 C   0  0  0  0  0  0  0  0  0  0  0  0
    8.1153  -15.5711   21.7065 C   0  0  2  0  0  0  0  0  0  0  0  0
    7.3211  -16.0509   22.7836 N   0  0  0  0  0  0  0  0  0  0  0  0
    9.5088  -15.3461   22.1407 C   0  0  0  0  0  0  0  0  0  0  0  0
    9.9714  -14.1737   22.0797 O   0  0  0  0  0  0  0  0  0  0  0  0
   10.3380  -16.3999   22.6120 N   0  0  0  0  0  0  0  0  0  0  0  0
   10.8334  -16.3706   23.9978 C   0  0  1  0  0  0  0  0  0  0  0  0
    9.7000  -16.2204   24.9355 C   0  0  0  0  0  0  0  0  0  0  0  0
   10.1204  -16.3391   26.3355 C   0  0  0  0  0  0  0  0  0  0  0  0
   10.3409  -17.4604   27.0742 C   0  0  0  0  0  0  0  0  0  0  0  0
   10.6659  -17.0951   28.3429 N   0  0  0  0  0  0  0  0  0  0  0  0
   10.6603  -15.7513   28.4307 C   0  0  0  0  0  0  0  0  0  0  0  0
   10.9367  -14.8796   29.4894 C   0  0  0  0  0  0  0  0  0  0  0  0
   10.8879  -13.5242   29.3286 C   0  0  0  0  0  0  0  0  0  0  0  0
   10.5458  -13.0348   28.0611 C   0  0  0  0  0  0  0  0  0  0  0  0
   10.2711  -13.8934   27.0245 C   0  0  0  0  0  0  0  0  0  0  0  0
   10.3254  -15.2595   27.1991 C   0  0  0  0  0  0  0  0  0  0  0  0
   11.7201  -17.5162   24.1409 C   0  0  0  0  0  0  0  0  0  0  0  0
   12.7551  -17.4497   24.8321 O   0  0  0  0  0  0  0  0  0  0  0  0
   11.4815  -18.7619   23.5222 O   0  0  0  0  0  0  0  0  0  0  0  0
  2  1  1  6
  3  2  1  0
  4  3  1  0
  4  5  2  0
  6  5  1  0
  7  6  2  0
  8  9  2  0
  8  7  1  0
  9  4  1  0
 10 11  2  0
 10  2  1  0
 13 12  1  0
 14 13  1  0
 15 14  1  0
 16 15  1  1
 16 17  1  0
 17 10  1  0
 18 16  1  0
 19 18  2  0
 20 18  1  0
 21 20  1  0
 22 23  1  0
 21 22  1  1
 23 31  1  0
 24 23  2  0
 24 25  1  0
 25 26  1  0
 26 27  1  0
 27 28  2  0
 29 28  1  0
 30 29  2  0
 31 26  2  0
 31 30  1  0
 32 34  1  0
 32 21  1  0
 33 32  2  0
M  END
$$$$
