FMW.pdb
     RDKit          3D

 34 36  0  0  1  0  0  0  0  0999 V2000
    5.4525  -18.1181   25.2182 N   0  0  0  0  0  0  0  0  0  0  0  0
    6.1778  -16.8816   25.0607 C   0  0  1  0  0  0  0  0  0  0  0  0
    6.9992  -16.7376   26.3401 C   0  0  0  0  0  0  0  0  0  0  0  0
    7.4054  -15.3098   26.4209 C   0  0  0  0  0  0  0  0  0  0  0  0
    6.4461  -14.3002   26.5520 C   0  0  0  0  0  0  0  0  0  0  0  0
    6.7924  -12.9605   26.6361 C   0  0  0  0  0  0  0  0  0  0  0  0
    8.1201  -12.5918   26.5904 C   0  0  0  0  0  0  0  0  0  0  0  0
    9.0929  -13.5753   26.4610 C   0  0  0  0  0  0  0  0  0  0  0  0
    8.7188  -14.8971   26.3799 C   0  0  0  0  0  0  0  0  0  0  0  0
    7.0487  -16.8541   23.8679 C   0  0  0  0  0  0  0  0  0  0  0  0
    7.6399  -17.8704   23.5138 O   0  0  0  0  0  0  0  0  0  0  0  0
    7.9638  -13.1966   17.2055 C   0  0  0  0  0  0  0  0  0  0  0  0
    8.1281  -12.7176   18.9401 S   0  0  0  0  0  0  0  0  0  0  0  0
    8.6153  -14.1386   19.9735 C   0  0  0  0  0  0  0  0  0  0  0  0
    7.7285  -14.2463   21.1971 C   0  0  0  0  0  0  0  0  0  0  0  0
    8.0516  -15.4639   22.0237 C   0  0  2  0  0  0  0  0  0  0  0  0
    7.1946  -15.6744   23.1384 N   0  0  0  0  0  0  0  0  0  0  0  0
    9.4543  -15.3131   22.4604 C   0  0  0  0  0  0  0  0  0  0  0  0
   10.0977  -14.3025   22.0643 O   0  0  0  0  0  0  0  0  0  0  0  0
   10.0968  -16.2658   23.2969 N   0  0  0  0  0  0  0  0  0  0  0  0
   11.4655  -16.0085   23.7735 C   0  0  1  0  0  0  0  0  0  0  0  0
   11.6824  -16.6823   25.0718 C   0  0  0  0  0  0  0  0  0  0  0  0
   10.5086  -16.5898   25.9463 C   0  0  0  0  0  0  0  0  0  0  0  0
    9.4314  -17.4171   26.0286 C   0  0  0  0  0  0  0  0  0  0  0  0
    8.5592  -16.9146   26.9427 N   0  0  0  0  0  0  0  0  0  0  0  0
    9.0623  -15.7744   27.4529 C   0  0  0  0  0  0  0  0  0  0  0  0
    8.5807  -14.8881   28.4223 C   0  0  0  0  0  0  0  0  0  0  0  0
    9.2954  -13.7874   28.8004 C   0  0  0  0  0  0  0  0  0  0  0  0
   10.5320  -13.5735   28.1775 C   0  0  0  0  0  0  0  0  0  0  0  0
   11.0005  -14.4435   27.2230 C   0  0  0  0  0  0  0  0  0  0  0  0
   10.2704  -15.5519   26.8514 C   0  0  0  0  0  0  0  0  0  0  0  0
   12.3522  -16.3182   22.6614 C   0  0  0  0  0  0  0  0  0  0  0  0
   13.5460  -15.9600   22.6679 O   0  0  0  0  0  0  0  0  0  0  0  0
   11.9381  -17.0317   21.5164 O   0  0  0  0  0  0  0  0  0  0  0  0
  2  1  1  1
  3  2  1  0
  4  3  1  0
  4  5  2  0
  6  5  1  0
  7  6  2  0
  8  9  2  0
  8  7  1  0
  9  4  1  0
 10 11  2  0
 10  2  1  0
 13 12  1  0
 14 13  1  0
 15 14  1  0
 16 15  1  1
 16 17  1  0
 17 10  1  0
 18 16  1  0
 19 18  2  0
 20 18  1  0
 21 20  1  0
 22 23  1  0
 21 22  1  1
 23 31  1  0
 24 23  2  0
 24 25  1  0
 25 26  1  0
 26 27  1  0
 27 28  2  0
 29 28  1  0
 30 29  2  0
 31 26  2  0
 31 30  1  0
 32 34  1  0
 32 21  1  0
 33 32  2  0
M  END
$$$$
