YKW.pdb
     RDKit          3D

 36 38  0  0  1  0  0  0  0  0999 V2000
   22.8148  -13.7031  -20.3047 O   0  0  0  0  0  0  0  0  0  0  0  0
   22.5709  -14.5411  -19.2239 C   0  0  0  0  0  0  0  0  0  0  0  0
   22.6791  -15.8986  -19.4339 C   0  0  0  0  0  0  0  0  0  0  0  0
   22.4526  -16.7973  -18.4114 C   0  0  0  0  0  0  0  0  0  0  0  0
   22.1128  -16.3631  -17.1557 C   0  0  0  0  0  0  0  0  0  0  0  0
   21.8718  -17.3385  -16.0621 C   0  0  0  0  0  0  0  0  0  0  0  0
   23.1463  -17.4125  -15.2391 C   0  0  2  0  0  0  0  0  0  0  0  0
   24.2305  -17.8898  -16.0572 N   0  0  0  0  0  0  0  0  0  0  0  0
   22.9346  -18.2765  -14.0506 C   0  0  0  0  0  0  0  0  0  0  0  0
   21.8017  -18.2873  -13.4650 O   0  0  0  0  0  0  0  0  0  0  0  0
   22.0113  -14.9967  -16.9736 C   0  0  0  0  0  0  0  0  0  0  0  0
   22.2347  -14.0960  -17.9840 C   0  0  0  0  0  0  0  0  0  0  0  0
   24.0163  -19.0730  -13.5996 N   0  0  0  0  0  0  0  0  0  0  0  0
   23.7910  -20.3342  -12.9301 C   0  0  1  0  0  0  0  0  0  0  0  0
   23.6112  -21.4501  -13.9491 C   0  0  0  0  0  0  0  0  0  0  0  0
   23.4024  -22.7768  -13.2549 C   0  0  0  0  0  0  0  0  0  0  0  0
   23.3056  -23.9315  -14.2198 C   0  0  0  0  0  0  0  0  0  0  0  0
   22.7144  -25.1690  -13.5614 C   0  0  0  0  0  0  0  0  0  0  0  0
   23.7326  -25.8232  -12.7514 N   0  0  0  0  0  0  0  0  0  0  0  0
   24.9406  -20.5988  -12.0377 C   0  0  0  0  0  0  0  0  0  0  0  0
   25.9970  -21.0570  -12.5241 O   0  0  0  0  0  0  0  0  0  0  0  0
   24.9155  -20.3578  -10.6270 N   0  0  0  0  0  0  0  0  0  0  0  0
   25.9270  -20.7993   -9.7298 C   0  0  1  0  0  0  0  0  0  0  0  0
   26.8073  -19.6673   -9.2954 C   0  0  0  0  0  0  0  0  0  0  0  0
   27.9214  -20.0196   -8.4186 C   0  0  0  0  0  0  0  0  0  0  0  0
   28.8867  -20.9795   -8.7101 C   0  0  0  0  0  0  0  0  0  0  0  0
   29.7077  -21.0225   -7.6657 N   0  0  0  0  0  0  0  0  0  0  0  0
   29.3218  -20.1423   -6.7209 C   0  0  0  0  0  0  0  0  0  0  0  0
   29.8487  -19.8255   -5.4935 C   0  0  0  0  0  0  0  0  0  0  0  0
   29.2730  -18.8595   -4.6832 C   0  0  0  0  0  0  0  0  0  0  0  0
   28.1399  -18.1921   -5.1116 C   0  0  0  0  0  0  0  0  0  0  0  0
   27.6264  -18.5255   -6.3474 C   0  0  0  0  0  0  0  0  0  0  0  0
   28.1803  -19.4853   -7.1755 C   0  0  0  0  0  0  0  0  0  0  0  0
   25.4008  -21.5437   -8.5637 C   0  0  0  0  0  0  0  0  0  0  0  0
   24.2215  -21.4380   -8.1396 O   0  0  0  0  0  0  0  0  0  0  0  0
   26.2499  -22.4112   -7.8919 O   0  0  0  0  0  0  0  0  0  0  0  0
  2  3  2  0
  2  1  1  0
  4  3  1  0
  5  4  2  0
  6  5  1  0
  7  6  1  0
  7  8  1  6
  9  7  1  0
 10  9  2  0
 11  5  1  0
 11 12  2  0
 12  2  1  0
 13  9  1  0
 14 20  1  0
 14 13  1  0
 14 15  1  6
 16 15  1  0
 17 16  1  0
 18 19  1  0
 18 17  1  0
 20 22  1  0
 21 20  2  0
 22 23  1  0
 23 34  1  0
 23 24  1  1
 24 25  1  0
 25 33  1  0
 26 27  1  0
 26 25  2  0
 27 28  1  0
 28 33  2  0
 28 29  1  0
 29 30  2  0
 30 31  1  0
 32 31  2  0
 33 32  1  0
 34 35  2  0
 34 36  1  0
M  END
$$$$
