YKW.pdb
     RDKit          3D

 36 38  0  0  1  0  0  0  0  0999 V2000
   38.5414  -35.8158  -19.8776 O   0  0  0  0  0  0  0  0  0  0  0  0
   37.4094  -35.0696  -19.5746 C   0  0  0  0  0  0  0  0  0  0  0  0
   36.5108  -35.6110  -18.6812 C   0  0  0  0  0  0  0  0  0  0  0  0
   35.3620  -34.9326  -18.3281 C   0  0  0  0  0  0  0  0  0  0  0  0
   35.0827  -33.6989  -18.8577 C   0  0  0  0  0  0  0  0  0  0  0  0
   33.8440  -32.9770  -18.4705 C   0  0  0  0  0  0  0  0  0  0  0  0
   34.2397  -31.9236  -17.4503 C   0  0  2  0  0  0  0  0  0  0  0  0
   34.3344  -32.5190  -16.1431 N   0  0  0  0  0  0  0  0  0  0  0  0
   33.2667  -30.8027  -17.4732 C   0  0  0  0  0  0  0  0  0  0  0  0
   32.2835  -30.7963  -16.6611 O   0  0  0  0  0  0  0  0  0  0  0  0
   36.0012  -33.1802  -19.7509 C   0  0  0  0  0  0  0  0  0  0  0  0
   37.1457  -33.8471  -20.1077 C   0  0  0  0  0  0  0  0  0  0  0  0
   33.4668  -29.7604  -18.4122 N   0  0  0  0  0  0  0  0  0  0  0  0
   32.5757  -28.6238  -18.4723 C   0  0  1  0  0  0  0  0  0  0  0  0
   33.2332  -27.4744  -19.2223 C   0  0  0  0  0  0  0  0  0  0  0  0
   34.4103  -26.9337  -18.4426 C   0  0  0  0  0  0  0  0  0  0  0  0
   35.1495  -25.8463  -19.1810 C   0  0  0  0  0  0  0  0  0  0  0  0
   36.3208  -25.3104  -18.3715 C   0  0  0  0  0  0  0  0  0  0  0  0
   37.1049  -24.3994  -19.1937 N   0  0  0  0  0  0  0  0  0  0  0  0
   31.3217  -29.0502  -19.1308 C   0  0  0  0  0  0  0  0  0  0  0  0
   31.3761  -29.8716  -20.0715 O   0  0  0  0  0  0  0  0  0  0  0  0
   30.0282  -28.5708  -18.7492 N   0  0  0  0  0  0  0  0  0  0  0  0
   28.8937  -29.4095  -18.5695 C   0  0  1  0  0  0  0  0  0  0  0  0
   29.2107  -30.5802  -17.6897 C   0  0  0  0  0  0  0  0  0  0  0  0
   28.1275  -31.5374  -17.4786 C   0  0  0  0  0  0  0  0  0  0  0  0
   27.3280  -32.0651  -18.4888 C   0  0  0  0  0  0  0  0  0  0  0  0
   26.4534  -32.8733  -17.8985 N   0  0  0  0  0  0  0  0  0  0  0  0
   26.6488  -32.8929  -16.5651 C   0  0  0  0  0  0  0  0  0  0  0  0
   26.0119  -33.5706  -15.5554 C   0  0  0  0  0  0  0  0  0  0  0  0
   26.4025  -33.4375  -14.2322 C   0  0  0  0  0  0  0  0  0  0  0  0
   27.4583  -32.6044  -13.9097 C   0  0  0  0  0  0  0  0  0  0  0  0
   28.0843  -31.9326  -14.9388 C   0  0  0  0  0  0  0  0  0  0  0  0
   27.7149  -32.0468  -16.2670 C   0  0  0  0  0  0  0  0  0  0  0  0
   27.6945  -28.6887  -18.0869 C   0  0  0  0  0  0  0  0  0  0  0  0
   27.7359  -27.7117  -17.2959 O   0  0  0  0  0  0  0  0  0  0  0  0
   26.4468  -29.1073  -18.5263 O   0  0  0  0  0  0  0  0  0  0  0  0
  2  3  2  0
  2  1  1  0
  4  3  1  0
  5  4  2  0
  6  5  1  0
  7  6  1  0
  7  8  1  1
  9  7  1  0
 10  9  2  0
 11  5  1  0
 11 12  2  0
 12  2  1  0
 13  9  1  0
 14 20  1  0
 14 13  1  0
 14 15  1  6
 16 15  1  0
 17 16  1  0
 18 19  1  0
 18 17  1  0
 20 22  1  0
 21 20  2  0
 22 23  1  0
 23 34  1  0
 23 24  1  1
 24 25  1  0
 25 33  1  0
 26 27  1  0
 26 25  2  0
 27 28  1  0
 28 33  2  0
 28 29  1  0
 29 30  2  0
 30 31  1  0
 32 31  2  0
 33 32  1  0
 34 35  2  0
 34 36  1  0
M  END
$$$$
