YKW.pdb
     RDKit          3D

 36 38  0  0  1  0  0  0  0  0999 V2000
   29.5985  -19.0969  -24.1398 O   0  0  0  0  0  0  0  0  0  0  0  0
   28.5790  -19.6915  -23.4069 C   0  0  0  0  0  0  0  0  0  0  0  0
   28.4408  -21.0591  -23.5024 C   0  0  0  0  0  0  0  0  0  0  0  0
   27.4530  -21.7249  -22.8056 C   0  0  0  0  0  0  0  0  0  0  0  0
   26.5801  -21.0424  -21.9977 C   0  0  0  0  0  0  0  0  0  0  0  0
   25.5210  -21.7686  -21.2518 C   0  0  0  0  0  0  0  0  0  0  0  0
   25.8216  -21.6029  -19.7721 C   0  0  2  0  0  0  0  0  0  0  0  0
   27.1128  -22.1626  -19.4690 N   0  0  0  0  0  0  0  0  0  0  0  0
   24.7478  -22.2307  -18.9617 C   0  0  0  0  0  0  0  0  0  0  0  0
   24.9861  -23.2990  -18.3072 O   0  0  0  0  0  0  0  0  0  0  0  0
   26.7418  -19.6719  -21.9208 C   0  0  0  0  0  0  0  0  0  0  0  0
   27.7207  -19.0015  -22.6096 C   0  0  0  0  0  0  0  0  0  0  0  0
   23.4735  -21.6114  -18.9425 N   0  0  0  0  0  0  0  0  0  0  0  0
   22.3822  -22.1648  -18.1728 C   0  0  1  0  0  0  0  0  0  0  0  0
   21.4320  -21.0609  -17.7317 C   0  0  0  0  0  0  0  0  0  0  0  0
   21.9566  -19.7069  -18.1525 C   0  0  0  0  0  0  0  0  0  0  0  0
   21.0345  -18.5779  -17.7664 C   0  0  0  0  0  0  0  0  0  0  0  0
   21.5078  -17.2456  -18.3278 C   0  0  0  0  0  0  0  0  0  0  0  0
   20.6092  -16.1861  -17.8909 N   0  0  0  0  0  0  0  0  0  0  0  0
   21.6893  -23.1719  -19.0057 C   0  0  0  0  0  0  0  0  0  0  0  0
   21.7118  -23.0535  -20.2499 O   0  0  0  0  0  0  0  0  0  0  0  0
   20.9829  -24.2924  -18.4635 N   0  0  0  0  0  0  0  0  0  0  0  0
   20.2576  -25.2284  -19.2514 C   0  0  1  0  0  0  0  0  0  0  0  0
   19.9273  -26.4637  -18.4704 C   0  0  0  0  0  0  0  0  0  0  0  0
   19.2856  -27.5433  -19.2165 C   0  0  0  0  0  0  0  0  0  0  0  0
   19.9174  -28.3266  -20.1785 C   0  0  0  0  0  0  0  0  0  0  0  0
   19.0034  -29.1749  -20.6385 N   0  0  0  0  0  0  0  0  0  0  0  0
   17.8202  -28.9784  -20.0237 C   0  0  0  0  0  0  0  0  0  0  0  0
   16.6048  -29.6031  -20.1541 C   0  0  0  0  0  0  0  0  0  0  0  0
   15.5096  -29.2276  -19.3920 C   0  0  0  0  0  0  0  0  0  0  0  0
   15.6329  -28.1999  -18.4747 C   0  0  0  0  0  0  0  0  0  0  0  0
   16.8623  -27.5854  -18.3594 C   0  0  0  0  0  0  0  0  0  0  0  0
   17.9708  -27.9397  -19.1073 C   0  0  0  0  0  0  0  0  0  0  0  0
   19.0474  -24.6581  -19.8845 C   0  0  0  0  0  0  0  0  0  0  0  0
   18.1904  -23.9747  -19.2677 O   0  0  0  0  0  0  0  0  0  0  0  0
   18.8363  -24.8847  -21.2369 O   0  0  0  0  0  0  0  0  0  0  0  0
  2  3  2  0
  2  1  1  0
  4  3  1  0
  5  4  2  0
  6  5  1  0
  7  6  1  0
  7  8  1  6
  9  7  1  0
 10  9  2  0
 11  5  1  0
 11 12  2  0
 12  2  1  0
 13  9  1  0
 14 20  1  0
 14 13  1  0
 14 15  1  6
 16 15  1  0
 17 16  1  0
 18 19  1  0
 18 17  1  0
 20 22  1  0
 21 20  2  0
 22 23  1  0
 23 34  1  0
 23 24  1  1
 24 25  1  0
 25 33  1  0
 26 27  1  0
 26 25  2  0
 27 28  1  0
 28 33  2  0
 28 29  1  0
 29 30  2  0
 30 31  1  0
 32 31  2  0
 33 32  1  0
 34 35  2  0
 34 36  1  0
M  END
$$$$
