YKW.pdb
     RDKit          3D

 36 38  0  0  1  0  0  0  0  0999 V2000
   28.4876  -10.8058  -16.6735 O   0  0  0  0  0  0  0  0  0  0  0  0
   27.7832  -12.0001  -16.7605 C   0  0  0  0  0  0  0  0  0  0  0  0
   27.0491  -12.2240  -17.9049 C   0  0  0  0  0  0  0  0  0  0  0  0
   26.3221  -13.3856  -18.0681 C   0  0  0  0  0  0  0  0  0  0  0  0
   26.3101  -14.3507  -17.0939 C   0  0  0  0  0  0  0  0  0  0  0  0
   25.5249  -15.5974  -17.2797 C   0  0  0  0  0  0  0  0  0  0  0  0
   26.4813  -16.6553  -17.8026 C   0  0  2  0  0  0  0  0  0  0  0  0
   26.8536  -16.3512  -19.1595 N   0  0  0  0  0  0  0  0  0  0  0  0
   25.8619  -17.9999  -17.6921 C   0  0  0  0  0  0  0  0  0  0  0  0
   25.0303  -18.3924  -18.5756 O   0  0  0  0  0  0  0  0  0  0  0  0
   27.0551  -14.0997  -15.9570 C   0  0  0  0  0  0  0  0  0  0  0  0
   27.7808  -12.9481  -15.7861 C   0  0  0  0  0  0  0  0  0  0  0  0
   26.2219  -18.8152  -16.5904 N   0  0  0  0  0  0  0  0  0  0  0  0
   25.6212  -20.1149  -16.3913 C   0  0  1  0  0  0  0  0  0  0  0  0
   26.5992  -21.0491  -15.6938 C   0  0  0  0  0  0  0  0  0  0  0  0
   27.5320  -21.6890  -16.6967 C   0  0  0  0  0  0  0  0  0  0  0  0
   28.6261  -22.4960  -16.0441 C   0  0  0  0  0  0  0  0  0  0  0  0
   29.6400  -22.9983  -17.0610 C   0  0  0  0  0  0  0  0  0  0  0  0
   30.8183  -23.4995  -16.3673 N   0  0  0  0  0  0  0  0  0  0  0  0
   24.3846  -19.9392  -15.5988 C   0  0  0  0  0  0  0  0  0  0  0  0
   24.3957  -19.1682  -14.6149 O   0  0  0  0  0  0  0  0  0  0  0  0
   23.1557  -20.6102  -15.8958 N   0  0  0  0  0  0  0  0  0  0  0  0
   21.9541  -20.4263  -15.1574 C   0  0  1  0  0  0  0  0  0  0  0  0
   21.5680  -18.9801  -15.0890 C   0  0  0  0  0  0  0  0  0  0  0  0
   20.1418  -18.7022  -14.9380 C   0  0  0  0  0  0  0  0  0  0  0  0
   19.4757  -18.6162  -13.7186 C   0  0  0  0  0  0  0  0  0  0  0  0
   18.1992  -18.3739  -13.9988 N   0  0  0  0  0  0  0  0  0  0  0  0
   18.0107  -18.2995  -15.3312 C   0  0  0  0  0  0  0  0  0  0  0  0
   16.8888  -18.0637  -16.0864 C   0  0  0  0  0  0  0  0  0  0  0  0
   16.9403  -18.0232  -17.4709 C   0  0  0  0  0  0  0  0  0  0  0  0
   18.1461  -18.2238  -18.1180 C   0  0  0  0  0  0  0  0  0  0  0  0
   19.2610  -18.4594  -17.3410 C   0  0  0  0  0  0  0  0  0  0  0  0
   19.2376  -18.5056  -15.9586 C   0  0  0  0  0  0  0  0  0  0  0  0
   20.8284  -21.2566  -15.6412 C   0  0  0  0  0  0  0  0  0  0  0  0
   20.6855  -21.6132  -16.8388 O   0  0  0  0  0  0  0  0  0  0  0  0
   19.8692  -21.6711  -14.7285 O   0  0  0  0  0  0  0  0  0  0  0  0
  2  3  2  0
  2  1  1  0
  4  3  1  0
  5  4  2  0
  6  5  1  0
  7  6  1  0
  7  8  1  6
  9  7  1  0
 10  9  2  0
 11  5  1  0
 11 12  2  0
 12  2  1  0
 13  9  1  0
 14 20  1  0
 14 13  1  0
 14 15  1  1
 16 15  1  0
 17 16  1  0
 18 19  1  0
 18 17  1  0
 20 22  1  0
 21 20  2  0
 22 23  1  0
 23 34  1  0
 23 24  1  6
 24 25  1  0
 25 33  1  0
 26 27  1  0
 26 25  2  0
 27 28  1  0
 28 33  2  0
 28 29  1  0
 29 30  2  0
 30 31  1  0
 32 31  2  0
 33 32  1  0
 34 35  2  0
 34 36  1  0
M  END
$$$$
