YKW.pdb
     RDKit          3D

 36 38  0  0  1  0  0  0  0  0999 V2000
   24.4649  -14.7416  -23.3602 O   0  0  0  0  0  0  0  0  0  0  0  0
   24.1245  -15.6743  -22.3885 C   0  0  0  0  0  0  0  0  0  0  0  0
   23.9059  -15.2101  -21.1097 C   0  0  0  0  0  0  0  0  0  0  0  0
   23.5638  -16.0727  -20.0882 C   0  0  0  0  0  0  0  0  0  0  0  0
   23.4320  -17.4182  -20.3182 C   0  0  0  0  0  0  0  0  0  0  0  0
   23.0630  -18.3378  -19.2121 C   0  0  0  0  0  0  0  0  0  0  0  0
   24.3014  -19.1488  -18.8717 C   0  0  2  0  0  0  0  0  0  0  0  0
   24.6529  -19.9951  -19.9819 N   0  0  0  0  0  0  0  0  0  0  0  0
   24.0699  -19.9353  -17.6342 C   0  0  0  0  0  0  0  0  0  0  0  0
   23.3641  -20.9966  -17.6770 O   0  0  0  0  0  0  0  0  0  0  0  0
   23.6571  -17.8559  -21.6098 C   0  0  0  0  0  0  0  0  0  0  0  0
   23.9974  -17.0059  -22.6314 C   0  0  0  0  0  0  0  0  0  0  0  0
   24.6508  -19.4726  -16.4274 N   0  0  0  0  0  0  0  0  0  0  0  0
   24.4405  -20.1693  -15.1784 C   0  0  1  0  0  0  0  0  0  0  0  0
   25.4748  -19.7361  -14.1496 C   0  0  0  0  0  0  0  0  0  0  0  0
   25.2527  -20.4523  -12.8368 C   0  0  0  0  0  0  0  0  0  0  0  0
   25.5439  -21.9295  -12.9213 C   0  0  0  0  0  0  0  0  0  0  0  0
   25.3081  -22.6281  -11.5906 C   0  0  0  0  0  0  0  0  0  0  0  0
   25.5020  -24.0623  -11.7523 N   0  0  0  0  0  0  0  0  0  0  0  0
   23.0653  -19.8853  -14.7132 C   0  0  0  0  0  0  0  0  0  0  0  0
   22.7420  -18.7067  -14.4509 O   0  0  0  0  0  0  0  0  0  0  0  0
   22.0662  -20.8958  -14.5426 N   0  0  0  0  0  0  0  0  0  0  0  0
   20.7571  -20.6402  -14.0484 C   0  0  1  0  0  0  0  0  0  0  0  0
   20.0299  -19.6511  -14.9075 C   0  0  0  0  0  0  0  0  0  0  0  0
   19.6882  -20.0995  -16.2552 C   0  0  0  0  0  0  0  0  0  0  0  0
   19.1870  -21.3601  -16.5680 C   0  0  0  0  0  0  0  0  0  0  0  0
   19.0257  -21.3886  -17.8870 N   0  0  0  0  0  0  0  0  0  0  0  0
   19.3957  -20.2151  -18.4368 C   0  0  0  0  0  0  0  0  0  0  0  0
   19.4018  -19.7735  -19.7366 C   0  0  0  0  0  0  0  0  0  0  0  0
   19.8261  -18.4962  -20.0678 C   0  0  0  0  0  0  0  0  0  0  0  0
   20.2557  -17.6371  -19.0727 C   0  0  0  0  0  0  0  0  0  0  0  0
   20.2418  -18.1004  -17.7737 C   0  0  0  0  0  0  0  0  0  0  0  0
   19.8242  -19.3696  -17.4156 C   0  0  0  0  0  0  0  0  0  0  0  0
   19.9510  -21.8647  -13.8453 C   0  0  0  0  0  0  0  0  0  0  0  0
   18.8196  -21.8751  -13.2961 O   0  0  0  0  0  0  0  0  0  0  0  0
   20.4642  -23.0773  -14.2823 O   0  0  0  0  0  0  0  0  0  0  0  0
  2  3  2  0
  2  1  1  0
  4  3  1  0
  5  4  2  0
  6  5  1  0
  7  6  1  0
  7  8  1  6
  9  7  1  0
 10  9  2  0
 11  5  1  0
 11 12  2  0
 12  2  1  0
 13  9  1  0
 14 20  1  0
 14 13  1  0
 14 15  1  1
 16 15  1  0
 17 16  1  0
 18 19  1  0
 18 17  1  0
 20 22  1  0
 21 20  2  0
 22 23  1  0
 23 34  1  0
 23 24  1  6
 24 25  1  0
 25 33  1  0
 26 27  1  0
 26 25  2  0
 27 28  1  0
 28 33  2  0
 28 29  1  0
 29 30  2  0
 30 31  1  0
 32 31  2  0
 33 32  1  0
 34 35  2  0
 34 36  1  0
M  END
$$$$
