YKW.pdb
     RDKit          3D

 36 38  0  0  1  0  0  0  0  0999 V2000
   17.9459  -15.1443  -14.9877 O   0  0  0  0  0  0  0  0  0  0  0  0
   18.6639  -16.1403  -14.3378 C   0  0  0  0  0  0  0  0  0  0  0  0
   18.0006  -16.8863  -13.3880 C   0  0  0  0  0  0  0  0  0  0  0  0
   18.6433  -17.8941  -12.6983 C   0  0  0  0  0  0  0  0  0  0  0  0
   19.9624  -18.1812  -12.9396 C   0  0  0  0  0  0  0  0  0  0  0  0
   20.6445  -19.2682  -12.1922 C   0  0  0  0  0  0  0  0  0  0  0  0
   20.9621  -20.3676  -13.1911 C   0  0  2  0  0  0  0  0  0  0  0  0
   19.8425  -21.2656  -13.3034 N   0  0  0  0  0  0  0  0  0  0  0  0
   22.1990  -21.0813  -12.7856 C   0  0  0  0  0  0  0  0  0  0  0  0
   22.1291  -22.0733  -11.9872 O   0  0  0  0  0  0  0  0  0  0  0  0
   20.6027  -17.4173  -13.8971 C   0  0  0  0  0  0  0  0  0  0  0  0
   19.9720  -16.4137  -14.5877 C   0  0  0  0  0  0  0  0  0  0  0  0
   23.4359  -20.6286  -13.3081 N   0  0  0  0  0  0  0  0  0  0  0  0
   24.6682  -21.3336  -13.0357 C   0  0  1  0  0  0  0  0  0  0  0  0
   25.5364  -21.3845  -14.2845 C   0  0  0  0  0  0  0  0  0  0  0  0
   26.8518  -22.0694  -13.9911 C   0  0  0  0  0  0  0  0  0  0  0  0
   27.7839  -22.0755  -15.1766 C   0  0  0  0  0  0  0  0  0  0  0  0
   29.1362  -22.6787  -14.8280 C   0  0  0  0  0  0  0  0  0  0  0  0
   29.9616  -22.7487  -16.0258 N   0  0  0  0  0  0  0  0  0  0  0  0
   25.3615  -20.6460  -11.9246 C   0  0  0  0  0  0  0  0  0  0  0  0
   24.8254  -19.6479  -11.3964 O   0  0  0  0  0  0  0  0  0  0  0  0
   26.6304  -21.0618  -11.4094 N   0  0  0  0  0  0  0  0  0  0  0  0
   27.3215  -20.3865  -10.3656 C   0  0  1  0  0  0  0  0  0  0  0  0
   26.5044  -20.3343   -9.1107 C   0  0  0  0  0  0  0  0  0  0  0  0
   27.1026  -19.6231   -7.9835 C   0  0  0  0  0  0  0  0  0  0  0  0
   27.3202  -18.2488   -7.9388 C   0  0  0  0  0  0  0  0  0  0  0  0
   27.8959  -17.9929   -6.7685 N   0  0  0  0  0  0  0  0  0  0  0  0
   28.0589  -19.1280   -6.0604 C   0  0  0  0  0  0  0  0  0  0  0  0
   28.5895  -19.3640   -4.8164 C   0  0  0  0  0  0  0  0  0  0  0  0
   28.6436  -20.6409   -4.2802 C   0  0  0  0  0  0  0  0  0  0  0  0
   28.1541  -21.7109   -5.0071 C   0  0  0  0  0  0  0  0  0  0  0  0
   27.6256  -21.4523   -6.2545 C   0  0  0  0  0  0  0  0  0  0  0  0
   27.5597  -20.1886   -6.8135 C   0  0  0  0  0  0  0  0  0  0  0  0
   28.6721  -20.9307  -10.1005 C   0  0  0  0  0  0  0  0  0  0  0  0
   29.7090  -20.2232  -10.0214 O   0  0  0  0  0  0  0  0  0  0  0  0
   28.8139  -22.3000   -9.9277 O   0  0  0  0  0  0  0  0  0  0  0  0
  2  3  2  0
  2  1  1  0
  4  3  1  0
  5  4  2  0
  6  5  1  0
  7  6  1  0
  7  8  1  1
  9  7  1  0
 10  9  2  0
 11  5  1  0
 11 12  2  0
 12  2  1  0
 13  9  1  0
 14 20  1  0
 14 13  1  0
 14 15  1  6
 16 15  1  0
 17 16  1  0
 18 19  1  0
 18 17  1  0
 20 22  1  0
 21 20  2  0
 22 23  1  0
 23 34  1  0
 23 24  1  1
 24 25  1  0
 25 33  1  0
 26 27  1  0
 26 25  2  0
 27 28  1  0
 28 33  2  0
 28 29  1  0
 29 30  2  0
 30 31  1  0
 32 31  2  0
 33 32  1  0
 34 35  2  0
 34 36  1  0
M  END
$$$$
