YKW.pdb
     RDKit          3D

 36 38  0  0  1  0  0  0  0  0999 V2000
   19.4888  -27.7238  -19.0504 O   0  0  0  0  0  0  0  0  0  0  0  0
   20.4420  -27.1425  -18.2235 C   0  0  0  0  0  0  0  0  0  0  0  0
   21.2467  -27.9859  -17.4890 C   0  0  0  0  0  0  0  0  0  0  0  0
   22.2174  -27.4869  -16.6444 C   0  0  0  0  0  0  0  0  0  0  0  0
   22.4080  -26.1353  -16.5127 C   0  0  0  0  0  0  0  0  0  0  0  0
   23.4558  -25.6086  -15.6016 C   0  0  0  0  0  0  0  0  0  0  0  0
   24.6586  -25.2550  -16.4592 C   0  0  2  0  0  0  0  0  0  0  0  0
   25.3471  -26.4554  -16.8559 N   0  0  0  0  0  0  0  0  0  0  0  0
   25.5534  -24.3275  -15.7224 C   0  0  0  0  0  0  0  0  0  0  0  0
   26.4068  -24.7892  -14.8948 O   0  0  0  0  0  0  0  0  0  0  0  0
   21.5869  -25.3130  -17.2611 C   0  0  0  0  0  0  0  0  0  0  0  0
   20.6195  -25.8000  -18.1032 C   0  0  0  0  0  0  0  0  0  0  0  0
   25.4269  -22.9377  -15.9677 N   0  0  0  0  0  0  0  0  0  0  0  0
   26.1995  -21.9709  -15.2208 C   0  0  1  0  0  0  0  0  0  0  0  0
   26.3940  -20.7024  -16.0388 C   0  0  0  0  0  0  0  0  0  0  0  0
   27.1470  -19.6633  -15.2394 C   0  0  0  0  0  0  0  0  0  0  0  0
   27.3691  -18.3845  -16.0071 C   0  0  0  0  0  0  0  0  0  0  0  0
   28.1551  -17.3673  -15.1936 C   0  0  0  0  0  0  0  0  0  0  0  0
   28.4049  -16.1835  -16.0042 N   0  0  0  0  0  0  0  0  0  0  0  0
   25.4929  -21.6912  -13.9517 C   0  0  0  0  0  0  0  0  0  0  0  0
   24.3638  -21.1560  -13.9881 O   0  0  0  0  0  0  0  0  0  0  0  0
   26.0333  -22.0017  -12.6633 N   0  0  0  0  0  0  0  0  0  0  0  0
   25.3673  -21.7254  -11.4373 C   0  0  1  0  0  0  0  0  0  0  0  0
   26.1624  -22.2042  -10.2610 C   0  0  0  0  0  0  0  0  0  0  0  0
   26.4228  -21.2165   -9.2165 C   0  0  0  0  0  0  0  0  0  0  0  0
   25.5012  -20.2736   -8.7698 C   0  0  0  0  0  0  0  0  0  0  0  0
   26.1165  -19.5521   -7.8384 N   0  0  0  0  0  0  0  0  0  0  0  0
   27.3820  -19.9812   -7.6634 C   0  0  0  0  0  0  0  0  0  0  0  0
   28.3840  -19.5623   -6.8237 C   0  0  0  0  0  0  0  0  0  0  0  0
   29.6272  -20.1751   -6.8138 C   0  0  0  0  0  0  0  0  0  0  0  0
   29.8754  -21.2355   -7.6663 C   0  0  0  0  0  0  0  0  0  0  0  0
   28.8555  -21.6406   -8.5018 C   0  0  0  0  0  0  0  0  0  0  0  0
   27.6065  -21.0468   -8.5325 C   0  0  0  0  0  0  0  0  0  0  0  0
   24.9828  -20.3050  -11.2788 C   0  0  0  0  0  0  0  0  0  0  0  0
   25.7677  -19.3414  -11.4720 O   0  0  0  0  0  0  0  0  0  0  0  0
   23.6831  -20.0080  -10.8950 O   0  0  0  0  0  0  0  0  0  0  0  0
  2  3  2  0
  2  1  1  0
  4  3  1  0
  5  4  2  0
  6  5  1  0
  7  6  1  0
  7  8  1  1
  9  7  1  0
 10  9  2  0
 11  5  1  0
 11 12  2  0
 12  2  1  0
 13  9  1  0
 14 20  1  0
 14 13  1  0
 14 15  1  6
 16 15  1  0
 17 16  1  0
 18 19  1  0
 18 17  1  0
 20 22  1  0
 21 20  2  0
 22 23  1  0
 23 34  1  0
 23 24  1  1
 24 25  1  0
 25 33  1  0
 26 27  1  0
 26 25  2  0
 27 28  1  0
 28 33  2  0
 28 29  1  0
 29 30  2  0
 30 31  1  0
 32 31  2  0
 33 32  1  0
 34 35  2  0
 34 36  1  0
M  END
$$$$
