EYG.pdb
     RDKit          3D

 26 26  0  0  1  0  0  0  0  0999 V2000
   22.6768  -10.7028  -16.7647 N   0  0  0  0  0  0  0  0  0  0  0  0
   21.3774  -10.1148  -16.7343 C   0  0  1  0  0  0  0  0  0  0  0  0
   20.3628  -11.2039  -16.4104 C   0  0  0  0  0  0  0  0  0  0  0  0
   20.4526  -12.2983  -17.4442 C   0  0  0  0  0  0  0  0  0  0  0  0
   19.4930  -13.3706  -17.0382 C   0  0  0  0  0  0  0  0  0  0  0  0
   19.8759  -14.5585  -17.1251 O   0  0  0  0  0  0  0  0  0  0  0  0
   21.2386   -9.0256  -15.7320 C   0  0  0  0  0  0  0  0  0  0  0  0
   21.9963   -8.9729  -14.7260 O   0  0  0  0  0  0  0  0  0  0  0  0
   18.2286  -13.0999  -16.5814 O   0  0  0  0  0  0  0  0  0  0  0  0
   25.5687   -4.9871  -17.9643 O   0  0  0  0  0  0  0  0  0  0  0  0
   24.2976   -5.1488  -17.4306 C   0  0  0  0  0  0  0  0  0  0  0  0
   23.2609   -5.5491  -18.2308 C   0  0  0  0  0  0  0  0  0  0  0  0
   21.9875   -5.7118  -17.6993 C   0  0  0  0  0  0  0  0  0  0  0  0
   21.7169   -5.4816  -16.3677 C   0  0  0  0  0  0  0  0  0  0  0  0
   20.3520   -5.6689  -15.8623 C   0  0  0  0  0  0  0  0  0  0  0  0
   20.1636   -6.8740  -14.9969 C   0  0  2  0  0  0  0  0  0  0  0  0
   20.2622   -8.0403  -15.8929 N   0  0  0  0  0  0  0  0  0  0  0  0
   18.8473   -6.9460  -14.3351 C   0  0  0  0  0  0  0  0  0  0  0  0
   17.8149   -7.0849  -15.0350 O   0  0  0  0  0  0  0  0  0  0  0  0
   22.7734   -5.0796  -15.5796 C   0  0  0  0  0  0  0  0  0  0  0  0
   24.0516   -4.9129  -16.0975 C   0  0  0  0  0  0  0  0  0  0  0  0
   18.7199   -6.8630  -12.9415 N   0  0  0  0  0  0  0  0  0  0  0  0
   17.4707   -6.7808  -12.2364 C   0  0  0  0  0  0  0  0  0  0  0  0
   16.9950   -8.0704  -11.7349 C   0  0  0  0  0  0  0  0  0  0  0  0
   16.8643   -8.3099  -10.3823 O   0  0  0  0  0  0  0  0  0  0  0  0
   16.6983   -8.9803  -12.5399 O   0  0  0  0  0  0  0  0  0  0  0  0
  2  1  1  1
  2  7  1  0
  3  4  1  0
  3  2  1  0
  4  5  1  0
  5  6  2  0
  7  8  2  0
  9  5  1  0
 10 11  1  0
 11 21  2  0
 12 11  1  0
 12 13  2  0
 13 14  1  0
 14 20  2  0
 14 15  1  0
 16 15  1  6
 16 18  1  0
 17 16  1  0
 17  7  1  0
 18 19  2  0
 18 22  1  0
 21 20  1  0
 22 23  1  0
 24 25  1  0
 24 23  1  0
 26 24  2  0
M  END
$$$$
