EYG.pdb
     RDKit          3D

 26 26  0  0  1  0  0  0  0  0999 V2000
   26.3748  -20.1256  -16.1555 N   0  0  0  0  0  0  0  0  0  0  0  0
   26.3960  -21.5211  -15.8597 C   0  0  1  0  0  0  0  0  0  0  0  0
   27.6142  -22.1385  -16.5342 C   0  0  0  0  0  0  0  0  0  0  0  0
   27.7930  -21.5311  -17.9031 C   0  0  0  0  0  0  0  0  0  0  0  0
   26.6540  -22.0031  -18.7489 C   0  0  0  0  0  0  0  0  0  0  0  0
   26.5670  -23.2303  -18.9765 O   0  0  0  0  0  0  0  0  0  0  0  0
   26.4571  -21.8218  -14.4050 C   0  0  0  0  0  0  0  0  0  0  0  0
   26.5578  -23.0093  -13.9945 O   0  0  0  0  0  0  0  0  0  0  0  0
   25.7177  -21.1502  -19.2746 O   0  0  0  0  0  0  0  0  0  0  0  0
   27.6646  -20.4083   -5.7450 O   0  0  0  0  0  0  0  0  0  0  0  0
   27.5620  -20.3174   -7.1263 C   0  0  0  0  0  0  0  0  0  0  0  0
   28.4387  -20.9987   -7.9278 C   0  0  0  0  0  0  0  0  0  0  0  0
   28.3384  -20.9096   -9.3108 C   0  0  0  0  0  0  0  0  0  0  0  0
   27.3698  -20.1456   -9.9251 C   0  0  0  0  0  0  0  0  0  0  0  0
   27.3127  -20.0884  -11.3904 C   0  0  0  0  0  0  0  0  0  0  0  0
   26.3430  -21.0387  -12.0177 C   0  0  2  0  0  0  0  0  0  0  0  0
   26.4044  -20.7870  -13.4689 N   0  0  0  0  0  0  0  0  0  0  0  0
   24.9419  -20.8384  -11.6022 C   0  0  0  0  0  0  0  0  0  0  0  0
   24.2080  -20.0683  -12.2681 O   0  0  0  0  0  0  0  0  0  0  0  0
   26.4976  -19.4681   -9.1010 C   0  0  0  0  0  0  0  0  0  0  0  0
   26.5862  -19.5480   -7.7170 C   0  0  0  0  0  0  0  0  0  0  0  0
   24.4083  -21.4875  -10.4800 N   0  0  0  0  0  0  0  0  0  0  0  0
   23.0053  -21.6683  -10.2283 C   0  0  0  0  0  0  0  0  0  0  0  0
   22.3336  -20.4566   -9.7577 C   0  0  0  0  0  0  0  0  0  0  0  0
   21.0127  -20.4777   -9.3593 O   0  0  0  0  0  0  0  0  0  0  0  0
   22.9602  -19.3754   -9.7117 O   0  0  0  0  0  0  0  0  0  0  0  0
  2  1  1  1
  2  7  1  0
  3  4  1  0
  3  2  1  0
  4  5  1  0
  5  6  2  0
  7  8  2  0
  9  5  1  0
 10 11  1  0
 11 21  2  0
 12 11  1  0
 12 13  2  0
 13 14  1  0
 14 20  2  0
 14 15  1  0
 16 15  1  1
 16 18  1  0
 17 16  1  0
 17  7  1  0
 18 19  2  0
 18 22  1  0
 21 20  1  0
 22 23  1  0
 24 25  1  0
 24 23  1  0
 26 24  2  0
M  END
$$$$
