EYG.pdb
     RDKit          3D

 26 26  0  0  1  0  0  0  0  0999 V2000
   28.0246  -22.2381  -17.3591 N   0  0  0  0  0  0  0  0  0  0  0  0
   27.7101  -21.1227  -16.5271 C   0  0  1  0  0  0  0  0  0  0  0  0
   26.8692  -20.1415  -17.3335 C   0  0  0  0  0  0  0  0  0  0  0  0
   27.5450  -19.8664  -18.6535 C   0  0  0  0  0  0  0  0  0  0  0  0
   27.0350  -20.8765  -19.6307 C   0  0  0  0  0  0  0  0  0  0  0  0
   27.8771  -21.5314  -20.2845 O   0  0  0  0  0  0  0  0  0  0  0  0
   26.9603  -21.4888  -15.2966 C   0  0  0  0  0  0  0  0  0  0  0  0
   26.2233  -22.5109  -15.2693 O   0  0  0  0  0  0  0  0  0  0  0  0
   25.6977  -21.1052  -19.8309 O   0  0  0  0  0  0  0  0  0  0  0  0
   24.5333  -20.4951   -6.7225 O   0  0  0  0  0  0  0  0  0  0  0  0
   25.1349  -20.4631   -7.9729 C   0  0  0  0  0  0  0  0  0  0  0  0
   25.7855  -19.3343   -8.3950 C   0  0  0  0  0  0  0  0  0  0  0  0
   26.3886  -19.2995   -9.6462 C   0  0  0  0  0  0  0  0  0  0  0  0
   26.3591  -20.3795  -10.5017 C   0  0  0  0  0  0  0  0  0  0  0  0
   27.0128  -20.2847  -11.8121 C   0  0  0  0  0  0  0  0  0  0  0  0
   26.3012  -20.9928  -12.9207 C   0  0  2  0  0  0  0  0  0  0  0  0
   27.0637  -20.7012  -14.1481 N   0  0  0  0  0  0  0  0  0  0  0  0
   24.9195  -20.5292  -13.1485 C   0  0  0  0  0  0  0  0  0  0  0  0
   24.7242  -19.3606  -13.5623 O   0  0  0  0  0  0  0  0  0  0  0  0
   25.6996  -21.5054  -10.0583 C   0  0  0  0  0  0  0  0  0  0  0  0
   25.0922  -21.5543   -8.8099 C   0  0  0  0  0  0  0  0  0  0  0  0
   23.8168  -21.3625  -12.9140 N   0  0  0  0  0  0  0  0  0  0  0  0
   22.4436  -20.9595  -13.0415 C   0  0  0  0  0  0  0  0  0  0  0  0
   21.8594  -20.4664  -11.7939 C   0  0  0  0  0  0  0  0  0  0  0  0
   21.1480  -21.3007  -10.9562 O   0  0  0  0  0  0  0  0  0  0  0  0
   22.0021  -19.2666  -11.4712 O   0  0  0  0  0  0  0  0  0  0  0  0
  2  1  1  6
  2  7  1  0
  3  4  1  0
  3  2  1  0
  4  5  1  0
  5  6  2  0
  7  8  2  0
  9  5  1  0
 10 11  1  0
 11 21  2  0
 12 11  1  0
 12 13  2  0
 13 14  1  0
 14 20  2  0
 14 15  1  0
 16 15  1  1
 16 18  1  0
 17 16  1  0
 17  7  1  0
 18 19  2  0
 18 22  1  0
 21 20  1  0
 22 23  1  0
 24 25  1  0
 24 23  1  0
 26 24  2  0
M  END
$$$$
