EYG.pdb
     RDKit          3D

 26 26  0  0  1  0  0  0  0  0999 V2000
   24.0394  -24.0565  -16.2764 N   0  0  0  0  0  0  0  0  0  0  0  0
   22.9141  -24.2345  -15.4177 C   0  0  1  0  0  0  0  0  0  0  0  0
   23.0321  -25.5955  -14.7439 C   0  0  0  0  0  0  0  0  0  0  0  0
   22.7640  -26.6821  -15.7550 C   0  0  0  0  0  0  0  0  0  0  0  0
   24.0172  -26.8667  -16.5491 C   0  0  0  0  0  0  0  0  0  0  0  0
   23.9105  -26.9626  -17.7920 O   0  0  0  0  0  0  0  0  0  0  0  0
   22.7974  -23.1929  -14.3633 C   0  0  0  0  0  0  0  0  0  0  0  0
   21.8859  -23.2520  -13.4948 O   0  0  0  0  0  0  0  0  0  0  0  0
   25.2587  -26.9334  -15.9703 O   0  0  0  0  0  0  0  0  0  0  0  0
   26.0125  -20.4883   -7.4177 O   0  0  0  0  0  0  0  0  0  0  0  0
   25.7311  -20.5126   -8.7768 C   0  0  0  0  0  0  0  0  0  0  0  0
   26.6868  -20.9170   -9.6704 C   0  0  0  0  0  0  0  0  0  0  0  0
   26.4080  -20.9423  -11.0313 C   0  0  0  0  0  0  0  0  0  0  0  0
   25.1798  -20.5683  -11.5323 C   0  0  0  0  0  0  0  0  0  0  0  0
   24.9427  -20.6144  -12.9798 C   0  0  0  0  0  0  0  0  0  0  0  0
   23.5551  -21.0074  -13.3758 C   0  0  2  0  0  0  0  0  0  0  0  0
   23.7017  -22.1296  -14.3203 N   0  0  0  0  0  0  0  0  0  0  0  0
   22.8005  -19.9494  -14.0738 C   0  0  0  0  0  0  0  0  0  0  0  0
   23.4118  -18.9419  -14.5051 O   0  0  0  0  0  0  0  0  0  0  0  0
   24.2321  -20.1648  -10.6169 C   0  0  0  0  0  0  0  0  0  0  0  0
   24.4970  -20.1346   -9.2536 C   0  0  0  0  0  0  0  0  0  0  0  0
   21.4151  -20.0410  -14.2677 N   0  0  0  0  0  0  0  0  0  0  0  0
   20.6066  -19.0301  -14.8913 C   0  0  0  0  0  0  0  0  0  0  0  0
   19.1907  -19.3871  -14.9845 C   0  0  0  0  0  0  0  0  0  0  0  0
   18.2630  -18.5103  -15.5084 O   0  0  0  0  0  0  0  0  0  0  0  0
   18.8035  -20.5068  -14.5842 O   0  0  0  0  0  0  0  0  0  0  0  0
  2  1  1  1
  2  7  1  0
  3  4  1  0
  3  2  1  0
  4  5  1  0
  5  6  2  0
  7  8  2  0
  9  5  1  0
 10 11  1  0
 11 21  2  0
 12 11  1  0
 12 13  2  0
 13 14  1  0
 14 20  2  0
 14 15  1  0
 16 15  1  6
 16 18  1  0
 17 16  1  0
 17  7  1  0
 18 19  2  0
 18 22  1  0
 21 20  1  0
 22 23  1  0
 24 25  1  0
 24 23  1  0
 26 24  2  0
M  END
$$$$
