EYG.pdb
     RDKit          3D

 26 26  0  0  1  0  0  0  0  0999 V2000
   23.6091  -34.4754  -12.8279 N   0  0  0  0  0  0  0  0  0  0  0  0
   23.2393  -34.7163  -11.4713 C   0  0  1  0  0  0  0  0  0  0  0  0
   23.5254  -36.1765  -11.1454 C   0  0  0  0  0  0  0  0  0  0  0  0
   22.5913  -37.0601  -11.9339 C   0  0  0  0  0  0  0  0  0  0  0  0
   22.8992  -38.4746  -11.5602 C   0  0  0  0  0  0  0  0  0  0  0  0
   22.9248  -39.3267  -12.4760 O   0  0  0  0  0  0  0  0  0  0  0  0
   23.9651  -33.8624  -10.4943 C   0  0  0  0  0  0  0  0  0  0  0  0
   24.9066  -33.1117  -10.8668 O   0  0  0  0  0  0  0  0  0  0  0  0
   23.1501  -38.8626  -10.2690 O   0  0  0  0  0  0  0  0  0  0  0  0
   21.2044  -28.3158  -11.3547 O   0  0  0  0  0  0  0  0  0  0  0  0
   21.6639  -29.2579  -10.4448 C   0  0  0  0  0  0  0  0  0  0  0  0
   22.8510  -29.0613   -9.7909 C   0  0  0  0  0  0  0  0  0  0  0  0
   23.3135  -30.0026   -8.8795 C   0  0  0  0  0  0  0  0  0  0  0  0
   22.6107  -31.1543   -8.5988 C   0  0  0  0  0  0  0  0  0  0  0  0
   23.1489  -32.1137   -7.6275 C   0  0  0  0  0  0  0  0  0  0  0  0
   24.2412  -32.9907   -8.1514 C   0  0  2  0  0  0  0  0  0  0  0  0
   23.6110  -33.8802   -9.1436 N   0  0  0  0  0  0  0  0  0  0  0  0
   24.8681  -33.8535   -7.1324 C   0  0  0  0  0  0  0  0  0  0  0  0
   24.2348  -34.8434   -6.6921 O   0  0  0  0  0  0  0  0  0  0  0  0
   21.4189  -31.3333   -9.2671 C   0  0  0  0  0  0  0  0  0  0  0  0
   20.9444  -30.4006  -10.1807 C   0  0  0  0  0  0  0  0  0  0  0  0
   26.1559  -33.5951   -6.6423 N   0  0  0  0  0  0  0  0  0  0  0  0
   26.8141  -34.3646   -5.6229 C   0  0  0  0  0  0  0  0  0  0  0  0
   26.2001  -34.2334   -4.3014 C   0  0  0  0  0  0  0  0  0  0  0  0
   26.7116  -34.8951   -3.2040 O   0  0  0  0  0  0  0  0  0  0  0  0
   25.1912  -33.5094   -4.1529 O   0  0  0  0  0  0  0  0  0  0  0  0
  2  1  1  6
  2  7  1  0
  3  4  1  0
  3  2  1  0
  4  5  1  0
  5  6  2  0
  7  8  2  0
  9  5  1  0
 10 11  1  0
 11 21  2  0
 12 11  1  0
 12 13  2  0
 13 14  1  0
 14 20  2  0
 14 15  1  0
 16 15  1  1
 16 18  1  0
 17 16  1  0
 17  7  1  0
 18 19  2  0
 18 22  1  0
 21 20  1  0
 22 23  1  0
 24 25  1  0
 24 23  1  0
 26 24  2  0
M  END
$$$$
