EYG.pdb
     RDKit          3D

 26 26  0  0  1  0  0  0  0  0999 V2000
   31.7386  -35.3563   -0.4247 N   0  0  0  0  0  0  0  0  0  0  0  0
   31.0919  -35.9224    0.7140 C   0  0  1  0  0  0  0  0  0  0  0  0
   32.1041  -36.7735    1.4699 C   0  0  0  0  0  0  0  0  0  0  0  0
   31.4368  -37.4042    2.6665 C   0  0  0  0  0  0  0  0  0  0  0  0
   32.4756  -38.2093    3.3793 C   0  0  0  0  0  0  0  0  0  0  0  0
   33.0609  -37.6774    4.3489 O   0  0  0  0  0  0  0  0  0  0  0  0
   30.5339  -34.9094    1.6482 C   0  0  0  0  0  0  0  0  0  0  0  0
   31.2749  -34.0318    2.1674 O   0  0  0  0  0  0  0  0  0  0  0  0
   32.8027  -39.4894    3.0120 O   0  0  0  0  0  0  0  0  0  0  0  0
   24.1599  -29.6680    4.8267 O   0  0  0  0  0  0  0  0  0  0  0  0
   24.9980  -30.5188    4.1194 C   0  0  0  0  0  0  0  0  0  0  0  0
   26.3566  -30.3611    4.1890 C   0  0  0  0  0  0  0  0  0  0  0  0
   27.1980  -31.2113    3.4821 C   0  0  0  0  0  0  0  0  0  0  0  0
   26.7111  -32.2319    2.6943 C   0  0  0  0  0  0  0  0  0  0  0  0
   27.6478  -33.0983    1.9694 C   0  0  0  0  0  0  0  0  0  0  0  0
   28.5625  -33.8999    2.8398 C   0  0  2  0  0  0  0  0  0  0  0  0
   29.1737  -34.9161    1.9642 N   0  0  0  0  0  0  0  0  0  0  0  0
   27.8828  -34.6214    3.9322 C   0  0  0  0  0  0  0  0  0  0  0  0
   27.1165  -35.5757    3.6544 O   0  0  0  0  0  0  0  0  0  0  0  0
   25.3416  -32.3737    2.6378 C   0  0  0  0  0  0  0  0  0  0  0  0
   24.4885  -31.5311    3.3392 C   0  0  0  0  0  0  0  0  0  0  0  0
   28.0714  -34.2675    5.2755 N   0  0  0  0  0  0  0  0  0  0  0  0
   27.2701  -34.7444    6.3686 C   0  0  0  0  0  0  0  0  0  0  0  0
   27.2937  -36.1993    6.5214 C   0  0  0  0  0  0  0  0  0  0  0  0
   27.3754  -36.7885    7.7664 O   0  0  0  0  0  0  0  0  0  0  0  0
   27.2392  -36.9324    5.5096 O   0  0  0  0  0  0  0  0  0  0  0  0
  2  1  1  6
  2  7  1  0
  3  4  1  0
  3  2  1  0
  4  5  1  0
  5  6  2  0
  7  8  2  0
  9  5  1  0
 10 11  1  0
 11 21  2  0
 12 11  1  0
 12 13  2  0
 13 14  1  0
 14 20  2  0
 14 15  1  0
 16 15  1  6
 16 18  1  0
 17 16  1  0
 17  7  1  0
 18 19  2  0
 18 22  1  0
 21 20  1  0
 22 23  1  0
 24 25  1  0
 24 23  1  0
 26 24  2  0
M  END
$$$$
