LDP.pdb
     RDKit          3D

 24 24  0  0  1  0  0  0  0  0999 V2000
   28.9407  -17.2585  -16.2949 C   0  0  0  0  0  0  0  0  0  0  0  0
   28.3040  -18.0772  -17.3988 C   0  0  2  0  0  0  0  0  0  0  0  0
   27.4753  -17.1542  -18.2394 C   0  0  0  0  0  0  0  0  0  0  0  0
   27.4795  -19.1611  -16.7501 C   0  0  0  0  0  0  0  0  0  0  0  0
   28.2484  -19.9505  -15.7187 C   0  0  2  0  0  0  0  0  0  0  0  0
   28.9371  -21.0222  -16.4251 N   0  0  0  0  0  0  0  0  0  0  0  0
   27.2439  -20.5871  -14.8233 C   0  0  0  0  0  0  0  0  0  0  0  0
   26.5230  -21.5546  -15.1987 O   0  0  0  0  0  0  0  0  0  0  0  0
   27.0296  -20.1453  -13.4795 N   0  0  0  0  0  0  0  0  0  0  0  0
   25.9847  -20.7334  -12.6272 C   0  0  1  0  0  0  0  0  0  0  0  0
   26.3763  -20.3820  -11.2225 C   0  0  0  0  0  0  0  0  0  0  0  0
   25.2781  -20.8746  -10.3297 C   0  0  0  0  0  0  0  0  0  0  0  0
   24.2917  -20.1263  -10.0972 O   0  0  0  0  0  0  0  0  0  0  0  0
   24.6443  -20.3603  -13.0319 C   0  0  0  0  0  0  0  0  0  0  0  0
   24.5210  -19.1262  -13.3645 O   0  0  0  0  0  0  0  0  0  0  0  0
   25.2832  -22.1155   -9.7391 O   0  0  0  0  0  0  0  0  0  0  0  0
   23.4981  -21.1793  -13.0979 N   0  0  0  0  0  0  0  0  0  0  0  0
   23.2329  -22.5614  -12.7987 C   0  0  0  0  0  0  0  0  0  0  0  0
   22.5790  -23.0151  -14.0874 C   0  0  0  0  0  0  0  0  0  0  0  0
   21.5549  -21.9053  -14.2657 C   0  0  0  0  0  0  0  0  0  0  0  0
   22.1828  -20.7376  -13.5303 C   0  0  1  0  0  0  0  0  0  0  0  0
   21.3420  -20.3054  -12.3873 C   0  0  0  0  0  0  0  0  0  0  0  0
   20.1524  -19.6570  -12.6908 O   0  0  0  0  0  0  0  0  0  0  0  0
   21.6221  -20.4790  -11.1934 O   0  0  0  0  0  0  0  0  0  0  0  0
  2  1  1  1
  2  3  1  0
  4  2  1  0
  4  5  1  0
  5  6  1  6
  5  7  1  0
  7  8  2  0
  9  7  1  0
  9 10  1  0
 10 11  1  1
 12 11  1  0
 13 12  2  0
 14 10  1  0
 14 15  2  0
 16 12  1  0
 17 14  1  0
 18 17  1  0
 19 18  1  0
 20 19  1  0
 21 20  1  0
 21 17  1  0
 21 22  1  1
 23 22  1  0
 24 22  2  0
M  END
$$$$
