LDP.pdb
     RDKit          3D

 24 24  0  0  1  0  0  0  0  0999 V2000
   27.7585  -24.1738  -17.8219 C   0  0  0  0  0  0  0  0  0  0  0  0
   28.6964  -23.1095  -17.2908 C   0  0  2  0  0  0  0  0  0  0  0  0
   29.5521  -23.7347  -16.2315 C   0  0  0  0  0  0  0  0  0  0  0  0
   27.8529  -21.9789  -16.7563 C   0  0  0  0  0  0  0  0  0  0  0  0
   26.9357  -21.3835  -17.7966 C   0  0  2  0  0  0  0  0  0  0  0  0
   27.7057  -20.3846  -18.5256 N   0  0  0  0  0  0  0  0  0  0  0  0
   25.8598  -20.6618  -17.0634 C   0  0  0  0  0  0  0  0  0  0  0  0
   26.1106  -19.8171  -16.1577 O   0  0  0  0  0  0  0  0  0  0  0  0
   24.4721  -20.8772  -17.3367 N   0  0  0  0  0  0  0  0  0  0  0  0
   23.4185  -20.1205  -16.6429 C   0  0  1  0  0  0  0  0  0  0  0  0
   22.8194  -19.2275  -17.6886 C   0  0  0  0  0  0  0  0  0  0  0  0
   21.7812  -18.3921  -17.0029 C   0  0  0  0  0  0  0  0  0  0  0  0
   20.5768  -18.7604  -17.0325 O   0  0  0  0  0  0  0  0  0  0  0  0
   22.4942  -20.9680  -15.9169 C   0  0  0  0  0  0  0  0  0  0  0  0
   22.2158  -22.0712  -16.5120 O   0  0  0  0  0  0  0  0  0  0  0  0
   22.0697  -17.2277  -16.3323 O   0  0  0  0  0  0  0  0  0  0  0  0
   21.8874  -20.7203  -14.6681 N   0  0  0  0  0  0  0  0  0  0  0  0
   21.8803  -19.6055  -13.7586 C   0  0  0  0  0  0  0  0  0  0  0  0
   22.2769  -20.2863  -12.4649 C   0  0  0  0  0  0  0  0  0  0  0  0
   21.3103  -21.4600  -12.4803 C   0  0  0  0  0  0  0  0  0  0  0  0
   21.0320  -21.6560  -13.9577 C   0  0  1  0  0  0  0  0  0  0  0  0
   19.5981  -21.4397  -14.2696 C   0  0  0  0  0  0  0  0  0  0  0  0
   18.6972  -22.3675  -13.7644 O   0  0  0  0  0  0  0  0  0  0  0  0
   19.1509  -20.5006  -14.9419 O   0  0  0  0  0  0  0  0  0  0  0  0
  2  1  1  1
  2  3  1  0
  4  2  1  0
  4  5  1  0
  5  6  1  6
  5  7  1  0
  7  8  2  0
  9  7  1  0
  9 10  1  0
 10 11  1  6
 12 11  1  0
 13 12  2  0
 14 10  1  0
 14 15  2  0
 16 12  1  0
 17 14  1  0
 18 17  1  0
 19 18  1  0
 20 19  1  0
 21 20  1  0
 21 17  1  0
 21 22  1  1
 23 22  1  0
 24 22  2  0
M  END
$$$$
