LDP.pdb
     RDKit          3D

 24 24  0  0  1  0  0  0  0  0999 V2000
   24.6473  -16.1876  -15.2389 C   0  0  0  0  0  0  0  0  0  0  0  0
   25.7736  -15.7418  -16.1485 C   0  0  2  0  0  0  0  0  0  0  0  0
   27.0086  -15.5892  -15.3138 C   0  0  0  0  0  0  0  0  0  0  0  0
   25.3543  -14.4467  -16.7983 C   0  0  0  0  0  0  0  0  0  0  0  0
   24.0767  -14.5708  -17.5923 C   0  0  2  0  0  0  0  0  0  0  0  0
   24.3803  -15.3721  -18.7703 N   0  0  0  0  0  0  0  0  0  0  0  0
   23.7273  -13.2039  -18.0671 C   0  0  0  0  0  0  0  0  0  0  0  0
   24.3927  -12.6105  -18.9626 O   0  0  0  0  0  0  0  0  0  0  0  0
   22.6155  -12.4733  -17.5408 N   0  0  0  0  0  0  0  0  0  0  0  0
   22.2582  -11.1373  -18.0423 C   0  0  1  0  0  0  0  0  0  0  0  0
   20.8778  -11.2845  -18.6104 C   0  0  0  0  0  0  0  0  0  0  0  0
   20.5175   -9.9650  -19.2227 C   0  0  0  0  0  0  0  0  0  0  0  0
   19.6280   -9.2570  -18.6798 O   0  0  0  0  0  0  0  0  0  0  0  0
   22.4371  -10.0927  -17.0541 C   0  0  0  0  0  0  0  0  0  0  0  0
   22.1561  -10.4521  -15.8539 O   0  0  0  0  0  0  0  0  0  0  0  0
   21.1097   -9.4728  -20.3609 O   0  0  0  0  0  0  0  0  0  0  0  0
   22.8725   -8.7673  -17.2614 N   0  0  0  0  0  0  0  0  0  0  0  0
   23.2205   -7.9950  -18.4243 C   0  0  0  0  0  0  0  0  0  0  0  0
   24.5840   -7.4702  -18.0246 C   0  0  0  0  0  0  0  0  0  0  0  0
   24.2629   -6.9389  -16.6365 C   0  0  0  0  0  0  0  0  0  0  0  0
   23.0788   -7.7847  -16.2108 C   0  0  1  0  0  0  0  0  0  0  0  0
   21.8722   -6.9507  -15.9900 C   0  0  0  0  0  0  0  0  0  0  0  0
   20.8678   -7.0317  -16.9451 O   0  0  0  0  0  0  0  0  0  0  0  0
   21.6978   -6.1945  -15.0247 O   0  0  0  0  0  0  0  0  0  0  0  0
  2  1  1  1
  2  3  1  0
  4  2  1  0
  4  5  1  0
  5  6  1  6
  5  7  1  0
  7  8  2  0
  9  7  1  0
  9 10  1  0
 10 11  1  1
 12 11  1  0
 13 12  2  0
 14 10  1  0
 14 15  2  0
 16 12  1  0
 17 14  1  0
 18 17  1  0
 19 18  1  0
 20 19  1  0
 21 20  1  0
 21 17  1  0
 21 22  1  6
 23 22  1  0
 24 22  2  0
M  END
$$$$
