LDP.pdb
     RDKit          3D

 24 24  0  0  1  0  0  0  0  0999 V2000
   16.5111  -16.1869    2.7418 C   0  0  0  0  0  0  0  0  0  0  0  0
   17.5933  -15.1363    2.6021 C   0  0  2  0  0  0  0  0  0  0  0  0
   18.5261  -15.5756    1.5148 C   0  0  0  0  0  0  0  0  0  0  0  0
   18.2846  -15.0084    3.9367 C   0  0  0  0  0  0  0  0  0  0  0  0
   17.3476  -14.6116    5.0515 C   0  0  2  0  0  0  0  0  0  0  0  0
   16.9583  -13.2284    4.8122 N   0  0  0  0  0  0  0  0  0  0  0  0
   18.1395  -14.6349    6.3118 C   0  0  0  0  0  0  0  0  0  0  0  0
   19.0641  -13.8051    6.5427 O   0  0  0  0  0  0  0  0  0  0  0  0
   17.9052  -15.5978    7.3436 N   0  0  0  0  0  0  0  0  0  0  0  0
   18.7428  -15.6598    8.5512 C   0  0  1  0  0  0  0  0  0  0  0  0
   17.8330  -16.1492    9.6387 C   0  0  0  0  0  0  0  0  0  0  0  0
   16.9701  -14.9904   10.0368 C   0  0  0  0  0  0  0  0  0  0  0  0
   17.5021  -13.9833   10.5751 O   0  0  0  0  0  0  0  0  0  0  0  0
   19.9684  -16.4077    8.3552 C   0  0  0  0  0  0  0  0  0  0  0  0
   19.9590  -17.1683    7.3207 O   0  0  0  0  0  0  0  0  0  0  0  0
   15.6094  -14.9606    9.8467 O   0  0  0  0  0  0  0  0  0  0  0  0
   21.1322  -16.3910    9.1516 N   0  0  0  0  0  0  0  0  0  0  0  0
   21.5210  -15.6908   10.3468 C   0  0  0  0  0  0  0  0  0  0  0  0
   22.8448  -15.0951    9.9144 C   0  0  0  0  0  0  0  0  0  0  0  0
   23.5058  -16.3296    9.3218 C   0  0  0  0  0  0  0  0  0  0  0  0
   22.3251  -17.1818    8.8996 C   0  0  1  0  0  0  0  0  0  0  0  0
   22.2993  -18.4697    9.6352 C   0  0  0  0  0  0  0  0  0  0  0  0
   23.1738  -19.4582    9.2041 O   0  0  0  0  0  0  0  0  0  0  0  0
   21.5611  -18.7244   10.5965 O   0  0  0  0  0  0  0  0  0  0  0  0
  2  1  1  1
  2  3  1  0
  4  2  1  0
  4  5  1  0
  5  6  1  6
  5  7  1  0
  7  8  2  0
  9  7  1  0
  9 10  1  0
 10 11  1  1
 12 11  1  0
 13 12  2  0
 14 10  1  0
 14 15  2  0
 16 12  1  0
 17 14  1  0
 18 17  1  0
 19 18  1  0
 20 19  1  0
 21 20  1  0
 21 17  1  0
 21 22  1  1
 23 22  1  0
 24 22  2  0
M  END
$$$$
