LDP.pdb
     RDKit          3D

 24 24  0  0  1  0  0  0  0  0999 V2000
   18.5003  -11.9621  -15.2180 C   0  0  0  0  0  0  0  0  0  0  0  0
   17.0563  -11.8184  -15.6524 C   0  0  2  0  0  0  0  0  0  0  0  0
   17.0448  -11.4671  -17.1090 C   0  0  0  0  0  0  0  0  0  0  0  0
   16.4234  -10.7488  -14.7974 C   0  0  0  0  0  0  0  0  0  0  0  0
   16.4316  -11.0870  -13.3264 C   0  0  2  0  0  0  0  0  0  0  0  0
   15.4778  -12.1703  -13.1304 N   0  0  0  0  0  0  0  0  0  0  0  0
   15.9016   -9.8973  -12.6056 C   0  0  0  0  0  0  0  0  0  0  0  0
   14.6693   -9.6192  -12.5780 O   0  0  0  0  0  0  0  0  0  0  0  0
   16.7527   -8.9916  -11.8969 N   0  0  0  0  0  0  0  0  0  0  0  0
   16.2305   -7.7699  -11.2655 C   0  0  1  0  0  0  0  0  0  0  0  0
   16.5487   -7.9119   -9.8065 C   0  0  0  0  0  0  0  0  0  0  0  0
   15.9655   -6.7162   -9.1167 C   0  0  0  0  0  0  0  0  0  0  0  0
   14.9986   -6.1092   -9.6495 O   0  0  0  0  0  0  0  0  0  0  0  0
   16.6928   -6.5559  -11.9076 C   0  0  0  0  0  0  0  0  0  0  0  0
   17.9513   -6.5434  -12.1619 O   0  0  0  0  0  0  0  0  0  0  0  0
   16.4307   -6.2338   -7.9170 O   0  0  0  0  0  0  0  0  0  0  0  0
   15.9346   -5.4239  -12.2718 N   0  0  0  0  0  0  0  0  0  0  0  0
   14.5664   -5.0255  -12.0736 C   0  0  0  0  0  0  0  0  0  0  0  0
   14.1546   -4.6923  -13.4926 C   0  0  0  0  0  0  0  0  0  0  0  0
   15.3169   -3.8003  -13.8994 C   0  0  0  0  0  0  0  0  0  0  0  0
   16.4463   -4.2811  -13.0095 C   0  0  1  0  0  0  0  0  0  0  0  0
   16.9149   -3.2040  -12.1037 C   0  0  0  0  0  0  0  0  0  0  0  0
   17.5488   -2.1181  -12.6925 O   0  0  0  0  0  0  0  0  0  0  0  0
   16.7831   -3.2036  -10.8722 O   0  0  0  0  0  0  0  0  0  0  0  0
  2  1  1  1
  2  3  1  0
  4  2  1  0
  4  5  1  0
  5  6  1  6
  5  7  1  0
  7  8  2  0
  9  7  1  0
  9 10  1  0
 10 11  1  1
 12 11  1  0
 13 12  2  0
 14 10  1  0
 14 15  2  0
 16 12  1  0
 17 14  1  0
 18 17  1  0
 19 18  1  0
 20 19  1  0
 21 20  1  0
 21 17  1  0
 21 22  1  1
 23 22  1  0
 24 22  2  0
M  END
$$$$
