LDP.pdb
     RDKit          3D

 24 24  0  0  1  0  0  0  0  0999 V2000
   21.7990  -14.1431  -20.1254 C   0  0  0  0  0  0  0  0  0  0  0  0
   20.5178  -13.9715  -19.3358 C   0  0  2  0  0  0  0  0  0  0  0  0
   19.4273  -14.7002  -20.0605 C   0  0  0  0  0  0  0  0  0  0  0  0
   20.2437  -12.4926  -19.2202 C   0  0  0  0  0  0  0  0  0  0  0  0
   21.3300  -11.7465  -18.4845 C   0  0  2  0  0  0  0  0  0  0  0  0
   21.6030  -12.4851  -17.2590 N   0  0  0  0  0  0  0  0  0  0  0  0
   20.7590  -10.4302  -18.0878 C   0  0  0  0  0  0  0  0  0  0  0  0
   20.3829   -9.5744  -18.9381 O   0  0  0  0  0  0  0  0  0  0  0  0
   20.5984  -10.0486  -16.7183 N   0  0  0  0  0  0  0  0  0  0  0  0
   20.0861   -8.7232  -16.3376 C   0  0  1  0  0  0  0  0  0  0  0  0
   18.7783   -8.9869  -15.6520 C   0  0  0  0  0  0  0  0  0  0  0  0
   18.2162   -7.6536  -15.2621 C   0  0  0  0  0  0  0  0  0  0  0  0
   17.7563   -6.8943  -16.1560 O   0  0  0  0  0  0  0  0  0  0  0  0
   21.0496   -7.9321  -15.5989 C   0  0  0  0  0  0  0  0  0  0  0  0
   21.7858   -8.6150  -14.7986 O   0  0  0  0  0  0  0  0  0  0  0  0
   18.1719   -7.2018  -13.9649 O   0  0  0  0  0  0  0  0  0  0  0  0
   21.2594   -6.5389  -15.6620 N   0  0  0  0  0  0  0  0  0  0  0  0
   20.6274   -5.4595  -16.3731 C   0  0  0  0  0  0  0  0  0  0  0  0
   21.8262   -4.8038  -17.0266 C   0  0  0  0  0  0  0  0  0  0  0  0
   22.7497   -4.6897  -15.8240 C   0  0  0  0  0  0  0  0  0  0  0  0
   22.2816   -5.8164  -14.9239 C   0  0  1  0  0  0  0  0  0  0  0  0
   21.7675   -5.2971  -13.6330 C   0  0  0  0  0  0  0  0  0  0  0  0
   20.4077   -5.4417  -13.3933 O   0  0  0  0  0  0  0  0  0  0  0  0
   22.4570   -4.7490  -12.7623 O   0  0  0  0  0  0  0  0  0  0  0  0
  2  1  1  6
  2  3  1  0
  4  2  1  0
  4  5  1  0
  5  6  1  1
  5  7  1  0
  7  8  2  0
  9  7  1  0
  9 10  1  0
 10 11  1  1
 12 11  1  0
 13 12  2  0
 14 10  1  0
 14 15  2  0
 16 12  1  0
 17 14  1  0
 18 17  1  0
 19 18  1  0
 20 19  1  0
 21 20  1  0
 21 17  1  0
 21 22  1  1
 23 22  1  0
 24 22  2  0
M  END
$$$$
