LDP.pdb
     RDKit          3D

 24 24  0  0  1  0  0  0  0  0999 V2000
   27.6121  -14.1143  -16.6879 C   0  0  0  0  0  0  0  0  0  0  0  0
   26.1797  -14.0353  -16.2016 C   0  0  2  0  0  0  0  0  0  0  0  0
   26.1390  -13.0957  -15.0350 C   0  0  0  0  0  0  0  0  0  0  0  0
   25.7421  -15.4308  -15.8322 C   0  0  0  0  0  0  0  0  0  0  0  0
   25.8722  -16.4116  -16.9720 C   0  0  2  0  0  0  0  0  0  0  0  0
   24.8571  -16.0617  -17.9565 N   0  0  0  0  0  0  0  0  0  0  0  0
   25.5184  -17.7529  -16.4317 C   0  0  0  0  0  0  0  0  0  0  0  0
   24.3220  -18.1016  -16.2228 O   0  0  0  0  0  0  0  0  0  0  0  0
   26.5097  -18.7344  -16.1143 N   0  0  0  0  0  0  0  0  0  0  0  0
   26.1457  -20.0884  -15.6694 C   0  0  1  0  0  0  0  0  0  0  0  0
   27.1292  -21.0021  -16.3386 C   0  0  0  0  0  0  0  0  0  0  0  0
   26.7065  -22.4039  -16.0188 C   0  0  0  0  0  0  0  0  0  0  0  0
   25.6735  -22.5914  -15.3223 O   0  0  0  0  0  0  0  0  0  0  0  0
   26.0400  -20.2042  -14.2288 C   0  0  0  0  0  0  0  0  0  0  0  0
   27.0163  -19.6721  -13.5867 O   0  0  0  0  0  0  0  0  0  0  0  0
   27.3904  -23.5162  -16.4472 O   0  0  0  0  0  0  0  0  0  0  0  0
   25.0142  -20.8179  -13.4804 N   0  0  0  0  0  0  0  0  0  0  0  0
   23.8208  -21.5459  -13.8208 C   0  0  0  0  0  0  0  0  0  0  0  0
   22.7836  -20.7931  -13.0134 C   0  0  0  0  0  0  0  0  0  0  0  0
   23.4793  -20.7585  -11.6617 C   0  0  0  0  0  0  0  0  0  0  0  0
   24.9474  -20.8501  -12.0290 C   0  0  1  0  0  0  0  0  0  0  0  0
   25.5662  -22.0790  -11.4749 C   0  0  0  0  0  0  0  0  0  0  0  0
   25.8441  -22.0853  -10.1146 O   0  0  0  0  0  0  0  0  0  0  0  0
   25.8504  -23.0899  -12.1317 O   0  0  0  0  0  0  0  0  0  0  0  0
  2  1  1  1
  2  3  1  0
  4  2  1  0
  4  5  1  0
  5  6  1  6
  5  7  1  0
  7  8  2  0
  9  7  1  0
  9 10  1  0
 10 11  1  1
 12 11  1  0
 13 12  2  0
 14 10  1  0
 14 15  2  0
 16 12  1  0
 17 14  1  0
 18 17  1  0
 19 18  1  0
 20 19  1  0
 21 20  1  0
 21 17  1  0
 21 22  1  6
 23 22  1  0
 24 22  2  0
M  END
$$$$
