QVI.pdb
     RDKit          3D

 25 24  0  0  1  0  0  0  0  0999 V2000
    5.8346  -18.6070   24.2999 N   0  0  0  0  0  0  0  0  0  0  0  0
    6.9052  -19.5484   24.2518 C   0  0  0  0  0  0  0  0  0  0  0  0
    7.5162  -19.7767   25.3023 O   0  0  0  0  0  0  0  0  0  0  0  0
    7.2487  -20.2002   22.9947 C   0  0  0  0  0  0  0  0  0  0  0  0
    8.2386  -19.4871   22.1317 C   0  0  0  0  0  0  0  0  0  0  0  0
    7.6959  -18.3771   21.2888 C   0  0  2  0  0  0  0  0  0  0  0  0
    7.6694  -18.9259   19.9140 N   0  0  0  0  0  0  0  0  0  0  0  0
    8.3518  -17.0890   21.3209 C   0  0  0  0  0  0  0  0  0  0  0  0
    9.6201  -17.0132   21.4352 O   0  0  0  0  0  0  0  0  0  0  0  0
    6.9329  -13.7292   19.3018 C   0  0  0  0  0  0  0  0  0  0  0  0
    7.3198  -13.4937   20.7433 C   0  0  2  0  0  0  0  0  0  0  0  0
    7.8753  -12.1104   20.8917 C   0  0  0  0  0  0  0  0  0  0  0  0
    8.3302  -14.5561   21.2017 C   0  0  2  0  0  0  0  0  0  0  0  0
    7.6751  -15.8254   21.2259 N   0  0  0  0  0  0  0  0  0  0  0  0
    8.7857  -14.1151   22.5484 C   0  0  0  0  0  0  0  0  0  0  0  0
    9.3769  -13.0095   22.6427 O   0  0  0  0  0  0  0  0  0  0  0  0
    6.6010  -11.8860   27.1115 C   0  0  0  0  0  0  0  0  0  0  0  0
    7.6858  -12.8890   26.8078 C   0  0  0  0  0  0  0  0  0  0  0  0
    7.5518  -13.3867   25.3839 C   0  0  2  0  0  0  0  0  0  0  0  0
    6.2590  -14.1567   25.2152 C   0  0  0  0  0  0  0  0  0  0  0  0
    8.6909  -14.3244   25.0644 C   0  0  2  0  0  0  0  0  0  0  0  0
    8.5943  -14.8609   23.7224 N   0  0  0  0  0  0  0  0  0  0  0  0
    8.6092  -15.4646   26.0089 C   0  0  0  0  0  0  0  0  0  0  0  0
    8.8215  -15.3078   27.2354 O   0  0  0  0  0  0  0  0  0  0  0  0
    8.2969  -16.7496   25.5885 O   0  0  0  0  0  0  0  0  0  0  0  0
  1  2  1  0
  2  3  2  0
  4  2  1  0
  5  4  1  0
  6  7  1  6
  6  5  1  0
  8  6  1  0
  9  8  2  0
 11 12  1  6
 11 10  1  0
 11 13  1  0
 13 14  1  1
 14  8  1  0
 15 13  1  0
 15 16  2  0
 18 17  1  0
 19 18  1  0
 19 21  1  0
 19 20  1  1
 21 22  1  6
 22 15  1  0
 23 21  1  0
 24 23  2  0
 25 23  1  0
M  END
$$$$
