QVI.pdb
     RDKit          3D

 25 24  0  0  1  0  0  0  0  0999 V2000
   11.8673  -20.1966   18.3971 N   0  0  0  0  0  0  0  0  0  0  0  0
   12.8539  -19.9689   19.4018 C   0  0  0  0  0  0  0  0  0  0  0  0
   13.7289  -20.8295   19.5521 O   0  0  0  0  0  0  0  0  0  0  0  0
   12.8058  -18.7585   20.2116 C   0  0  0  0  0  0  0  0  0  0  0  0
   11.6718  -17.8254   19.9352 C   0  0  0  0  0  0  0  0  0  0  0  0
   10.6209  -17.7363   20.9958 C   0  0  2  0  0  0  0  0  0  0  0  0
    9.4120  -18.3288   20.3796 N   0  0  0  0  0  0  0  0  0  0  0  0
   10.3261  -16.4482   21.5825 C   0  0  0  0  0  0  0  0  0  0  0  0
   11.2477  -15.7695   22.1460 O   0  0  0  0  0  0  0  0  0  0  0  0
    8.1271  -13.5294   20.0559 C   0  0  0  0  0  0  0  0  0  0  0  0
    7.6233  -13.8810   21.4364 C   0  0  2  0  0  0  0  0  0  0  0  0
    7.1616  -12.6369   22.1315 C   0  0  0  0  0  0  0  0  0  0  0  0
    8.7231  -14.5954   22.2363 C   0  0  2  0  0  0  0  0  0  0  0  0
    9.0298  -15.8293   21.5849 N   0  0  0  0  0  0  0  0  0  0  0  0
    8.1600  -14.7866   23.6009 C   0  0  0  0  0  0  0  0  0  0  0  0
    7.2184  -15.6072   23.7451 O   0  0  0  0  0  0  0  0  0  0  0  0
   11.1065  -13.1208   28.0728 C   0  0  0  0  0  0  0  0  0  0  0  0
   10.2642  -14.0309   27.2141 C   0  0  0  0  0  0  0  0  0  0  0  0
    8.8561  -13.4854   27.1016 C   0  0  2  0  0  0  0  0  0  0  0  0
    8.1332  -13.6181   28.4253 C   0  0  0  0  0  0  0  0  0  0  0  0
    8.0848  -14.2787   26.0746 C   0  0  2  0  0  0  0  0  0  0  0  0
    8.6180  -14.1042   24.7392 N   0  0  0  0  0  0  0  0  0  0  0  0
    6.6923  -13.7691   26.0703 C   0  0  0  0  0  0  0  0  0  0  0  0
    5.7799  -14.3687   26.6884 O   0  0  0  0  0  0  0  0  0  0  0  0
    6.3313  -12.6151   25.3895 O   0  0  0  0  0  0  0  0  0  0  0  0
  1  2  1  0
  2  3  2  0
  4  2  1  0
  5  4  1  0
  6  7  1  6
  6  5  1  0
  8  6  1  0
  9  8  2  0
 11 12  1  1
 11 10  1  0
 11 13  1  0
 13 14  1  6
 14  8  1  0
 15 13  1  0
 15 16  2  0
 18 17  1  0
 19 18  1  0
 19 21  1  0
 19 20  1  1
 21 22  1  6
 22 15  1  0
 23 21  1  0
 24 23  2  0
 25 23  1  0
M  END
$$$$
