QVI.pdb
     RDKit          3D

 25 24  0  0  1  0  0  0  0  0999 V2000
    6.6156  -19.0079   16.5425 N   0  0  0  0  0  0  0  0  0  0  0  0
    7.3053  -17.8094   16.1924 C   0  0  0  0  0  0  0  0  0  0  0  0
    7.6407  -17.6646   15.0112 O   0  0  0  0  0  0  0  0  0  0  0  0
    7.5957  -16.8096   17.2118 C   0  0  0  0  0  0  0  0  0  0  0  0
    7.0574  -17.0860   18.5782 C   0  0  0  0  0  0  0  0  0  0  0  0
    7.9629  -16.7525   19.7209 C   0  0  2  0  0  0  0  0  0  0  0  0
    9.0180  -17.7904   19.6814 N   0  0  0  0  0  0  0  0  0  0  0  0
    7.4009  -16.6341   21.0478 C   0  0  0  0  0  0  0  0  0  0  0  0
    6.4591  -15.8050   21.2781 O   0  0  0  0  0  0  0  0  0  0  0  0
    6.4823  -19.6226   23.4315 C   0  0  0  0  0  0  0  0  0  0  0  0
    7.3241  -18.6286   24.1973 C   0  0  2  0  0  0  0  0  0  0  0  0
    6.8304  -18.5387   25.6088 C   0  0  0  0  0  0  0  0  0  0  0  0
    7.2906  -17.2589   23.5028 C   0  0  2  0  0  0  0  0  0  0  0  0
    7.8215  -17.4048   22.1846 N   0  0  0  0  0  0  0  0  0  0  0  0
    8.1108  -16.3597   24.3599 C   0  0  0  0  0  0  0  0  0  0  0  0
    9.3625  -16.4635   24.3022 O   0  0  0  0  0  0  0  0  0  0  0  0
    5.6252  -11.8811   26.5281 C   0  0  0  0  0  0  0  0  0  0  0  0
    6.6812  -12.6751   25.8002 C   0  0  0  0  0  0  0  0  0  0  0  0
    7.4813  -13.5031   26.7839 C   0  0  2  0  0  0  0  0  0  0  0  0
    8.3905  -12.6125   27.6040 C   0  0  0  0  0  0  0  0  0  0  0  0
    8.3511  -14.4826   26.0336 C   0  0  2  0  0  0  0  0  0  0  0  0
    7.5697  -15.4007   25.2309 N   0  0  0  0  0  0  0  0  0  0  0  0
    9.0900  -15.2844   27.0385 C   0  0  0  0  0  0  0  0  0  0  0  0
   10.2648  -14.9908   27.3666 O   0  0  0  0  0  0  0  0  0  0  0  0
    8.5254  -16.3889   27.6605 O   0  0  0  0  0  0  0  0  0  0  0  0
  1  2  1  0
  2  3  2  0
  4  2  1  0
  5  4  1  0
  6  7  1  1
  6  5  1  0
  8  6  1  0
  9  8  2  0
 11 12  1  1
 11 10  1  0
 11 13  1  0
 13 14  1  6
 14  8  1  0
 15 13  1  0
 15 16  2  0
 18 17  1  0
 19 18  1  0
 19 21  1  0
 19 20  1  6
 21 22  1  1
 22 15  1  0
 23 21  1  0
 24 23  2  0
 25 23  1  0
M  END
$$$$
