QVI.pdb
     RDKit          3D

 25 24  0  0  1  0  0  0  0  0999 V2000
   14.7484  -17.9012   17.7107 N   0  0  0  0  0  0  0  0  0  0  0  0
   14.4905  -17.4683   19.0451 C   0  0  0  0  0  0  0  0  0  0  0  0
   15.2636  -17.8496   19.9316 O   0  0  0  0  0  0  0  0  0  0  0  0
   13.3463  -16.6110   19.3266 C   0  0  0  0  0  0  0  0  0  0  0  0
   11.9991  -17.2408   19.1798 C   0  0  0  0  0  0  0  0  0  0  0  0
   11.3716  -17.7504   20.4382 C   0  0  2  0  0  0  0  0  0  0  0  0
   10.2708  -18.6290   19.9817 N   0  0  0  0  0  0  0  0  0  0  0  0
   10.9030  -16.7997   21.4215 C   0  0  0  0  0  0  0  0  0  0  0  0
   11.7321  -16.0714   22.0614 O   0  0  0  0  0  0  0  0  0  0  0  0
    7.2946  -14.8928   21.1715 C   0  0  0  0  0  0  0  0  0  0  0  0
    7.5593  -15.4424   22.5539 C   0  0  2  0  0  0  0  0  0  0  0  0
    7.0071  -14.5008   23.5799 C   0  0  0  0  0  0  0  0  0  0  0  0
    9.0650  -15.6706   22.7546 C   0  0  2  0  0  0  0  0  0  0  0  0
    9.5229  -16.5848   21.7569 N   0  0  0  0  0  0  0  0  0  0  0  0
    9.2041  -16.2060   24.1365 C   0  0  0  0  0  0  0  0  0  0  0  0
    9.1672  -17.4525   24.2969 O   0  0  0  0  0  0  0  0  0  0  0  0
   10.2375  -12.4623   28.1368 C   0  0  0  0  0  0  0  0  0  0  0  0
   10.4983  -13.6357   27.2256 C   0  0  0  0  0  0  0  0  0  0  0  0
    9.6482  -14.8178   27.6418 C   0  0  2  0  0  0  0  0  0  0  0  0
   10.1604  -15.4027   28.9410 C   0  0  0  0  0  0  0  0  0  0  0  0
    9.7279  -15.8964   26.5886 C   0  0  2  0  0  0  0  0  0  0  0  0
    9.3742  -15.4011   25.2742 N   0  0  0  0  0  0  0  0  0  0  0  0
    8.7458  -16.9469   26.9499 C   0  0  0  0  0  0  0  0  0  0  0  0
    7.5263  -16.8133   26.6872 O   0  0  0  0  0  0  0  0  0  0  0  0
    9.1218  -18.1190   27.5905 O   0  0  0  0  0  0  0  0  0  0  0  0
  1  2  1  0
  2  3  2  0
  4  2  1  0
  5  4  1  0
  6  7  1  6
  6  5  1  0
  8  6  1  0
  9  8  2  0
 11 12  1  1
 11 10  1  0
 11 13  1  0
 13 14  1  6
 14  8  1  0
 15 13  1  0
 15 16  2  0
 18 17  1  0
 19 18  1  0
 19 21  1  0
 19 20  1  1
 21 22  1  6
 22 15  1  0
 23 21  1  0
 24 23  2  0
 25 23  1  0
M  END
$$$$
