PPH.pdb
     RDKit          3D

 25 27  0  0  1  0  0  0  0  0999 V2000
    6.0701  -13.6622   26.5968 N   0  0  0  0  0  0  0  0  0  0  0  0
    7.3322  -13.4673   27.2617 C   0  0  0  0  0  0  0  0  0  0  0  0
    8.1008  -12.4522   26.4761 C   0  0  0  0  0  0  0  0  0  0  0  0
    7.0927  -12.0096   25.4031 C   0  0  0  0  0  0  0  0  0  0  0  0
    6.2971  -13.2837   25.2150 C   0  0  1  0  0  0  0  0  0  0  0  0
    7.1187  -14.3059   24.4973 C   0  0  0  0  0  0  0  0  0  0  0  0
    7.2903  -15.4233   25.1135 O   0  0  0  0  0  0  0  0  0  0  0  0
    7.6800  -14.0872   23.2273 N   0  0  0  0  0  0  0  0  0  0  0  0
    7.9909  -12.7959   22.6636 C   0  0  0  0  0  0  0  0  0  0  0  0
    7.3716  -12.9747   21.2673 C   0  0  0  0  0  0  0  0  0  0  0  0
    7.6234  -14.4327   20.9496 C   0  0  0  0  0  0  0  0  0  0  0  0
    8.0783  -15.0572   22.2584 C   0  0  1  0  0  0  0  0  0  0  0  0
    9.5457  -15.3196   22.2753 C   0  0  0  0  0  0  0  0  0  0  0  0
   10.3033  -14.3165   22.2128 O   0  0  0  0  0  0  0  0  0  0  0  0
   10.1451  -16.5891   22.3538 N   0  0  0  0  0  0  0  0  0  0  0  0
   11.5209  -16.8074   22.7660 C   0  0  1  0  0  0  0  0  0  0  0  0
   12.3657  -15.5714   22.4834 C   0  0  0  0  0  0  0  0  0  0  0  0
   12.5415  -15.3172   21.0384 C   0  0  0  0  0  0  0  0  0  0  0  0
   11.9343  -15.9768   20.0014 C   0  0  0  0  0  0  0  0  0  0  0  0
   12.3471  -15.4690   18.8383 N   0  0  0  0  0  0  0  0  0  0  0  0
   13.2106  -14.4929   19.1151 C   0  0  0  0  0  0  0  0  0  0  0  0
   13.3364  -14.3919   20.4544 N   0  0  0  0  0  0  0  0  0  0  0  0
   11.6238  -17.2833   24.1485 C   0  0  0  0  0  0  0  0  0  0  0  0
   10.5795  -17.4922   25.0008 O   0  0  0  0  0  0  0  0  0  0  0  0
   12.7967  -17.5213   24.5890 O   0  0  0  0  0  0  0  0  0  0  0  0
  1  2  1  0
  2  3  1  0
  4  3  1  0
  5  1  1  0
  5  4  1  0
  6  7  2  0
  5  6  1  6
  8  6  1  0
  9  8  1  0
  9 10  1  0
 11 10  1  0
 12  8  1  0
 12 11  1  0
 12 13  1  6
 14 13  2  0
 15 13  1  0
 16 15  1  0
 17 18  1  0
 16 17  1  1
 18 22  1  0
 19 20  1  0
 19 18  2  0
 20 21  1  0
 21 22  2  0
 23 16  1  0
 23 24  1  0
 25 23  2  0
M  END
$$$$
