PPH.pdb
     RDKit          3D

 25 27  0  0  1  0  0  0  0  0999 V2000
    7.7742  -14.1607   21.3382 N   0  0  0  0  0  0  0  0  0  0  0  0
    7.9803  -15.5854   21.3667 C   0  0  0  0  0  0  0  0  0  0  0  0
    6.9904  -16.1627   22.3284 C   0  0  0  0  0  0  0  0  0  0  0  0
    6.1360  -14.9453   22.7176 C   0  0  0  0  0  0  0  0  0  0  0  0
    7.1568  -13.8328   22.6093 C   0  0  1  0  0  0  0  0  0  0  0  0
    8.1400  -13.9211   23.7321 C   0  0  0  0  0  0  0  0  0  0  0  0
    9.3651  -14.1243   23.3923 O   0  0  0  0  0  0  0  0  0  0  0  0
    7.7764  -13.7928   25.0838 N   0  0  0  0  0  0  0  0  0  0  0  0
    6.4331  -13.8965   25.6001 C   0  0  0  0  0  0  0  0  0  0  0  0
    6.4129  -12.6511   26.5022 C   0  0  0  0  0  0  0  0  0  0  0  0
    7.8248  -12.5791   27.0421 C   0  0  0  0  0  0  0  0  0  0  0  0
    8.6252  -13.5668   26.2094 C   0  0  1  0  0  0  0  0  0  0  0  0
    8.9304  -14.8174   26.9612 C   0  0  0  0  0  0  0  0  0  0  0  0
    7.9504  -15.5317   27.2981 O   0  0  0  0  0  0  0  0  0  0  0  0
   10.2162  -15.2578   27.3214 N   0  0  0  0  0  0  0  0  0  0  0  0
   10.4802  -16.5286   27.9739 C   0  0  1  0  0  0  0  0  0  0  0  0
   11.7080  -17.1959   27.3670 C   0  0  0  0  0  0  0  0  0  0  0  0
   11.6979  -17.1758   25.8894 C   0  0  0  0  0  0  0  0  0  0  0  0
   10.9652  -17.9797   25.0551 C   0  0  0  0  0  0  0  0  0  0  0  0
   11.2255  -17.6690   23.7836 N   0  0  0  0  0  0  0  0  0  0  0  0
   12.1150  -16.6771   23.7909 C   0  0  0  0  0  0  0  0  0  0  0  0
   12.4100  -16.3685   25.0707 N   0  0  0  0  0  0  0  0  0  0  0  0
   10.5407  -16.4082   29.4334 C   0  0  0  0  0  0  0  0  0  0  0  0
   10.6437  -17.4428   30.3164 O   0  0  0  0  0  0  0  0  0  0  0  0
   10.4919  -15.2285   29.9157 O   0  0  0  0  0  0  0  0  0  0  0  0
  1  2  1  0
  2  3  1  0
  4  3  1  0
  5  1  1  0
  5  4  1  0
  6  7  2  0
  5  6  1  1
  8  6  1  0
  9  8  1  0
  9 10  1  0
 11 10  1  0
 12  8  1  0
 12 11  1  0
 12 13  1  1
 14 13  2  0
 15 13  1  0
 16 15  1  0
 17 18  1  0
 16 17  1  6
 18 22  1  0
 19 20  1  0
 19 18  2  0
 20 21  1  0
 21 22  2  0
 23 16  1  0
 23 24  1  0
 25 23  2  0
M  END
$$$$
