PPH.pdb
     RDKit          3D

 25 27  0  0  1  0  0  0  0  0999 V2000
    8.5656  -14.2863   14.8924 N   0  0  0  0  0  0  0  0  0  0  0  0
    9.4087  -15.4350   14.6860 C   0  0  0  0  0  0  0  0  0  0  0  0
    8.9019  -16.5284   15.5725 C   0  0  0  0  0  0  0  0  0  0  0  0
    7.6262  -15.9198   16.1773 C   0  0  0  0  0  0  0  0  0  0  0  0
    8.0000  -14.4535   16.2177 C   0  0  1  0  0  0  0  0  0  0  0  0
    9.0214  -14.2087   17.2815 C   0  0  0  0  0  0  0  0  0  0  0  0
   10.2008  -13.8987   16.8683 O   0  0  0  0  0  0  0  0  0  0  0  0
    8.7383  -14.3031   18.6551 N   0  0  0  0  0  0  0  0  0  0  0  0
    7.5432  -14.8782   19.2232 C   0  0  0  0  0  0  0  0  0  0  0  0
    7.1894  -13.7758   20.2355 C   0  0  0  0  0  0  0  0  0  0  0  0
    8.5386  -13.2830   20.7118 C   0  0  0  0  0  0  0  0  0  0  0  0
    9.5504  -13.8915   19.7549 C   0  0  1  0  0  0  0  0  0  0  0  0
   10.2987  -15.0227   20.3736 C   0  0  0  0  0  0  0  0  0  0  0  0
    9.7625  -16.1598   20.3129 O   0  0  0  0  0  0  0  0  0  0  0  0
   11.5457  -14.9202   21.0153 N   0  0  0  0  0  0  0  0  0  0  0  0
   12.3142  -16.0651   21.4723 C   0  0  1  0  0  0  0  0  0  0  0  0
   13.8013  -15.8422   21.2280 C   0  0  0  0  0  0  0  0  0  0  0  0
   14.1030  -15.4826   19.8268 C   0  0  0  0  0  0  0  0  0  0  0  0
   14.4311  -16.3355   18.8051 C   0  0  0  0  0  0  0  0  0  0  0  0
   14.6385  -15.6407   17.6846 N   0  0  0  0  0  0  0  0  0  0  0  0
   14.4479  -14.3542   17.9737 C   0  0  0  0  0  0  0  0  0  0  0  0
   14.1208  -14.2466   19.2780 N   0  0  0  0  0  0  0  0  0  0  0  0
   11.9973  -16.4384   22.8538 C   0  0  0  0  0  0  0  0  0  0  0  0
   12.4571  -17.5437   23.5077 O   0  0  0  0  0  0  0  0  0  0  0  0
   11.2217  -15.6568   23.4973 O   0  0  0  0  0  0  0  0  0  0  0  0
  1  2  1  0
  2  3  1  0
  4  3  1  0
  5  1  1  0
  5  4  1  0
  6  7  2  0
  5  6  1  1
  8  6  1  0
  9  8  1  0
  9 10  1  0
 11 10  1  0
 12  8  1  0
 12 11  1  0
 12 13  1  1
 14 13  2  0
 15 13  1  0
 16 15  1  0
 17 18  1  0
 16 17  1  1
 18 22  1  0
 19 20  1  0
 19 18  2  0
 20 21  1  0
 21 22  2  0
 23 16  1  0
 23 24  1  0
 25 23  2  0
M  END
$$$$
