PPH.pdb
     RDKit          3D

 25 27  0  0  1  0  0  0  0  0999 V2000
    5.1449  -18.4847   19.5720 N   0  0  0  0  0  0  0  0  0  0  0  0
    4.8324  -19.3301   20.6948 C   0  0  0  0  0  0  0  0  0  0  0  0
    4.2653  -18.4573   21.7693 C   0  0  0  0  0  0  0  0  0  0  0  0
    4.1679  -17.0844   21.0842 C   0  0  0  0  0  0  0  0  0  0  0  0
    5.3384  -17.1585   20.1271 C   0  0  1  0  0  0  0  0  0  0  0  0
    6.6278  -17.0644   20.8780 C   0  0  0  0  0  0  0  0  0  0  0  0
    7.4036  -18.0885   20.7943 O   0  0  0  0  0  0  0  0  0  0  0  0
    6.9958  -15.9387   21.6351 N   0  0  0  0  0  0  0  0  0  0  0  0
    6.0978  -14.8975   22.0727 C   0  0  0  0  0  0  0  0  0  0  0  0
    6.9252  -13.6652   21.6700 C   0  0  0  0  0  0  0  0  0  0  0  0
    8.3538  -14.0985   21.9180 C   0  0  0  0  0  0  0  0  0  0  0  0
    8.2857  -15.5998   22.1446 C   0  0  1  0  0  0  0  0  0  0  0  0
    8.4500  -15.9588   23.5821 C   0  0  0  0  0  0  0  0  0  0  0  0
    7.6128  -15.4754   24.3881 O   0  0  0  0  0  0  0  0  0  0  0  0
    9.4589  -16.7873   24.1045 N   0  0  0  0  0  0  0  0  0  0  0  0
    9.6294  -17.0548   25.5221 C   0  0  1  0  0  0  0  0  0  0  0  0
    9.3312  -18.5169   25.8294 C   0  0  0  0  0  0  0  0  0  0  0  0
    8.0322  -18.9624   25.2839 C   0  0  0  0  0  0  0  0  0  0  0  0
    7.0961  -18.1940   24.6418 C   0  0  0  0  0  0  0  0  0  0  0  0
    6.0496  -18.9480   24.2989 N   0  0  0  0  0  0  0  0  0  0  0  0
    6.3016  -20.1892   24.7123 C   0  0  0  0  0  0  0  0  0  0  0  0
    7.5086  -20.2091   25.3146 N   0  0  0  0  0  0  0  0  0  0  0  0
   10.9300  -16.6041   26.0258 C   0  0  0  0  0  0  0  0  0  0  0  0
   11.9291  -16.0542   25.2775 O   0  0  0  0  0  0  0  0  0  0  0  0
   11.1413  -16.7410   27.2761 O   0  0  0  0  0  0  0  0  0  0  0  0
  1  2  1  0
  2  3  1  0
  4  3  1  0
  5  1  1  0
  5  4  1  0
  6  7  2  0
  5  6  1  1
  8  6  1  0
  9  8  1  0
  9 10  1  0
 11 10  1  0
 12  8  1  0
 12 11  1  0
 12 13  1  1
 14 13  2  0
 15 13  1  0
 16 15  1  0
 17 18  1  0
 16 17  1  6
 18 22  1  0
 19 20  1  0
 19 18  2  0
 20 21  1  0
 21 22  2  0
 23 16  1  0
 23 24  1  0
 25 23  2  0
M  END
$$$$
