QPI.pdb
     RDKit          3D

 25 25  0  0  1  0  0  0  0  0999 V2000
   22.1381  -19.0963  -12.4467 N   0  0  0  0  0  0  0  0  0  0  0  0
   21.4583  -20.1366  -13.1205 C   0  0  0  0  0  0  0  0  0  0  0  0
   20.4605  -19.8881  -13.8262 O   0  0  0  0  0  0  0  0  0  0  0  0
   21.9186  -21.5562  -13.0032 C   0  0  0  0  0  0  0  0  0  0  0  0
   23.1076  -21.6428  -12.1066 C   0  0  0  0  0  0  0  0  0  0  0  0
   24.3647  -21.9592  -12.8345 C   0  0  2  0  0  0  0  0  0  0  0  0
   24.2638  -23.2491  -13.5263 N   0  0  0  0  0  0  0  0  0  0  0  0
   25.5281  -21.9951  -11.9407 C   0  0  0  0  0  0  0  0  0  0  0  0
   25.8782  -22.9975  -11.2761 O   0  0  0  0  0  0  0  0  0  0  0  0
   26.3351  -20.8350  -11.7908 N   0  0  0  0  0  0  0  0  0  0  0  0
   26.2420  -19.4953  -12.2880 C   0  0  0  0  0  0  0  0  0  0  0  0
   27.6560  -19.3235  -12.8701 C   0  0  0  0  0  0  0  0  0  0  0  0
   28.4695  -19.8521  -11.6746 C   0  0  0  0  0  0  0  0  0  0  0  0
   27.5432  -20.8153  -10.9663 C   0  0  1  0  0  0  0  0  0  0  0  0
   27.1754  -20.2616   -9.6417 C   0  0  0  0  0  0  0  0  0  0  0  0
   26.0858  -19.6083   -9.4747 O   0  0  0  0  0  0  0  0  0  0  0  0
   30.9262  -21.5023   -5.6722 C   0  0  0  0  0  0  0  0  0  0  0  0
   29.5501  -21.6782   -6.3350 C   0  0  0  0  0  0  0  0  0  0  0  0
   28.9183  -20.3326   -6.3537 C   0  0  2  0  0  0  0  0  0  0  0  0
   28.5980  -19.8152   -4.9590 C   0  0  0  0  0  0  0  0  0  0  0  0
   27.6653  -20.2108   -7.1699 C   0  0  2  0  0  0  0  0  0  0  0  0
   28.0646  -20.4736   -8.5556 N   0  0  0  0  0  0  0  0  0  0  0  0
   26.9728  -18.9193   -7.0495 C   0  0  0  0  0  0  0  0  0  0  0  0
   27.2897  -17.8045   -7.8149 O   0  0  0  0  0  0  0  0  0  0  0  0
   26.0407  -18.7786   -6.2222 O   0  0  0  0  0  0  0  0  0  0  0  0
  2  1  1  0
  2  3  2  0
  4  2  1  0
  5  4  1  0
  6  5  1  0
  6  7  1  1
  8  6  1  0
  8 10  1  0
  9  8  2  0
 10 14  1  0
 10 11  1  0
 11 12  1  0
 13 12  1  0
 14 13  1  0
 14 15  1  1
 16 15  2  0
 18 17  1  0
 19 18  1  0
 19 21  1  0
 19 20  1  1
 21 22  1  6
 21 23  1  0
 22 15  1  0
 23 25  2  0
 23 24  1  0
M  END
$$$$
