QPI.pdb
     RDKit          3D

 25 25  0  0  1  0  0  0  0  0999 V2000
   30.1679  -20.7549  -20.6560 N   0  0  0  0  0  0  0  0  0  0  0  0
   31.5267  -20.3649  -20.6457 C   0  0  0  0  0  0  0  0  0  0  0  0
   31.8578  -19.2142  -20.9945 O   0  0  0  0  0  0  0  0  0  0  0  0
   32.5962  -21.3206  -20.2173 C   0  0  0  0  0  0  0  0  0  0  0  0
   31.9986  -22.6386  -19.8557 C   0  0  0  0  0  0  0  0  0  0  0  0
   33.0120  -23.6435  -19.4391 C   0  0  2  0  0  0  0  0  0  0  0  0
   33.8831  -24.0112  -20.5610 N   0  0  0  0  0  0  0  0  0  0  0  0
   32.3953  -24.8628  -18.9037 C   0  0  0  0  0  0  0  0  0  0  0  0
   32.2164  -25.9126  -19.5632 O   0  0  0  0  0  0  0  0  0  0  0  0
   31.9569  -24.8934  -17.5522 N   0  0  0  0  0  0  0  0  0  0  0  0
   31.9033  -23.9147  -16.5082 C   0  0  0  0  0  0  0  0  0  0  0  0
   32.5957  -24.6904  -15.3739 C   0  0  0  0  0  0  0  0  0  0  0  0
   31.8238  -26.0175  -15.4898 C   0  0  0  0  0  0  0  0  0  0  0  0
   31.3846  -26.0898  -16.9352 C   0  0  1  0  0  0  0  0  0  0  0  0
   29.9091  -25.9724  -17.0086 C   0  0  0  0  0  0  0  0  0  0  0  0
   29.3397  -24.8321  -17.1408 O   0  0  0  0  0  0  0  0  0  0  0  0
   27.7530  -29.0815  -20.4609 C   0  0  0  0  0  0  0  0  0  0  0  0
   28.1137  -27.9048  -19.5394 C   0  0  0  0  0  0  0  0  0  0  0  0
   27.4451  -28.1704  -18.2384 C   0  0  2  0  0  0  0  0  0  0  0  0
   25.9377  -28.3274  -18.3746 C   0  0  0  0  0  0  0  0  0  0  0  0
   27.6893  -27.1565  -17.1598 C   0  0  2  0  0  0  0  0  0  0  0  0
   29.1367  -27.1608  -16.9284 N   0  0  0  0  0  0  0  0  0  0  0  0
   26.9483  -27.3918  -15.9117 C   0  0  0  0  0  0  0  0  0  0  0  0
   25.9450  -26.5522  -15.4452 O   0  0  0  0  0  0  0  0  0  0  0  0
   27.2081  -28.3939  -15.2038 O   0  0  0  0  0  0  0  0  0  0  0  0
  2  1  1  0
  2  3  2  0
  4  2  1  0
  5  4  1  0
  6  5  1  0
  6  7  1  6
  8  6  1  0
  8 10  1  0
  9  8  2  0
 10 14  1  0
 10 11  1  0
 11 12  1  0
 13 12  1  0
 14 13  1  0
 14 15  1  1
 16 15  2  0
 18 17  1  0
 19 18  1  0
 19 21  1  0
 19 20  1  6
 21 22  1  1
 21 23  1  0
 22 15  1  0
 23 25  2  0
 23 24  1  0
M  END
$$$$
