QPI.pdb
     RDKit          3D

 25 25  0  0  1  0  0  0  0  0999 V2000
   22.8339  -19.2789  -14.7574 N   0  0  0  0  0  0  0  0  0  0  0  0
   22.0697  -18.6341  -15.7568 C   0  0  0  0  0  0  0  0  0  0  0  0
   20.9756  -18.1059  -15.4751 O   0  0  0  0  0  0  0  0  0  0  0  0
   22.5542  -18.5704  -17.1717 C   0  0  0  0  0  0  0  0  0  0  0  0
   23.9983  -18.1985  -17.2085 C   0  0  0  0  0  0  0  0  0  0  0  0
   24.8790  -19.3217  -17.6244 C   0  0  2  0  0  0  0  0  0  0  0  0
   24.1567  -20.2702  -18.4796 N   0  0  0  0  0  0  0  0  0  0  0  0
   25.4283  -20.0497  -16.4747 C   0  0  0  0  0  0  0  0  0  0  0  0
   25.0435  -21.1834  -16.1065 O   0  0  0  0  0  0  0  0  0  0  0  0
   26.4659  -19.4621  -15.7014 N   0  0  0  0  0  0  0  0  0  0  0  0
   27.1165  -18.1867  -15.7272 C   0  0  0  0  0  0  0  0  0  0  0  0
   28.5888  -18.6339  -15.7419 C   0  0  0  0  0  0  0  0  0  0  0  0
   28.5342  -19.6637  -14.5986 C   0  0  0  0  0  0  0  0  0  0  0  0
   27.1035  -20.1537  -14.5813 C   0  0  1  0  0  0  0  0  0  0  0  0
   26.4418  -19.6988  -13.3356 C   0  0  0  0  0  0  0  0  0  0  0  0
   25.7090  -18.6477  -13.3190 O   0  0  0  0  0  0  0  0  0  0  0  0
   22.5426  -21.4907  -12.0233 C   0  0  0  0  0  0  0  0  0  0  0  0
   23.7840  -20.5927  -12.1519 C   0  0  0  0  0  0  0  0  0  0  0  0
   24.6367  -20.8837  -10.9694 C   0  0  2  0  0  0  0  0  0  0  0  0
   23.9161  -20.6389   -9.6518 C   0  0  0  0  0  0  0  0  0  0  0  0
   25.9398  -20.1429  -10.9059 C   0  0  2  0  0  0  0  0  0  0  0  0
   26.6403  -20.4599  -12.1540 N   0  0  0  0  0  0  0  0  0  0  0  0
   26.7707  -20.4541   -9.7334 C   0  0  0  0  0  0  0  0  0  0  0  0
   27.7368  -21.4520   -9.7206 O   0  0  0  0  0  0  0  0  0  0  0  0
   26.6283  -19.8049   -8.6698 O   0  0  0  0  0  0  0  0  0  0  0  0
  2  1  1  0
  2  3  2  0
  4  2  1  0
  5  4  1  0
  6  5  1  0
  6  7  1  6
  8  6  1  0
  8 10  1  0
  9  8  2  0
 10 14  1  0
 10 11  1  0
 11 12  1  0
 13 12  1  0
 14 13  1  0
 14 15  1  1
 16 15  2  0
 18 17  1  0
 19 18  1  0
 19 21  1  0
 19 20  1  1
 21 22  1  6
 21 23  1  0
 22 15  1  0
 23 25  2  0
 23 24  1  0
M  END
$$$$
