QPI.pdb
     RDKit          3D

 25 25  0  0  1  0  0  0  0  0999 V2000
   17.2301  -19.8202  -13.9245 N   0  0  0  0  0  0  0  0  0  0  0  0
   18.3171  -20.2115  -13.1098 C   0  0  0  0  0  0  0  0  0  0  0  0
   18.1942  -20.2583  -11.8696 O   0  0  0  0  0  0  0  0  0  0  0  0
   19.6367  -20.5774  -13.7145 C   0  0  0  0  0  0  0  0  0  0  0  0
   19.5838  -20.4351  -15.1984 C   0  0  0  0  0  0  0  0  0  0  0  0
   20.1969  -21.5835  -15.9163 C   0  0  2  0  0  0  0  0  0  0  0  0
   19.5240  -22.8412  -15.5726 N   0  0  0  0  0  0  0  0  0  0  0  0
   21.6280  -21.7205  -15.6217 C   0  0  0  0  0  0  0  0  0  0  0  0
   22.1211  -22.6341  -14.9207 O   0  0  0  0  0  0  0  0  0  0  0  0
   22.5475  -20.7726  -16.1468 N   0  0  0  0  0  0  0  0  0  0  0  0
   22.3974  -19.5060  -16.7979 C   0  0  0  0  0  0  0  0  0  0  0  0
   23.2853  -19.7302  -18.0345 C   0  0  0  0  0  0  0  0  0  0  0  0
   24.5265  -20.3103  -17.3320 C   0  0  0  0  0  0  0  0  0  0  0  0
   23.9970  -20.9527  -16.0693 C   0  0  1  0  0  0  0  0  0  0  0  0
   24.4824  -20.1965  -14.8907 C   0  0  0  0  0  0  0  0  0  0  0  0
   23.8650  -19.1555  -14.4697 O   0  0  0  0  0  0  0  0  0  0  0  0
   25.3265  -20.7389   -9.4883 C   0  0  0  0  0  0  0  0  0  0  0  0
   26.0271  -19.9220  -10.5863 C   0  0  0  0  0  0  0  0  0  0  0  0
   25.7390  -20.6120  -11.8712 C   0  0  2  0  0  0  0  0  0  0  0  0
   26.2654  -22.0393  -11.9018 C   0  0  0  0  0  0  0  0  0  0  0  0
   26.2430  -19.9273  -13.1074 C   0  0  2  0  0  0  0  0  0  0  0  0
   25.6547  -20.6559  -14.2352 N   0  0  0  0  0  0  0  0  0  0  0  0
   27.7074  -19.8585  -13.2218 C   0  0  0  0  0  0  0  0  0  0  0  0
   28.4665  -18.8035  -12.7319 O   0  0  0  0  0  0  0  0  0  0  0  0
   28.3397  -20.7832  -13.7856 O   0  0  0  0  0  0  0  0  0  0  0  0
  2  1  1  0
  2  3  2  0
  4  2  1  0
  5  4  1  0
  6  5  1  0
  6  7  1  1
  8  6  1  0
  8 10  1  0
  9  8  2  0
 10 14  1  0
 10 11  1  0
 11 12  1  0
 13 12  1  0
 14 13  1  0
 14 15  1  1
 16 15  2  0
 18 17  1  0
 19 18  1  0
 19 21  1  0
 19 20  1  1
 21 22  1  6
 21 23  1  0
 22 15  1  0
 23 25  2  0
 23 24  1  0
M  END
$$$$
