QPI.pdb
     RDKit          3D

 25 25  0  0  1  0  0  0  0  0999 V2000
   23.5158  -23.2341  -16.0027 N   0  0  0  0  0  0  0  0  0  0  0  0
   23.8435  -24.4860  -16.5719 C   0  0  0  0  0  0  0  0  0  0  0  0
   23.1543  -25.4950  -16.3223 O   0  0  0  0  0  0  0  0  0  0  0  0
   25.0215  -24.6293  -17.4844 C   0  0  0  0  0  0  0  0  0  0  0  0
   25.6668  -23.3034  -17.7095 C   0  0  0  0  0  0  0  0  0  0  0  0
   27.1203  -23.3022  -17.3975 C   0  0  2  0  0  0  0  0  0  0  0  0
   27.6499  -24.6694  -17.3436 N   0  0  0  0  0  0  0  0  0  0  0  0
   27.4127  -22.6345  -16.1238 C   0  0  0  0  0  0  0  0  0  0  0  0
   28.0365  -23.1636  -15.1751 O   0  0  0  0  0  0  0  0  0  0  0  0
   26.9741  -21.2991  -15.9135 N   0  0  0  0  0  0  0  0  0  0  0  0
   26.2526  -20.3579  -16.7161 C   0  0  0  0  0  0  0  0  0  0  0  0
   27.1779  -19.1343  -16.5964 C   0  0  0  0  0  0  0  0  0  0  0  0
   27.3821  -19.1410  -15.0703 C   0  0  0  0  0  0  0  0  0  0  0  0
   27.1970  -20.5840  -14.6571 C   0  0  1  0  0  0  0  0  0  0  0  0
   25.9650  -20.7094  -13.8429 C   0  0  0  0  0  0  0  0  0  0  0  0
   24.8222  -20.8940  -14.3924 O   0  0  0  0  0  0  0  0  0  0  0  0
   25.9741  -20.0467   -8.0197 C   0  0  0  0  0  0  0  0  0  0  0  0
   25.9322  -19.7963   -9.5361 C   0  0  0  0  0  0  0  0  0  0  0  0
   25.5886  -21.0977  -10.1671 C   0  0  2  0  0  0  0  0  0  0  0  0
   26.7788  -22.0421  -10.2500 C   0  0  0  0  0  0  0  0  0  0  0  0
   24.9887  -21.0195  -11.5400 C   0  0  2  0  0  0  0  0  0  0  0  0
   26.0819  -20.6198  -12.4310 N   0  0  0  0  0  0  0  0  0  0  0  0
   23.8406  -20.1089  -11.6615 C   0  0  0  0  0  0  0  0  0  0  0  0
   22.5428  -20.4595  -11.3121 O   0  0  0  0  0  0  0  0  0  0  0  0
   24.0029  -18.9452  -12.1001 O   0  0  0  0  0  0  0  0  0  0  0  0
  2  1  1  0
  2  3  2  0
  4  2  1  0
  5  4  1  0
  6  5  1  0
  6  7  1  1
  8  6  1  0
  8 10  1  0
  9  8  2  0
 10 14  1  0
 10 11  1  0
 11 12  1  0
 13 12  1  0
 14 13  1  0
 14 15  1  1
 16 15  2  0
 18 17  1  0
 19 18  1  0
 19 21  1  0
 19 20  1  6
 21 22  1  6
 21 23  1  0
 22 15  1  0
 23 25  2  0
 23 24  1  0
M  END
$$$$
