QPI.pdb
     RDKit          3D

 25 25  0  0  1  0  0  0  0  0999 V2000
   22.9149  -19.6087  -14.6639 N   0  0  0  0  0  0  0  0  0  0  0  0
   22.1568  -19.7430  -13.4783 C   0  0  0  0  0  0  0  0  0  0  0  0
   20.9133  -19.6519  -13.5081 O   0  0  0  0  0  0  0  0  0  0  0  0
   22.8264  -19.9969  -12.1638 C   0  0  0  0  0  0  0  0  0  0  0  0
   24.3086  -19.9244  -12.3150 C   0  0  0  0  0  0  0  0  0  0  0  0
   24.9441  -21.2589  -12.4752 C   0  0  2  0  0  0  0  0  0  0  0  0
   23.9342  -22.3034  -12.6798 N   0  0  0  0  0  0  0  0  0  0  0  0
   25.7681  -21.6225  -11.3165 C   0  0  0  0  0  0  0  0  0  0  0  0
   25.4451  -22.4773  -10.4597 O   0  0  0  0  0  0  0  0  0  0  0  0
   27.0217  -20.9833  -11.1175 N   0  0  0  0  0  0  0  0  0  0  0  0
   27.7035  -19.9153  -11.7847 C   0  0  0  0  0  0  0  0  0  0  0  0
   29.0752  -20.5728  -12.0167 C   0  0  0  0  0  0  0  0  0  0  0  0
   29.3123  -21.1306  -10.6014 C   0  0  0  0  0  0  0  0  0  0  0  0
   27.9291  -21.3475  -10.0295 C   0  0  1  0  0  0  0  0  0  0  0  0
   27.7014  -20.3965   -8.9159 C   0  0  0  0  0  0  0  0  0  0  0  0
   27.0903  -19.2862   -9.1056 O   0  0  0  0  0  0  0  0  0  0  0  0
   28.0072  -22.6053   -3.8069 C   0  0  0  0  0  0  0  0  0  0  0  0
   27.3767  -21.7997   -4.9547 C   0  0  0  0  0  0  0  0  0  0  0  0
   28.3258  -20.6984   -5.2652 C   0  0  2  0  0  0  0  0  0  0  0  0
   28.5168  -19.7416   -4.0977 C   0  0  0  0  0  0  0  0  0  0  0  0
   27.9906  -19.8675   -6.4686 C   0  0  2  0  0  0  0  0  0  0  0  0
   28.1795  -20.7470   -7.6261 N   0  0  0  0  0  0  0  0  0  0  0  0
   28.7753  -18.6313   -6.6037 C   0  0  0  0  0  0  0  0  0  0  0  0
   30.1212  -18.6104   -6.9464 O   0  0  0  0  0  0  0  0  0  0  0  0
   28.2348  -17.5170   -6.4067 O   0  0  0  0  0  0  0  0  0  0  0  0
  2  1  1  0
  2  3  2  0
  4  2  1  0
  5  4  1  0
  6  5  1  0
  6  7  1  1
  8  6  1  0
  8 10  1  0
  9  8  2  0
 10 14  1  0
 10 11  1  0
 11 12  1  0
 13 12  1  0
 14 13  1  0
 14 15  1  1
 16 15  2  0
 18 17  1  0
 19 18  1  0
 19 21  1  0
 19 20  1  1
 21 22  1  6
 21 23  1  0
 22 15  1  0
 23 25  2  0
 23 24  1  0
M  END
$$$$
