QPI.pdb
     RDKit          3D

 25 25  0  0  1  0  0  0  0  0999 V2000
   27.6868  -16.4455  -16.0004 N   0  0  0  0  0  0  0  0  0  0  0  0
   26.6900  -17.4402  -16.1249 C   0  0  0  0  0  0  0  0  0  0  0  0
   25.4879  -17.1231  -16.2236 O   0  0  0  0  0  0  0  0  0  0  0  0
   27.0528  -18.8924  -16.1413 C   0  0  0  0  0  0  0  0  0  0  0  0
   28.5280  -19.0594  -15.9957 C   0  0  0  0  0  0  0  0  0  0  0  0
   28.9444  -20.4815  -15.8748 C   0  0  2  0  0  0  0  0  0  0  0  0
   28.5334  -21.2540  -17.0525 N   0  0  0  0  0  0  0  0  0  0  0  0
   28.3894  -21.1209  -14.6762 C   0  0  0  0  0  0  0  0  0  0  0  0
   27.5039  -22.0068  -14.6934 O   0  0  0  0  0  0  0  0  0  0  0  0
   28.8606  -20.7355  -13.3920 N   0  0  0  0  0  0  0  0  0  0  0  0
   29.8439  -19.7974  -12.9406 C   0  0  0  0  0  0  0  0  0  0  0  0
   30.6609  -20.6953  -11.9950 C   0  0  0  0  0  0  0  0  0  0  0  0
   29.4990  -21.3264  -11.2061 C   0  0  0  0  0  0  0  0  0  0  0  0
   28.3200  -21.2940  -12.1529 C   0  0  1  0  0  0  0  0  0  0  0  0
   27.3013  -20.3480  -11.6392 C   0  0  0  0  0  0  0  0  0  0  0  0
   27.2246  -19.1490  -12.0847 O   0  0  0  0  0  0  0  0  0  0  0  0
   22.4619  -20.1174  -13.2168 C   0  0  0  0  0  0  0  0  0  0  0  0
   23.0185  -19.7569  -11.8297 C   0  0  0  0  0  0  0  0  0  0  0  0
   24.3319  -20.4435  -11.7132 C   0  0  2  0  0  0  0  0  0  0  0  0
   24.2227  -21.9518  -11.8820 C   0  0  0  0  0  0  0  0  0  0  0  0
   25.0888  -20.1937  -10.4420 C   0  0  2  0  0  0  0  0  0  0  0  0
   26.4071  -20.8048  -10.6359 N   0  0  0  0  0  0  0  0  0  0  0  0
   24.4381  -20.7026   -9.2256 C   0  0  0  0  0  0  0  0  0  0  0  0
   24.6842  -21.9617   -8.6932 O   0  0  0  0  0  0  0  0  0  0  0  0
   23.6108  -19.9902   -8.6083 O   0  0  0  0  0  0  0  0  0  0  0  0
  2  1  1  0
  2  3  2  0
  4  2  1  0
  5  4  1  0
  6  5  1  0
  6  7  1  6
  8  6  1  0
  8 10  1  0
  9  8  2  0
 10 14  1  0
 10 11  1  0
 11 12  1  0
 13 12  1  0
 14 13  1  0
 14 15  1  1
 16 15  2  0
 18 17  1  0
 19 18  1  0
 19 21  1  0
 19 20  1  1
 21 22  1  6
 21 23  1  0
 22 15  1  0
 23 25  2  0
 23 24  1  0
M  END
$$$$
