QPI.pdb
     RDKit          3D

 25 25  0  0  1  0  0  0  0  0999 V2000
   23.5720  -18.7342  -14.4195 N   0  0  0  0  0  0  0  0  0  0  0  0
   22.3283  -19.3417  -14.1319 C   0  0  0  0  0  0  0  0  0  0  0  0
   21.3295  -19.1059  -14.8406 O   0  0  0  0  0  0  0  0  0  0  0  0
   22.1814  -20.2789  -12.9740 C   0  0  0  0  0  0  0  0  0  0  0  0
   23.4212  -20.2755  -12.1444 C   0  0  0  0  0  0  0  0  0  0  0  0
   24.4557  -21.2219  -12.6387 C   0  0  2  0  0  0  0  0  0  0  0  0
   23.8405  -22.4195  -13.2216 N   0  0  0  0  0  0  0  0  0  0  0  0
   25.3788  -21.6376  -11.5762 C   0  0  0  0  0  0  0  0  0  0  0  0
   25.2054  -22.6359  -10.8398 O   0  0  0  0  0  0  0  0  0  0  0  0
   26.5580  -20.8821  -11.3345 N   0  0  0  0  0  0  0  0  0  0  0  0
   27.0983  -19.6842  -11.9036 C   0  0  0  0  0  0  0  0  0  0  0  0
   28.5282  -20.1559  -12.2206 C   0  0  0  0  0  0  0  0  0  0  0  0
   28.8637  -20.8168  -10.8711 C   0  0  0  0  0  0  0  0  0  0  0  0
   27.5290  -21.2438  -10.3020 C   0  0  1  0  0  0  0  0  0  0  0  0
   27.2263  -20.4365   -9.0966 C   0  0  0  0  0  0  0  0  0  0  0  0
   26.4386  -19.4275   -9.1541 O   0  0  0  0  0  0  0  0  0  0  0  0
   28.8519  -21.3277   -3.2386 C   0  0  0  0  0  0  0  0  0  0  0  0
   27.9745  -20.4479   -4.1442 C   0  0  0  0  0  0  0  0  0  0  0  0
   28.2418  -20.8846   -5.5399 C   0  0  2  0  0  0  0  0  0  0  0  0
   29.7215  -20.8496   -5.8926 C   0  0  0  0  0  0  0  0  0  0  0  0
   27.5129  -20.1286   -6.6115 C   0  0  2  0  0  0  0  0  0  0  0  0
   27.8335  -20.8102   -7.8691 N   0  0  0  0  0  0  0  0  0  0  0  0
   27.8343  -18.6956   -6.6839 C   0  0  0  0  0  0  0  0  0  0  0  0
   27.1764  -17.7233   -5.9417 O   0  0  0  0  0  0  0  0  0  0  0  0
   28.7452  -18.2917   -7.4455 O   0  0  0  0  0  0  0  0  0  0  0  0
  2  1  1  0
  2  3  2  0
  4  2  1  0
  5  4  1  0
  6  5  1  0
  6  7  1  1
  8  6  1  0
  8 10  1  0
  9  8  2  0
 10 14  1  0
 10 11  1  0
 11 12  1  0
 13 12  1  0
 14 13  1  0
 14 15  1  1
 16 15  2  0
 18 17  1  0
 19 18  1  0
 19 21  1  0
 19 20  1  6
 21 22  1  6
 21 23  1  0
 22 15  1  0
 23 25  2  0
 23 24  1  0
M  END
$$$$
