QPI.pdb
     RDKit          3D

 25 25  0  0  1  0  0  0  0  0999 V2000
   23.1458  -19.4895  -14.2572 N   0  0  0  0  0  0  0  0  0  0  0  0
   22.7062  -19.7015  -12.9304 C   0  0  0  0  0  0  0  0  0  0  0  0
   21.5147  -19.5051  -12.6191 O   0  0  0  0  0  0  0  0  0  0  0  0
   23.6575  -20.1650  -11.8716 C   0  0  0  0  0  0  0  0  0  0  0  0
   25.0434  -20.2419  -12.4181 C   0  0  0  0  0  0  0  0  0  0  0  0
   25.5859  -21.6259  -12.4385 C   0  0  2  0  0  0  0  0  0  0  0  0
   24.5081  -22.6137  -12.5629 N   0  0  0  0  0  0  0  0  0  0  0  0
   26.3673  -21.9322  -11.2347 C   0  0  0  0  0  0  0  0  0  0  0  0
   26.0282  -22.7679  -10.3655 O   0  0  0  0  0  0  0  0  0  0  0  0
   27.5953  -21.2553  -11.0029 N   0  0  0  0  0  0  0  0  0  0  0  0
   28.2912  -20.2081  -11.6884 C   0  0  0  0  0  0  0  0  0  0  0  0
   29.6863  -20.8454  -11.8115 C   0  0  0  0  0  0  0  0  0  0  0  0
   29.8567  -21.3236  -10.3579 C   0  0  0  0  0  0  0  0  0  0  0  0
   28.4489  -21.5419   -9.8502 C   0  0  1  0  0  0  0  0  0  0  0  0
   28.1419  -20.5398   -8.8023 C   0  0  0  0  0  0  0  0  0  0  0  0
   27.3792  -19.5389   -9.0442 O   0  0  0  0  0  0  0  0  0  0  0  0
   28.5087  -21.5248   -2.8209 C   0  0  0  0  0  0  0  0  0  0  0  0
   27.9776  -20.5141   -3.8507 C   0  0  0  0  0  0  0  0  0  0  0  0
   28.5368  -20.9223   -5.1663 C   0  0  2  0  0  0  0  0  0  0  0  0
   30.0540  -21.0369   -5.1491 C   0  0  0  0  0  0  0  0  0  0  0  0
   28.1717  -20.0490   -6.3303 C   0  0  2  0  0  0  0  0  0  0  0  0
   28.7164  -20.7164   -7.5163 N   0  0  0  0  0  0  0  0  0  0  0  0
   28.6463  -18.6606   -6.2337 C   0  0  0  0  0  0  0  0  0  0  0  0
   27.9048  -17.6342   -5.6628 O   0  0  0  0  0  0  0  0  0  0  0  0
   29.7761  -18.3483   -6.6797 O   0  0  0  0  0  0  0  0  0  0  0  0
  2  1  1  0
  2  3  2  0
  4  2  1  0
  5  4  1  0
  6  5  1  0
  6  7  1  1
  8  6  1  0
  8 10  1  0
  9  8  2  0
 10 14  1  0
 10 11  1  0
 11 12  1  0
 13 12  1  0
 14 13  1  0
 14 15  1  1
 16 15  2  0
 18 17  1  0
 19 18  1  0
 19 21  1  0
 19 20  1  1
 21 22  1  6
 21 23  1  0
 22 15  1  0
 23 25  2  0
 23 24  1  0
M  END
$$$$
