TFC.pdb
     RDKit          3D

 25 25  0  0  1  0  0  0  0  0999 V2000
    7.3463  -18.5851   18.7576 C   0  0  0  0  0  0  0  0  0  0  0  0
    7.9197  -17.9878   20.0306 C   0  0  1  0  0  0  0  0  0  0  0  0
    9.2084  -18.4234   20.2411 O   0  0  0  0  0  0  0  0  0  0  0  0
    7.9300  -16.4862   19.8654 C   0  0  2  0  0  0  0  0  0  0  0  0
    8.7782  -16.1675   18.7113 N   0  0  0  0  0  0  0  0  0  0  0  0
    8.4156  -15.7700   21.0726 C   0  0  0  0  0  0  0  0  0  0  0  0
    9.6408  -15.5490   21.2772 O   0  0  0  0  0  0  0  0  0  0  0  0
    7.4984  -15.3178   22.0239 N   0  0  0  0  0  0  0  0  0  0  0  0
    7.8793  -14.6809   23.2827 C   0  0  1  0  0  0  0  0  0  0  0  0
    6.5941  -14.0181   23.8034 C   0  0  0  0  0  0  0  0  0  0  0  0
    6.8543  -13.2726   25.0469 C   0  0  0  0  0  0  0  0  0  0  0  0
    7.6126  -12.1055   25.0172 C   0  0  0  0  0  0  0  0  0  0  0  0
    7.8728  -11.3851   26.1690 C   0  0  0  0  0  0  0  0  0  0  0  0
    7.3612  -11.8501   27.3597 C   0  0  0  0  0  0  0  0  0  0  0  0
    6.6114  -13.0075   27.3767 C   0  0  0  0  0  0  0  0  0  0  0  0
    6.3385  -13.7430   26.2416 C   0  0  0  0  0  0  0  0  0  0  0  0
    8.3820  -15.6524   24.2609 C   0  0  0  0  0  0  0  0  0  0  0  0
    7.6820  -16.6582   24.5316 O   0  0  0  0  0  0  0  0  0  0  0  0
    9.6259  -15.5209   24.9262 N   0  0  0  0  0  0  0  0  0  0  0  0
   10.2161  -16.5479   25.7516 C   0  0  1  0  0  0  0  0  0  0  0  0
   11.7323  -16.5525   25.5545 C   0  0  0  0  0  0  0  0  0  0  0  0
   12.1375  -16.9149   23.8425 S   0  0  0  0  0  0  0  0  0  0  0  0
    9.9601  -16.2266   27.1873 C   0  0  0  0  0  0  0  0  0  0  0  0
   10.3701  -17.0010   28.0901 O   0  0  0  0  0  0  0  0  0  0  0  0
    9.2733  -15.0849   27.5874 O   0  0  0  0  0  0  0  0  0  0  0  0
  2  1  1  6
  3  2  1  0
  4  2  1  0
  4  6  1  0
  4  5  1  6
  6  7  2  0
  8  6  1  0
  8  9  1  0
  9 10  1  1
 10 11  1  0
 11 16  2  0
 12 11  1  0
 12 13  2  0
 13 14  1  0
 14 15  2  0
 16 15  1  0
 17  9  1  0
 17 18  2  0
 19 17  1  0
 20 19  1  0
 20 23  1  0
 20 21  1  1
 22 21  1  0
 23 25  1  0
 24 23  2  0
M  END
$$$$
