TFC.pdb
     RDKit          3D

 25 25  0  0  1  0  0  0  0  0999 V2000
    8.3754  -18.4180   18.7244 C   0  0  0  0  0  0  0  0  0  0  0  0
    8.6686  -17.8761   20.1124 C   0  0  1  0  0  0  0  0  0  0  0  0
    9.6940  -18.5760   20.7071 O   0  0  0  0  0  0  0  0  0  0  0  0
    9.0844  -16.4318   19.9596 C   0  0  2  0  0  0  0  0  0  0  0  0
   10.2907  -16.3979   19.1250 N   0  0  0  0  0  0  0  0  0  0  0  0
    9.3396  -15.7579   21.2584 C   0  0  0  0  0  0  0  0  0  0  0  0
   10.4986  -15.6514   21.7454 O   0  0  0  0  0  0  0  0  0  0  0  0
    8.2719  -15.2170   21.9783 N   0  0  0  0  0  0  0  0  0  0  0  0
    8.4062  -14.6142   23.3026 C   0  0  1  0  0  0  0  0  0  0  0  0
    7.0553  -13.9332   23.5736 C   0  0  0  0  0  0  0  0  0  0  0  0
    7.0285  -13.3366   24.9202 C   0  0  0  0  0  0  0  0  0  0  0  0
    6.3034  -13.9455   25.9407 C   0  0  0  0  0  0  0  0  0  0  0  0
    6.2603  -13.4080   27.2144 C   0  0  0  0  0  0  0  0  0  0  0  0
    6.9567  -12.2451   27.4565 C   0  0  0  0  0  0  0  0  0  0  0  0
    7.6715  -11.6510   26.4375 C   0  0  0  0  0  0  0  0  0  0  0  0
    7.7296  -12.1680   25.1595 C   0  0  0  0  0  0  0  0  0  0  0  0
    8.6867  -15.6160   24.3374 C   0  0  0  0  0  0  0  0  0  0  0  0
    7.9579  -16.6352   24.4082 O   0  0  0  0  0  0  0  0  0  0  0  0
    9.7442  -15.4998   25.2730 N   0  0  0  0  0  0  0  0  0  0  0  0
   10.1923  -16.5739   26.1273 C   0  0  1  0  0  0  0  0  0  0  0  0
   11.7021  -16.7563   25.9688 C   0  0  0  0  0  0  0  0  0  0  0  0
   12.3076  -17.9829   27.1330 S   0  0  0  0  0  0  0  0  0  0  0  0
    9.9413  -16.2013   27.5514 C   0  0  0  0  0  0  0  0  0  0  0  0
   10.1378  -17.0411   28.4675 O   0  0  0  0  0  0  0  0  0  0  0  0
    9.4895  -14.9401   27.9263 O   0  0  0  0  0  0  0  0  0  0  0  0
  2  1  1  6
  3  2  1  0
  4  2  1  0
  4  6  1  0
  4  5  1  6
  6  7  2  0
  8  6  1  0
  8  9  1  0
  9 10  1  1
 10 11  1  0
 11 16  2  0
 12 11  1  0
 12 13  2  0
 13 14  1  0
 14 15  2  0
 16 15  1  0
 17  9  1  0
 17 18  2  0
 19 17  1  0
 20 19  1  0
 20 23  1  0
 20 21  1  1
 22 21  1  0
 23 25  1  0
 24 23  2  0
M  END
$$$$
