TFC.pdb
     RDKit          3D

 25 25  0  0  1  0  0  0  0  0999 V2000
    9.3646  -19.3067   19.8056 C   0  0  0  0  0  0  0  0  0  0  0  0
    9.8393  -18.5007   21.0019 C   0  0  1  0  0  0  0  0  0  0  0  0
   11.1648  -18.7560   21.2720 O   0  0  0  0  0  0  0  0  0  0  0  0
    9.6815  -17.0382   20.6580 C   0  0  2  0  0  0  0  0  0  0  0  0
   10.6780  -16.7080   19.6328 N   0  0  0  0  0  0  0  0  0  0  0  0
    9.8375  -16.1428   21.8328 C   0  0  0  0  0  0  0  0  0  0  0  0
   10.9657  -15.7357   22.2240 O   0  0  0  0  0  0  0  0  0  0  0  0
    8.7072  -15.7265   22.5398 N   0  0  0  0  0  0  0  0  0  0  0  0
    8.7574  -14.8712   23.7235 C   0  0  1  0  0  0  0  0  0  0  0  0
    7.3391  -14.2964   23.8652 C   0  0  0  0  0  0  0  0  0  0  0  0
    7.2231  -13.4789   25.0850 C   0  0  0  0  0  0  0  0  0  0  0  0
    6.5331  -13.9671   26.1913 C   0  0  0  0  0  0  0  0  0  0  0  0
    6.4082  -13.2218   27.3497 C   0  0  0  0  0  0  0  0  0  0  0  0
    6.9862  -11.9728   27.3883 C   0  0  0  0  0  0  0  0  0  0  0  0
    7.6673  -11.4997   26.2862 C   0  0  0  0  0  0  0  0  0  0  0  0
    7.8053  -12.2242   25.1200 C   0  0  0  0  0  0  0  0  0  0  0  0
    9.1240  -15.6221   24.9297 C   0  0  0  0  0  0  0  0  0  0  0  0
    8.4881  -16.6670   25.2103 O   0  0  0  0  0  0  0  0  0  0  0  0
   10.1658  -15.2330   25.8074 N   0  0  0  0  0  0  0  0  0  0  0  0
   10.6420  -16.0377   26.9073 C   0  0  1  0  0  0  0  0  0  0  0  0
   12.1604  -15.8985   27.0219 C   0  0  0  0  0  0  0  0  0  0  0  0
   12.9781  -17.1323   26.0043 S   0  0  0  0  0  0  0  0  0  0  0  0
   10.0556  -15.5206   28.1796 C   0  0  0  0  0  0  0  0  0  0  0  0
    9.5100  -14.3872   28.2082 O   0  0  0  0  0  0  0  0  0  0  0  0
   10.0827  -16.2473   29.3655 O   0  0  0  0  0  0  0  0  0  0  0  0
  2  1  1  6
  3  2  1  0
  4  2  1  0
  4  6  1  0
  4  5  1  6
  6  7  2  0
  8  6  1  0
  8  9  1  0
  9 10  1  1
 10 11  1  0
 11 16  2  0
 12 11  1  0
 12 13  2  0
 13 14  1  0
 14 15  2  0
 16 15  1  0
 17  9  1  0
 17 18  2  0
 19 17  1  0
 20 19  1  0
 20 23  1  0
 20 21  1  1
 22 21  1  0
 23 25  1  0
 24 23  2  0
M  END
$$$$
