TFC.pdb
     RDKit          3D

 25 25  0  0  1  0  0  0  0  0999 V2000
    7.2219  -16.5306   18.8881 C   0  0  0  0  0  0  0  0  0  0  0  0
    7.7995  -16.7540   20.2747 C   0  0  1  0  0  0  0  0  0  0  0  0
    8.8908  -17.5915   20.2238 O   0  0  0  0  0  0  0  0  0  0  0  0
    8.2368  -15.4101   20.8083 C   0  0  2  0  0  0  0  0  0  0  0  0
    9.2462  -14.8696   19.8907 N   0  0  0  0  0  0  0  0  0  0  0  0
    8.7823  -15.4799   22.1881 C   0  0  0  0  0  0  0  0  0  0  0  0
   10.0219  -15.4787   22.4229 O   0  0  0  0  0  0  0  0  0  0  0  0
    7.9076  -15.5489   23.2748 N   0  0  0  0  0  0  0  0  0  0  0  0
    8.3436  -15.6909   24.6622 C   0  0  1  0  0  0  0  0  0  0  0  0
    7.0991  -15.3804   25.5089 C   0  0  0  0  0  0  0  0  0  0  0  0
    7.0894  -13.9690   25.9305 C   0  0  0  0  0  0  0  0  0  0  0  0
    8.2814  -13.3286   26.2580 C   0  0  0  0  0  0  0  0  0  0  0  0
    8.3025  -12.0044   26.6570 C   0  0  0  0  0  0  0  0  0  0  0  0
    7.1076  -11.3236   26.7249 C   0  0  0  0  0  0  0  0  0  0  0  0
    5.9332  -11.9686   26.3981 C   0  0  0  0  0  0  0  0  0  0  0  0
    5.8867  -13.2882   25.9976 C   0  0  0  0  0  0  0  0  0  0  0  0
    8.8290  -17.0453   24.9505 C   0  0  0  0  0  0  0  0  0  0  0  0
    8.5436  -17.9739   24.1560 O   0  0  0  0  0  0  0  0  0  0  0  0
    9.6105  -17.3713   26.0864 N   0  0  0  0  0  0  0  0  0  0  0  0
   10.6863  -18.3340   26.0809 C   0  0  1  0  0  0  0  0  0  0  0  0
   11.8240  -17.8231   25.1963 C   0  0  0  0  0  0  0  0  0  0  0  0
   12.1118  -18.9575   23.8336 S   0  0  0  0  0  0  0  0  0  0  0  0
   11.2304  -18.4651   27.4654 C   0  0  0  0  0  0  0  0  0  0  0  0
   11.1095  -17.5168   28.2834 O   0  0  0  0  0  0  0  0  0  0  0  0
   11.8811  -19.6122   27.9079 O   0  0  0  0  0  0  0  0  0  0  0  0
  2  1  1  6
  3  2  1  0
  4  2  1  0
  4  6  1  0
  4  5  1  6
  6  7  2  0
  8  6  1  0
  8  9  1  0
  9 10  1  1
 10 11  1  0
 11 16  2  0
 12 11  1  0
 12 13  2  0
 13 14  1  0
 14 15  2  0
 16 15  1  0
 17  9  1  0
 17 18  2  0
 19 17  1  0
 20 19  1  0
 20 23  1  0
 20 21  1  6
 22 21  1  0
 23 25  1  0
 24 23  2  0
M  END
$$$$
