TFC.pdb
     RDKit          3D

 25 25  0  0  1  0  0  0  0  0999 V2000
    7.1539  -15.2833   17.6651 C   0  0  0  0  0  0  0  0  0  0  0  0
    7.8465  -15.3658   19.0140 C   0  0  1  0  0  0  0  0  0  0  0  0
    9.2103  -15.4727   18.8608 O   0  0  0  0  0  0  0  0  0  0  0  0
    7.5354  -14.0924   19.7649 C   0  0  2  0  0  0  0  0  0  0  0  0
    8.0485  -12.9681   18.9739 N   0  0  0  0  0  0  0  0  0  0  0  0
    8.1152  -14.0651   21.1321 C   0  0  0  0  0  0  0  0  0  0  0  0
    9.2460  -13.5605   21.3739 O   0  0  0  0  0  0  0  0  0  0  0  0
    7.3975  -14.6113   22.1985 N   0  0  0  0  0  0  0  0  0  0  0  0
    7.9206  -14.7237   23.5583 C   0  0  1  0  0  0  0  0  0  0  0  0
    6.6809  -14.7365   24.4666 C   0  0  0  0  0  0  0  0  0  0  0  0
    6.7962  -13.7205   25.5269 C   0  0  0  0  0  0  0  0  0  0  0  0
    7.8480  -13.7756   26.4372 C   0  0  0  0  0  0  0  0  0  0  0  0
    7.9814  -12.8354   27.4429 C   0  0  0  0  0  0  0  0  0  0  0  0
    7.0426  -11.8318   27.5274 C   0  0  0  0  0  0  0  0  0  0  0  0
    6.0049  -11.7875   26.6200 C   0  0  0  0  0  0  0  0  0  0  0  0
    5.8508  -12.7135   25.6087 C   0  0  0  0  0  0  0  0  0  0  0  0
    8.7016  -15.9515   23.7476 C   0  0  0  0  0  0  0  0  0  0  0  0
    8.1364  -17.0605   23.5880 O   0  0  0  0  0  0  0  0  0  0  0  0
   10.0727  -15.9596   24.1043 N   0  0  0  0  0  0  0  0  0  0  0  0
   10.8696  -17.1565   24.2334 C   0  0  1  0  0  0  0  0  0  0  0  0
   12.2729  -16.8971   23.6846 C   0  0  0  0  0  0  0  0  0  0  0  0
   12.8729  -15.2970   24.2380 S   0  0  0  0  0  0  0  0  0  0  0  0
   11.0181  -17.4897   25.6814 C   0  0  0  0  0  0  0  0  0  0  0  0
   11.6535  -18.5181   26.0304 O   0  0  0  0  0  0  0  0  0  0  0  0
   10.4755  -16.7003   26.6902 O   0  0  0  0  0  0  0  0  0  0  0  0
  2  1  1  6
  3  2  1  0
  4  2  1  0
  4  6  1  0
  4  5  1  6
  6  7  2  0
  8  6  1  0
  8  9  1  0
  9 10  1  1
 10 11  1  0
 11 16  2  0
 12 11  1  0
 12 13  2  0
 13 14  1  0
 14 15  2  0
 16 15  1  0
 17  9  1  0
 17 18  2  0
 19 17  1  0
 20 19  1  0
 20 23  1  0
 20 21  1  1
 22 21  1  0
 23 25  1  0
 24 23  2  0
M  END
$$$$
