TFC.pdb
     RDKit          3D

 25 25  0  0  1  0  0  0  0  0999 V2000
    7.3837  -18.0219   18.1701 C   0  0  0  0  0  0  0  0  0  0  0  0
    7.7759  -17.6381   19.5861 C   0  0  1  0  0  0  0  0  0  0  0  0
    8.6027  -18.5881   20.1418 O   0  0  0  0  0  0  0  0  0  0  0  0
    8.5176  -16.3241   19.5135 C   0  0  2  0  0  0  0  0  0  0  0  0
    9.7276  -16.5352   18.7108 N   0  0  0  0  0  0  0  0  0  0  0  0
    8.8757  -15.7820   20.8492 C   0  0  0  0  0  0  0  0  0  0  0  0
    9.9958  -16.0019   21.3868 O   0  0  0  0  0  0  0  0  0  0  0  0
    7.9536  -14.9994   21.5478 N   0  0  0  0  0  0  0  0  0  0  0  0
    8.1276  -14.5835   22.9377 C   0  0  1  0  0  0  0  0  0  0  0  0
    6.9269  -13.6724   23.2384 C   0  0  0  0  0  0  0  0  0  0  0  0
    6.9661  -13.1943   24.6312 C   0  0  0  0  0  0  0  0  0  0  0  0
    8.0059  -12.3739   25.0601 C   0  0  0  0  0  0  0  0  0  0  0  0
    8.0684  -11.9101   26.3617 C   0  0  0  0  0  0  0  0  0  0  0  0
    7.0706  -12.2798   27.2355 C   0  0  0  0  0  0  0  0  0  0  0  0
    6.0456  -13.0929   26.7990 C   0  0  0  0  0  0  0  0  0  0  0  0
    5.9616  -13.5679   25.5062 C   0  0  0  0  0  0  0  0  0  0  0  0
    8.1400  -15.7272   23.8569 C   0  0  0  0  0  0  0  0  0  0  0  0
    7.3049  -16.6489   23.6896 O   0  0  0  0  0  0  0  0  0  0  0  0
    9.0499  -15.8546   24.9354 N   0  0  0  0  0  0  0  0  0  0  0  0
    9.4472  -17.1153   25.5161 C   0  0  1  0  0  0  0  0  0  0  0  0
   10.4634  -17.8006   24.6020 C   0  0  0  0  0  0  0  0  0  0  0  0
   11.1328  -19.2639   25.4004 S   0  0  0  0  0  0  0  0  0  0  0  0
   10.1302  -16.8584   26.8189 C   0  0  0  0  0  0  0  0  0  0  0  0
    9.8183  -17.5275   27.8377 O   0  0  0  0  0  0  0  0  0  0  0  0
   11.1196  -15.8918   26.9670 O   0  0  0  0  0  0  0  0  0  0  0  0
  2  1  1  6
  3  2  1  0
  4  2  1  0
  4  6  1  0
  4  5  1  6
  6  7  2  0
  8  6  1  0
  8  9  1  0
  9 10  1  1
 10 11  1  0
 11 16  2  0
 12 11  1  0
 12 13  2  0
 13 14  1  0
 14 15  2  0
 16 15  1  0
 17  9  1  0
 17 18  2  0
 19 17  1  0
 20 19  1  0
 20 23  1  0
 20 21  1  6
 22 21  1  0
 23 25  1  0
 24 23  2  0
M  END
$$$$
