TFC.pdb
     RDKit          3D

 25 25  0  0  1  0  0  0  0  0999 V2000
    8.8215  -18.3992   18.8233 C   0  0  0  0  0  0  0  0  0  0  0  0
    8.9843  -17.9130   20.2528 C   0  0  1  0  0  0  0  0  0  0  0  0
    9.8788  -18.7010   20.9412 O   0  0  0  0  0  0  0  0  0  0  0  0
    9.5171  -16.5006   20.1960 C   0  0  2  0  0  0  0  0  0  0  0  0
   10.8158  -16.5378   19.5142 N   0  0  0  0  0  0  0  0  0  0  0  0
    9.6588  -15.8765   21.5364 C   0  0  0  0  0  0  0  0  0  0  0  0
   10.7536  -15.8690   22.1634 O   0  0  0  0  0  0  0  0  0  0  0  0
    8.5527  -15.2719   22.1380 N   0  0  0  0  0  0  0  0  0  0  0  0
    8.5491  -14.7619   23.5073 C   0  0  1  0  0  0  0  0  0  0  0  0
    7.2618  -13.9304   23.6237 C   0  0  0  0  0  0  0  0  0  0  0  0
    7.1073  -13.3892   24.9849 C   0  0  0  0  0  0  0  0  0  0  0  0
    7.9494  -12.3758   25.4346 C   0  0  0  0  0  0  0  0  0  0  0  0
    7.8274  -11.8486   26.7075 C   0  0  0  0  0  0  0  0  0  0  0  0
    6.8454  -12.3513   27.5313 C   0  0  0  0  0  0  0  0  0  0  0  0
    6.0171  -13.3552   27.0748 C   0  0  0  0  0  0  0  0  0  0  0  0
    6.1193  -13.8969   25.8099 C   0  0  0  0  0  0  0  0  0  0  0  0
    8.5456  -15.8447   24.4977 C   0  0  0  0  0  0  0  0  0  0  0  0
    7.5770  -16.6423   24.5209 O   0  0  0  0  0  0  0  0  0  0  0  0
    9.5834  -16.0458   25.4410 N   0  0  0  0  0  0  0  0  0  0  0  0
    9.5999  -17.1136   26.4124 C   0  0  1  0  0  0  0  0  0  0  0  0
   10.7657  -18.0570   26.1142 C   0  0  0  0  0  0  0  0  0  0  0  0
   10.6494  -18.6800   24.4335 S   0  0  0  0  0  0  0  0  0  0  0  0
    9.8377  -16.5355   27.7686 C   0  0  0  0  0  0  0  0  0  0  0  0
   10.0467  -15.3018   27.9009 O   0  0  0  0  0  0  0  0  0  0  0  0
    9.8399  -17.3118   28.9229 O   0  0  0  0  0  0  0  0  0  0  0  0
  2  1  1  6
  3  2  1  0
  4  2  1  0
  4  6  1  0
  4  5  1  1
  6  7  2  0
  8  6  1  0
  8  9  1  0
  9 10  1  6
 10 11  1  0
 11 16  2  0
 12 11  1  0
 12 13  2  0
 13 14  1  0
 14 15  2  0
 16 15  1  0
 17  9  1  0
 17 18  2  0
 19 17  1  0
 20 19  1  0
 20 23  1  0
 20 21  1  6
 22 21  1  0
 23 25  1  0
 24 23  2  0
M  END
$$$$
