LRG.pdb
     RDKit          3D

 24 23  0  0  1  0  0  0  0  0999 V2000
    6.1331  -11.4806   26.3379 C   0  0  0  0  0  0  0  0  0  0  0  0
    6.9807  -12.6999   26.4354 C   0  0  1  0  0  0  0  0  0  0  0  0
    7.8907  -12.5891   27.6366 C   0  0  0  0  0  0  0  0  0  0  0  0
    6.2726  -14.0059   26.3795 C   0  0  0  0  0  0  0  0  0  0  0  0
    7.1249  -15.2307   26.4632 C   0  0  2  0  0  0  0  0  0  0  0  0
    8.4407  -14.9225   27.0036 N   0  0  0  0  0  0  0  0  0  0  0  0
    7.3570  -15.6555   25.0315 C   0  0  0  0  0  0  0  0  0  0  0  0
    6.4511  -16.2471   24.3825 O   0  0  0  0  0  0  0  0  0  0  0  0
    8.3210  -12.0246   19.1631 N   0  0  0  0  0  0  0  0  0  0  0  0
    8.1981  -13.3420   18.6614 C   0  0  0  0  0  0  0  0  0  0  0  0
    8.5370  -13.5460   17.4267 N   0  0  0  0  0  0  0  0  0  0  0  0
    7.7217  -14.4138   19.4740 N   0  0  0  0  0  0  0  0  0  0  0  0
    6.8611  -14.1538   20.6173 C   0  0  0  0  0  0  0  0  0  0  0  0
    7.5992  -14.2468   21.9097 C   0  0  0  0  0  0  0  0  0  0  0  0
    8.6893  -15.2591   21.9181 C   0  0  0  0  0  0  0  0  0  0  0  0
    8.9211  -16.0400   23.1490 C   0  0  2  0  0  0  0  0  0  0  0  0
    8.6035  -15.3924   24.3981 N   0  0  0  0  0  0  0  0  0  0  0  0
   10.3843  -16.3594   23.1918 C   0  0  0  0  0  0  0  0  0  0  0  0
   11.1196  -15.7355   23.9684 O   0  0  0  0  0  0  0  0  0  0  0  0
    8.4555  -14.4712   16.9980 N   0  0  0  0  0  0  0  0  0  0  0  0
   10.8926  -17.3582   22.3547 C   0  0  0  0  0  0  0  0  0  0  0  0
   12.2887  -17.7496   22.3292 C   0  0  0  0  0  0  0  0  0  0  0  0
   12.5777  -18.7878   21.3463 O   0  0  0  0  0  0  0  0  0  0  0  0
   11.6618  -19.3449   20.7026 O   0  0  0  0  0  0  0  0  0  0  0  0
  2  1  1  1
  2  3  1  0
  4  2  1  0
  4  5  1  0
  5  6  1  6
  7  5  1  0
  7  8  2  0
 10  9  1  0
 11 10  2  0
 12 10  1  0
 13 14  1  0
 13 12  1  0
 14 15  1  0
 16 15  1  6
 16 17  1  0
 17  7  1  0
 18 16  1  0
 19 18  2  0
 20 18  1  0
 21 20  1  0
 22 24  1  0
 22 21  1  0
 23 22  2  0
M  END
$$$$
