LRG.pdb
     RDKit          3D

 24 23  0  0  1  0  0  0  0  0999 V2000
   10.5174  -14.0027   29.2169 C   0  0  0  0  0  0  0  0  0  0  0  0
    9.3689  -14.6952   28.5721 C   0  0  1  0  0  0  0  0  0  0  0  0
    8.2360  -13.7159   28.3698 C   0  0  0  0  0  0  0  0  0  0  0  0
    9.6702  -15.4751   27.3428 C   0  0  0  0  0  0  0  0  0  0  0  0
    8.5655  -16.3268   26.8059 C   0  0  2  0  0  0  0  0  0  0  0  0
    8.6558  -17.6889   27.3109 N   0  0  0  0  0  0  0  0  0  0  0  0
    8.8195  -16.4213   25.3191 C   0  0  0  0  0  0  0  0  0  0  0  0
    9.4626  -17.3945   24.8383 O   0  0  0  0  0  0  0  0  0  0  0  0
    9.4680  -14.9364   18.0312 N   0  0  0  0  0  0  0  0  0  0  0  0
    8.3365  -14.1686   17.6670 C   0  0  0  0  0  0  0  0  0  0  0  0
    8.2836  -13.7207   16.4514 N   0  0  0  0  0  0  0  0  0  0  0  0
    7.2868  -13.8920   18.5931 N   0  0  0  0  0  0  0  0  0  0  0  0
    7.5858  -13.4210   19.9363 C   0  0  0  0  0  0  0  0  0  0  0  0
    8.3444  -14.4300   20.7303 C   0  0  0  0  0  0  0  0  0  0  0  0
    7.9454  -14.5055   22.1614 C   0  0  0  0  0  0  0  0  0  0  0  0
    8.6041  -15.5018   23.0286 C   0  0  2  0  0  0  0  0  0  0  0  0
    8.3351  -15.4106   24.4428 N   0  0  0  0  0  0  0  0  0  0  0  0
   10.0811  -15.3152   22.8605 C   0  0  0  0  0  0  0  0  0  0  0  0
   10.6580  -14.4272   23.5023 O   0  0  0  0  0  0  0  0  0  0  0  0
    7.4905  -13.1641   16.1231 N   0  0  0  0  0  0  0  0  0  0  0  0
   10.7819  -16.1488   21.9827 C   0  0  0  0  0  0  0  0  0  0  0  0
   12.2061  -16.0358   21.7340 C   0  0  0  0  0  0  0  0  0  0  0  0
   12.6957  -16.9909   20.7464 O   0  0  0  0  0  0  0  0  0  0  0  0
   11.9465  -17.8694   20.2663 O   0  0  0  0  0  0  0  0  0  0  0  0
  2  1  1  6
  2  3  1  0
  4  2  1  0
  4  5  1  0
  5  6  1  1
  7  5  1  0
  7  8  2  0
 10  9  1  0
 11 10  2  0
 12 10  1  0
 13 14  1  0
 13 12  1  0
 14 15  1  0
 16 15  1  6
 16 17  1  0
 17  7  1  0
 18 16  1  0
 19 18  2  0
 20 18  1  0
 21 20  1  0
 22 24  1  0
 22 21  1  0
 23 22  2  0
M  END
$$$$
