LRG.pdb
     RDKit          3D

 24 23  0  0  1  0  0  0  0  0999 V2000
    7.7855  -11.9682   27.6346 C   0  0  0  0  0  0  0  0  0  0  0  0
    6.8741  -12.8769   26.8876 C   0  0  1  0  0  0  0  0  0  0  0  0
    5.8772  -12.0586   26.1001 C   0  0  0  0  0  0  0  0  0  0  0  0
    7.5194  -13.9316   26.0622 C   0  0  0  0  0  0  0  0  0  0  0  0
    6.6065  -14.8071   25.2660 C   0  0  2  0  0  0  0  0  0  0  0  0
    5.7670  -15.6212   26.1325 N   0  0  0  0  0  0  0  0  0  0  0  0
    7.5123  -15.7760   24.5416 C   0  0  0  0  0  0  0  0  0  0  0  0
    7.5771  -16.9842   24.8994 O   0  0  0  0  0  0  0  0  0  0  0  0
    8.7776  -12.8580   18.0924 N   0  0  0  0  0  0  0  0  0  0  0  0
    7.8491  -13.7881   17.5679 C   0  0  0  0  0  0  0  0  0  0  0  0
    7.2735  -13.4903   16.4449 N   0  0  0  0  0  0  0  0  0  0  0  0
    7.5502  -15.0111   18.2393 N   0  0  0  0  0  0  0  0  0  0  0  0
    8.5541  -15.6751   19.0560 C   0  0  0  0  0  0  0  0  0  0  0  0
    8.5975  -15.1336   20.4447 C   0  0  0  0  0  0  0  0  0  0  0  0
    9.5370  -15.8490   21.3495 C   0  0  0  0  0  0  0  0  0  0  0  0
    9.0477  -16.2964   22.6682 C   0  0  2  0  0  0  0  0  0  0  0  0
    8.3045  -15.3350   23.4453 N   0  0  0  0  0  0  0  0  0  0  0  0
   10.2540  -16.6615   23.4782 C   0  0  0  0  0  0  0  0  0  0  0  0
   10.4981  -17.8550   23.6999 O   0  0  0  0  0  0  0  0  0  0  0  0
    6.5693  -14.1042   16.0282 N   0  0  0  0  0  0  0  0  0  0  0  0
   11.0837  -15.6473   23.9676 C   0  0  0  0  0  0  0  0  0  0  0  0
   12.3262  -15.8975   24.6724 C   0  0  0  0  0  0  0  0  0  0  0  0
   13.5102  -15.6500   23.8575 O   0  0  0  0  0  0  0  0  0  0  0  0
   14.6604  -15.7418   24.3395 O   0  0  0  0  0  0  0  0  0  0  0  0
  2  1  1  6
  2  3  1  0
  4  2  1  0
  4  5  1  0
  5  6  1  1
  7  5  1  0
  7  8  2  0
 10  9  1  0
 11 10  2  0
 12 10  1  0
 13 14  1  0
 13 12  1  0
 14 15  1  0
 16 15  1  6
 16 17  1  0
 17  7  1  0
 18 16  1  0
 19 18  2  0
 20 18  1  0
 21 20  1  0
 22 24  1  0
 22 21  1  0
 23 22  2  0
M  END
$$$$
