LRG.pdb
     RDKit          3D

 24 23  0  0  1  0  0  0  0  0999 V2000
    7.4181  -12.2778   27.4700 C   0  0  0  0  0  0  0  0  0  0  0  0
    6.4246  -12.5116   26.3870 C   0  0  1  0  0  0  0  0  0  0  0  0
    6.6229  -11.4922   25.2894 C   0  0  0  0  0  0  0  0  0  0  0  0
    6.3307  -13.8991   25.8616 C   0  0  0  0  0  0  0  0  0  0  0  0
    7.4781  -14.8069   26.1669 C   0  0  2  0  0  0  0  0  0  0  0  0
    8.6732  -14.0504   26.5100 N   0  0  0  0  0  0  0  0  0  0  0  0
    7.7930  -15.5057   24.8644 C   0  0  0  0  0  0  0  0  0  0  0  0
    6.9334  -16.2417   24.3065 O   0  0  0  0  0  0  0  0  0  0  0  0
    8.4128  -12.7560   17.8192 N   0  0  0  0  0  0  0  0  0  0  0  0
    7.4522  -13.4645   18.5791 C   0  0  0  0  0  0  0  0  0  0  0  0
    6.2613  -12.9582   18.6598 N   0  0  0  0  0  0  0  0  0  0  0  0
    7.7695  -14.6913   19.2352 N   0  0  0  0  0  0  0  0  0  0  0  0
    9.1379  -15.1832   19.2696 C   0  0  0  0  0  0  0  0  0  0  0  0
    9.4079  -16.0107   20.4805 C   0  0  0  0  0  0  0  0  0  0  0  0
    9.1255  -15.3194   21.7671 C   0  0  0  0  0  0  0  0  0  0  0  0
    9.3675  -16.0454   23.0292 C   0  0  2  0  0  0  0  0  0  0  0  0
    9.0664  -15.3411   24.2514 N   0  0  0  0  0  0  0  0  0  0  0  0
   10.8297  -16.3695   23.0704 C   0  0  0  0  0  0  0  0  0  0  0  0
   11.3310  -17.0318   22.1522 O   0  0  0  0  0  0  0  0  0  0  0  0
    5.5103  -13.4405   19.1595 N   0  0  0  0  0  0  0  0  0  0  0  0
   11.6022  -15.9164   24.1449 C   0  0  0  0  0  0  0  0  0  0  0  0
   13.0388  -16.0946   24.2315 C   0  0  0  0  0  0  0  0  0  0  0  0
   13.4260  -17.3714   24.8207 O   0  0  0  0  0  0  0  0  0  0  0  0
   12.5756  -18.2503   25.0813 O   0  0  0  0  0  0  0  0  0  0  0  0
  2  1  1  1
  2  3  1  0
  4  2  1  0
  4  5  1  0
  5  6  1  6
  7  5  1  0
  7  8  2  0
 10  9  1  0
 11 10  2  0
 12 10  1  0
 13 14  1  0
 13 12  1  0
 14 15  1  0
 16 15  1  6
 16 17  1  0
 17  7  1  0
 18 16  1  0
 19 18  2  0
 20 18  1  0
 21 20  1  0
 22 24  1  0
 22 21  1  0
 23 22  2  0
M  END
$$$$
