KCL.pdb
     RDKit          3D

 24 23  0  0  1  0  0  0  0  0999 V2000
    8.0766  -14.5829   20.3549 N   0  0  0  0  0  0  0  0  0  0  0  0
    7.2422  -15.0419   21.4779 C   0  0  1  0  0  0  0  0  0  0  0  0
    7.3618  -16.5130   21.5307 C   0  0  0  0  0  0  0  0  0  0  0  0
    8.6360  -17.1493   21.1946 C   0  0  0  0  0  0  0  0  0  0  0  0
    8.8328  -18.5992   21.2089 C   0  0  0  0  0  0  0  0  0  0  0  0
   10.1194  -19.1876   20.7706 C   0  0  0  0  0  0  0  0  0  0  0  0
    9.9737  -20.6563   20.8936 N   0  0  0  0  0  0  0  0  0  0  0  0
    7.9244  -14.4268   22.7063 C   0  0  0  0  0  0  0  0  0  0  0  0
    9.1395  -14.1966   22.7493 O   0  0  0  0  0  0  0  0  0  0  0  0
    7.1250  -14.1137   23.8294 N   0  0  0  0  0  0  0  0  0  0  0  0
    7.6800  -13.5152   25.0611 C   0  0  1  0  0  0  0  0  0  0  0  0
    6.4558  -12.8878   25.7307 C   0  0  0  0  0  0  0  0  0  0  0  0
    6.8508  -12.2298   27.3570 S   0  0  0  0  0  0  0  0  0  0  0  0
    8.3283  -14.5387   25.8789 C   0  0  0  0  0  0  0  0  0  0  0  0
    7.7429  -15.6316   26.0707 O   0  0  0  0  0  0  0  0  0  0  0  0
   11.1858  -16.5335   24.6495 C   0  0  0  0  0  0  0  0  0  0  0  0
   11.9285  -16.6228   25.9567 C   0  0  1  0  0  0  0  0  0  0  0  0
   13.4395  -16.6129   25.6850 C   0  0  0  0  0  0  0  0  0  0  0  0
   11.6116  -15.5567   26.9358 C   0  0  0  0  0  0  0  0  0  0  0  0
   10.1785  -15.3638   27.2862 C   0  0  2  0  0  0  0  0  0  0  0  0
    9.5915  -14.3292   26.4541 N   0  0  0  0  0  0  0  0  0  0  0  0
    9.8879  -15.0800   28.6944 C   0  0  0  0  0  0  0  0  0  0  0  0
    9.4153  -13.9799   29.0886 O   0  0  0  0  0  0  0  0  0  0  0  0
   10.1215  -16.0279   29.7102 O   0  0  0  0  0  0  0  0  0  0  0  0
  2  1  1  6
  3  4  1  0
  3  2  1  0
  5  6  1  0
  5  4  1  0
  7  6  1  0
  8  2  1  0
  8  9  2  0
 10  8  1  0
 11 10  1  0
 11 12  1  1
 13 12  1  0
 14 11  1  0
 15 14  2  0
 17 16  1  6
 17 18  1  0
 20 19  1  1
 19 17  1  0
 20 21  1  0
 21 14  1  0
 22 20  1  0
 23 22  2  0
 24 22  1  0
M  END
$$$$
