KCL.pdb
     RDKit          3D

 24 23  0  0  1  0  0  0  0  0999 V2000
    7.5829  -19.2742   22.2478 N   0  0  0  0  0  0  0  0  0  0  0  0
    9.0313  -19.3163   21.9864 C   0  0  1  0  0  0  0  0  0  0  0  0
    9.2167  -20.0154   20.6987 C   0  0  0  0  0  0  0  0  0  0  0  0
    8.2963  -21.0868   20.3162 C   0  0  0  0  0  0  0  0  0  0  0  0
    8.4185  -21.8359   19.0652 C   0  0  0  0  0  0  0  0  0  0  0  0
    7.4386  -22.8922   18.7227 C   0  0  0  0  0  0  0  0  0  0  0  0
    6.8681  -22.5256   17.4061 N   0  0  0  0  0  0  0  0  0  0  0  0
    9.4101  -17.8384   21.8277 C   0  0  0  0  0  0  0  0  0  0  0  0
   10.5115  -17.4747   21.3963 O   0  0  0  0  0  0  0  0  0  0  0  0
    8.4567  -16.8602   22.1913 N   0  0  0  0  0  0  0  0  0  0  0  0
    8.7281  -15.4104   22.1023 C   0  0  1  0  0  0  0  0  0  0  0  0
    7.4165  -14.8389   21.5604 C   0  0  0  0  0  0  0  0  0  0  0  0
    7.5819  -13.1059   21.1092 S   0  0  0  0  0  0  0  0  0  0  0  0
    9.0956  -14.8783   23.4132 C   0  0  0  0  0  0  0  0  0  0  0  0
   10.1645  -14.2326   23.5348 O   0  0  0  0  0  0  0  0  0  0  0  0
    5.6695  -12.2468   26.1685 C   0  0  0  0  0  0  0  0  0  0  0  0
    7.0032  -12.7292   25.6614 C   0  0  1  0  0  0  0  0  0  0  0  0
    7.9653  -11.5382   25.5481 C   0  0  0  0  0  0  0  0  0  0  0  0
    7.6439  -13.7856   26.4795 C   0  0  0  0  0  0  0  0  0  0  0  0
    8.7221  -14.5814   25.8333 C   0  0  2  0  0  0  0  0  0  0  0  0
    8.2807  -15.0706   24.5398 N   0  0  0  0  0  0  0  0  0  0  0  0
    9.2641  -15.6953   26.6167 C   0  0  0  0  0  0  0  0  0  0  0  0
    9.2043  -16.8950   26.2346 O   0  0  0  0  0  0  0  0  0  0  0  0
    9.8929  -15.4956   27.8615 O   0  0  0  0  0  0  0  0  0  0  0  0
  2  1  1  6
  3  4  1  0
  3  2  1  0
  5  6  1  0
  5  4  1  0
  7  6  1  0
  8  2  1  0
  8  9  2  0
 10  8  1  0
 11 10  1  0
 11 12  1  1
 13 12  1  0
 14 11  1  0
 15 14  2  0
 17 16  1  1
 17 18  1  0
 20 19  1  1
 19 17  1  0
 20 21  1  0
 21 14  1  0
 22 20  1  0
 23 22  2  0
 24 22  1  0
M  END
$$$$
