KCL.pdb
     RDKit          3D

 24 23  0  0  1  0  0  0  0  0999 V2000
    9.2206  -17.6477   20.0613 N   0  0  0  0  0  0  0  0  0  0  0  0
    8.2435  -16.5844   19.7738 C   0  0  1  0  0  0  0  0  0  0  0  0
    7.3125  -17.1175   18.7588 C   0  0  0  0  0  0  0  0  0  0  0  0
    7.8315  -17.5821   17.4718 C   0  0  0  0  0  0  0  0  0  0  0  0
    6.9740  -18.0976   16.4041 C   0  0  0  0  0  0  0  0  0  0  0  0
    7.5627  -18.5764   15.1323 C   0  0  0  0  0  0  0  0  0  0  0  0
    6.4405  -19.1017   14.3209 N   0  0  0  0  0  0  0  0  0  0  0  0
    7.5042  -16.4070   21.1060 C   0  0  0  0  0  0  0  0  0  0  0  0
    6.4785  -15.7231   21.2138 O   0  0  0  0  0  0  0  0  0  0  0  0
    8.0227  -17.0542   22.2508 N   0  0  0  0  0  0  0  0  0  0  0  0
    7.3990  -16.9354   23.5850 C   0  0  1  0  0  0  0  0  0  0  0  0
    7.2837  -18.3881   24.0509 C   0  0  0  0  0  0  0  0  0  0  0  0
    6.7537  -18.4968   25.7659 S   0  0  0  0  0  0  0  0  0  0  0  0
    8.2245  -16.1079   24.4628 C   0  0  0  0  0  0  0  0  0  0  0  0
    9.4740  -16.1738   24.3704 O   0  0  0  0  0  0  0  0  0  0  0  0
    5.7586  -11.7845   26.7227 C   0  0  0  0  0  0  0  0  0  0  0  0
    6.7260  -12.6834   25.9984 C   0  0  1  0  0  0  0  0  0  0  0  0
    7.4175  -11.8907   24.8803 C   0  0  0  0  0  0  0  0  0  0  0  0
    7.7626  -13.3110   26.8512 C   0  0  0  0  0  0  0  0  0  0  0  0
    8.5164  -14.4543   26.2696 C   0  0  2  0  0  0  0  0  0  0  0  0
    7.6533  -15.2395   25.4061 N   0  0  0  0  0  0  0  0  0  0  0  0
    9.1878  -15.3410   27.2242 C   0  0  0  0  0  0  0  0  0  0  0  0
    8.8775  -16.5542   27.3679 O   0  0  0  0  0  0  0  0  0  0  0  0
   10.2340  -14.8899   28.0530 O   0  0  0  0  0  0  0  0  0  0  0  0
  2  1  1  1
  3  4  1  0
  3  2  1  0
  5  6  1  0
  5  4  1  0
  7  6  1  0
  8  2  1  0
  8  9  2  0
 10  8  1  0
 11 10  1  0
 11 12  1  1
 13 12  1  0
 14 11  1  0
 15 14  2  0
 17 16  1  1
 17 18  1  0
 20 19  1  1
 19 17  1  0
 20 21  1  0
 21 14  1  0
 22 20  1  0
 23 22  2  0
 24 22  1  0
M  END
$$$$
