KCL.pdb
     RDKit          3D

 24 23  0  0  1  0  0  0  0  0999 V2000
    6.9225  -17.4245   19.6980 N   0  0  0  0  0  0  0  0  0  0  0  0
    7.5713  -16.3216   20.4266 C   0  0  1  0  0  0  0  0  0  0  0  0
    6.6852  -15.1460   20.3069 C   0  0  0  0  0  0  0  0  0  0  0  0
    7.2412  -13.8007   20.4575 C   0  0  0  0  0  0  0  0  0  0  0  0
    8.4532  -13.3559   19.7689 C   0  0  0  0  0  0  0  0  0  0  0  0
    9.0964  -12.0724   20.1327 C   0  0  0  0  0  0  0  0  0  0  0  0
   10.3453  -11.9887   19.3411 N   0  0  0  0  0  0  0  0  0  0  0  0
    7.5828  -16.8101   21.8805 C   0  0  0  0  0  0  0  0  0  0  0  0
    6.5831  -17.2876   22.4318 O   0  0  0  0  0  0  0  0  0  0  0  0
    8.7881  -16.7068   22.6119 N   0  0  0  0  0  0  0  0  0  0  0  0
    8.8819  -17.0480   24.0465 C   0  0  1  0  0  0  0  0  0  0  0  0
    9.8875  -18.2008   24.0696 C   0  0  0  0  0  0  0  0  0  0  0  0
   10.2831  -18.7053   25.7497 S   0  0  0  0  0  0  0  0  0  0  0  0
    9.3133  -15.8857   24.8208 C   0  0  0  0  0  0  0  0  0  0  0  0
   10.3773  -15.3001   24.5060 O   0  0  0  0  0  0  0  0  0  0  0  0
    6.0570  -12.0577   26.3130 C   0  0  0  0  0  0  0  0  0  0  0  0
    7.2356  -12.9121   25.9265 C   0  0  1  0  0  0  0  0  0  0  0  0
    8.0897  -12.1635   24.8936 C   0  0  0  0  0  0  0  0  0  0  0  0
    8.1044  -13.3333   27.0506 C   0  0  0  0  0  0  0  0  0  0  0  0
    9.1253  -14.3765   26.7628 C   0  0  2  0  0  0  0  0  0  0  0  0
    8.5651  -15.4071   25.9078 N   0  0  0  0  0  0  0  0  0  0  0  0
    9.7601  -15.0010   27.9270 C   0  0  0  0  0  0  0  0  0  0  0  0
    9.5776  -16.2077   28.2423 O   0  0  0  0  0  0  0  0  0  0  0  0
   10.6239  -14.2852   28.7793 O   0  0  0  0  0  0  0  0  0  0  0  0
  2  1  1  6
  3  4  1  0
  3  2  1  0
  5  6  1  0
  5  4  1  0
  7  6  1  0
  8  2  1  0
  8  9  2  0
 10  8  1  0
 11 10  1  0
 11 12  1  6
 13 12  1  0
 14 11  1  0
 15 14  2  0
 17 16  1  1
 17 18  1  0
 20 19  1  1
 19 17  1  0
 20 21  1  0
 21 14  1  0
 22 20  1  0
 23 22  2  0
 24 22  1  0
M  END
$$$$
