KCL.pdb
     RDKit          3D

 24 23  0  0  1  0  0  0  0  0999 V2000
    8.6771  -19.3754   20.7444 N   0  0  0  0  0  0  0  0  0  0  0  0
    9.9950  -18.8544   21.1443 C   0  0  1  0  0  0  0  0  0  0  0  0
   10.9805  -19.3926   20.1849 C   0  0  0  0  0  0  0  0  0  0  0  0
   10.5579  -20.3746   19.1856 C   0  0  0  0  0  0  0  0  0  0  0  0
   11.4726  -20.9608   18.2055 C   0  0  0  0  0  0  0  0  0  0  0  0
   11.0001  -22.0035   17.2659 C   0  0  0  0  0  0  0  0  0  0  0  0
   12.1119  -22.2517   16.3194 N   0  0  0  0  0  0  0  0  0  0  0  0
    9.8577  -17.3399   20.9443 C   0  0  0  0  0  0  0  0  0  0  0  0
   10.5858  -16.6998   20.1751 O   0  0  0  0  0  0  0  0  0  0  0  0
    8.8567  -16.6565   21.6719 N   0  0  0  0  0  0  0  0  0  0  0  0
    8.6998  -15.1880   21.6259 C   0  0  1  0  0  0  0  0  0  0  0  0
    7.3408  -14.9998   20.9489 C   0  0  0  0  0  0  0  0  0  0  0  0
    6.0313  -15.8559   21.8356 S   0  0  0  0  0  0  0  0  0  0  0  0
    8.7598  -14.6255   22.9737 C   0  0  0  0  0  0  0  0  0  0  0  0
    8.8978  -13.3865   23.1152 O   0  0  0  0  0  0  0  0  0  0  0  0
    8.2917  -12.0287   27.0255 C   0  0  0  0  0  0  0  0  0  0  0  0
    7.2607  -13.0824   26.7167 C   0  0  1  0  0  0  0  0  0  0  0  0
    5.8677  -12.4377   26.6870 C   0  0  0  0  0  0  0  0  0  0  0  0
    7.4734  -13.8201   25.4494 C   0  0  0  0  0  0  0  0  0  0  0  0
    8.5737  -14.8212   25.4256 C   0  0  2  0  0  0  0  0  0  0  0  0
    8.6652  -15.4378   24.1146 N   0  0  0  0  0  0  0  0  0  0  0  0
    8.5224  -15.8654   26.4528 C   0  0  0  0  0  0  0  0  0  0  0  0
    7.7822  -16.8816   26.3610 O   0  0  0  0  0  0  0  0  0  0  0  0
    9.3046  -15.8001   27.6228 O   0  0  0  0  0  0  0  0  0  0  0  0
  2  1  1  6
  3  4  1  0
  3  2  1  0
  5  6  1  0
  5  4  1  0
  7  6  1  0
  8  2  1  0
  8  9  2  0
 10  8  1  0
 11 10  1  0
 11 12  1  1
 13 12  1  0
 14 11  1  0
 15 14  2  0
 17 16  1  6
 17 18  1  0
 20 19  1  6
 19 17  1  0
 20 21  1  0
 21 14  1  0
 22 20  1  0
 23 22  2  0
 24 22  1  0
M  END
$$$$
