KCL.pdb
     RDKit          3D

 24 23  0  0  1  0  0  0  0  0999 V2000
   11.1128  -17.0247   18.7854 N   0  0  0  0  0  0  0  0  0  0  0  0
   10.4996  -17.9542   19.7488 C   0  0  1  0  0  0  0  0  0  0  0  0
   11.5957  -18.7501   20.3374 C   0  0  0  0  0  0  0  0  0  0  0  0
   12.9024  -18.7826   19.6793 C   0  0  0  0  0  0  0  0  0  0  0  0
   14.0169  -19.6016   20.1570 C   0  0  0  0  0  0  0  0  0  0  0  0
   15.3186  -19.5851   19.4509 C   0  0  0  0  0  0  0  0  0  0  0  0
   16.1993  -20.5339   20.1703 N   0  0  0  0  0  0  0  0  0  0  0  0
    9.9086  -17.0253   20.8169 C   0  0  0  0  0  0  0  0  0  0  0  0
   10.0379  -15.7953   20.7767 O   0  0  0  0  0  0  0  0  0  0  0  0
    9.1892  -17.6067   21.8859 N   0  0  0  0  0  0  0  0  0  0  0  0
    8.4954  -16.8007   22.9117 C   0  0  1  0  0  0  0  0  0  0  0  0
    7.1187  -17.4611   23.0073 C   0  0  0  0  0  0  0  0  0  0  0  0
    6.1807  -16.8440   24.4121 S   0  0  0  0  0  0  0  0  0  0  0  0
    9.2396  -16.8250   24.1696 C   0  0  0  0  0  0  0  0  0  0  0  0
    9.7714  -17.8970   24.5465 O   0  0  0  0  0  0  0  0  0  0  0  0
   11.7692  -14.4449   28.5190 C   0  0  0  0  0  0  0  0  0  0  0  0
   10.2668  -14.5301   28.4564 C   0  0  1  0  0  0  0  0  0  0  0  0
    9.6580  -13.3364   29.2057 C   0  0  0  0  0  0  0  0  0  0  0  0
    9.6946  -14.5797   27.0905 C   0  0  0  0  0  0  0  0  0  0  0  0
   10.0027  -15.7826   26.2709 C   0  0  2  0  0  0  0  0  0  0  0  0
    9.3754  -15.6771   24.9661 N   0  0  0  0  0  0  0  0  0  0  0  0
    9.6680  -17.0779   26.8694 C   0  0  0  0  0  0  0  0  0  0  0  0
   10.5065  -17.7813   27.4947 O   0  0  0  0  0  0  0  0  0  0  0  0
    8.3737  -17.6277   26.7828 O   0  0  0  0  0  0  0  0  0  0  0  0
  2  1  1  6
  3  4  1  0
  3  2  1  0
  5  6  1  0
  5  4  1  0
  7  6  1  0
  8  2  1  0
  8  9  2  0
 10  8  1  0
 11 10  1  0
 11 12  1  1
 13 12  1  0
 14 11  1  0
 15 14  2  0
 17 16  1  6
 17 18  1  0
 20 19  1  1
 19 17  1  0
 20 21  1  0
 21 14  1  0
 22 20  1  0
 23 22  2  0
 24 22  1  0
M  END
$$$$
