KCL.pdb
     RDKit          3D

 24 23  0  0  1  0  0  0  0  0999 V2000
    8.8005  -16.5731   18.4279 N   0  0  0  0  0  0  0  0  0  0  0  0
    9.5543  -16.7913   19.6738 C   0  0  1  0  0  0  0  0  0  0  0  0
   10.6073  -15.7571   19.7272 C   0  0  0  0  0  0  0  0  0  0  0  0
   11.8528  -15.9515   18.9839 C   0  0  0  0  0  0  0  0  0  0  0  0
   12.9597  -14.9951   19.0164 C   0  0  0  0  0  0  0  0  0  0  0  0
   14.1643  -15.2108   18.1822 C   0  0  0  0  0  0  0  0  0  0  0  0
   14.9811  -13.9807   18.2970 N   0  0  0  0  0  0  0  0  0  0  0  0
    8.5169  -16.5251   20.7719 C   0  0  0  0  0  0  0  0  0  0  0  0
    7.5700  -15.7430   20.6195 O   0  0  0  0  0  0  0  0  0  0  0  0
    8.6562  -17.2047   22.0035 N   0  0  0  0  0  0  0  0  0  0  0  0
    7.6995  -17.0404   23.1175 C   0  0  1  0  0  0  0  0  0  0  0  0
    7.3758  -18.4806   23.5195 C   0  0  0  0  0  0  0  0  0  0  0  0
    6.3854  -18.5464   25.0190 S   0  0  0  0  0  0  0  0  0  0  0  0
    8.3008  -16.2578   24.1958 C   0  0  0  0  0  0  0  0  0  0  0  0
    9.5292  -16.3719   24.4245 O   0  0  0  0  0  0  0  0  0  0  0  0
    7.9316  -12.1443   24.8018 C   0  0  0  0  0  0  0  0  0  0  0  0
    7.5504  -12.3010   26.2504 C   0  0  1  0  0  0  0  0  0  0  0  0
    6.3330  -11.4164   26.5546 C   0  0  0  0  0  0  0  0  0  0  0  0
    7.2522  -13.6883   26.6773 C   0  0  0  0  0  0  0  0  0  0  0  0
    8.1362  -14.7630   26.1511 C   0  0  2  0  0  0  0  0  0  0  0  0
    7.5375  -15.3800   24.9814 N   0  0  0  0  0  0  0  0  0  0  0  0
    8.5285  -15.8047   27.1046 C   0  0  0  0  0  0  0  0  0  0  0  0
    7.9085  -16.8959   27.2213 O   0  0  0  0  0  0  0  0  0  0  0  0
    9.6353  -15.6520   27.9629 O   0  0  0  0  0  0  0  0  0  0  0  0
  2  1  1  6
  3  4  1  0
  3  2  1  0
  5  6  1  0
  5  4  1  0
  7  6  1  0
  8  2  1  0
  8  9  2  0
 10  8  1  0
 11 10  1  0
 11 12  1  1
 13 12  1  0
 14 11  1  0
 15 14  2  0
 17 16  1  6
 17 18  1  0
 20 19  1  1
 19 17  1  0
 20 21  1  0
 21 14  1  0
 22 20  1  0
 23 22  2  0
 24 22  1  0
M  END
$$$$
