VDS.pdb
     RDKit          3D

 22 21  0  0  1  0  0  0  0  0999 V2000
   26.8879  -22.2147  -15.5225 C   0  0  0  0  0  0  0  0  0  0  0  0
   27.4891  -20.8676  -15.7118 C   0  0  2  0  0  0  0  0  0  0  0  0
   27.8646  -20.2835  -14.3708 C   0  0  0  0  0  0  0  0  0  0  0  0
   26.7181  -19.9099  -16.5631 C   0  0  2  0  0  0  0  0  0  0  0  0
   27.6406  -18.7775  -16.7999 N   0  0  0  0  0  0  0  0  0  0  0  0
   25.5063  -19.3453  -15.9482 C   0  0  0  0  0  0  0  0  0  0  0  0
   25.6428  -18.3364  -15.1736 O   0  0  0  0  0  0  0  0  0  0  0  0
   24.1867  -19.7869  -16.1131 N   0  0  0  0  0  0  0  0  0  0  0  0
   23.0316  -19.2028  -15.3949 C   0  0  1  0  0  0  0  0  0  0  0  0
   22.0392  -18.9235  -16.5039 C   0  0  0  0  0  0  0  0  0  0  0  0
   20.7617  -18.3772  -16.1026 C   0  0  0  0  0  0  0  0  0  0  0  0
   20.5838  -17.8377  -14.9965 O   0  0  0  0  0  0  0  0  0  0  0  0
   22.5428  -20.1447  -14.3740 C   0  0  0  0  0  0  0  0  0  0  0  0
   22.4964  -21.3763  -14.5906 O   0  0  0  0  0  0  0  0  0  0  0  0
   19.6917  -18.4554  -16.9803 O   0  0  0  0  0  0  0  0  0  0  0  0
   21.0562  -20.8704   -9.7632 O   0  0  0  0  0  0  0  0  0  0  0  0
   21.5649  -20.0111  -10.7031 C   0  0  0  0  0  0  0  0  0  0  0  0
   21.6202  -20.6553  -12.0694 C   0  0  2  0  0  0  0  0  0  0  0  0
   22.0914  -19.7428  -13.0812 N   0  0  0  0  0  0  0  0  0  0  0  0
   20.2327  -21.0762  -12.4392 C   0  0  0  0  0  0  0  0  0  0  0  0
   19.7039  -22.3053  -12.0613 O   0  0  0  0  0  0  0  0  0  0  0  0
   19.4794  -20.3295  -13.1133 O   0  0  0  0  0  0  0  0  0  0  0  0
  2  3  1  1
  2  4  1  0
  2  1  1  0
  4  6  1  0
  4  5  1  1
  6  8  1  0
  6  7  2  0
  8  9  1  0
  9 13  1  0
  9 10  1  6
 11 15  1  0
 11 10  1  0
 12 11  2  0
 13 14  2  0
 17 16  1  0
 18 17  1  1
 19 18  1  0
 19 13  1  0
 20 21  1  0
 20 18  1  0
 22 20  2  0
M  END
$$$$
