VDS.pdb
     RDKit          3D

 22 21  0  0  1  0  0  0  0  0999 V2000
   17.6470  -13.6799  -17.1328 C   0  0  0  0  0  0  0  0  0  0  0  0
   18.0471  -12.2621  -17.3373 C   0  0  2  0  0  0  0  0  0  0  0  0
   18.7275  -12.1122  -18.6772 C   0  0  0  0  0  0  0  0  0  0  0  0
   18.8150  -11.6218  -16.2252 C   0  0  2  0  0  0  0  0  0  0  0  0
   17.7897  -11.0008  -15.3578 N   0  0  0  0  0  0  0  0  0  0  0  0
   19.7368  -10.5467  -16.6251 C   0  0  0  0  0  0  0  0  0  0  0  0
   20.9011  -10.8795  -17.0375 O   0  0  0  0  0  0  0  0  0  0  0  0
   19.4886   -9.1677  -16.6115 N   0  0  0  0  0  0  0  0  0  0  0  0
   20.4861   -8.1518  -17.0168 C   0  0  1  0  0  0  0  0  0  0  0  0
   20.0809   -7.8152  -18.4364 C   0  0  0  0  0  0  0  0  0  0  0  0
   20.9150   -6.8630  -19.1357 C   0  0  0  0  0  0  0  0  0  0  0  0
   20.4825   -6.1430  -20.0525 O   0  0  0  0  0  0  0  0  0  0  0  0
   20.4448   -7.0064  -16.0922 C   0  0  0  0  0  0  0  0  0  0  0  0
   19.5042   -6.8559  -15.2808 O   0  0  0  0  0  0  0  0  0  0  0  0
   22.2480   -6.7446  -18.7743 O   0  0  0  0  0  0  0  0  0  0  0  0
   22.0783   -4.7277  -12.6784 O   0  0  0  0  0  0  0  0  0  0  0  0
   21.8031   -5.6642  -13.6416 C   0  0  0  0  0  0  0  0  0  0  0  0
   21.5660   -5.0197  -14.9882 C   0  0  2  0  0  0  0  0  0  0  0  0
   21.4501   -5.9947  -16.0438 N   0  0  0  0  0  0  0  0  0  0  0  0
   22.7406   -4.1454  -15.2961 C   0  0  0  0  0  0  0  0  0  0  0  0
   23.6353   -4.4366  -16.3197 O   0  0  0  0  0  0  0  0  0  0  0  0
   22.9706   -3.1008  -14.6361 O   0  0  0  0  0  0  0  0  0  0  0  0
  2  3  1  6
  2  4  1  0
  2  1  1  0
  4  6  1  0
  4  5  1  1
  6  8  1  0
  6  7  2  0
  8  9  1  0
  9 13  1  0
  9 10  1  6
 11 15  1  0
 11 10  1  0
 12 11  2  0
 13 14  2  0
 17 16  1  0
 18 17  1  1
 19 18  1  0
 19 13  1  0
 20 21  1  0
 20 18  1  0
 22 20  2  0
M  END
$$$$
