VDS.pdb
     RDKit          3D

 22 21  0  0  1  0  0  0  0  0999 V2000
   16.6947  -11.6284  -17.5470 C   0  0  0  0  0  0  0  0  0  0  0  0
   18.0317  -11.9095  -18.1348 C   0  0  2  0  0  0  0  0  0  0  0  0
   18.2093  -13.3991  -18.3092 C   0  0  0  0  0  0  0  0  0  0  0  0
   19.2015  -11.2634  -17.4635 C   0  0  2  0  0  0  0  0  0  0  0  0
   19.4591  -12.0881  -16.2623 N   0  0  0  0  0  0  0  0  0  0  0  0
   18.9838   -9.8868  -16.9915 C   0  0  0  0  0  0  0  0  0  0  0  0
   18.8220   -8.9715  -17.8705 O   0  0  0  0  0  0  0  0  0  0  0  0
   18.9280   -9.4442  -15.6631 N   0  0  0  0  0  0  0  0  0  0  0  0
   18.8565   -8.0168  -15.2776 C   0  0  1  0  0  0  0  0  0  0  0  0
   17.7127   -7.9826  -14.2859 C   0  0  0  0  0  0  0  0  0  0  0  0
   16.3778   -7.9864  -14.8420 C   0  0  0  0  0  0  0  0  0  0  0  0
   15.5351   -8.8528  -14.5502 O   0  0  0  0  0  0  0  0  0  0  0  0
   20.1477   -7.5786  -14.7215 C   0  0  0  0  0  0  0  0  0  0  0  0
   20.8439   -8.3377  -14.0108 O   0  0  0  0  0  0  0  0  0  0  0  0
   16.0190   -6.9887  -15.7350 O   0  0  0  0  0  0  0  0  0  0  0  0
   24.1446   -5.1340  -15.3623 O   0  0  0  0  0  0  0  0  0  0  0  0
   22.9068   -5.5811  -15.7476 C   0  0  0  0  0  0  0  0  0  0  0  0
   22.0360   -5.8967  -14.5531 C   0  0  2  0  0  0  0  0  0  0  0  0
   20.7018   -6.2819  -14.9405 N   0  0  0  0  0  0  0  0  0  0  0  0
   21.9335   -4.6609  -13.7157 C   0  0  0  0  0  0  0  0  0  0  0  0
   22.6584   -4.4978  -12.5406 O   0  0  0  0  0  0  0  0  0  0  0  0
   21.1806   -3.7090  -14.0421 O   0  0  0  0  0  0  0  0  0  0  0  0
  2  3  1  1
  2  4  1  0
  2  1  1  0
  4  6  1  0
  4  5  1  1
  6  8  1  0
  6  7  2  0
  8  9  1  0
  9 13  1  0
  9 10  1  1
 11 15  1  0
 11 10  1  0
 12 11  2  0
 13 14  2  0
 17 16  1  0
 18 17  1  6
 19 18  1  0
 19 13  1  0
 20 21  1  0
 20 18  1  0
 22 20  2  0
M  END
$$$$
