VDS.pdb
     RDKit          3D

 22 21  0  0  1  0  0  0  0  0999 V2000
   23.5800  -10.6457  -14.8956 C   0  0  0  0  0  0  0  0  0  0  0  0
   22.5203   -9.6223  -14.6915 C   0  0  2  0  0  0  0  0  0  0  0  0
   22.3278   -9.3750  -13.2142 C   0  0  0  0  0  0  0  0  0  0  0  0
   21.2296   -9.8501  -15.4116 C   0  0  2  0  0  0  0  0  0  0  0  0
   21.5491   -9.6580  -16.8435 N   0  0  0  0  0  0  0  0  0  0  0  0
   20.1468   -8.9066  -15.0906 C   0  0  0  0  0  0  0  0  0  0  0  0
   20.1802   -7.7498  -15.6357 O   0  0  0  0  0  0  0  0  0  0  0  0
   19.0541   -9.1263  -14.2414 N   0  0  0  0  0  0  0  0  0  0  0  0
   18.0008   -8.1184  -13.9843 C   0  0  1  0  0  0  0  0  0  0  0  0
   16.7186   -8.8944  -14.2002 C   0  0  0  0  0  0  0  0  0  0  0  0
   16.4013   -9.2466  -15.5665 C   0  0  0  0  0  0  0  0  0  0  0  0
   16.5712   -8.4614  -16.5154 O   0  0  0  0  0  0  0  0  0  0  0  0
   18.1490   -7.5681  -12.6265 C   0  0  0  0  0  0  0  0  0  0  0  0
   18.5863   -8.2650  -11.6836 O   0  0  0  0  0  0  0  0  0  0  0  0
   15.8879  -10.5062  -15.8338 O   0  0  0  0  0  0  0  0  0  0  0  0
   17.7655   -3.6852   -9.6523 O   0  0  0  0  0  0  0  0  0  0  0  0
   17.5500   -4.2187  -10.8971 C   0  0  0  0  0  0  0  0  0  0  0  0
   17.9678   -5.6701  -10.9569 C   0  0  2  0  0  0  0  0  0  0  0  0
   17.8148   -6.2250  -12.2786 N   0  0  0  0  0  0  0  0  0  0  0  0
   17.0864   -6.4440  -10.0278 C   0  0  0  0  0  0  0  0  0  0  0  0
   17.2571   -6.4182   -8.6482 O   0  0  0  0  0  0  0  0  0  0  0  0
   16.1456   -7.1570  -10.4591 O   0  0  0  0  0  0  0  0  0  0  0  0
  2  3  1  1
  2  4  1  0
  2  1  1  0
  4  6  1  0
  4  5  1  6
  6  8  1  0
  6  7  2  0
  8  9  1  0
  9 13  1  0
  9 10  1  1
 11 15  1  0
 11 10  1  0
 12 11  2  0
 13 14  2  0
 17 16  1  0
 18 17  1  6
 19 18  1  0
 19 13  1  0
 20 21  1  0
 20 18  1  0
 22 20  2  0
M  END
$$$$
