VDS.pdb
     RDKit          3D

 22 21  0  0  1  0  0  0  0  0999 V2000
   15.6731  -13.5292  -15.7983 C   0  0  0  0  0  0  0  0  0  0  0  0
   16.0987  -12.1689  -16.2231 C   0  0  2  0  0  0  0  0  0  0  0  0
   15.6469  -11.9126  -17.6412 C   0  0  0  0  0  0  0  0  0  0  0  0
   17.5375  -11.8248  -16.0047 C   0  0  2  0  0  0  0  0  0  0  0  0
   17.7216  -11.8557  -14.5368 N   0  0  0  0  0  0  0  0  0  0  0  0
   17.9463  -10.4842  -16.4531 C   0  0  0  0  0  0  0  0  0  0  0  0
   17.9385  -10.2454  -17.7098 O   0  0  0  0  0  0  0  0  0  0  0  0
   18.3512   -9.4084  -15.6517 N   0  0  0  0  0  0  0  0  0  0  0  0
   18.5516   -8.0344  -16.1650 C   0  0  1  0  0  0  0  0  0  0  0  0
   17.1890   -7.6673  -16.7138 C   0  0  0  0  0  0  0  0  0  0  0  0
   17.0616   -6.3478  -17.2919 C   0  0  0  0  0  0  0  0  0  0  0  0
   15.9583   -5.8300  -17.5379 O   0  0  0  0  0  0  0  0  0  0  0  0
   19.0206   -7.1540  -15.0819 C   0  0  0  0  0  0  0  0  0  0  0  0
   18.3106   -6.9176  -14.0789 O   0  0  0  0  0  0  0  0  0  0  0  0
   18.2100   -5.6288  -17.5848 O   0  0  0  0  0  0  0  0  0  0  0  0
   22.5803   -6.7595  -12.2460 O   0  0  0  0  0  0  0  0  0  0  0  0
   21.8233   -7.2055  -13.2990 C   0  0  0  0  0  0  0  0  0  0  0  0
   20.9906   -6.0923  -13.8924 C   0  0  2  0  0  0  0  0  0  0  0  0
   20.2945   -6.5108  -15.0835 N   0  0  0  0  0  0  0  0  0  0  0  0
   21.9119   -4.9741  -14.2665 C   0  0  0  0  0  0  0  0  0  0  0  0
   22.3162   -4.0075  -13.3525 O   0  0  0  0  0  0  0  0  0  0  0  0
   22.3636   -4.8602  -15.4337 O   0  0  0  0  0  0  0  0  0  0  0  0
  2  3  1  6
  2  4  1  0
  2  1  1  0
  4  6  1  0
  4  5  1  1
  6  8  1  0
  6  7  2  0
  8  9  1  0
  9 13  1  0
  9 10  1  1
 11 15  1  0
 11 10  1  0
 12 11  2  0
 13 14  2  0
 17 16  1  0
 18 17  1  6
 19 18  1  0
 19 13  1  0
 20 21  1  0
 20 18  1  0
 22 20  2  0
M  END
$$$$
