VDS.pdb
     RDKit          3D

 22 21  0  0  1  0  0  0  0  0999 V2000
   13.8545   -7.9278   -8.2578 C   0  0  0  0  0  0  0  0  0  0  0  0
   15.0693   -7.3684   -8.9084 C   0  0  2  0  0  0  0  0  0  0  0  0
   16.0198   -6.8509   -7.8551 C   0  0  0  0  0  0  0  0  0  0  0  0
   14.8390   -6.3849  -10.0112 C   0  0  2  0  0  0  0  0  0  0  0  0
   13.7132   -6.9415  -10.7937 N   0  0  0  0  0  0  0  0  0  0  0  0
   15.9583   -6.2076  -10.9498 C   0  0  0  0  0  0  0  0  0  0  0  0
   17.0158   -5.6318  -10.5179 O   0  0  0  0  0  0  0  0  0  0  0  0
   16.0104   -6.6046  -12.2927 N   0  0  0  0  0  0  0  0  0  0  0  0
   17.1658   -6.3422  -13.1802 C   0  0  1  0  0  0  0  0  0  0  0  0
   17.2635   -7.6081  -14.0052 C   0  0  0  0  0  0  0  0  0  0  0  0
   17.7554   -8.7848  -13.3235 C   0  0  0  0  0  0  0  0  0  0  0  0
   17.0344   -9.7696  -13.0860 O   0  0  0  0  0  0  0  0  0  0  0  0
   16.9272   -5.1247  -13.9733 C   0  0  0  0  0  0  0  0  0  0  0  0
   15.8371   -4.9276  -14.5552 O   0  0  0  0  0  0  0  0  0  0  0  0
   19.0802   -8.8214  -12.9171 O   0  0  0  0  0  0  0  0  0  0  0  0
   16.3793   -0.8334  -14.7990 O   0  0  0  0  0  0  0  0  0  0  0  0
   16.5229   -2.0616  -14.2062 C   0  0  0  0  0  0  0  0  0  0  0  0
   17.6450   -2.8531  -14.8381 C   0  0  2  0  0  0  0  0  0  0  0  0
   17.8958   -4.0902  -14.1416 N   0  0  0  0  0  0  0  0  0  0  0  0
   18.8901   -2.0260  -14.7703 C   0  0  0  0  0  0  0  0  0  0  0  0
   19.0279   -0.8326  -15.4703 O   0  0  0  0  0  0  0  0  0  0  0  0
   19.8733   -2.3783  -14.0713 O   0  0  0  0  0  0  0  0  0  0  0  0
  2  3  1  1
  2  4  1  0
  2  1  1  0
  4  6  1  0
  4  5  1  6
  6  8  1  0
  6  7  2  0
  8  9  1  0
  9 13  1  0
  9 10  1  6
 11 15  1  0
 11 10  1  0
 12 11  2  0
 13 14  2  0
 17 16  1  0
 18 17  1  1
 19 18  1  0
 19 13  1  0
 20 21  1  0
 20 18  1  0
 22 20  2  0
M  END
$$$$
