KYQ.pdb
     RDKit          3D

 31 31  0  0  1  0  0  0  0  0999 V2000
    8.0252  -12.8713   18.1733 N   0  0  0  0  0  0  0  0  0  0  0  0
    7.7895  -14.1908   18.7221 C   0  0  1  0  0  0  0  0  0  0  0  0
    8.5983  -15.1605   17.8693 C   0  0  0  0  0  0  0  0  0  0  0  0
    7.6655  -15.6517   16.7973 C   0  0  0  0  0  0  0  0  0  0  0  0
    7.6289  -14.8536   15.5457 C   0  0  0  0  0  0  0  0  0  0  0  0
    6.8126  -15.4505   14.4396 C   0  0  0  0  0  0  0  0  0  0  0  0
    6.8990  -14.7016   13.2329 N   0  0  0  0  0  0  0  0  0  0  0  0
    8.2417  -14.1970   20.1290 C   0  0  0  0  0  0  0  0  0  0  0  0
    9.4619  -14.3362   20.3760 O   0  0  0  0  0  0  0  0  0  0  0  0
    8.1190  -13.0272   28.9221 O   0  0  0  0  0  0  0  0  0  0  0  0
    7.7795  -13.1357   27.5972 C   0  0  0  0  0  0  0  0  0  0  0  0
    6.9483  -14.1723   27.1763 C   0  0  0  0  0  0  0  0  0  0  0  0
    6.6069  -14.2822   25.8466 C   0  0  0  0  0  0  0  0  0  0  0  0
    7.0564  -13.3989   24.8918 C   0  0  0  0  0  0  0  0  0  0  0  0
    6.7458  -13.4373   23.4643 C   0  0  0  0  0  0  0  0  0  0  0  0
    7.7732  -14.1083   22.6124 C   0  0  2  0  0  0  0  0  0  0  0  0
    7.3656  -14.0530   21.2257 N   0  0  0  0  0  0  0  0  0  0  0  0
    8.1861  -15.4303   23.0770 C   0  0  0  0  0  0  0  0  0  0  0  0
    7.5327  -16.4922   22.9023 O   0  0  0  0  0  0  0  0  0  0  0  0
    7.8953  -12.3521   25.3140 C   0  0  0  0  0  0  0  0  0  0  0  0
    8.2410  -12.2362   26.6436 C   0  0  0  0  0  0  0  0  0  0  0  0
   12.8036  -18.5398   20.5720 N   0  0  0  0  0  0  0  0  0  0  0  0
   12.6468  -17.8970   21.8105 C   0  0  0  0  0  0  0  0  0  0  0  0
   13.6308  -17.3554   22.3803 O   0  0  0  0  0  0  0  0  0  0  0  0
   11.2710  -17.8789   22.4278 C   0  0  0  0  0  0  0  0  0  0  0  0
   11.2552  -17.0826   23.6863 C   0  0  0  0  0  0  0  0  0  0  0  0
    9.8607  -16.8549   24.2603 C   0  0  2  0  0  0  0  0  0  0  0  0
    9.4187  -15.5460   23.7804 N   0  0  0  0  0  0  0  0  0  0  0  0
    9.9774  -16.7675   25.7303 C   0  0  0  0  0  0  0  0  0  0  0  0
   10.1550  -17.7877   26.4446 O   0  0  0  0  0  0  0  0  0  0  0  0
    9.8948  -15.5431   26.3809 O   0  0  0  0  0  0  0  0  0  0  0  0
  2  1  1  6
  2  3  1  0
  3  4  1  0
  5  4  1  0
  5  6  1  0
  7  6  1  0
  8  2  1  0
  8  9  2  0
 10 11  1  0
 11 12  2  0
 12 13  1  0
 14 15  1  0
 14 13  2  0
 16 17  1  0
 16 15  1  1
 17  8  1  0
 18 16  1  0
 19 18  2  0
 20 14  1  0
 21 20  2  0
 21 11  1  0
 22 23  1  0
 23 25  1  0
 23 24  2  0
 25 26  1  0
 27 26  1  6
 27 28  1  0
 28 18  1  0
 29 27  1  0
 29 31  1  0
 30 29  2  0
M  END
$$$$
