KYQ.pdb
     RDKit          3D

 31 31  0  0  1  0  0  0  0  0999 V2000
    8.0551  -13.2360   17.9094 N   0  0  0  0  0  0  0  0  0  0  0  0
    7.9167  -14.4050   18.7532 C   0  0  1  0  0  0  0  0  0  0  0  0
    8.8067  -15.4813   18.1436 C   0  0  0  0  0  0  0  0  0  0  0  0
    8.2504  -15.7565   16.7741 C   0  0  0  0  0  0  0  0  0  0  0  0
    8.9073  -16.8455   16.0077 C   0  0  0  0  0  0  0  0  0  0  0  0
    8.3537  -17.0739   14.6339 C   0  0  0  0  0  0  0  0  0  0  0  0
    9.1222  -18.0080   13.8847 N   0  0  0  0  0  0  0  0  0  0  0  0
    8.3541  -14.0474   20.1187 C   0  0  0  0  0  0  0  0  0  0  0  0
    9.4709  -13.5025   20.2776 O   0  0  0  0  0  0  0  0  0  0  0  0
    7.6610  -12.4819   28.8639 O   0  0  0  0  0  0  0  0  0  0  0  0
    7.4339  -12.7491   27.5376 C   0  0  0  0  0  0  0  0  0  0  0  0
    7.3931  -11.7042   26.6160 C   0  0  0  0  0  0  0  0  0  0  0  0
    7.1651  -11.9712   25.2844 C   0  0  0  0  0  0  0  0  0  0  0  0
    6.9711  -13.2479   24.8083 C   0  0  0  0  0  0  0  0  0  0  0  0
    6.7250  -13.6237   23.4177 C   0  0  0  0  0  0  0  0  0  0  0  0
    7.9523  -13.8967   22.6108 C   0  0  2  0  0  0  0  0  0  0  0  0
    7.5750  -14.2879   21.2703 N   0  0  0  0  0  0  0  0  0  0  0  0
    8.9257  -14.7756   23.2540 C   0  0  0  0  0  0  0  0  0  0  0  0
    9.7386  -14.4195   24.1472 O   0  0  0  0  0  0  0  0  0  0  0  0
    7.0118  -14.3039   25.7361 C   0  0  0  0  0  0  0  0  0  0  0  0
    7.2396  -14.0436   27.0707 C   0  0  0  0  0  0  0  0  0  0  0  0
    6.9156  -19.9437   22.6521 N   0  0  0  0  0  0  0  0  0  0  0  0
    6.6364  -19.2907   23.8635 C   0  0  0  0  0  0  0  0  0  0  0  0
    5.5181  -19.4334   24.4253 O   0  0  0  0  0  0  0  0  0  0  0  0
    7.7133  -18.4207   24.4616 C   0  0  0  0  0  0  0  0  0  0  0  0
    8.9360  -18.4153   23.6112 C   0  0  0  0  0  0  0  0  0  0  0  0
    9.7200  -17.1079   23.6583 C   0  0  2  0  0  0  0  0  0  0  0  0
    8.9718  -16.1416   22.8550 N   0  0  0  0  0  0  0  0  0  0  0  0
   11.0178  -17.3258   22.9873 C   0  0  0  0  0  0  0  0  0  0  0  0
   12.1032  -17.3240   23.6233 O   0  0  0  0  0  0  0  0  0  0  0  0
   11.0848  -17.5432   21.6171 O   0  0  0  0  0  0  0  0  0  0  0  0
  2  1  1  6
  2  3  1  0
  3  4  1  0
  5  4  1  0
  5  6  1  0
  7  6  1  0
  8  2  1  0
  8  9  2  0
 10 11  1  0
 11 12  2  0
 12 13  1  0
 14 15  1  0
 14 13  2  0
 16 17  1  0
 16 15  1  1
 17  8  1  0
 18 16  1  0
 19 18  2  0
 20 14  1  0
 21 20  2  0
 21 11  1  0
 22 23  1  0
 23 25  1  0
 23 24  2  0
 25 26  1  0
 27 26  1  6
 27 28  1  0
 28 18  1  0
 29 27  1  0
 29 31  1  0
 30 29  2  0
M  END
$$$$
