KYQ.pdb
     RDKit          3D

 31 31  0  0  1  0  0  0  0  0999 V2000
    9.6379  -16.4095   18.5527 N   0  0  0  0  0  0  0  0  0  0  0  0
    8.6331  -16.8264   19.5089 C   0  0  1  0  0  0  0  0  0  0  0  0
    8.7942  -18.3330   19.6705 C   0  0  0  0  0  0  0  0  0  0  0  0
    8.2206  -18.9500   18.4251 C   0  0  0  0  0  0  0  0  0  0  0  0
    8.9921  -20.0739   17.8366 C   0  0  0  0  0  0  0  0  0  0  0  0
    9.4905  -21.0840   18.8252 C   0  0  0  0  0  0  0  0  0  0  0  0
   10.1166  -22.1974   18.1985 N   0  0  0  0  0  0  0  0  0  0  0  0
    8.8773  -16.1142   20.7805 C   0  0  0  0  0  0  0  0  0  0  0  0
   10.0569  -15.9438   21.1665 O   0  0  0  0  0  0  0  0  0  0  0  0
    7.1634  -11.6881   28.3160 O   0  0  0  0  0  0  0  0  0  0  0  0
    7.0875  -12.2985   27.0896 C   0  0  0  0  0  0  0  0  0  0  0  0
    6.4556  -13.5349   26.9676 C   0  0  0  0  0  0  0  0  0  0  0  0
    6.3789  -14.1485   25.7371 C   0  0  0  0  0  0  0  0  0  0  0  0
    6.9074  -13.5883   24.5965 C   0  0  0  0  0  0  0  0  0  0  0  0
    6.8718  -14.1646   23.2540 C   0  0  0  0  0  0  0  0  0  0  0  0
    8.0446  -15.0209   22.9032 C   0  0  2  0  0  0  0  0  0  0  0  0
    7.8436  -15.6079   21.5966 N   0  0  0  0  0  0  0  0  0  0  0  0
    8.4475  -15.9644   23.9430 C   0  0  0  0  0  0  0  0  0  0  0  0
    7.7840  -16.9744   24.2962 O   0  0  0  0  0  0  0  0  0  0  0  0
    7.5455  -12.3409   24.7171 C   0  0  0  0  0  0  0  0  0  0  0  0
    7.6258  -11.7210   25.9459 C   0  0  0  0  0  0  0  0  0  0  0  0
   14.3107  -17.1451   24.6633 N   0  0  0  0  0  0  0  0  0  0  0  0
   13.4436  -17.4742   23.6090 C   0  0  0  0  0  0  0  0  0  0  0  0
   13.9009  -17.8241   22.4888 O   0  0  0  0  0  0  0  0  0  0  0  0
   11.9594  -17.3942   23.8640 C   0  0  0  0  0  0  0  0  0  0  0  0
   11.6748  -16.9151   25.2453 C   0  0  0  0  0  0  0  0  0  0  0  0
   10.1902  -16.7463   25.5510 C   0  0  2  0  0  0  0  0  0  0  0  0
    9.6817  -15.7421   24.6173 N   0  0  0  0  0  0  0  0  0  0  0  0
   10.0620  -16.1860   26.9118 C   0  0  0  0  0  0  0  0  0  0  0  0
    9.8476  -14.9622   27.1090 O   0  0  0  0  0  0  0  0  0  0  0  0
   10.1742  -16.9999   28.0317 O   0  0  0  0  0  0  0  0  0  0  0  0
  2  1  1  6
  2  3  1  0
  3  4  1  0
  5  4  1  0
  5  6  1  0
  7  6  1  0
  8  2  1  0
  8  9  2  0
 10 11  1  0
 11 12  2  0
 12 13  1  0
 14 15  1  0
 14 13  2  0
 16 17  1  0
 16 15  1  1
 17  8  1  0
 18 16  1  0
 19 18  2  0
 20 14  1  0
 21 20  2  0
 21 11  1  0
 22 23  1  0
 23 25  1  0
 23 24  2  0
 25 26  1  0
 27 26  1  6
 27 28  1  0
 28 18  1  0
 29 27  1  0
 29 31  1  0
 30 29  2  0
M  END
$$$$
