KYQ.pdb
     RDKit          3D

 31 31  0  0  1  0  0  0  0  0999 V2000
    7.1711  -15.7280   20.3602 N   0  0  0  0  0  0  0  0  0  0  0  0
    8.3870  -14.9899   20.0876 C   0  0  1  0  0  0  0  0  0  0  0  0
    7.9658  -13.7323   19.3373 C   0  0  0  0  0  0  0  0  0  0  0  0
    7.6059  -14.1768   17.9467 C   0  0  0  0  0  0  0  0  0  0  0  0
    7.2655  -13.0997   16.9830 C   0  0  0  0  0  0  0  0  0  0  0  0
    6.8595  -13.5756   15.6211 C   0  0  0  0  0  0  0  0  0  0  0  0
    7.9602  -14.0652   14.8641 N   0  0  0  0  0  0  0  0  0  0  0  0
    9.0318  -14.6633   21.3766 C   0  0  0  0  0  0  0  0  0  0  0  0
   10.1448  -14.0883   21.3725 O   0  0  0  0  0  0  0  0  0  0  0  0
   10.5383  -14.5660   30.1475 O   0  0  0  0  0  0  0  0  0  0  0  0
    9.9714  -14.6428   28.9005 C   0  0  0  0  0  0  0  0  0  0  0  0
    9.6530  -15.8867   28.3581 C   0  0  0  0  0  0  0  0  0  0  0  0
    9.0841  -15.9650   27.1064 C   0  0  0  0  0  0  0  0  0  0  0  0
    8.8083  -14.8503   26.3479 C   0  0  0  0  0  0  0  0  0  0  0  0
    8.2071  -14.8383   25.0159 C   0  0  0  0  0  0  0  0  0  0  0  0
    9.1762  -14.9513   23.8847 C   0  0  2  0  0  0  0  0  0  0  0  0
    8.4577  -14.9662   22.6294 N   0  0  0  0  0  0  0  0  0  0  0  0
   10.1710  -16.0106   24.0335 C   0  0  0  0  0  0  0  0  0  0  0  0
    9.9175  -17.2438   24.0254 O   0  0  0  0  0  0  0  0  0  0  0  0
    9.1286  -13.5941   26.8929 C   0  0  0  0  0  0  0  0  0  0  0  0
    9.6983  -13.5085   28.1454 C   0  0  0  0  0  0  0  0  0  0  0  0
   15.6494  -14.7958   21.8148 N   0  0  0  0  0  0  0  0  0  0  0  0
   14.4796  -15.0874   21.0949 C   0  0  0  0  0  0  0  0  0  0  0  0
   14.3920  -14.8008   19.8715 O   0  0  0  0  0  0  0  0  0  0  0  0
   13.3430  -15.7497   21.8323 C   0  0  0  0  0  0  0  0  0  0  0  0
   13.7045  -16.0166   23.2523 C   0  0  0  0  0  0  0  0  0  0  0  0
   12.5842  -16.6505   24.0703 C   0  0  2  0  0  0  0  0  0  0  0  0
   11.5356  -15.6392   24.1990 N   0  0  0  0  0  0  0  0  0  0  0  0
   13.1023  -16.9215   25.4268 C   0  0  0  0  0  0  0  0  0  0  0  0
   13.9860  -17.7912   25.6391 O   0  0  0  0  0  0  0  0  0  0  0  0
   12.6270  -16.2174   26.5257 O   0  0  0  0  0  0  0  0  0  0  0  0
  2  1  1  1
  2  3  1  0
  3  4  1  0
  5  4  1  0
  5  6  1  0
  7  6  1  0
  8  2  1  0
  8  9  2  0
 10 11  1  0
 11 12  2  0
 12 13  1  0
 14 15  1  0
 14 13  2  0
 16 17  1  0
 16 15  1  1
 17  8  1  0
 18 16  1  0
 19 18  2  0
 20 14  1  0
 21 20  2  0
 21 11  1  0
 22 23  1  0
 23 25  1  0
 23 24  2  0
 25 26  1  0
 27 26  1  6
 27 28  1  0
 28 18  1  0
 29 27  1  0
 29 31  1  0
 30 29  2  0
M  END
$$$$
