KYQ.pdb
     RDKit          3D

 31 31  0  0  1  0  0  0  0  0999 V2000
    6.9560  -15.5650   20.4315 N   0  0  0  0  0  0  0  0  0  0  0  0
    8.2100  -14.8775   20.2020 C   0  0  1  0  0  0  0  0  0  0  0  0
    7.8514  -13.5116   19.6298 C   0  0  0  0  0  0  0  0  0  0  0  0
    7.2352  -13.7718   18.2832 C   0  0  0  0  0  0  0  0  0  0  0  0
    7.8236  -13.0294   17.1399 C   0  0  0  0  0  0  0  0  0  0  0  0
    7.0823  -13.1723   15.8452 C   0  0  0  0  0  0  0  0  0  0  0  0
    7.6643  -12.4072   14.7963 N   0  0  0  0  0  0  0  0  0  0  0  0
    8.9176  -14.7569   21.4937 C   0  0  0  0  0  0  0  0  0  0  0  0
   10.0744  -14.2763   21.5121 O   0  0  0  0  0  0  0  0  0  0  0  0
   10.5168  -14.5338   30.2101 O   0  0  0  0  0  0  0  0  0  0  0  0
    9.9394  -14.6386   28.9700 C   0  0  0  0  0  0  0  0  0  0  0  0
    9.6612  -15.8965   28.4380 C   0  0  0  0  0  0  0  0  0  0  0  0
    9.0817  -16.0030   27.1932 C   0  0  0  0  0  0  0  0  0  0  0  0
    8.7565  -14.9036   26.4318 C   0  0  0  0  0  0  0  0  0  0  0  0
    8.1406  -14.9215   25.1067 C   0  0  0  0  0  0  0  0  0  0  0  0
    9.0787  -15.2002   23.9781 C   0  0  2  0  0  0  0  0  0  0  0  0
    8.3572  -15.1576   22.7251 N   0  0  0  0  0  0  0  0  0  0  0  0
    9.9223  -16.3790   24.1592 C   0  0  0  0  0  0  0  0  0  0  0  0
    9.5231  -17.5703   24.0779 O   0  0  0  0  0  0  0  0  0  0  0  0
    9.0362  -13.6333   26.9665 C   0  0  0  0  0  0  0  0  0  0  0  0
    9.6162  -13.5195   28.2120 C   0  0  0  0  0  0  0  0  0  0  0  0
   15.9742  -15.9507   23.1009 N   0  0  0  0  0  0  0  0  0  0  0  0
   15.9285  -17.3111   23.4459 C   0  0  0  0  0  0  0  0  0  0  0  0
   16.9365  -18.0481   23.2809 O   0  0  0  0  0  0  0  0  0  0  0  0
   14.6413  -17.8526   24.0153 C   0  0  0  0  0  0  0  0  0  0  0  0
   13.5485  -16.8441   23.9313 C   0  0  0  0  0  0  0  0  0  0  0  0
   12.2083  -17.3338   24.4700 C   0  0  2  0  0  0  0  0  0  0  0  0
   11.3030  -16.1853   24.4479 N   0  0  0  0  0  0  0  0  0  0  0  0
   12.3944  -17.7194   25.8838 C   0  0  0  0  0  0  0  0  0  0  0  0
   12.1806  -16.9138   26.8260 O   0  0  0  0  0  0  0  0  0  0  0  0
   12.8156  -18.9983   26.2247 O   0  0  0  0  0  0  0  0  0  0  0  0
  2  1  1  1
  2  3  1  0
  3  4  1  0
  5  4  1  0
  5  6  1  0
  7  6  1  0
  8  2  1  0
  8  9  2  0
 10 11  1  0
 11 12  2  0
 12 13  1  0
 14 15  1  0
 14 13  2  0
 16 17  1  0
 16 15  1  1
 17  8  1  0
 18 16  1  0
 19 18  2  0
 20 14  1  0
 21 20  2  0
 21 11  1  0
 22 23  1  0
 23 25  1  0
 23 24  2  0
 25 26  1  0
 27 26  1  1
 27 28  1  0
 28 18  1  0
 29 27  1  0
 29 31  1  0
 30 29  2  0
M  END
$$$$
