KYQ.pdb
     RDKit          3D

 31 31  0  0  1  0  0  0  0  0999 V2000
   10.1020  -16.9751   19.3365 N   0  0  0  0  0  0  0  0  0  0  0  0
    8.7897  -16.6280   19.8417 C   0  0  1  0  0  0  0  0  0  0  0  0
    7.9729  -17.9143   19.8326 C   0  0  0  0  0  0  0  0  0  0  0  0
    8.9149  -19.0098   20.2488 C   0  0  0  0  0  0  0  0  0  0  0  0
    8.8686  -20.2547   19.4408 C   0  0  0  0  0  0  0  0  0  0  0  0
    8.6928  -21.5152   20.2321 C   0  0  0  0  0  0  0  0  0  0  0  0
    8.8110  -22.6840   19.4293 N   0  0  0  0  0  0  0  0  0  0  0  0
    8.9449  -16.0925   21.2103 C   0  0  0  0  0  0  0  0  0  0  0  0
    9.9289  -16.4522   21.8972 O   0  0  0  0  0  0  0  0  0  0  0  0
    7.2872  -11.2611   28.4990 O   0  0  0  0  0  0  0  0  0  0  0  0
    7.2311  -11.8544   27.2632 C   0  0  0  0  0  0  0  0  0  0  0  0
    6.3972  -12.9521   27.0575 C   0  0  0  0  0  0  0  0  0  0  0  0
    6.3401  -13.5485   25.8175 C   0  0  0  0  0  0  0  0  0  0  0  0
    7.0826  -13.1037   24.7475 C   0  0  0  0  0  0  0  0  0  0  0  0
    7.0846  -13.6716   23.4010 C   0  0  0  0  0  0  0  0  0  0  0  0
    8.0684  -14.7743   23.1823 C   0  0  2  0  0  0  0  0  0  0  0  0
    8.0356  -15.1865   21.7962 N   0  0  0  0  0  0  0  0  0  0  0  0
    7.9888  -15.8673   24.1482 C   0  0  0  0  0  0  0  0  0  0  0  0
    7.1729  -16.8243   24.0881 O   0  0  0  0  0  0  0  0  0  0  0  0
    7.9248  -11.9962   24.9525 C   0  0  0  0  0  0  0  0  0  0  0  0
    7.9868  -11.3944   26.1914 C   0  0  0  0  0  0  0  0  0  0  0  0
   12.9091  -18.4120   23.0218 N   0  0  0  0  0  0  0  0  0  0  0  0
   11.9385  -19.2698   23.5640 C   0  0  0  0  0  0  0  0  0  0  0  0
   11.7042  -20.3882   23.0342 O   0  0  0  0  0  0  0  0  0  0  0  0
   11.1940  -18.8080   24.7914 C   0  0  0  0  0  0  0  0  0  0  0  0
   10.4450  -17.5484   24.5255 C   0  0  0  0  0  0  0  0  0  0  0  0
    9.5272  -17.1186   25.6653 C   0  0  2  0  0  0  0  0  0  0  0  0
    8.8958  -15.8679   25.2458 N   0  0  0  0  0  0  0  0  0  0  0  0
   10.3671  -16.8139   26.8417 C   0  0  0  0  0  0  0  0  0  0  0  0
   10.1712  -17.3609   27.9574 O   0  0  0  0  0  0  0  0  0  0  0  0
   11.4130  -15.9042   26.7550 O   0  0  0  0  0  0  0  0  0  0  0  0
  2  1  1  1
  2  3  1  0
  3  4  1  0
  5  4  1  0
  5  6  1  0
  7  6  1  0
  8  2  1  0
  8  9  2  0
 10 11  1  0
 11 12  2  0
 12 13  1  0
 14 15  1  0
 14 13  2  0
 16 17  1  0
 16 15  1  1
 17  8  1  0
 18 16  1  0
 19 18  2  0
 20 14  1  0
 21 20  2  0
 21 11  1  0
 22 23  1  0
 23 25  1  0
 23 24  2  0
 25 26  1  0
 27 26  1  6
 27 28  1  0
 28 18  1  0
 29 27  1  0
 29 31  1  0
 30 29  2  0
M  END
$$$$
