KYQ.pdb
     RDKit          3D

 31 31  0  0  1  0  0  0  0  0999 V2000
    7.5183  -16.0139   18.8515 N   0  0  0  0  0  0  0  0  0  0  0  0
    8.8471  -15.4523   18.9800 C   0  0  1  0  0  0  0  0  0  0  0  0
    8.9085  -14.2722   18.0180 C   0  0  0  0  0  0  0  0  0  0  0  0
    8.3535  -14.7691   16.7120 C   0  0  0  0  0  0  0  0  0  0  0  0
    8.5738  -13.8946   15.5323 C   0  0  0  0  0  0  0  0  0  0  0  0
    7.9546  -14.3844   14.2584 C   0  0  0  0  0  0  0  0  0  0  0  0
    8.1377  -13.4760   13.1787 N   0  0  0  0  0  0  0  0  0  0  0  0
    9.0368  -15.0219   20.3809 C   0  0  0  0  0  0  0  0  0  0  0  0
   10.1707  -14.6405   20.7528 O   0  0  0  0  0  0  0  0  0  0  0  0
    7.2696  -12.6181   28.7418 O   0  0  0  0  0  0  0  0  0  0  0  0
    7.2157  -12.9392   27.4091 C   0  0  0  0  0  0  0  0  0  0  0  0
    7.9023  -12.1604   26.4791 C   0  0  0  0  0  0  0  0  0  0  0  0
    7.8487  -12.4818   25.1410 C   0  0  0  0  0  0  0  0  0  0  0  0
    7.1345  -13.5582   24.6665 C   0  0  0  0  0  0  0  0  0  0  0  0
    7.0227  -13.9733   23.2697 C   0  0  0  0  0  0  0  0  0  0  0  0
    8.1866  -14.7503   22.7469 C   0  0  2  0  0  0  0  0  0  0  0  0
    7.9994  -15.0156   21.3373 N   0  0  0  0  0  0  0  0  0  0  0  0
    8.5536  -15.9167   23.5461 C   0  0  0  0  0  0  0  0  0  0  0  0
    7.8961  -16.9891   23.6003 O   0  0  0  0  0  0  0  0  0  0  0  0
    6.4409  -14.3455   25.6028 C   0  0  0  0  0  0  0  0  0  0  0  0
    6.4902  -14.0295   26.9439 C   0  0  0  0  0  0  0  0  0  0  0  0
   12.8205  -20.5807   24.5096 N   0  0  0  0  0  0  0  0  0  0  0  0
   13.0223  -19.2006   24.3474 C   0  0  0  0  0  0  0  0  0  0  0  0
   13.6850  -18.7605   23.3709 O   0  0  0  0  0  0  0  0  0  0  0  0
   12.4228  -18.2735   25.3746 C   0  0  0  0  0  0  0  0  0  0  0  0
   11.7376  -17.1210   24.7260 C   0  0  0  0  0  0  0  0  0  0  0  0
   10.2373  -17.0596   24.9928 C   0  0  2  0  0  0  0  0  0  0  0  0
    9.7423  -15.8550   24.3274 N   0  0  0  0  0  0  0  0  0  0  0  0
   10.0358  -16.8741   26.4444 C   0  0  0  0  0  0  0  0  0  0  0  0
   10.0124  -15.7321   26.9713 O   0  0  0  0  0  0  0  0  0  0  0  0
    9.8627  -17.9656   27.2857 O   0  0  0  0  0  0  0  0  0  0  0  0
  2  1  1  1
  2  3  1  0
  3  4  1  0
  5  4  1  0
  5  6  1  0
  7  6  1  0
  8  2  1  0
  8  9  2  0
 10 11  1  0
 11 12  2  0
 12 13  1  0
 14 15  1  0
 14 13  2  0
 16 17  1  0
 16 15  1  1
 17  8  1  0
 18 16  1  0
 19 18  2  0
 20 14  1  0
 21 20  2  0
 21 11  1  0
 22 23  1  0
 23 25  1  0
 23 24  2  0
 25 26  1  0
 27 26  1  1
 27 28  1  0
 28 18  1  0
 29 27  1  0
 29 31  1  0
 30 29  2  0
M  END
$$$$
