KYQ.pdb
     RDKit          3D

 31 31  0  0  1  0  0  0  0  0999 V2000
    8.8646  -16.9432   18.2938 N   0  0  0  0  0  0  0  0  0  0  0  0
    8.8441  -17.7100   19.5224 C   0  0  1  0  0  0  0  0  0  0  0  0
    9.9608  -18.7399   19.4034 C   0  0  0  0  0  0  0  0  0  0  0  0
    9.5187  -19.7148   18.3475 C   0  0  0  0  0  0  0  0  0  0  0  0
    8.6776  -20.8465   18.8128 C   0  0  0  0  0  0  0  0  0  0  0  0
    8.3387  -21.8567   17.7589 C   0  0  0  0  0  0  0  0  0  0  0  0
    7.5076  -22.9011   18.2518 N   0  0  0  0  0  0  0  0  0  0  0  0
    9.0757  -16.7853   20.6516 C   0  0  0  0  0  0  0  0  0  0  0  0
   10.2327  -16.6720   21.1187 O   0  0  0  0  0  0  0  0  0  0  0  0
    6.9293  -11.7889   27.7030 O   0  0  0  0  0  0  0  0  0  0  0  0
    6.9136  -12.4900   26.5239 C   0  0  0  0  0  0  0  0  0  0  0  0
    6.2561  -13.7171   26.4547 C   0  0  0  0  0  0  0  0  0  0  0  0
    6.2398  -14.4218   25.2716 C   0  0  0  0  0  0  0  0  0  0  0  0
    6.8546  -13.9636   24.1287 C   0  0  0  0  0  0  0  0  0  0  0  0
    6.8874  -14.6407   22.8341 C   0  0  0  0  0  0  0  0  0  0  0  0
    8.1486  -15.3867   22.5434 C   0  0  2  0  0  0  0  0  0  0  0  0
    8.0542  -16.0117   21.2424 N   0  0  0  0  0  0  0  0  0  0  0  0
    8.5992  -16.2702   23.6160 C   0  0  0  0  0  0  0  0  0  0  0  0
    8.0113  -17.3234   23.9770 O   0  0  0  0  0  0  0  0  0  0  0  0
    7.5187  -12.7258   24.1960 C   0  0  0  0  0  0  0  0  0  0  0  0
    7.5390  -12.0151   25.3772 C   0  0  0  0  0  0  0  0  0  0  0  0
   14.2940  -15.8749   24.1793 N   0  0  0  0  0  0  0  0  0  0  0  0
   13.6701  -16.7672   23.2926 C   0  0  0  0  0  0  0  0  0  0  0  0
   14.2042  -17.0508   22.1877 O   0  0  0  0  0  0  0  0  0  0  0  0
   12.3503  -17.3678   23.7070 C   0  0  0  0  0  0  0  0  0  0  0  0
   11.9005  -16.8271   25.0198 C   0  0  0  0  0  0  0  0  0  0  0  0
   10.3924  -16.8960   25.2366 C   0  0  2  0  0  0  0  0  0  0  0  0
    9.7922  -15.9316   24.3155 N   0  0  0  0  0  0  0  0  0  0  0  0
   10.1036  -16.4317   26.6088 C   0  0  0  0  0  0  0  0  0  0  0  0
   10.4235  -17.1078   27.6202 O   0  0  0  0  0  0  0  0  0  0  0  0
    9.4630  -15.2196   26.8316 O   0  0  0  0  0  0  0  0  0  0  0  0
  2  1  1  6
  2  3  1  0
  3  4  1  0
  5  4  1  0
  5  6  1  0
  7  6  1  0
  8  2  1  0
  8  9  2  0
 10 11  1  0
 11 12  2  0
 12 13  1  0
 14 15  1  0
 14 13  2  0
 16 17  1  0
 16 15  1  1
 17  8  1  0
 18 16  1  0
 19 18  2  0
 20 14  1  0
 21 20  2  0
 21 11  1  0
 22 23  1  0
 23 25  1  0
 23 24  2  0
 25 26  1  0
 27 26  1  6
 27 28  1  0
 28 18  1  0
 29 27  1  0
 29 31  1  0
 30 29  2  0
M  END
$$$$
