THM.pdb
     RDKit          3D

 26 26  0  0  1  0  0  0  0  0999 V2000
   11.6194  -14.0017   17.9835 C   0  0  0  0  0  0  0  0  0  0  0  0
   10.6598  -14.3722   19.0821 C   0  0  1  0  0  0  0  0  0  0  0  0
   10.5691  -13.3748   20.0520 O   0  0  0  0  0  0  0  0  0  0  0  0
    9.2539  -14.5858   18.5540 C   0  0  2  0  0  0  0  0  0  0  0  0
    8.7881  -13.3220   18.0340 N   0  0  0  0  0  0  0  0  0  0  0  0
    8.3516  -15.0474   19.6874 C   0  0  0  0  0  0  0  0  0  0  0  0
    7.4524  -14.2621   20.0757 O   0  0  0  0  0  0  0  0  0  0  0  0
    8.5180  -16.2995   20.2745 N   0  0  0  0  0  0  0  0  0  0  0  0
    7.6474  -16.8788   21.3457 C   0  0  1  0  0  0  0  0  0  0  0  0
    8.0183  -18.2888   21.4269 C   0  0  0  0  0  0  0  0  0  0  0  0
    7.6085  -19.1169   22.5453 C   0  0  0  0  0  0  0  0  0  0  0  0
    8.2515  -19.7821   23.5498 C   0  0  0  0  0  0  0  0  0  0  0  0
    7.3171  -20.3133   24.3598 N   0  0  0  0  0  0  0  0  0  0  0  0
    6.1101  -20.0006   23.8944 C   0  0  0  0  0  0  0  0  0  0  0  0
    6.2705  -19.2809   22.8035 N   0  0  0  0  0  0  0  0  0  0  0  0
    8.1082  -16.1090   22.5630 C   0  0  0  0  0  0  0  0  0  0  0  0
    9.3692  -15.8142   22.6639 O   0  0  0  0  0  0  0  0  0  0  0  0
    6.9603  -10.7937   28.0792 C   0  0  0  0  0  0  0  0  0  0  0  0
    6.1714  -12.2439   27.3182 S   0  0  0  0  0  0  0  0  0  0  0  0
    7.4795  -13.2359   26.5158 C   0  0  0  0  0  0  0  0  0  0  0  0
    6.9125  -13.9927   25.3552 C   0  0  0  0  0  0  0  0  0  0  0  0
    7.9631  -14.8676   24.7263 C   0  0  2  0  0  0  0  0  0  0  0  0
    7.3379  -15.6564   23.6252 N   0  0  0  0  0  0  0  0  0  0  0  0
    8.4621  -15.8383   25.7104 C   0  0  0  0  0  0  0  0  0  0  0  0
    9.5412  -15.4642   26.5342 O   0  0  0  0  0  0  0  0  0  0  0  0
    8.0056  -16.9994   25.8909 O   0  0  0  0  0  0  0  0  0  0  0  0
  2  3  1  0
  2  1  1  6
  4  6  1  0
  4  2  1  0
  4  5  1  1
  6  7  2  0
  8  6  1  0
  8  9  1  0
  9 10  1  1
 11 15  1  0
 11 10  1  0
 12 11  2  0
 13 12  1  0
 13 14  1  0
 14 15  2  0
 16 23  1  0
 16  9  1  0
 17 16  2  0
 18 19  1  0
 19 20  1  0
 20 21  1  0
 22 21  1  1
 22 24  1  0
 22 23  1  0
 24 25  1  0
 26 24  2  0
M  END
$$$$
