THM.pdb
     RDKit          3D

 26 26  0  0  1  0  0  0  0  0999 V2000
    2.2791  -18.9656   22.7539 C   0  0  0  0  0  0  0  0  0  0  0  0
    3.6709  -18.3961   22.6954 C   0  0  1  0  0  0  0  0  0  0  0  0
    4.4707  -18.8692   23.7348 O   0  0  0  0  0  0  0  0  0  0  0  0
    4.3784  -18.7685   21.4063 C   0  0  2  0  0  0  0  0  0  0  0  0
    4.5307  -20.2043   21.3930 N   0  0  0  0  0  0  0  0  0  0  0  0
    5.7432  -18.0995   21.3658 C   0  0  0  0  0  0  0  0  0  0  0  0
    6.7243  -18.7451   21.8092 O   0  0  0  0  0  0  0  0  0  0  0  0
    5.8985  -16.8134   20.8539 N   0  0  0  0  0  0  0  0  0  0  0  0
    7.1774  -16.0356   20.8334 C   0  0  1  0  0  0  0  0  0  0  0  0
    6.9440  -14.9291   19.9096 C   0  0  0  0  0  0  0  0  0  0  0  0
    7.9942  -13.9852   19.5771 C   0  0  0  0  0  0  0  0  0  0  0  0
    8.1920  -12.6464   19.7595 C   0  0  0  0  0  0  0  0  0  0  0  0
    9.4238  -12.3442   19.3091 N   0  0  0  0  0  0  0  0  0  0  0  0
   10.0030  -13.4516   18.8516 C   0  0  0  0  0  0  0  0  0  0  0  0
    9.1544  -14.4464   19.0069 N   0  0  0  0  0  0  0  0  0  0  0  0
    7.2671  -15.5582   22.2656 C   0  0  0  0  0  0  0  0  0  0  0  0
    6.3184  -14.7968   22.7212 O   0  0  0  0  0  0  0  0  0  0  0  0
    6.4337  -11.0374   27.0651 C   0  0  0  0  0  0  0  0  0  0  0  0
    6.2366  -12.8348   26.8781 S   0  0  0  0  0  0  0  0  0  0  0  0
    7.7568  -13.4866   26.1012 C   0  0  0  0  0  0  0  0  0  0  0  0
    7.4048  -14.4062   24.9735 C   0  0  0  0  0  0  0  0  0  0  0  0
    8.6393  -14.8179   24.2177 C   0  0  2  0  0  0  0  0  0  0  0  0
    8.2612  -15.8348   23.1938 N   0  0  0  0  0  0  0  0  0  0  0  0
    9.5909  -15.4693   25.1286 C   0  0  0  0  0  0  0  0  0  0  0  0
   10.0560  -16.7582   24.8036 O   0  0  0  0  0  0  0  0  0  0  0  0
   10.0401  -14.9728   26.1966 O   0  0  0  0  0  0  0  0  0  0  0  0
  2  3  1  0
  2  1  1  6
  4  6  1  0
  4  2  1  0
  4  5  1  1
  6  7  2  0
  8  6  1  0
  8  9  1  0
  9 10  1  6
 11 15  1  0
 11 10  1  0
 12 11  2  0
 13 12  1  0
 13 14  1  0
 14 15  2  0
 16 23  1  0
 16  9  1  0
 17 16  2  0
 18 19  1  0
 19 20  1  0
 20 21  1  0
 22 21  1  1
 22 24  1  0
 22 23  1  0
 24 25  1  0
 26 24  2  0
M  END
$$$$
