QIG.pdb
     RDKit          3D

 22 21  0  0  1  0  0  0  0  0999 V2000
   18.4924  -10.3929  -13.3734 N   0  0  0  0  0  0  0  0  0  0  0  0
   17.8519  -10.9924  -14.5001 C   0  0  0  0  0  0  0  0  0  0  0  0
   18.4450  -11.9682  -15.0154 O   0  0  0  0  0  0  0  0  0  0  0  0
   16.5791  -10.5034  -15.0354 C   0  0  0  0  0  0  0  0  0  0  0  0
   15.9020   -9.4126  -14.2720 C   0  0  0  0  0  0  0  0  0  0  0  0
   15.0744   -9.9347  -13.1573 C   0  0  2  0  0  0  0  0  0  0  0  0
   13.9709  -10.7649  -13.5398 N   0  0  0  0  0  0  0  0  0  0  0  0
   14.6350   -8.8505  -12.2174 C   0  0  0  0  0  0  0  0  0  0  0  0
   13.6223   -8.1683  -12.5028 O   0  0  0  0  0  0  0  0  0  0  0  0
   12.5539   -9.3305   -7.8229 C   0  0  0  0  0  0  0  0  0  0  0  0
   12.9700   -8.6719   -9.1226 C   0  0  0  0  0  0  0  0  0  0  0  0
   14.3278   -8.0250   -8.8669 C   0  0  2  0  0  0  0  0  0  0  0  0
   14.1930   -6.9949   -7.7946 C   0  0  0  0  0  0  0  0  0  0  0  0
   14.8902   -7.4469  -10.1456 C   0  0  2  0  0  0  0  0  0  0  0  0
   15.3178   -8.5600  -11.0130 N   0  0  0  0  0  0  0  0  0  0  0  0
   16.0746   -6.6207   -9.8268 C   0  0  0  0  0  0  0  0  0  0  0  0
   17.1340   -7.2190   -9.4065 O   0  0  0  0  0  0  0  0  0  0  0  0
   16.1533   -5.2140   -9.9468 N   0  0  0  0  0  0  0  0  0  0  0  0
   17.4197   -4.5561   -9.5702 C   0  0  0  0  0  0  0  0  0  0  0  0
   17.2492   -3.0839   -9.6429 C   0  0  0  0  0  0  0  0  0  0  0  0
   18.2534   -2.2410   -9.2280 O   0  0  0  0  0  0  0  0  0  0  0  0
   16.1832   -2.5895  -10.0853 O   0  0  0  0  0  0  0  0  0  0  0  0
  1  2  1  0
  2  3  2  0
  4  2  1  0
  5  4  1  0
  6  5  1  0
  6  7  1  6
  8  6  1  0
  8  9  2  0
 10 11  1  0
 11 12  1  0
 12 14  1  0
 12 13  1  1
 14 15  1  6
 14 16  1  0
 15  8  1  0
 16 18  1  0
 17 16  2  0
 18 19  1  0
 19 20  1  0
 20 21  1  0
 22 20  2  0
M  END
$$$$
