QIG.pdb
     RDKit          3D

 22 21  0  0  1  0  0  0  0  0999 V2000
   27.8769  -17.7501  -14.7759 N   0  0  0  0  0  0  0  0  0  0  0  0
   27.8627  -18.3329  -16.0795 C   0  0  0  0  0  0  0  0  0  0  0  0
   28.6922  -17.8718  -16.8973 O   0  0  0  0  0  0  0  0  0  0  0  0
   26.9360  -19.4038  -16.4537 C   0  0  0  0  0  0  0  0  0  0  0  0
   26.0420  -19.9274  -15.3779 C   0  0  0  0  0  0  0  0  0  0  0  0
   26.7113  -20.9491  -14.5364 C   0  0  2  0  0  0  0  0  0  0  0  0
   27.2775  -22.0602  -15.2422 N   0  0  0  0  0  0  0  0  0  0  0  0
   25.8424  -21.4135  -13.4045 C   0  0  0  0  0  0  0  0  0  0  0  0
   25.1249  -22.4297  -13.5627 O   0  0  0  0  0  0  0  0  0  0  0  0
   27.0043  -20.3482   -8.1790 C   0  0  0  0  0  0  0  0  0  0  0  0
   26.5592  -21.1146   -9.4080 C   0  0  0  0  0  0  0  0  0  0  0  0
   25.2070  -20.5369   -9.8146 C   0  0  2  0  0  0  0  0  0  0  0  0
   24.2076  -20.8079   -8.7389 C   0  0  0  0  0  0  0  0  0  0  0  0
   24.7715  -21.0934  -11.1510 C   0  0  2  0  0  0  0  0  0  0  0  0
   25.7951  -20.7509  -12.1556 N   0  0  0  0  0  0  0  0  0  0  0  0
   23.4953  -20.4612  -11.5492 C   0  0  0  0  0  0  0  0  0  0  0  0
   23.5437  -19.3093  -12.1217 O   0  0  0  0  0  0  0  0  0  0  0  0
   22.2082  -21.0153  -11.3604 N   0  0  0  0  0  0  0  0  0  0  0  0
   21.0408  -20.2148  -11.7789 C   0  0  0  0  0  0  0  0  0  0  0  0
   20.7118  -20.5274  -13.1916 C   0  0  0  0  0  0  0  0  0  0  0  0
   20.1049  -19.5895  -13.9936 O   0  0  0  0  0  0  0  0  0  0  0  0
   20.9843  -21.6548  -13.6723 O   0  0  0  0  0  0  0  0  0  0  0  0
  1  2  1  0
  2  3  2  0
  4  2  1  0
  5  4  1  0
  6  5  1  0
  6  7  1  6
  8  6  1  0
  8  9  2  0
 10 11  1  0
 11 12  1  0
 12 14  1  0
 12 13  1  1
 14 15  1  6
 14 16  1  0
 15  8  1  0
 16 18  1  0
 17 16  2  0
 18 19  1  0
 19 20  1  0
 20 21  1  0
 22 20  2  0
M  END
$$$$
