QIG.pdb
     RDKit          3D

 22 21  0  0  1  0  0  0  0  0999 V2000
   18.8316   -9.8804  -20.2864 N   0  0  0  0  0  0  0  0  0  0  0  0
   17.4796  -10.3357  -20.3497 C   0  0  0  0  0  0  0  0  0  0  0  0
   17.0874  -10.7411  -21.4683 O   0  0  0  0  0  0  0  0  0  0  0  0
   16.5911  -10.3305  -19.1851 C   0  0  0  0  0  0  0  0  0  0  0  0
   17.1753   -9.8572  -17.8944 C   0  0  0  0  0  0  0  0  0  0  0  0
   17.8542  -10.9460  -17.1503 C   0  0  2  0  0  0  0  0  0  0  0  0
   17.0039  -11.9969  -16.6752 N   0  0  0  0  0  0  0  0  0  0  0  0
   18.7335  -10.4235  -16.0521 C   0  0  0  0  0  0  0  0  0  0  0  0
   18.3831  -10.5874  -14.8593 O   0  0  0  0  0  0  0  0  0  0  0  0
   23.5435  -11.7690  -15.4628 C   0  0  0  0  0  0  0  0  0  0  0  0
   22.1169  -11.2962  -15.2696 C   0  0  0  0  0  0  0  0  0  0  0  0
   22.1563   -9.7715  -15.3002 C   0  0  2  0  0  0  0  0  0  0  0  0
   23.0476   -9.2758  -14.2097 C   0  0  0  0  0  0  0  0  0  0  0  0
   20.7597   -9.2017  -15.1985 C   0  0  2  0  0  0  0  0  0  0  0  0
   19.9507   -9.7481  -16.3035 N   0  0  0  0  0  0  0  0  0  0  0  0
   20.8216   -7.7316  -15.3466 C   0  0  0  0  0  0  0  0  0  0  0  0
   21.3417   -7.2534  -16.4227 O   0  0  0  0  0  0  0  0  0  0  0  0
   20.3515   -6.7888  -14.4035 N   0  0  0  0  0  0  0  0  0  0  0  0
   20.5835   -5.3575  -14.6795 C   0  0  0  0  0  0  0  0  0  0  0  0
   21.7946   -4.9066  -13.9504 C   0  0  0  0  0  0  0  0  0  0  0  0
   22.2625   -3.6217  -14.0965 O   0  0  0  0  0  0  0  0  0  0  0  0
   22.4079   -5.6949  -13.1896 O   0  0  0  0  0  0  0  0  0  0  0  0
  1  2  1  0
  2  3  2  0
  4  2  1  0
  5  4  1  0
  6  5  1  0
  6  7  1  1
  8  6  1  0
  8  9  2  0
 10 11  1  0
 11 12  1  0
 12 14  1  0
 12 13  1  1
 14 15  1  6
 14 16  1  0
 15  8  1  0
 16 18  1  0
 17 16  2  0
 18 19  1  0
 19 20  1  0
 20 21  1  0
 22 20  2  0
M  END
$$$$
