QIG.pdb
     RDKit          3D

 22 21  0  0  1  0  0  0  0  0999 V2000
   17.2668  -13.6764  -18.4926 N   0  0  0  0  0  0  0  0  0  0  0  0
   17.6543  -12.9936  -19.6854 C   0  0  0  0  0  0  0  0  0  0  0  0
   17.1795  -13.4416  -20.7547 O   0  0  0  0  0  0  0  0  0  0  0  0
   18.5561  -11.8394  -19.6750 C   0  0  0  0  0  0  0  0  0  0  0  0
   19.0360  -11.3716  -18.3402 C   0  0  0  0  0  0  0  0  0  0  0  0
   20.2255  -12.1245  -17.8733 C   0  0  2  0  0  0  0  0  0  0  0  0
   20.0064  -13.5091  -17.5766 N   0  0  0  0  0  0  0  0  0  0  0  0
   20.9293  -11.4338  -16.7420 C   0  0  0  0  0  0  0  0  0  0  0  0
   20.5586  -11.6571  -15.5651 O   0  0  0  0  0  0  0  0  0  0  0  0
   26.4062  -10.2663  -14.9094 C   0  0  0  0  0  0  0  0  0  0  0  0
   24.9621   -9.8642  -14.6879 C   0  0  0  0  0  0  0  0  0  0  0  0
   24.1821  -10.3583  -15.9024 C   0  0  2  0  0  0  0  0  0  0  0  0
   24.8277   -9.8482  -17.1483 C   0  0  0  0  0  0  0  0  0  0  0  0
   22.7301   -9.9492  -15.8038 C   0  0  2  0  0  0  0  0  0  0  0  0
   22.0016  -10.5337  -16.9448 N   0  0  0  0  0  0  0  0  0  0  0  0
   22.6322   -8.4762  -15.8915 C   0  0  0  0  0  0  0  0  0  0  0  0
   23.1670   -7.8938  -16.9073 O   0  0  0  0  0  0  0  0  0  0  0  0
   21.9924   -7.6363  -14.9509 N   0  0  0  0  0  0  0  0  0  0  0  0
   22.0125   -6.1808  -15.1949 C   0  0  0  0  0  0  0  0  0  0  0  0
   22.4307   -5.4805  -13.9554 C   0  0  0  0  0  0  0  0  0  0  0  0
   22.5950   -4.1152  -13.9436 O   0  0  0  0  0  0  0  0  0  0  0  0
   22.6399   -6.1281  -12.9003 O   0  0  0  0  0  0  0  0  0  0  0  0
  1  2  1  0
  2  3  2  0
  4  2  1  0
  5  4  1  0
  6  5  1  0
  6  7  1  1
  8  6  1  0
  8  9  2  0
 10 11  1  0
 11 12  1  0
 12 14  1  0
 12 13  1  6
 14 15  1  6
 14 16  1  0
 15  8  1  0
 16 18  1  0
 17 16  2  0
 18 19  1  0
 19 20  1  0
 20 21  1  0
 22 20  2  0
M  END
$$$$
