QIG.pdb
     RDKit          3D

 22 21  0  0  1  0  0  0  0  0999 V2000
   24.0438  -25.7542  -14.5331 N   0  0  0  0  0  0  0  0  0  0  0  0
   22.9356  -24.8538  -14.5530 C   0  0  0  0  0  0  0  0  0  0  0  0
   22.4405  -24.6156  -15.6789 O   0  0  0  0  0  0  0  0  0  0  0  0
   22.4016  -24.2346  -13.3377 C   0  0  0  0  0  0  0  0  0  0  0  0
   22.7380  -22.7971  -13.1106 C   0  0  0  0  0  0  0  0  0  0  0  0
   24.1780  -22.5947  -12.8183 C   0  0  2  0  0  0  0  0  0  0  0  0
   24.6570  -23.1993  -11.6107 N   0  0  0  0  0  0  0  0  0  0  0  0
   24.5776  -21.1502  -12.8953 C   0  0  0  0  0  0  0  0  0  0  0  0
   24.2407  -20.3734  -11.9703 O   0  0  0  0  0  0  0  0  0  0  0  0
   29.4205  -19.7887  -13.2341 C   0  0  0  0  0  0  0  0  0  0  0  0
   27.9337  -19.8049  -12.9422 C   0  0  0  0  0  0  0  0  0  0  0  0
   27.2482  -19.1572  -14.1414 C   0  0  2  0  0  0  0  0  0  0  0  0
   27.7512  -17.7611  -14.3065 C   0  0  0  0  0  0  0  0  0  0  0  0
   25.7453  -19.2071  -13.9852 C   0  0  2  0  0  0  0  0  0  0  0  0
   25.3236  -20.6200  -13.9738 N   0  0  0  0  0  0  0  0  0  0  0  0
   25.1130  -18.5396  -15.1434 C   0  0  0  0  0  0  0  0  0  0  0  0
   25.2447  -19.0850  -16.3020 O   0  0  0  0  0  0  0  0  0  0  0  0
   24.3624  -17.3423  -15.0945 N   0  0  0  0  0  0  0  0  0  0  0  0
   23.7912  -16.8303  -16.3555 C   0  0  0  0  0  0  0  0  0  0  0  0
   22.4037  -17.3339  -16.5066 C   0  0  0  0  0  0  0  0  0  0  0  0
   21.5596  -16.7903  -17.4464 O   0  0  0  0  0  0  0  0  0  0  0  0
   21.9831  -18.2645  -15.7762 O   0  0  0  0  0  0  0  0  0  0  0  0
  1  2  1  0
  2  3  2  0
  4  2  1  0
  5  4  1  0
  6  5  1  0
  6  7  1  1
  8  6  1  0
  8  9  2  0
 10 11  1  0
 11 12  1  0
 12 14  1  0
 12 13  1  1
 14 15  1  6
 14 16  1  0
 15  8  1  0
 16 18  1  0
 17 16  2  0
 18 19  1  0
 19 20  1  0
 20 21  1  0
 22 20  2  0
M  END
$$$$
