QIG.pdb
     RDKit          3D

 22 21  0  0  1  0  0  0  0  0999 V2000
   28.1779  -21.6209  -17.5313 N   0  0  0  0  0  0  0  0  0  0  0  0
   28.6181  -20.2724  -17.3671 C   0  0  0  0  0  0  0  0  0  0  0  0
   28.9866  -19.6831  -18.4094 O   0  0  0  0  0  0  0  0  0  0  0  0
   28.6468  -19.6063  -16.0628 C   0  0  0  0  0  0  0  0  0  0  0  0
   28.0873  -20.3669  -14.9056 C   0  0  0  0  0  0  0  0  0  0  0  0
   26.6881  -19.9806  -14.6007 C   0  0  2  0  0  0  0  0  0  0  0  0
   26.4680  -18.5853  -14.3598 N   0  0  0  0  0  0  0  0  0  0  0  0
   26.0903  -20.8188  -13.5088 C   0  0  0  0  0  0  0  0  0  0  0  0
   26.1463  -22.0684  -13.5983 O   0  0  0  0  0  0  0  0  0  0  0  0
   26.6442  -19.5906   -8.3960 C   0  0  0  0  0  0  0  0  0  0  0  0
   26.5199  -20.4386   -9.6456 C   0  0  0  0  0  0  0  0  0  0  0  0
   25.0360  -20.4794   -9.9974 C   0  0  2  0  0  0  0  0  0  0  0  0
   24.2897  -21.1941   -8.9198 C   0  0  0  0  0  0  0  0  0  0  0  0
   24.8287  -21.1157  -11.3531 C   0  0  2  0  0  0  0  0  0  0  0  0
   25.4605  -20.2584  -12.3729 N   0  0  0  0  0  0  0  0  0  0  0  0
   23.3797  -21.1920  -11.6386 C   0  0  0  0  0  0  0  0  0  0  0  0
   22.6284  -21.8081  -10.7942 O   0  0  0  0  0  0  0  0  0  0  0  0
   22.7330  -20.6389  -12.7680 N   0  0  0  0  0  0  0  0  0  0  0  0
   21.2622  -20.7375  -12.8419 C   0  0  0  0  0  0  0  0  0  0  0  0
   20.7831  -20.0341  -14.0573 C   0  0  0  0  0  0  0  0  0  0  0  0
   19.4377  -19.8553  -14.2787 O   0  0  0  0  0  0  0  0  0  0  0  0
   21.6027  -19.5928  -14.8999 O   0  0  0  0  0  0  0  0  0  0  0  0
  1  2  1  0
  2  3  2  0
  4  2  1  0
  5  4  1  0
  6  5  1  0
  6  7  1  1
  8  6  1  0
  8  9  2  0
 10 11  1  0
 11 12  1  0
 12 14  1  0
 12 13  1  1
 14 15  1  6
 14 16  1  0
 15  8  1  0
 16 18  1  0
 17 16  2  0
 18 19  1  0
 19 20  1  0
 20 21  1  0
 22 20  2  0
M  END
$$$$
