QIG.pdb
     RDKit          3D

 22 21  0  0  1  0  0  0  0  0999 V2000
   18.6361  -18.9379  -14.8011 N   0  0  0  0  0  0  0  0  0  0  0  0
   18.8962  -20.0769  -15.6223 C   0  0  0  0  0  0  0  0  0  0  0  0
   17.8958  -20.6120  -16.1537 O   0  0  0  0  0  0  0  0  0  0  0  0
   20.2467  -20.6023  -15.8361 C   0  0  0  0  0  0  0  0  0  0  0  0
   21.3568  -19.9259  -15.1004 C   0  0  0  0  0  0  0  0  0  0  0  0
   21.7027  -20.6227  -13.8375 C   0  0  2  0  0  0  0  0  0  0  0  0
   20.6420  -20.7364  -12.8809 N   0  0  0  0  0  0  0  0  0  0  0  0
   22.9457  -20.0700  -13.2037 C   0  0  0  0  0  0  0  0  0  0  0  0
   22.9141  -18.9241  -12.6953 O   0  0  0  0  0  0  0  0  0  0  0  0
   24.6715  -21.1752   -8.8602 C   0  0  0  0  0  0  0  0  0  0  0  0
   24.3892  -20.4950  -10.1845 C   0  0  0  0  0  0  0  0  0  0  0  0
   25.5013  -20.9212  -11.1378 C   0  0  2  0  0  0  0  0  0  0  0  0
   26.8272  -20.6431  -10.5102 C   0  0  0  0  0  0  0  0  0  0  0  0
   25.3477  -20.2328  -12.4750 C   0  0  2  0  0  0  0  0  0  0  0  0
   24.1627  -20.7893  -13.1535 N   0  0  0  0  0  0  0  0  0  0  0  0
   26.5378  -20.5136  -13.3068 C   0  0  0  0  0  0  0  0  0  0  0  0
   26.8597  -21.7439  -13.5064 O   0  0  0  0  0  0  0  0  0  0  0  0
   27.3645  -19.5413  -13.9156 N   0  0  0  0  0  0  0  0  0  0  0  0
   28.4855  -20.0109  -14.7531 C   0  0  0  0  0  0  0  0  0  0  0  0
   28.1446  -19.8169  -16.1841 C   0  0  0  0  0  0  0  0  0  0  0  0
   29.1124  -19.4560  -17.0921 O   0  0  0  0  0  0  0  0  0  0  0  0
   26.9656  -19.9803  -16.5836 O   0  0  0  0  0  0  0  0  0  0  0  0
  1  2  1  0
  2  3  2  0
  4  2  1  0
  5  4  1  0
  6  5  1  0
  6  7  1  1
  8  6  1  0
  8  9  2  0
 10 11  1  0
 11 12  1  0
 12 14  1  0
 12 13  1  1
 14 15  1  6
 14 16  1  0
 15  8  1  0
 16 18  1  0
 17 16  2  0
 18 19  1  0
 19 20  1  0
 20 21  1  0
 22 20  2  0
M  END
$$$$
