QIG.pdb
     RDKit          3D

 22 21  0  0  1  0  0  0  0  0999 V2000
   17.3612  -10.9732  -17.9721 N   0  0  0  0  0  0  0  0  0  0  0  0
   17.9745  -11.6984  -19.0385 C   0  0  0  0  0  0  0  0  0  0  0  0
   17.1944  -12.2533  -19.8465 O   0  0  0  0  0  0  0  0  0  0  0  0
   19.4281  -11.7998  -19.1886 C   0  0  0  0  0  0  0  0  0  0  0  0
   20.2610  -11.0396  -18.2092 C   0  0  0  0  0  0  0  0  0  0  0  0
   21.3497  -11.8665  -17.6338 C   0  0  2  0  0  0  0  0  0  0  0  0
   20.9669  -13.1734  -17.1881 N   0  0  0  0  0  0  0  0  0  0  0  0
   22.1191  -11.1368  -16.5719 C   0  0  0  0  0  0  0  0  0  0  0  0
   21.8168  -11.3144  -15.3679 O   0  0  0  0  0  0  0  0  0  0  0  0
   27.1424  -11.5498  -16.1056 C   0  0  0  0  0  0  0  0  0  0  0  0
   25.6659  -11.3505  -15.8296 C   0  0  0  0  0  0  0  0  0  0  0  0
   25.3952   -9.8558  -15.9709 C   0  0  2  0  0  0  0  0  0  0  0  0
   26.2380   -9.1040  -14.9943 C   0  0  0  0  0  0  0  0  0  0  0  0
   23.9222   -9.5637  -15.7964 C   0  0  2  0  0  0  0  0  0  0  0  0
   23.1796  -10.2494  -16.8700 N   0  0  0  0  0  0  0  0  0  0  0  0
   23.6956   -8.1081  -15.9270 C   0  0  0  0  0  0  0  0  0  0  0  0
   23.8815   -7.5681  -17.0806 O   0  0  0  0  0  0  0  0  0  0  0  0
   23.2834   -7.2428  -14.8874 N   0  0  0  0  0  0  0  0  0  0  0  0
   23.1328   -5.8079  -15.1988 C   0  0  0  0  0  0  0  0  0  0  0  0
   21.7034   -5.4273  -15.0826 C   0  0  0  0  0  0  0  0  0  0  0  0
   21.3271   -4.1047  -15.0993 O   0  0  0  0  0  0  0  0  0  0  0  0
   20.8186   -6.3106  -14.9673 O   0  0  0  0  0  0  0  0  0  0  0  0
  1  2  1  0
  2  3  2  0
  4  2  1  0
  5  4  1  0
  6  5  1  0
  6  7  1  1
  8  6  1  0
  8  9  2  0
 10 11  1  0
 11 12  1  0
 12 14  1  0
 12 13  1  1
 14 15  1  6
 14 16  1  0
 15  8  1  0
 16 18  1  0
 17 16  2  0
 18 19  1  0
 19 20  1  0
 20 21  1  0
 22 20  2  0
M  END
$$$$
