GCT.pdb
     RDKit          3D

 18 17  0  0  1  0  0  0  0  0999 V2000
   17.0749  -11.5531  -16.4327 N   0  0  0  0  0  0  0  0  0  0  0  0
   17.2716  -10.1292  -16.6212 C   0  0  0  0  0  0  0  0  0  0  0  0
   18.2514   -9.6350  -15.6339 C   0  0  0  0  0  0  0  0  0  0  0  0
   17.8752   -9.3160  -14.4806 O   0  0  0  0  0  0  0  0  0  0  0  0
   19.6438   -9.5032  -15.9496 N   0  0  0  0  0  0  0  0  0  0  0  0
   20.5860   -8.9651  -14.9785 C   0  0  1  0  0  0  0  0  0  0  0  0
   21.8209   -9.8312  -15.0485 C   0  0  0  0  0  0  0  0  0  0  0  0
   23.0514   -9.1496  -13.9071 S   0  0  0  0  0  0  0  0  0  0  0  0
   20.9389   -7.5830  -15.3696 C   0  0  0  0  0  0  0  0  0  0  0  0
   21.4077   -7.3766  -16.5362 O   0  0  0  0  0  0  0  0  0  0  0  0
   19.0563   -4.7475  -16.0441 C   0  0  0  0  0  0  0  0  0  0  0  0
   19.9780   -4.2998  -14.9387 C   0  0  1  0  0  0  0  0  0  0  0  0
   19.2653   -4.3857  -13.7455 O   0  0  0  0  0  0  0  0  0  0  0  0
   21.1963   -5.1715  -14.8130 C   0  0  2  0  0  0  0  0  0  0  0  0
   20.7608   -6.5061  -14.4636 N   0  0  0  0  0  0  0  0  0  0  0  0
   22.1786   -4.6763  -13.8256 C   0  0  0  0  0  0  0  0  0  0  0  0
   22.4612   -5.3085  -12.7866 O   0  0  0  0  0  0  0  0  0  0  0  0
   22.8234   -3.4658  -14.0404 O   0  0  0  0  0  0  0  0  0  0  0  0
  1  2  1  0
  3  2  1  0
  4  3  2  0
  5  3  1  0
  6  5  1  0
  7  8  1  0
  6  7  1  6
  9  6  1  0
  9 15  1  0
 10  9  2  0
 12 11  1  6
 12 14  1  0
 12 13  1  0
 14 15  1  1
 14 16  1  0
 16 18  1  0
 17 16  2  0
M  END
$$$$
