GCT.pdb
     RDKit          3D

 18 17  0  0  1  0  0  0  0  0999 V2000
   18.4844  -11.3337  -17.6846 N   0  0  0  0  0  0  0  0  0  0  0  0
   19.7433  -10.6361  -17.5109 C   0  0  0  0  0  0  0  0  0  0  0  0
   19.6040   -9.6338  -16.4363 C   0  0  0  0  0  0  0  0  0  0  0  0
   18.5535   -8.9548  -16.3424 O   0  0  0  0  0  0  0  0  0  0  0  0
   20.6445   -9.4025  -15.4771 N   0  0  0  0  0  0  0  0  0  0  0  0
   20.4982   -8.3903  -14.4405 C   0  0  1  0  0  0  0  0  0  0  0  0
   20.9293   -9.0337  -13.1442 C   0  0  0  0  0  0  0  0  0  0  0  0
   20.6881   -7.8306  -11.8117 S   0  0  0  0  0  0  0  0  0  0  0  0
   21.4012   -7.2593  -14.7457 C   0  0  0  0  0  0  0  0  0  0  0  0
   22.6356   -7.4985  -14.9514 O   0  0  0  0  0  0  0  0  0  0  0  0
   21.5814   -5.1676  -17.5732 C   0  0  0  0  0  0  0  0  0  0  0  0
   21.3730   -4.2274  -16.4135 C   0  0  1  0  0  0  0  0  0  0  0  0
   20.0097   -3.9527  -16.3436 O   0  0  0  0  0  0  0  0  0  0  0  0
   21.7914   -4.8276  -15.1003 C   0  0  2  0  0  0  0  0  0  0  0  0
   20.9042   -5.9321  -14.8070 N   0  0  0  0  0  0  0  0  0  0  0  0
   21.7950   -3.8604  -13.9824 C   0  0  0  0  0  0  0  0  0  0  0  0
   21.0427   -3.9773  -12.9928 O   0  0  0  0  0  0  0  0  0  0  0  0
   22.6586   -2.7739  -14.0122 O   0  0  0  0  0  0  0  0  0  0  0  0
  1  2  1  0
  3  2  1  0
  4  3  2  0
  5  3  1  0
  6  5  1  0
  7  8  1  0
  6  7  1  1
  9  6  1  0
  9 15  1  0
 10  9  2  0
 12 11  1  6
 12 14  1  0
 12 13  1  0
 14 15  1  1
 14 16  1  0
 16 18  1  0
 17 16  2  0
M  END
$$$$
