GCT.pdb
     RDKit          3D

 18 17  0  0  1  0  0  0  0  0999 V2000
   17.9635  -13.7578  -16.7995 N   0  0  0  0  0  0  0  0  0  0  0  0
   18.5993  -12.9808  -15.7537 C   0  0  0  0  0  0  0  0  0  0  0  0
   18.5351  -11.5474  -16.1004 C   0  0  0  0  0  0  0  0  0  0  0  0
   18.7292  -11.1775  -17.2831 O   0  0  0  0  0  0  0  0  0  0  0  0
   18.2538  -10.5424  -15.1171 N   0  0  0  0  0  0  0  0  0  0  0  0
   18.1468   -9.1384  -15.4880 C   0  0  1  0  0  0  0  0  0  0  0  0
   16.8541   -8.6317  -14.8946 C   0  0  0  0  0  0  0  0  0  0  0  0
   15.4872   -9.2646  -15.9008 S   0  0  0  0  0  0  0  0  0  0  0  0
   19.2792   -8.3982  -14.8901 C   0  0  0  0  0  0  0  0  0  0  0  0
   19.5722   -8.6085  -13.6681 O   0  0  0  0  0  0  0  0  0  0  0  0
   22.7719   -8.6438  -15.9048 C   0  0  0  0  0  0  0  0  0  0  0  0
   22.3725   -7.1941  -16.0083 C   0  0  1  0  0  0  0  0  0  0  0  0
   21.9821   -6.9655  -17.3253 O   0  0  0  0  0  0  0  0  0  0  0  0
   21.2129   -6.8487  -15.1162 C   0  0  2  0  0  0  0  0  0  0  0  0
   20.0252   -7.4699  -15.6607 N   0  0  0  0  0  0  0  0  0  0  0  0
   21.0041   -5.3944  -14.9540 C   0  0  0  0  0  0  0  0  0  0  0  0
   20.0304   -4.7970  -15.4580 O   0  0  0  0  0  0  0  0  0  0  0  0
   21.9113   -4.6443  -14.2180 O   0  0  0  0  0  0  0  0  0  0  0  0
  1  2  1  0
  3  2  1  0
  4  3  2  0
  5  3  1  0
  6  5  1  0
  7  8  1  0
  6  7  1  1
  9  6  1  0
  9 15  1  0
 10  9  2  0
 12 11  1  6
 12 14  1  0
 12 13  1  0
 14 15  1  6
 14 16  1  0
 16 18  1  0
 17 16  2  0
M  END
$$$$
