GCT.pdb
     RDKit          3D

 18 17  0  0  1  0  0  0  0  0999 V2000
   20.8413  -11.2373  -20.1922 N   0  0  0  0  0  0  0  0  0  0  0  0
   21.4037   -9.9574  -19.8085 C   0  0  0  0  0  0  0  0  0  0  0  0
   21.3459   -9.8171  -18.3402 C   0  0  0  0  0  0  0  0  0  0  0  0
   20.2445   -9.8910  -17.7446 O   0  0  0  0  0  0  0  0  0  0  0  0
   22.5242   -9.5951  -17.5538 N   0  0  0  0  0  0  0  0  0  0  0  0
   22.4327   -9.3077  -16.1292 C   0  0  1  0  0  0  0  0  0  0  0  0
   23.4946  -10.1400  -15.4513 C   0  0  0  0  0  0  0  0  0  0  0  0
   23.4892   -9.7302  -13.6868 S   0  0  0  0  0  0  0  0  0  0  0  0
   22.7255   -7.8744  -15.9108 C   0  0  0  0  0  0  0  0  0  0  0  0
   23.7599   -7.3697  -16.4571 O   0  0  0  0  0  0  0  0  0  0  0  0
   19.7297   -5.0980  -15.1319 C   0  0  0  0  0  0  0  0  0  0  0  0
   21.1272   -4.8715  -15.6494 C   0  0  1  0  0  0  0  0  0  0  0  0
   21.4211   -3.5222  -15.4703 O   0  0  0  0  0  0  0  0  0  0  0  0
   22.1573   -5.6719  -14.9022 C   0  0  2  0  0  0  0  0  0  0  0  0
   21.8724   -7.0754  -15.1070 N   0  0  0  0  0  0  0  0  0  0  0  0
   22.2118   -5.3639  -13.4575 C   0  0  0  0  0  0  0  0  0  0  0  0
   21.9667   -6.2183  -12.5806 O   0  0  0  0  0  0  0  0  0  0  0  0
   22.5457   -4.0839  -13.0364 O   0  0  0  0  0  0  0  0  0  0  0  0
  1  2  1  0
  3  2  1  0
  4  3  2  0
  5  3  1  0
  6  5  1  0
  7  8  1  0
  6  7  1  1
  9  6  1  0
  9 15  1  0
 10  9  2  0
 12 11  1  1
 12 14  1  0
 12 13  1  0
 14 15  1  1
 14 16  1  0
 16 18  1  0
 17 16  2  0
M  END
$$$$
