GCT.pdb
     RDKit          3D

 18 17  0  0  1  0  0  0  0  0999 V2000
   23.2346  -11.6266  -19.4859 N   0  0  0  0  0  0  0  0  0  0  0  0
   22.4276  -10.4321  -19.6395 C   0  0  0  0  0  0  0  0  0  0  0  0
   22.0759   -9.9036  -18.3068 C   0  0  0  0  0  0  0  0  0  0  0  0
   20.9136   -9.4891  -18.0817 O   0  0  0  0  0  0  0  0  0  0  0  0
   23.0314   -9.8451  -17.2393 N   0  0  0  0  0  0  0  0  0  0  0  0
   22.6677   -9.3094  -15.9350 C   0  0  1  0  0  0  0  0  0  0  0  0
   23.5906   -9.9555  -14.9296 C   0  0  0  0  0  0  0  0  0  0  0  0
   22.7352  -11.3851  -14.2184 S   0  0  0  0  0  0  0  0  0  0  0  0
   22.8977   -7.8483  -15.9372 C   0  0  0  0  0  0  0  0  0  0  0  0
   24.0334   -7.4069  -16.3094 O   0  0  0  0  0  0  0  0  0  0  0  0
   21.1220   -5.4842  -17.9516 C   0  0  0  0  0  0  0  0  0  0  0  0
   21.0023   -4.9713  -16.5393 C   0  0  1  0  0  0  0  0  0  0  0  0
   19.7659   -5.3867  -16.0516 O   0  0  0  0  0  0  0  0  0  0  0  0
   22.0660   -5.5231  -15.6317 C   0  0  2  0  0  0  0  0  0  0  0  0
   21.8745   -6.9535  -15.5311 N   0  0  0  0  0  0  0  0  0  0  0  0
   22.0727   -4.9095  -14.2868 C   0  0  0  0  0  0  0  0  0  0  0  0
   22.3095   -3.6972  -14.1047 O   0  0  0  0  0  0  0  0  0  0  0  0
   21.8086   -5.6908  -13.1701 O   0  0  0  0  0  0  0  0  0  0  0  0
  1  2  1  0
  3  2  1  0
  4  3  2  0
  5  3  1  0
  6  5  1  0
  7  8  1  0
  6  7  1  1
  9  6  1  0
  9 15  1  0
 10  9  2  0
 12 11  1  6
 12 14  1  0
 12 13  1  0
 14 15  1  1
 14 16  1  0
 16 18  1  0
 17 16  2  0
M  END
$$$$
