PIY.pdb
     RDKit          3D

 28 29  0  0  1  0  0  0  0  0999 V2000
   28.8999  -21.1453  -16.4638 N   0  0  0  0  0  0  0  0  0  0  0  0
   27.9304  -20.7605  -17.4700 C   0  0  0  0  0  0  0  0  0  0  0  0
   27.4394  -19.3851  -17.1111 C   0  0  0  0  0  0  0  0  0  0  0  0
   28.3150  -18.9407  -15.9623 C   0  0  0  0  0  0  0  0  0  0  0  0
   28.7048  -20.2637  -15.3422 C   0  0  1  0  0  0  0  0  0  0  0  0
   27.6406  -20.8163  -14.4843 C   0  0  0  0  0  0  0  0  0  0  0  0
   26.9034  -21.7625  -14.8731 O   0  0  0  0  0  0  0  0  0  0  0  0
   28.6091  -21.2283   -9.2183 C   0  0  0  0  0  0  0  0  0  0  0  0
   28.0382  -21.5172  -10.5684 C   0  0  0  0  0  0  0  0  0  0  0  0
   26.7835  -20.7926  -10.8970 C   0  0  2  0  0  0  0  0  0  0  0  0
   25.6496  -21.3564  -10.0468 C   0  0  0  0  0  0  0  0  0  0  0  0
   26.3390  -20.8682  -12.3221 C   0  0  2  0  0  0  0  0  0  0  0  0
   27.3877  -20.3111  -13.1697 N   0  0  0  0  0  0  0  0  0  0  0  0
   25.0076  -20.2865  -12.5951 C   0  0  0  0  0  0  0  0  0  0  0  0
   24.7832  -19.0369  -12.4515 O   0  0  0  0  0  0  0  0  0  0  0  0
   17.2960  -18.5972  -16.3738 O   0  0  0  0  0  0  0  0  0  0  0  0
   18.5158  -19.1261  -15.9977 C   0  0  0  0  0  0  0  0  0  0  0  0
   18.5377  -20.3795  -15.4281 C   0  0  0  0  0  0  0  0  0  0  0  0
   19.7625  -20.9163  -15.0479 C   0  0  0  0  0  0  0  0  0  0  0  0
   20.9458  -20.2496  -15.2172 C   0  0  0  0  0  0  0  0  0  0  0  0
   22.2476  -20.8193  -14.8186 C   0  0  0  0  0  0  0  0  0  0  0  0
   22.6572  -20.4115  -13.3996 C   0  0  2  0  0  0  0  0  0  0  0  0
   23.9006  -21.0611  -13.0324 N   0  0  0  0  0  0  0  0  0  0  0  0
   21.6023  -20.8901  -12.4829 C   0  0  0  0  0  0  0  0  0  0  0  0
   20.5294  -20.0884  -12.1004 O   0  0  0  0  0  0  0  0  0  0  0  0
   20.8962  -18.9817  -15.7965 C   0  0  0  0  0  0  0  0  0  0  0  0
   19.6874  -18.4318  -16.1807 C   0  0  0  0  0  0  0  0  0  0  0  0
   21.6164  -22.0532  -11.9951 O   0  0  0  0  0  0  0  0  0  0  0  0
  1  5  1  0
  2  1  1  0
  2  3  1  0
  3  4  1  0
  5  4  1  0
  5  6  1  1
  6  7  2  0
  9  8  1  0
 10  9  1  0
 10 12  1  0
 10 11  1  1
 12 13  1  6
 13  6  1  0
 14 23  1  0
 14 12  1  0
 15 14  2  0
 16 17  1  0
 17 27  2  0
 17 18  1  0
 18 19  2  0
 19 20  1  0
 20 21  1  0
 22 21  1  6
 22 23  1  0
 22 24  1  0
 24 25  1  0
 26 20  2  0
 27 26  1  0
 28 24  2  0
M  END
$$$$
