PIY.pdb
     RDKit          3D

 28 29  0  0  1  0  0  0  0  0999 V2000
   19.2057  -19.2334  -14.0365 N   0  0  0  0  0  0  0  0  0  0  0  0
   18.8169  -18.6249  -12.7798 C   0  0  0  0  0  0  0  0  0  0  0  0
   19.7882  -17.5098  -12.5067 C   0  0  0  0  0  0  0  0  0  0  0  0
   20.6266  -17.4009  -13.7594 C   0  0  0  0  0  0  0  0  0  0  0  0
   20.5567  -18.8112  -14.3005 C   0  0  1  0  0  0  0  0  0  0  0  0
   21.4831  -19.7248  -13.6067 C   0  0  0  0  0  0  0  0  0  0  0  0
   21.1055  -20.4377  -12.6377 O   0  0  0  0  0  0  0  0  0  0  0  0
   26.3861  -23.0526  -15.0743 C   0  0  0  0  0  0  0  0  0  0  0  0
   25.2666  -22.7448  -14.1339 C   0  0  0  0  0  0  0  0  0  0  0  0
   24.3897  -21.6152  -14.5369 C   0  0  2  0  0  0  0  0  0  0  0  0
   25.2196  -20.5965  -15.3114 C   0  0  0  0  0  0  0  0  0  0  0  0
   23.7218  -20.8763  -13.4224 C   0  0  2  0  0  0  0  0  0  0  0  0
   22.8547  -19.8514  -13.9938 N   0  0  0  0  0  0  0  0  0  0  0  0
   24.6338  -20.3473  -12.3861 C   0  0  0  0  0  0  0  0  0  0  0  0
   24.7681  -19.0914  -12.1933 O   0  0  0  0  0  0  0  0  0  0  0  0
   29.3493  -18.9471   -5.1955 O   0  0  0  0  0  0  0  0  0  0  0  0
   28.4890  -19.4308   -6.1624 C   0  0  0  0  0  0  0  0  0  0  0  0
   27.4786  -18.6091   -6.6093 C   0  0  0  0  0  0  0  0  0  0  0  0
   26.6101  -19.0910   -7.5821 C   0  0  0  0  0  0  0  0  0  0  0  0
   26.7194  -20.3478   -8.1128 C   0  0  0  0  0  0  0  0  0  0  0  0
   25.8015  -20.8600   -9.1488 C   0  0  0  0  0  0  0  0  0  0  0  0
   26.3137  -20.5974  -10.5687 C   0  0  2  0  0  0  0  0  0  0  0  0
   25.4116  -21.1830  -11.5415 N   0  0  0  0  0  0  0  0  0  0  0  0
   27.6229  -21.2700  -10.6952 C   0  0  0  0  0  0  0  0  0  0  0  0
   28.8264  -20.5993  -10.4908 O   0  0  0  0  0  0  0  0  0  0  0  0
   27.7513  -21.1604   -7.6430 C   0  0  0  0  0  0  0  0  0  0  0  0
   28.6245  -20.6982   -6.6759 C   0  0  0  0  0  0  0  0  0  0  0  0
   27.7220  -22.4908  -10.9966 O   0  0  0  0  0  0  0  0  0  0  0  0
  1  5  1  0
  2  1  1  0
  2  3  1  0
  3  4  1  0
  5  4  1  0
  5  6  1  1
  6  7  2  0
  9  8  1  0
 10  9  1  0
 10 12  1  0
 10 11  1  1
 12 13  1  6
 13  6  1  0
 14 23  1  0
 14 12  1  0
 15 14  2  0
 16 17  1  0
 17 27  2  0
 17 18  1  0
 18 19  2  0
 19 20  1  0
 20 21  1  0
 22 21  1  1
 22 23  1  0
 22 24  1  0
 24 25  1  0
 26 20  2  0
 27 26  1  0
 28 24  2  0
M  END
$$$$
