PIY.pdb
     RDKit          3D

 28 29  0  0  1  0  0  0  0  0999 V2000
   27.9556  -20.0861  -19.2129 N   0  0  0  0  0  0  0  0  0  0  0  0
   29.2718  -20.2998  -18.6448 C   0  0  0  0  0  0  0  0  0  0  0  0
   29.2423  -21.6295  -17.9430 C   0  0  0  0  0  0  0  0  0  0  0  0
   27.9056  -22.2360  -18.3024 C   0  0  0  0  0  0  0  0  0  0  0  0
   27.0650  -21.0039  -18.5513 C   0  0  1  0  0  0  0  0  0  0  0  0
   26.5915  -20.3856  -17.2992 C   0  0  0  0  0  0  0  0  0  0  0  0
   27.3013  -19.5634  -16.6589 O   0  0  0  0  0  0  0  0  0  0  0  0
   21.8796  -18.1605  -17.2100 C   0  0  0  0  0  0  0  0  0  0  0  0
   23.2858  -18.5006  -16.8371 C   0  0  0  0  0  0  0  0  0  0  0  0
   23.4314  -19.5359  -15.7814 C   0  0  2  0  0  0  0  0  0  0  0  0
   22.9195  -18.9708  -14.4604 C   0  0  0  0  0  0  0  0  0  0  0  0
   24.8213  -20.0279  -15.5356 C   0  0  2  0  0  0  0  0  0  0  0  0
   25.3063  -20.6837  -16.7453 N   0  0  0  0  0  0  0  0  0  0  0  0
   24.9870  -20.8584  -14.3239 C   0  0  0  0  0  0  0  0  0  0  0  0
   24.4957  -22.0353  -14.2492 O   0  0  0  0  0  0  0  0  0  0  0  0
   26.4649  -19.0974   -6.0842 O   0  0  0  0  0  0  0  0  0  0  0  0
   26.6483  -19.5462   -7.3780 C   0  0  0  0  0  0  0  0  0  0  0  0
   26.7856  -20.9001   -7.5876 C   0  0  0  0  0  0  0  0  0  0  0  0
   26.9704  -21.3569   -8.8876 C   0  0  0  0  0  0  0  0  0  0  0  0
   27.0211  -20.5156   -9.9660 C   0  0  0  0  0  0  0  0  0  0  0  0
   27.2126  -20.9986  -11.3474 C   0  0  0  0  0  0  0  0  0  0  0  0
   25.8870  -21.3104  -12.0495 C   0  0  2  0  0  0  0  0  0  0  0  0
   25.6954  -20.4165  -13.1751 N   0  0  0  0  0  0  0  0  0  0  0  0
   24.8044  -21.0597  -11.0761 C   0  0  0  0  0  0  0  0  0  0  0  0
   24.4441  -21.9936  -10.1075 O   0  0  0  0  0  0  0  0  0  0  0  0
   26.8795  -19.1488   -9.7268 C   0  0  0  0  0  0  0  0  0  0  0  0
   26.6950  -18.6762   -8.4407 C   0  0  0  0  0  0  0  0  0  0  0  0
   24.1456  -19.9842  -11.0698 O   0  0  0  0  0  0  0  0  0  0  0  0
  1  5  1  0
  2  1  1  0
  2  3  1  0
  3  4  1  0
  5  4  1  0
  5  6  1  1
  6  7  2  0
  9  8  1  0
 10  9  1  0
 10 12  1  0
 10 11  1  1
 12 13  1  6
 13  6  1  0
 14 23  1  0
 14 12  1  0
 15 14  2  0
 16 17  1  0
 17 27  2  0
 17 18  1  0
 18 19  2  0
 19 20  1  0
 20 21  1  0
 22 21  1  1
 22 23  1  0
 22 24  1  0
 24 25  1  0
 26 20  2  0
 27 26  1  0
 28 24  2  0
M  END
$$$$
