PIY.pdb
     RDKit          3D

 28 29  0  0  1  0  0  0  0  0999 V2000
   27.3446  -17.6226  -16.5301 N   0  0  0  0  0  0  0  0  0  0  0  0
   25.9815  -17.2608  -16.8639 C   0  0  0  0  0  0  0  0  0  0  0  0
   25.4163  -16.5207  -15.6831 C   0  0  0  0  0  0  0  0  0  0  0  0
   26.5849  -16.3214  -14.7458 C   0  0  0  0  0  0  0  0  0  0  0  0
   27.4686  -17.4960  -15.1011 C   0  0  1  0  0  0  0  0  0  0  0  0
   27.0143  -18.7501  -14.4728 C   0  0  0  0  0  0  0  0  0  0  0  0
   26.4498  -19.6574  -15.1421 O   0  0  0  0  0  0  0  0  0  0  0  0
   30.0178  -20.9065  -10.5943 C   0  0  0  0  0  0  0  0  0  0  0  0
   29.0563  -20.7950  -11.7323 C   0  0  0  0  0  0  0  0  0  0  0  0
   27.6334  -20.6096  -11.3471 C   0  0  2  0  0  0  0  0  0  0  0  0
   27.1089  -21.9114  -10.7500 C   0  0  0  0  0  0  0  0  0  0  0  0
   26.7011  -20.2302  -12.4521 C   0  0  2  0  0  0  0  0  0  0  0  0
   27.1885  -19.0044  -13.0756 N   0  0  0  0  0  0  0  0  0  0  0  0
   25.2748  -20.1549  -12.0707 C   0  0  0  0  0  0  0  0  0  0  0  0
   24.8533  -19.2889  -11.2312 O   0  0  0  0  0  0  0  0  0  0  0  0
   16.9626  -18.3439  -12.4452 O   0  0  0  0  0  0  0  0  0  0  0  0
   18.3085  -18.6143  -12.6018 C   0  0  0  0  0  0  0  0  0  0  0  0
   19.1430  -18.4282  -11.5226 C   0  0  0  0  0  0  0  0  0  0  0  0
   20.4982  -18.6988  -11.6749 C   0  0  0  0  0  0  0  0  0  0  0  0
   21.0351  -19.1423  -12.8532 C   0  0  0  0  0  0  0  0  0  0  0  0
   22.4725  -19.4345  -13.0160 C   0  0  0  0  0  0  0  0  0  0  0  0
   22.8798  -20.7597  -12.3636 C   0  0  2  0  0  0  0  0  0  0  0  0
   24.2854  -21.0234  -12.6034 N   0  0  0  0  0  0  0  0  0  0  0  0
   22.0956  -21.8293  -13.0142 C   0  0  0  0  0  0  0  0  0  0  0  0
   20.8506  -22.2334  -12.5381 O   0  0  0  0  0  0  0  0  0  0  0  0
   20.1684  -19.3226  -13.9311 C   0  0  0  0  0  0  0  0  0  0  0  0
   18.8178  -19.0585  -13.7983 C   0  0  0  0  0  0  0  0  0  0  0  0
   22.5124  -22.4366  -14.0382 O   0  0  0  0  0  0  0  0  0  0  0  0
  1  5  1  0
  2  1  1  0
  2  3  1  0
  3  4  1  0
  5  4  1  0
  5  6  1  1
  6  7  2  0
  9  8  1  0
 10  9  1  0
 10 12  1  0
 10 11  1  6
 12 13  1  1
 13  6  1  0
 14 23  1  0
 14 12  1  0
 15 14  2  0
 16 17  1  0
 17 27  2  0
 17 18  1  0
 18 19  2  0
 19 20  1  0
 20 21  1  0
 22 21  1  6
 22 23  1  0
 22 24  1  0
 24 25  1  0
 26 20  2  0
 27 26  1  0
 28 24  2  0
M  END
$$$$
