PIY.pdb
     RDKit          3D

 28 29  0  0  1  0  0  0  0  0999 V2000
   27.7391  -19.4770  -17.7652 N   0  0  0  0  0  0  0  0  0  0  0  0
   26.6555  -19.2502  -18.7005 C   0  0  0  0  0  0  0  0  0  0  0  0
   25.8342  -18.1116  -18.1615 C   0  0  0  0  0  0  0  0  0  0  0  0
   26.6137  -17.5885  -16.9773 C   0  0  0  0  0  0  0  0  0  0  0  0
   27.3702  -18.8217  -16.5372 C   0  0  1  0  0  0  0  0  0  0  0  0
   26.5332  -19.7396  -15.7429 C   0  0  0  0  0  0  0  0  0  0  0  0
   25.9719  -20.7407  -16.2651 O   0  0  0  0  0  0  0  0  0  0  0  0
   28.3198  -21.2048  -10.9791 C   0  0  0  0  0  0  0  0  0  0  0  0
   27.6158  -21.1336  -12.2949 C   0  0  0  0  0  0  0  0  0  0  0  0
   26.1994  -20.6890  -12.2353 C   0  0  2  0  0  0  0  0  0  0  0  0
   25.3853  -21.7313  -11.4755 C   0  0  0  0  0  0  0  0  0  0  0  0
   25.5230  -20.4828  -13.5522 C   0  0  2  0  0  0  0  0  0  0  0  0
   26.3134  -19.5450  -14.3425 N   0  0  0  0  0  0  0  0  0  0  0  0
   24.0952  -20.1081  -13.4716 C   0  0  0  0  0  0  0  0  0  0  0  0
   23.7313  -18.9441  -13.0910 O   0  0  0  0  0  0  0  0  0  0  0  0
   16.5823  -17.9244  -16.9117 O   0  0  0  0  0  0  0  0  0  0  0  0
   17.8452  -18.3200  -16.5148 C   0  0  0  0  0  0  0  0  0  0  0  0
   18.3202  -19.5338  -16.9585 C   0  0  0  0  0  0  0  0  0  0  0  0
   19.5905  -19.9365  -16.5621 C   0  0  0  0  0  0  0  0  0  0  0  0
   20.3866  -19.1755  -15.7496 C   0  0  0  0  0  0  0  0  0  0  0  0
   21.7372  -19.5989  -15.3311 C   0  0  0  0  0  0  0  0  0  0  0  0
   21.7137  -20.4860  -14.0822 C   0  0  2  0  0  0  0  0  0  0  0  0
   23.0421  -20.9992  -13.8088 N   0  0  0  0  0  0  0  0  0  0  0  0
   20.8306  -21.6336  -14.3746 C   0  0  0  0  0  0  0  0  0  0  0  0
   21.2507  -22.7197  -15.1387 O   0  0  0  0  0  0  0  0  0  0  0  0
   19.8821  -17.9503  -15.3139 C   0  0  0  0  0  0  0  0  0  0  0  0
   18.6211  -17.5334  -15.6978 C   0  0  0  0  0  0  0  0  0  0  0  0
   19.6451  -21.6918  -13.9478 O   0  0  0  0  0  0  0  0  0  0  0  0
  1  5  1  0
  2  1  1  0
  2  3  1  0
  3  4  1  0
  5  4  1  0
  5  6  1  1
  6  7  2  0
  9  8  1  0
 10  9  1  0
 10 12  1  0
 10 11  1  1
 12 13  1  1
 13  6  1  0
 14 23  1  0
 14 12  1  0
 15 14  2  0
 16 17  1  0
 17 27  2  0
 17 18  1  0
 18 19  2  0
 19 20  1  0
 20 21  1  0
 22 21  1  6
 22 23  1  0
 22 24  1  0
 24 25  1  0
 26 20  2  0
 27 26  1  0
 28 24  2  0
M  END
$$$$
