PIY.pdb
     RDKit          3D

 28 29  0  0  1  0  0  0  0  0999 V2000
   28.3849  -20.5058  -15.5651 N   0  0  0  0  0  0  0  0  0  0  0  0
   27.6664  -19.9879  -16.7123 C   0  0  0  0  0  0  0  0  0  0  0  0
   27.1400  -18.6316  -16.3317 C   0  0  0  0  0  0  0  0  0  0  0  0
   27.7545  -18.3337  -14.9835 C   0  0  0  0  0  0  0  0  0  0  0  0
   27.9703  -19.7240  -14.4292 C   0  0  1  0  0  0  0  0  0  0  0  0
   26.7327  -20.3068  -13.8788 C   0  0  0  0  0  0  0  0  0  0  0  0
   26.1052  -21.2173  -14.4845 O   0  0  0  0  0  0  0  0  0  0  0  0
   26.6977  -20.5412   -8.5640 C   0  0  0  0  0  0  0  0  0  0  0  0
   26.3535  -21.0364   -9.9309 C   0  0  0  0  0  0  0  0  0  0  0  0
   25.1422  -20.4299  -10.5410 C   0  0  2  0  0  0  0  0  0  0  0  0
   23.9042  -21.0987   -9.9523 C   0  0  0  0  0  0  0  0  0  0  0  0
   25.0330  -20.5422  -12.0276 C   0  0  2  0  0  0  0  0  0  0  0  0
   26.1792  -19.8725  -12.6329 N   0  0  0  0  0  0  0  0  0  0  0  0
   23.7415  -20.1012  -12.5961 C   0  0  0  0  0  0  0  0  0  0  0  0
   23.4171  -18.8662  -12.6365 O   0  0  0  0  0  0  0  0  0  0  0  0
   23.9843  -17.4744  -18.7059 O   0  0  0  0  0  0  0  0  0  0  0  0
   23.3250  -18.3112  -17.8261 C   0  0  0  0  0  0  0  0  0  0  0  0
   23.9415  -19.4843  -17.4526 C   0  0  0  0  0  0  0  0  0  0  0  0
   23.2824  -20.3299  -16.5675 C   0  0  0  0  0  0  0  0  0  0  0  0
   22.0469  -20.0431  -16.0532 C   0  0  0  0  0  0  0  0  0  0  0  0
   21.3472  -20.9370  -15.1099 C   0  0  0  0  0  0  0  0  0  0  0  0
   21.5253  -20.5058  -13.6505 C   0  0  2  0  0  0  0  0  0  0  0  0
   22.7850  -21.0034  -13.1326 N   0  0  0  0  0  0  0  0  0  0  0  0
   20.4332  -21.1259  -12.8726 C   0  0  0  0  0  0  0  0  0  0  0  0
   19.1415  -20.6050  -12.8581 O   0  0  0  0  0  0  0  0  0  0  0  0
   21.4440  -18.8486  -16.4474 C   0  0  0  0  0  0  0  0  0  0  0  0
   22.0843  -17.9954  -17.3268 C   0  0  0  0  0  0  0  0  0  0  0  0
   20.6120  -22.1628  -12.1769 O   0  0  0  0  0  0  0  0  0  0  0  0
  1  5  1  0
  2  1  1  0
  2  3  1  0
  3  4  1  0
  5  4  1  0
  5  6  1  6
  6  7  2  0
  9  8  1  0
 10  9  1  0
 10 12  1  0
 10 11  1  1
 12 13  1  6
 13  6  1  0
 14 23  1  0
 14 12  1  0
 15 14  2  0
 16 17  1  0
 17 27  2  0
 17 18  1  0
 18 19  2  0
 19 20  1  0
 20 21  1  0
 22 21  1  6
 22 23  1  0
 22 24  1  0
 24 25  1  0
 26 20  2  0
 27 26  1  0
 28 24  2  0
M  END
$$$$
