PIY.pdb
     RDKit          3D

 28 29  0  0  1  0  0  0  0  0999 V2000
   28.7426  -20.4195  -15.2996 N   0  0  0  0  0  0  0  0  0  0  0  0
   27.9615  -19.9552  -16.4287 C   0  0  0  0  0  0  0  0  0  0  0  0
   27.3652  -18.6300  -16.0417 C   0  0  0  0  0  0  0  0  0  0  0  0
   27.9989  -18.2846  -14.7140 C   0  0  0  0  0  0  0  0  0  0  0  0
   28.3142  -19.6548  -14.1573 C   0  0  1  0  0  0  0  0  0  0  0  0
   27.1304  -20.3065  -13.5673 C   0  0  0  0  0  0  0  0  0  0  0  0
   26.5018  -21.2125  -14.1787 O   0  0  0  0  0  0  0  0  0  0  0  0
   26.9471  -20.5598   -8.1577 C   0  0  0  0  0  0  0  0  0  0  0  0
   26.6621  -21.0651   -9.5344 C   0  0  0  0  0  0  0  0  0  0  0  0
   25.5007  -20.4365  -10.2151 C   0  0  2  0  0  0  0  0  0  0  0  0
   24.2154  -21.0464   -9.6651 C   0  0  0  0  0  0  0  0  0  0  0  0
   25.4537  -20.5878  -11.7015 C   0  0  2  0  0  0  0  0  0  0  0  0
   26.6330  -19.9478  -12.2746 N   0  0  0  0  0  0  0  0  0  0  0  0
   24.1934  -20.1479  -12.3367 C   0  0  0  0  0  0  0  0  0  0  0  0
   23.9175  -18.9093  -12.4847 O   0  0  0  0  0  0  0  0  0  0  0  0
   22.9214  -26.6760  -15.1796 O   0  0  0  0  0  0  0  0  0  0  0  0
   22.7256  -25.3091  -15.1330 C   0  0  0  0  0  0  0  0  0  0  0  0
   21.4474  -24.8377  -14.9335 C   0  0  0  0  0  0  0  0  0  0  0  0
   21.2449  -23.4631  -14.8858 C   0  0  0  0  0  0  0  0  0  0  0  0
   22.2641  -22.5609  -15.0289 C   0  0  0  0  0  0  0  0  0  0  0  0
   22.0523  -21.1013  -14.9741 C   0  0  0  0  0  0  0  0  0  0  0  0
   22.0562  -20.5609  -13.5405 C   0  0  2  0  0  0  0  0  0  0  0  0
   23.2154  -21.0554  -12.8233 N   0  0  0  0  0  0  0  0  0  0  0  0
   20.8467  -21.0818  -12.8710 C   0  0  0  0  0  0  0  0  0  0  0  0
   19.5619  -20.7217  -13.2705 O   0  0  0  0  0  0  0  0  0  0  0  0
   23.5494  -23.0641  -15.2300 C   0  0  0  0  0  0  0  0  0  0  0  0
   23.7698  -24.4280  -15.2803 C   0  0  0  0  0  0  0  0  0  0  0  0
   20.9122  -21.8822  -11.8984 O   0  0  0  0  0  0  0  0  0  0  0  0
  1  5  1  0
  2  1  1  0
  2  3  1  0
  3  4  1  0
  5  4  1  0
  5  6  1  6
  6  7  2  0
  9  8  1  0
 10  9  1  0
 10 12  1  0
 10 11  1  1
 12 13  1  6
 13  6  1  0
 14 23  1  0
 14 12  1  0
 15 14  2  0
 16 17  1  0
 17 27  2  0
 17 18  1  0
 18 19  2  0
 19 20  1  0
 20 21  1  0
 22 21  1  6
 22 23  1  0
 22 24  1  0
 24 25  1  0
 26 20  2  0
 27 26  1  0
 28 24  2  0
M  END
$$$$
