PIY.pdb
     RDKit          3D

 28 29  0  0  1  0  0  0  0  0999 V2000
   30.1502  -19.7958  -11.8305 N   0  0  0  0  0  0  0  0  0  0  0  0
   30.9306  -20.6894  -10.9981 C   0  0  0  0  0  0  0  0  0  0  0  0
   31.0022  -22.0117  -11.7109 C   0  0  0  0  0  0  0  0  0  0  0  0
   30.3843  -21.7629  -13.0674 C   0  0  0  0  0  0  0  0  0  0  0  0
   29.4374  -20.6220  -12.7701 C   0  0  1  0  0  0  0  0  0  0  0  0
   28.1849  -21.0816  -12.1423 C   0  0  0  0  0  0  0  0  0  0  0  0
   27.5648  -22.0932  -12.5688 O   0  0  0  0  0  0  0  0  0  0  0  0
   27.0837  -19.5840   -6.9858 C   0  0  0  0  0  0  0  0  0  0  0  0
   27.0539  -20.4537   -8.2002 C   0  0  0  0  0  0  0  0  0  0  0  0
   26.0466  -20.0794   -9.2262 C   0  0  2  0  0  0  0  0  0  0  0  0
   24.6656  -20.5121   -8.7445 C   0  0  0  0  0  0  0  0  0  0  0  0
   26.2420  -20.6765  -10.5825 C   0  0  2  0  0  0  0  0  0  0  0  0
   27.6076  -20.4074  -11.0200 N   0  0  0  0  0  0  0  0  0  0  0  0
   25.2286  -20.2930  -11.5881 C   0  0  0  0  0  0  0  0  0  0  0  0
   25.0967  -19.0823  -11.9744 O   0  0  0  0  0  0  0  0  0  0  0  0
   19.3177  -20.2969  -18.0798 O   0  0  0  0  0  0  0  0  0  0  0  0
   20.2874  -20.6568  -17.1637 C   0  0  0  0  0  0  0  0  0  0  0  0
   21.4582  -19.9330  -17.1319 C   0  0  0  0  0  0  0  0  0  0  0  0
   22.4372  -20.2910  -16.2119 C   0  0  0  0  0  0  0  0  0  0  0  0
   22.2836  -21.3327  -15.3376 C   0  0  0  0  0  0  0  0  0  0  0  0
   23.3195  -21.7117  -14.3570 C   0  0  0  0  0  0  0  0  0  0  0  0
   23.3483  -20.7778  -13.1427 C   0  0  2  0  0  0  0  0  0  0  0  0
   24.3448  -21.2275  -12.1901 N   0  0  0  0  0  0  0  0  0  0  0  0
   22.0239  -20.8600  -12.4934 C   0  0  0  0  0  0  0  0  0  0  0  0
   20.9971  -19.9643  -12.7822 O   0  0  0  0  0  0  0  0  0  0  0  0
   21.0885  -22.0499  -15.3901 C   0  0  0  0  0  0  0  0  0  0  0  0
   20.1037  -21.7085  -16.2984 C   0  0  0  0  0  0  0  0  0  0  0  0
   21.7509  -21.7474  -11.6396 O   0  0  0  0  0  0  0  0  0  0  0  0
  1  5  1  0
  2  1  1  0
  2  3  1  0
  3  4  1  0
  5  4  1  0
  5  6  1  1
  6  7  2  0
  9  8  1  0
 10  9  1  0
 10 12  1  0
 10 11  1  1
 12 13  1  6
 13  6  1  0
 14 23  1  0
 14 12  1  0
 15 14  2  0
 16 17  1  0
 17 27  2  0
 17 18  1  0
 18 19  2  0
 19 20  1  0
 20 21  1  0
 22 21  1  6
 22 23  1  0
 22 24  1  0
 24 25  1  0
 26 20  2  0
 27 26  1  0
 28 24  2  0
M  END
$$$$
