LKY.pdb
     RDKit          3D

 30 30  0  0  1  0  0  0  0  0999 V2000
   29.7627  -20.0549  -11.7530 C   0  0  0  0  0  0  0  0  0  0  0  0
   28.6342  -21.0240  -11.8416 C   0  0  1  0  0  0  0  0  0  0  0  0
   28.6035  -21.8612  -10.5834 C   0  0  0  0  0  0  0  0  0  0  0  0
   27.2900  -20.3936  -12.0336 C   0  0  0  0  0  0  0  0  0  0  0  0
   26.1599  -21.3597  -12.1298 C   0  0  2  0  0  0  0  0  0  0  0  0
   26.4038  -22.4786  -12.9867 N   0  0  0  0  0  0  0  0  0  0  0  0
   24.9592  -20.6146  -12.5978 C   0  0  0  0  0  0  0  0  0  0  0  0
   24.5450  -19.6192  -11.9107 O   0  0  0  0  0  0  0  0  0  0  0  0
   24.2629  -20.9691  -13.7732 N   0  0  0  0  0  0  0  0  0  0  0  0
   23.1995  -20.1490  -14.2886 C   0  0  1  0  0  0  0  0  0  0  0  0
   23.2280  -20.0264  -15.7983 C   0  0  0  0  0  0  0  0  0  0  0  0
   22.0927  -19.1357  -16.2356 C   0  0  0  0  0  0  0  0  0  0  0  0
   22.5876  -18.1615  -17.2976 C   0  0  0  0  0  0  0  0  0  0  0  0
   21.4116  -17.2402  -17.6293 C   0  0  0  0  0  0  0  0  0  0  0  0
   21.8501  -16.3349  -18.6711 N   0  0  0  0  0  0  0  0  0  0  0  0
   21.9068  -20.8176  -13.9457 C   0  0  0  0  0  0  0  0  0  0  0  0
   21.7530  -22.0642  -14.0878 O   0  0  0  0  0  0  0  0  0  0  0  0
   14.1376  -22.3320  -10.2773 O   0  0  0  0  0  0  0  0  0  0  0  0
   15.3065  -21.7138  -10.7115 C   0  0  0  0  0  0  0  0  0  0  0  0
   16.5302  -21.9882  -10.1357 C   0  0  0  0  0  0  0  0  0  0  0  0
   17.6779  -21.3665  -10.5787 C   0  0  0  0  0  0  0  0  0  0  0  0
   17.6633  -20.4394  -11.6185 C   0  0  0  0  0  0  0  0  0  0  0  0
   18.9241  -19.7915  -12.0430 C   0  0  0  0  0  0  0  0  0  0  0  0
   19.6072  -20.6921  -13.0646 C   0  0  2  0  0  0  0  0  0  0  0  0
   20.8507  -20.0402  -13.4579 N   0  0  0  0  0  0  0  0  0  0  0  0
   18.7760  -20.9967  -14.2345 C   0  0  0  0  0  0  0  0  0  0  0  0
   18.0284  -22.1418  -14.4238 O   0  0  0  0  0  0  0  0  0  0  0  0
   16.4391  -20.1691  -12.1892 C   0  0  0  0  0  0  0  0  0  0  0  0
   15.2816  -20.7973  -11.7414 C   0  0  0  0  0  0  0  0  0  0  0  0
   18.7220  -20.1403  -15.1822 O   0  0  0  0  0  0  0  0  0  0  0  0
  2  4  1  0
  2  1  1  1
  3  2  1  0
  4  5  1  0
  5  7  1  0
  5  6  1  6
  7  8  2  0
  9  7  1  0
  9 10  1  0
 10 16  1  0
 10 11  1  6
 11 12  1  0
 12 13  1  0
 13 14  1  0
 15 14  1  0
 16 17  2  0
 18 19  1  0
 19 29  2  0
 19 20  1  0
 20 21  2  0
 21 22  1  0
 22 23  1  0
 24 23  1  1
 24 26  1  0
 25 24  1  0
 25 16  1  0
 26 30  2  0
 26 27  1  0
 28 22  2  0
 29 28  1  0
M  END
$$$$
