LKY.pdb
     RDKit          3D

 30 30  0  0  1  0  0  0  0  0999 V2000
   27.6181  -15.2908  -19.6627 C   0  0  0  0  0  0  0  0  0  0  0  0
   28.3217  -16.3358  -18.8669 C   0  0  1  0  0  0  0  0  0  0  0  0
   29.2207  -15.6627  -17.8552 C   0  0  0  0  0  0  0  0  0  0  0  0
   27.4128  -17.2838  -18.1483 C   0  0  0  0  0  0  0  0  0  0  0  0
   28.1037  -18.2207  -17.2185 C   0  0  2  0  0  0  0  0  0  0  0  0
   29.3117  -18.7880  -17.7329 N   0  0  0  0  0  0  0  0  0  0  0  0
   27.1456  -19.3035  -16.8642 C   0  0  0  0  0  0  0  0  0  0  0  0
   25.9716  -18.9836  -16.4721 O   0  0  0  0  0  0  0  0  0  0  0  0
   27.4887  -20.6702  -16.9462 N   0  0  0  0  0  0  0  0  0  0  0  0
   26.5600  -21.6988  -16.5609 C   0  0  1  0  0  0  0  0  0  0  0  0
   26.9680  -23.0742  -17.0477 C   0  0  0  0  0  0  0  0  0  0  0  0
   25.9034  -24.0659  -16.6518 C   0  0  0  0  0  0  0  0  0  0  0  0
   26.3067  -25.4604  -17.1153 C   0  0  0  0  0  0  0  0  0  0  0  0
   25.1384  -26.3892  -16.7777 C   0  0  0  0  0  0  0  0  0  0  0  0
   25.4904  -27.7153  -17.2415 N   0  0  0  0  0  0  0  0  0  0  0  0
   26.5546  -21.7661  -15.0673 C   0  0  0  0  0  0  0  0  0  0  0  0
   27.5414  -22.2275  -14.4261 O   0  0  0  0  0  0  0  0  0  0  0  0
   26.2235  -20.3913   -6.6932 O   0  0  0  0  0  0  0  0  0  0  0  0
   26.2881  -20.4156   -8.0832 C   0  0  0  0  0  0  0  0  0  0  0  0
   27.0888  -21.3149   -8.7573 C   0  0  0  0  0  0  0  0  0  0  0  0
   27.1404  -21.3249  -10.1347 C   0  0  0  0  0  0  0  0  0  0  0  0
   26.3960  -20.4382  -10.9098 C   0  0  0  0  0  0  0  0  0  0  0  0
   26.5019  -20.4842  -12.3849 C   0  0  0  0  0  0  0  0  0  0  0  0
   25.4045  -21.3969  -12.9176 C   0  0  2  0  0  0  0  0  0  0  0  0
   25.4304  -21.3067  -14.3726 N   0  0  0  0  0  0  0  0  0  0  0  0
   24.0703  -21.0876  -12.3916 C   0  0  0  0  0  0  0  0  0  0  0  0
   23.5380  -21.5498  -11.2045 O   0  0  0  0  0  0  0  0  0  0  0  0
   25.5990  -19.5426  -10.2316 C   0  0  0  0  0  0  0  0  0  0  0  0
   25.5476  -19.5336   -8.8415 C   0  0  0  0  0  0  0  0  0  0  0  0
   23.3086  -20.3226  -13.0763 O   0  0  0  0  0  0  0  0  0  0  0  0
  2  4  1  0
  2  1  1  1
  3  2  1  0
  4  5  1  0
  5  7  1  0
  5  6  1  6
  7  8  2  0
  9  7  1  0
  9 10  1  0
 10 16  1  0
 10 11  1  6
 11 12  1  0
 12 13  1  0
 13 14  1  0
 15 14  1  0
 16 17  2  0
 18 19  1  0
 19 29  2  0
 19 20  1  0
 20 21  2  0
 21 22  1  0
 22 23  1  0
 24 23  1  1
 24 26  1  0
 25 24  1  0
 25 16  1  0
 26 30  2  0
 26 27  1  0
 28 22  2  0
 29 28  1  0
M  END
$$$$
