LKY.pdb
     RDKit          3D

 30 30  0  0  1  0  0  0  0  0999 V2000
   22.3538  -19.6138  -23.9409 C   0  0  0  0  0  0  0  0  0  0  0  0
   22.9329  -18.9599  -22.7337 C   0  0  1  0  0  0  0  0  0  0  0  0
   22.3031  -17.5965  -22.5618 C   0  0  0  0  0  0  0  0  0  0  0  0
   22.7572  -19.7350  -21.4650 C   0  0  0  0  0  0  0  0  0  0  0  0
   23.3736  -19.1057  -20.2635 C   0  0  2  0  0  0  0  0  0  0  0  0
   24.7900  -18.9249  -20.3458 N   0  0  0  0  0  0  0  0  0  0  0  0
   23.0376  -19.9477  -19.0826 C   0  0  0  0  0  0  0  0  0  0  0  0
   21.8242  -20.3114  -18.9103 O   0  0  0  0  0  0  0  0  0  0  0  0
   24.0121  -20.3577  -18.1475 N   0  0  0  0  0  0  0  0  0  0  0  0
   23.6689  -21.1912  -17.0265 C   0  0  1  0  0  0  0  0  0  0  0  0
   24.8810  -21.7968  -16.3490 C   0  0  0  0  0  0  0  0  0  0  0  0
   25.4887  -22.8259  -17.2683 C   0  0  0  0  0  0  0  0  0  0  0  0
   25.9510  -24.0283  -16.4545 C   0  0  0  0  0  0  0  0  0  0  0  0
   26.6297  -24.9867  -17.4356 C   0  0  0  0  0  0  0  0  0  0  0  0
   27.0829  -26.1344  -16.6775 N   0  0  0  0  0  0  0  0  0  0  0  0
   23.0060  -20.3237  -16.0050 C   0  0  0  0  0  0  0  0  0  0  0  0
   23.5910  -19.3131  -15.5208 O   0  0  0  0  0  0  0  0  0  0  0  0
   17.2069  -15.1757  -12.4961 O   0  0  0  0  0  0  0  0  0  0  0  0
   18.1365  -15.9510  -13.1828 C   0  0  0  0  0  0  0  0  0  0  0  0
   17.7656  -16.7771  -14.2240 C   0  0  0  0  0  0  0  0  0  0  0  0
   18.7000  -17.5380  -14.8933 C   0  0  0  0  0  0  0  0  0  0  0  0
   20.0520  -17.5135  -14.5578 C   0  0  0  0  0  0  0  0  0  0  0  0
   21.0090  -18.3628  -15.3011 C   0  0  0  0  0  0  0  0  0  0  0  0
   21.0182  -19.7471  -14.6647 C   0  0  2  0  0  0  0  0  0  0  0  0
   21.7114  -20.6439  -15.5817 N   0  0  0  0  0  0  0  0  0  0  0  0
   19.6821  -20.2559  -14.3353 C   0  0  0  0  0  0  0  0  0  0  0  0
   18.8575  -20.9768  -15.1758 O   0  0  0  0  0  0  0  0  0  0  0  0
   20.4165  -16.6874  -13.5176 C   0  0  0  0  0  0  0  0  0  0  0  0
   19.4726  -15.9199  -12.8431 C   0  0  0  0  0  0  0  0  0  0  0  0
   19.2128  -20.0233  -13.1691 O   0  0  0  0  0  0  0  0  0  0  0  0
  2  4  1  0
  2  1  1  6
  3  2  1  0
  4  5  1  0
  5  7  1  0
  5  6  1  6
  7  8  2  0
  9  7  1  0
  9 10  1  0
 10 16  1  0
 10 11  1  1
 11 12  1  0
 12 13  1  0
 13 14  1  0
 15 14  1  0
 16 17  2  0
 18 19  1  0
 19 29  2  0
 19 20  1  0
 20 21  2  0
 21 22  1  0
 22 23  1  0
 24 23  1  6
 24 26  1  0
 25 24  1  0
 25 16  1  0
 26 30  2  0
 26 27  1  0
 28 22  2  0
 29 28  1  0
M  END
$$$$
