LKY.pdb
     RDKit          3D

 30 30  0  0  1  0  0  0  0  0999 V2000
   18.8438  -18.7911  -18.2077 C   0  0  0  0  0  0  0  0  0  0  0  0
   18.8786  -17.8371  -17.0636 C   0  0  1  0  0  0  0  0  0  0  0  0
   19.3121  -18.5765  -15.8184 C   0  0  0  0  0  0  0  0  0  0  0  0
   19.7830  -16.6612  -17.2648 C   0  0  0  0  0  0  0  0  0  0  0  0
   19.7053  -15.6286  -16.1937 C   0  0  2  0  0  0  0  0  0  0  0  0
   18.6103  -15.7906  -15.2881 N   0  0  0  0  0  0  0  0  0  0  0  0
   19.6283  -14.2942  -16.8491 C   0  0  0  0  0  0  0  0  0  0  0  0
   20.5135  -13.9818  -17.7170 O   0  0  0  0  0  0  0  0  0  0  0  0
   18.6123  -13.3627  -16.5453 N   0  0  0  0  0  0  0  0  0  0  0  0
   18.5634  -12.0746  -17.1836 C   0  0  1  0  0  0  0  0  0  0  0  0
   17.1752  -11.7083  -17.6670 C   0  0  0  0  0  0  0  0  0  0  0  0
   16.8321  -12.5679  -18.8573 C   0  0  0  0  0  0  0  0  0  0  0  0
   15.4322  -12.2225  -19.3502 C   0  0  0  0  0  0  0  0  0  0  0  0
   15.1293  -13.1728  -20.5107 C   0  0  0  0  0  0  0  0  0  0  0  0
   13.8610  -12.7697  -21.0819 N   0  0  0  0  0  0  0  0  0  0  0  0
   18.9365  -11.0495  -16.1611 C   0  0  0  0  0  0  0  0  0  0  0  0
   18.4856  -11.1027  -14.9814 O   0  0  0  0  0  0  0  0  0  0  0  0
   22.7514   -3.6548  -13.2808 O   0  0  0  0  0  0  0  0  0  0  0  0
   22.4678   -4.8990  -13.8362 C   0  0  0  0  0  0  0  0  0  0  0  0
   22.2872   -6.0201  -13.0522 C   0  0  0  0  0  0  0  0  0  0  0  0
   22.0068   -7.2447  -13.6193 C   0  0  0  0  0  0  0  0  0  0  0  0
   21.8920   -7.4132  -14.9976 C   0  0  0  0  0  0  0  0  0  0  0  0
   21.6041   -8.7544  -15.5524 C   0  0  0  0  0  0  0  0  0  0  0  0
   20.0939   -8.9552  -15.5656 C   0  0  2  0  0  0  0  0  0  0  0  0
   19.8032  -10.0134  -16.5256 N   0  0  0  0  0  0  0  0  0  0  0  0
   19.3376   -7.7368  -15.8754 C   0  0  0  0  0  0  0  0  0  0  0  0
   18.8768   -6.8120  -14.9597 O   0  0  0  0  0  0  0  0  0  0  0  0
   22.0735   -6.2908  -15.7752 C   0  0  0  0  0  0  0  0  0  0  0  0
   22.3564   -5.0556  -15.2016 C   0  0  0  0  0  0  0  0  0  0  0  0
   19.0648   -7.4844  -17.0986 O   0  0  0  0  0  0  0  0  0  0  0  0
  2  4  1  0
  2  1  1  6
  3  2  1  0
  4  5  1  0
  5  7  1  0
  5  6  1  6
  7  8  2  0
  9  7  1  0
  9 10  1  0
 10 16  1  0
 10 11  1  1
 11 12  1  0
 12 13  1  0
 13 14  1  0
 15 14  1  0
 16 17  2  0
 18 19  1  0
 19 29  2  0
 19 20  1  0
 20 21  2  0
 21 22  1  0
 22 23  1  0
 24 23  1  6
 24 26  1  0
 25 24  1  0
 25 16  1  0
 26 30  2  0
 26 27  1  0
 28 22  2  0
 29 28  1  0
M  END
$$$$
