LKY.pdb
     RDKit          3D

 30 30  0  0  1  0  0  0  0  0999 V2000
   30.5669  -20.6464  -10.7723 C   0  0  0  0  0  0  0  0  0  0  0  0
   29.2957  -21.4231  -10.8090 C   0  0  1  0  0  0  0  0  0  0  0  0
   29.2789  -22.3956   -9.6518 C   0  0  0  0  0  0  0  0  0  0  0  0
   28.0562  -20.5856  -10.7523 C   0  0  0  0  0  0  0  0  0  0  0  0
   26.7906  -21.3338  -10.9936 C   0  0  2  0  0  0  0  0  0  0  0  0
   26.9665  -22.6351  -11.5603 N   0  0  0  0  0  0  0  0  0  0  0  0
   25.9315  -20.5051  -11.8831 C   0  0  0  0  0  0  0  0  0  0  0  0
   25.5595  -19.3505  -11.4796 O   0  0  0  0  0  0  0  0  0  0  0  0
   25.5137  -20.9502  -13.1557 N   0  0  0  0  0  0  0  0  0  0  0  0
   24.6834  -20.1323  -13.9987 C   0  0  1  0  0  0  0  0  0  0  0  0
   24.9922  -20.3004  -15.4723 C   0  0  0  0  0  0  0  0  0  0  0  0
   26.2403  -19.5203  -15.7998 C   0  0  0  0  0  0  0  0  0  0  0  0
   26.6056  -19.7322  -17.2639 C   0  0  0  0  0  0  0  0  0  0  0  0
   27.8048  -18.8263  -17.5519 C   0  0  0  0  0  0  0  0  0  0  0  0
   28.1833  -19.0340  -18.9342 N   0  0  0  0  0  0  0  0  0  0  0  0
   23.2694  -20.5809  -13.8117 C   0  0  0  0  0  0  0  0  0  0  0  0
   22.9678  -21.8080  -13.7765 O   0  0  0  0  0  0  0  0  0  0  0  0
   14.8320  -20.6344  -11.6412 O   0  0  0  0  0  0  0  0  0  0  0  0
   16.1507  -20.2478  -11.8607 C   0  0  0  0  0  0  0  0  0  0  0  0
   17.1975  -20.8029  -11.1533 C   0  0  0  0  0  0  0  0  0  0  0  0
   18.4979  -20.4080  -11.3839 C   0  0  0  0  0  0  0  0  0  0  0  0
   18.8201  -19.4393  -12.3320 C   0  0  0  0  0  0  0  0  0  0  0  0
   20.2325  -19.0433  -12.5271 C   0  0  0  0  0  0  0  0  0  0  0  0
   20.8869  -20.0453  -13.4700 C   0  0  2  0  0  0  0  0  0  0  0  0
   22.2654  -19.6163  -13.6736 N   0  0  0  0  0  0  0  0  0  0  0  0
   20.1857  -20.1989  -14.7496 C   0  0  0  0  0  0  0  0  0  0  0  0
   19.1909  -21.1156  -15.0257 O   0  0  0  0  0  0  0  0  0  0  0  0
   17.7713  -18.8885  -13.0348 C   0  0  0  0  0  0  0  0  0  0  0  0
   16.4595  -19.2879  -12.8013 C   0  0  0  0  0  0  0  0  0  0  0  0
   20.5069  -19.4262  -15.7160 O   0  0  0  0  0  0  0  0  0  0  0  0
  2  4  1  0
  2  1  1  1
  3  2  1  0
  4  5  1  0
  5  7  1  0
  5  6  1  6
  7  8  2  0
  9  7  1  0
  9 10  1  0
 10 16  1  0
 10 11  1  6
 11 12  1  0
 12 13  1  0
 13 14  1  0
 15 14  1  0
 16 17  2  0
 18 19  1  0
 19 29  2  0
 19 20  1  0
 20 21  2  0
 21 22  1  0
 22 23  1  0
 24 23  1  1
 24 26  1  0
 25 24  1  0
 25 16  1  0
 26 30  2  0
 26 27  1  0
 28 22  2  0
 29 28  1  0
M  END
$$$$
