LKY.pdb
     RDKit          3D

 30 30  0  0  1  0  0  0  0  0999 V2000
   25.0079  -34.4895  -16.7419 C   0  0  0  0  0  0  0  0  0  0  0  0
   25.8406  -33.3741  -17.2739 C   0  0  1  0  0  0  0  0  0  0  0  0
   25.7019  -33.3298  -18.7785 C   0  0  0  0  0  0  0  0  0  0  0  0
   25.4987  -32.0265  -16.7187 C   0  0  0  0  0  0  0  0  0  0  0  0
   26.3536  -30.9141  -17.2203 C   0  0  2  0  0  0  0  0  0  0  0  0
   27.6763  -30.8875  -16.6768 N   0  0  0  0  0  0  0  0  0  0  0  0
   25.6574  -29.6322  -16.9235 C   0  0  0  0  0  0  0  0  0  0  0  0
   25.9437  -29.0111  -15.8435 O   0  0  0  0  0  0  0  0  0  0  0  0
   24.6927  -29.0795  -17.7931 N   0  0  0  0  0  0  0  0  0  0  0  0
   24.0624  -27.8188  -17.5065 C   0  0  1  0  0  0  0  0  0  0  0  0
   23.4564  -27.1698  -18.7339 C   0  0  0  0  0  0  0  0  0  0  0  0
   22.8241  -25.8618  -18.3305 C   0  0  0  0  0  0  0  0  0  0  0  0
   23.1059  -24.8085  -19.3951 C   0  0  0  0  0  0  0  0  0  0  0  0
   22.4647  -23.5082  -18.9055 C   0  0  0  0  0  0  0  0  0  0  0  0
   22.8060  -22.4711  -19.8570 N   0  0  0  0  0  0  0  0  0  0  0  0
   22.9288  -28.0836  -16.5681 C   0  0  0  0  0  0  0  0  0  0  0  0
   22.2761  -29.1651  -16.6137 O   0  0  0  0  0  0  0  0  0  0  0  0
   18.1927  -29.0024   -9.5023 O   0  0  0  0  0  0  0  0  0  0  0  0
   19.1773  -28.7366  -10.4492 C   0  0  0  0  0  0  0  0  0  0  0  0
   20.0501  -27.6767  -10.3114 C   0  0  0  0  0  0  0  0  0  0  0  0
   21.0196  -27.4282  -11.2592 C   0  0  0  0  0  0  0  0  0  0  0  0
   21.1677  -28.2245  -12.3929 C   0  0  0  0  0  0  0  0  0  0  0  0
   22.2167  -27.9020  -13.3853 C   0  0  0  0  0  0  0  0  0  0  0  0
   21.5403  -27.3918  -14.6515 C   0  0  2  0  0  0  0  0  0  0  0  0
   22.5900  -27.1091  -15.6230 N   0  0  0  0  0  0  0  0  0  0  0  0
   20.6888  -26.2167  -14.4351 C   0  0  0  0  0  0  0  0  0  0  0  0
   19.3105  -26.2162  -14.3542 O   0  0  0  0  0  0  0  0  0  0  0  0
   20.2935  -29.2808  -12.5254 C   0  0  0  0  0  0  0  0  0  0  0  0
   19.3157  -29.5305  -11.5681 C   0  0  0  0  0  0  0  0  0  0  0  0
   21.2488  -25.0746  -14.3077 O   0  0  0  0  0  0  0  0  0  0  0  0
  2  4  1  0
  2  1  1  1
  3  2  1  0
  4  5  1  0
  5  7  1  0
  5  6  1  1
  7  8  2  0
  9  7  1  0
  9 10  1  0
 10 16  1  0
 10 11  1  6
 11 12  1  0
 12 13  1  0
 13 14  1  0
 15 14  1  0
 16 17  2  0
 18 19  1  0
 19 29  2  0
 19 20  1  0
 20 21  2  0
 21 22  1  0
 22 23  1  0
 24 23  1  1
 24 26  1  0
 25 24  1  0
 25 16  1  0
 26 30  2  0
 26 27  1  0
 28 22  2  0
 29 28  1  0
M  END
$$$$
