LKY.pdb
     RDKit          3D

 30 30  0  0  1  0  0  0  0  0999 V2000
   28.3436  -18.7210   -6.3452 C   0  0  0  0  0  0  0  0  0  0  0  0
   27.4284  -19.7928   -6.8290 C   0  0  1  0  0  0  0  0  0  0  0  0
   26.5942  -20.2888   -5.6700 C   0  0  0  0  0  0  0  0  0  0  0  0
   26.5128  -19.3724   -7.9363 C   0  0  0  0  0  0  0  0  0  0  0  0
   25.9460  -20.4966   -8.7329 C   0  0  2  0  0  0  0  0  0  0  0  0
   26.6268  -21.7440   -8.5715 N   0  0  0  0  0  0  0  0  0  0  0  0
   25.9581  -20.0939  -10.1660 C   0  0  0  0  0  0  0  0  0  0  0  0
   25.5509  -18.9236  -10.4807 O   0  0  0  0  0  0  0  0  0  0  0  0
   26.4033  -20.9591  -11.1884 N   0  0  0  0  0  0  0  0  0  0  0  0
   26.3446  -20.5734  -12.5728 C   0  0  1  0  0  0  0  0  0  0  0  0
   27.5338  -21.0645  -13.3728 C   0  0  0  0  0  0  0  0  0  0  0  0
   27.3455  -20.6702  -14.8159 C   0  0  0  0  0  0  0  0  0  0  0  0
   28.5716  -21.0814  -15.6218 C   0  0  0  0  0  0  0  0  0  0  0  0
   28.6310  -22.6099  -15.5800 C   0  0  0  0  0  0  0  0  0  0  0  0
   29.7523  -23.0231  -16.3981 N   0  0  0  0  0  0  0  0  0  0  0  0
   25.1382  -21.2225  -13.1718 C   0  0  0  0  0  0  0  0  0  0  0  0
   24.9052  -22.4542  -13.0095 O   0  0  0  0  0  0  0  0  0  0  0  0
   16.8069  -20.9949  -11.8061 O   0  0  0  0  0  0  0  0  0  0  0  0
   18.1833  -20.8349  -11.9354 C   0  0  0  0  0  0  0  0  0  0  0  0
   18.7487  -19.6075  -12.2150 C   0  0  0  0  0  0  0  0  0  0  0  0
   20.1143  -19.4674  -12.3395 C   0  0  0  0  0  0  0  0  0  0  0  0
   20.9854  -20.5446  -12.1914 C   0  0  0  0  0  0  0  0  0  0  0  0
   22.4421  -20.3389  -12.3506 C   0  0  0  0  0  0  0  0  0  0  0  0
   22.8185  -20.6608  -13.7914 C   0  0  2  0  0  0  0  0  0  0  0  0
   24.2540  -20.4434  -13.9259 N   0  0  0  0  0  0  0  0  0  0  0  0
   22.0699  -19.8847  -14.7862 C   0  0  0  0  0  0  0  0  0  0  0  0
   20.9312  -20.2972  -15.4490 O   0  0  0  0  0  0  0  0  0  0  0  0
   20.4155  -21.7673  -11.9127 C   0  0  0  0  0  0  0  0  0  0  0  0
   19.0373  -21.9074  -11.7872 C   0  0  0  0  0  0  0  0  0  0  0  0
   22.4897  -18.7153  -15.0871 O   0  0  0  0  0  0  0  0  0  0  0  0
  2  4  1  0
  2  1  1  1
  3  2  1  0
  4  5  1  0
  5  7  1  0
  5  6  1  6
  7  8  2  0
  9  7  1  0
  9 10  1  0
 10 16  1  0
 10 11  1  6
 11 12  1  0
 12 13  1  0
 13 14  1  0
 15 14  1  0
 16 17  2  0
 18 19  1  0
 19 29  2  0
 19 20  1  0
 20 21  2  0
 21 22  1  0
 22 23  1  0
 24 23  1  1
 24 26  1  0
 25 24  1  0
 25 16  1  0
 26 30  2  0
 26 27  1  0
 28 22  2  0
 29 28  1  0
M  END
$$$$
