LKY.pdb
     RDKit          3D

 30 30  0  0  1  0  0  0  0  0999 V2000
   28.2011  -19.8557   -7.6158 C   0  0  0  0  0  0  0  0  0  0  0  0
   28.4868  -20.3656   -8.9865 C   0  0  1  0  0  0  0  0  0  0  0  0
   29.1145  -21.7367   -8.8813 C   0  0  0  0  0  0  0  0  0  0  0  0
   27.2871  -20.4521   -9.8777 C   0  0  0  0  0  0  0  0  0  0  0  0
   27.5805  -20.8871  -11.2721 C   0  0  2  0  0  0  0  0  0  0  0  0
   28.7659  -20.3197  -11.8364 N   0  0  0  0  0  0  0  0  0  0  0  0
   26.4029  -20.5444  -12.1159 C   0  0  0  0  0  0  0  0  0  0  0  0
   25.6109  -19.6210  -11.7228 O   0  0  0  0  0  0  0  0  0  0  0  0
   26.1310  -21.2036  -13.3339 N   0  0  0  0  0  0  0  0  0  0  0  0
   25.1319  -20.7112  -14.2440 C   0  0  1  0  0  0  0  0  0  0  0  0
   25.4347  -21.0463  -15.6901 C   0  0  0  0  0  0  0  0  0  0  0  0
   26.6294  -20.2416  -16.1359 C   0  0  0  0  0  0  0  0  0  0  0  0
   26.9601  -20.5784  -17.5848 C   0  0  0  0  0  0  0  0  0  0  0  0
   28.1772  -19.7321  -17.9645 C   0  0  0  0  0  0  0  0  0  0  0  0
   28.5827  -20.1288  -19.2970 N   0  0  0  0  0  0  0  0  0  0  0  0
   23.8442  -21.3960  -13.9147 C   0  0  0  0  0  0  0  0  0  0  0  0
   23.8145  -22.6136  -13.5763 O   0  0  0  0  0  0  0  0  0  0  0  0
   15.2821  -22.8197  -12.7678 O   0  0  0  0  0  0  0  0  0  0  0  0
   16.5215  -22.2060  -12.9222 C   0  0  0  0  0  0  0  0  0  0  0  0
   17.4323  -22.1383  -11.8878 C   0  0  0  0  0  0  0  0  0  0  0  0
   18.6557  -21.5265  -12.0586 C   0  0  0  0  0  0  0  0  0  0  0  0
   19.0327  -20.9511  -13.2702 C   0  0  0  0  0  0  0  0  0  0  0  0
   20.3530  -20.2943  -13.3923 C   0  0  0  0  0  0  0  0  0  0  0  0
   21.3831  -21.3519  -13.7687 C   0  0  2  0  0  0  0  0  0  0  0  0
   22.6520  -20.6670  -13.9849 N   0  0  0  0  0  0  0  0  0  0  0  0
   21.0080  -22.1533  -14.9390 C   0  0  0  0  0  0  0  0  0  0  0  0
   20.3266  -23.3539  -14.9167 O   0  0  0  0  0  0  0  0  0  0  0  0
   18.1195  -21.0214  -14.2991 C   0  0  0  0  0  0  0  0  0  0  0  0
   16.8854  -21.6391  -14.1254 C   0  0  0  0  0  0  0  0  0  0  0  0
   21.3308  -21.7243  -16.0992 O   0  0  0  0  0  0  0  0  0  0  0  0
  2  4  1  0
  2  1  1  1
  3  2  1  0
  4  5  1  0
  5  7  1  0
  5  6  1  6
  7  8  2  0
  9  7  1  0
  9 10  1  0
 10 16  1  0
 10 11  1  6
 11 12  1  0
 12 13  1  0
 13 14  1  0
 15 14  1  0
 16 17  2  0
 18 19  1  0
 19 29  2  0
 19 20  1  0
 20 21  2  0
 21 22  1  0
 22 23  1  0
 24 23  1  6
 24 26  1  0
 25 24  1  0
 25 16  1  0
 26 30  2  0
 26 27  1  0
 28 22  2  0
 29 28  1  0
M  END
$$$$
