LKY.pdb
     RDKit          3D

 30 30  0  0  1  0  0  0  0  0999 V2000
   26.2599  -14.0244  -15.9007 C   0  0  0  0  0  0  0  0  0  0  0  0
   26.3963  -15.2134  -16.7885 C   0  0  1  0  0  0  0  0  0  0  0  0
   27.7751  -15.2102  -17.4082 C   0  0  0  0  0  0  0  0  0  0  0  0
   26.1794  -16.5265  -16.1030 C   0  0  0  0  0  0  0  0  0  0  0  0
   26.4840  -17.7208  -16.9399 C   0  0  2  0  0  0  0  0  0  0  0  0
   25.5875  -17.9251  -18.0354 N   0  0  0  0  0  0  0  0  0  0  0  0
   26.4800  -18.9153  -16.0516 C   0  0  0  0  0  0  0  0  0  0  0  0
   25.3588  -19.4294  -15.7151 O   0  0  0  0  0  0  0  0  0  0  0  0
   27.6706  -19.4994  -15.5684 N   0  0  0  0  0  0  0  0  0  0  0  0
   27.6421  -20.5802  -14.6197 C   0  0  1  0  0  0  0  0  0  0  0  0
   28.9778  -21.2821  -14.4850 C   0  0  0  0  0  0  0  0  0  0  0  0
   29.0694  -22.3593  -15.5361 C   0  0  0  0  0  0  0  0  0  0  0  0
   30.4171  -23.0626  -15.4305 C   0  0  0  0  0  0  0  0  0  0  0  0
   30.4541  -24.1087  -16.5468 C   0  0  0  0  0  0  0  0  0  0  0  0
   31.6941  -24.8444  -16.4110 N   0  0  0  0  0  0  0  0  0  0  0  0
   27.3373  -19.9954  -13.2779 C   0  0  0  0  0  0  0  0  0  0  0  0
   27.4733  -18.7589  -13.0530 O   0  0  0  0  0  0  0  0  0  0  0  0
   19.6026  -19.7653   -9.9025 O   0  0  0  0  0  0  0  0  0  0  0  0
   20.8119  -19.9229  -10.5730 C   0  0  0  0  0  0  0  0  0  0  0  0
   21.8468  -20.6637  -10.0395 C   0  0  0  0  0  0  0  0  0  0  0  0
   23.0380  -20.8093  -10.7177 C   0  0  0  0  0  0  0  0  0  0  0  0
   23.2574  -20.2233  -11.9625 C   0  0  0  0  0  0  0  0  0  0  0  0
   24.5616  -20.4008  -12.6385 C   0  0  0  0  0  0  0  0  0  0  0  0
   25.6412  -20.5376  -11.5722 C   0  0  2  0  0  0  0  0  0  0  0  0
   26.8930  -20.8409  -12.2555 N   0  0  0  0  0  0  0  0  0  0  0  0
   25.3386  -21.5452  -10.5496 C   0  0  0  0  0  0  0  0  0  0  0  0
   25.3887  -22.9146  -10.7187 O   0  0  0  0  0  0  0  0  0  0  0  0
   22.2211  -19.4849  -12.4899 C   0  0  0  0  0  0  0  0  0  0  0  0
   21.0194  -19.3388  -11.8047 C   0  0  0  0  0  0  0  0  0  0  0  0
   24.9925  -21.1459   -9.3855 O   0  0  0  0  0  0  0  0  0  0  0  0
  2  4  1  0
  2  1  1  1
  3  2  1  0
  4  5  1  0
  5  7  1  0
  5  6  1  6
  7  8  2  0
  9  7  1  0
  9 10  1  0
 10 16  1  0
 10 11  1  1
 11 12  1  0
 12 13  1  0
 13 14  1  0
 15 14  1  0
 16 17  2  0
 18 19  1  0
 19 29  2  0
 19 20  1  0
 20 21  2  0
 21 22  1  0
 22 23  1  0
 24 23  1  6
 24 26  1  0
 25 24  1  0
 25 16  1  0
 26 30  2  0
 26 27  1  0
 28 22  2  0
 29 28  1  0
M  END
$$$$
