GHA.pdb
     RDKit          3D

 20 20  0  0  1  0  0  0  0  0999 V2000
   14.4971  -18.0893   22.0383 N   0  0  0  0  0  0  0  0  0  0  0  0
   13.1250  -18.5469   21.9357 C   0  0  0  0  0  0  0  0  0  0  0  0
   12.2168  -17.3626   22.0581 C   0  0  0  0  0  0  0  0  0  0  0  0
   12.6587  -16.2597   22.4874 O   0  0  0  0  0  0  0  0  0  0  0  0
   10.8525  -17.4171   21.7080 N   0  0  0  0  0  0  0  0  0  0  0  0
    9.9508  -16.2770   21.7256 C   0  0  1  0  0  0  0  0  0  0  0  0
    9.1207  -16.3817   20.4811 C   0  0  0  0  0  0  0  0  0  0  0  0
    8.3124  -15.1932   20.1848 C   0  0  0  0  0  0  0  0  0  0  0  0
    8.3660  -14.0662   21.0095 C   0  0  0  0  0  0  0  0  0  0  0  0
    7.5397  -13.1461   20.5096 N   0  0  0  0  0  0  0  0  0  0  0  0
    6.9634  -13.6422   19.4015 C   0  0  0  0  0  0  0  0  0  0  0  0
    7.4505  -14.8836   19.2295 N   0  0  0  0  0  0  0  0  0  0  0  0
    9.1504  -16.3787   22.9728 C   0  0  0  0  0  0  0  0  0  0  0  0
    8.7383  -17.4723   23.4440 O   0  0  0  0  0  0  0  0  0  0  0  0
    7.8454  -13.9486   25.5951 C   0  0  0  0  0  0  0  0  0  0  0  0
    8.0473  -15.3008   24.9392 C   0  0  2  0  0  0  0  0  0  0  0  0
    8.8003  -15.2114   23.7175 N   0  0  0  0  0  0  0  0  0  0  0  0
    6.7421  -15.9875   24.7415 C   0  0  0  0  0  0  0  0  0  0  0  0
    6.2678  -15.9591   23.5701 O   0  0  0  0  0  0  0  0  0  0  0  0
    6.0548  -16.6288   25.7432 O   0  0  0  0  0  0  0  0  0  0  0  0
  2  1  1  0
  2  3  1  0
  3  4  2  0
  5  3  1  0
  5  6  1  0
  6 13  1  0
  6  7  1  6
  8  9  2  0
  8  7  1  0
 10  9  1  0
 11 12  2  0
 11 10  1  0
 12  8  1  0
 13 14  2  0
 16 15  1  6
 16 18  1  0
 17 16  1  0
 17 13  1  0
 18 20  1  0
 19 18  2  0
M  END
$$$$
