GHA.pdb
     RDKit          3D

 20 20  0  0  1  0  0  0  0  0999 V2000
    6.0579  -19.3703   19.2477 N   0  0  0  0  0  0  0  0  0  0  0  0
    5.4851  -18.3029   20.0447 C   0  0  0  0  0  0  0  0  0  0  0  0
    6.5875  -17.6265   20.7992 C   0  0  0  0  0  0  0  0  0  0  0  0
    7.7325  -18.1557   20.8694 O   0  0  0  0  0  0  0  0  0  0  0  0
    6.4076  -16.3920   21.4552 N   0  0  0  0  0  0  0  0  0  0  0  0
    7.4383  -15.7049   22.2160 C   0  0  1  0  0  0  0  0  0  0  0  0
    7.2919  -14.2471   21.8961 C   0  0  0  0  0  0  0  0  0  0  0  0
    7.8656  -13.8445   20.6068 C   0  0  0  0  0  0  0  0  0  0  0  0
    7.0707  -13.2502   19.6229 C   0  0  0  0  0  0  0  0  0  0  0  0
    7.8424  -12.9904   18.5664 N   0  0  0  0  0  0  0  0  0  0  0  0
    9.0947  -13.3951   18.8386 C   0  0  0  0  0  0  0  0  0  0  0  0
    9.0785  -13.9083   20.0813 N   0  0  0  0  0  0  0  0  0  0  0  0
    7.1978  -16.0164   23.6483 C   0  0  0  0  0  0  0  0  0  0  0  0
    6.0674  -15.9224   24.1972 O   0  0  0  0  0  0  0  0  0  0  0  0
    7.0617  -18.0956   25.8638 C   0  0  0  0  0  0  0  0  0  0  0  0
    8.0158  -16.9175   25.8311 C   0  0  2  0  0  0  0  0  0  0  0  0
    8.2640  -16.4489   24.4945 N   0  0  0  0  0  0  0  0  0  0  0  0
    9.2764  -17.2437   26.5513 C   0  0  0  0  0  0  0  0  0  0  0  0
   10.3450  -17.1330   25.8851 O   0  0  0  0  0  0  0  0  0  0  0  0
    9.3263  -17.6462   27.8638 O   0  0  0  0  0  0  0  0  0  0  0  0
  2  1  1  0
  2  3  1  0
  3  4  2  0
  5  3  1  0
  5  6  1  0
  6 13  1  0
  6  7  1  1
  8  9  2  0
  8  7  1  0
 10  9  1  0
 11 12  2  0
 11 10  1  0
 12  8  1  0
 13 14  2  0
 16 15  1  6
 16 18  1  0
 17 16  1  0
 17 13  1  0
 18 20  1  0
 19 18  2  0
M  END
$$$$
