GHA.pdb
     RDKit          3D

 20 20  0  0  1  0  0  0  0  0999 V2000
   10.0936  -18.9132   19.5707 N   0  0  0  0  0  0  0  0  0  0  0  0
    8.9654  -18.3661   20.2989 C   0  0  0  0  0  0  0  0  0  0  0  0
    9.2978  -16.9658   20.7119 C   0  0  0  0  0  0  0  0  0  0  0  0
   10.4728  -16.5215   20.5776 O   0  0  0  0  0  0  0  0  0  0  0  0
    8.3376  -16.0912   21.2596 N   0  0  0  0  0  0  0  0  0  0  0  0
    8.6385  -14.7861   21.8247 C   0  0  1  0  0  0  0  0  0  0  0  0
    7.6631  -13.8287   21.2077 C   0  0  0  0  0  0  0  0  0  0  0  0
    7.7427  -13.7339   19.7455 C   0  0  0  0  0  0  0  0  0  0  0  0
    8.3626  -12.6426   19.1307 C   0  0  0  0  0  0  0  0  0  0  0  0
    8.2911  -12.8142   17.8098 N   0  0  0  0  0  0  0  0  0  0  0  0
    7.6514  -13.9693   17.5602 C   0  0  0  0  0  0  0  0  0  0  0  0
    7.3311  -14.5045   18.7514 N   0  0  0  0  0  0  0  0  0  0  0  0
    8.4867  -14.9079   23.2974 C   0  0  0  0  0  0  0  0  0  0  0  0
    8.7978  -13.9908   24.1037 O   0  0  0  0  0  0  0  0  0  0  0  0
    6.6655  -16.8862   25.8145 C   0  0  0  0  0  0  0  0  0  0  0  0
    7.9676  -16.2947   25.3105 C   0  0  2  0  0  0  0  0  0  0  0  0
    7.9675  -16.1012   23.8856 N   0  0  0  0  0  0  0  0  0  0  0  0
    9.1249  -17.1134   25.7626 C   0  0  0  0  0  0  0  0  0  0  0  0
    9.8827  -17.5591   24.8542 O   0  0  0  0  0  0  0  0  0  0  0  0
    9.3953  -17.3957   27.0796 O   0  0  0  0  0  0  0  0  0  0  0  0
  2  1  1  0
  2  3  1  0
  3  4  2  0
  5  3  1  0
  5  6  1  0
  6 13  1  0
  6  7  1  6
  8  9  2  0
  8  7  1  0
 10  9  1  0
 11 12  2  0
 11 10  1  0
 12  8  1  0
 13 14  2  0
 16 15  1  6
 16 18  1  0
 17 16  1  0
 17 13  1  0
 18 20  1  0
 19 18  2  0
M  END
$$$$
