GHA.pdb
     RDKit          3D

 20 20  0  0  1  0  0  0  0  0999 V2000
    9.2428  -18.5650   16.7634 N   0  0  0  0  0  0  0  0  0  0  0  0
    8.7969  -18.3030   18.1181 C   0  0  0  0  0  0  0  0  0  0  0  0
    9.6547  -17.2237   18.7024 C   0  0  0  0  0  0  0  0  0  0  0  0
   10.7189  -16.8682   18.1216 O   0  0  0  0  0  0  0  0  0  0  0  0
    9.3257  -16.5640   19.9037 N   0  0  0  0  0  0  0  0  0  0  0  0
   10.0579  -15.4335   20.4506 C   0  0  1  0  0  0  0  0  0  0  0  0
    9.0485  -14.3450   20.6625 C   0  0  0  0  0  0  0  0  0  0  0  0
    8.4006  -13.8661   19.4360 C   0  0  0  0  0  0  0  0  0  0  0  0
    7.0076  -13.8230   19.3311 C   0  0  0  0  0  0  0  0  0  0  0  0
    6.6965  -13.3517   18.1227 N   0  0  0  0  0  0  0  0  0  0  0  0
    7.8342  -13.0937   17.4557 C   0  0  0  0  0  0  0  0  0  0  0  0
    8.8500  -13.4149   18.2759 N   0  0  0  0  0  0  0  0  0  0  0  0
   10.6906  -15.8982   21.7117 C   0  0  0  0  0  0  0  0  0  0  0  0
   10.0664  -16.5238   22.6100 O   0  0  0  0  0  0  0  0  0  0  0  0
   12.6176  -17.7481   23.1315 C   0  0  0  0  0  0  0  0  0  0  0  0
   12.7354  -16.2365   23.1079 C   0  0  2  0  0  0  0  0  0  0  0  0
   12.0727  -15.6518   21.9737 N   0  0  0  0  0  0  0  0  0  0  0  0
   14.1613  -15.8204   23.1970 C   0  0  0  0  0  0  0  0  0  0  0  0
   14.6223  -15.1901   22.2030 O   0  0  0  0  0  0  0  0  0  0  0  0
   14.9698  -16.0832   24.2762 O   0  0  0  0  0  0  0  0  0  0  0  0
  2  1  1  0
  2  3  1  0
  3  4  2  0
  5  3  1  0
  5  6  1  0
  6 13  1  0
  6  7  1  1
  8  9  2  0
  8  7  1  0
 10  9  1  0
 11 12  2  0
 11 10  1  0
 12  8  1  0
 13 14  2  0
 16 15  1  6
 16 18  1  0
 17 16  1  0
 17 13  1  0
 18 20  1  0
 19 18  2  0
M  END
$$$$
