GHA.pdb
     RDKit          3D

 20 20  0  0  1  0  0  0  0  0999 V2000
   13.8115  -14.1534   18.0072 N   0  0  0  0  0  0  0  0  0  0  0  0
   13.0857  -15.2557   18.6078 C   0  0  0  0  0  0  0  0  0  0  0  0
   12.0684  -14.6977   19.5543 C   0  0  0  0  0  0  0  0  0  0  0  0
   12.1501  -13.4998   19.9474 O   0  0  0  0  0  0  0  0  0  0  0  0
   10.9915  -15.4639   20.0442 N   0  0  0  0  0  0  0  0  0  0  0  0
    9.9379  -14.9499   20.9038 C   0  0  1  0  0  0  0  0  0  0  0  0
    8.6429  -15.3271   20.2485 C   0  0  0  0  0  0  0  0  0  0  0  0
    8.4099  -14.6916   18.9464 C   0  0  0  0  0  0  0  0  0  0  0  0
    8.3998  -13.2999   18.8197 C   0  0  0  0  0  0  0  0  0  0  0  0
    8.1679  -13.0010   17.5406 N   0  0  0  0  0  0  0  0  0  0  0  0
    8.0303  -14.1453   16.8496 C   0  0  0  0  0  0  0  0  0  0  0  0
    8.1818  -15.1528   17.7271 N   0  0  0  0  0  0  0  0  0  0  0  0
   10.1235  -15.5780   22.2371 C   0  0  0  0  0  0  0  0  0  0  0  0
   10.8260  -16.6069   22.4262 O   0  0  0  0  0  0  0  0  0  0  0  0
    8.9256  -14.8866   25.7831 C   0  0  0  0  0  0  0  0  0  0  0  0
    9.6334  -15.6583   24.6863 C   0  0  2  0  0  0  0  0  0  0  0  0
    9.4983  -15.0317   23.3992 N   0  0  0  0  0  0  0  0  0  0  0  0
    9.1814  -17.0759   24.6673 C   0  0  0  0  0  0  0  0  0  0  0  0
    9.5270  -17.7856   25.6546 O   0  0  0  0  0  0  0  0  0  0  0  0
    8.4307  -17.6268   23.6573 O   0  0  0  0  0  0  0  0  0  0  0  0
  2  1  1  0
  2  3  1  0
  3  4  2  0
  5  3  1  0
  5  6  1  0
  6 13  1  0
  6  7  1  6
  8  9  2  0
  8  7  1  0
 10  9  1  0
 11 12  2  0
 11 10  1  0
 12  8  1  0
 13 14  2  0
 16 15  1  1
 16 18  1  0
 17 16  1  0
 17 13  1  0
 18 20  1  0
 19 18  2  0
M  END
$$$$
