GHA.pdb
     RDKit          3D

 20 20  0  0  1  0  0  0  0  0999 V2000
   10.9250  -23.8548   17.9268 N   0  0  0  0  0  0  0  0  0  0  0  0
   11.2730  -24.7528   19.0108 C   0  0  0  0  0  0  0  0  0  0  0  0
   10.5126  -24.3418   20.2336 C   0  0  0  0  0  0  0  0  0  0  0  0
    9.7923  -23.3040   20.2197 O   0  0  0  0  0  0  0  0  0  0  0  0
   10.5608  -25.0759   21.4359 N   0  0  0  0  0  0  0  0  0  0  0  0
    9.9234  -24.6679   22.6770 C   0  0  1  0  0  0  0  0  0  0  0  0
    9.2823  -25.9001   23.2421 C   0  0  0  0  0  0  0  0  0  0  0  0
    8.6616  -25.7160   24.5591 C   0  0  0  0  0  0  0  0  0  0  0  0
    9.2700  -26.2148   25.7142 C   0  0  0  0  0  0  0  0  0  0  0  0
    8.4968  -25.9074   26.7567 N   0  0  0  0  0  0  0  0  0  0  0  0
    7.4224  -25.2340   26.3115 C   0  0  0  0  0  0  0  0  0  0  0  0
    7.5493  -25.1331   24.9768 N   0  0  0  0  0  0  0  0  0  0  0  0
   10.9905  -24.1117   23.5480 C   0  0  0  0  0  0  0  0  0  0  0  0
   12.1624  -24.5731   23.5877 O   0  0  0  0  0  0  0  0  0  0  0  0
   12.0082  -20.9968   25.0362 C   0  0  0  0  0  0  0  0  0  0  0  0
   11.7498  -22.4719   25.2741 C   0  0  2  0  0  0  0  0  0  0  0  0
   10.7328  -22.9984   24.4045 N   0  0  0  0  0  0  0  0  0  0  0  0
   11.4444  -22.7259   26.7082 C   0  0  0  0  0  0  0  0  0  0  0  0
   10.2283  -22.9181   26.9947 O   0  0  0  0  0  0  0  0  0  0  0  0
   12.3950  -22.7592   27.6994 O   0  0  0  0  0  0  0  0  0  0  0  0
  2  1  1  0
  2  3  1  0
  3  4  2  0
  5  3  1  0
  5  6  1  0
  6 13  1  0
  6  7  1  1
  8  9  2  0
  8  7  1  0
 10  9  1  0
 11 12  2  0
 11 10  1  0
 12  8  1  0
 13 14  2  0
 16 15  1  1
 16 18  1  0
 17 16  1  0
 17 13  1  0
 18 20  1  0
 19 18  2  0
M  END
$$$$
