GHA.pdb
     RDKit          3D

 20 20  0  0  1  0  0  0  0  0999 V2000
   12.7586  -17.0695   14.7994 N   0  0  0  0  0  0  0  0  0  0  0  0
   12.1193  -17.5698   16.0009 C   0  0  0  0  0  0  0  0  0  0  0  0
   12.0773  -16.4674   17.0134 C   0  0  0  0  0  0  0  0  0  0  0  0
   12.9728  -15.5762   17.0257 O   0  0  0  0  0  0  0  0  0  0  0  0
   11.0589  -16.3700   17.9830 N   0  0  0  0  0  0  0  0  0  0  0  0
   10.9971  -15.3468   19.0137 C   0  0  1  0  0  0  0  0  0  0  0  0
    9.5418  -15.0503   19.2213 C   0  0  0  0  0  0  0  0  0  0  0  0
    8.8649  -14.4696   18.0559 C   0  0  0  0  0  0  0  0  0  0  0  0
    8.9292  -13.0972   17.7999 C   0  0  0  0  0  0  0  0  0  0  0  0
    8.2325  -12.8486   16.6899 N   0  0  0  0  0  0  0  0  0  0  0  0
    7.7283  -14.0065   16.2304 C   0  0  0  0  0  0  0  0  0  0  0  0
    8.1277  -14.9709   17.0778 N   0  0  0  0  0  0  0  0  0  0  0  0
   11.6575  -15.9084   20.2199 C   0  0  0  0  0  0  0  0  0  0  0  0
   11.3806  -17.0415   20.6968 O   0  0  0  0  0  0  0  0  0  0  0  0
   14.5684  -14.9679   22.4533 C   0  0  0  0  0  0  0  0  0  0  0  0
   13.2792  -15.6880   22.1085 C   0  0  2  0  0  0  0  0  0  0  0  0
   12.6644  -15.1721   20.9154 N   0  0  0  0  0  0  0  0  0  0  0  0
   12.3460  -15.6758   23.2675 C   0  0  0  0  0  0  0  0  0  0  0  0
   12.7815  -16.1823   24.3406 O   0  0  0  0  0  0  0  0  0  0  0  0
   11.0753  -15.1555   23.2220 O   0  0  0  0  0  0  0  0  0  0  0  0
  2  1  1  0
  2  3  1  0
  3  4  2  0
  5  3  1  0
  5  6  1  0
  6 13  1  0
  6  7  1  1
  8  9  2  0
  8  7  1  0
 10  9  1  0
 11 12  2  0
 11 10  1  0
 12  8  1  0
 13 14  2  0
 16 15  1  1
 16 18  1  0
 17 16  1  0
 17 13  1  0
 18 20  1  0
 19 18  2  0
M  END
$$$$
