GHA.pdb
     RDKit          3D

 20 20  0  0  1  0  0  0  0  0999 V2000
   15.8992  -12.6408   17.2113 N   0  0  0  0  0  0  0  0  0  0  0  0
   16.1565  -13.6769   18.1926 C   0  0  0  0  0  0  0  0  0  0  0  0
   14.8911  -14.4449   18.4186 C   0  0  0  0  0  0  0  0  0  0  0  0
   13.7859  -13.9914   18.0074 O   0  0  0  0  0  0  0  0  0  0  0  0
   14.8692  -15.6857   19.0869 N   0  0  0  0  0  0  0  0  0  0  0  0
   13.6598  -16.4131   19.4354 C   0  0  1  0  0  0  0  0  0  0  0  0
   13.9356  -17.8544   19.1266 C   0  0  0  0  0  0  0  0  0  0  0  0
   13.9420  -18.1818   17.6961 C   0  0  0  0  0  0  0  0  0  0  0  0
   13.3104  -17.3499   16.7676 C   0  0  0  0  0  0  0  0  0  0  0  0
   13.4714  -17.8827   15.5555 N   0  0  0  0  0  0  0  0  0  0  0  0
   14.1792  -19.0188   15.6757 C   0  0  0  0  0  0  0  0  0  0  0  0
   14.4501  -19.1744   16.9834 N   0  0  0  0  0  0  0  0  0  0  0  0
   13.4052  -16.1621   20.8772 C   0  0  0  0  0  0  0  0  0  0  0  0
   14.3209  -15.9372   21.7132 O   0  0  0  0  0  0  0  0  0  0  0  0
   10.3395  -15.6847   23.0686 C   0  0  0  0  0  0  0  0  0  0  0  0
   11.8155  -15.8858   22.7855 C   0  0  2  0  0  0  0  0  0  0  0  0
   12.0758  -16.1635   21.3989 N   0  0  0  0  0  0  0  0  0  0  0  0
   12.3832  -16.9306   23.6802 C   0  0  0  0  0  0  0  0  0  0  0  0
   12.5663  -18.0694   23.1630 O   0  0  0  0  0  0  0  0  0  0  0  0
   12.7054  -16.7174   24.9985 O   0  0  0  0  0  0  0  0  0  0  0  0
  2  1  1  0
  2  3  1  0
  3  4  2  0
  5  3  1  0
  5  6  1  0
  6 13  1  0
  6  7  1  1
  8  9  2  0
  8  7  1  0
 10  9  1  0
 11 12  2  0
 11 10  1  0
 12  8  1  0
 13 14  2  0
 16 15  1  6
 16 18  1  0
 17 16  1  0
 17 13  1  0
 18 20  1  0
 19 18  2  0
M  END
$$$$
