GHA.pdb
     RDKit          3D

 20 20  0  0  1  0  0  0  0  0999 V2000
   -2.4985  -25.7542   24.9012 N   0  0  0  0  0  0  0  0  0  0  0  0
   -3.8383  -25.3277   24.5470 C   0  0  0  0  0  0  0  0  0  0  0  0
   -4.4008  -24.5297   25.6823 C   0  0  0  0  0  0  0  0  0  0  0  0
   -3.6412  -24.0815   26.5868 O   0  0  0  0  0  0  0  0  0  0  0  0
   -5.7764  -24.2443   25.7969 N   0  0  0  0  0  0  0  0  0  0  0  0
   -6.3543  -23.3595   26.7951 C   0  0  1  0  0  0  0  0  0  0  0  0
   -7.1022  -22.3047   26.0355 C   0  0  0  0  0  0  0  0  0  0  0  0
   -6.2520  -21.3841   25.2718 C   0  0  0  0  0  0  0  0  0  0  0  0
   -5.7915  -20.1941   25.8418 C   0  0  0  0  0  0  0  0  0  0  0  0
   -5.0487  -19.5589   24.9339 N   0  0  0  0  0  0  0  0  0  0  0  0
   -5.0185  -20.2964   23.8109 C   0  0  0  0  0  0  0  0  0  0  0  0
   -5.7559  -21.3960   24.0450 N   0  0  0  0  0  0  0  0  0  0  0  0
   -7.2319  -24.1938   27.6555 C   0  0  0  0  0  0  0  0  0  0  0  0
   -8.1096  -24.9743   27.1989 O   0  0  0  0  0  0  0  0  0  0  0  0
   -7.3504  -25.2083   31.2831 C   0  0  0  0  0  0  0  0  0  0  0  0
   -7.9650  -24.9538   29.9205 C   0  0  2  0  0  0  0  0  0  0  0  0
   -7.1203  -24.1504   29.0786 N   0  0  0  0  0  0  0  0  0  0  0  0
   -9.3280  -24.3734   30.0603 C   0  0  0  0  0  0  0  0  0  0  0  0
  -10.1754  -25.0802   30.6769 O   0  0  0  0  0  0  0  0  0  0  0  0
   -9.6916  -23.1447   29.5650 O   0  0  0  0  0  0  0  0  0  0  0  0
  2  1  1  0
  2  3  1  0
  3  4  2  0
  5  3  1  0
  5  6  1  0
  6 13  1  0
  6  7  1  6
  8  9  2  0
  8  7  1  0
 10  9  1  0
 11 12  2  0
 11 10  1  0
 12  8  1  0
 13 14  2  0
 16 15  1  1
 16 18  1  0
 17 16  1  0
 17 13  1  0
 18 20  1  0
 19 18  2  0
M  END
$$$$
