RWF.pdb
     RDKit          3D

 37 39  0  0  1  0  0  0  0  0999 V2000
   31.2864  -24.9246  -15.0594 N   0  0  0  0  0  0  0  0  0  0  0  0
   31.3056  -24.6978  -16.4612 C   0  0  0  0  0  0  0  0  0  0  0  0
   31.5584  -25.6980  -17.2437 N   0  0  0  0  0  0  0  0  0  0  0  0
   31.0586  -23.4160  -17.0320 N   0  0  0  0  0  0  0  0  0  0  0  0
   30.5445  -22.3248  -16.2041 C   0  0  0  0  0  0  0  0  0  0  0  0
   29.0480  -22.3651  -16.1088 C   0  0  0  0  0  0  0  0  0  0  0  0
   28.4541  -21.0848  -15.5540 C   0  0  0  0  0  0  0  0  0  0  0  0
   26.9772  -21.3295  -15.3786 C   0  0  2  0  0  0  0  0  0  0  0  0
   26.2922  -20.8845  -16.5578 N   0  0  0  0  0  0  0  0  0  0  0  0
   26.4022  -20.6817  -14.1929 C   0  0  0  0  0  0  0  0  0  0  0  0
   25.8287  -19.5513  -14.2864 O   0  0  0  0  0  0  0  0  0  0  0  0
   31.5506  -25.5962  -18.2785 N   0  0  0  0  0  0  0  0  0  0  0  0
   26.4395  -21.2478  -12.8891 C   0  0  2  0  0  0  0  0  0  0  0  0
   25.9335  -20.5652  -11.7128 C   0  0  0  0  0  0  0  0  0  0  0  0
   24.4608  -20.3025  -11.9530 C   0  0  0  0  0  0  0  0  0  0  0  0
   23.8451  -21.3593  -12.8000 C   0  0  0  0  0  0  0  0  0  0  0  0
   24.0373  -22.7287  -12.7040 N   0  0  0  0  0  0  0  0  0  0  0  0
   23.2880  -23.3332  -13.6681 C   0  0  0  0  0  0  0  0  0  0  0  0
   22.6258  -22.4247  -14.3771 C   0  0  0  0  0  0  0  0  0  0  0  0
   21.7549  -22.5417  -15.4392 C   0  0  0  0  0  0  0  0  0  0  0  0
   21.1929  -21.4232  -16.0058 C   0  0  0  0  0  0  0  0  0  0  0  0
   21.5191  -20.1913  -15.4897 C   0  0  0  0  0  0  0  0  0  0  0  0
   22.3868  -20.0781  -14.4319 C   0  0  0  0  0  0  0  0  0  0  0  0
   22.9647  -21.1827  -13.8450 C   0  0  0  0  0  0  0  0  0  0  0  0
   26.1781  -21.3504  -10.4764 O   0  0  0  0  0  0  0  0  0  0  0  0
   25.2584  -22.0618   -9.9954 N   0  0  0  0  0  0  0  0  0  0  0  0
   27.4188  -21.3507   -9.7800 C   0  0  2  0  0  0  0  0  0  0  0  0
   27.5218  -21.0859   -8.3462 C   0  0  0  0  0  0  0  0  0  0  0  0
   28.6242  -20.0980   -8.0739 C   0  0  0  0  0  0  0  0  0  0  0  0
   28.7438  -19.7175   -6.6491 C   0  0  0  0  0  0  0  0  0  0  0  0
   29.1955  -20.6502   -5.7068 C   0  0  0  0  0  0  0  0  0  0  0  0
   29.3090  -20.2865   -4.3811 C   0  0  0  0  0  0  0  0  0  0  0  0
   28.9858  -19.0047   -3.9348 C   0  0  0  0  0  0  0  0  0  0  0  0
   28.5460  -18.1099   -4.8774 C   0  0  0  0  0  0  0  0  0  0  0  0
   28.4317  -18.4678   -6.1983 C   0  0  0  0  0  0  0  0  0  0  0  0
   26.2157  -20.7158   -7.8106 O   0  0  0  0  0  0  0  0  0  0  0  0
   25.6616  -21.3759   -6.8683 O   0  0  0  0  0  0  0  0  0  0  0  0
  2  1  1  0
  3  2  2  0
  4  2  1  0
  5  4  1  0
  6  7  1  0
  6  5  1  0
  8 10  1  0
  8  7  1  0
  8  9  1  6
 10 12  1  0
 11 10  2  0
 12 13  1  0
 13 24  1  0
 13 14  1  6
 14 15  1  0
 15 23  1  0
 15 16  2  0
 16 17  1  0
 18 17  1  0
 18 19  2  0
 20 19  1  0
 21 20  2  0
 22 23  2  0
 22 21  1  0
 23 18  1  0
 24 25  2  0
 26 27  1  0
 26 24  1  0
 27 35  1  0
 27 28  1  6
 29 28  1  0
 30 29  2  0
 31 30  1  0
 32 31  2  0
 32 33  1  0
 33 34  2  0
 34 29  1  0
 35 36  2  0
 35 37  1  0
M  END
$$$$
