RWF.pdb
     RDKit          3D

 37 39  0  0  1  0  0  0  0  0999 V2000
   29.7733  -27.0667  -18.0386 N   0  0  0  0  0  0  0  0  0  0  0  0
   28.5623  -27.6087  -17.5323 C   0  0  0  0  0  0  0  0  0  0  0  0
   28.6311  -28.5872  -16.6871 N   0  0  0  0  0  0  0  0  0  0  0  0
   27.2829  -27.1165  -17.9204 N   0  0  0  0  0  0  0  0  0  0  0  0
   27.1730  -25.9156  -18.7487 C   0  0  0  0  0  0  0  0  0  0  0  0
   27.6582  -24.6981  -18.0188 C   0  0  0  0  0  0  0  0  0  0  0  0
   26.7875  -24.3312  -16.8326 C   0  0  0  0  0  0  0  0  0  0  0  0
   27.2730  -22.9949  -16.3323 C   0  0  2  0  0  0  0  0  0  0  0  0
   28.6557  -23.1126  -15.9686 N   0  0  0  0  0  0  0  0  0  0  0  0
   26.5023  -22.4665  -15.1996 C   0  0  0  0  0  0  0  0  0  0  0  0
   26.2736  -23.1883  -14.1787 O   0  0  0  0  0  0  0  0  0  0  0  0
   27.7765  -29.0157  -16.2783 N   0  0  0  0  0  0  0  0  0  0  0  0
   25.9680  -21.1495  -15.1555 C   0  0  1  0  0  0  0  0  0  0  0  0
   25.1717  -20.6530  -14.0487 C   0  0  0  0  0  0  0  0  0  0  0  0
   25.8825  -19.4298  -13.5061 C   0  0  0  0  0  0  0  0  0  0  0  0
   27.1339  -19.7945  -12.7890 C   0  0  0  0  0  0  0  0  0  0  0  0
   28.4322  -19.6944  -13.2643 N   0  0  0  0  0  0  0  0  0  0  0  0
   29.2779  -20.1334  -12.2904 C   0  0  0  0  0  0  0  0  0  0  0  0
   28.5914  -20.5096  -11.2163 C   0  0  0  0  0  0  0  0  0  0  0  0
   28.9922  -21.0148   -9.9980 C   0  0  0  0  0  0  0  0  0  0  0  0
   28.0641  -21.3307   -9.0353 C   0  0  0  0  0  0  0  0  0  0  0  0
   26.7330  -21.1314   -9.3162 C   0  0  0  0  0  0  0  0  0  0  0  0
   26.3370  -20.6282  -10.5305 C   0  0  0  0  0  0  0  0  0  0  0  0
   27.2462  -20.3032  -11.5135 C   0  0  0  0  0  0  0  0  0  0  0  0
   23.7760  -20.3632  -14.4648 O   0  0  0  0  0  0  0  0  0  0  0  0
   23.5472  -19.9206  -15.6203 N   0  0  0  0  0  0  0  0  0  0  0  0
   22.6487  -20.5584  -13.6189 C   0  0  1  0  0  0  0  0  0  0  0  0
   21.2732  -20.3786  -14.0792 C   0  0  0  0  0  0  0  0  0  0  0  0
   20.8941  -21.4754  -15.0377 C   0  0  0  0  0  0  0  0  0  0  0  0
   21.0126  -22.8342  -14.4643 C   0  0  0  0  0  0  0  0  0  0  0  0
   22.1937  -23.5684  -14.6313 C   0  0  0  0  0  0  0  0  0  0  0  0
   22.2983  -24.8326  -14.0896 C   0  0  0  0  0  0  0  0  0  0  0  0
   21.2563  -25.4183  -13.3701 C   0  0  0  0  0  0  0  0  0  0  0  0
   20.1104  -24.6786  -13.2206 C   0  0  0  0  0  0  0  0  0  0  0  0
   20.0022  -23.4195  -13.7581 C   0  0  0  0  0  0  0  0  0  0  0  0
   20.3794  -20.2221  -12.9363 O   0  0  0  0  0  0  0  0  0  0  0  0
   19.1201  -20.0677  -13.0811 O   0  0  0  0  0  0  0  0  0  0  0  0
  2  1  1  0
  3  2  2  0
  4  2  1  0
  5  4  1  0
  6  7  1  0
  6  5  1  0
  8 10  1  0
  8  7  1  0
  8  9  1  1
 10 12  1  0
 11 10  2  0
 12 13  1  0
 13 24  1  0
 13 14  1  1
 14 15  1  0
 15 23  1  0
 15 16  2  0
 16 17  1  0
 18 17  1  0
 18 19  2  0
 20 19  1  0
 21 20  2  0
 22 23  2  0
 22 21  1  0
 23 18  1  0
 24 25  2  0
 26 27  1  0
 26 24  1  0
 27 35  1  0
 27 28  1  6
 29 28  1  0
 30 29  2  0
 31 30  1  0
 32 31  2  0
 32 33  1  0
 33 34  2  0
 34 29  1  0
 35 36  2  0
 35 37  1  0
M  END
$$$$
