RWF.pdb
     RDKit          3D

 37 39  0  0  1  0  0  0  0  0999 V2000
   29.5149  -27.5964  -16.0573 N   0  0  0  0  0  0  0  0  0  0  0  0
   28.4329  -27.9677  -16.8988 C   0  0  0  0  0  0  0  0  0  0  0  0
   27.5507  -28.7964  -16.4386 N   0  0  0  0  0  0  0  0  0  0  0  0
   28.2861  -27.4636  -18.2232 N   0  0  0  0  0  0  0  0  0  0  0  0
   28.8534  -26.1650  -18.5870 C   0  0  0  0  0  0  0  0  0  0  0  0
   27.8521  -25.0609  -18.4177 C   0  0  0  0  0  0  0  0  0  0  0  0
   27.9417  -24.3809  -17.0652 C   0  0  0  0  0  0  0  0  0  0  0  0
   28.3586  -22.9552  -17.3209 C   0  0  2  0  0  0  0  0  0  0  0  0
   29.7319  -22.7996  -16.9365 N   0  0  0  0  0  0  0  0  0  0  0  0
   27.5308  -21.9588  -16.6295 C   0  0  0  0  0  0  0  0  0  0  0  0
   27.9594  -21.3716  -15.5868 O   0  0  0  0  0  0  0  0  0  0  0  0
   26.6990  -29.0431  -16.9816 N   0  0  0  0  0  0  0  0  0  0  0  0
   26.2275  -21.5835  -17.0564 C   0  0  2  0  0  0  0  0  0  0  0  0
   25.4695  -20.5098  -16.4415 C   0  0  0  0  0  0  0  0  0  0  0  0
   24.5659  -19.9357  -17.5136 C   0  0  0  0  0  0  0  0  0  0  0  0
   23.7248  -18.8270  -16.9876 C   0  0  0  0  0  0  0  0  0  0  0  0
   24.1580  -17.6004  -16.5087 N   0  0  0  0  0  0  0  0  0  0  0  0
   23.0654  -16.8821  -16.1259 C   0  0  0  0  0  0  0  0  0  0  0  0
   21.9550  -17.5823  -16.3337 C   0  0  0  0  0  0  0  0  0  0  0  0
   20.6266  -17.2893  -16.1107 C   0  0  0  0  0  0  0  0  0  0  0  0
   19.6499  -18.2052  -16.4190 C   0  0  0  0  0  0  0  0  0  0  0  0
   20.0285  -19.4144  -16.9526 C   0  0  0  0  0  0  0  0  0  0  0  0
   21.3523  -19.7033  -17.1734 C   0  0  0  0  0  0  0  0  0  0  0  0
   22.3520  -18.8037  -16.8734 C   0  0  0  0  0  0  0  0  0  0  0  0
   24.7147  -20.9828  -15.2533 O   0  0  0  0  0  0  0  0  0  0  0  0
   24.1673  -22.1157  -15.2708 N   0  0  0  0  0  0  0  0  0  0  0  0
   24.5655  -20.2176  -14.0631 C   0  0  1  0  0  0  0  0  0  0  0  0
   23.8630  -20.7182  -12.8832 C   0  0  0  0  0  0  0  0  0  0  0  0
   24.5961  -20.3220  -11.6298 C   0  0  0  0  0  0  0  0  0  0  0  0
   26.0084  -20.7624  -11.6021 C   0  0  0  0  0  0  0  0  0  0  0  0
   26.3193  -22.1251  -11.5118 C   0  0  0  0  0  0  0  0  0  0  0  0
   27.6383  -22.5282  -11.4913 C   0  0  0  0  0  0  0  0  0  0  0  0
   28.6922  -21.6164  -11.5580 C   0  0  0  0  0  0  0  0  0  0  0  0
   28.3612  -20.2878  -11.6462 C   0  0  0  0  0  0  0  0  0  0  0  0
   27.0492  -19.8823  -11.6670 C   0  0  0  0  0  0  0  0  0  0  0  0
   22.4600  -20.3193  -12.9293 O   0  0  0  0  0  0  0  0  0  0  0  0
   22.0792  -19.2614  -13.5348 O   0  0  0  0  0  0  0  0  0  0  0  0
  2  1  1  0
  3  2  2  0
  4  2  1  0
  5  4  1  0
  6  7  1  0
  6  5  1  0
  8 10  1  0
  8  7  1  0
  8  9  1  1
 10 12  1  0
 11 10  2  0
 12 13  1  0
 13 24  1  0
 13 14  1  6
 14 15  1  0
 15 23  1  0
 15 16  2  0
 16 17  1  0
 18 17  1  0
 18 19  2  0
 20 19  1  0
 21 20  2  0
 22 23  2  0
 22 21  1  0
 23 18  1  0
 24 25  2  0
 26 27  1  0
 26 24  1  0
 27 35  1  0
 27 28  1  1
 29 28  1  0
 30 29  2  0
 31 30  1  0
 32 31  2  0
 32 33  1  0
 33 34  2  0
 34 29  1  0
 35 36  2  0
 35 37  1  0
M  END
$$$$
