RWF.pdb
     RDKit          3D

 37 39  0  0  1  0  0  0  0  0999 V2000
   22.3566  -16.9675  -17.8343 N   0  0  0  0  0  0  0  0  0  0  0  0
   22.1715  -17.2754  -16.4604 C   0  0  0  0  0  0  0  0  0  0  0  0
   21.1203  -16.8137  -15.8617 N   0  0  0  0  0  0  0  0  0  0  0  0
   23.0969  -18.0689  -15.7230 N   0  0  0  0  0  0  0  0  0  0  0  0
   24.2725  -18.6378  -16.3824 C   0  0  0  0  0  0  0  0  0  0  0  0
   24.0077  -20.0309  -16.8720 C   0  0  0  0  0  0  0  0  0  0  0  0
   24.5446  -21.0996  -15.9395 C   0  0  0  0  0  0  0  0  0  0  0  0
   26.0297  -20.8702  -15.8227 C   0  0  2  0  0  0  0  0  0  0  0  0
   26.6840  -21.5100  -16.9274 N   0  0  0  0  0  0  0  0  0  0  0  0
   26.6083  -21.3423  -14.5584 C   0  0  0  0  0  0  0  0  0  0  0  0
   26.5217  -22.5653  -14.2232 O   0  0  0  0  0  0  0  0  0  0  0  0
   20.9149  -17.0407  -14.8680 N   0  0  0  0  0  0  0  0  0  0  0  0
   27.2888  -20.4979  -13.6389 C   0  0  2  0  0  0  0  0  0  0  0  0
   27.7418  -20.9464  -12.3353 C   0  0  0  0  0  0  0  0  0  0  0  0
   28.9267  -20.0813  -11.9570 C   0  0  0  0  0  0  0  0  0  0  0  0
   29.6794  -20.6524  -10.8078 C   0  0  0  0  0  0  0  0  0  0  0  0
   30.5932  -21.6943  -10.8385 N   0  0  0  0  0  0  0  0  0  0  0  0
   31.0480  -21.9002   -9.5708 C   0  0  0  0  0  0  0  0  0  0  0  0
   30.4747  -21.0463   -8.7290 C   0  0  0  0  0  0  0  0  0  0  0  0
   30.6076  -20.8650   -7.3689 C   0  0  0  0  0  0  0  0  0  0  0  0
   29.8863  -19.8906   -6.7222 C   0  0  0  0  0  0  0  0  0  0  0  0
   29.0336  -19.1053   -7.4614 C   0  0  0  0  0  0  0  0  0  0  0  0
   28.9034  -19.2883   -8.8157 C   0  0  0  0  0  0  0  0  0  0  0  0
   29.6142  -20.2576   -9.4894 C   0  0  0  0  0  0  0  0  0  0  0  0
   26.6520  -20.8921  -11.3282 O   0  0  0  0  0  0  0  0  0  0  0  0
   25.7180  -20.0595  -11.4620 N   0  0  0  0  0  0  0  0  0  0  0  0
   26.5929  -21.7434  -10.1897 C   0  0  2  0  0  0  0  0  0  0  0  0
   25.4431  -21.7807   -9.2880 C   0  0  0  0  0  0  0  0  0  0  0  0
   25.8275  -22.4074   -7.9747 C   0  0  0  0  0  0  0  0  0  0  0  0
   26.5558  -21.4918   -7.0689 C   0  0  0  0  0  0  0  0  0  0  0  0
   27.9532  -21.4129   -7.1222 C   0  0  0  0  0  0  0  0  0  0  0  0
   28.6248  -20.5535   -6.2778 C   0  0  0  0  0  0  0  0  0  0  0  0
   27.9553  -19.7464   -5.3575 C   0  0  0  0  0  0  0  0  0  0  0  0
   26.5869  -19.8423   -5.3252 C   0  0  0  0  0  0  0  0  0  0  0  0
   25.9145  -20.6966   -6.1642 C   0  0  0  0  0  0  0  0  0  0  0  0
   24.8437  -20.4540   -9.1864 O   0  0  0  0  0  0  0  0  0  0  0  0
   25.5178  -19.3911   -9.4021 O   0  0  0  0  0  0  0  0  0  0  0  0
  2  1  1  0
  3  2  2  0
  4  2  1  0
  5  4  1  0
  6  7  1  0
  6  5  1  0
  8 10  1  0
  8  7  1  0
  8  9  1  6
 10 12  1  0
 11 10  2  0
 12 13  1  0
 13 24  1  0
 13 14  1  6
 14 15  1  0
 15 23  1  0
 15 16  2  0
 16 17  1  0
 18 17  1  0
 18 19  2  0
 20 19  1  0
 21 20  2  0
 22 23  2  0
 22 21  1  0
 23 18  1  0
 24 25  2  0
 26 27  1  0
 26 24  1  0
 27 35  1  0
 27 28  1  1
 29 28  1  0
 30 29  2  0
 31 30  1  0
 32 31  2  0
 32 33  1  0
 33 34  2  0
 34 29  1  0
 35 36  2  0
 35 37  1  0
M  END
$$$$
