RWF.pdb
     RDKit          3D

 37 39  0  0  1  0  0  0  0  0999 V2000
   33.8066  -25.4671  -15.2888 N   0  0  0  0  0  0  0  0  0  0  0  0
   34.2001  -26.2030  -16.4378 C   0  0  0  0  0  0  0  0  0  0  0  0
   34.8361  -27.3180  -16.2674 N   0  0  0  0  0  0  0  0  0  0  0  0
   33.9215  -25.7593  -17.7627 N   0  0  0  0  0  0  0  0  0  0  0  0
   32.9611  -24.6802  -17.9942 C   0  0  0  0  0  0  0  0  0  0  0  0
   31.5512  -25.1421  -17.7726 C   0  0  0  0  0  0  0  0  0  0  0  0
   31.0405  -24.8404  -16.3769 C   0  0  0  0  0  0  0  0  0  0  0  0
   29.5700  -24.5363  -16.5072 C   0  0  2  0  0  0  0  0  0  0  0  0
   29.2150  -24.5596  -17.8969 N   0  0  0  0  0  0  0  0  0  0  0  0
   29.1712  -23.2546  -15.9116 C   0  0  0  0  0  0  0  0  0  0  0  0
   29.4978  -22.9656  -14.7178 O   0  0  0  0  0  0  0  0  0  0  0  0
   35.1756  -27.8807  -17.0731 N   0  0  0  0  0  0  0  0  0  0  0  0
   28.4132  -22.2676  -16.5994 C   0  0  1  0  0  0  0  0  0  0  0  0
   27.9117  -21.0649  -15.9611 C   0  0  0  0  0  0  0  0  0  0  0  0
   27.5311  -20.1025  -17.0677 C   0  0  0  0  0  0  0  0  0  0  0  0
   27.0624  -18.7990  -16.5252 C   0  0  0  0  0  0  0  0  0  0  0  0
   27.8337  -17.8109  -15.9334 N   0  0  0  0  0  0  0  0  0  0  0  0
   27.0119  -16.7840  -15.5779 C   0  0  0  0  0  0  0  0  0  0  0  0
   25.7551  -17.0607  -15.9100 C   0  0  0  0  0  0  0  0  0  0  0  0
   24.5848  -16.3479  -15.7594 C   0  0  0  0  0  0  0  0  0  0  0  0
   23.3909  -16.8681  -16.1974 C   0  0  0  0  0  0  0  0  0  0  0  0
   23.3927  -18.1105  -16.7864 C   0  0  0  0  0  0  0  0  0  0  0  0
   24.5598  -18.8179  -16.9348 C   0  0  0  0  0  0  0  0  0  0  0  0
   25.7705  -18.3203  -16.5047 C   0  0  0  0  0  0  0  0  0  0  0  0
   26.7783  -21.3610  -15.0485 O   0  0  0  0  0  0  0  0  0  0  0  0
   26.5049  -22.5543  -14.7581 N   0  0  0  0  0  0  0  0  0  0  0  0
   25.9580  -20.3556  -14.4649 C   0  0  1  0  0  0  0  0  0  0  0  0
   25.4553  -20.4409  -13.0950 C   0  0  0  0  0  0  0  0  0  0  0  0
   26.5955  -20.6198  -12.1290 C   0  0  0  0  0  0  0  0  0  0  0  0
   26.1756  -20.6418  -10.7103 C   0  0  0  0  0  0  0  0  0  0  0  0
   26.3169  -19.4966   -9.9164 C   0  0  0  0  0  0  0  0  0  0  0  0
   25.9188  -19.5234   -8.5960 C   0  0  0  0  0  0  0  0  0  0  0  0
   25.3719  -20.6658   -8.0108 C   0  0  0  0  0  0  0  0  0  0  0  0
   25.2441  -21.7740   -8.8096 C   0  0  0  0  0  0  0  0  0  0  0  0
   25.6390  -21.7514  -10.1247 C   0  0  0  0  0  0  0  0  0  0  0  0
   24.5790  -19.3088  -12.8121 O   0  0  0  0  0  0  0  0  0  0  0  0
   23.4264  -19.4635  -12.2846 O   0  0  0  0  0  0  0  0  0  0  0  0
  2  1  1  0
  3  2  2  0
  4  2  1  0
  5  4  1  0
  6  7  1  0
  6  5  1  0
  8 10  1  0
  8  7  1  0
  8  9  1  6
 10 12  1  0
 11 10  2  0
 12 13  1  0
 13 24  1  0
 13 14  1  1
 14 15  1  0
 15 23  1  0
 15 16  2  0
 16 17  1  0
 18 17  1  0
 18 19  2  0
 20 19  1  0
 21 20  2  0
 22 23  2  0
 22 21  1  0
 23 18  1  0
 24 25  2  0
 26 27  1  0
 26 24  1  0
 27 35  1  0
 27 28  1  6
 29 28  1  0
 30 29  2  0
 31 30  1  0
 32 31  2  0
 32 33  1  0
 33 34  2  0
 34 29  1  0
 35 36  2  0
 35 37  1  0
M  END
$$$$
