RWF.pdb
     RDKit          3D

 37 39  0  0  1  0  0  0  0  0999 V2000
   29.4369  -26.3516  -15.8043 N   0  0  0  0  0  0  0  0  0  0  0  0
   28.7018  -26.6348  -16.9858 C   0  0  0  0  0  0  0  0  0  0  0  0
   29.0638  -27.6459  -17.7093 N   0  0  0  0  0  0  0  0  0  0  0  0
   27.5875  -25.8495  -17.4000 N   0  0  0  0  0  0  0  0  0  0  0  0
   27.2738  -24.5939  -16.7179 C   0  0  0  0  0  0  0  0  0  0  0  0
   28.3945  -23.6047  -16.8444 C   0  0  0  0  0  0  0  0  0  0  0  0
   28.5450  -22.7191  -15.6226 C   0  0  0  0  0  0  0  0  0  0  0  0
   27.5050  -21.6345  -15.7396 C   0  0  2  0  0  0  0  0  0  0  0  0
   27.8006  -20.8338  -16.8926 N   0  0  0  0  0  0  0  0  0  0  0  0
   27.4000  -20.7784  -14.5512 C   0  0  0  0  0  0  0  0  0  0  0  0
   28.3857  -20.0703  -14.1737 O   0  0  0  0  0  0  0  0  0  0  0  0
   28.6046  -27.8587  -18.6175 N   0  0  0  0  0  0  0  0  0  0  0  0
   26.2269  -20.6764  -13.7543 C   0  0  2  0  0  0  0  0  0  0  0  0
   26.1588  -19.8849  -12.5400 C   0  0  0  0  0  0  0  0  0  0  0  0
   24.9653  -18.9621  -12.6797 C   0  0  0  0  0  0  0  0  0  0  0  0
   23.6943  -19.7239  -12.8122 C   0  0  0  0  0  0  0  0  0  0  0  0
   22.9074  -20.2269  -11.7879 N   0  0  0  0  0  0  0  0  0  0  0  0
   21.8353  -20.8575  -12.3440 C   0  0  0  0  0  0  0  0  0  0  0  0
   21.8926  -20.7858  -13.6699 C   0  0  0  0  0  0  0  0  0  0  0  0
   21.0545  -21.2631  -14.6547 C   0  0  0  0  0  0  0  0  0  0  0  0
   21.3453  -21.0502  -15.9806 C   0  0  0  0  0  0  0  0  0  0  0  0
   22.4868  -20.3530  -16.2987 C   0  0  0  0  0  0  0  0  0  0  0  0
   23.3196  -19.8790  -15.3156 C   0  0  0  0  0  0  0  0  0  0  0  0
   23.0522  -20.0782  -13.9787 C   0  0  0  0  0  0  0  0  0  0  0  0
   26.0773  -20.7429  -11.3308 O   0  0  0  0  0  0  0  0  0  0  0  0
   25.4175  -21.8138  -11.3673 N   0  0  0  0  0  0  0  0  0  0  0  0
   26.7138  -20.4246  -10.0987 C   0  0  2  0  0  0  0  0  0  0  0  0
   26.5584  -21.2379   -8.8942 C   0  0  0  0  0  0  0  0  0  0  0  0
   27.8224  -21.2110   -8.0775 C   0  0  0  0  0  0  0  0  0  0  0  0
   27.8419  -20.1505   -7.0459 C   0  0  0  0  0  0  0  0  0  0  0  0
   28.0783  -18.8187   -7.4097 C   0  0  0  0  0  0  0  0  0  0  0  0
   28.0902  -17.8349   -6.4429 C   0  0  0  0  0  0  0  0  0  0  0  0
   27.8724  -18.1194   -5.0945 C   0  0  0  0  0  0  0  0  0  0  0  0
   27.6431  -19.4313   -4.7643 C   0  0  0  0  0  0  0  0  0  0  0  0
   27.6303  -20.4138   -5.7238 C   0  0  0  0  0  0  0  0  0  0  0  0
   25.3513  -20.8427   -8.1758 O   0  0  0  0  0  0  0  0  0  0  0  0
   24.7666  -19.7299   -8.4007 O   0  0  0  0  0  0  0  0  0  0  0  0
  2  1  1  0
  3  2  2  0
  4  2  1  0
  5  4  1  0
  6  7  1  0
  6  5  1  0
  8 10  1  0
  8  7  1  0
  8  9  1  6
 10 12  1  0
 11 10  2  0
 12 13  1  0
 13 24  1  0
 13 14  1  6
 14 15  1  0
 15 23  1  0
 15 16  2  0
 16 17  1  0
 18 17  1  0
 18 19  2  0
 20 19  1  0
 21 20  2  0
 22 23  2  0
 22 21  1  0
 23 18  1  0
 24 25  2  0
 26 27  1  0
 26 24  1  0
 27 35  1  0
 27 28  1  1
 29 28  1  0
 30 29  2  0
 31 30  1  0
 32 31  2  0
 32 33  1  0
 33 34  2  0
 34 29  1  0
 35 36  2  0
 35 37  1  0
M  END
$$$$
