RWF.pdb
     RDKit          3D

 37 39  0  0  1  0  0  0  0  0999 V2000
   29.4378  -17.7998  -18.7373 N   0  0  0  0  0  0  0  0  0  0  0  0
   29.0743  -16.7311  -17.8756 C   0  0  0  0  0  0  0  0  0  0  0  0
   28.8970  -15.5567  -18.3915 N   0  0  0  0  0  0  0  0  0  0  0  0
   28.8999  -16.9055  -16.4724 N   0  0  0  0  0  0  0  0  0  0  0  0
   29.0353  -18.2317  -15.8699 C   0  0  0  0  0  0  0  0  0  0  0  0
   28.0397  -19.1985  -16.4396 C   0  0  0  0  0  0  0  0  0  0  0  0
   27.1065  -19.7751  -15.3924 C   0  0  0  0  0  0  0  0  0  0  0  0
   27.9173  -20.7465  -14.5735 C   0  0  2  0  0  0  0  0  0  0  0  0
   28.2142  -21.8951  -15.3799 N   0  0  0  0  0  0  0  0  0  0  0  0
   27.2637  -21.1669  -13.3276 C   0  0  0  0  0  0  0  0  0  0  0  0
   26.2653  -21.9531  -13.3533 O   0  0  0  0  0  0  0  0  0  0  0  0
   28.6862  -14.7277  -17.8004 N   0  0  0  0  0  0  0  0  0  0  0  0
   27.6810  -20.7426  -12.0363 C   0  0  2  0  0  0  0  0  0  0  0  0
   26.9088  -20.9878  -10.8324 C   0  0  0  0  0  0  0  0  0  0  0  0
   27.6796  -20.3764   -9.6802 C   0  0  0  0  0  0  0  0  0  0  0  0
   26.9287  -20.4805   -8.4001 C   0  0  0  0  0  0  0  0  0  0  0  0
   25.6458  -20.9732   -8.2181 N   0  0  0  0  0  0  0  0  0  0  0  0
   25.3405  -20.8885   -6.8931 C   0  0  0  0  0  0  0  0  0  0  0  0
   26.3588  -20.3681   -6.2157 C   0  0  0  0  0  0  0  0  0  0  0  0
   26.5267  -20.0891   -4.8762 C   0  0  0  0  0  0  0  0  0  0  0  0
   27.7013  -19.5405   -4.4208 C   0  0  0  0  0  0  0  0  0  0  0  0
   28.6992  -19.2782   -5.3295 C   0  0  0  0  0  0  0  0  0  0  0  0
   28.5288  -19.5571   -6.6629 C   0  0  0  0  0  0  0  0  0  0  0  0
   27.3617  -20.1071   -7.1466 C   0  0  0  0  0  0  0  0  0  0  0  0
   25.5304  -20.4476  -10.9464 O   0  0  0  0  0  0  0  0  0  0  0  0
   25.3546  -19.2128  -11.1129 N   0  0  0  0  0  0  0  0  0  0  0  0
   24.3624  -21.2572  -10.8773 C   0  0  1  0  0  0  0  0  0  0  0  0
   23.0170  -20.7249  -11.0847 C   0  0  0  0  0  0  0  0  0  0  0  0
   22.3390  -21.4430  -12.2204 C   0  0  0  0  0  0  0  0  0  0  0  0
   20.9285  -21.0431  -12.4199 C   0  0  0  0  0  0  0  0  0  0  0  0
   19.9001  -21.7453  -11.7785 C   0  0  0  0  0  0  0  0  0  0  0  0
   18.5879  -21.3635  -11.9657 C   0  0  0  0  0  0  0  0  0  0  0  0
   18.2393  -20.2875  -12.7824 C   0  0  0  0  0  0  0  0  0  0  0  0
   19.2648  -19.6162  -13.3990 C   0  0  0  0  0  0  0  0  0  0  0  0
   20.5726  -19.9929  -13.2153 C   0  0  0  0  0  0  0  0  0  0  0  0
   22.2788  -20.7260   -9.8258 O   0  0  0  0  0  0  0  0  0  0  0  0
   22.4112  -21.6620   -8.9673 O   0  0  0  0  0  0  0  0  0  0  0  0
  2  1  1  0
  3  2  2  0
  4  2  1  0
  5  4  1  0
  6  7  1  0
  6  5  1  0
  8 10  1  0
  8  7  1  0
  8  9  1  6
 10 12  1  0
 11 10  2  0
 12 13  1  0
 13 24  1  0
 13 14  1  1
 14 15  1  0
 15 23  1  0
 15 16  2  0
 16 17  1  0
 18 17  1  0
 18 19  2  0
 20 19  1  0
 21 20  2  0
 22 23  2  0
 22 21  1  0
 23 18  1  0
 24 25  2  0
 26 27  1  0
 26 24  1  0
 27 35  1  0
 27 28  1  1
 29 28  1  0
 30 29  2  0
 31 30  1  0
 32 31  2  0
 32 33  1  0
 33 34  2  0
 34 29  1  0
 35 36  2  0
 35 37  1  0
M  END
$$$$
