RWF.pdb
     RDKit          3D

 37 39  0  0  1  0  0  0  0  0999 V2000
   19.7245  -17.0055  -19.4520 N   0  0  0  0  0  0  0  0  0  0  0  0
   19.1731  -17.4908  -18.2367 C   0  0  0  0  0  0  0  0  0  0  0  0
   17.8870  -17.4625  -18.0889 N   0  0  0  0  0  0  0  0  0  0  0  0
   19.9812  -18.0038  -17.1813 N   0  0  0  0  0  0  0  0  0  0  0  0
   21.4402  -17.9441  -17.2715 C   0  0  0  0  0  0  0  0  0  0  0  0
   21.9834  -19.0477  -18.1302 C   0  0  0  0  0  0  0  0  0  0  0  0
   23.4990  -19.0712  -18.1777 C   0  0  0  0  0  0  0  0  0  0  0  0
   23.9605  -19.8599  -16.9791 C   0  0  2  0  0  0  0  0  0  0  0  0
   22.9800  -19.7359  -15.9393 N   0  0  0  0  0  0  0  0  0  0  0  0
   25.2788  -19.4579  -16.4724 C   0  0  0  0  0  0  0  0  0  0  0  0
   26.3283  -19.6700  -17.1574 O   0  0  0  0  0  0  0  0  0  0  0  0
   17.4297  -17.8159  -17.2246 N   0  0  0  0  0  0  0  0  0  0  0  0
   25.4803  -18.8207  -15.2174 C   0  0  2  0  0  0  0  0  0  0  0  0
   26.7817  -18.3792  -14.7515 C   0  0  0  0  0  0  0  0  0  0  0  0
   26.6645  -16.8994  -14.4482 C   0  0  0  0  0  0  0  0  0  0  0  0
   26.1781  -16.1337  -15.6273 C   0  0  0  0  0  0  0  0  0  0  0  0
   24.9707  -15.4643  -15.7526 N   0  0  0  0  0  0  0  0  0  0  0  0
   24.9240  -14.8971  -16.9905 C   0  0  0  0  0  0  0  0  0  0  0  0
   26.0366  -15.1670  -17.6656 C   0  0  0  0  0  0  0  0  0  0  0  0
   26.4507  -14.8206  -18.9340 C   0  0  0  0  0  0  0  0  0  0  0  0
   27.6729  -15.2352  -19.4054 C   0  0  0  0  0  0  0  0  0  0  0  0
   28.4681  -15.9999  -18.5849 C   0  0  0  0  0  0  0  0  0  0  0  0
   28.0528  -16.3433  -17.3222 C   0  0  0  0  0  0  0  0  0  0  0  0
   26.8325  -15.9413  -16.8244 C   0  0  0  0  0  0  0  0  0  0  0  0
   27.2397  -19.1667  -13.5788 O   0  0  0  0  0  0  0  0  0  0  0  0
   28.3385  -18.8911  -13.0312 N   0  0  0  0  0  0  0  0  0  0  0  0
   26.4968  -20.2430  -13.0182 C   0  0  1  0  0  0  0  0  0  0  0  0
   26.9023  -20.9318  -11.7944 C   0  0  0  0  0  0  0  0  0  0  0  0
   26.4276  -20.1729  -10.5845 C   0  0  0  0  0  0  0  0  0  0  0  0
   24.9652  -20.2466  -10.3718 C   0  0  0  0  0  0  0  0  0  0  0  0
   24.4496  -20.9003   -9.2455 C   0  0  0  0  0  0  0  0  0  0  0  0
   23.0852  -20.9607   -9.0516 C   0  0  0  0  0  0  0  0  0  0  0  0
   22.1839  -20.3866   -9.9485 C   0  0  0  0  0  0  0  0  0  0  0  0
   22.7142  -19.7521  -11.0435 C   0  0  0  0  0  0  0  0  0  0  0  0
   24.0719  -19.6896  -11.2401 C   0  0  0  0  0  0  0  0  0  0  0  0
   26.4888  -22.3303  -11.8468 O   0  0  0  0  0  0  0  0  0  0  0  0
   26.6970  -23.1320  -10.8749 O   0  0  0  0  0  0  0  0  0  0  0  0
  2  1  1  0
  3  2  2  0
  4  2  1  0
  5  4  1  0
  6  7  1  0
  6  5  1  0
  8 10  1  0
  8  7  1  0
  8  9  1  1
 10 12  1  0
 11 10  2  0
 12 13  1  0
 13 24  1  0
 13 14  1  6
 14 15  1  0
 15 23  1  0
 15 16  2  0
 16 17  1  0
 18 17  1  0
 18 19  2  0
 20 19  1  0
 21 20  2  0
 22 23  2  0
 22 21  1  0
 23 18  1  0
 24 25  2  0
 26 27  1  0
 26 24  1  0
 27 35  1  0
 27 28  1  1
 29 28  1  0
 30 29  2  0
 31 30  1  0
 32 31  2  0
 32 33  1  0
 33 34  2  0
 34 29  1  0
 35 36  2  0
 35 37  1  0
M  END
$$$$
