RWF.pdb
     RDKit          3D

 37 39  0  0  1  0  0  0  0  0999 V2000
   28.8875  -19.0300  -18.8324 N   0  0  0  0  0  0  0  0  0  0  0  0
   27.5352  -18.6010  -18.7716 C   0  0  0  0  0  0  0  0  0  0  0  0
   26.7693  -18.8315  -19.7900 N   0  0  0  0  0  0  0  0  0  0  0  0
   26.9960  -17.9297  -17.6365 N   0  0  0  0  0  0  0  0  0  0  0  0
   27.7874  -17.7932  -16.4136 C   0  0  0  0  0  0  0  0  0  0  0  0
   28.0393  -19.1249  -15.7704 C   0  0  0  0  0  0  0  0  0  0  0  0
   27.0618  -19.4392  -14.6544 C   0  0  0  0  0  0  0  0  0  0  0  0
   27.4507  -20.7861  -14.1008 C   0  0  2  0  0  0  0  0  0  0  0  0
   27.1080  -21.7960  -15.0602 N   0  0  0  0  0  0  0  0  0  0  0  0
   26.8343  -21.0987  -12.8052 C   0  0  0  0  0  0  0  0  0  0  0  0
   25.6460  -21.5457  -12.7442 O   0  0  0  0  0  0  0  0  0  0  0  0
   25.7680  -18.5514  -19.7936 N   0  0  0  0  0  0  0  0  0  0  0  0
   27.4949  -20.9322  -11.5572 C   0  0  2  0  0  0  0  0  0  0  0  0
   26.8420  -21.1458  -10.2791 C   0  0  0  0  0  0  0  0  0  0  0  0
   27.8907  -20.9356   -9.2059 C   0  0  0  0  0  0  0  0  0  0  0  0
   27.2834  -20.8705   -7.8494 C   0  0  0  0  0  0  0  0  0  0  0  0
   26.0222  -21.3059   -7.4735 N   0  0  0  0  0  0  0  0  0  0  0  0
   25.8650  -21.0594   -6.1428 C   0  0  0  0  0  0  0  0  0  0  0  0
   26.9578  -20.4893   -5.6454 C   0  0  0  0  0  0  0  0  0  0  0  0
   27.2750  -20.0601   -4.3744 C   0  0  0  0  0  0  0  0  0  0  0  0
   28.4991  -19.4920   -4.1161 C   0  0  0  0  0  0  0  0  0  0  0  0
   29.3946  -19.3630   -5.1514 C   0  0  0  0  0  0  0  0  0  0  0  0
   29.0757  -19.7913   -6.4161 C   0  0  0  0  0  0  0  0  0  0  0  0
   27.8558  -20.3643   -6.7029 C   0  0  0  0  0  0  0  0  0  0  0  0
   25.6662  -20.2549  -10.1090 O   0  0  0  0  0  0  0  0  0  0  0  0
   25.8316  -19.0103  -10.0263 N   0  0  0  0  0  0  0  0  0  0  0  0
   24.3272  -20.7297  -10.0310 C   0  0  1  0  0  0  0  0  0  0  0  0
   23.2265  -20.1195  -10.7745 C   0  0  0  0  0  0  0  0  0  0  0  0
   23.5880  -19.9857  -12.2294 C   0  0  0  0  0  0  0  0  0  0  0  0
   22.5453  -19.3226  -13.0431 C   0  0  0  0  0  0  0  0  0  0  0  0
   22.7029  -19.2059  -14.4300 C   0  0  0  0  0  0  0  0  0  0  0  0
   21.7242  -18.5906  -15.1826 C   0  0  0  0  0  0  0  0  0  0  0  0
   20.5644  -18.0713  -14.6066 C   0  0  0  0  0  0  0  0  0  0  0  0
   20.4340  -18.1985  -13.2466 C   0  0  0  0  0  0  0  0  0  0  0  0
   21.4060  -18.8104  -12.4938 C   0  0  0  0  0  0  0  0  0  0  0  0
   21.9849  -20.8396  -10.5111 O   0  0  0  0  0  0  0  0  0  0  0  0
   20.9737  -20.2684   -9.9800 O   0  0  0  0  0  0  0  0  0  0  0  0
  2  1  1  0
  3  2  2  0
  4  2  1  0
  5  4  1  0
  6  7  1  0
  6  5  1  0
  8 10  1  0
  8  7  1  0
  8  9  1  6
 10 12  1  0
 11 10  2  0
 12 13  1  0
 13 24  1  0
 13 14  1  6
 14 15  1  0
 15 23  1  0
 15 16  2  0
 16 17  1  0
 18 17  1  0
 18 19  2  0
 20 19  1  0
 21 20  2  0
 22 23  2  0
 22 21  1  0
 23 18  1  0
 24 25  2  0
 26 27  1  0
 26 24  1  0
 27 35  1  0
 27 28  1  1
 29 28  1  0
 30 29  2  0
 31 30  1  0
 32 31  2  0
 32 33  1  0
 33 34  2  0
 34 29  1  0
 35 36  2  0
 35 37  1  0
M  END
$$$$
