WPK.pdb
     RDKit          3D

 31 33  0  0  1  0  0  0  0  0999 V2000
    6.0210  -17.7979   24.3082 N   0  0  0  0  0  0  0  0  0  0  0  0
    6.6399  -16.5626   23.8985 C   0  0  1  0  0  0  0  0  0  0  0  0
    7.4046  -16.0133   25.0740 C   0  0  0  0  0  0  0  0  0  0  0  0
    6.6658  -15.0115   25.8324 C   0  0  0  0  0  0  0  0  0  0  0  0
    5.4995  -15.2230   26.5274 C   0  0  0  0  0  0  0  0  0  0  0  0
    5.1374  -14.0576   27.0913 N   0  0  0  0  0  0  0  0  0  0  0  0
    6.0085  -13.0861   26.8023 C   0  0  0  0  0  0  0  0  0  0  0  0
    6.0699  -11.7508   27.1407 C   0  0  0  0  0  0  0  0  0  0  0  0
    7.1049  -10.9629   26.6940 C   0  0  0  0  0  0  0  0  0  0  0  0
    8.0787  -11.5347   25.9019 C   0  0  0  0  0  0  0  0  0  0  0  0
    8.0101  -12.8616   25.5707 C   0  0  0  0  0  0  0  0  0  0  0  0
    6.9854  -13.6854   26.0005 C   0  0  0  0  0  0  0  0  0  0  0  0
    7.4631  -16.6643   22.6793 C   0  0  0  0  0  0  0  0  0  0  0  0
    7.7881  -17.8272   22.2905 O   0  0  0  0  0  0  0  0  0  0  0  0
    7.9258  -15.5697   21.8998 N   0  0  0  0  0  0  0  0  0  0  0  0
    7.6356  -14.1691   22.1000 C   0  0  0  0  0  0  0  0  0  0  0  0
    8.1542  -13.4442   20.8624 C   0  0  0  0  0  0  0  0  0  0  0  0
    8.3078  -14.5845   19.8433 C   0  0  0  0  0  0  0  0  0  0  0  0
    8.7870  -15.6871   20.7562 C   0  0  1  0  0  0  0  0  0  0  0  0
   10.2105  -15.4379   21.0663 C   0  0  0  0  0  0  0  0  0  0  0  0
   10.4387  -14.4822   21.8728 O   0  0  0  0  0  0  0  0  0  0  0  0
   11.2835  -16.1641   20.5442 N   0  0  0  0  0  0  0  0  0  0  0  0
   12.3794  -16.7116   21.4445 C   0  0  1  0  0  0  0  0  0  0  0  0
   11.7980  -17.9103   22.0449 C   0  0  0  0  0  0  0  0  0  0  0  0
   12.5246  -18.7698   22.9923 C   0  0  0  0  0  0  0  0  0  0  0  0
   11.7134  -19.8479   23.5883 C   0  0  0  0  0  0  0  0  0  0  0  0
   12.5541  -20.7789   24.4691 C   0  0  0  0  0  0  0  0  0  0  0  0
   11.9075  -20.7868   25.7813 N   0  0  0  0  0  0  0  0  0  0  0  0
   13.6246  -16.6527   20.7569 C   0  0  0  0  0  0  0  0  0  0  0  0
   13.8615  -16.6695   19.3981 O   0  0  0  0  0  0  0  0  0  0  0  0
   14.7017  -16.5844   21.4626 O   0  0  0  0  0  0  0  0  0  0  0  0
  2  1  1  1
  2 13  1  0
  2  3  1  0
  3  4  1  0
  4  5  2  0
  5  6  1  0
  7  8  2  0
  7  6  1  0
  9  8  1  0
 10  9  2  0
 11 10  1  0
 11 12  2  0
 12  4  1  0
 12  7  1  0
 13 14  2  0
 13 15  1  0
 15 19  1  0
 15 16  1  0
 16 17  1  0
 18 17  1  0
 19 18  1  0
 19 20  1  1
 21 20  2  0
 22 20  1  0
 23 29  1  0
 23 22  1  0
 23 24  1  6
 25 24  1  0
 26 25  1  0
 27 26  1  0
 27 28  1  0
 29 30  1  0
 31 29  2  0
M  END
$$$$
