WPK.pdb
     RDKit          3D

 31 33  0  0  1  0  0  0  0  0999 V2000
    6.1486  -18.0157   24.3949 N   0  0  0  0  0  0  0  0  0  0  0  0
    6.7264  -16.7526   24.0107 C   0  0  1  0  0  0  0  0  0  0  0  0
    7.4505  -16.1897   25.2053 C   0  0  0  0  0  0  0  0  0  0  0  0
    6.7373  -15.0986   25.8576 C   0  0  0  0  0  0  0  0  0  0  0  0
    5.4787  -15.1695   26.4042 C   0  0  0  0  0  0  0  0  0  0  0  0
    5.1787  -13.9601   26.9088 N   0  0  0  0  0  0  0  0  0  0  0  0
    6.1787  -13.0934   26.7218 C   0  0  0  0  0  0  0  0  0  0  0  0
    6.3425  -11.7651   27.0537 C   0  0  0  0  0  0  0  0  0  0  0  0
    7.5036  -11.1019   26.7321 C   0  0  0  0  0  0  0  0  0  0  0  0
    8.4994  -11.7913   26.0719 C   0  0  0  0  0  0  0  0  0  0  0  0
    8.3284  -13.1103   25.7462 C   0  0  0  0  0  0  0  0  0  0  0  0
    7.1757  -13.8107   26.0526 C   0  0  0  0  0  0  0  0  0  0  0  0
    7.5723  -16.8072   22.8041 C   0  0  0  0  0  0  0  0  0  0  0  0
    7.9702  -17.9495   22.4222 O   0  0  0  0  0  0  0  0  0  0  0  0
    7.9822  -15.6881   22.0298 N   0  0  0  0  0  0  0  0  0  0  0  0
    7.6208  -14.3047   22.2329 C   0  0  0  0  0  0  0  0  0  0  0  0
    8.1070  -13.5506   20.9996 C   0  0  0  0  0  0  0  0  0  0  0  0
    8.3222  -14.6785   19.9778 C   0  0  0  0  0  0  0  0  0  0  0  0
    8.8529  -15.7583   20.8895 C   0  0  1  0  0  0  0  0  0  0  0  0
   10.2607  -15.4384   21.2063 C   0  0  0  0  0  0  0  0  0  0  0  0
   10.4362  -14.5924   22.1387 O   0  0  0  0  0  0  0  0  0  0  0  0
   11.3719  -15.9905   20.5646 N   0  0  0  0  0  0  0  0  0  0  0  0
   12.4359  -16.7498   21.3409 C   0  0  1  0  0  0  0  0  0  0  0  0
   11.6982  -17.7870   22.0586 C   0  0  0  0  0  0  0  0  0  0  0  0
   12.0976  -18.2897   23.3822 C   0  0  0  0  0  0  0  0  0  0  0  0
   11.2403  -19.3659   23.9136 C   0  0  0  0  0  0  0  0  0  0  0  0
   11.6758  -19.8076   25.3152 C   0  0  0  0  0  0  0  0  0  0  0  0
   10.6768  -20.7786   25.7617 N   0  0  0  0  0  0  0  0  0  0  0  0
   13.5632  -16.9697   20.4997 C   0  0  0  0  0  0  0  0  0  0  0  0
   14.9007  -16.9883   20.8368 O   0  0  0  0  0  0  0  0  0  0  0  0
   13.3497  -17.1722   19.2442 O   0  0  0  0  0  0  0  0  0  0  0  0
  2  1  1  1
  2 13  1  0
  2  3  1  0
  3  4  1  0
  4  5  2  0
  5  6  1  0
  7  8  2  0
  7  6  1  0
  9  8  1  0
 10  9  2  0
 11 10  1  0
 11 12  2  0
 12  4  1  0
 12  7  1  0
 13 14  2  0
 13 15  1  0
 15 19  1  0
 15 16  1  0
 16 17  1  0
 18 17  1  0
 19 18  1  0
 19 20  1  1
 21 20  2  0
 22 20  1  0
 23 29  1  0
 23 22  1  0
 23 24  1  6
 25 24  1  0
 26 25  1  0
 27 26  1  0
 27 28  1  0
 29 30  1  0
 31 29  2  0
M  END
$$$$
