WPK.pdb
     RDKit          3D

 31 33  0  0  1  0  0  0  0  0999 V2000
    6.8184  -17.6522   24.4246 N   0  0  0  0  0  0  0  0  0  0  0  0
    7.2518  -16.4179   23.8202 C   0  0  1  0  0  0  0  0  0  0  0  0
    7.9426  -15.5990   24.8787 C   0  0  0  0  0  0  0  0  0  0  0  0
    7.0340  -14.7625   25.6529 C   0  0  0  0  0  0  0  0  0  0  0  0
    5.8691  -15.1761   26.2528 C   0  0  0  0  0  0  0  0  0  0  0  0
    5.3223  -14.1140   26.8695 N   0  0  0  0  0  0  0  0  0  0  0  0
    6.0699  -13.0184   26.7059 C   0  0  0  0  0  0  0  0  0  0  0  0
    5.9321  -11.7162   27.1378 C   0  0  0  0  0  0  0  0  0  0  0  0
    6.8756  -10.7688   26.8156 C   0  0  0  0  0  0  0  0  0  0  0  0
    7.9608  -11.1472   26.0528 C   0  0  0  0  0  0  0  0  0  0  0  0
    8.0900  -12.4425   25.6281 C   0  0  0  0  0  0  0  0  0  0  0  0
    7.1625  -13.4228   25.9318 C   0  0  0  0  0  0  0  0  0  0  0  0
    8.0689  -16.5847   22.6040 C   0  0  0  0  0  0  0  0  0  0  0  0
    8.5098  -17.7473   22.3528 O   0  0  0  0  0  0  0  0  0  0  0  0
    8.4069  -15.5533   21.6865 N   0  0  0  0  0  0  0  0  0  0  0  0
    8.0222  -14.1629   21.7533 C   0  0  0  0  0  0  0  0  0  0  0  0
    8.4202  -13.5448   20.4171 C   0  0  0  0  0  0  0  0  0  0  0  0
    8.6073  -14.7772   19.5178 C   0  0  0  0  0  0  0  0  0  0  0  0
    9.2147  -15.7361   20.5129 C   0  0  1  0  0  0  0  0  0  0  0  0
   10.6293  -15.3556   20.7099 C   0  0  0  0  0  0  0  0  0  0  0  0
   11.1542  -14.6823   19.7681 O   0  0  0  0  0  0  0  0  0  0  0  0
   11.3980  -15.6805   21.8302 N   0  0  0  0  0  0  0  0  0  0  0  0
   12.2527  -16.9373   21.8641 C   0  0  1  0  0  0  0  0  0  0  0  0
   11.2907  -18.0371   21.8542 C   0  0  0  0  0  0  0  0  0  0  0  0
   11.6717  -19.4381   21.6170 C   0  0  0  0  0  0  0  0  0  0  0  0
   11.8324  -20.2454   22.8410 C   0  0  0  0  0  0  0  0  0  0  0  0
   12.3693  -21.6485   22.5369 C   0  0  0  0  0  0  0  0  0  0  0  0
   12.5225  -22.3120   23.8316 N   0  0  0  0  0  0  0  0  0  0  0  0
   13.3447  -16.7866   20.9632 C   0  0  0  0  0  0  0  0  0  0  0  0
   13.3326  -16.7942   19.5839 O   0  0  0  0  0  0  0  0  0  0  0  0
   14.5231  -16.6301   21.4631 O   0  0  0  0  0  0  0  0  0  0  0  0
  2  1  1  1
  2 13  1  0
  2  3  1  0
  3  4  1  0
  4  5  2  0
  5  6  1  0
  7  8  2  0
  7  6  1  0
  9  8  1  0
 10  9  2  0
 11 10  1  0
 11 12  2  0
 12  4  1  0
 12  7  1  0
 13 14  2  0
 13 15  1  0
 15 19  1  0
 15 16  1  0
 16 17  1  0
 18 17  1  0
 19 18  1  0
 19 20  1  1
 21 20  2  0
 22 20  1  0
 23 29  1  0
 23 22  1  0
 23 24  1  6
 25 24  1  0
 26 25  1  0
 27 26  1  0
 27 28  1  0
 29 30  1  0
 31 29  2  0
M  END
$$$$
