WPK.pdb
     RDKit          3D

 31 33  0  0  1  0  0  0  0  0999 V2000
    5.7706  -18.4097   24.8704 N   0  0  0  0  0  0  0  0  0  0  0  0
    6.3847  -17.1414   24.5692 C   0  0  1  0  0  0  0  0  0  0  0  0
    6.9753  -16.5963   25.8429 C   0  0  0  0  0  0  0  0  0  0  0  0
    6.5673  -15.2278   26.1349 C   0  0  0  0  0  0  0  0  0  0  0  0
    5.2750  -14.7635   26.1832 C   0  0  0  0  0  0  0  0  0  0  0  0
    5.3175  -13.4540   26.4844 N   0  0  0  0  0  0  0  0  0  0  0  0
    6.5758  -13.0307   26.6375 C   0  0  0  0  0  0  0  0  0  0  0  0
    7.1209  -11.8015   26.9433 C   0  0  0  0  0  0  0  0  0  0  0  0
    8.4839  -11.6455   27.0402 C   0  0  0  0  0  0  0  0  0  0  0  0
    9.2933  -12.7417   26.8258 C   0  0  0  0  0  0  0  0  0  0  0  0
    8.7436  -13.9586   26.5227 C   0  0  0  0  0  0  0  0  0  0  0  0
    7.3785  -14.1547   26.4165 C   0  0  0  0  0  0  0  0  0  0  0  0
    7.3558  -17.1785   23.4600 C   0  0  0  0  0  0  0  0  0  0  0  0
    7.6977  -18.3189   23.0224 O   0  0  0  0  0  0  0  0  0  0  0  0
    7.9439  -16.0446   22.8371 N   0  0  0  0  0  0  0  0  0  0  0  0
    7.7097  -14.6545   23.1512 C   0  0  0  0  0  0  0  0  0  0  0  0
    8.3761  -13.8476   22.0418 C   0  0  0  0  0  0  0  0  0  0  0  0
    8.5630  -14.8927   20.9304 C   0  0  0  0  0  0  0  0  0  0  0  0
    8.8989  -16.1043   21.7657 C   0  0  1  0  0  0  0  0  0  0  0  0
   10.2990  -15.9725   22.2205 C   0  0  0  0  0  0  0  0  0  0  0  0
   10.4713  -15.2947   23.2820 O   0  0  0  0  0  0  0  0  0  0  0  0
   11.4067  -16.5285   21.5760 N   0  0  0  0  0  0  0  0  0  0  0  0
   12.5871  -17.0742   22.3635 C   0  0  1  0  0  0  0  0  0  0  0  0
   12.7719  -18.4321   21.8563 C   0  0  0  0  0  0  0  0  0  0  0  0
   13.7236  -19.3882   22.4430 C   0  0  0  0  0  0  0  0  0  0  0  0
   13.8443  -20.6619   21.7090 C   0  0  0  0  0  0  0  0  0  0  0  0
   14.8579  -21.6076   22.3629 C   0  0  0  0  0  0  0  0  0  0  0  0
   14.8789  -22.8130   21.5344 N   0  0  0  0  0  0  0  0  0  0  0  0
   13.5999  -16.0768   22.4424 C   0  0  0  0  0  0  0  0  0  0  0  0
   14.6253  -15.9589   23.3575 O   0  0  0  0  0  0  0  0  0  0  0  0
   13.5867  -15.1316   21.5652 O   0  0  0  0  0  0  0  0  0  0  0  0
  2  1  1  1
  2 13  1  0
  2  3  1  0
  3  4  1  0
  4  5  2  0
  5  6  1  0
  7  8  2  0
  7  6  1  0
  9  8  1  0
 10  9  2  0
 11 10  1  0
 11 12  2  0
 12  4  1  0
 12  7  1  0
 13 14  2  0
 13 15  1  0
 15 19  1  0
 15 16  1  0
 16 17  1  0
 18 17  1  0
 19 18  1  0
 19 20  1  1
 21 20  2  0
 22 20  1  0
 23 29  1  0
 23 22  1  0
 23 24  1  6
 25 24  1  0
 26 25  1  0
 27 26  1  0
 27 28  1  0
 29 30  1  0
 31 29  2  0
M  END
$$$$
