WPK.pdb
     RDKit          3D

 31 33  0  0  1  0  0  0  0  0999 V2000
    6.2790  -17.3894   23.9951 N   0  0  0  0  0  0  0  0  0  0  0  0
    6.8253  -16.1920   23.4081 C   0  0  1  0  0  0  0  0  0  0  0  0
    7.7179  -15.5384   24.4299 C   0  0  0  0  0  0  0  0  0  0  0  0
    6.9872  -14.8257   25.4705 C   0  0  0  0  0  0  0  0  0  0  0  0
    5.9920  -15.3484   26.2606 C   0  0  0  0  0  0  0  0  0  0  0  0
    5.5749  -14.3798   27.0944 N   0  0  0  0  0  0  0  0  0  0  0  0
    6.2466  -13.2422   26.8932 C   0  0  0  0  0  0  0  0  0  0  0  0
    6.1828  -11.9984   27.4851 C   0  0  0  0  0  0  0  0  0  0  0  0
    7.0133  -10.9833   27.0710 C   0  0  0  0  0  0  0  0  0  0  0  0
    7.9100  -11.2343   26.0533 C   0  0  0  0  0  0  0  0  0  0  0  0
    7.9668  -12.4724   25.4711 C   0  0  0  0  0  0  0  0  0  0  0  0
    7.1485  -13.5176   25.8601 C   0  0  0  0  0  0  0  0  0  0  0  0
    7.4966  -16.3964   22.1111 C   0  0  0  0  0  0  0  0  0  0  0  0
    7.7287  -17.5920   21.7568 O   0  0  0  0  0  0  0  0  0  0  0  0
    7.9079  -15.3674   21.2213 N   0  0  0  0  0  0  0  0  0  0  0  0
    7.6823  -13.9478   21.3619 C   0  0  0  0  0  0  0  0  0  0  0  0
    8.0901  -13.3169   20.0347 C   0  0  0  0  0  0  0  0  0  0  0  0
    8.1021  -14.5204   19.0787 C   0  0  0  0  0  0  0  0  0  0  0  0
    8.6408  -15.5835   20.0050 C   0  0  1  0  0  0  0  0  0  0  0  0
   10.0958  -15.3683   20.1513 C   0  0  0  0  0  0  0  0  0  0  0  0
   10.4368  -14.4310   20.9394 O   0  0  0  0  0  0  0  0  0  0  0  0
   11.0850  -16.1070   19.4977 N   0  0  0  0  0  0  0  0  0  0  0  0
   12.1244  -16.8976   20.2761 C   0  0  1  0  0  0  0  0  0  0  0  0
   11.3446  -17.7466   21.1741 C   0  0  0  0  0  0  0  0  0  0  0  0
   11.9488  -18.5559   22.2438 C   0  0  0  0  0  0  0  0  0  0  0  0
   10.9853  -19.3449   23.0342 C   0  0  0  0  0  0  0  0  0  0  0  0
   11.6829  -20.2265   24.0760 C   0  0  0  0  0  0  0  0  0  0  0  0
   10.6157  -20.8383   24.8676 N   0  0  0  0  0  0  0  0  0  0  0  0
   13.1360  -17.3499   19.3823 C   0  0  0  0  0  0  0  0  0  0  0  0
   14.4829  -17.5266   19.6220 O   0  0  0  0  0  0  0  0  0  0  0  0
   12.7906  -17.6334   18.1726 O   0  0  0  0  0  0  0  0  0  0  0  0
  2  1  1  1
  2 13  1  0
  2  3  1  0
  3  4  1  0
  4  5  2  0
  5  6  1  0
  7  8  2  0
  7  6  1  0
  9  8  1  0
 10  9  2  0
 11 10  1  0
 11 12  2  0
 12  4  1  0
 12  7  1  0
 13 14  2  0
 13 15  1  0
 15 19  1  0
 15 16  1  0
 16 17  1  0
 18 17  1  0
 19 18  1  0
 19 20  1  1
 21 20  2  0
 22 20  1  0
 23 29  1  0
 23 22  1  0
 23 24  1  6
 25 24  1  0
 26 25  1  0
 27 26  1  0
 27 28  1  0
 29 30  1  0
 31 29  2  0
M  END
$$$$
