WPK.pdb
     RDKit          3D

 31 33  0  0  1  0  0  0  0  0999 V2000
    9.2800  -15.2544   24.4737 N   0  0  0  0  0  0  0  0  0  0  0  0
    8.0813  -16.0455   24.3561 C   0  0  1  0  0  0  0  0  0  0  0  0
    7.1891  -15.7145   25.5233 C   0  0  0  0  0  0  0  0  0  0  0  0
    7.6112  -14.5308   26.2616 C   0  0  0  0  0  0  0  0  0  0  0  0
    8.7844  -14.3928   26.9635 C   0  0  0  0  0  0  0  0  0  0  0  0
    8.8030  -13.1597   27.4987 N   0  0  0  0  0  0  0  0  0  0  0  0
    7.6985  -12.4762   27.1841 C   0  0  0  0  0  0  0  0  0  0  0  0
    7.2654  -11.2029   27.4883 C   0  0  0  0  0  0  0  0  0  0  0  0
    6.0560  -10.7450   27.0200 C   0  0  0  0  0  0  0  0  0  0  0  0
    5.2864  -11.5839   26.2411 C   0  0  0  0  0  0  0  0  0  0  0  0
    5.7242  -12.8468   25.9438 C   0  0  0  0  0  0  0  0  0  0  0  0
    6.9337  -13.3426   26.3961 C   0  0  0  0  0  0  0  0  0  0  0  0
    7.3918  -15.9243   23.0582 C   0  0  0  0  0  0  0  0  0  0  0  0
    6.3242  -16.5910   22.9007 O   0  0  0  0  0  0  0  0  0  0  0  0
    7.8208  -15.1237   21.9651 N   0  0  0  0  0  0  0  0  0  0  0  0
    8.2276  -13.7385   22.0024 C   0  0  0  0  0  0  0  0  0  0  0  0
    8.3435  -13.2880   20.5499 C   0  0  0  0  0  0  0  0  0  0  0  0
    7.5470  -14.3662   19.7979 C   0  0  0  0  0  0  0  0  0  0  0  0
    7.9256  -15.5824   20.6079 C   0  0  1  0  0  0  0  0  0  0  0  0
    9.2982  -15.9766   20.2268 C   0  0  0  0  0  0  0  0  0  0  0  0
   10.2335  -15.3121   20.7740 O   0  0  0  0  0  0  0  0  0  0  0  0
    9.6187  -17.0002   19.3318 N   0  0  0  0  0  0  0  0  0  0  0  0
   10.6602  -18.0529   19.6758 C   0  0  1  0  0  0  0  0  0  0  0  0
    9.9033  -19.1220   20.3233 C   0  0  0  0  0  0  0  0  0  0  0  0
   10.5323  -20.3264   20.8871 C   0  0  0  0  0  0  0  0  0  0  0  0
    9.5829  -21.3219   21.4194 C   0  0  0  0  0  0  0  0  0  0  0  0
   10.2954  -22.5800   21.9282 C   0  0  0  0  0  0  0  0  0  0  0  0
    9.2476  -23.4497   22.4625 N   0  0  0  0  0  0  0  0  0  0  0  0
   11.5433  -18.2177   18.5713 C   0  0  0  0  0  0  0  0  0  0  0  0
   11.2529  -18.1912   17.2231 O   0  0  0  0  0  0  0  0  0  0  0  0
   12.7898  -18.4336   18.8214 O   0  0  0  0  0  0  0  0  0  0  0  0
  2  1  1  6
  2 13  1  0
  2  3  1  0
  3  4  1  0
  4  5  2  0
  5  6  1  0
  7  8  2  0
  7  6  1  0
  9  8  1  0
 10  9  2  0
 11 10  1  0
 11 12  2  0
 12  4  1  0
 12  7  1  0
 13 14  2  0
 13 15  1  0
 15 19  1  0
 15 16  1  0
 16 17  1  0
 18 17  1  0
 19 18  1  0
 19 20  1  6
 21 20  2  0
 22 20  1  0
 23 29  1  0
 23 22  1  0
 23 24  1  6
 25 24  1  0
 26 25  1  0
 27 26  1  0
 27 28  1  0
 29 30  1  0
 31 29  2  0
M  END
$$$$
