WPK.pdb
     RDKit          3D

 31 33  0  0  1  0  0  0  0  0999 V2000
    5.9114  -17.5912   24.4020 N   0  0  0  0  0  0  0  0  0  0  0  0
    6.5746  -16.4113   23.9074 C   0  0  1  0  0  0  0  0  0  0  0  0
    7.3749  -15.8192   25.0375 C   0  0  0  0  0  0  0  0  0  0  0  0
    6.7153  -14.6965   25.6924 C   0  0  0  0  0  0  0  0  0  0  0  0
    5.3927  -14.6403   26.0610 C   0  0  0  0  0  0  0  0  0  0  0  0
    5.1744  -13.4446   26.6353 N   0  0  0  0  0  0  0  0  0  0  0  0
    6.2891  -12.7080   26.6640 C   0  0  0  0  0  0  0  0  0  0  0  0
    6.5653  -11.4436   27.1398 C   0  0  0  0  0  0  0  0  0  0  0  0
    7.8326  -10.9191   27.0373 C   0  0  0  0  0  0  0  0  0  0  0  0
    8.8200  -11.6823   26.4498 C   0  0  0  0  0  0  0  0  0  0  0  0
    8.5371  -12.9370   25.9800 C   0  0  0  0  0  0  0  0  0  0  0  0
    7.2757  -13.4982   26.0651 C   0  0  0  0  0  0  0  0  0  0  0  0
    7.3782  -16.6248   22.6895 C   0  0  0  0  0  0  0  0  0  0  0  0
    7.6363  -17.8233   22.3640 O   0  0  0  0  0  0  0  0  0  0  0  0
    7.8907  -15.6018   21.8466 N   0  0  0  0  0  0  0  0  0  0  0  0
    7.6710  -14.1793   21.9651 C   0  0  0  0  0  0  0  0  0  0  0  0
    8.2189  -13.5543   20.6864 C   0  0  0  0  0  0  0  0  0  0  0  0
    8.3112  -14.7583   19.7354 C   0  0  0  0  0  0  0  0  0  0  0  0
    8.7396  -15.8281   20.7102 C   0  0  1  0  0  0  0  0  0  0  0  0
   10.1751  -15.6322   21.0026 C   0  0  0  0  0  0  0  0  0  0  0  0
   10.4377  -14.8570   21.9753 O   0  0  0  0  0  0  0  0  0  0  0  0
   11.2249  -16.2267   20.2984 N   0  0  0  0  0  0  0  0  0  0  0  0
   12.2632  -17.0847   21.0036 C   0  0  1  0  0  0  0  0  0  0  0  0
   11.5345  -18.2838   21.4113 C   0  0  0  0  0  0  0  0  0  0  0  0
   11.9386  -19.1236   22.5496 C   0  0  0  0  0  0  0  0  0  0  0  0
   10.9921  -20.2057   22.8797 C   0  0  0  0  0  0  0  0  0  0  0  0
   11.4346  -20.9986   24.1144 C   0  0  0  0  0  0  0  0  0  0  0  0
   10.3655  -21.9608   24.3814 N   0  0  0  0  0  0  0  0  0  0  0  0
   13.4732  -17.0681   20.2537 C   0  0  0  0  0  0  0  0  0  0  0  0
   14.7697  -17.2044   20.7047 O   0  0  0  0  0  0  0  0  0  0  0  0
   13.3914  -16.8940   18.9786 O   0  0  0  0  0  0  0  0  0  0  0  0
  2  1  1  1
  2 13  1  0
  2  3  1  0
  3  4  1  0
  4  5  2  0
  5  6  1  0
  7  8  2  0
  7  6  1  0
  9  8  1  0
 10  9  2  0
 11 10  1  0
 11 12  2  0
 12  4  1  0
 12  7  1  0
 13 14  2  0
 13 15  1  0
 15 19  1  0
 15 16  1  0
 16 17  1  0
 18 17  1  0
 19 18  1  0
 19 20  1  1
 21 20  2  0
 22 20  1  0
 23 29  1  0
 23 22  1  0
 23 24  1  6
 25 24  1  0
 26 25  1  0
 27 26  1  0
 27 28  1  0
 29 30  1  0
 31 29  2  0
M  END
$$$$
