WPK.pdb
     RDKit          3D

 31 33  0  0  1  0  0  0  0  0999 V2000
    6.4948  -17.7183   24.3750 N   0  0  0  0  0  0  0  0  0  0  0  0
    7.0126  -16.4907   23.8258 C   0  0  1  0  0  0  0  0  0  0  0  0
    7.7463  -15.7637   24.9219 C   0  0  0  0  0  0  0  0  0  0  0  0
    6.9174  -14.8033   25.6398 C   0  0  0  0  0  0  0  0  0  0  0  0
    5.7064  -15.0667   26.2332 C   0  0  0  0  0  0  0  0  0  0  0  0
    5.2633  -13.9267   26.7912 N   0  0  0  0  0  0  0  0  0  0  0  0
    6.1234  -12.9228   26.5951 C   0  0  0  0  0  0  0  0  0  0  0  0
    6.1148  -11.5949   26.9665 C   0  0  0  0  0  0  0  0  0  0  0  0
    7.1567  -10.7656   26.6224 C   0  0  0  0  0  0  0  0  0  0  0  0
    8.2087  -11.2885   25.8995 C   0  0  0  0  0  0  0  0  0  0  0  0
    8.2092  -12.6084   25.5349 C   0  0  0  0  0  0  0  0  0  0  0  0
    7.1801  -13.4728   25.8622 C   0  0  0  0  0  0  0  0  0  0  0  0
    7.8273  -16.6594   22.6082 C   0  0  0  0  0  0  0  0  0  0  0  0
    8.1837  -17.8381   22.3040 O   0  0  0  0  0  0  0  0  0  0  0  0
    8.2495  -15.6133   21.7438 N   0  0  0  0  0  0  0  0  0  0  0  0
    7.9420  -14.2068   21.8580 C   0  0  0  0  0  0  0  0  0  0  0  0
    8.4131  -13.5597   20.5598 C   0  0  0  0  0  0  0  0  0  0  0  0
    8.5566  -14.7639   19.6154 C   0  0  0  0  0  0  0  0  0  0  0  0
    9.0796  -15.7952   20.5857 C   0  0  1  0  0  0  0  0  0  0  0  0
   10.5071  -15.5049   20.8363 C   0  0  0  0  0  0  0  0  0  0  0  0
   10.7419  -14.5042   21.5843 O   0  0  0  0  0  0  0  0  0  0  0  0
   11.5771  -16.2385   20.3183 N   0  0  0  0  0  0  0  0  0  0  0  0
   12.5087  -17.0250   21.2264 C   0  0  1  0  0  0  0  0  0  0  0  0
   11.6174  -17.8110   22.0765 C   0  0  0  0  0  0  0  0  0  0  0  0
   12.1015  -18.7743   23.0774 C   0  0  0  0  0  0  0  0  0  0  0  0
   11.0487  -19.3448   23.9387 C   0  0  0  0  0  0  0  0  0  0  0  0
   11.6246  -20.2861   25.0025 C   0  0  0  0  0  0  0  0  0  0  0  0
   10.7362  -20.1799   26.1598 N   0  0  0  0  0  0  0  0  0  0  0  0
   13.5866  -17.5452   20.4555 C   0  0  0  0  0  0  0  0  0  0  0  0
   13.5372  -18.3457   19.3332 O   0  0  0  0  0  0  0  0  0  0  0  0
   14.7881  -17.2623   20.8288 O   0  0  0  0  0  0  0  0  0  0  0  0
  2  1  1  1
  2 13  1  0
  2  3  1  0
  3  4  1  0
  4  5  2  0
  5  6  1  0
  7  8  2  0
  7  6  1  0
  9  8  1  0
 10  9  2  0
 11 10  1  0
 11 12  2  0
 12  4  1  0
 12  7  1  0
 13 14  2  0
 13 15  1  0
 15 19  1  0
 15 16  1  0
 16 17  1  0
 18 17  1  0
 19 18  1  0
 19 20  1  1
 21 20  2  0
 22 20  1  0
 23 29  1  0
 23 22  1  0
 23 24  1  6
 25 24  1  0
 26 25  1  0
 27 26  1  0
 27 28  1  0
 29 30  1  0
 31 29  2  0
M  END
$$$$
