RYA.pdb
     RDKit          3D

 29 29  0  0  1  0  0  0  0  0999 V2000
    8.9523  -14.3500   18.2885 N   0  0  0  0  0  0  0  0  0  0  0  0
    8.1041  -13.2164   18.1834 C   0  0  0  0  0  0  0  0  0  0  0  0
    7.9689  -12.5564   17.0706 N   0  0  0  0  0  0  0  0  0  0  0  0
    7.3722  -12.7745   19.3193 N   0  0  0  0  0  0  0  0  0  0  0  0
    7.3747  -13.6437   20.5053 C   0  0  0  0  0  0  0  0  0  0  0  0
    6.2354  -14.5916   20.4139 C   0  0  0  0  0  0  0  0  0  0  0  0
    5.9930  -15.4607   21.5872 C   0  0  0  0  0  0  0  0  0  0  0  0
    6.7955  -16.7162   21.6669 C   0  0  2  0  0  0  0  0  0  0  0  0
    5.9828  -17.7886   21.1245 N   0  0  0  0  0  0  0  0  0  0  0  0
    6.9405  -17.0313   23.1341 C   0  0  0  0  0  0  0  0  0  0  0  0
    5.8422  -17.0544   23.7883 O   0  0  0  0  0  0  0  0  0  0  0  0
    7.2669  -11.7934   17.0629 O   0  0  0  0  0  0  0  0  0  0  0  0
   10.6773  -13.6841   30.1391 C   0  0  0  0  0  0  0  0  0  0  0  0
   10.0135  -14.3146   29.0790 C   0  0  0  0  0  0  0  0  0  0  0  0
   10.2017  -15.6527   28.8578 C   0  0  0  0  0  0  0  0  0  0  0  0
    9.5434  -16.2605   27.8129 C   0  0  0  0  0  0  0  0  0  0  0  0
    8.7013  -15.5578   26.9847 C   0  0  0  0  0  0  0  0  0  0  0  0
    8.0178  -16.2231   25.8743 C   0  0  1  0  0  0  0  0  0  0  0  0
    8.7984  -16.2486   24.5795 N   0  0  0  0  0  0  0  0  0  0  0  0
    8.1837  -17.2841   23.7548 C   0  0  0  0  0  0  0  0  0  0  0  0
   10.2081  -16.5541   24.8472 O   0  0  0  0  0  0  0  0  0  0  0  0
   10.9474  -15.7867   25.5133 C   0  0  0  0  0  0  0  0  0  0  0  0
    8.5145  -14.2164   27.2087 C   0  0  0  0  0  0  0  0  0  0  0  0
    9.1704  -13.6108   28.2504 C   0  0  0  0  0  0  0  0  0  0  0  0
   12.7004  -19.0779   25.0803 C   0  0  2  0  0  0  0  0  0  0  0  0
   12.2687  -17.8854   24.2219 N   0  0  0  0  0  0  0  0  0  0  0  0
   10.8502  -17.7493   24.3703 C   0  0  0  0  0  0  0  0  0  0  0  0
   12.6916  -18.0602   22.8175 O   0  0  0  0  0  0  0  0  0  0  0  0
   11.8664  -18.1915   21.8804 O   0  0  0  0  0  0  0  0  0  0  0  0
  1  2  1  0
  2  3  2  0
  4  5  1  0
  4  2  1  0
  6  5  1  0
  7  6  1  0
  8 10  1  0
  8  7  1  0
  8  9  1  6
 10 11  2  0
 12 13  1  0
 13 23  2  0
 13 14  1  0
 14 15  2  0
 15 16  1  0
 16 17  1  0
 18 17  1  6
 19 18  1  0
 19 10  1  0
 20 18  1  0
 20 21  2  0
 22 16  2  0
 23 22  1  0
 25 24  1  1
 25 27  1  0
 25 26  1  0
 26 20  1  0
 27 29  1  0
 28 27  2  0
M  END
$$$$
