RYA.pdb
     RDKit          3D

 29 29  0  0  1  0  0  0  0  0999 V2000
   14.4319  -20.1921   18.8756 N   0  0  0  0  0  0  0  0  0  0  0  0
   13.4029  -21.1672   18.7998 C   0  0  0  0  0  0  0  0  0  0  0  0
   13.4159  -22.1168   17.9109 N   0  0  0  0  0  0  0  0  0  0  0  0
   12.3165  -21.1198   19.7158 N   0  0  0  0  0  0  0  0  0  0  0  0
   12.2832  -19.9997   20.6678 C   0  0  0  0  0  0  0  0  0  0  0  0
   11.6073  -18.8416   20.0301 C   0  0  0  0  0  0  0  0  0  0  0  0
   11.4008  -17.6416   20.8715 C   0  0  0  0  0  0  0  0  0  0  0  0
   10.1155  -16.9068   20.6851 C   0  0  2  0  0  0  0  0  0  0  0  0
   10.2854  -16.0099   19.5575 N   0  0  0  0  0  0  0  0  0  0  0  0
    9.9649  -16.0093   21.8870 C   0  0  0  0  0  0  0  0  0  0  0  0
   11.0517  -15.4740   22.2956 O   0  0  0  0  0  0  0  0  0  0  0  0
   12.6100  -22.7691   17.9129 O   0  0  0  0  0  0  0  0  0  0  0  0
    6.1683  -10.9101   28.0449 C   0  0  0  0  0  0  0  0  0  0  0  0
    6.4495  -11.7335   26.9472 C   0  0  0  0  0  0  0  0  0  0  0  0
    5.8219  -12.9444   26.8264 C   0  0  0  0  0  0  0  0  0  0  0  0
    6.1068  -13.7442   25.7430 C   0  0  0  0  0  0  0  0  0  0  0  0
    7.0065  -13.3582   24.7784 C   0  0  0  0  0  0  0  0  0  0  0  0
    7.3005  -14.2286   23.6388 C   0  0  1  0  0  0  0  0  0  0  0  0
    8.6748  -14.8585   23.6661 N   0  0  0  0  0  0  0  0  0  0  0  0
    8.7282  -15.7668   22.5248 C   0  0  0  0  0  0  0  0  0  0  0  0
    8.8722  -15.5824   24.9268 O   0  0  0  0  0  0  0  0  0  0  0  0
    8.9688  -14.9928   26.0323 C   0  0  0  0  0  0  0  0  0  0  0  0
    7.6345  -12.1438   24.9022 C   0  0  0  0  0  0  0  0  0  0  0  0
    7.3501  -11.3466   25.9818 C   0  0  0  0  0  0  0  0  0  0  0  0
    8.9118  -19.2021   25.9481 C   0  0  2  0  0  0  0  0  0  0  0  0
    9.2789  -17.7358   26.1944 N   0  0  0  0  0  0  0  0  0  0  0  0
    8.9701  -17.0156   24.9949 C   0  0  0  0  0  0  0  0  0  0  0  0
   10.6917  -17.6029   26.6043 O   0  0  0  0  0  0  0  0  0  0  0  0
   11.1251  -18.0819   27.6808 O   0  0  0  0  0  0  0  0  0  0  0  0
  1  2  1  0
  2  3  2  0
  4  5  1  0
  4  2  1  0
  6  5  1  0
  7  6  1  0
  8 10  1  0
  8  7  1  0
  8  9  1  6
 10 11  2  0
 12 13  1  0
 13 23  2  0
 13 14  1  0
 14 15  2  0
 15 16  1  0
 16 17  1  0
 18 17  1  6
 19 18  1  0
 19 10  1  0
 20 18  1  0
 20 21  2  0
 22 16  2  0
 23 22  1  0
 25 24  1  1
 25 27  1  0
 25 26  1  0
 26 20  1  0
 27 29  1  0
 28 27  2  0
M  END
$$$$
