RYA.pdb
     RDKit          3D

 29 29  0  0  1  0  0  0  0  0999 V2000
   10.1901  -13.8879   16.2049 N   0  0  0  0  0  0  0  0  0  0  0  0
    8.9597  -13.9401   15.4987 C   0  0  0  0  0  0  0  0  0  0  0  0
    8.9057  -13.8776   14.2005 N   0  0  0  0  0  0  0  0  0  0  0  0
    7.7386  -14.0644   16.2162 N   0  0  0  0  0  0  0  0  0  0  0  0
    7.8249  -14.2211   17.6757 C   0  0  0  0  0  0  0  0  0  0  0  0
    8.7640  -15.3276   17.9897 C   0  0  0  0  0  0  0  0  0  0  0  0
    9.6746  -15.1258   19.1389 C   0  0  0  0  0  0  0  0  0  0  0  0
    9.6780  -16.1903   20.1847 C   0  0  2  0  0  0  0  0  0  0  0  0
    8.4151  -16.8981   20.0907 N   0  0  0  0  0  0  0  0  0  0  0  0
    9.6355  -15.4770   21.5122 C   0  0  0  0  0  0  0  0  0  0  0  0
   10.6234  -14.6959   21.7327 O   0  0  0  0  0  0  0  0  0  0  0  0
    7.9738  -14.0084   13.7652 O   0  0  0  0  0  0  0  0  0  0  0  0
    6.6328  -11.3110   28.6211 C   0  0  0  0  0  0  0  0  0  0  0  0
    6.7836  -12.0796   27.4598 C   0  0  0  0  0  0  0  0  0  0  0  0
    7.7319  -11.7351   26.5341 C   0  0  0  0  0  0  0  0  0  0  0  0
    7.8702  -12.4986   25.3972 C   0  0  0  0  0  0  0  0  0  0  0  0
    7.0797  -13.5991   25.1670 C   0  0  0  0  0  0  0  0  0  0  0  0
    7.2387  -14.3919   23.9467 C   0  0  2  0  0  0  0  0  0  0  0  0
    8.6387  -14.9128   23.7126 N   0  0  0  0  0  0  0  0  0  0  0  0
    8.5939  -15.6457   22.4512 C   0  0  0  0  0  0  0  0  0  0  0  0
    9.0417  -15.7888   24.8183 O   0  0  0  0  0  0  0  0  0  0  0  0
    9.0764  -15.3935   26.0107 C   0  0  0  0  0  0  0  0  0  0  0  0
    6.1297  -13.9420   26.0967 C   0  0  0  0  0  0  0  0  0  0  0  0
    5.9922  -13.1813   27.2299 C   0  0  0  0  0  0  0  0  0  0  0  0
    9.9169  -19.4488   25.0911 C   0  0  2  0  0  0  0  0  0  0  0  0
    9.7749  -18.0482   25.6941 N   0  0  0  0  0  0  0  0  0  0  0  0
    9.4265  -17.1609   24.6245 C   0  0  0  0  0  0  0  0  0  0  0  0
   11.0068  -17.6471   26.4035 O   0  0  0  0  0  0  0  0  0  0  0  0
   11.1919  -17.8984   27.6196 O   0  0  0  0  0  0  0  0  0  0  0  0
  1  2  1  0
  2  3  2  0
  4  5  1  0
  4  2  1  0
  6  5  1  0
  7  6  1  0
  8 10  1  0
  8  7  1  0
  8  9  1  6
 10 11  2  0
 12 13  1  0
 13 23  2  0
 13 14  1  0
 14 15  2  0
 15 16  1  0
 16 17  1  0
 18 17  1  6
 19 18  1  0
 19 10  1  0
 20 18  1  0
 20 21  2  0
 22 16  2  0
 23 22  1  0
 25 24  1  1
 25 27  1  0
 25 26  1  0
 26 20  1  0
 27 29  1  0
 28 27  2  0
M  END
$$$$
