RYA.pdb
     RDKit          3D

 29 29  0  0  1  0  0  0  0  0999 V2000
    9.5066  -14.5551   14.7285 N   0  0  0  0  0  0  0  0  0  0  0  0
    8.1379  -14.3531   15.0466 C   0  0  0  0  0  0  0  0  0  0  0  0
    7.1894  -14.5686   14.1827 N   0  0  0  0  0  0  0  0  0  0  0  0
    7.7739  -13.9016   16.3446 N   0  0  0  0  0  0  0  0  0  0  0  0
    8.8584  -13.6834   17.3134 C   0  0  0  0  0  0  0  0  0  0  0  0
    8.9332  -14.8507   18.2281 C   0  0  0  0  0  0  0  0  0  0  0  0
    9.9008  -14.7641   19.3447 C   0  0  0  0  0  0  0  0  0  0  0  0
    9.9251  -15.9107   20.2993 C   0  0  2  0  0  0  0  0  0  0  0  0
    8.7054  -16.6705   20.0996 N   0  0  0  0  0  0  0  0  0  0  0  0
    9.7997  -15.3140   21.6781 C   0  0  0  0  0  0  0  0  0  0  0  0
   10.8311  -14.6746   22.0811 O   0  0  0  0  0  0  0  0  0  0  0  0
    6.2198  -14.5890   14.5495 O   0  0  0  0  0  0  0  0  0  0  0  0
    6.2497  -11.4865   28.7507 C   0  0  0  0  0  0  0  0  0  0  0  0
    6.4845  -12.1773   27.5551 C   0  0  0  0  0  0  0  0  0  0  0  0
    7.3431  -11.6554   26.6248 C   0  0  0  0  0  0  0  0  0  0  0  0
    7.5654  -12.3442   25.4540 C   0  0  0  0  0  0  0  0  0  0  0  0
    6.9468  -13.5436   25.1943 C   0  0  0  0  0  0  0  0  0  0  0  0
    7.1917  -14.2549   23.9386 C   0  0  2  0  0  0  0  0  0  0  0  0
    8.5963  -14.7931   23.7838 N   0  0  0  0  0  0  0  0  0  0  0  0
    8.6416  -15.4406   22.4766 C   0  0  0  0  0  0  0  0  0  0  0  0
    8.8906  -15.7489   24.8572 O   0  0  0  0  0  0  0  0  0  0  0  0
    8.8198  -15.4375   26.0726 C   0  0  0  0  0  0  0  0  0  0  0  0
    6.0864  -14.0645   26.1287 C   0  0  0  0  0  0  0  0  0  0  0  0
    5.8652  -13.3781   27.2957 C   0  0  0  0  0  0  0  0  0  0  0  0
    9.3208  -19.4469   25.0800 C   0  0  2  0  0  0  0  0  0  0  0  0
    9.6098  -18.0487   25.6339 N   0  0  0  0  0  0  0  0  0  0  0  0
    9.2812  -17.1095   24.6030 C   0  0  0  0  0  0  0  0  0  0  0  0
   11.0084  -17.9383   26.0960 O   0  0  0  0  0  0  0  0  0  0  0  0
   11.8410  -17.1824   25.5377 O   0  0  0  0  0  0  0  0  0  0  0  0
  1  2  1  0
  2  3  2  0
  4  5  1  0
  4  2  1  0
  6  5  1  0
  7  6  1  0
  8 10  1  0
  8  7  1  0
  8  9  1  6
 10 11  2  0
 12 13  1  0
 13 23  2  0
 13 14  1  0
 14 15  2  0
 15 16  1  0
 16 17  1  0
 18 17  1  6
 19 18  1  0
 19 10  1  0
 20 18  1  0
 20 21  2  0
 22 16  2  0
 23 22  1  0
 25 24  1  1
 25 27  1  0
 25 26  1  0
 26 20  1  0
 27 29  1  0
 28 27  2  0
M  END
$$$$
