VVA.pdb
     RDKit          3D

 20 19  0  0  1  0  0  0  0  0999 V2000
   21.9745  -19.6314  -11.9418 C   0  0  0  0  0  0  0  0  0  0  0  0
   21.8717  -20.7176  -13.0083 C   0  0  1  0  0  0  0  0  0  0  0  0
   20.8304  -20.2612  -13.9949 C   0  0  0  0  0  0  0  0  0  0  0  0
   23.2266  -20.8458  -13.6798 C   0  0  2  0  0  0  0  0  0  0  0  0
   23.1650  -21.6833  -14.8464 N   0  0  0  0  0  0  0  0  0  0  0  0
   24.2404  -21.2761  -12.7078 C   0  0  0  0  0  0  0  0  0  0  0  0
   24.1213  -22.4028  -12.1796 O   0  0  0  0  0  0  0  0  0  0  0  0
   27.8221  -21.4994  -13.3641 C   0  0  0  0  0  0  0  0  0  0  0  0
   27.7609  -20.6714  -12.0829 C   0  0  2  0  0  0  0  0  0  0  0  0
   28.8661  -21.0885  -11.1376 C   0  0  0  0  0  0  0  0  0  0  0  0
   26.3976  -20.9041  -11.4761 C   0  0  2  0  0  0  0  0  0  0  0  0
   25.3415  -20.4788  -12.3423 N   0  0  0  0  0  0  0  0  0  0  0  0
   26.2491  -20.2585  -10.1629 C   0  0  0  0  0  0  0  0  0  0  0  0
   26.0383  -19.0291  -10.0714 O   0  0  0  0  0  0  0  0  0  0  0  0
   25.8006  -21.3743   -6.6569 C   0  0  0  0  0  0  0  0  0  0  0  0
   26.2548  -20.3250   -7.6760 C   0  0  2  0  0  0  0  0  0  0  0  0
   26.3363  -20.9886   -8.9441 N   0  0  0  0  0  0  0  0  0  0  0  0
   27.5593  -19.7433   -7.2854 C   0  0  0  0  0  0  0  0  0  0  0  0
   28.6224  -20.2440   -7.7219 O   0  0  0  0  0  0  0  0  0  0  0  0
   27.6498  -18.6500   -6.4429 O   0  0  0  0  0  0  0  0  0  0  0  0
  2  1  1  1
  3  2  1  0
  4  2  1  0
  4  5  1  6
  6 12  1  0
  6  4  1  0
  7  6  2  0
  9  8  1  6
  9 11  1  0
 10  9  1  0
 11 12  1  6
 13 11  1  0
 13 14  2  0
 16 17  1  0
 16 15  1  1
 17 13  1  0
 18 16  1  0
 19 18  2  0
 20 18  1  0
M  END
$$$$
