VVA.pdb
     RDKit          3D

 20 19  0  0  1  0  0  0  0  0999 V2000
   25.6666  -11.2581  -20.2134 C   0  0  0  0  0  0  0  0  0  0  0  0
   24.3805  -10.6690  -19.6417 C   0  0  1  0  0  0  0  0  0  0  0  0
   23.3486  -10.7339  -20.7358 C   0  0  0  0  0  0  0  0  0  0  0  0
   23.9603  -11.5201  -18.4575 C   0  0  2  0  0  0  0  0  0  0  0  0
   23.8890  -12.9136  -18.8026 N   0  0  0  0  0  0  0  0  0  0  0  0
   22.7172  -11.0018  -17.8709 C   0  0  0  0  0  0  0  0  0  0  0  0
   21.6294  -11.4833  -18.2550 O   0  0  0  0  0  0  0  0  0  0  0  0
   22.5512   -9.4244  -14.0658 C   0  0  0  0  0  0  0  0  0  0  0  0
   21.3661   -9.9875  -14.8464 C   0  0  2  0  0  0  0  0  0  0  0  0
   21.3678  -11.4990  -14.7810 C   0  0  0  0  0  0  0  0  0  0  0  0
   21.5049   -9.4957  -16.2676 C   0  0  2  0  0  0  0  0  0  0  0  0
   22.6927   -9.9873  -16.8953 N   0  0  0  0  0  0  0  0  0  0  0  0
   21.4686   -8.0282  -16.3607 C   0  0  0  0  0  0  0  0  0  0  0  0
   22.4678   -7.3401  -16.0565 O   0  0  0  0  0  0  0  0  0  0  0  0
   19.0915   -5.4869  -17.6937 C   0  0  0  0  0  0  0  0  0  0  0  0
   20.2802   -5.8908  -16.8163 C   0  0  2  0  0  0  0  0  0  0  0  0
   20.3109   -7.3238  -16.7959 N   0  0  0  0  0  0  0  0  0  0  0  0
   20.1392   -5.3335  -15.4516 C   0  0  0  0  0  0  0  0  0  0  0  0
   19.5711   -6.0050  -14.5583 O   0  0  0  0  0  0  0  0  0  0  0  0
   20.6187   -4.0791  -15.1205 O   0  0  0  0  0  0  0  0  0  0  0  0
  2  1  1  6
  3  2  1  0
  4  2  1  0
  4  5  1  6
  6 12  1  0
  6  4  1  0
  7  6  2  0
  9  8  1  1
  9 11  1  0
 10  9  1  0
 11 12  1  1
 13 11  1  0
 13 14  2  0
 16 17  1  0
 16 15  1  6
 17 13  1  0
 18 16  1  0
 19 18  2  0
 20 18  1  0
M  END
$$$$
