VVA.pdb
     RDKit          3D

 20 19  0  0  1  0  0  0  0  0999 V2000
   18.3421   -8.9551  -18.4832 C   0  0  0  0  0  0  0  0  0  0  0  0
   17.4444  -10.1109  -18.0519 C   0  0  1  0  0  0  0  0  0  0  0  0
   16.7477  -10.6061  -19.2911 C   0  0  0  0  0  0  0  0  0  0  0  0
   18.3269  -11.1962  -17.4632 C   0  0  2  0  0  0  0  0  0  0  0  0
   17.5732  -12.3759  -17.1372 N   0  0  0  0  0  0  0  0  0  0  0  0
   19.0999  -10.6685  -16.3311 C   0  0  0  0  0  0  0  0  0  0  0  0
   18.5309  -10.5456  -15.2248 O   0  0  0  0  0  0  0  0  0  0  0  0
   23.2490   -9.8540  -13.9909 C   0  0  0  0  0  0  0  0  0  0  0  0
   22.5330  -10.5033  -15.1727 C   0  0  2  0  0  0  0  0  0  0  0  0
   23.3942  -10.4229  -16.4140 C   0  0  0  0  0  0  0  0  0  0  0  0
   21.2297   -9.7625  -15.3553 C   0  0  2  0  0  0  0  0  0  0  0  0
   20.4530  -10.2940  -16.4328 N   0  0  0  0  0  0  0  0  0  0  0  0
   21.4269   -8.3186  -15.5545 C   0  0  0  0  0  0  0  0  0  0  0  0
   21.9769   -7.8819  -16.5895 O   0  0  0  0  0  0  0  0  0  0  0  0
   19.9599   -5.2402  -14.8980 C   0  0  0  0  0  0  0  0  0  0  0  0
   21.3034   -5.9632  -14.7635 C   0  0  2  0  0  0  0  0  0  0  0  0
   21.0081   -7.3557  -14.5935 N   0  0  0  0  0  0  0  0  0  0  0  0
   22.0744   -5.4302  -13.6171 C   0  0  0  0  0  0  0  0  0  0  0  0
   22.0412   -6.0223  -12.5126 O   0  0  0  0  0  0  0  0  0  0  0  0
   22.8424   -4.2846  -13.7213 O   0  0  0  0  0  0  0  0  0  0  0  0
  2  1  1  6
  3  2  1  0
  4  2  1  0
  4  5  1  1
  6 12  1  0
  6  4  1  0
  7  6  2  0
  9  8  1  1
  9 11  1  0
 10  9  1  0
 11 12  1  6
 13 11  1  0
 13 14  2  0
 16 17  1  0
 16 15  1  1
 17 13  1  0
 18 16  1  0
 19 18  2  0
 20 18  1  0
M  END
$$$$
