VVA.pdb
     RDKit          3D

 20 19  0  0  1  0  0  0  0  0999 V2000
   27.4430  -16.1833  -16.0987 C   0  0  0  0  0  0  0  0  0  0  0  0
   26.5535  -17.3453  -15.6672 C   0  0  1  0  0  0  0  0  0  0  0  0
   25.6955  -17.6995  -16.8523 C   0  0  0  0  0  0  0  0  0  0  0  0
   27.4518  -18.5087  -15.2890 C   0  0  2  0  0  0  0  0  0  0  0  0
   28.2144  -18.9791  -16.4130 N   0  0  0  0  0  0  0  0  0  0  0  0
   26.6706  -19.5656  -14.6329 C   0  0  0  0  0  0  0  0  0  0  0  0
   26.3797  -20.5886  -15.2899 O   0  0  0  0  0  0  0  0  0  0  0  0
   27.2660  -20.8275  -10.9888 C   0  0  0  0  0  0  0  0  0  0  0  0
   25.7762  -20.5311  -11.1419 C   0  0  2  0  0  0  0  0  0  0  0  0
   24.9573  -21.5927  -10.4409 C   0  0  0  0  0  0  0  0  0  0  0  0
   25.4866  -20.4985  -12.6238 C   0  0  2  0  0  0  0  0  0  0  0  0
   26.2334  -19.4812  -13.2975 N   0  0  0  0  0  0  0  0  0  0  0  0
   24.0541  -20.3327  -12.9131 C   0  0  0  0  0  0  0  0  0  0  0  0
   23.4632  -19.2642  -12.6418 O   0  0  0  0  0  0  0  0  0  0  0  0
   21.5123  -22.2811  -14.8194 C   0  0  0  0  0  0  0  0  0  0  0  0
   21.9069  -21.1434  -13.8729 C   0  0  2  0  0  0  0  0  0  0  0  0
   23.2756  -21.3648  -13.5086 N   0  0  0  0  0  0  0  0  0  0  0  0
   21.0272  -21.1217  -12.6820 C   0  0  0  0  0  0  0  0  0  0  0  0
   21.2792  -21.8665  -11.7056 O   0  0  0  0  0  0  0  0  0  0  0  0
   19.9196  -20.2967  -12.6056 O   0  0  0  0  0  0  0  0  0  0  0  0
  2  1  1  6
  3  2  1  0
  4  2  1  0
  4  5  1  6
  6 12  1  0
  6  4  1  0
  7  6  2  0
  9  8  1  6
  9 11  1  0
 10  9  1  0
 11 12  1  6
 13 11  1  0
 13 14  2  0
 16 17  1  0
 16 15  1  6
 17 13  1  0
 18 16  1  0
 19 18  2  0
 20 18  1  0
M  END
$$$$
