VVA.pdb
     RDKit          3D

 20 19  0  0  1  0  0  0  0  0999 V2000
   20.0533  -12.3499  -20.5712 C   0  0  0  0  0  0  0  0  0  0  0  0
   19.7298  -11.4046  -19.4182 C   0  0  1  0  0  0  0  0  0  0  0  0
   18.2352  -11.4311  -19.2403 C   0  0  0  0  0  0  0  0  0  0  0  0
   20.4269  -11.9253  -18.1747 C   0  0  2  0  0  0  0  0  0  0  0  0
   20.0728  -13.2908  -17.8989 N   0  0  0  0  0  0  0  0  0  0  0  0
   20.1905  -11.0227  -17.0402 C   0  0  0  0  0  0  0  0  0  0  0  0
   19.2616  -11.2901  -16.2475 O   0  0  0  0  0  0  0  0  0  0  0  0
   23.1375   -8.3096  -15.7062 C   0  0  0  0  0  0  0  0  0  0  0  0
   22.0511   -8.9296  -14.8309 C   0  0  2  0  0  0  0  0  0  0  0  0
   22.4817  -10.2998  -14.3552 C   0  0  0  0  0  0  0  0  0  0  0  0
   20.8002   -9.0051  -15.6739 C   0  0  2  0  0  0  0  0  0  0  0  0
   20.9614   -9.8690  -16.8028 N   0  0  0  0  0  0  0  0  0  0  0  0
   20.3464   -7.6813  -16.1263 C   0  0  0  0  0  0  0  0  0  0  0  0
   20.9289   -7.0867  -17.0599 O   0  0  0  0  0  0  0  0  0  0  0  0
   17.4127   -5.4859  -15.5475 C   0  0  0  0  0  0  0  0  0  0  0  0
   18.8885   -5.6772  -15.9096 C   0  0  2  0  0  0  0  0  0  0  0  0
   19.2361   -7.0162  -15.5339 N   0  0  0  0  0  0  0  0  0  0  0  0
   19.7341   -4.6828  -15.2104 C   0  0  0  0  0  0  0  0  0  0  0  0
   20.3168   -4.9967  -14.1457 O   0  0  0  0  0  0  0  0  0  0  0  0
   19.9079   -3.3995  -15.6963 O   0  0  0  0  0  0  0  0  0  0  0  0
  2  1  1  6
  3  2  1  0
  4  2  1  0
  4  5  1  1
  6 12  1  0
  6  4  1  0
  7  6  2  0
  9  8  1  6
  9 11  1  0
 10  9  1  0
 11 12  1  6
 13 11  1  0
 13 14  2  0
 16 17  1  0
 16 15  1  1
 17 13  1  0
 18 16  1  0
 19 18  2  0
 20 18  1  0
M  END
$$$$
