VVA.pdb
     RDKit          3D

 20 19  0  0  1  0  0  0  0  0999 V2000
   24.7423  -15.0678  -15.1536 C   0  0  0  0  0  0  0  0  0  0  0  0
   24.1612  -13.7336  -15.6118 C   0  0  1  0  0  0  0  0  0  0  0  0
   25.3050  -12.9301  -16.1707 C   0  0  0  0  0  0  0  0  0  0  0  0
   23.1286  -14.0161  -16.6875 C   0  0  2  0  0  0  0  0  0  0  0  0
   23.6814  -14.7901  -17.7653 N   0  0  0  0  0  0  0  0  0  0  0  0
   22.4989  -12.7659  -17.1327 C   0  0  0  0  0  0  0  0  0  0  0  0
   22.9838  -12.1712  -18.1196 O   0  0  0  0  0  0  0  0  0  0  0  0
   19.4785  -12.0881  -18.7370 C   0  0  0  0  0  0  0  0  0  0  0  0
   19.3212  -11.2848  -17.4483 C   0  0  2  0  0  0  0  0  0  0  0  0
   18.5694  -10.0006  -17.7213 C   0  0  0  0  0  0  0  0  0  0  0  0
   20.7133  -11.0110  -16.9306 C   0  0  2  0  0  0  0  0  0  0  0  0
   21.3736  -12.2048  -16.4999 N   0  0  0  0  0  0  0  0  0  0  0  0
   20.7239  -10.0211  -15.8428 C   0  0  0  0  0  0  0  0  0  0  0  0
   20.2727  -10.3049  -14.7113 O   0  0  0  0  0  0  0  0  0  0  0  0
   22.0338   -6.5487  -15.3999 C   0  0  0  0  0  0  0  0  0  0  0  0
   21.1720   -7.7374  -14.9639 C   0  0  2  0  0  0  0  0  0  0  0  0
   21.2410   -8.7066  -16.0179 N   0  0  0  0  0  0  0  0  0  0  0  0
   19.7765   -7.3104  -14.7125 C   0  0  0  0  0  0  0  0  0  0  0  0
   18.9426   -7.3186  -15.6485 O   0  0  0  0  0  0  0  0  0  0  0  0
   19.3521   -6.8961  -13.4630 O   0  0  0  0  0  0  0  0  0  0  0  0
  2  1  1  6
  3  2  1  0
  4  2  1  0
  4  5  1  6
  6 12  1  0
  6  4  1  0
  7  6  2  0
  9  8  1  6
  9 11  1  0
 10  9  1  0
 11 12  1  1
 13 11  1  0
 13 14  2  0
 16 17  1  0
 16 15  1  6
 17 13  1  0
 18 16  1  0
 19 18  2  0
 20 18  1  0
M  END
$$$$
