VVA.pdb
     RDKit          3D

 20 19  0  0  1  0  0  0  0  0999 V2000
   15.6594  -14.8455  -15.9525 C   0  0  0  0  0  0  0  0  0  0  0  0
   16.9221  -13.9892  -15.9453 C   0  0  1  0  0  0  0  0  0  0  0  0
   17.9723  -14.7694  -15.2007 C   0  0  0  0  0  0  0  0  0  0  0  0
   17.3435  -13.7622  -17.3854 C   0  0  2  0  0  0  0  0  0  0  0  0
   17.4623  -15.0001  -18.1062 N   0  0  0  0  0  0  0  0  0  0  0  0
   18.5590  -12.9392  -17.4388 C   0  0  0  0  0  0  0  0  0  0  0  0
   19.6617  -13.5108  -17.5808 O   0  0  0  0  0  0  0  0  0  0  0  0
   18.2288   -8.9318  -18.3691 C   0  0  0  0  0  0  0  0  0  0  0  0
   19.5005   -9.7237  -18.6629 C   0  0  2  0  0  0  0  0  0  0  0  0
   19.3736  -10.4437  -19.9875 C   0  0  0  0  0  0  0  0  0  0  0  0
   19.6846  -10.6952  -17.5213 C   0  0  2  0  0  0  0  0  0  0  0  0
   18.5413  -11.5352  -17.3377 N   0  0  0  0  0  0  0  0  0  0  0  0
   20.0096  -10.0203  -16.2556 C   0  0  0  0  0  0  0  0  0  0  0  0
   19.1055   -9.5870  -15.5078 O   0  0  0  0  0  0  0  0  0  0  0  0
   23.0903   -9.4369  -14.2430 C   0  0  0  0  0  0  0  0  0  0  0  0
   21.6432   -9.1039  -14.6184 C   0  0  2  0  0  0  0  0  0  0  0  0
   21.3513   -9.8272  -15.8211 N   0  0  0  0  0  0  0  0  0  0  0  0
   21.4723   -7.6455  -14.8096 C   0  0  0  0  0  0  0  0  0  0  0  0
   21.2123   -6.9128  -13.8262 O   0  0  0  0  0  0  0  0  0  0  0  0
   21.5909   -7.0519  -16.0533 O   0  0  0  0  0  0  0  0  0  0  0  0
  2  1  1  6
  3  2  1  0
  4  2  1  0
  4  5  1  1
  6 12  1  0
  6  4  1  0
  7  6  2  0
  9  8  1  1
  9 11  1  0
 10  9  1  0
 11 12  1  1
 13 11  1  0
 13 14  2  0
 16 17  1  0
 16 15  1  6
 17 13  1  0
 18 16  1  0
 19 18  2  0
 20 18  1  0
M  END
$$$$
