VVA.pdb
     RDKit          3D

 20 19  0  0  1  0  0  0  0  0999 V2000
   26.2298  -10.6146  -15.3849 C   0  0  0  0  0  0  0  0  0  0  0  0
   26.0111  -11.7251  -16.4080 C   0  0  1  0  0  0  0  0  0  0  0  0
   26.9780  -12.8274  -16.0667 C   0  0  0  0  0  0  0  0  0  0  0  0
   24.5787  -12.2089  -16.2766 C   0  0  2  0  0  0  0  0  0  0  0  0
   24.3331  -13.3704  -17.0870 N   0  0  0  0  0  0  0  0  0  0  0  0
   23.6414  -11.1086  -16.5379 C   0  0  0  0  0  0  0  0  0  0  0  0
   23.4990  -10.7120  -17.7149 O   0  0  0  0  0  0  0  0  0  0  0  0
   20.1365  -10.9642  -16.3814 C   0  0  0  0  0  0  0  0  0  0  0  0
   20.5336   -9.8741  -15.3890 C   0  0  2  0  0  0  0  0  0  0  0  0
   19.5606   -8.7180  -15.4656 C   0  0  0  0  0  0  0  0  0  0  0  0
   21.9347   -9.4420  -15.7511 C   0  0  2  0  0  0  0  0  0  0  0  0
   22.8946  -10.4784  -15.5246 N   0  0  0  0  0  0  0  0  0  0  0  0
   22.3483   -8.2225  -15.0405 C   0  0  0  0  0  0  0  0  0  0  0  0
   22.5611   -8.2377  -13.8081 O   0  0  0  0  0  0  0  0  0  0  0  0
   23.3949   -4.7923  -16.0740 C   0  0  0  0  0  0  0  0  0  0  0  0
   23.0135   -5.8255  -15.0096 C   0  0  2  0  0  0  0  0  0  0  0  0
   22.5255   -6.9781  -15.7085 N   0  0  0  0  0  0  0  0  0  0  0  0
   21.9908   -5.2784  -14.0890 C   0  0  0  0  0  0  0  0  0  0  0  0
   20.7747   -5.3773  -14.3765 O   0  0  0  0  0  0  0  0  0  0  0  0
   22.3332   -4.6520  -12.9043 O   0  0  0  0  0  0  0  0  0  0  0  0
  2  1  1  1
  3  2  1  0
  4  2  1  0
  4  5  1  6
  6 12  1  0
  6  4  1  0
  7  6  2  0
  9  8  1  6
  9 11  1  0
 10  9  1  0
 11 12  1  1
 13 11  1  0
 13 14  2  0
 16 17  1  0
 16 15  1  6
 17 13  1  0
 18 16  1  0
 19 18  2  0
 20 18  1  0
M  END
$$$$
