VVA.pdb
     RDKit          3D

 20 19  0  0  1  0  0  0  0  0999 V2000
   28.6415  -33.4529  -14.2819 C   0  0  0  0  0  0  0  0  0  0  0  0
   28.2507  -32.7773  -15.5929 C   0  0  1  0  0  0  0  0  0  0  0  0
   28.9828  -33.5021  -16.6906 C   0  0  0  0  0  0  0  0  0  0  0  0
   26.7496  -32.9196  -15.7651 C   0  0  2  0  0  0  0  0  0  0  0  0
   26.2935  -32.3075  -16.9830 N   0  0  0  0  0  0  0  0  0  0  0  0
   26.0492  -32.4300  -14.5703 C   0  0  0  0  0  0  0  0  0  0  0  0
   25.6302  -31.2523  -14.5642 O   0  0  0  0  0  0  0  0  0  0  0  0
   23.5918  -34.8257  -12.6693 C   0  0  0  0  0  0  0  0  0  0  0  0
   23.5589  -33.3055  -12.5320 C   0  0  2  0  0  0  0  0  0  0  0  0
   22.9467  -32.6822  -13.7672 C   0  0  0  0  0  0  0  0  0  0  0  0
   24.9862  -32.8531  -12.3342 C   0  0  2  0  0  0  0  0  0  0  0  0
   25.8271  -33.2252  -13.4301 N   0  0  0  0  0  0  0  0  0  0  0  0
   25.5646  -33.3509  -11.0769 C   0  0  0  0  0  0  0  0  0  0  0  0
   26.1644  -34.4477  -11.0354 O   0  0  0  0  0  0  0  0  0  0  0  0
   25.9877  -31.9881   -7.6218 C   0  0  0  0  0  0  0  0  0  0  0  0
   26.0632  -33.1202   -8.6506 C   0  0  2  0  0  0  0  0  0  0  0  0
   25.4736  -32.6211   -9.8582 N   0  0  0  0  0  0  0  0  0  0  0  0
   25.3541  -34.3240   -8.1601 C   0  0  0  0  0  0  0  0  0  0  0  0
   24.1544  -34.5125   -8.4713 O   0  0  0  0  0  0  0  0  0  0  0  0
   25.9763  -35.2636   -7.3581 O   0  0  0  0  0  0  0  0  0  0  0  0
  2  1  1  1
  3  2  1  0
  4  2  1  0
  4  5  1  6
  6 12  1  0
  6  4  1  0
  7  6  2  0
  9  8  1  6
  9 11  1  0
 10  9  1  0
 11 12  1  6
 13 11  1  0
 13 14  2  0
 16 17  1  0
 16 15  1  1
 17 13  1  0
 18 16  1  0
 19 18  2  0
 20 18  1  0
M  END
$$$$
