ISR.pdb
     RDKit          3D

 26 25  0  0  1  0  0  0  0  0999 V2000
    9.9228  -13.7852   16.3195 C   0  0  0  0  0  0  0  0  0  0  0  0
    8.5582  -13.7007   17.0132 C   0  0  0  0  0  0  0  0  0  0  0  0
    8.7510  -14.2014   18.4090 C   0  0  2  0  0  0  0  0  0  0  0  0
    9.2816  -15.6216   18.3720 C   0  0  0  0  0  0  0  0  0  0  0  0
    7.4920  -14.1804   19.2302 C   0  0  2  0  0  0  0  0  0  0  0  0
    6.9116  -12.8940   19.3800 N   0  0  0  0  0  0  0  0  0  0  0  0
    7.7598  -14.8307   20.5190 C   0  0  0  0  0  0  0  0  0  0  0  0
    8.2810  -14.1479   21.4382 O   0  0  0  0  0  0  0  0  0  0  0  0
    7.0443  -18.8162   20.8685 O   0  0  0  0  0  0  0  0  0  0  0  0
    6.9262  -18.1305   22.0745 C   0  0  0  0  0  0  0  0  0  0  0  0
    7.7555  -16.8615   22.0238 C   0  0  2  0  0  0  0  0  0  0  0  0
    7.4491  -16.2017   20.7572 N   0  0  0  0  0  0  0  0  0  0  0  0
    9.2070  -17.1936   22.0002 C   0  0  0  0  0  0  0  0  0  0  0  0
    9.8923  -17.1673   20.9315 O   0  0  0  0  0  0  0  0  0  0  0  0
   15.2193  -14.3388   20.0646 N   0  0  0  0  0  0  0  0  0  0  0  0
   14.2022  -14.5710   19.0986 C   0  0  0  0  0  0  0  0  0  0  0  0
   14.4270  -14.5155   17.8228 N   0  0  0  0  0  0  0  0  0  0  0  0
   12.8945  -14.8742   19.6015 N   0  0  0  0  0  0  0  0  0  0  0  0
   12.7602  -14.8813   21.0621 C   0  0  0  0  0  0  0  0  0  0  0  0
   12.1736  -16.2279   21.4206 C   0  0  0  0  0  0  0  0  0  0  0  0
   11.8944  -16.3642   22.8723 C   0  0  0  0  0  0  0  0  0  0  0  0
   11.3350  -17.7231   23.1918 C   0  0  2  0  0  0  0  0  0  0  0  0
    9.8592  -17.5537   23.2081 N   0  0  0  0  0  0  0  0  0  0  0  0
   11.7800  -18.1390   24.5324 C   0  0  0  0  0  0  0  0  0  0  0  0
   11.0661  -17.8497   25.5259 O   0  0  0  0  0  0  0  0  0  0  0  0
   12.9329  -18.8282   24.7525 O   0  0  0  0  0  0  0  0  0  0  0  0
  2  3  1  0
  2  1  1  0
  3  4  1  6
  5  6  1  1
  5  3  1  0
  7  5  1  0
  8  7  2  0
 10  9  1  0
 11 10  1  6
 11 12  1  0
 12  7  1  0
 13 23  1  0
 13 11  1  0
 14 13  2  0
 16 15  1  0
 17 16  2  0
 18 16  1  0
 19 18  1  0
 20 19  1  0
 20 21  1  0
 22 21  1  1
 22 23  1  0
 24 26  1  0
 24 22  1  0
 25 24  2  0
M  END
$$$$
