ISR.pdb
     RDKit          3D

 26 25  0  0  1  0  0  0  0  0999 V2000
    7.4437  -11.7133   20.0254 C   0  0  0  0  0  0  0  0  0  0  0  0
    8.2294  -12.7577   19.2238 C   0  0  0  0  0  0  0  0  0  0  0  0
    8.2254  -14.0157   20.0323 C   0  0  2  0  0  0  0  0  0  0  0  0
    8.8744  -13.7582   21.3785 C   0  0  0  0  0  0  0  0  0  0  0  0
    8.9410  -15.1568   19.3646 C   0  0  2  0  0  0  0  0  0  0  0  0
    8.4513  -15.4797   18.0724 N   0  0  0  0  0  0  0  0  0  0  0  0
    8.9373  -16.3106   20.2727 C   0  0  0  0  0  0  0  0  0  0  0  0
    7.9149  -17.0432   20.3068 O   0  0  0  0  0  0  0  0  0  0  0  0
   12.4299  -17.6731   21.7500 O   0  0  0  0  0  0  0  0  0  0  0  0
   11.3489  -18.5480   21.6841 C   0  0  0  0  0  0  0  0  0  0  0  0
   10.0647  -17.7963   21.9785 C   0  0  2  0  0  0  0  0  0  0  0  0
   10.0487  -16.6224   21.1096 N   0  0  0  0  0  0  0  0  0  0  0  0
   10.0681  -17.2978   23.3817 C   0  0  0  0  0  0  0  0  0  0  0  0
   10.6572  -16.2249   23.7197 O   0  0  0  0  0  0  0  0  0  0  0  0
    5.2499  -22.2931   27.2936 N   0  0  0  0  0  0  0  0  0  0  0  0
    5.2393  -22.0403   25.8945 C   0  0  0  0  0  0  0  0  0  0  0  0
    4.5421  -22.7503   25.0632 N   0  0  0  0  0  0  0  0  0  0  0  0
    6.0454  -20.9489   25.4319 N   0  0  0  0  0  0  0  0  0  0  0  0
    6.8618  -20.2833   26.4526 C   0  0  0  0  0  0  0  0  0  0  0  0
    7.5511  -19.1346   25.7518 C   0  0  0  0  0  0  0  0  0  0  0  0
    8.6056  -18.5037   26.5848 C   0  0  0  0  0  0  0  0  0  0  0  0
    9.4207  -17.5284   25.7810 C   0  0  2  0  0  0  0  0  0  0  0  0
    9.3926  -18.0387   24.3861 N   0  0  0  0  0  0  0  0  0  0  0  0
   10.8130  -17.5335   26.2604 C   0  0  0  0  0  0  0  0  0  0  0  0
   11.6576  -18.2491   25.6647 O   0  0  0  0  0  0  0  0  0  0  0  0
   11.2362  -16.7952   27.3227 O   0  0  0  0  0  0  0  0  0  0  0  0
  2  3  1  0
  2  1  1  0
  3  4  1  1
  5  6  1  6
  5  3  1  0
  7  5  1  0
  8  7  2  0
 10  9  1  0
 11 10  1  6
 11 12  1  0
 12  7  1  0
 13 23  1  0
 13 11  1  0
 14 13  2  0
 16 15  1  0
 17 16  2  0
 18 16  1  0
 19 18  1  0
 20 19  1  0
 20 21  1  0
 22 21  1  1
 22 23  1  0
 24 26  1  0
 24 22  1  0
 25 24  2  0
M  END
$$$$
