ISR.pdb
     RDKit          3D

 26 25  0  0  1  0  0  0  0  0999 V2000
    9.0418  -16.2712   15.3774 C   0  0  0  0  0  0  0  0  0  0  0  0
    8.2142  -15.1603   16.0343 C   0  0  0  0  0  0  0  0  0  0  0  0
    8.8209  -14.9058   17.3771 C   0  0  2  0  0  0  0  0  0  0  0  0
    8.9000  -16.2053   18.1550 C   0  0  0  0  0  0  0  0  0  0  0  0
    8.0589  -13.9016   18.1961 C   0  0  2  0  0  0  0  0  0  0  0  0
    7.9641  -12.6147   17.6054 N   0  0  0  0  0  0  0  0  0  0  0  0
    8.6352  -13.8604   19.5459 C   0  0  0  0  0  0  0  0  0  0  0  0
    9.8227  -13.4665   19.6789 O   0  0  0  0  0  0  0  0  0  0  0  0
    6.5761  -15.5803   22.6624 O   0  0  0  0  0  0  0  0  0  0  0  0
    7.3777  -14.5008   23.0238 C   0  0  0  0  0  0  0  0  0  0  0  0
    8.5069  -14.3456   22.0231 C   0  0  2  0  0  0  0  0  0  0  0  0
    7.8949  -14.2503   20.7004 N   0  0  0  0  0  0  0  0  0  0  0  0
    9.3639  -15.5634   22.0182 C   0  0  0  0  0  0  0  0  0  0  0  0
    9.0653  -16.6011   21.3500 O   0  0  0  0  0  0  0  0  0  0  0  0
   15.8855  -13.8463   19.3788 N   0  0  0  0  0  0  0  0  0  0  0  0
   14.7336  -14.0768   18.5778 C   0  0  0  0  0  0  0  0  0  0  0  0
   14.6101  -13.5960   17.3800 N   0  0  0  0  0  0  0  0  0  0  0  0
   13.6957  -14.8769   19.1587 N   0  0  0  0  0  0  0  0  0  0  0  0
   13.9376  -15.3345   20.5311 C   0  0  0  0  0  0  0  0  0  0  0  0
   12.6968  -16.0941   20.9425 C   0  0  0  0  0  0  0  0  0  0  0  0
   12.7172  -16.4959   22.3715 C   0  0  0  0  0  0  0  0  0  0  0  0
   11.3365  -16.8413   22.8576 C   0  0  2  0  0  0  0  0  0  0  0  0
   10.5592  -15.5775   22.7831 N   0  0  0  0  0  0  0  0  0  0  0  0
   11.4009  -17.2770   24.2626 C   0  0  0  0  0  0  0  0  0  0  0  0
   12.0329  -18.3266   24.5443 O   0  0  0  0  0  0  0  0  0  0  0  0
   10.8085  -16.5949   25.2806 O   0  0  0  0  0  0  0  0  0  0  0  0
  2  3  1  0
  2  1  1  0
  3  4  1  1
  5  6  1  6
  5  3  1  0
  7  5  1  0
  8  7  2  0
 10  9  1  0
 11 10  1  1
 11 12  1  0
 12  7  1  0
 13 23  1  0
 13 11  1  0
 14 13  2  0
 16 15  1  0
 17 16  2  0
 18 16  1  0
 19 18  1  0
 20 19  1  0
 20 21  1  0
 22 21  1  1
 22 23  1  0
 24 26  1  0
 24 22  1  0
 25 24  2  0
M  END
$$$$
