ISR.pdb
     RDKit          3D

 26 25  0  0  1  0  0  0  0  0999 V2000
    8.0053  -15.1902   16.4390 C   0  0  0  0  0  0  0  0  0  0  0  0
    7.0523  -15.2847   17.6362 C   0  0  0  0  0  0  0  0  0  0  0  0
    7.8976  -15.2189   18.8680 C   0  0  2  0  0  0  0  0  0  0  0  0
    7.4677  -16.3013   19.8393 C   0  0  0  0  0  0  0  0  0  0  0  0
    7.8299  -13.8906   19.5685 C   0  0  2  0  0  0  0  0  0  0  0  0
    8.2226  -12.7858   18.7689 N   0  0  0  0  0  0  0  0  0  0  0  0
    8.5926  -13.9790   20.8200 C   0  0  0  0  0  0  0  0  0  0  0  0
    9.8489  -13.9479   20.7599 O   0  0  0  0  0  0  0  0  0  0  0  0
    6.5914  -14.5270   24.3602 O   0  0  0  0  0  0  0  0  0  0  0  0
    7.7799  -13.8086   24.4599 C   0  0  0  0  0  0  0  0  0  0  0  0
    8.7145  -14.2087   23.3341 C   0  0  2  0  0  0  0  0  0  0  0  0
    7.9565  -14.0980   22.0905 N   0  0  0  0  0  0  0  0  0  0  0  0
    9.1112  -15.6371   23.4750 C   0  0  0  0  0  0  0  0  0  0  0  0
    8.4187  -16.5851   22.9912 O   0  0  0  0  0  0  0  0  0  0  0  0
   12.4991  -17.4703   19.4028 N   0  0  0  0  0  0  0  0  0  0  0  0
   12.5844  -18.8875   19.4797 C   0  0  0  0  0  0  0  0  0  0  0  0
   12.1473  -19.6641   18.5378 N   0  0  0  0  0  0  0  0  0  0  0  0
   13.1842  -19.4327   20.6620 N   0  0  0  0  0  0  0  0  0  0  0  0
   13.3680  -18.4934   21.7735 C   0  0  0  0  0  0  0  0  0  0  0  0
   12.0290  -18.4035   22.4696 C   0  0  0  0  0  0  0  0  0  0  0  0
   12.0509  -17.4910   23.6404 C   0  0  0  0  0  0  0  0  0  0  0  0
   10.6921  -17.3936   24.2777 C   0  0  2  0  0  0  0  0  0  0  0  0
   10.3033  -15.9637   24.1725 N   0  0  0  0  0  0  0  0  0  0  0  0
   10.7860  -17.7567   25.7016 C   0  0  0  0  0  0  0  0  0  0  0  0
   10.6667  -16.8533   26.5676 O   0  0  0  0  0  0  0  0  0  0  0  0
   10.9946  -19.0311   26.1317 O   0  0  0  0  0  0  0  0  0  0  0  0
  2  3  1  0
  2  1  1  0
  3  4  1  1
  5  6  1  6
  5  3  1  0
  7  5  1  0
  8  7  2  0
 10  9  1  0
 11 10  1  1
 11 12  1  0
 12  7  1  0
 13 23  1  0
 13 11  1  0
 14 13  2  0
 16 15  1  0
 17 16  2  0
 18 16  1  0
 19 18  1  0
 20 19  1  0
 20 21  1  0
 22 21  1  1
 22 23  1  0
 24 26  1  0
 24 22  1  0
 25 24  2  0
M  END
$$$$
