ISR.pdb
     RDKit          3D

 26 25  0  0  1  0  0  0  0  0999 V2000
    6.7362  -15.6416   15.3541 C   0  0  0  0  0  0  0  0  0  0  0  0
    8.2433  -15.4424   15.1556 C   0  0  0  0  0  0  0  0  0  0  0  0
    8.8387  -15.2651   16.5158 C   0  0  2  0  0  0  0  0  0  0  0  0
    8.6938  -16.5509   17.3068 C   0  0  0  0  0  0  0  0  0  0  0  0
    8.2132  -14.1457   17.3003 C   0  0  2  0  0  0  0  0  0  0  0  0
    8.2345  -12.8874   16.6444 N   0  0  0  0  0  0  0  0  0  0  0  0
    8.8345  -14.0981   18.6298 C   0  0  0  0  0  0  0  0  0  0  0  0
   10.0902  -14.0740   18.7042 O   0  0  0  0  0  0  0  0  0  0  0  0
    6.6553  -14.9571   22.0256 O   0  0  0  0  0  0  0  0  0  0  0  0
    7.5591  -13.9068   22.1622 C   0  0  0  0  0  0  0  0  0  0  0  0
    8.6801  -14.0631   21.1524 C   0  0  2  0  0  0  0  0  0  0  0  0
    8.0629  -14.0786   19.8287 N   0  0  0  0  0  0  0  0  0  0  0  0
    9.3571  -15.3774   21.3312 C   0  0  0  0  0  0  0  0  0  0  0  0
    8.9191  -16.4445   20.8003 O   0  0  0  0  0  0  0  0  0  0  0  0
   16.5433  -15.7312   19.3460 N   0  0  0  0  0  0  0  0  0  0  0  0
   15.6933  -14.6897   18.8830 C   0  0  0  0  0  0  0  0  0  0  0  0
   16.1203  -13.7250   18.1291 N   0  0  0  0  0  0  0  0  0  0  0  0
   14.3205  -14.7505   19.2909 N   0  0  0  0  0  0  0  0  0  0  0  0
   13.8222  -16.0819   19.6520 C   0  0  0  0  0  0  0  0  0  0  0  0
   12.9513  -15.8847   20.8720 C   0  0  0  0  0  0  0  0  0  0  0  0
   12.0129  -17.0131   21.0958 C   0  0  0  0  0  0  0  0  0  0  0  0
   11.1683  -16.7819   22.3185 C   0  0  2  0  0  0  0  0  0  0  0  0
   10.5341  -15.4533   22.1204 N   0  0  0  0  0  0  0  0  0  0  0  0
   12.0297  -16.7238   23.5114 C   0  0  0  0  0  0  0  0  0  0  0  0
   12.0948  -15.6497   24.1614 O   0  0  0  0  0  0  0  0  0  0  0  0
   12.7630  -17.7827   23.9512 O   0  0  0  0  0  0  0  0  0  0  0  0
  2  3  1  0
  2  1  1  0
  3  4  1  1
  5  6  1  6
  5  3  1  0
  7  5  1  0
  8  7  2  0
 10  9  1  0
 11 10  1  1
 11 12  1  0
 12  7  1  0
 13 23  1  0
 13 11  1  0
 14 13  2  0
 16 15  1  0
 17 16  2  0
 18 16  1  0
 19 18  1  0
 20 19  1  0
 20 21  1  0
 22 21  1  6
 22 23  1  0
 24 26  1  0
 24 22  1  0
 25 24  2  0
M  END
$$$$
