ISP.pdb
     RDKit          3D

 22 22  0  0  1  0  0  0  0  0999 V2000
    8.2415  -12.0607   27.1201 C   0  0  0  0  0  0  0  0  0  0  0  0
    7.6688  -13.4303   26.8330 C   0  0  0  0  0  0  0  0  0  0  0  0
    6.5224  -13.3648   25.8204 C   0  0  2  0  0  0  0  0  0  0  0  0
    5.4353  -12.5577   26.4866 C   0  0  0  0  0  0  0  0  0  0  0  0
    6.0561  -14.7701   25.4852 C   0  0  2  0  0  0  0  0  0  0  0  0
    6.0320  -15.5763   26.7230 N   0  0  0  0  0  0  0  0  0  0  0  0
    6.9723  -15.4827   24.5638 C   0  0  0  0  0  0  0  0  0  0  0  0
    7.5941  -16.5476   24.9224 O   0  0  0  0  0  0  0  0  0  0  0  0
    8.7799  -15.7580   20.0464 O   0  0  0  0  0  0  0  0  0  0  0  0
    8.0235  -15.1138   21.0018 C   0  0  0  0  0  0  0  0  0  0  0  0
    8.1285  -15.8479   22.3495 C   0  0  2  0  0  0  0  0  0  0  0  0
    7.2520  -15.0800   23.2283 N   0  0  0  0  0  0  0  0  0  0  0  0
    9.5581  -15.8065   22.8113 C   0  0  0  0  0  0  0  0  0  0  0  0
    9.9807  -14.6321   23.0048 O   0  0  0  0  0  0  0  0  0  0  0  0
   10.3092  -16.9711   22.9961 N   0  0  0  0  0  0  0  0  0  0  0  0
    9.7352  -18.3069   23.2907 C   0  0  0  0  0  0  0  0  0  0  0  0
   10.3892  -19.0955   22.1906 C   0  0  0  0  0  0  0  0  0  0  0  0
   11.6891  -18.3639   21.8679 C   0  0  0  0  0  0  0  0  0  0  0  0
   11.6884  -17.2742   22.9616 C   0  0  1  0  0  0  0  0  0  0  0  0
   12.6743  -16.2566   22.6949 C   0  0  0  0  0  0  0  0  0  0  0  0
   12.7618  -15.4199   21.6446 O   0  0  0  0  0  0  0  0  0  0  0  0
   13.6004  -16.1293   23.5838 O   0  0  0  0  0  0  0  0  0  0  0  0
  2  1  1  0
  2  3  1  0
  3  5  1  0
  3  4  1  1
  5  7  1  0
  5  6  1  1
  7  8  2  0
 10  9  1  0
 11 10  1  6
 12 11  1  0
 12  7  1  0
 13 14  2  0
 13 11  1  0
 15 13  1  0
 16 15  1  0
 17 16  1  0
 18 17  1  0
 18 19  1  0
 19 20  1  6
 19 15  1  0
 20 21  1  0
 22 20  2  0
M  END
$$$$
