ISP.pdb
     RDKit          3D

 22 22  0  0  1  0  0  0  0  0999 V2000
    6.2666  -11.2930   27.4723 C   0  0  0  0  0  0  0  0  0  0  0  0
    6.3025  -12.7613   27.1128 C   0  0  0  0  0  0  0  0  0  0  0  0
    7.3200  -13.0494   26.0058 C   0  0  2  0  0  0  0  0  0  0  0  0
    6.8349  -12.2871   24.7972 C   0  0  0  0  0  0  0  0  0  0  0  0
    7.3798  -14.5434   25.7432 C   0  0  2  0  0  0  0  0  0  0  0  0
    7.8011  -15.2321   26.9804 N   0  0  0  0  0  0  0  0  0  0  0  0
    8.3849  -14.9142   24.7192 C   0  0  0  0  0  0  0  0  0  0  0  0
    9.6325  -15.0160   25.0059 O   0  0  0  0  0  0  0  0  0  0  0  0
    9.0655  -17.6055   22.9265 O   0  0  0  0  0  0  0  0  0  0  0  0
    9.9193  -16.5394   22.7416 C   0  0  0  0  0  0  0  0  0  0  0  0
    9.1265  -15.2854   22.3348 C   0  0  2  0  0  0  0  0  0  0  0  0
    8.0877  -15.1896   23.3554 N   0  0  0  0  0  0  0  0  0  0  0  0
    8.5463  -15.5046   20.9658 C   0  0  0  0  0  0  0  0  0  0  0  0
    8.3726  -16.7253   20.6927 O   0  0  0  0  0  0  0  0  0  0  0  0
    8.2434  -14.4395   20.1123 N   0  0  0  0  0  0  0  0  0  0  0  0
    7.9176  -13.0642   20.5627 C   0  0  0  0  0  0  0  0  0  0  0  0
    8.9220  -12.3010   19.7451 C   0  0  0  0  0  0  0  0  0  0  0  0
    9.1898  -13.1549   18.5089 C   0  0  0  0  0  0  0  0  0  0  0  0
    8.1611  -14.2884   18.7103 C   0  0  1  0  0  0  0  0  0  0  0  0
    8.4117  -15.3943   17.8200 C   0  0  0  0  0  0  0  0  0  0  0  0
    7.8264  -15.6803   16.6425 O   0  0  0  0  0  0  0  0  0  0  0  0
    9.3214  -16.2249   18.2030 O   0  0  0  0  0  0  0  0  0  0  0  0
  2  1  1  0
  2  3  1  0
  3  5  1  0
  3  4  1  6
  5  7  1  0
  5  6  1  1
  7  8  2  0
 10  9  1  0
 11 10  1  1
 12 11  1  0
 12  7  1  0
 13 14  2  0
 13 11  1  0
 15 13  1  0
 16 15  1  0
 17 16  1  0
 18 17  1  0
 18 19  1  0
 19 20  1  6
 19 15  1  0
 20 21  1  0
 22 20  2  0
M  END
$$$$
