ISP.pdb
     RDKit          3D

 22 22  0  0  1  0  0  0  0  0999 V2000
    5.5948  -22.1082   21.5684 C   0  0  0  0  0  0  0  0  0  0  0  0
    6.2941  -21.3359   22.6642 C   0  0  0  0  0  0  0  0  0  0  0  0
    6.1546  -19.8237   22.4700 C   0  0  2  0  0  0  0  0  0  0  0  0
    6.7230  -19.5338   21.1026 C   0  0  0  0  0  0  0  0  0  0  0  0
    6.9164  -19.0960   23.5630 C   0  0  2  0  0  0  0  0  0  0  0  0
    6.2035  -19.2728   24.8448 N   0  0  0  0  0  0  0  0  0  0  0  0
    6.9879  -17.6317   23.3459 C   0  0  0  0  0  0  0  0  0  0  0  0
    5.9448  -16.8870   23.4275 O   0  0  0  0  0  0  0  0  0  0  0  0
    9.8402  -15.5513   24.3928 O   0  0  0  0  0  0  0  0  0  0  0  0
    8.7806  -14.8128   23.9112 C   0  0  0  0  0  0  0  0  0  0  0  0
    8.1667  -15.5009   22.6799 C   0  0  2  0  0  0  0  0  0  0  0  0
    8.1779  -16.9162   23.0361 N   0  0  0  0  0  0  0  0  0  0  0  0
    9.0350  -15.2182   21.4862 C   0  0  0  0  0  0  0  0  0  0  0  0
   10.1219  -15.8612   21.5029 O   0  0  0  0  0  0  0  0  0  0  0  0
    8.6436  -14.3282   20.4817 N   0  0  0  0  0  0  0  0  0  0  0  0
    7.2792  -13.7632   20.3403 C   0  0  0  0  0  0  0  0  0  0  0  0
    7.6293  -12.3019   20.2976 C   0  0  0  0  0  0  0  0  0  0  0  0
    9.0499  -12.2285   19.7447 C   0  0  0  0  0  0  0  0  0  0  0  0
    9.3026  -13.7110   19.3954 C   0  0  1  0  0  0  0  0  0  0  0  0
   10.6964  -13.9600   19.1233 C   0  0  0  0  0  0  0  0  0  0  0  0
   11.3085  -14.1282   17.9368 O   0  0  0  0  0  0  0  0  0  0  0  0
   11.4635  -14.0319   20.1580 O   0  0  0  0  0  0  0  0  0  0  0  0
  2  1  1  0
  2  3  1  0
  3  5  1  0
  3  4  1  6
  5  7  1  0
  5  6  1  1
  7  8  2  0
 10  9  1  0
 11 10  1  1
 12 11  1  0
 12  7  1  0
 13 14  2  0
 13 11  1  0
 15 13  1  0
 16 15  1  0
 17 16  1  0
 18 17  1  0
 18 19  1  0
 19 20  1  1
 19 15  1  0
 20 21  1  0
 22 20  2  0
M  END
$$$$
