ISP.pdb
     RDKit          3D

 22 22  0  0  1  0  0  0  0  0999 V2000
    8.1597  -12.3218   18.7321 C   0  0  0  0  0  0  0  0  0  0  0  0
    8.2276  -13.7475   19.2311 C   0  0  0  0  0  0  0  0  0  0  0  0
    7.7422  -13.8657   20.6782 C   0  0  2  0  0  0  0  0  0  0  0  0
    8.7696  -13.1421   21.5136 C   0  0  0  0  0  0  0  0  0  0  0  0
    7.6334  -15.3302   21.0625 C   0  0  2  0  0  0  0  0  0  0  0  0
    6.5658  -15.9598   20.2584 N   0  0  0  0  0  0  0  0  0  0  0  0
    7.2386  -15.5327   22.4765 C   0  0  0  0  0  0  0  0  0  0  0  0
    6.0055  -15.6042   22.8279 O   0  0  0  0  0  0  0  0  0  0  0  0
    6.5720  -17.7239   26.0497 O   0  0  0  0  0  0  0  0  0  0  0  0
    7.0230  -17.3138   24.8134 C   0  0  0  0  0  0  0  0  0  0  0  0
    7.7065  -15.9401   24.9236 C   0  0  2  0  0  0  0  0  0  0  0  0
    8.1503  -15.6667   23.5604 N   0  0  0  0  0  0  0  0  0  0  0  0
    8.8636  -16.0520   25.8762 C   0  0  0  0  0  0  0  0  0  0  0  0
    9.3959  -17.1974   25.8740 O   0  0  0  0  0  0  0  0  0  0  0  0
    9.2775  -14.9753   26.6661 N   0  0  0  0  0  0  0  0  0  0  0  0
    8.9078  -13.5595   26.4225 C   0  0  0  0  0  0  0  0  0  0  0  0
    8.3540  -13.2208   27.7784 C   0  0  0  0  0  0  0  0  0  0  0  0
    9.0572  -14.1524   28.7616 C   0  0  0  0  0  0  0  0  0  0  0  0
   10.0708  -14.8486   27.8279 C   0  0  1  0  0  0  0  0  0  0  0  0
   10.6671  -15.9996   28.4591 C   0  0  0  0  0  0  0  0  0  0  0  0
   11.8804  -16.1166   29.0291 O   0  0  0  0  0  0  0  0  0  0  0  0
    9.9392  -17.0644   28.4812 O   0  0  0  0  0  0  0  0  0  0  0  0
  2  1  1  0
  2  3  1  0
  3  5  1  0
  3  4  1  1
  5  7  1  0
  5  6  1  6
  7  8  2  0
 10  9  1  0
 11 10  1  6
 12 11  1  0
 12  7  1  0
 13 14  2  0
 13 11  1  0
 15 13  1  0
 16 15  1  0
 17 16  1  0
 18 17  1  0
 18 19  1  0
 19 20  1  1
 19 15  1  0
 20 21  1  0
 22 20  2  0
M  END
$$$$
