CGC.pdb
     RDKit          3D

 17 16  0  0  1  0  0  0  0  0999 V2000
    7.3418  -14.4452   22.4433 N   0  0  0  0  0  0  0  0  0  0  0  0
    8.0687  -15.1246   21.3751 C   0  0  1  0  0  0  0  0  0  0  0  0
    8.4286  -14.0889   20.3058 C   0  0  0  0  0  0  0  0  0  0  0  0
    6.9967  -13.2245   19.6593 S   0  0  0  0  0  0  0  0  0  0  0  0
    9.3262  -15.6532   21.9301 C   0  0  0  0  0  0  0  0  0  0  0  0
   10.1151  -16.2725   21.1612 O   0  0  0  0  0  0  0  0  0  0  0  0
    9.7313  -15.5204   23.2803 N   0  0  0  0  0  0  0  0  0  0  0  0
   11.0219  -16.0255   23.6945 C   0  0  0  0  0  0  0  0  0  0  0  0
   11.2206  -15.7882   25.1539 C   0  0  0  0  0  0  0  0  0  0  0  0
   12.2728  -16.1226   25.7553 O   0  0  0  0  0  0  0  0  0  0  0  0
   10.2242  -15.1669   25.9487 N   0  0  0  0  0  0  0  0  0  0  0  0
   10.3038  -15.1082   27.3706 C   0  0  1  0  0  0  0  0  0  0  0  0
    9.2535  -14.0845   27.8243 C   0  0  0  0  0  0  0  0  0  0  0  0
    9.0653  -12.7419   26.6594 S   0  0  0  0  0  0  0  0  0  0  0  0
   10.1597  -16.3821   28.0544 C   0  0  0  0  0  0  0  0  0  0  0  0
    9.7214  -17.4048   27.4858 O   0  0  0  0  0  0  0  0  0  0  0  0
   10.5129  -16.4967   29.3843 O   0  0  0  0  0  0  0  0  0  0  0  0
  2  3  1  0
  2  1  1  1
  3  4  1  0
  5  7  1  0
  5  2  1  0
  6  5  2  0
  8  7  1  0
  9 11  1  0
  9  8  1  0
 10  9  2  0
 12 11  1  0
 12 15  1  0
 12 13  1  1
 14 13  1  0
 15 17  1  0
 16 15  2  0
M  END
$$$$
