CGC.pdb
     RDKit          3D

 17 16  0  0  1  0  0  0  0  0999 V2000
    8.0479  -16.1037   18.2677 N   0  0  0  0  0  0  0  0  0  0  0  0
    8.8187  -15.4733   19.3353 C   0  0  1  0  0  0  0  0  0  0  0  0
    9.2733  -14.0941   18.8485 C   0  0  0  0  0  0  0  0  0  0  0  0
    7.9182  -12.9332   18.6715 S   0  0  0  0  0  0  0  0  0  0  0  0
    7.9320  -15.2714   20.4936 C   0  0  0  0  0  0  0  0  0  0  0  0
    6.7090  -15.5684   20.3797 O   0  0  0  0  0  0  0  0  0  0  0  0
    8.3466  -14.7631   21.7484 N   0  0  0  0  0  0  0  0  0  0  0  0
    7.3907  -14.6530   22.8284 C   0  0  0  0  0  0  0  0  0  0  0  0
    8.0706  -14.1759   24.0677 C   0  0  0  0  0  0  0  0  0  0  0  0
    9.3215  -14.1774   24.1949 O   0  0  0  0  0  0  0  0  0  0  0  0
    7.3360  -13.6907   25.1791 N   0  0  0  0  0  0  0  0  0  0  0  0
    7.9664  -13.1854   26.3534 C   0  0  1  0  0  0  0  0  0  0  0  0
    7.0600  -12.0679   26.8885 C   0  0  0  0  0  0  0  0  0  0  0  0
    5.4022  -12.6424   27.2303 S   0  0  0  0  0  0  0  0  0  0  0  0
    8.2732  -14.1772   27.3701 C   0  0  0  0  0  0  0  0  0  0  0  0
    7.7691  -15.3205   27.3679 O   0  0  0  0  0  0  0  0  0  0  0  0
    9.1523  -13.8724   28.3902 O   0  0  0  0  0  0  0  0  0  0  0  0
  2  3  1  0
  2  1  1  6
  3  4  1  0
  5  7  1  0
  5  2  1  0
  6  5  2  0
  8  7  1  0
  9 11  1  0
  9  8  1  0
 10  9  2  0
 12 11  1  0
 12 15  1  0
 12 13  1  1
 14 13  1  0
 15 17  1  0
 16 15  2  0
M  END
$$$$
