CGC.pdb
     RDKit          3D

 17 16  0  0  1  0  0  0  0  0999 V2000
    9.0504  -18.0115   21.2498 N   0  0  0  0  0  0  0  0  0  0  0  0
    8.2850  -16.8745   20.7471 C   0  0  1  0  0  0  0  0  0  0  0  0
    7.2817  -17.3916   19.7118 C   0  0  0  0  0  0  0  0  0  0  0  0
    8.0678  -18.2184   18.3284 S   0  0  0  0  0  0  0  0  0  0  0  0
    7.5199  -16.2968   21.8650 C   0  0  0  0  0  0  0  0  0  0  0  0
    6.8728  -15.2292   21.6689 O   0  0  0  0  0  0  0  0  0  0  0  0
    7.4481  -16.8515   23.1657 N   0  0  0  0  0  0  0  0  0  0  0  0
    6.7501  -16.1372   24.2121 C   0  0  0  0  0  0  0  0  0  0  0  0
    7.6989  -15.2536   24.9500 C   0  0  0  0  0  0  0  0  0  0  0  0
    8.9302  -15.2244   24.6971 O   0  0  0  0  0  0  0  0  0  0  0  0
    7.2592  -14.3910   25.9859 N   0  0  0  0  0  0  0  0  0  0  0  0
    8.1469  -13.5320   26.6970 C   0  0  1  0  0  0  0  0  0  0  0  0
    7.2720  -12.4781   27.3903 C   0  0  0  0  0  0  0  0  0  0  0  0
    5.9933  -11.8422   26.3151 S   0  0  0  0  0  0  0  0  0  0  0  0
    9.0446  -14.1972   27.6260 C   0  0  0  0  0  0  0  0  0  0  0  0
    8.9482  -15.4123   27.9009 O   0  0  0  0  0  0  0  0  0  0  0  0
   10.0526  -13.4840   28.2439 O   0  0  0  0  0  0  0  0  0  0  0  0
  2  3  1  0
  2  1  1  1
  3  4  1  0
  5  7  1  0
  5  2  1  0
  6  5  2  0
  8  7  1  0
  9 11  1  0
  9  8  1  0
 10  9  2  0
 12 11  1  0
 12 15  1  0
 12 13  1  1
 14 13  1  0
 15 17  1  0
 16 15  2  0
M  END
$$$$
