CGC.pdb
     RDKit          3D

 17 16  0  0  1  0  0  0  0  0999 V2000
    6.9538  -14.7713   19.2584 N   0  0  0  0  0  0  0  0  0  0  0  0
    8.3176  -15.0517   19.6973 C   0  0  1  0  0  0  0  0  0  0  0  0
    9.1198  -13.7485   19.6328 C   0  0  0  0  0  0  0  0  0  0  0  0
    8.3960  -12.5357   18.5280 S   0  0  0  0  0  0  0  0  0  0  0  0
    8.2748  -15.4840   21.1044 C   0  0  0  0  0  0  0  0  0  0  0  0
    9.3394  -15.9006   21.6431 O   0  0  0  0  0  0  0  0  0  0  0  0
    7.1164  -15.4693   21.9183 N   0  0  0  0  0  0  0  0  0  0  0  0
    7.2018  -15.9060   23.2947 C   0  0  0  0  0  0  0  0  0  0  0  0
    7.9093  -14.8801   24.1147 C   0  0  0  0  0  0  0  0  0  0  0  0
    8.9741  -14.3294   23.7355 O   0  0  0  0  0  0  0  0  0  0  0  0
    7.4145  -14.4668   25.3775 N   0  0  0  0  0  0  0  0  0  0  0  0
    8.1540  -13.6161   26.2498 C   0  0  1  0  0  0  0  0  0  0  0  0
    7.2539  -12.4088   26.5481 C   0  0  0  0  0  0  0  0  0  0  0  0
    5.6005  -12.8945   27.0230 S   0  0  0  0  0  0  0  0  0  0  0  0
    8.6464  -14.2464   27.4630 C   0  0  0  0  0  0  0  0  0  0  0  0
    9.3592  -13.6426   28.2928 O   0  0  0  0  0  0  0  0  0  0  0  0
    8.3302  -15.5625   27.7356 O   0  0  0  0  0  0  0  0  0  0  0  0
  2  3  1  0
  2  1  1  1
  3  4  1  0
  5  7  1  0
  5  2  1  0
  6  5  2  0
  8  7  1  0
  9 11  1  0
  9  8  1  0
 10  9  2  0
 12 11  1  0
 12 15  1  0
 12 13  1  1
 14 13  1  0
 15 17  1  0
 16 15  2  0
M  END
$$$$
