CGC.pdb
     RDKit          3D

 17 16  0  0  1  0  0  0  0  0999 V2000
   -2.3687  -21.3521   22.4124 N   0  0  0  0  0  0  0  0  0  0  0  0
   -2.5672  -21.0106   23.8178 C   0  0  1  0  0  0  0  0  0  0  0  0
   -2.4403  -19.4913   23.9648 C   0  0  0  0  0  0  0  0  0  0  0  0
   -0.7972  -18.8861   23.5782 S   0  0  0  0  0  0  0  0  0  0  0  0
   -3.9391  -21.3860   24.1993 C   0  0  0  0  0  0  0  0  0  0  0  0
   -4.8611  -21.2643   23.3436 O   0  0  0  0  0  0  0  0  0  0  0  0
   -4.3160  -21.8828   25.4705 N   0  0  0  0  0  0  0  0  0  0  0  0
   -5.6978  -22.2267   25.7249 C   0  0  0  0  0  0  0  0  0  0  0  0
   -5.8503  -22.7380   27.1181 C   0  0  0  0  0  0  0  0  0  0  0  0
   -4.8723  -23.1287   27.8049 O   0  0  0  0  0  0  0  0  0  0  0  0
   -7.1182  -22.8117   27.7486 N   0  0  0  0  0  0  0  0  0  0  0  0
   -7.2916  -23.3343   29.0632 C   0  0  1  0  0  0  0  0  0  0  0  0
   -6.6316  -22.3326   30.0213 C   0  0  0  0  0  0  0  0  0  0  0  0
   -7.4881  -20.7642   30.0607 S   0  0  0  0  0  0  0  0  0  0  0  0
   -8.6637  -23.6302   29.4386 C   0  0  0  0  0  0  0  0  0  0  0  0
   -9.6243  -23.4716   28.6554 O   0  0  0  0  0  0  0  0  0  0  0  0
   -8.9472  -24.1065   30.7033 O   0  0  0  0  0  0  0  0  0  0  0  0
  2  3  1  0
  2  1  1  6
  3  4  1  0
  5  7  1  0
  5  2  1  0
  6  5  2  0
  8  7  1  0
  9 11  1  0
  9  8  1  0
 10  9  2  0
 12 11  1  0
 12 15  1  0
 12 13  1  1
 14 13  1  0
 15 17  1  0
 16 15  2  0
M  END
$$$$
