CGC.pdb
     RDKit          3D

 17 16  0  0  1  0  0  0  0  0999 V2000
    5.2358  -19.4383   22.2361 N   0  0  0  0  0  0  0  0  0  0  0  0
    5.1040  -18.1699   21.5254 C   0  0  1  0  0  0  0  0  0  0  0  0
    3.6239  -17.7761   21.5175 C   0  0  0  0  0  0  0  0  0  0  0  0
    2.5815  -18.9900   20.7079 S   0  0  0  0  0  0  0  0  0  0  0  0
    5.8398  -17.1373   22.2743 C   0  0  0  0  0  0  0  0  0  0  0  0
    6.1784  -17.3796   23.4675 O   0  0  0  0  0  0  0  0  0  0  0  0
    6.2069  -15.8719   21.7559 N   0  0  0  0  0  0  0  0  0  0  0  0
    7.6041  -15.5597   21.5495 C   0  0  0  0  0  0  0  0  0  0  0  0
    8.2171  -15.0864   22.8246 C   0  0  0  0  0  0  0  0  0  0  0  0
    9.4482  -14.8578   22.9380 O   0  0  0  0  0  0  0  0  0  0  0  0
    7.4370  -14.8668   23.9881 N   0  0  0  0  0  0  0  0  0  0  0  0
    8.0185  -14.6162   25.2651 C   0  0  1  0  0  0  0  0  0  0  0  0
    6.8947  -14.0683   26.1560 C   0  0  0  0  0  0  0  0  0  0  0  0
    6.4846  -12.3725   25.7671 S   0  0  0  0  0  0  0  0  0  0  0  0
    8.6972  -15.7486   25.8721 C   0  0  0  0  0  0  0  0  0  0  0  0
    8.6279  -16.9046   25.4028 O   0  0  0  0  0  0  0  0  0  0  0  0
    9.4554  -15.5702   27.0122 O   0  0  0  0  0  0  0  0  0  0  0  0
  2  3  1  0
  2  1  1  1
  3  4  1  0
  5  7  1  0
  5  2  1  0
  6  5  2  0
  8  7  1  0
  9 11  1  0
  9  8  1  0
 10  9  2  0
 12 11  1  0
 12 15  1  0
 12 13  1  1
 14 13  1  0
 15 17  1  0
 16 15  2  0
M  END
$$$$
