CGC.pdb
     RDKit          3D

 17 16  0  0  1  0  0  0  0  0999 V2000
   10.0203  -18.9937   21.7099 N   0  0  0  0  0  0  0  0  0  0  0  0
   10.4743  -17.6815   21.2593 C   0  0  1  0  0  0  0  0  0  0  0  0
    9.8079  -17.3794   19.9137 C   0  0  0  0  0  0  0  0  0  0  0  0
   10.2151  -18.5808   18.6463 S   0  0  0  0  0  0  0  0  0  0  0  0
   10.0127  -16.6712   22.2262 C   0  0  0  0  0  0  0  0  0  0  0  0
   10.3712  -15.4701   22.0655 O   0  0  0  0  0  0  0  0  0  0  0  0
    9.1834  -16.9412   23.3416 N   0  0  0  0  0  0  0  0  0  0  0  0
    8.6895  -15.8474   24.1491 C   0  0  0  0  0  0  0  0  0  0  0  0
    9.6388  -15.5649   25.2647 C   0  0  0  0  0  0  0  0  0  0  0  0
   10.7463  -16.1500   25.3735 O   0  0  0  0  0  0  0  0  0  0  0  0
    9.3403  -14.6126   26.2719 N   0  0  0  0  0  0  0  0  0  0  0  0
   10.2647  -14.2701   27.3014 C   0  0  1  0  0  0  0  0  0  0  0  0
    9.7289  -12.9914   27.9608 C   0  0  0  0  0  0  0  0  0  0  0  0
    8.1204  -12.5265   27.3350 S   0  0  0  0  0  0  0  0  0  0  0  0
   10.5306  -15.3180   28.2721 C   0  0  0  0  0  0  0  0  0  0  0  0
   11.3913  -15.2001   29.1702 O   0  0  0  0  0  0  0  0  0  0  0  0
    9.8200  -16.5009   28.2246 O   0  0  0  0  0  0  0  0  0  0  0  0
  2  3  1  0
  2  1  1  1
  3  4  1  0
  5  7  1  0
  5  2  1  0
  6  5  2  0
  8  7  1  0
  9 11  1  0
  9  8  1  0
 10  9  2  0
 12 11  1  0
 12 15  1  0
 12 13  1  1
 14 13  1  0
 15 17  1  0
 16 15  2  0
M  END
$$$$
