CGC.pdb
     RDKit          3D

 17 16  0  0  1  0  0  0  0  0999 V2000
    6.7444  -16.6187   20.4606 N   0  0  0  0  0  0  0  0  0  0  0  0
    7.7238  -16.2987   21.4949 C   0  0  1  0  0  0  0  0  0  0  0  0
    8.5399  -15.0907   21.0255 C   0  0  0  0  0  0  0  0  0  0  0  0
    7.5851  -13.5732   20.9889 S   0  0  0  0  0  0  0  0  0  0  0  0
    7.0005  -15.9055   22.7160 C   0  0  0  0  0  0  0  0  0  0  0  0
    6.0271  -15.1061   22.6130 O   0  0  0  0  0  0  0  0  0  0  0  0
    7.3121  -16.3598   24.0203 N   0  0  0  0  0  0  0  0  0  0  0  0
    8.6119  -16.9359   24.2871 C   0  0  0  0  0  0  0  0  0  0  0  0
    9.5293  -15.8968   24.8388 C   0  0  0  0  0  0  0  0  0  0  0  0
   10.6074  -15.5797   24.2749 O   0  0  0  0  0  0  0  0  0  0  0  0
    9.2321  -15.2044   26.0399 N   0  0  0  0  0  0  0  0  0  0  0  0
   10.2363  -14.8400   26.9835 C   0  0  1  0  0  0  0  0  0  0  0  0
    9.9258  -13.4002   27.4166 C   0  0  0  0  0  0  0  0  0  0  0  0
    8.1954  -13.1629   27.7967 S   0  0  0  0  0  0  0  0  0  0  0  0
   10.3774  -15.7361   28.1186 C   0  0  0  0  0  0  0  0  0  0  0  0
    9.5610  -16.6513   28.3583 O   0  0  0  0  0  0  0  0  0  0  0  0
   11.4449  -15.5946   28.9827 O   0  0  0  0  0  0  0  0  0  0  0  0
  2  3  1  0
  2  1  1  6
  3  4  1  0
  5  7  1  0
  5  2  1  0
  6  5  2  0
  8  7  1  0
  9 11  1  0
  9  8  1  0
 10  9  2  0
 12 11  1  0
 12 15  1  0
 12 13  1  1
 14 13  1  0
 15 17  1  0
 16 15  2  0
M  END
$$$$
