QAQ.pdb
     RDKit          3D

 24 23  0  0  1  0  0  0  0  0999 V2000
    7.1359  -18.6923   16.7403 N   0  0  0  0  0  0  0  0  0  0  0  0
    7.3142  -19.6969   17.7189 C   0  0  0  0  0  0  0  0  0  0  0  0
    6.4308  -20.5809   17.8281 O   0  0  0  0  0  0  0  0  0  0  0  0
    8.4819  -19.7557   18.6133 C   0  0  0  0  0  0  0  0  0  0  0  0
    9.0662  -18.4410   18.9741 C   0  0  0  0  0  0  0  0  0  0  0  0
    8.6755  -17.8730   20.3002 C   0  0  2  0  0  0  0  0  0  0  0  0
    7.1961  -18.0294   20.3565 N   0  0  0  0  0  0  0  0  0  0  0  0
    8.9135  -16.4154   20.4164 C   0  0  0  0  0  0  0  0  0  0  0  0
   10.0986  -15.9411   20.5190 O   0  0  0  0  0  0  0  0  0  0  0  0
    7.0844  -13.1348   20.1007 C   0  0  0  0  0  0  0  0  0  0  0  0
    8.2371  -14.0415   20.5423 C   0  0  2  0  0  0  0  0  0  0  0  0
    7.8635  -15.4299   20.4197 N   0  0  0  0  0  0  0  0  0  0  0  0
    8.5659  -13.6784   21.9394 C   0  0  0  0  0  0  0  0  0  0  0  0
    9.0081  -12.5022   22.2054 O   0  0  0  0  0  0  0  0  0  0  0  0
    6.7285  -11.0665   27.7208 N   0  0  0  0  0  0  0  0  0  0  0  0
    6.5386  -12.1238   26.7688 C   0  0  0  0  0  0  0  0  0  0  0  0
    5.3979  -12.4106   26.3479 O   0  0  0  0  0  0  0  0  0  0  0  0
    7.7388  -12.8536   26.3105 C   0  0  0  0  0  0  0  0  0  0  0  0
    7.4781  -13.3932   24.9323 C   0  0  0  0  0  0  0  0  0  0  0  0
    8.7172  -14.1010   24.3774 C   0  0  2  0  0  0  0  0  0  0  0  0
    8.4235  -14.5583   23.0406 N   0  0  0  0  0  0  0  0  0  0  0  0
    9.1162  -15.2198   25.2642 C   0  0  0  0  0  0  0  0  0  0  0  0
    9.7033  -14.9391   26.4832 O   0  0  0  0  0  0  0  0  0  0  0  0
    8.9230  -16.4099   24.9118 O   0  0  0  0  0  0  0  0  0  0  0  0
  2  3  2  0
  2  1  1  0
  4  2  1  0
  5  6  1  0
  5  4  1  0
  6  7  1  6
  8  6  1  0
  8  9  2  0
 11 10  1  1
 11 12  1  0
 11 13  1  0
 12  8  1  0
 13 21  1  0
 14 13  2  0
 15 16  1  0
 16 17  2  0
 18 19  1  0
 18 16  1  0
 20 19  1  1
 20 22  1  0
 21 20  1  0
 22 24  2  0
 22 23  1  0
M  END
$$$$
