QAQ.pdb
     RDKit          3D

 24 23  0  0  1  0  0  0  0  0999 V2000
    8.1187  -20.2659   16.2136 N   0  0  0  0  0  0  0  0  0  0  0  0
    8.4398  -20.2557   17.5903 C   0  0  0  0  0  0  0  0  0  0  0  0
    8.7604  -21.3408   18.1320 O   0  0  0  0  0  0  0  0  0  0  0  0
    8.4160  -19.0376   18.4167 C   0  0  0  0  0  0  0  0  0  0  0  0
    7.4411  -18.0049   17.9889 C   0  0  0  0  0  0  0  0  0  0  0  0
    7.9957  -16.6636   17.6325 C   0  0  2  0  0  0  0  0  0  0  0  0
    9.3004  -16.9567   16.9780 N   0  0  0  0  0  0  0  0  0  0  0  0
    8.3336  -15.8280   18.8082 C   0  0  0  0  0  0  0  0  0  0  0  0
    9.4164  -16.0132   19.4666 O   0  0  0  0  0  0  0  0  0  0  0  0
    6.9480  -12.9274   20.8185 C   0  0  0  0  0  0  0  0  0  0  0  0
    7.9760  -13.9917   20.4234 C   0  0  2  0  0  0  0  0  0  0  0  0
    7.5008  -14.7605   19.2986 N   0  0  0  0  0  0  0  0  0  0  0  0
    8.2053  -14.8393   21.6155 C   0  0  0  0  0  0  0  0  0  0  0  0
    7.4650  -15.8693   21.8175 O   0  0  0  0  0  0  0  0  0  0  0  0
   13.3916  -16.3489   24.0422 N   0  0  0  0  0  0  0  0  0  0  0  0
   12.7034  -17.0415   22.9901 C   0  0  0  0  0  0  0  0  0  0  0  0
   13.2999  -17.8706   22.2708 O   0  0  0  0  0  0  0  0  0  0  0  0
   11.2711  -16.7359   22.7942 C   0  0  0  0  0  0  0  0  0  0  0  0
   10.8168  -15.8245   23.8995 C   0  0  0  0  0  0  0  0  0  0  0  0
    9.3410  -15.4530   23.7318 C   0  0  2  0  0  0  0  0  0  0  0  0
    9.2131  -14.5928   22.5802 N   0  0  0  0  0  0  0  0  0  0  0  0
    8.8266  -14.8036   24.9610 C   0  0  0  0  0  0  0  0  0  0  0  0
    8.7166  -15.5456   26.1215 O   0  0  0  0  0  0  0  0  0  0  0  0
    8.4943  -13.5924   24.9482 O   0  0  0  0  0  0  0  0  0  0  0  0
  2  3  2  0
  2  1  1  0
  4  2  1  0
  5  6  1  0
  5  4  1  0
  6  7  1  1
  8  6  1  0
  8  9  2  0
 11 10  1  1
 11 12  1  0
 11 13  1  0
 12  8  1  0
 13 21  1  0
 14 13  2  0
 15 16  1  0
 16 17  2  0
 18 19  1  0
 18 16  1  0
 20 19  1  1
 20 22  1  0
 21 20  1  0
 22 24  2  0
 22 23  1  0
M  END
$$$$
