QAQ.pdb
     RDKit          3D

 24 23  0  0  1  0  0  0  0  0999 V2000
    8.1813  -17.8774   16.7434 N   0  0  0  0  0  0  0  0  0  0  0  0
    7.8663  -16.9296   15.7429 C   0  0  0  0  0  0  0  0  0  0  0  0
    7.3090  -17.3368   14.6954 O   0  0  0  0  0  0  0  0  0  0  0  0
    8.1600  -15.4927   15.8697 C   0  0  0  0  0  0  0  0  0  0  0  0
    8.7560  -15.0832   17.1648 C   0  0  0  0  0  0  0  0  0  0  0  0
    8.0807  -13.9657   17.8921 C   0  0  2  0  0  0  0  0  0  0  0  0
    8.5054  -12.7349   17.1703 N   0  0  0  0  0  0  0  0  0  0  0  0
    8.5621  -13.7832   19.2812 C   0  0  0  0  0  0  0  0  0  0  0  0
    9.7734  -13.4479   19.5265 O   0  0  0  0  0  0  0  0  0  0  0  0
    7.3335  -13.9297   22.8574 C   0  0  0  0  0  0  0  0  0  0  0  0
    8.3763  -13.9888   21.7372 C   0  0  2  0  0  0  0  0  0  0  0  0
    7.7333  -13.9573   20.4458 N   0  0  0  0  0  0  0  0  0  0  0  0
    9.1584  -15.2302   21.9355 C   0  0  0  0  0  0  0  0  0  0  0  0
    8.7556  -16.3290   21.4062 O   0  0  0  0  0  0  0  0  0  0  0  0
   13.4160  -15.3896   19.8852 N   0  0  0  0  0  0  0  0  0  0  0  0
   13.8229  -14.8521   21.1523 C   0  0  0  0  0  0  0  0  0  0  0  0
   14.6477  -13.9160   21.2168 O   0  0  0  0  0  0  0  0  0  0  0  0
   13.2306  -15.4469   22.3684 C   0  0  0  0  0  0  0  0  0  0  0  0
   12.2916  -16.5466   21.9592 C   0  0  0  0  0  0  0  0  0  0  0  0
   11.0430  -16.5590   22.8453 C   0  0  2  0  0  0  0  0  0  0  0  0
   10.3569  -15.2992   22.6878 N   0  0  0  0  0  0  0  0  0  0  0  0
   11.4126  -16.8088   24.2589 C   0  0  0  0  0  0  0  0  0  0  0  0
   12.0562  -17.9857   24.5908 O   0  0  0  0  0  0  0  0  0  0  0  0
   11.1438  -15.9606   25.1454 O   0  0  0  0  0  0  0  0  0  0  0  0
  2  3  2  0
  2  1  1  0
  4  2  1  0
  5  6  1  0
  5  4  1  0
  6  7  1  6
  8  6  1  0
  8  9  2  0
 11 10  1  1
 11 12  1  0
 11 13  1  0
 12  8  1  0
 13 21  1  0
 14 13  2  0
 15 16  1  0
 16 17  2  0
 18 19  1  0
 18 16  1  0
 20 19  1  6
 20 22  1  0
 21 20  1  0
 22 24  2  0
 22 23  1  0
M  END
$$$$
