QAQ.pdb
     RDKit          3D

 24 23  0  0  1  0  0  0  0  0999 V2000
    7.9703  -15.3291   12.0426 N   0  0  0  0  0  0  0  0  0  0  0  0
    7.0434  -15.5663   13.0833 C   0  0  0  0  0  0  0  0  0  0  0  0
    5.8203  -15.5325   12.8065 O   0  0  0  0  0  0  0  0  0  0  0  0
    7.4422  -15.8498   14.4718 C   0  0  0  0  0  0  0  0  0  0  0  0
    8.9044  -15.8450   14.7209 C   0  0  0  0  0  0  0  0  0  0  0  0
    9.3490  -16.1331   16.1184 C   0  0  2  0  0  0  0  0  0  0  0  0
    8.1268  -16.6293   16.8084 N   0  0  0  0  0  0  0  0  0  0  0  0
    9.7548  -14.9254   16.8745 C   0  0  0  0  0  0  0  0  0  0  0  0
   10.8595  -14.3263   16.6278 O   0  0  0  0  0  0  0  0  0  0  0  0
    8.3991  -12.4666   19.3969 C   0  0  0  0  0  0  0  0  0  0  0  0
    9.4995  -13.1805   18.6062 C   0  0  2  0  0  0  0  0  0  0  0  0
    8.9636  -14.3319   17.9211 N   0  0  0  0  0  0  0  0  0  0  0  0
   10.5572  -13.5543   19.5723 C   0  0  0  0  0  0  0  0  0  0  0  0
   11.1659  -12.6393   20.2371 O   0  0  0  0  0  0  0  0  0  0  0  0
   10.9170  -17.5767   24.8219 N   0  0  0  0  0  0  0  0  0  0  0  0
   10.4551  -17.5610   23.4631 C   0  0  0  0  0  0  0  0  0  0  0  0
    9.9713  -18.5862   22.9383 O   0  0  0  0  0  0  0  0  0  0  0  0
   10.5745  -16.2918   22.7159 C   0  0  0  0  0  0  0  0  0  0  0  0
   11.4847  -16.5083   21.5398 C   0  0  0  0  0  0  0  0  0  0  0  0
   11.8816  -15.1745   20.9013 C   0  0  2  0  0  0  0  0  0  0  0  0
   10.9604  -14.8881   19.8280 N   0  0  0  0  0  0  0  0  0  0  0  0
   13.2832  -15.2258   20.4215 C   0  0  0  0  0  0  0  0  0  0  0  0
   14.3137  -15.0625   21.3275 O   0  0  0  0  0  0  0  0  0  0  0  0
   13.5318  -15.4156   19.2050 O   0  0  0  0  0  0  0  0  0  0  0  0
  2  3  2  0
  2  1  1  0
  4  2  1  0
  5  6  1  0
  5  4  1  0
  6  7  1  1
  8  6  1  0
  8  9  2  0
 11 10  1  1
 11 12  1  0
 11 13  1  0
 12  8  1  0
 13 21  1  0
 14 13  2  0
 15 16  1  0
 16 17  2  0
 18 19  1  0
 18 16  1  0
 20 19  1  6
 20 22  1  0
 21 20  1  0
 22 24  2  0
 22 23  1  0
M  END
$$$$
