QAQ.pdb
     RDKit          3D

 24 23  0  0  1  0  0  0  0  0999 V2000
   15.8829  -18.6989   17.3396 N   0  0  0  0  0  0  0  0  0  0  0  0
   16.1906  -17.3192   17.3251 C   0  0  0  0  0  0  0  0  0  0  0  0
   17.2422  -16.9406   17.8949 O   0  0  0  0  0  0  0  0  0  0  0  0
   15.3397  -16.3081   16.6763 C   0  0  0  0  0  0  0  0  0  0  0  0
   14.4177  -15.5837   17.5845 C   0  0  0  0  0  0  0  0  0  0  0  0
   13.0415  -15.3121   17.0686 C   0  0  2  0  0  0  0  0  0  0  0  0
   13.2512  -14.4642   15.8630 N   0  0  0  0  0  0  0  0  0  0  0  0
   12.2162  -14.4870   17.9810 C   0  0  0  0  0  0  0  0  0  0  0  0
   12.7538  -13.6747   18.8125 O   0  0  0  0  0  0  0  0  0  0  0  0
    8.6019  -13.6992   18.7662 C   0  0  0  0  0  0  0  0  0  0  0  0
   10.1027  -13.7912   19.0572 C   0  0  2  0  0  0  0  0  0  0  0  0
   10.7768  -14.5204   18.0103 N   0  0  0  0  0  0  0  0  0  0  0  0
   10.2513  -14.4505   20.3745 C   0  0  0  0  0  0  0  0  0  0  0  0
    9.6215  -13.9877   21.3938 O   0  0  0  0  0  0  0  0  0  0  0  0
   12.3015  -20.4947   24.0767 N   0  0  0  0  0  0  0  0  0  0  0  0
   11.8018  -19.7486   22.9571 C   0  0  0  0  0  0  0  0  0  0  0  0
   11.5548  -20.3121   21.8698 O   0  0  0  0  0  0  0  0  0  0  0  0
   11.5929  -18.2976   23.1418 C   0  0  0  0  0  0  0  0  0  0  0  0
   11.3759  -17.6663   21.7953 C   0  0  0  0  0  0  0  0  0  0  0  0
   11.1615  -16.1559   21.9263 C   0  0  2  0  0  0  0  0  0  0  0  0
   11.0603  -15.5910   20.6023 N   0  0  0  0  0  0  0  0  0  0  0  0
   12.2648  -15.5407   22.7018 C   0  0  0  0  0  0  0  0  0  0  0  0
   12.3075  -15.7167   24.0718 O   0  0  0  0  0  0  0  0  0  0  0  0
   13.1512  -14.8668   22.1206 O   0  0  0  0  0  0  0  0  0  0  0  0
  2  3  2  0
  2  1  1  0
  4  2  1  0
  5  6  1  0
  5  4  1  0
  6  7  1  6
  8  6  1  0
  8  9  2  0
 11 10  1  6
 11 12  1  0
 11 13  1  0
 12  8  1  0
 13 21  1  0
 14 13  2  0
 15 16  1  0
 16 17  2  0
 18 19  1  0
 18 16  1  0
 20 19  1  6
 20 22  1  0
 21 20  1  0
 22 24  2  0
 22 23  1  0
M  END
$$$$
