QAQ.pdb
     RDKit          3D

 24 23  0  0  1  0  0  0  0  0999 V2000
    1.7220  -20.5507   20.1606 N   0  0  0  0  0  0  0  0  0  0  0  0
    1.9365  -19.5458   21.1315 C   0  0  0  0  0  0  0  0  0  0  0  0
    1.1030  -19.4338   22.0623 O   0  0  0  0  0  0  0  0  0  0  0  0
    3.0865  -18.6272   21.1035 C   0  0  0  0  0  0  0  0  0  0  0  0
    4.3372  -19.1999   20.5488 C   0  0  0  0  0  0  0  0  0  0  0  0
    5.4257  -19.5091   21.5253 C   0  0  2  0  0  0  0  0  0  0  0  0
    4.7136  -19.9255   22.7646 N   0  0  0  0  0  0  0  0  0  0  0  0
    6.2251  -18.3258   21.9194 C   0  0  0  0  0  0  0  0  0  0  0  0
    7.0237  -17.7580   21.0947 O   0  0  0  0  0  0  0  0  0  0  0  0
    6.8072  -16.0363   24.8783 C   0  0  0  0  0  0  0  0  0  0  0  0
    7.1442  -16.7029   23.5412 C   0  0  2  0  0  0  0  0  0  0  0  0
    6.1734  -17.7229   23.2261 N   0  0  0  0  0  0  0  0  0  0  0  0
    8.5108  -17.2591   23.6642 C   0  0  0  0  0  0  0  0  0  0  0  0
    8.8320  -18.3132   23.0043 O   0  0  0  0  0  0  0  0  0  0  0  0
   14.0837  -15.2608   20.6150 N   0  0  0  0  0  0  0  0  0  0  0  0
   12.7456  -15.4879   21.0817 C   0  0  0  0  0  0  0  0  0  0  0  0
   11.7606  -15.0956   20.4209 O   0  0  0  0  0  0  0  0  0  0  0  0
   12.5819  -16.1994   22.3663 C   0  0  0  0  0  0  0  0  0  0  0  0
   11.1391  -16.1228   22.7797 C   0  0  0  0  0  0  0  0  0  0  0  0
   10.9123  -16.8396   24.1135 C   0  0  2  0  0  0  0  0  0  0  0  0
    9.5238  -16.6973   24.4799 N   0  0  0  0  0  0  0  0  0  0  0  0
   11.8131  -16.2926   25.1560 C   0  0  0  0  0  0  0  0  0  0  0  0
   13.0436  -16.8859   25.3645 O   0  0  0  0  0  0  0  0  0  0  0  0
   11.4621  -15.3010   25.8425 O   0  0  0  0  0  0  0  0  0  0  0  0
  2  3  2  0
  2  1  1  0
  4  2  1  0
  5  6  1  0
  5  4  1  0
  6  7  1  1
  8  6  1  0
  8  9  2  0
 11 10  1  1
 11 12  1  0
 11 13  1  0
 12  8  1  0
 13 21  1  0
 14 13  2  0
 15 16  1  0
 16 17  2  0
 18 19  1  0
 18 16  1  0
 20 19  1  6
 20 22  1  0
 21 20  1  0
 22 24  2  0
 22 23  1  0
M  END
$$$$
