QAQ.pdb
     RDKit          3D

 24 23  0  0  1  0  0  0  0  0999 V2000
   15.9538  -13.8441   20.4625 N   0  0  0  0  0  0  0  0  0  0  0  0
   15.5384  -14.3162   19.1964 C   0  0  0  0  0  0  0  0  0  0  0  0
   16.3867  -14.3615   18.2734 O   0  0  0  0  0  0  0  0  0  0  0  0
   14.1630  -14.7554   18.9091 C   0  0  0  0  0  0  0  0  0  0  0  0
   13.2141  -14.6380   20.0431 C   0  0  0  0  0  0  0  0  0  0  0  0
   11.8105  -15.0871   19.7943 C   0  0  2  0  0  0  0  0  0  0  0  0
   11.0961  -13.8606   19.3452 N   0  0  0  0  0  0  0  0  0  0  0  0
   11.0987  -15.5208   21.0190 C   0  0  0  0  0  0  0  0  0  0  0  0
   10.5034  -14.6769   21.7763 O   0  0  0  0  0  0  0  0  0  0  0  0
    9.8730  -18.6360   22.7313 C   0  0  0  0  0  0  0  0  0  0  0  0
   10.3139  -17.1700   22.6842 C   0  0  2  0  0  0  0  0  0  0  0  0
   11.0114  -16.8913   21.4522 N   0  0  0  0  0  0  0  0  0  0  0  0
   11.1691  -16.9343   23.8696 C   0  0  0  0  0  0  0  0  0  0  0  0
   12.4369  -17.1246   23.7892 O   0  0  0  0  0  0  0  0  0  0  0  0
    9.3890  -14.5633   29.2913 N   0  0  0  0  0  0  0  0  0  0  0  0
    9.4724  -13.7920   28.0837 C   0  0  0  0  0  0  0  0  0  0  0  0
    8.8975  -12.6871   27.9874 O   0  0  0  0  0  0  0  0  0  0  0  0
   10.2603  -14.3544   26.9673 C   0  0  0  0  0  0  0  0  0  0  0  0
   10.8205  -15.6823   27.3933 C   0  0  0  0  0  0  0  0  0  0  0  0
   11.5792  -16.3512   26.2438 C   0  0  2  0  0  0  0  0  0  0  0  0
   10.6791  -16.4992   25.1256 N   0  0  0  0  0  0  0  0  0  0  0  0
   12.1334  -17.6557   26.6777 C   0  0  0  0  0  0  0  0  0  0  0  0
   13.4230  -17.7112   27.1710 O   0  0  0  0  0  0  0  0  0  0  0  0
   11.4389  -18.6993   26.5980 O   0  0  0  0  0  0  0  0  0  0  0  0
  2  3  2  0
  2  1  1  0
  4  2  1  0
  5  6  1  0
  5  4  1  0
  6  7  1  1
  8  6  1  0
  8  9  2  0
 11 10  1  6
 11 12  1  0
 11 13  1  0
 12  8  1  0
 13 21  1  0
 14 13  2  0
 15 16  1  0
 16 17  2  0
 18 19  1  0
 18 16  1  0
 20 19  1  1
 20 22  1  0
 21 20  1  0
 22 24  2  0
 22 23  1  0
M  END
$$$$
