QAQ.pdb
     RDKit          3D

 24 23  0  0  1  0  0  0  0  0999 V2000
   12.6812  -15.4505   11.3586 N   0  0  0  0  0  0  0  0  0  0  0  0
   11.6175  -16.1110   10.7022 C   0  0  0  0  0  0  0  0  0  0  0  0
   11.5885  -16.0862    9.4484 O   0  0  0  0  0  0  0  0  0  0  0  0
   10.5454  -16.8237   11.4162 C   0  0  0  0  0  0  0  0  0  0  0  0
   10.7034  -16.8870   12.8897 C   0  0  0  0  0  0  0  0  0  0  0  0
    9.6707  -17.6605   13.6438 C   0  0  2  0  0  0  0  0  0  0  0  0
    8.3759  -17.0325   13.2624 N   0  0  0  0  0  0  0  0  0  0  0  0
    9.7602  -17.4966   15.1134 C   0  0  0  0  0  0  0  0  0  0  0  0
    8.9838  -16.6949   15.7417 O   0  0  0  0  0  0  0  0  0  0  0  0
    9.0637  -19.3379   17.3668 C   0  0  0  0  0  0  0  0  0  0  0  0
   10.3267  -18.4732   17.3121 C   0  0  2  0  0  0  0  0  0  0  0  0
   10.6982  -18.2073   15.9434 N   0  0  0  0  0  0  0  0  0  0  0  0
   11.3874  -19.2052   18.0409 C   0  0  0  0  0  0  0  0  0  0  0  0
   11.5436  -20.4648   17.8439 O   0  0  0  0  0  0  0  0  0  0  0  0
    9.3541  -21.0742   21.9106 N   0  0  0  0  0  0  0  0  0  0  0  0
   10.5868  -21.2936   22.6124 C   0  0  0  0  0  0  0  0  0  0  0  0
   10.6229  -22.0063   23.6378 O   0  0  0  0  0  0  0  0  0  0  0  0
   11.8023  -20.6467   22.0763 C   0  0  0  0  0  0  0  0  0  0  0  0
   11.4367  -19.8915   20.8295 C   0  0  0  0  0  0  0  0  0  0  0  0
   12.6836  -19.3177   20.1510 C   0  0  2  0  0  0  0  0  0  0  0  0
   12.2725  -18.6013   18.9676 N   0  0  0  0  0  0  0  0  0  0  0  0
   13.6442  -20.4001   19.8303 C   0  0  0  0  0  0  0  0  0  0  0  0
   14.8875  -20.4003   20.4335 O   0  0  0  0  0  0  0  0  0  0  0  0
   13.3320  -21.3071   19.0195 O   0  0  0  0  0  0  0  0  0  0  0  0
  2  3  2  0
  2  1  1  0
  4  2  1  0
  5  6  1  0
  5  4  1  0
  6  7  1  6
  8  6  1  0
  8  9  2  0
 11 10  1  6
 11 12  1  0
 11 13  1  0
 12  8  1  0
 13 21  1  0
 14 13  2  0
 15 16  1  0
 16 17  2  0
 18 19  1  0
 18 16  1  0
 20 19  1  6
 20 22  1  0
 21 20  1  0
 22 24  2  0
 22 23  1  0
M  END
$$$$
