QAQ.pdb
     RDKit          3D

 24 23  0  0  1  0  0  0  0  0999 V2000
    8.7415  -17.1987   15.7710 N   0  0  0  0  0  0  0  0  0  0  0  0
    9.5183  -17.4056   16.9339 C   0  0  0  0  0  0  0  0  0  0  0  0
    9.6918  -18.5837   17.3287 O   0  0  0  0  0  0  0  0  0  0  0  0
   10.1312  -16.3095   17.7020 C   0  0  0  0  0  0  0  0  0  0  0  0
    9.8317  -14.9455   17.2022 C   0  0  0  0  0  0  0  0  0  0  0  0
    8.6110  -14.2812   17.7521 C   0  0  2  0  0  0  0  0  0  0  0  0
    8.6117  -12.9243   17.1396 N   0  0  0  0  0  0  0  0  0  0  0  0
    8.6698  -14.0442   19.2133 C   0  0  0  0  0  0  0  0  0  0  0  0
    9.5862  -13.3157   19.7325 O   0  0  0  0  0  0  0  0  0  0  0  0
    6.5447  -14.4414   22.2875 C   0  0  0  0  0  0  0  0  0  0  0  0
    7.8671  -14.2340   21.5432 C   0  0  2  0  0  0  0  0  0  0  0  0
    7.7260  -14.5925   20.1526 N   0  0  0  0  0  0  0  0  0  0  0  0
    8.8862  -15.0621   22.2272 C   0  0  0  0  0  0  0  0  0  0  0  0
    9.0961  -14.9051   23.4846 O   0  0  0  0  0  0  0  0  0  0  0  0
   13.5580  -20.3476   21.0622 N   0  0  0  0  0  0  0  0  0  0  0  0
   12.1912  -20.1730   21.4640 C   0  0  0  0  0  0  0  0  0  0  0  0
   11.3113  -20.9888   21.1162 O   0  0  0  0  0  0  0  0  0  0  0  0
   11.8700  -18.9976   22.2997 C   0  0  0  0  0  0  0  0  0  0  0  0
   10.9652  -18.0848   21.5208 C   0  0  0  0  0  0  0  0  0  0  0  0
   10.6144  -16.8360   22.3343 C   0  0  2  0  0  0  0  0  0  0  0  0
    9.6712  -16.0472   21.5789 N   0  0  0  0  0  0  0  0  0  0  0  0
   11.8392  -16.0657   22.6564 C   0  0  0  0  0  0  0  0  0  0  0  0
   12.1801  -14.9801   21.8724 O   0  0  0  0  0  0  0  0  0  0  0  0
   12.5594  -16.3958   23.6311 O   0  0  0  0  0  0  0  0  0  0  0  0
  2  3  2  0
  2  1  1  0
  4  2  1  0
  5  6  1  0
  5  4  1  0
  6  7  1  6
  8  6  1  0
  8  9  2  0
 11 10  1  1
 11 12  1  0
 11 13  1  0
 12  8  1  0
 13 21  1  0
 14 13  2  0
 15 16  1  0
 16 17  2  0
 18 19  1  0
 18 16  1  0
 20 19  1  6
 20 22  1  0
 21 20  1  0
 22 24  2  0
 22 23  1  0
M  END
$$$$
