CEL.pdb
     RDKit          3D

 24 23  0  0  1  0  0  0  0  0999 V2000
   23.3669  -16.1604  -18.2176 N   0  0  0  0  0  0  0  0  0  0  0  0
   22.8249  -15.5312  -17.0580 C   0  0  1  0  0  0  0  0  0  0  0  0
   23.6567  -15.8180  -15.8448 C   0  0  0  0  0  0  0  0  0  0  0  0
   23.4556  -17.5566  -15.3713 S   0  0  0  0  0  0  0  0  0  0  0  0
   22.6579  -14.0548  -17.2739 C   0  0  0  0  0  0  0  0  0  0  0  0
   23.6412  -13.3817  -17.6628 O   0  0  0  0  0  0  0  0  0  0  0  0
   21.4235  -13.4075  -17.0501 N   0  0  0  0  0  0  0  0  0  0  0  0
   21.1604  -12.0140  -17.1762 C   0  0  1  0  0  0  0  0  0  0  0  0
   19.7729  -11.6213  -17.6104 C   0  0  0  0  0  0  0  0  0  0  0  0
   19.5461  -10.1661  -17.8087 C   0  0  0  0  0  0  0  0  0  0  0  0
   20.0690   -9.7285  -19.1489 C   0  0  0  0  0  0  0  0  0  0  0  0
   20.6894   -8.6602  -19.2547 O   0  0  0  0  0  0  0  0  0  0  0  0
   21.7555  -11.1589  -16.1503 C   0  0  0  0  0  0  0  0  0  0  0  0
   21.4720  -11.4102  -14.9258 O   0  0  0  0  0  0  0  0  0  0  0  0
   19.8502  -10.5245  -20.2455 O   0  0  0  0  0  0  0  0  0  0  0  0
   25.6361  -10.9263  -14.5346 C   0  0  0  0  0  0  0  0  0  0  0  0
   25.5469  -10.2070  -15.8553 C   0  0  2  0  0  0  0  0  0  0  0  0
   26.8591   -9.9047  -16.4790 C   0  0  0  0  0  0  0  0  0  0  0  0
   24.6270   -9.0531  -15.8076 C   0  0  0  0  0  0  0  0  0  0  0  0
   23.2310   -9.2711  -15.3114 C   0  0  2  0  0  0  0  0  0  0  0  0
   22.6122  -10.0853  -16.3984 N   0  0  0  0  0  0  0  0  0  0  0  0
   22.3972   -8.0950  -15.1712 C   0  0  0  0  0  0  0  0  0  0  0  0
   21.6639   -7.7233  -16.1474 O   0  0  0  0  0  0  0  0  0  0  0  0
   22.2919   -7.2849  -14.0398 O   0  0  0  0  0  0  0  0  0  0  0  0
  2  1  1  6
  2  3  1  0
  4  3  1  0
  5  7  1  0
  5  2  1  0
  6  5  2  0
  8 13  1  0
  8  7  1  0
  8  9  1  1
 10 11  1  0
 10  9  1  0
 11 12  2  0
 13 21  1  0
 14 13  2  0
 15 11  1  0
 17 16  1  1
 18 17  1  0
 20 19  1  6
 19 17  1  0
 20 22  1  0
 21 20  1  0
 22 23  2  0
 22 24  1  0
M  END
$$$$
