CEL.pdb
     RDKit          3D

 24 23  0  0  1  0  0  0  0  0999 V2000
   16.0461  -11.9177  -16.9142 N   0  0  0  0  0  0  0  0  0  0  0  0
   15.9178  -10.9488  -15.8754 C   0  0  1  0  0  0  0  0  0  0  0  0
   15.9736  -11.5913  -14.5227 C   0  0  0  0  0  0  0  0  0  0  0  0
   14.4041  -12.4355  -14.1892 S   0  0  0  0  0  0  0  0  0  0  0  0
   16.9516   -9.8690  -16.0145 C   0  0  0  0  0  0  0  0  0  0  0  0
   18.1122  -10.1802  -16.3717 O   0  0  0  0  0  0  0  0  0  0  0  0
   16.6497   -8.5150  -15.7535 N   0  0  0  0  0  0  0  0  0  0  0  0
   17.5441   -7.4116  -15.8501 C   0  0  1  0  0  0  0  0  0  0  0  0
   16.9293   -6.0573  -16.0861 C   0  0  0  0  0  0  0  0  0  0  0  0
   16.0435   -5.9486  -17.2743 C   0  0  0  0  0  0  0  0  0  0  0  0
   15.4008   -4.5903  -17.3306 C   0  0  0  0  0  0  0  0  0  0  0  0
   15.6440   -3.7514  -16.4505 O   0  0  0  0  0  0  0  0  0  0  0  0
   18.6757   -7.4271  -14.9241 C   0  0  0  0  0  0  0  0  0  0  0  0
   18.4545   -7.7991  -13.7177 O   0  0  0  0  0  0  0  0  0  0  0  0
   14.5466   -4.2959  -18.3639 O   0  0  0  0  0  0  0  0  0  0  0  0
   23.8274   -9.9233  -14.9485 C   0  0  0  0  0  0  0  0  0  0  0  0
   23.0524   -8.9064  -14.1518 C   0  0  2  0  0  0  0  0  0  0  0  0
   22.7477   -9.3205  -12.7598 C   0  0  0  0  0  0  0  0  0  0  0  0
   21.8855   -8.3829  -14.8895 C   0  0  0  0  0  0  0  0  0  0  0  0
   21.1303   -7.2282  -14.3075 C   0  0  2  0  0  0  0  0  0  0  0  0
   19.9843   -7.0678  -15.2502 N   0  0  0  0  0  0  0  0  0  0  0  0
   21.8094   -5.9490  -14.2853 C   0  0  0  0  0  0  0  0  0  0  0  0
   21.8451   -5.2368  -15.3437 O   0  0  0  0  0  0  0  0  0  0  0  0
   22.4555   -5.3736  -13.1903 O   0  0  0  0  0  0  0  0  0  0  0  0
  2  1  1  6
  2  3  1  0
  4  3  1  0
  5  7  1  0
  5  2  1  0
  6  5  2  0
  8 13  1  0
  8  7  1  0
  8  9  1  1
 10 11  1  0
 10  9  1  0
 11 12  2  0
 13 21  1  0
 14 13  2  0
 15 11  1  0
 17 16  1  6
 18 17  1  0
 20 19  1  6
 19 17  1  0
 20 22  1  0
 21 20  1  0
 22 23  2  0
 22 24  1  0
M  END
$$$$
