CEL.pdb
     RDKit          3D

 24 23  0  0  1  0  0  0  0  0999 V2000
   17.1719  -13.9992  -18.1078 N   0  0  0  0  0  0  0  0  0  0  0  0
   17.0802  -13.2508  -16.8972 C   0  0  1  0  0  0  0  0  0  0  0  0
   17.5273  -14.0638  -15.7202 C   0  0  0  0  0  0  0  0  0  0  0  0
   16.1328  -15.0388  -15.0943 S   0  0  0  0  0  0  0  0  0  0  0  0
   17.8463  -11.9637  -16.9995 C   0  0  0  0  0  0  0  0  0  0  0  0
   18.8922  -11.9313  -17.6898 O   0  0  0  0  0  0  0  0  0  0  0  0
   17.4189  -10.7916  -16.3389 N   0  0  0  0  0  0  0  0  0  0  0  0
   17.9781   -9.4893  -16.4733 C   0  0  1  0  0  0  0  0  0  0  0  0
   17.0179   -8.3631  -16.7516 C   0  0  0  0  0  0  0  0  0  0  0  0
   17.6372   -7.0477  -17.0592 C   0  0  0  0  0  0  0  0  0  0  0  0
   16.5771   -6.0056  -17.2855 C   0  0  0  0  0  0  0  0  0  0  0  0
   16.2745   -5.6682  -18.4397 O   0  0  0  0  0  0  0  0  0  0  0  0
   19.0646   -9.1652  -15.5499 C   0  0  0  0  0  0  0  0  0  0  0  0
   18.8000   -9.1585  -14.2959 O   0  0  0  0  0  0  0  0  0  0  0  0
   15.9542   -5.4376  -16.2023 O   0  0  0  0  0  0  0  0  0  0  0  0
   23.1617  -10.8726  -14.3524 C   0  0  0  0  0  0  0  0  0  0  0  0
   23.1190  -10.2375  -15.7179 C   0  0  2  0  0  0  0  0  0  0  0  0
   24.3281  -10.4774  -16.5440 C   0  0  0  0  0  0  0  0  0  0  0  0
   22.6988   -8.8229  -15.6686 C   0  0  0  0  0  0  0  0  0  0  0  0
   21.4328   -8.4774  -14.9473 C   0  0  2  0  0  0  0  0  0  0  0  0
   20.3737   -8.8611  -15.9265 N   0  0  0  0  0  0  0  0  0  0  0  0
   21.2121   -7.0768  -14.6509 C   0  0  0  0  0  0  0  0  0  0  0  0
   21.5570   -6.6122  -13.5134 O   0  0  0  0  0  0  0  0  0  0  0  0
   20.6449   -6.1294  -15.5043 O   0  0  0  0  0  0  0  0  0  0  0  0
  2  1  1  6
  2  3  1  0
  4  3  1  0
  5  7  1  0
  5  2  1  0
  6  5  2  0
  8 13  1  0
  8  7  1  0
  8  9  1  1
 10 11  1  0
 10  9  1  0
 11 12  2  0
 13 21  1  0
 14 13  2  0
 15 11  1  0
 17 16  1  1
 18 17  1  0
 20 19  1  6
 19 17  1  0
 20 22  1  0
 21 20  1  0
 22 23  2  0
 22 24  1  0
M  END
$$$$
