CEL.pdb
     RDKit          3D

 24 23  0  0  1  0  0  0  0  0999 V2000
   15.3608  -14.1668  -16.6672 N   0  0  0  0  0  0  0  0  0  0  0  0
   15.1193  -12.8578  -16.1549 C   0  0  1  0  0  0  0  0  0  0  0  0
   14.7000  -12.9055  -14.7169 C   0  0  0  0  0  0  0  0  0  0  0  0
   13.1044  -13.7557  -14.5804 S   0  0  0  0  0  0  0  0  0  0  0  0
   16.3165  -11.9731  -16.3497 C   0  0  0  0  0  0  0  0  0  0  0  0
   17.4619  -12.4528  -16.1786 O   0  0  0  0  0  0  0  0  0  0  0  0
   16.1845  -10.6172  -16.7199 N   0  0  0  0  0  0  0  0  0  0  0  0
   17.2399   -9.7207  -17.0504 C   0  0  1  0  0  0  0  0  0  0  0  0
   16.9993   -8.7844  -18.2051 C   0  0  0  0  0  0  0  0  0  0  0  0
   16.7978   -9.4299  -19.5285 C   0  0  0  0  0  0  0  0  0  0  0  0
   18.1157   -9.8581  -20.1125 C   0  0  0  0  0  0  0  0  0  0  0  0
   19.0717   -9.0688  -20.1328 O   0  0  0  0  0  0  0  0  0  0  0  0
   17.9577   -9.1380  -15.9176 C   0  0  0  0  0  0  0  0  0  0  0  0
   17.2639   -8.6989  -14.9334 O   0  0  0  0  0  0  0  0  0  0  0  0
   18.2427  -11.1274  -20.6194 O   0  0  0  0  0  0  0  0  0  0  0  0
   23.7227   -9.4432  -13.9273 C   0  0  0  0  0  0  0  0  0  0  0  0
   22.3655   -8.8680  -13.6163 C   0  0  2  0  0  0  0  0  0  0  0  0
   21.8967   -9.1170  -12.2305 C   0  0  0  0  0  0  0  0  0  0  0  0
   21.3655   -9.1907  -14.6535 C   0  0  0  0  0  0  0  0  0  0  0  0
   20.0348   -8.5059  -14.6020 C   0  0  2  0  0  0  0  0  0  0  0  0
   19.3452   -9.0210  -15.8212 N   0  0  0  0  0  0  0  0  0  0  0  0
   20.0383   -7.0627  -14.7266 C   0  0  0  0  0  0  0  0  0  0  0  0
   19.8133   -6.3415  -13.6980 O   0  0  0  0  0  0  0  0  0  0  0  0
   20.2750   -6.3331  -15.8924 O   0  0  0  0  0  0  0  0  0  0  0  0
  2  1  1  1
  2  3  1  0
  4  3  1  0
  5  7  1  0
  5  2  1  0
  6  5  2  0
  8 13  1  0
  8  7  1  0
  8  9  1  1
 10 11  1  0
 10  9  1  0
 11 12  2  0
 13 21  1  0
 14 13  2  0
 15 11  1  0
 17 16  1  6
 18 17  1  0
 20 19  1  6
 19 17  1  0
 20 22  1  0
 21 20  1  0
 22 23  2  0
 22 24  1  0
M  END
$$$$
