CEL.pdb
     RDKit          3D

 24 23  0  0  1  0  0  0  0  0999 V2000
   20.3523  -23.1782   -8.3901 N   0  0  0  0  0  0  0  0  0  0  0  0
   20.8600  -21.8468   -8.4493 C   0  0  1  0  0  0  0  0  0  0  0  0
   20.2725  -20.9922   -7.3674 C   0  0  0  0  0  0  0  0  0  0  0  0
   18.5369  -20.6373   -7.7530 S   0  0  0  0  0  0  0  0  0  0  0  0
   22.3607  -21.8393   -8.4021 C   0  0  0  0  0  0  0  0  0  0  0  0
   22.9417  -22.3808   -7.4323 O   0  0  0  0  0  0  0  0  0  0  0  0
   23.1318  -21.2388   -9.4208 N   0  0  0  0  0  0  0  0  0  0  0  0
   24.5528  -21.1996   -9.4986 C   0  0  1  0  0  0  0  0  0  0  0  0
   25.1553  -21.1065  -10.8756 C   0  0  0  0  0  0  0  0  0  0  0  0
   26.6395  -21.1530  -10.9354 C   0  0  0  0  0  0  0  0  0  0  0  0
   27.1132  -21.0582  -12.3594 C   0  0  0  0  0  0  0  0  0  0  0  0
   26.3527  -20.6286  -13.2395 O   0  0  0  0  0  0  0  0  0  0  0  0
   25.2244  -20.4043   -8.4718 C   0  0  0  0  0  0  0  0  0  0  0  0
   24.7301  -19.2563   -8.1878 O   0  0  0  0  0  0  0  0  0  0  0  0
   28.3914  -21.4521  -12.6676 O   0  0  0  0  0  0  0  0  0  0  0  0
   30.1974  -21.1893   -4.9176 C   0  0  0  0  0  0  0  0  0  0  0  0
   29.0375  -20.2713   -5.2029 C   0  0  2  0  0  0  0  0  0  0  0  0
   28.3346  -19.7769   -3.9930 C   0  0  0  0  0  0  0  0  0  0  0  0
   28.1358  -20.8084   -6.2413 C   0  0  0  0  0  0  0  0  0  0  0  0
   27.0217  -19.9409   -6.7398 C   0  0  2  0  0  0  0  0  0  0  0  0
   26.3664  -20.7969   -7.7721 N   0  0  0  0  0  0  0  0  0  0  0  0
   27.4001  -18.7184   -7.4184 C   0  0  0  0  0  0  0  0  0  0  0  0
   27.7094  -18.7553   -8.6561 O   0  0  0  0  0  0  0  0  0  0  0  0
   27.4646  -17.4440   -6.8535 O   0  0  0  0  0  0  0  0  0  0  0  0
  2  1  1  1
  2  3  1  0
  4  3  1  0
  5  7  1  0
  5  2  1  0
  6  5  2  0
  8 13  1  0
  8  7  1  0
  8  9  1  6
 10 11  1  0
 10  9  1  0
 11 12  2  0
 13 21  1  0
 14 13  2  0
 15 11  1  0
 17 16  1  1
 18 17  1  0
 20 19  1  6
 19 17  1  0
 20 22  1  0
 21 20  1  0
 22 23  2  0
 22 24  1  0
M  END
$$$$
