CEL.pdb
     RDKit          3D

 24 23  0  0  1  0  0  0  0  0999 V2000
   28.7499  -23.7141  -17.5443 N   0  0  0  0  0  0  0  0  0  0  0  0
   27.3964  -23.9214  -17.1454 C   0  0  1  0  0  0  0  0  0  0  0  0
   27.2756  -25.0949  -16.2212 C   0  0  0  0  0  0  0  0  0  0  0  0
   27.3665  -26.6311  -17.1799 S   0  0  0  0  0  0  0  0  0  0  0  0
   26.8179  -22.6780  -16.5341 C   0  0  0  0  0  0  0  0  0  0  0  0
   27.5787  -21.8875  -15.9276 O   0  0  0  0  0  0  0  0  0  0  0  0
   25.4416  -22.3779  -16.6252 N   0  0  0  0  0  0  0  0  0  0  0  0
   24.7793  -21.2504  -16.0622 C   0  0  1  0  0  0  0  0  0  0  0  0
   23.8590  -20.4793  -16.9713 C   0  0  0  0  0  0  0  0  0  0  0  0
   23.1204  -19.3551  -16.3396 C   0  0  0  0  0  0  0  0  0  0  0  0
   22.2380  -18.6714  -17.3471 C   0  0  0  0  0  0  0  0  0  0  0  0
   22.6462  -18.4816  -18.5025 O   0  0  0  0  0  0  0  0  0  0  0  0
   24.3035  -21.4122  -14.6891 C   0  0  0  0  0  0  0  0  0  0  0  0
   23.4733  -22.3597  -14.4529 O   0  0  0  0  0  0  0  0  0  0  0  0
   20.9827  -18.2636  -16.9705 O   0  0  0  0  0  0  0  0  0  0  0  0
   25.9369  -22.3802  -10.5370 C   0  0  0  0  0  0  0  0  0  0  0  0
   26.3120  -21.0183  -11.0607 C   0  0  2  0  0  0  0  0  0  0  0  0
   27.3592  -20.3244  -10.2708 C   0  0  0  0  0  0  0  0  0  0  0  0
   25.1308  -20.1822  -11.3536 C   0  0  0  0  0  0  0  0  0  0  0  0
   24.0692  -20.7340  -12.2540 C   0  0  2  0  0  0  0  0  0  0  0  0
   24.6831  -20.6138  -13.6091 N   0  0  0  0  0  0  0  0  0  0  0  0
   22.8209  -20.0017  -12.3162 C   0  0  0  0  0  0  0  0  0  0  0  0
   22.7086  -19.0163  -13.1194 O   0  0  0  0  0  0  0  0  0  0  0  0
   21.6705  -20.2618  -11.5702 O   0  0  0  0  0  0  0  0  0  0  0  0
  2  1  1  1
  2  3  1  0
  4  3  1  0
  5  7  1  0
  5  2  1  0
  6  5  2  0
  8 13  1  0
  8  7  1  0
  8  9  1  6
 10 11  1  0
 10  9  1  0
 11 12  2  0
 13 21  1  0
 14 13  2  0
 15 11  1  0
 17 16  1  1
 18 17  1  0
 20 19  1  1
 19 17  1  0
 20 22  1  0
 21 20  1  0
 22 23  2  0
 22 24  1  0
M  END
$$$$
