CEL.pdb
     RDKit          3D

 24 23  0  0  1  0  0  0  0  0999 V2000
   17.2471  -14.1349  -17.8605 N   0  0  0  0  0  0  0  0  0  0  0  0
   17.5362  -13.4062  -16.6690 C   0  0  1  0  0  0  0  0  0  0  0  0
   18.1003  -14.3012  -15.6076 C   0  0  0  0  0  0  0  0  0  0  0  0
   16.7817  -15.3501  -14.9380 S   0  0  0  0  0  0  0  0  0  0  0  0
   18.4481  -12.2478  -16.9534 C   0  0  0  0  0  0  0  0  0  0  0  0
   19.4488  -12.4269  -17.6868 O   0  0  0  0  0  0  0  0  0  0  0  0
   18.2069  -10.9648  -16.4163 N   0  0  0  0  0  0  0  0  0  0  0  0
   19.0014   -9.7996  -16.6114 C   0  0  1  0  0  0  0  0  0  0  0  0
   18.2653   -8.5078  -16.8506 C   0  0  0  0  0  0  0  0  0  0  0  0
   17.5758   -7.9290  -15.6682 C   0  0  0  0  0  0  0  0  0  0  0  0
   17.0143   -6.5731  -15.9963 C   0  0  0  0  0  0  0  0  0  0  0  0
   15.9032   -6.4757  -16.5379 O   0  0  0  0  0  0  0  0  0  0  0  0
   20.1887   -9.6902  -15.7650 C   0  0  0  0  0  0  0  0  0  0  0  0
   20.0460   -9.8931  -14.5076 O   0  0  0  0  0  0  0  0  0  0  0  0
   17.7459   -5.4532  -15.6893 O   0  0  0  0  0  0  0  0  0  0  0  0
   26.2292   -9.8471  -16.6096 C   0  0  0  0  0  0  0  0  0  0  0  0
   25.1414   -9.7283  -15.5743 C   0  0  2  0  0  0  0  0  0  0  0  0
   25.2434  -10.7057  -14.4623 C   0  0  0  0  0  0  0  0  0  0  0  0
   23.7961   -9.6460  -16.1772 C   0  0  0  0  0  0  0  0  0  0  0  0
   22.6455   -9.2442  -15.3072 C   0  0  2  0  0  0  0  0  0  0  0  0
   21.4719   -9.3813  -16.2189 N   0  0  0  0  0  0  0  0  0  0  0  0
   22.6284   -7.8732  -14.8398 C   0  0  0  0  0  0  0  0  0  0  0  0
   22.3315   -6.9349  -15.6523 O   0  0  0  0  0  0  0  0  0  0  0  0
   22.9063   -7.4369  -13.5437 O   0  0  0  0  0  0  0  0  0  0  0  0
  2  1  1  6
  2  3  1  0
  4  3  1  0
  5  7  1  0
  5  2  1  0
  6  5  2  0
  8 13  1  0
  8  7  1  0
  8  9  1  1
 10 11  1  0
 10  9  1  0
 11 12  2  0
 13 21  1  0
 14 13  2  0
 15 11  1  0
 17 16  1  6
 18 17  1  0
 20 19  1  6
 19 17  1  0
 20 22  1  0
 21 20  1  0
 22 23  2  0
 22 24  1  0
M  END
$$$$
