CEL.pdb
     RDKit          3D

 24 23  0  0  1  0  0  0  0  0999 V2000
   23.0640  -19.7769  -15.8810 N   0  0  0  0  0  0  0  0  0  0  0  0
   23.2703  -19.6679  -14.4740 C   0  0  1  0  0  0  0  0  0  0  0  0
   22.0536  -20.0966  -13.7112 C   0  0  0  0  0  0  0  0  0  0  0  0
   22.0977  -19.3758  -12.0482 S   0  0  0  0  0  0  0  0  0  0  0  0
   24.4868  -20.4369  -14.0462 C   0  0  0  0  0  0  0  0  0  0  0  0
   24.5308  -21.6720  -14.2558 O   0  0  0  0  0  0  0  0  0  0  0  0
   25.5799  -19.8047  -13.4151 N   0  0  0  0  0  0  0  0  0  0  0  0
   26.7318  -20.4418  -12.8728 C   0  0  1  0  0  0  0  0  0  0  0  0
   28.0705  -19.8792  -13.2721 C   0  0  0  0  0  0  0  0  0  0  0  0
   28.1758  -19.3959  -14.6734 C   0  0  0  0  0  0  0  0  0  0  0  0
   28.1894  -20.5548  -15.6315 C   0  0  0  0  0  0  0  0  0  0  0  0
   27.5895  -20.4730  -16.7135 O   0  0  0  0  0  0  0  0  0  0  0  0
   26.6271  -20.8644  -11.4769 C   0  0  0  0  0  0  0  0  0  0  0  0
   27.6048  -21.5269  -10.9791 O   0  0  0  0  0  0  0  0  0  0  0  0
   28.8714  -21.6965  -15.2918 O   0  0  0  0  0  0  0  0  0  0  0  0
   27.8577  -21.2928   -7.5859 C   0  0  0  0  0  0  0  0  0  0  0  0
   27.5113  -19.8895   -8.0108 C   0  0  2  0  0  0  0  0  0  0  0  0
   27.8649  -18.8434   -7.0195 C   0  0  0  0  0  0  0  0  0  0  0  0
   26.1328  -19.7817   -8.5287 C   0  0  0  0  0  0  0  0  0  0  0  0
   25.5229  -20.9767   -9.1938 C   0  0  2  0  0  0  0  0  0  0  0  0
   25.5424  -20.6027  -10.6386 N   0  0  0  0  0  0  0  0  0  0  0  0
   24.1394  -21.2651   -8.8761 C   0  0  0  0  0  0  0  0  0  0  0  0
   23.2118  -20.7857   -9.6100 O   0  0  0  0  0  0  0  0  0  0  0  0
   23.6792  -22.0464   -7.8152 O   0  0  0  0  0  0  0  0  0  0  0  0
  2  1  1  6
  2  3  1  0
  4  3  1  0
  5  7  1  0
  5  2  1  0
  6  5  2  0
  8 13  1  0
  8  7  1  0
  8  9  1  1
 10 11  1  0
 10  9  1  0
 11 12  2  0
 13 21  1  0
 14 13  2  0
 15 11  1  0
 17 16  1  1
 18 17  1  0
 20 19  1  1
 19 17  1  0
 20 22  1  0
 21 20  1  0
 22 23  2  0
 22 24  1  0
M  END
$$$$
