CEL.pdb
     RDKit          3D

 24 23  0  0  1  0  0  0  0  0999 V2000
   17.5546  -14.2566  -19.3013 N   0  0  0  0  0  0  0  0  0  0  0  0
   17.0142  -13.2273  -18.4750 C   0  0  1  0  0  0  0  0  0  0  0  0
   16.5854  -13.7673  -17.1444 C   0  0  0  0  0  0  0  0  0  0  0  0
   14.9728  -14.5787  -17.3127 S   0  0  0  0  0  0  0  0  0  0  0  0
   17.9861  -12.0934  -18.3211 C   0  0  0  0  0  0  0  0  0  0  0  0
   19.2051  -12.3512  -18.1832 O   0  0  0  0  0  0  0  0  0  0  0  0
   17.5621  -10.7470  -18.3277 N   0  0  0  0  0  0  0  0  0  0  0  0
   18.3926   -9.5947  -18.2312 C   0  0  1  0  0  0  0  0  0  0  0  0
   17.8452   -8.3130  -18.8018 C   0  0  0  0  0  0  0  0  0  0  0  0
   17.4686   -8.3550  -20.2388 C   0  0  0  0  0  0  0  0  0  0  0  0
   16.9221   -7.0254  -20.6799 C   0  0  0  0  0  0  0  0  0  0  0  0
   16.5088   -6.8778  -21.8396 O   0  0  0  0  0  0  0  0  0  0  0  0
   19.1368   -9.4498  -16.9809 C   0  0  0  0  0  0  0  0  0  0  0  0
   18.6568  -10.0093  -15.9324 O   0  0  0  0  0  0  0  0  0  0  0  0
   16.8883   -5.9851  -19.7851 O   0  0  0  0  0  0  0  0  0  0  0  0
   22.1140  -10.0490  -13.1512 C   0  0  0  0  0  0  0  0  0  0  0  0
   22.7327  -10.3938  -14.4809 C   0  0  2  0  0  0  0  0  0  0  0  0
   24.1396   -9.9484  -14.6368 C   0  0  0  0  0  0  0  0  0  0  0  0
   21.8617  -10.0345  -15.6177 C   0  0  0  0  0  0  0  0  0  0  0  0
   21.1210   -8.7340  -15.5684 C   0  0  2  0  0  0  0  0  0  0  0  0
   20.3345   -8.7479  -16.8368 N   0  0  0  0  0  0  0  0  0  0  0  0
   21.9197   -7.5262  -15.6086 C   0  0  0  0  0  0  0  0  0  0  0  0
   22.2999   -7.0602  -16.7342 O   0  0  0  0  0  0  0  0  0  0  0  0
   22.3379   -6.7735  -14.5104 O   0  0  0  0  0  0  0  0  0  0  0  0
  2  1  1  6
  2  3  1  0
  4  3  1  0
  5  7  1  0
  5  2  1  0
  6  5  2  0
  8 13  1  0
  8  7  1  0
  8  9  1  1
 10 11  1  0
 10  9  1  0
 11 12  2  0
 13 21  1  0
 14 13  2  0
 15 11  1  0
 17 16  1  1
 18 17  1  0
 20 19  1  6
 19 17  1  0
 20 22  1  0
 21 20  1  0
 22 23  2  0
 22 24  1  0
M  END
$$$$
