TQY.pdb
     RDKit          3D

 29 29  0  0  1  0  0  0  0  0999 V2000
    9.8170  -19.3995   16.7958 C   0  0  0  0  0  0  0  0  0  0  0  0
   10.0342  -18.1583   17.6335 C   0  0  1  0  0  0  0  0  0  0  0  0
    9.6943  -17.0181   16.9236 O   0  0  0  0  0  0  0  0  0  0  0  0
    9.2075  -18.2413   18.8867 C   0  0  2  0  0  0  0  0  0  0  0  0
    7.7952  -18.2258   18.5819 N   0  0  0  0  0  0  0  0  0  0  0  0
    9.4846  -17.0896   19.7735 C   0  0  0  0  0  0  0  0  0  0  0  0
   10.6359  -16.8079   20.1993 O   0  0  0  0  0  0  0  0  0  0  0  0
    9.4325  -12.8951   19.2946 N   0  0  0  0  0  0  0  0  0  0  0  0
    8.1356  -13.1615   18.7376 C   0  0  0  0  0  0  0  0  0  0  0  0
    7.8648  -12.8046   17.5670 O   0  0  0  0  0  0  0  0  0  0  0  0
    7.1158  -13.8554   19.5335 C   0  0  0  0  0  0  0  0  0  0  0  0
    7.5111  -14.1764   20.9258 C   0  0  0  0  0  0  0  0  0  0  0  0
    8.7018  -15.0958   21.0581 C   0  0  2  0  0  0  0  0  0  0  0  0
    8.4215  -16.2339   20.1880 N   0  0  0  0  0  0  0  0  0  0  0  0
    8.7864  -15.4926   22.4678 C   0  0  0  0  0  0  0  0  0  0  0  0
    7.7487  -15.6923   23.1263 O   0  0  0  0  0  0  0  0  0  0  0  0
   10.7658  -14.5156   30.7914 O   0  0  0  0  0  0  0  0  0  0  0  0
   10.5168  -14.4995   29.4188 C   0  0  0  0  0  0  0  0  0  0  0  0
   11.1714  -15.3605   28.5655 C   0  0  0  0  0  0  0  0  0  0  0  0
   10.9346  -15.3544   27.2106 C   0  0  0  0  0  0  0  0  0  0  0  0
   10.0152  -14.4692   26.6453 C   0  0  0  0  0  0  0  0  0  0  0  0
    9.7817  -14.4680   25.1934 C   0  0  0  0  0  0  0  0  0  0  0  0
   10.2018  -15.7624   24.5382 C   0  0  2  0  0  0  0  0  0  0  0  0
   10.0406  -15.6513   23.0894 N   0  0  0  0  0  0  0  0  0  0  0  0
    9.4180  -16.8967   25.0475 C   0  0  0  0  0  0  0  0  0  0  0  0
   10.0459  -17.8505   25.8676 O   0  0  0  0  0  0  0  0  0  0  0  0
    9.3717  -13.6158   27.5201 C   0  0  0  0  0  0  0  0  0  0  0  0
    9.6153  -13.6276   28.8843 C   0  0  0  0  0  0  0  0  0  0  0  0
    8.2167  -17.0979   24.8143 O   0  0  0  0  0  0  0  0  0  0  0  0
  2  1  1  6
  2  3  1  0
  4  2  1  0
  4  5  1  6
  6  7  2  0
  6  4  1  0
  9  8  1  0
 10  9  2  0
 11  9  1  0
 12 11  1  0
 13 12  1  1
 13 14  1  0
 14  6  1  0
 15 24  1  0
 15 13  1  0
 16 15  2  0
 18 19  2  0
 18 17  1  0
 20 19  1  0
 21 20  2  0
 22 21  1  0
 23 24  1  0
 23 22  1  1
 25 23  1  0
 26 25  1  0
 27 21  1  0
 27 28  2  0
 28 18  1  0
 29 25  2  0
M  END
$$$$
