TQY.pdb
     RDKit          3D

 29 29  0  0  1  0  0  0  0  0999 V2000
    6.4008  -18.7364   23.0717 C   0  0  0  0  0  0  0  0  0  0  0  0
    7.0037  -19.6091   21.9927 C   0  0  1  0  0  0  0  0  0  0  0  0
    6.1624  -20.6663   21.6857 O   0  0  0  0  0  0  0  0  0  0  0  0
    7.2576  -18.7877   20.7592 C   0  0  2  0  0  0  0  0  0  0  0  0
    7.6909  -19.6186   19.6592 N   0  0  0  0  0  0  0  0  0  0  0  0
    8.3188  -17.7866   21.0062 C   0  0  0  0  0  0  0  0  0  0  0  0
    9.5479  -18.0505   20.9283 O   0  0  0  0  0  0  0  0  0  0  0  0
    7.9790  -11.8661   19.4783 N   0  0  0  0  0  0  0  0  0  0  0  0
    7.9582  -13.1243   18.7855 C   0  0  0  0  0  0  0  0  0  0  0  0
    7.6286  -13.1754   17.5774 O   0  0  0  0  0  0  0  0  0  0  0  0
    8.3241  -14.3615   19.4857 C   0  0  0  0  0  0  0  0  0  0  0  0
    8.6153  -14.2074   20.9311 C   0  0  0  0  0  0  0  0  0  0  0  0
    9.0230  -15.4761   21.6416 C   0  0  2  0  0  0  0  0  0  0  0  0
    7.9722  -16.4470   21.3517 N   0  0  0  0  0  0  0  0  0  0  0  0
    9.0998  -15.1639   23.0729 C   0  0  0  0  0  0  0  0  0  0  0  0
    8.8556  -14.0118   23.4772 O   0  0  0  0  0  0  0  0  0  0  0  0
    6.4084  -10.4121   26.6720 O   0  0  0  0  0  0  0  0  0  0  0  0
    6.7413  -11.7471   26.4406 C   0  0  0  0  0  0  0  0  0  0  0  0
    7.6487  -12.4046   27.2419 C   0  0  0  0  0  0  0  0  0  0  0  0
    7.9851  -13.7204   27.0241 C   0  0  0  0  0  0  0  0  0  0  0  0
    7.4154  -14.4440   25.9753 C   0  0  0  0  0  0  0  0  0  0  0  0
    7.7940  -15.8470   25.7492 C   0  0  0  0  0  0  0  0  0  0  0  0
    9.2645  -16.0079   25.4442 C   0  0  2  0  0  0  0  0  0  0  0  0
    9.4501  -16.1628   24.0023 N   0  0  0  0  0  0  0  0  0  0  0  0
    9.8327  -17.1634   26.1529 C   0  0  0  0  0  0  0  0  0  0  0  0
    9.9249  -18.3981   25.4871 O   0  0  0  0  0  0  0  0  0  0  0  0
    6.5090  -13.7640   25.1855 C   0  0  0  0  0  0  0  0  0  0  0  0
    6.1747  -12.4381   25.4110 C   0  0  0  0  0  0  0  0  0  0  0  0
   10.2517  -17.1512   27.3201 O   0  0  0  0  0  0  0  0  0  0  0  0
  2  1  1  1
  2  3  1  0
  4  2  1  0
  4  5  1  6
  6  7  2  0
  6  4  1  0
  9  8  1  0
 10  9  2  0
 11  9  1  0
 12 11  1  0
 13 12  1  6
 13 14  1  0
 14  6  1  0
 15 24  1  0
 15 13  1  0
 16 15  2  0
 18 19  2  0
 18 17  1  0
 20 19  1  0
 21 20  2  0
 22 21  1  0
 23 24  1  0
 23 22  1  6
 25 23  1  0
 26 25  1  0
 27 21  1  0
 27 28  2  0
 28 18  1  0
 29 25  2  0
M  END
$$$$
