TQY.pdb
     RDKit          3D

 29 29  0  0  1  0  0  0  0  0999 V2000
   10.7285  -16.7290   16.1438 C   0  0  0  0  0  0  0  0  0  0  0  0
    9.8956  -16.7238   17.4070 C   0  0  1  0  0  0  0  0  0  0  0  0
    8.8798  -15.7852   17.3244 O   0  0  0  0  0  0  0  0  0  0  0  0
    9.3080  -18.0892   17.6326 C   0  0  2  0  0  0  0  0  0  0  0  0
    8.4218  -18.4606   16.5535 N   0  0  0  0  0  0  0  0  0  0  0  0
    8.5214  -18.1199   18.8856 C   0  0  0  0  0  0  0  0  0  0  0  0
    7.3146  -18.4771   18.9341 O   0  0  0  0  0  0  0  0  0  0  0  0
    6.2961  -21.4716   21.3190 N   0  0  0  0  0  0  0  0  0  0  0  0
    6.5600  -20.8996   22.6099 C   0  0  0  0  0  0  0  0  0  0  0  0
    5.8951  -21.2605   23.6092 O   0  0  0  0  0  0  0  0  0  0  0  0
    7.6118  -19.8883   22.7710 C   0  0  0  0  0  0  0  0  0  0  0  0
    8.2526  -19.4369   21.5127 C   0  0  0  0  0  0  0  0  0  0  0  0
    8.4099  -17.9413   21.3743 C   0  0  2  0  0  0  0  0  0  0  0  0
    9.1248  -17.7332   20.1187 N   0  0  0  0  0  0  0  0  0  0  0  0
    9.1875  -17.4802   22.5296 C   0  0  0  0  0  0  0  0  0  0  0  0
   10.3542  -17.8802   22.7000 O   0  0  0  0  0  0  0  0  0  0  0  0
   10.7865  -14.2395   30.5859 O   0  0  0  0  0  0  0  0  0  0  0  0
   10.1921  -14.5228   29.3559 C   0  0  0  0  0  0  0  0  0  0  0  0
    9.9248  -15.8194   28.9751 C   0  0  0  0  0  0  0  0  0  0  0  0
    9.3391  -16.1115   27.7653 C   0  0  0  0  0  0  0  0  0  0  0  0
    8.9911  -15.0974   26.8716 C   0  0  0  0  0  0  0  0  0  0  0  0
    8.3756  -15.4272   25.5773 C   0  0  0  0  0  0  0  0  0  0  0  0
    9.3460  -16.0862   24.6259 C   0  0  2  0  0  0  0  0  0  0  0  0
    8.6226  -16.5818   23.4560 N   0  0  0  0  0  0  0  0  0  0  0  0
   10.0662  -17.1891   25.2781 C   0  0  0  0  0  0  0  0  0  0  0  0
   11.3974  -16.9923   25.6853 O   0  0  0  0  0  0  0  0  0  0  0  0
    9.2688  -13.8059   27.2748 C   0  0  0  0  0  0  0  0  0  0  0  0
    9.8591  -13.5191   28.4955 C   0  0  0  0  0  0  0  0  0  0  0  0
    9.5951  -18.3126   25.5103 O   0  0  0  0  0  0  0  0  0  0  0  0
  2  1  1  6
  2  3  1  0
  4  2  1  0
  4  5  1  6
  6  7  2  0
  6  4  1  0
  9  8  1  0
 10  9  2  0
 11  9  1  0
 12 11  1  0
 13 12  1  1
 13 14  1  0
 14  6  1  0
 15 24  1  0
 15 13  1  0
 16 15  2  0
 18 19  2  0
 18 17  1  0
 20 19  1  0
 21 20  2  0
 22 21  1  0
 23 24  1  0
 23 22  1  1
 25 23  1  0
 26 25  1  0
 27 21  1  0
 27 28  2  0
 28 18  1  0
 29 25  2  0
M  END
$$$$
