TQY.pdb
     RDKit          3D

 29 29  0  0  1  0  0  0  0  0999 V2000
    8.8460  -12.9251   19.5215 C   0  0  0  0  0  0  0  0  0  0  0  0
    8.0837  -13.6237   18.4168 C   0  0  1  0  0  0  0  0  0  0  0  0
    7.9631  -12.8043   17.3060 O   0  0  0  0  0  0  0  0  0  0  0  0
    8.7927  -14.8937   18.0361 C   0  0  2  0  0  0  0  0  0  0  0  0
    8.0663  -15.6100   17.0128 N   0  0  0  0  0  0  0  0  0  0  0  0
    8.9194  -15.7928   19.2044 C   0  0  0  0  0  0  0  0  0  0  0  0
    7.9582  -16.4621   19.6675 O   0  0  0  0  0  0  0  0  0  0  0  0
   10.8293  -19.8346   22.0245 N   0  0  0  0  0  0  0  0  0  0  0  0
   11.3718  -19.7328   20.6984 C   0  0  0  0  0  0  0  0  0  0  0  0
   11.4086  -20.7386   19.9514 O   0  0  0  0  0  0  0  0  0  0  0  0
   11.8871  -18.4497   20.2053 C   0  0  0  0  0  0  0  0  0  0  0  0
   11.6671  -17.2924   21.1053 C   0  0  0  0  0  0  0  0  0  0  0  0
   10.2677  -16.7248   21.0890 C   0  0  2  0  0  0  0  0  0  0  0  0
   10.1755  -15.9347   19.8650 N   0  0  0  0  0  0  0  0  0  0  0  0
   10.1250  -15.8933   22.2891 C   0  0  0  0  0  0  0  0  0  0  0  0
   10.7842  -14.8435   22.4064 O   0  0  0  0  0  0  0  0  0  0  0  0
    6.3348  -10.8713   28.1857 O   0  0  0  0  0  0  0  0  0  0  0  0
    6.6518  -11.8003   27.1942 C   0  0  0  0  0  0  0  0  0  0  0  0
    7.7848  -11.6612   26.4230 C   0  0  0  0  0  0  0  0  0  0  0  0
    8.1082  -12.5703   25.4428 C   0  0  0  0  0  0  0  0  0  0  0  0
    7.2944  -13.6760   25.1908 C   0  0  0  0  0  0  0  0  0  0  0  0
    7.6485  -14.6328   24.1317 C   0  0  0  0  0  0  0  0  0  0  0  0
    8.9102  -15.4020   24.4445 C   0  0  2  0  0  0  0  0  0  0  0  0
    9.2423  -16.2739   23.3189 N   0  0  0  0  0  0  0  0  0  0  0  0
    8.7594  -16.1973   25.6712 C   0  0  0  0  0  0  0  0  0  0  0  0
    9.1784  -15.6519   26.8974 O   0  0  0  0  0  0  0  0  0  0  0  0
    6.1642  -13.7942   25.9760 C   0  0  0  0  0  0  0  0  0  0  0  0
    5.8448  -12.8743   26.9621 C   0  0  0  0  0  0  0  0  0  0  0  0
    8.2822  -17.3406   25.7282 O   0  0  0  0  0  0  0  0  0  0  0  0
  2  1  1  1
  2  3  1  0
  4  2  1  0
  4  5  1  6
  6  7  2  0
  6  4  1  0
  9  8  1  0
 10  9  2  0
 11  9  1  0
 12 11  1  0
 13 12  1  1
 13 14  1  0
 14  6  1  0
 15 24  1  0
 15 13  1  0
 16 15  2  0
 18 19  2  0
 18 17  1  0
 20 19  1  0
 21 20  2  0
 22 21  1  0
 23 24  1  0
 23 22  1  6
 25 23  1  0
 26 25  1  0
 27 21  1  0
 27 28  2  0
 28 18  1  0
 29 25  2  0
M  END
$$$$
