TQY.pdb
     RDKit          3D

 29 29  0  0  1  0  0  0  0  0999 V2000
    7.7752  -11.9320   20.1187 C   0  0  0  0  0  0  0  0  0  0  0  0
    8.0011  -13.1105   21.0404 C   0  0  1  0  0  0  0  0  0  0  0  0
    7.0007  -13.1886   21.9958 O   0  0  0  0  0  0  0  0  0  0  0  0
    8.0375  -14.3818   20.2385 C   0  0  2  0  0  0  0  0  0  0  0  0
    6.7931  -14.5901   19.5342 N   0  0  0  0  0  0  0  0  0  0  0  0
    8.2515  -15.5507   21.1201 C   0  0  0  0  0  0  0  0  0  0  0  0
    7.3303  -16.3437   21.4504 O   0  0  0  0  0  0  0  0  0  0  0  0
   13.2171  -19.1840   21.3111 N   0  0  0  0  0  0  0  0  0  0  0  0
   12.0965  -19.0739   20.4192 C   0  0  0  0  0  0  0  0  0  0  0  0
   12.1307  -19.6182   19.2907 O   0  0  0  0  0  0  0  0  0  0  0  0
   10.9004  -18.3239   20.8216 C   0  0  0  0  0  0  0  0  0  0  0  0
   10.9971  -17.6350   22.1308 C   0  0  0  0  0  0  0  0  0  0  0  0
    9.7391  -16.9291   22.5779 C   0  0  2  0  0  0  0  0  0  0  0  0
    9.5504  -15.8256   21.6410 N   0  0  0  0  0  0  0  0  0  0  0  0
    9.9744  -16.4520   23.9450 C   0  0  0  0  0  0  0  0  0  0  0  0
   10.8048  -15.5494   24.1598 O   0  0  0  0  0  0  0  0  0  0  0  0
    6.8441  -10.8124   25.9415 O   0  0  0  0  0  0  0  0  0  0  0  0
    7.1892  -12.1348   26.2217 C   0  0  0  0  0  0  0  0  0  0  0  0
    6.5856  -13.1838   25.5636 C   0  0  0  0  0  0  0  0  0  0  0  0
    6.9173  -14.4917   25.8308 C   0  0  0  0  0  0  0  0  0  0  0  0
    7.8850  -14.8073   26.7859 C   0  0  0  0  0  0  0  0  0  0  0  0
    8.2202  -16.2112   27.0677 C   0  0  0  0  0  0  0  0  0  0  0  0
    9.5151  -16.6388   26.4182 C   0  0  2  0  0  0  0  0  0  0  0  0
    9.2643  -17.0095   25.0264 N   0  0  0  0  0  0  0  0  0  0  0  0
   10.1259  -17.7654   27.1380 C   0  0  0  0  0  0  0  0  0  0  0  0
   10.3567  -18.9716   26.4536 O   0  0  0  0  0  0  0  0  0  0  0  0
    8.4760  -13.7395   27.4327 C   0  0  0  0  0  0  0  0  0  0  0  0
    8.1369  -12.4241   27.1582 C   0  0  0  0  0  0  0  0  0  0  0  0
   10.4676  -17.7516   28.3301 O   0  0  0  0  0  0  0  0  0  0  0  0
  2  1  1  6
  2  3  1  0
  4  2  1  0
  4  5  1  1
  6  7  2  0
  6  4  1  0
  9  8  1  0
 10  9  2  0
 11  9  1  0
 12 11  1  0
 13 12  1  6
 13 14  1  0
 14  6  1  0
 15 24  1  0
 15 13  1  0
 16 15  2  0
 18 19  2  0
 18 17  1  0
 20 19  1  0
 21 20  2  0
 22 21  1  0
 23 24  1  0
 23 22  1  1
 25 23  1  0
 26 25  1  0
 27 21  1  0
 27 28  2  0
 28 18  1  0
 29 25  2  0
M  END
$$$$
