TQY.pdb
     RDKit          3D

 29 29  0  0  1  0  0  0  0  0999 V2000
    7.5685  -11.5134   19.5696 C   0  0  0  0  0  0  0  0  0  0  0  0
    8.1077  -12.6547   20.4039 C   0  0  1  0  0  0  0  0  0  0  0  0
    7.1247  -13.1646   21.2365 O   0  0  0  0  0  0  0  0  0  0  0  0
    8.6237  -13.7419   19.5027 C   0  0  2  0  0  0  0  0  0  0  0  0
    7.5622  -14.2979   18.6952 N   0  0  0  0  0  0  0  0  0  0  0  0
    9.2055  -14.8472   20.2961 C   0  0  0  0  0  0  0  0  0  0  0  0
    8.6400  -15.9630   20.4431 O   0  0  0  0  0  0  0  0  0  0  0  0
   15.2867  -15.6970   20.6037 N   0  0  0  0  0  0  0  0  0  0  0  0
   14.3423  -16.1899   19.6402 C   0  0  0  0  0  0  0  0  0  0  0  0
   14.7350  -16.6015   18.5233 O   0  0  0  0  0  0  0  0  0  0  0  0
   12.9088  -16.2173   19.9550 C   0  0  0  0  0  0  0  0  0  0  0  0
   12.5504  -15.7397   21.3119 C   0  0  0  0  0  0  0  0  0  0  0  0
   11.0787  -15.8010   21.6449 C   0  0  2  0  0  0  0  0  0  0  0  0
   10.4665  -14.6785   20.9407 N   0  0  0  0  0  0  0  0  0  0  0  0
   10.9593  -15.6644   23.1006 C   0  0  0  0  0  0  0  0  0  0  0  0
   11.6434  -14.8206   23.7093 O   0  0  0  0  0  0  0  0  0  0  0  0
    6.2558  -11.2113   25.6303 O   0  0  0  0  0  0  0  0  0  0  0  0
    6.7933  -12.4987   25.6355 C   0  0  0  0  0  0  0  0  0  0  0  0
    8.0693  -12.7366   26.0970 C   0  0  0  0  0  0  0  0  0  0  0  0
    8.6103  -14.0011   26.1074 C   0  0  0  0  0  0  0  0  0  0  0  0
    7.8812  -15.0989   25.6472 C   0  0  0  0  0  0  0  0  0  0  0  0
    8.4782  -16.4428   25.6548 C   0  0  0  0  0  0  0  0  0  0  0  0
    9.9408  -16.4287   25.2781 C   0  0  2  0  0  0  0  0  0  0  0  0
   10.0710  -16.4851   23.8229 N   0  0  0  0  0  0  0  0  0  0  0  0
   10.6605  -17.5533   25.8927 C   0  0  0  0  0  0  0  0  0  0  0  0
   11.2585  -18.5191   25.0644 O   0  0  0  0  0  0  0  0  0  0  0  0
    6.6050  -14.8359   25.1892 C   0  0  0  0  0  0  0  0  0  0  0  0
    6.0663  -13.5591   25.1819 C   0  0  0  0  0  0  0  0  0  0  0  0
   10.7942  -17.7360   27.1121 O   0  0  0  0  0  0  0  0  0  0  0  0
  2  1  1  6
  2  3  1  0
  4  2  1  0
  4  5  1  1
  6  7  2  0
  6  4  1  0
  9  8  1  0
 10  9  2  0
 11  9  1  0
 12 11  1  0
 13 12  1  1
 13 14  1  0
 14  6  1  0
 15 24  1  0
 15 13  1  0
 16 15  2  0
 18 19  2  0
 18 17  1  0
 20 19  1  0
 21 20  2  0
 22 21  1  0
 23 24  1  0
 23 22  1  6
 25 23  1  0
 26 25  1  0
 27 21  1  0
 27 28  2  0
 28 18  1  0
 29 25  2  0
M  END
$$$$
