TQY.pdb
     RDKit          3D

 29 29  0  0  1  0  0  0  0  0999 V2000
    5.8468  -18.2835   24.6544 C   0  0  0  0  0  0  0  0  0  0  0  0
    5.7375  -19.3623   23.5992 C   0  0  1  0  0  0  0  0  0  0  0  0
    4.6630  -20.1980   23.8574 O   0  0  0  0  0  0  0  0  0  0  0  0
    5.5758  -18.7317   22.2439 C   0  0  2  0  0  0  0  0  0  0  0  0
    5.3161  -19.7296   21.2317 N   0  0  0  0  0  0  0  0  0  0  0  0
    6.8068  -18.0099   21.8523 C   0  0  0  0  0  0  0  0  0  0  0  0
    7.7982  -18.5752   21.3195 O   0  0  0  0  0  0  0  0  0  0  0  0
    6.9521  -12.6660   19.0469 N   0  0  0  0  0  0  0  0  0  0  0  0
    8.3487  -12.8831   19.3029 C   0  0  0  0  0  0  0  0  0  0  0  0
    9.2122  -12.1599   18.7530 O   0  0  0  0  0  0  0  0  0  0  0  0
    8.7777  -13.9531   20.2118 C   0  0  0  0  0  0  0  0  0  0  0  0
    7.6849  -14.7877   20.7658 C   0  0  0  0  0  0  0  0  0  0  0  0
    8.1307  -15.8986   21.6866 C   0  0  2  0  0  0  0  0  0  0  0  0
    6.9131  -16.6048   22.0731 N   0  0  0  0  0  0  0  0  0  0  0  0
    8.7865  -15.2683   22.8376 C   0  0  0  0  0  0  0  0  0  0  0  0
    8.5965  -14.0629   23.0848 O   0  0  0  0  0  0  0  0  0  0  0  0
    6.0165  -10.7760   26.4762 O   0  0  0  0  0  0  0  0  0  0  0  0
    6.5744  -12.0416   26.2925 C   0  0  0  0  0  0  0  0  0  0  0  0
    7.8640  -12.1920   25.8321 C   0  0  0  0  0  0  0  0  0  0  0  0
    8.4253  -13.4340   25.6470 C   0  0  0  0  0  0  0  0  0  0  0  0
    7.7038  -14.5971   25.9210 C   0  0  0  0  0  0  0  0  0  0  0  0
    8.3147  -15.9176   25.7073 C   0  0  0  0  0  0  0  0  0  0  0  0
    9.7035  -15.8250   25.1206 C   0  0  2  0  0  0  0  0  0  0  0  0
    9.6361  -16.0197   23.6731 N   0  0  0  0  0  0  0  0  0  0  0  0
   10.6037  -16.8192   25.7219 C   0  0  0  0  0  0  0  0  0  0  0  0
   11.0647  -17.8900   24.9362 O   0  0  0  0  0  0  0  0  0  0  0  0
    6.4134  -14.4213   26.3811 C   0  0  0  0  0  0  0  0  0  0  0  0
    5.8544  -13.1667   26.5653 C   0  0  0  0  0  0  0  0  0  0  0  0
   11.0076  -16.8017   26.8943 O   0  0  0  0  0  0  0  0  0  0  0  0
  2  1  1  1
  2  3  1  0
  4  2  1  0
  4  5  1  6
  6  7  2  0
  6  4  1  0
  9  8  1  0
 10  9  2  0
 11  9  1  0
 12 11  1  0
 13 12  1  6
 13 14  1  0
 14  6  1  0
 15 24  1  0
 15 13  1  0
 16 15  2  0
 18 19  2  0
 18 17  1  0
 20 19  1  0
 21 20  2  0
 22 21  1  0
 23 24  1  0
 23 22  1  1
 25 23  1  0
 26 25  1  0
 27 21  1  0
 27 28  2  0
 28 18  1  0
 29 25  2  0
M  END
$$$$
