TQY.pdb
     RDKit          3D

 29 29  0  0  1  0  0  0  0  0999 V2000
   11.8453  -17.8406   22.5391 C   0  0  0  0  0  0  0  0  0  0  0  0
   11.0944  -16.8406   21.6874 C   0  0  1  0  0  0  0  0  0  0  0  0
   11.6856  -16.7117   20.4409 O   0  0  0  0  0  0  0  0  0  0  0  0
    9.6657  -17.2813   21.5285 C   0  0  2  0  0  0  0  0  0  0  0  0
    8.9555  -16.4261   20.6055 N   0  0  0  0  0  0  0  0  0  0  0  0
    8.9538  -17.2264   22.8245 C   0  0  0  0  0  0  0  0  0  0  0  0
    8.4431  -16.1722   23.2870 O   0  0  0  0  0  0  0  0  0  0  0  0
    6.8244  -22.3744   25.4223 N   0  0  0  0  0  0  0  0  0  0  0  0
    6.3048  -21.5774   24.3462 C   0  0  0  0  0  0  0  0  0  0  0  0
    5.4579  -22.0566   23.5562 O   0  0  0  0  0  0  0  0  0  0  0  0
    6.7600  -20.1940   24.1623 C   0  0  0  0  0  0  0  0  0  0  0  0
    7.6405  -19.6706   25.2341 C   0  0  0  0  0  0  0  0  0  0  0  0
    8.2500  -18.3166   24.9585 C   0  0  2  0  0  0  0  0  0  0  0  0
    8.8190  -18.4045   23.6171 N   0  0  0  0  0  0  0  0  0  0  0  0
    9.2817  -18.0923   25.9769 C   0  0  0  0  0  0  0  0  0  0  0  0
   10.4779  -18.3224   25.7189 O   0  0  0  0  0  0  0  0  0  0  0  0
    7.9974  -11.7660   25.4833 O   0  0  0  0  0  0  0  0  0  0  0  0
    8.3611  -12.8042   26.3414 C   0  0  0  0  0  0  0  0  0  0  0  0
    7.4141  -13.6431   26.8867 C   0  0  0  0  0  0  0  0  0  0  0  0
    7.7600  -14.6701   27.7337 C   0  0  0  0  0  0  0  0  0  0  0  0
    9.0933  -14.9025   28.0751 C   0  0  0  0  0  0  0  0  0  0  0  0
    9.4453  -15.9980   28.9908 C   0  0  0  0  0  0  0  0  0  0  0  0
    9.9190  -17.2329   28.2613 C   0  0  2  0  0  0  0  0  0  0  0  0
    8.9298  -17.6150   27.2548 N   0  0  0  0  0  0  0  0  0  0  0  0
   10.1478  -18.3471   29.1921 C   0  0  0  0  0  0  0  0  0  0  0  0
   11.2515  -18.2982   30.0615 O   0  0  0  0  0  0  0  0  0  0  0  0
   10.0245  -14.0488   27.5167 C   0  0  0  0  0  0  0  0  0  0  0  0
    9.6687  -13.0161   26.6638 C   0  0  0  0  0  0  0  0  0  0  0  0
    9.4362  -19.3585   29.2857 O   0  0  0  0  0  0  0  0  0  0  0  0
  2  1  1  1
  2  3  1  0
  4  2  1  0
  4  5  1  6
  6  7  2  0
  6  4  1  0
  9  8  1  0
 10  9  2  0
 11  9  1  0
 12 11  1  0
 13 12  1  1
 13 14  1  0
 14  6  1  0
 15 24  1  0
 15 13  1  0
 16 15  2  0
 18 19  2  0
 18 17  1  0
 20 19  1  0
 21 20  2  0
 22 21  1  0
 23 24  1  0
 23 22  1  1
 25 23  1  0
 26 25  1  0
 27 21  1  0
 27 28  2  0
 28 18  1  0
 29 25  2  0
M  END
$$$$
