TQY.pdb
     RDKit          3D

 29 29  0  0  1  0  0  0  0  0999 V2000
    8.0360  -11.6841   18.5923 C   0  0  0  0  0  0  0  0  0  0  0  0
    8.4826  -12.8727   19.4152 C   0  0  1  0  0  0  0  0  0  0  0  0
    7.4679  -13.2996   20.2566 O   0  0  0  0  0  0  0  0  0  0  0  0
    8.8921  -13.9958   18.5034 C   0  0  2  0  0  0  0  0  0  0  0  0
    7.7691  -14.4776   17.7323 N   0  0  0  0  0  0  0  0  0  0  0  0
    9.4196  -15.1373   19.2832 C   0  0  0  0  0  0  0  0  0  0  0  0
    8.7465  -16.1723   19.5327 O   0  0  0  0  0  0  0  0  0  0  0  0
   14.7712  -18.1173   19.0650 N   0  0  0  0  0  0  0  0  0  0  0  0
   13.6292  -17.9282   18.2145 C   0  0  0  0  0  0  0  0  0  0  0  0
   13.6865  -18.2367   17.0010 O   0  0  0  0  0  0  0  0  0  0  0  0
   12.3840  -17.3731   18.7589 C   0  0  0  0  0  0  0  0  0  0  0  0
   12.5238  -16.6497   20.0453 C   0  0  0  0  0  0  0  0  0  0  0  0
   11.2274  -16.1761   20.6583 C   0  0  2  0  0  0  0  0  0  0  0  0
   10.7507  -15.1006   19.7941 N   0  0  0  0  0  0  0  0  0  0  0  0
   11.5386  -15.6955   22.0089 C   0  0  0  0  0  0  0  0  0  0  0  0
   12.2706  -14.7008   22.1672 O   0  0  0  0  0  0  0  0  0  0  0  0
   11.0007  -15.0256   30.8462 O   0  0  0  0  0  0  0  0  0  0  0  0
   10.7621  -15.2258   29.4862 C   0  0  0  0  0  0  0  0  0  0  0  0
   10.5807  -16.4913   28.9731 C   0  0  0  0  0  0  0  0  0  0  0  0
   10.3447  -16.7017   27.6345 C   0  0  0  0  0  0  0  0  0  0  0  0
   10.2796  -15.6328   26.7392 C   0  0  0  0  0  0  0  0  0  0  0  0
   10.0374  -15.8756   25.3092 C   0  0  0  0  0  0  0  0  0  0  0  0
   11.3165  -15.9461   24.5090 C   0  0  2  0  0  0  0  0  0  0  0  0
   11.0132  -16.3537   23.1381 N   0  0  0  0  0  0  0  0  0  0  0  0
   12.2729  -16.8838   25.1142 C   0  0  0  0  0  0  0  0  0  0  0  0
   12.2759  -18.2256   24.6948 O   0  0  0  0  0  0  0  0  0  0  0  0
   10.4648  -14.3739   27.2764 C   0  0  0  0  0  0  0  0  0  0  0  0
   10.7021  -14.1695   28.6264 C   0  0  0  0  0  0  0  0  0  0  0  0
   13.1040  -16.5934   25.9878 O   0  0  0  0  0  0  0  0  0  0  0  0
  2  1  1  6
  2  3  1  0
  4  2  1  0
  4  5  1  1
  6  7  2  0
  6  4  1  0
  9  8  1  0
 10  9  2  0
 11  9  1  0
 12 11  1  0
 13 12  1  6
 13 14  1  0
 14  6  1  0
 15 24  1  0
 15 13  1  0
 16 15  2  0
 18 19  2  0
 18 17  1  0
 20 19  1  0
 21 20  2  0
 22 21  1  0
 23 24  1  0
 23 22  1  1
 25 23  1  0
 26 25  1  0
 27 21  1  0
 27 28  2  0
 28 18  1  0
 29 25  2  0
M  END
$$$$
