GLI.pdb
     RDKit          3D

 21 20  0  0  1  0  0  0  0  0999 V2000
   27.4254  -17.5682  -17.0598 N   0  0  0  0  0  0  0  0  0  0  0  0
   28.0440  -17.7531  -15.7829 C   0  0  0  0  0  0  0  0  0  0  0  0
   27.4228  -18.8660  -15.0205 C   0  0  0  0  0  0  0  0  0  0  0  0
   26.8482  -19.7833  -15.6424 O   0  0  0  0  0  0  0  0  0  0  0  0
   29.4550  -21.0673  -10.2459 C   0  0  0  0  0  0  0  0  0  0  0  0
   28.9817  -20.8240  -11.6936 C   0  0  1  0  0  0  0  0  0  0  0  0
   29.2994  -22.0337  -12.4924 C   0  0  0  0  0  0  0  0  0  0  0  0
   27.5673  -20.4151  -11.6084 C   0  0  0  0  0  0  0  0  0  0  0  0
   26.8691  -20.0034  -12.8453 C   0  0  2  0  0  0  0  0  0  0  0  0
   27.4495  -18.9411  -13.5984 N   0  0  0  0  0  0  0  0  0  0  0  0
   25.3989  -19.7689  -12.6222 C   0  0  0  0  0  0  0  0  0  0  0  0
   25.0401  -19.0004  -11.7178 O   0  0  0  0  0  0  0  0  0  0  0  0
   20.7470  -18.7176  -16.1997 C   0  0  0  0  0  0  0  0  0  0  0  0
   21.1353  -19.2290  -14.8565 C   0  0  0  0  0  0  0  0  0  0  0  0
   22.5313  -19.6508  -14.6617 C   0  0  2  0  0  0  0  0  0  0  0  0
   23.0118  -20.4971  -15.8409 C   0  0  0  0  0  0  0  0  0  0  0  0
   22.9897  -20.1288  -13.3353 C   0  0  2  0  0  0  0  0  0  0  0  0
   24.4518  -20.4084  -13.4235 N   0  0  0  0  0  0  0  0  0  0  0  0
   22.3354  -21.3442  -12.8966 C   0  0  0  0  0  0  0  0  0  0  0  0
   21.1072  -21.4506  -12.2528 O   0  0  0  0  0  0  0  0  0  0  0  0
   22.9089  -22.4696  -13.0939 O   0  0  0  0  0  0  0  0  0  0  0  0
  2  1  1  0
  3  2  1  0
  4  3  2  0
  6  5  1  1
  6  8  1  0
  7  6  1  0
  9  8  1  1
  9 10  1  0
  9 11  1  0
 10  3  1  0
 11 12  2  0
 14 13  1  0
 15 14  1  0
 15 16  1  6
 17 15  1  0
 18 11  1  0
 17 18  1  6
 19 20  1  0
 19 17  1  0
 21 19  2  0
M  END
$$$$
