GLI.pdb
     RDKit          3D

 21 20  0  0  1  0  0  0  0  0999 V2000
   20.6720  -15.3841  -19.2551 N   0  0  0  0  0  0  0  0  0  0  0  0
   20.9947  -14.0050  -19.4584 C   0  0  0  0  0  0  0  0  0  0  0  0
   21.3539  -13.3253  -18.1877 C   0  0  0  0  0  0  0  0  0  0  0  0
   20.4664  -13.1251  -17.3328 O   0  0  0  0  0  0  0  0  0  0  0  0
   26.4188  -13.3752  -15.6200 C   0  0  0  0  0  0  0  0  0  0  0  0
   24.9160  -13.5514  -15.9198 C   0  0  1  0  0  0  0  0  0  0  0  0
   24.3009  -14.2793  -14.7822 C   0  0  0  0  0  0  0  0  0  0  0  0
   24.3917  -12.2093  -16.2342 C   0  0  0  0  0  0  0  0  0  0  0  0
   23.0144  -12.0875  -16.7586 C   0  0  2  0  0  0  0  0  0  0  0  0
   22.6754  -12.8847  -17.8910 N   0  0  0  0  0  0  0  0  0  0  0  0
   22.6041  -10.6537  -16.9633 C   0  0  0  0  0  0  0  0  0  0  0  0
   22.9750  -10.0592  -17.9862 O   0  0  0  0  0  0  0  0  0  0  0  0
   17.7674   -9.3424  -17.5264 C   0  0  0  0  0  0  0  0  0  0  0  0
   19.2531   -9.2531  -17.4913 C   0  0  0  0  0  0  0  0  0  0  0  0
   19.8731   -8.6139  -16.3200 C   0  0  2  0  0  0  0  0  0  0  0  0
   19.1870   -7.2854  -16.0006 C   0  0  0  0  0  0  0  0  0  0  0  0
   21.3481   -8.5948  -16.1722 C   0  0  2  0  0  0  0  0  0  0  0  0
   21.8161  -10.0017  -16.0135 N   0  0  0  0  0  0  0  0  0  0  0  0
   21.8080   -7.8462  -15.0207 C   0  0  0  0  0  0  0  0  0  0  0  0
   22.1845   -6.5077  -14.9858 O   0  0  0  0  0  0  0  0  0  0  0  0
   21.9012   -8.4336  -13.8891 O   0  0  0  0  0  0  0  0  0  0  0  0
  2  1  1  0
  3  2  1  0
  4  3  2  0
  6  5  1  1
  6  8  1  0
  7  6  1  0
  9  8  1  6
  9 10  1  0
  9 11  1  0
 10  3  1  0
 11 12  2  0
 14 13  1  0
 15 14  1  0
 15 16  1  6
 17 15  1  0
 18 11  1  0
 17 18  1  1
 19 20  1  0
 19 17  1  0
 21 19  2  0
M  END
$$$$
