GLI.pdb
     RDKit          3D

 21 20  0  0  1  0  0  0  0  0999 V2000
   19.8775  -21.5671  -15.1494 N   0  0  0  0  0  0  0  0  0  0  0  0
   20.6704  -20.4890  -14.6432 C   0  0  0  0  0  0  0  0  0  0  0  0
   21.9995  -20.9518  -14.1688 C   0  0  0  0  0  0  0  0  0  0  0  0
   22.0594  -21.7518  -13.2123 O   0  0  0  0  0  0  0  0  0  0  0  0
   26.8889  -22.6977  -14.3412 C   0  0  0  0  0  0  0  0  0  0  0  0
   26.9872  -21.1956  -14.6775 C   0  0  1  0  0  0  0  0  0  0  0  0
   28.1402  -21.0019  -15.5915 C   0  0  0  0  0  0  0  0  0  0  0  0
   25.6558  -20.7874  -15.1631 C   0  0  0  0  0  0  0  0  0  0  0  0
   24.5121  -20.8298  -14.2267 C   0  0  2  0  0  0  0  0  0  0  0  0
   23.2243  -20.5243  -14.7566 N   0  0  0  0  0  0  0  0  0  0  0  0
   24.7763  -20.0535  -12.9642 C   0  0  0  0  0  0  0  0  0  0  0  0
   24.7439  -18.8145  -12.9989 O   0  0  0  0  0  0  0  0  0  0  0  0
   23.0818  -21.7337   -7.8474 C   0  0  0  0  0  0  0  0  0  0  0  0
   24.1913  -21.5503   -8.8230 C   0  0  0  0  0  0  0  0  0  0  0  0
   24.2675  -20.2678   -9.5402 C   0  0  2  0  0  0  0  0  0  0  0  0
   22.8857  -19.8410  -10.0364 C   0  0  0  0  0  0  0  0  0  0  0  0
   25.3704  -20.0107  -10.4969 C   0  0  2  0  0  0  0  0  0  0  0  0
   25.0543  -20.7201  -11.7699 N   0  0  0  0  0  0  0  0  0  0  0  0
   26.6604  -20.4837  -10.0388 C   0  0  0  0  0  0  0  0  0  0  0  0
   27.4142  -19.9769   -8.9855 O   0  0  0  0  0  0  0  0  0  0  0  0
   27.2137  -21.4691  -10.6363 O   0  0  0  0  0  0  0  0  0  0  0  0
  2  1  1  0
  3  2  1  0
  4  3  2  0
  6  5  1  6
  6  8  1  0
  7  6  1  0
  9  8  1  6
  9 10  1  0
  9 11  1  0
 10  3  1  0
 11 12  2  0
 14 13  1  0
 15 14  1  0
 15 16  1  6
 17 15  1  0
 18 11  1  0
 17 18  1  6
 19 20  1  0
 19 17  1  0
 21 19  2  0
M  END
$$$$
