GLI.pdb
     RDKit          3D

 21 20  0  0  1  0  0  0  0  0999 V2000
   30.2020  -23.6553  -16.4256 N   0  0  0  0  0  0  0  0  0  0  0  0
   29.0011  -23.0683  -16.9359 C   0  0  0  0  0  0  0  0  0  0  0  0
   28.4636  -22.0237  -16.0272 C   0  0  0  0  0  0  0  0  0  0  0  0
   28.8480  -21.9937  -14.8398 O   0  0  0  0  0  0  0  0  0  0  0  0
   27.1256  -16.9373  -14.7177 C   0  0  0  0  0  0  0  0  0  0  0  0
   25.9720  -17.7097  -15.3898 C   0  0  1  0  0  0  0  0  0  0  0  0
   25.0900  -16.7259  -16.0655 C   0  0  0  0  0  0  0  0  0  0  0  0
   26.5968  -18.7521  -16.2252 C   0  0  0  0  0  0  0  0  0  0  0  0
   26.9913  -20.0297  -15.5935 C   0  0  2  0  0  0  0  0  0  0  0  0
   27.5204  -21.0423  -16.4464 N   0  0  0  0  0  0  0  0  0  0  0  0
   25.9142  -20.5832  -14.6993 C   0  0  0  0  0  0  0  0  0  0  0  0
   25.0379  -21.3113  -15.1884 O   0  0  0  0  0  0  0  0  0  0  0  0
   25.5169  -21.1950   -8.5079 C   0  0  0  0  0  0  0  0  0  0  0  0
   24.9203  -21.4343   -9.8507 C   0  0  0  0  0  0  0  0  0  0  0  0
   25.5910  -20.8344  -11.0148 C   0  0  2  0  0  0  0  0  0  0  0  0
   26.1312  -19.4454  -10.6732 C   0  0  0  0  0  0  0  0  0  0  0  0
   24.9870  -20.9440  -12.3642 C   0  0  2  0  0  0  0  0  0  0  0  0
   25.9023  -20.2807  -13.3368 N   0  0  0  0  0  0  0  0  0  0  0  0
   23.6911  -20.3067  -12.4753 C   0  0  0  0  0  0  0  0  0  0  0  0
   23.3917  -19.1254  -13.1456 O   0  0  0  0  0  0  0  0  0  0  0  0
   22.6788  -20.8448  -11.9097 O   0  0  0  0  0  0  0  0  0  0  0  0
  2  1  1  0
  3  2  1  0
  4  3  2  0
  6  5  1  6
  6  8  1  0
  7  6  1  0
  9  8  1  6
  9 10  1  0
  9 11  1  0
 10  3  1  0
 11 12  2  0
 14 13  1  0
 15 14  1  0
 15 16  1  1
 17 15  1  0
 18 11  1  0
 17 18  1  6
 19 20  1  0
 19 17  1  0
 21 19  2  0
M  END
$$$$
