GLI.pdb
     RDKit          3D

 21 20  0  0  1  0  0  0  0  0999 V2000
   19.3064  -13.1214  -20.5747 N   0  0  0  0  0  0  0  0  0  0  0  0
   19.7250  -11.7558  -20.4896 C   0  0  0  0  0  0  0  0  0  0  0  0
   20.0081  -11.3478  -19.0898 C   0  0  0  0  0  0  0  0  0  0  0  0
   19.1191  -11.4851  -18.2244 O   0  0  0  0  0  0  0  0  0  0  0  0
   24.4670  -11.2756  -15.0695 C   0  0  0  0  0  0  0  0  0  0  0  0
   22.9901  -10.9198  -15.3362 C   0  0  1  0  0  0  0  0  0  0  0  0
   22.6228   -9.7835  -14.4551 C   0  0  0  0  0  0  0  0  0  0  0  0
   22.8635  -10.7223  -16.7922 C   0  0  0  0  0  0  0  0  0  0  0  0
   21.5407  -10.3686  -17.3508 C   0  0  2  0  0  0  0  0  0  0  0  0
   21.2577  -10.8011  -18.6796 N   0  0  0  0  0  0  0  0  0  0  0  0
   21.2165   -8.9090  -17.1757 C   0  0  0  0  0  0  0  0  0  0  0  0
   21.7963   -8.0723  -17.8836 O   0  0  0  0  0  0  0  0  0  0  0  0
   17.5138   -4.8997  -17.3199 C   0  0  0  0  0  0  0  0  0  0  0  0
   17.6952   -5.7150  -16.0875 C   0  0  0  0  0  0  0  0  0  0  0  0
   18.3906   -7.0052  -16.2162 C   0  0  2  0  0  0  0  0  0  0  0  0
   17.6145   -8.1131  -15.5036 C   0  0  0  0  0  0  0  0  0  0  0  0
   19.8619   -7.0813  -16.0504 C   0  0  2  0  0  0  0  0  0  0  0  0
   20.2753   -8.5029  -16.2286 N   0  0  0  0  0  0  0  0  0  0  0  0
   20.3238   -6.6492  -14.7474 C   0  0  0  0  0  0  0  0  0  0  0  0
   20.7701   -5.3803  -14.3937 O   0  0  0  0  0  0  0  0  0  0  0  0
   20.3491   -7.4878  -13.7828 O   0  0  0  0  0  0  0  0  0  0  0  0
  2  1  1  0
  3  2  1  0
  4  3  2  0
  6  5  1  6
  6  8  1  0
  7  6  1  0
  9  8  1  6
  9 10  1  0
  9 11  1  0
 10  3  1  0
 11 12  2  0
 14 13  1  0
 15 14  1  0
 15 16  1  1
 17 15  1  0
 18 11  1  0
 17 18  1  1
 19 20  1  0
 19 17  1  0
 21 19  2  0
M  END
$$$$
