GLI.pdb
     RDKit          3D

 21 20  0  0  1  0  0  0  0  0999 V2000
   16.0380  -11.4576  -13.6819 N   0  0  0  0  0  0  0  0  0  0  0  0
   16.7516  -10.8707  -12.5895 C   0  0  0  0  0  0  0  0  0  0  0  0
   16.0834   -9.6443  -12.0841 C   0  0  0  0  0  0  0  0  0  0  0  0
   15.2380   -9.0721  -12.8026 O   0  0  0  0  0  0  0  0  0  0  0  0
   13.4769   -6.6717   -8.6630 C   0  0  0  0  0  0  0  0  0  0  0  0
   14.9750   -6.5189   -8.3293 C   0  0  1  0  0  0  0  0  0  0  0  0
   15.0988   -6.2508   -6.8750 C   0  0  0  0  0  0  0  0  0  0  0  0
   15.6469   -7.7192   -8.8611 C   0  0  0  0  0  0  0  0  0  0  0  0
   15.7827   -7.8695  -10.3259 C   0  0  2  0  0  0  0  0  0  0  0  0
   16.3613   -9.0809  -10.8059 N   0  0  0  0  0  0  0  0  0  0  0  0
   16.4277   -6.6700  -10.9674 C   0  0  0  0  0  0  0  0  0  0  0  0
   17.6567   -6.5286  -10.8852 O   0  0  0  0  0  0  0  0  0  0  0  0
   14.3374   -4.7082  -15.7810 C   0  0  0  0  0  0  0  0  0  0  0  0
   14.5571   -4.6478  -14.3098 C   0  0  0  0  0  0  0  0  0  0  0  0
   15.9416   -4.7360  -13.8199 C   0  0  2  0  0  0  0  0  0  0  0  0
   16.6796   -5.8976  -14.4861 C   0  0  0  0  0  0  0  0  0  0  0  0
   16.2362   -4.5678  -12.3767 C   0  0  2  0  0  0  0  0  0  0  0  0
   15.6519   -5.7291  -11.6462 N   0  0  0  0  0  0  0  0  0  0  0  0
   15.6748   -3.3612  -11.8049 C   0  0  0  0  0  0  0  0  0  0  0  0
   16.2373   -2.0893  -11.8113 O   0  0  0  0  0  0  0  0  0  0  0  0
   14.5427   -3.4172  -11.2137 O   0  0  0  0  0  0  0  0  0  0  0  0
  2  1  1  0
  3  2  1  0
  4  3  2  0
  6  5  1  1
  6  8  1  0
  7  6  1  0
  9  8  1  1
  9 10  1  0
  9 11  1  0
 10  3  1  0
 11 12  2  0
 14 13  1  0
 15 14  1  0
 15 16  1  1
 17 15  1  0
 18 11  1  0
 17 18  1  1
 19 20  1  0
 19 17  1  0
 21 19  2  0
M  END
$$$$
