GLI.pdb
     RDKit          3D

 21 20  0  0  1  0  0  0  0  0999 V2000
   28.3610  -22.5522  -16.8286 N   0  0  0  0  0  0  0  0  0  0  0  0
   28.2091  -21.3596  -16.0529 C   0  0  0  0  0  0  0  0  0  0  0  0
   27.1642  -21.5060  -15.0076 C   0  0  0  0  0  0  0  0  0  0  0  0
   26.1743  -22.2320  -15.2344 O   0  0  0  0  0  0  0  0  0  0  0  0
   25.0540  -22.0475  -10.1847 C   0  0  0  0  0  0  0  0  0  0  0  0
   25.5111  -20.5826  -10.3409 C   0  0  1  0  0  0  0  0  0  0  0  0
   25.8660  -20.0642   -8.9964 C   0  0  0  0  0  0  0  0  0  0  0  0
   26.5649  -20.5807  -11.3726 C   0  0  0  0  0  0  0  0  0  0  0  0
   26.1928  -20.8832  -12.7715 C   0  0  2  0  0  0  0  0  0  0  0  0
   27.2348  -20.8524  -13.7442 N   0  0  0  0  0  0  0  0  0  0  0  0
   24.9992  -20.0895  -13.2312 C   0  0  0  0  0  0  0  0  0  0  0  0
   25.0684  -18.8517  -13.2522 O   0  0  0  0  0  0  0  0  0  0  0  0
   23.4072  -20.2302  -17.9110 C   0  0  0  0  0  0  0  0  0  0  0  0
   23.5852  -19.9202  -16.4658 C   0  0  0  0  0  0  0  0  0  0  0  0
   22.4746  -20.2396  -15.5551 C   0  0  2  0  0  0  0  0  0  0  0  0
   21.1410  -19.7783  -16.1436 C   0  0  0  0  0  0  0  0  0  0  0  0
   22.6145  -20.0118  -14.0969 C   0  0  2  0  0  0  0  0  0  0  0  0
   23.8294  -20.7388  -13.6288 N   0  0  0  0  0  0  0  0  0  0  0  0
   21.4890  -20.4924  -13.3222 C   0  0  0  0  0  0  0  0  0  0  0  0
   21.1789  -21.8151  -13.0245 O   0  0  0  0  0  0  0  0  0  0  0  0
   20.6561  -19.6507  -12.8404 O   0  0  0  0  0  0  0  0  0  0  0  0
  2  1  1  0
  3  2  1  0
  4  3  2  0
  6  5  1  1
  6  8  1  0
  7  6  1  0
  9  8  1  1
  9 10  1  0
  9 11  1  0
 10  3  1  0
 11 12  2  0
 14 13  1  0
 15 14  1  0
 15 16  1  6
 17 15  1  0
 18 11  1  0
 17 18  1  1
 19 20  1  0
 19 17  1  0
 21 19  2  0
M  END
$$$$
