GLI.pdb
     RDKit          3D

 21 20  0  0  1  0  0  0  0  0999 V2000
   31.1631  -22.3997  -10.2466 N   0  0  0  0  0  0  0  0  0  0  0  0
   30.7330  -21.1270   -9.7544 C   0  0  0  0  0  0  0  0  0  0  0  0
   29.4397  -21.2195   -9.0300 C   0  0  0  0  0  0  0  0  0  0  0  0
   28.6605  -22.1585   -9.2937 O   0  0  0  0  0  0  0  0  0  0  0  0
   28.4721  -18.7504   -4.0047 C   0  0  0  0  0  0  0  0  0  0  0  0
   28.6976  -19.8065   -5.1060 C   0  0  1  0  0  0  0  0  0  0  0  0
   28.7769  -21.1392   -4.4579 C   0  0  0  0  0  0  0  0  0  0  0  0
   27.6370  -19.5981   -6.1093 C   0  0  0  0  0  0  0  0  0  0  0  0
   27.7534  -20.2736   -7.4196 C   0  0  2  0  0  0  0  0  0  0  0  0
   29.0382  -20.2801   -8.0376 N   0  0  0  0  0  0  0  0  0  0  0  0
   26.6888  -19.8324   -8.3882 C   0  0  0  0  0  0  0  0  0  0  0  0
   26.5465  -18.6226   -8.6197 O   0  0  0  0  0  0  0  0  0  0  0  0
   27.1335  -21.2572  -13.1706 C   0  0  0  0  0  0  0  0  0  0  0  0
   26.6750  -20.5888  -11.9219 C   0  0  0  0  0  0  0  0  0  0  0  0
   25.3772  -20.9985  -11.3627 C   0  0  2  0  0  0  0  0  0  0  0  0
   24.3163  -21.0839  -12.4604 C   0  0  0  0  0  0  0  0  0  0  0  0
   24.8957  -20.4170  -10.0868 C   0  0  2  0  0  0  0  0  0  0  0  0
   25.8723  -20.7731   -9.0177 N   0  0  0  0  0  0  0  0  0  0  0  0
   23.5964  -20.9085   -9.6768 C   0  0  0  0  0  0  0  0  0  0  0  0
   22.3536  -20.4176  -10.0627 O   0  0  0  0  0  0  0  0  0  0  0  0
   23.5279  -21.8967   -8.8688 O   0  0  0  0  0  0  0  0  0  0  0  0
  2  1  1  0
  3  2  1  0
  4  3  2  0
  6  5  1  1
  6  8  1  0
  7  6  1  0
  9  8  1  1
  9 10  1  0
  9 11  1  0
 10  3  1  0
 11 12  2  0
 14 13  1  0
 15 14  1  0
 15 16  1  6
 17 15  1  0
 18 11  1  0
 17 18  1  1
 19 20  1  0
 19 17  1  0
 21 19  2  0
M  END
$$$$
