GLI.pdb
     RDKit          3D

 21 20  0  0  1  0  0  0  0  0999 V2000
   21.0507  -12.0970  -16.8637 N   0  0  0  0  0  0  0  0  0  0  0  0
   21.6435  -10.9999  -16.1621 C   0  0  0  0  0  0  0  0  0  0  0  0
   20.6441   -9.9578  -15.8142 C   0  0  0  0  0  0  0  0  0  0  0  0
   19.8740   -9.5333  -16.7003 O   0  0  0  0  0  0  0  0  0  0  0  0
   18.1121   -9.4589  -10.7055 C   0  0  0  0  0  0  0  0  0  0  0  0
   18.2152   -9.6058  -12.2375 C   0  0  1  0  0  0  0  0  0  0  0  0
   16.8390   -9.6869  -12.7869 C   0  0  0  0  0  0  0  0  0  0  0  0
   19.0731   -8.5019  -12.7071 C   0  0  0  0  0  0  0  0  0  0  0  0
   19.5029   -8.4861  -14.1219 C   0  0  2  0  0  0  0  0  0  0  0  0
   20.5178   -9.4112  -14.5050 N   0  0  0  0  0  0  0  0  0  0  0  0
   19.8241   -7.0980  -14.6076 C   0  0  0  0  0  0  0  0  0  0  0  0
   20.9265   -6.6016  -14.3324 O   0  0  0  0  0  0  0  0  0  0  0  0
   19.0629   -5.6274  -19.6713 C   0  0  0  0  0  0  0  0  0  0  0  0
   19.5352   -5.6645  -18.2599 C   0  0  0  0  0  0  0  0  0  0  0  0
   18.7650   -4.9083  -17.2600 C   0  0  2  0  0  0  0  0  0  0  0  0
   18.4588   -3.4978  -17.7645 C   0  0  0  0  0  0  0  0  0  0  0  0
   19.1281   -4.9821  -15.8245 C   0  0  2  0  0  0  0  0  0  0  0  0
   18.8928   -6.3788  -15.3583 N   0  0  0  0  0  0  0  0  0  0  0  0
   18.3484   -4.0999  -14.9809 C   0  0  0  0  0  0  0  0  0  0  0  0
   17.2174   -4.4290  -14.2414 O   0  0  0  0  0  0  0  0  0  0  0  0
   18.6912   -2.8731  -14.8729 O   0  0  0  0  0  0  0  0  0  0  0  0
  2  1  1  0
  3  2  1  0
  4  3  2  0
  6  5  1  1
  6  8  1  0
  7  6  1  0
  9  8  1  1
  9 10  1  0
  9 11  1  0
 10  3  1  0
 11 12  2  0
 14 13  1  0
 15 14  1  0
 15 16  1  6
 17 15  1  0
 18 11  1  0
 17 18  1  1
 19 20  1  0
 19 17  1  0
 21 19  2  0
M  END
$$$$
