GLI.pdb
     RDKit          3D

 21 20  0  0  1  0  0  0  0  0999 V2000
   28.1698  -22.4243  -16.0757 N   0  0  0  0  0  0  0  0  0  0  0  0
   28.0037  -21.2677  -15.2500 C   0  0  0  0  0  0  0  0  0  0  0  0
   27.0339  -21.5047  -14.1502 C   0  0  0  0  0  0  0  0  0  0  0  0
   26.0716  -22.2760  -14.3435 O   0  0  0  0  0  0  0  0  0  0  0  0
   26.2901  -20.3009   -8.0963 C   0  0  0  0  0  0  0  0  0  0  0  0
   25.6519  -20.9126   -9.3603 C   0  0  1  0  0  0  0  0  0  0  0  0
   24.2509  -20.4314   -9.4488 C   0  0  0  0  0  0  0  0  0  0  0  0
   26.5549  -20.5930  -10.4817 C   0  0  0  0  0  0  0  0  0  0  0  0
   26.1549  -20.9814  -11.8513 C   0  0  2  0  0  0  0  0  0  0  0  0
   27.1473  -20.8894  -12.8708 N   0  0  0  0  0  0  0  0  0  0  0  0
   24.8726  -20.3212  -12.2826 C   0  0  0  0  0  0  0  0  0  0  0  0
   24.8073  -19.0832  -12.3020 O   0  0  0  0  0  0  0  0  0  0  0  0
   23.4222  -20.3622  -16.9695 C   0  0  0  0  0  0  0  0  0  0  0  0
   23.4452  -20.0361  -15.5171 C   0  0  0  0  0  0  0  0  0  0  0  0
   22.4722  -20.7156  -14.6473 C   0  0  2  0  0  0  0  0  0  0  0  0
   21.0729  -20.6732  -15.2620 C   0  0  0  0  0  0  0  0  0  0  0  0
   22.5056  -20.5042  -13.1803 C   0  0  2  0  0  0  0  0  0  0  0  0
   23.7713  -21.0930  -12.6560 N   0  0  0  0  0  0  0  0  0  0  0  0
   21.4051  -21.1303  -12.4769 C   0  0  0  0  0  0  0  0  0  0  0  0
   21.3793  -22.4072  -11.9261 O   0  0  0  0  0  0  0  0  0  0  0  0
   20.3131  -20.4841  -12.3219 O   0  0  0  0  0  0  0  0  0  0  0  0
  2  1  1  0
  3  2  1  0
  4  3  2  0
  6  5  1  1
  6  8  1  0
  7  6  1  0
  9  8  1  1
  9 10  1  0
  9 11  1  0
 10  3  1  0
 11 12  2  0
 14 13  1  0
 15 14  1  0
 15 16  1  6
 17 15  1  0
 18 11  1  0
 17 18  1  1
 19 20  1  0
 19 17  1  0
 21 19  2  0
M  END
$$$$
