GLI.pdb
     RDKit          3D

 21 20  0  0  1  0  0  0  0  0999 V2000
   23.5948  -26.3876  -14.3903 N   0  0  0  0  0  0  0  0  0  0  0  0
   23.8919  -25.1962  -15.1248 C   0  0  0  0  0  0  0  0  0  0  0  0
   23.4843  -23.9728  -14.3878 C   0  0  0  0  0  0  0  0  0  0  0  0
   22.3108  -23.8748  -13.9733 O   0  0  0  0  0  0  0  0  0  0  0  0
   27.1350  -20.5065  -11.5942 C   0  0  0  0  0  0  0  0  0  0  0  0
   26.0331  -21.5431  -11.8946 C   0  0  1  0  0  0  0  0  0  0  0  0
   25.4805  -22.0170  -10.6014 C   0  0  0  0  0  0  0  0  0  0  0  0
   25.1010  -20.9013  -12.8403 C   0  0  0  0  0  0  0  0  0  0  0  0
   24.0072  -21.7091  -13.4214 C   0  0  2  0  0  0  0  0  0  0  0  0
   24.3749  -22.8925  -14.1265 N   0  0  0  0  0  0  0  0  0  0  0  0
   23.0451  -20.8764  -14.2258 C   0  0  0  0  0  0  0  0  0  0  0  0
   23.4150  -20.4055  -15.3115 O   0  0  0  0  0  0  0  0  0  0  0  0
   18.2227  -22.6226  -15.3498 C   0  0  0  0  0  0  0  0  0  0  0  0
   19.4828  -21.8300  -15.3646 C   0  0  0  0  0  0  0  0  0  0  0  0
   19.5050  -20.5650  -14.6135 C   0  0  2  0  0  0  0  0  0  0  0  0
   18.2737  -19.7191  -14.9395 C   0  0  0  0  0  0  0  0  0  0  0  0
   20.7644  -19.7933  -14.4859 C   0  0  2  0  0  0  0  0  0  0  0  0
   21.7530  -20.6375  -13.7553 N   0  0  0  0  0  0  0  0  0  0  0  0
   20.6158  -18.5544  -13.7505 C   0  0  0  0  0  0  0  0  0  0  0  0
   20.7337  -18.3750  -12.3763 O   0  0  0  0  0  0  0  0  0  0  0  0
   20.3412  -17.4792  -14.3852 O   0  0  0  0  0  0  0  0  0  0  0  0
  2  1  1  0
  3  2  1  0
  4  3  2  0
  6  5  1  1
  6  8  1  0
  7  6  1  0
  9  8  1  6
  9 10  1  0
  9 11  1  0
 10  3  1  0
 11 12  2  0
 14 13  1  0
 15 14  1  0
 15 16  1  6
 17 15  1  0
 18 11  1  0
 17 18  1  1
 19 20  1  0
 19 17  1  0
 21 19  2  0
M  END
$$$$
