NNH.pdb
     RDKit          3D

 27 27  0  0  1  0  0  0  0  0999 V2000
   16.5680  -10.5206  -17.1206 N   0  0  0  0  0  0  0  0  0  0  0  0
   15.5963  -10.1551  -16.1753 C   0  0  0  0  0  0  0  0  0  0  0  0
   14.3889  -10.1264  -16.5074 O   0  0  0  0  0  0  0  0  0  0  0  0
   15.9843   -9.8034  -14.7901 C   0  0  0  0  0  0  0  0  0  0  0  0
   17.4894   -9.8219  -14.6056 C   0  0  2  0  0  0  0  0  0  0  0  0
   18.0138  -11.1630  -14.5975 N   0  0  0  0  0  0  0  0  0  0  0  0
   17.7877   -9.1865  -13.3111 C   0  0  0  0  0  0  0  0  0  0  0  0
   17.5667   -9.8125  -12.2493 O   0  0  0  0  0  0  0  0  0  0  0  0
   20.9382   -8.5312  -12.4152 N   0  0  0  0  0  0  0  0  0  0  0  0
   20.9936   -7.0999  -12.3796 C   0  0  0  0  0  0  0  0  0  0  0  0
   22.0820   -6.5045  -12.5801 O   0  0  0  0  0  0  0  0  0  0  0  0
   19.7622   -6.3588  -12.1065 C   0  0  0  0  0  0  0  0  0  0  0  0
   18.6051   -7.3323  -11.9252 C   0  0  2  0  0  0  0  0  0  0  0  0
   18.3225   -7.8761  -13.2232 N   0  0  0  0  0  0  0  0  0  0  0  0
   17.3900   -6.6473  -11.4461 C   0  0  0  0  0  0  0  0  0  0  0  0
   16.6536   -5.9561  -12.2245 O   0  0  0  0  0  0  0  0  0  0  0  0
   16.9830   -6.7264  -10.0922 N   0  0  0  0  0  0  0  0  0  0  0  0
   15.7677   -5.9631   -9.6589 C   0  0  1  0  0  0  0  0  0  0  0  0
   15.1671   -6.8392   -8.5934 C   0  0  0  0  0  0  0  0  0  0  0  0
   14.2894   -7.9052   -9.0799 C   0  0  0  0  0  0  0  0  0  0  0  0
   13.9144   -8.3093  -10.3279 C   0  0  0  0  0  0  0  0  0  0  0  0
   13.1242   -9.4012  -10.1779 N   0  0  0  0  0  0  0  0  0  0  0  0
   12.9974   -9.6891   -8.8772 C   0  0  0  0  0  0  0  0  0  0  0  0
   13.7061   -8.7792   -8.2149 N   0  0  0  0  0  0  0  0  0  0  0  0
   16.2830   -4.7367   -8.9565 C   0  0  0  0  0  0  0  0  0  0  0  0
   17.5114   -4.6765   -8.7176 O   0  0  0  0  0  0  0  0  0  0  0  0
   15.4773   -3.7324   -8.5892 O   0  0  0  0  0  0  0  0  0  0  0  0
  2  1  1  0
  3  2  2  0
  4  2  1  0
  5  4  1  0
  5  6  1  1
  7  5  1  0
  7  8  2  0
  9 10  1  0
 10 12  1  0
 10 11  2  0
 13 12  1  6
 13 14  1  0
 14  7  1  0
 15 13  1  0
 15 17  1  0
 16 15  2  0
 18 17  1  0
 18 19  1  1
 20 19  1  0
 20 21  2  0
 22 21  1  0
 23 22  1  0
 24 23  2  0
 24 20  1  0
 25 18  1  0
 26 25  2  0
 27 25  1  0
M  END
$$$$
