NNH.pdb
     RDKit          3D

 27 27  0  0  1  0  0  0  0  0999 V2000
   21.1504  -18.2636  -16.8184 N   0  0  0  0  0  0  0  0  0  0  0  0
   20.0679  -17.3838  -16.9787 C   0  0  0  0  0  0  0  0  0  0  0  0
   18.9077  -17.8428  -17.0892 O   0  0  0  0  0  0  0  0  0  0  0  0
   20.2840  -15.9193  -17.0184 C   0  0  0  0  0  0  0  0  0  0  0  0
   19.4339  -15.2539  -18.0835 C   0  0  2  0  0  0  0  0  0  0  0  0
   19.9455  -15.4946  -19.4079 N   0  0  0  0  0  0  0  0  0  0  0  0
   19.4481  -13.8045  -17.8240 C   0  0  0  0  0  0  0  0  0  0  0  0
   20.2015  -13.0633  -18.4956 O   0  0  0  0  0  0  0  0  0  0  0  0
   15.8761  -10.1654  -17.2256 N   0  0  0  0  0  0  0  0  0  0  0  0
   16.3087  -11.4041  -16.6500 C   0  0  0  0  0  0  0  0  0  0  0  0
   15.6730  -12.4637  -16.8796 O   0  0  0  0  0  0  0  0  0  0  0  0
   17.4973  -11.4019  -15.7973 C   0  0  0  0  0  0  0  0  0  0  0  0
   18.7193  -11.7948  -16.6169 C   0  0  2  0  0  0  0  0  0  0  0  0
   18.6295  -13.2116  -16.8295 N   0  0  0  0  0  0  0  0  0  0  0  0
   19.9720  -11.5244  -15.8867 C   0  0  0  0  0  0  0  0  0  0  0  0
   20.3878  -12.2882  -14.9541 O   0  0  0  0  0  0  0  0  0  0  0  0
   20.7748  -10.3981  -16.1895 N   0  0  0  0  0  0  0  0  0  0  0  0
   22.0324  -10.1769  -15.4042 C   0  0  1  0  0  0  0  0  0  0  0  0
   23.1097  -10.6949  -16.3177 C   0  0  0  0  0  0  0  0  0  0  0  0
   24.4790  -10.5380  -15.8237 C   0  0  0  0  0  0  0  0  0  0  0  0
   25.0183  -10.4713  -14.5724 C   0  0  0  0  0  0  0  0  0  0  0  0
   26.3639  -10.3852  -14.7171 N   0  0  0  0  0  0  0  0  0  0  0  0
   26.6780  -10.3977  -16.0178 C   0  0  0  0  0  0  0  0  0  0  0  0
   25.5315  -10.4908  -16.6855 N   0  0  0  0  0  0  0  0  0  0  0  0
   22.2165   -8.6854  -15.3372 C   0  0  0  0  0  0  0  0  0  0  0  0
   21.5842   -7.9839  -16.1604 O   0  0  0  0  0  0  0  0  0  0  0  0
   23.0222   -8.1048  -14.4392 O   0  0  0  0  0  0  0  0  0  0  0  0
  2  1  1  0
  3  2  2  0
  4  2  1  0
  5  4  1  0
  5  6  1  6
  7  5  1  0
  7  8  2  0
  9 10  1  0
 10 12  1  0
 10 11  2  0
 13 12  1  1
 13 14  1  0
 14  7  1  0
 15 13  1  0
 15 17  1  0
 16 15  2  0
 18 17  1  0
 18 19  1  6
 20 19  1  0
 20 21  2  0
 22 21  1  0
 23 22  1  0
 24 23  2  0
 24 20  1  0
 25 18  1  0
 26 25  2  0
 27 25  1  0
M  END
$$$$
