NNH.pdb
     RDKit          3D

 27 27  0  0  1  0  0  0  0  0999 V2000
   20.5554  -10.6668  -19.8628 N   0  0  0  0  0  0  0  0  0  0  0  0
   21.2405   -9.8025  -20.7316 C   0  0  0  0  0  0  0  0  0  0  0  0
   21.9417  -10.2789  -21.6537 O   0  0  0  0  0  0  0  0  0  0  0  0
   21.1427   -8.3338  -20.5688 C   0  0  0  0  0  0  0  0  0  0  0  0
   20.1487   -7.9526  -19.4888 C   0  0  2  0  0  0  0  0  0  0  0  0
   18.7875   -8.1347  -19.9222 N   0  0  0  0  0  0  0  0  0  0  0  0
   20.3603   -6.5306  -19.1701 C   0  0  0  0  0  0  0  0  0  0  0  0
   20.5400   -5.7088  -20.0978 O   0  0  0  0  0  0  0  0  0  0  0  0
   20.0150   -2.0014  -17.3423 N   0  0  0  0  0  0  0  0  0  0  0  0
   18.9628   -2.6707  -18.0479 C   0  0  0  0  0  0  0  0  0  0  0  0
   17.9819   -2.0190  -18.4866 O   0  0  0  0  0  0  0  0  0  0  0  0
   19.0603   -4.1175  -18.2414 C   0  0  0  0  0  0  0  0  0  0  0  0
   20.3450   -4.6359  -17.6090 C   0  0  2  0  0  0  0  0  0  0  0  0
   20.3678   -6.0533  -17.8348 N   0  0  0  0  0  0  0  0  0  0  0  0
   20.3624   -4.4085  -16.1518 C   0  0  0  0  0  0  0  0  0  0  0  0
   20.2769   -3.2393  -15.6502 O   0  0  0  0  0  0  0  0  0  0  0  0
   20.4754   -5.4841  -15.2379 N   0  0  0  0  0  0  0  0  0  0  0  0
   20.2222   -5.2241  -13.7834 C   0  0  1  0  0  0  0  0  0  0  0  0
   19.3755   -6.3941  -13.3622 C   0  0  0  0  0  0  0  0  0  0  0  0
   19.1171   -6.4952  -11.9246 C   0  0  0  0  0  0  0  0  0  0  0  0
   19.4455   -5.7087  -10.8594 C   0  0  0  0  0  0  0  0  0  0  0  0
   18.8824   -6.2652   -9.7583 N   0  0  0  0  0  0  0  0  0  0  0  0
   18.2138   -7.3711  -10.1054 C   0  0  0  0  0  0  0  0  0  0  0  0
   18.3587   -7.5067  -11.4205 N   0  0  0  0  0  0  0  0  0  0  0  0
   21.5508   -5.3962  -13.0993 C   0  0  0  0  0  0  0  0  0  0  0  0
   21.6098   -5.1477  -11.8727 O   0  0  0  0  0  0  0  0  0  0  0  0
   22.6458   -5.7987  -13.7564 O   0  0  0  0  0  0  0  0  0  0  0  0
  2  1  1  0
  3  2  2  0
  4  2  1  0
  5  4  1  0
  5  6  1  6
  7  5  1  0
  7  8  2  0
  9 10  1  0
 10 12  1  0
 10 11  2  0
 13 12  1  1
 13 14  1  0
 14  7  1  0
 15 13  1  0
 15 17  1  0
 16 15  2  0
 18 17  1  0
 18 19  1  1
 20 19  1  0
 20 21  2  0
 22 21  1  0
 23 22  1  0
 24 23  2  0
 24 20  1  0
 25 18  1  0
 26 25  2  0
 27 25  1  0
M  END
$$$$
