NNH.pdb
     RDKit          3D

 27 27  0  0  1  0  0  0  0  0999 V2000
   21.2440  -13.8576  -18.9344 N   0  0  0  0  0  0  0  0  0  0  0  0
   20.0159  -13.2652  -19.2697 C   0  0  0  0  0  0  0  0  0  0  0  0
   19.3845  -13.6731  -20.2716 O   0  0  0  0  0  0  0  0  0  0  0  0
   19.4600  -12.1634  -18.4513 C   0  0  0  0  0  0  0  0  0  0  0  0
   20.3940  -11.7755  -17.3212 C   0  0  2  0  0  0  0  0  0  0  0  0
   20.3538  -12.7260  -16.2401 N   0  0  0  0  0  0  0  0  0  0  0  0
   19.9612  -10.4618  -16.8161 C   0  0  0  0  0  0  0  0  0  0  0  0
   18.7623  -10.2848  -16.5006 O   0  0  0  0  0  0  0  0  0  0  0  0
   19.2916   -9.0625  -13.8847 N   0  0  0  0  0  0  0  0  0  0  0  0
   20.5340   -8.3690  -13.7158 C   0  0  0  0  0  0  0  0  0  0  0  0
   21.0267   -8.2258  -12.5686 O   0  0  0  0  0  0  0  0  0  0  0  0
   21.2057   -7.8382  -14.9020 C   0  0  0  0  0  0  0  0  0  0  0  0
   20.3736   -8.1375  -16.1418 C   0  0  2  0  0  0  0  0  0  0  0  0
   20.8640   -9.3778  -16.6725 N   0  0  0  0  0  0  0  0  0  0  0  0
   20.5490   -7.1007  -17.1761 C   0  0  0  0  0  0  0  0  0  0  0  0
   21.4390   -7.1972  -18.0842 O   0  0  0  0  0  0  0  0  0  0  0  0
   19.7326   -5.9443  -17.2084 N   0  0  0  0  0  0  0  0  0  0  0  0
   20.0308   -4.8791  -18.2202 C   0  0  1  0  0  0  0  0  0  0  0  0
   18.8417   -3.9627  -18.1228 C   0  0  0  0  0  0  0  0  0  0  0  0
   18.8999   -2.7688  -18.9681 C   0  0  0  0  0  0  0  0  0  0  0  0
   19.7770   -2.3416  -19.9216 C   0  0  0  0  0  0  0  0  0  0  0  0
   19.2919   -1.1794  -20.4246 N   0  0  0  0  0  0  0  0  0  0  0  0
   18.1410   -0.8715  -19.8151 C   0  0  0  0  0  0  0  0  0  0  0  0
   17.9069   -1.8386  -18.9325 N   0  0  0  0  0  0  0  0  0  0  0  0
   21.2023   -4.1105  -17.6726 C   0  0  0  0  0  0  0  0  0  0  0  0
   21.2246   -3.8842  -16.4406 O   0  0  0  0  0  0  0  0  0  0  0  0
   22.1977   -3.6730  -18.4540 O   0  0  0  0  0  0  0  0  0  0  0  0
  2  1  1  0
  3  2  2  0
  4  2  1  0
  5  4  1  0
  5  6  1  1
  7  5  1  0
  7  8  2  0
  9 10  1  0
 10 12  1  0
 10 11  2  0
 13 12  1  1
 13 14  1  0
 14  7  1  0
 15 13  1  0
 15 17  1  0
 16 15  2  0
 18 17  1  0
 18 19  1  1
 20 19  1  0
 20 21  2  0
 22 21  1  0
 23 22  1  0
 24 23  2  0
 24 20  1  0
 25 18  1  0
 26 25  2  0
 27 25  1  0
M  END
$$$$
