NNH.pdb
     RDKit          3D

 27 27  0  0  1  0  0  0  0  0999 V2000
   28.1321  -21.1664  -15.6010 N   0  0  0  0  0  0  0  0  0  0  0  0
   27.8529  -22.3382  -16.3224 C   0  0  0  0  0  0  0  0  0  0  0  0
   28.7966  -23.0337  -16.7635 O   0  0  0  0  0  0  0  0  0  0  0  0
   26.4546  -22.7599  -16.5668 C   0  0  0  0  0  0  0  0  0  0  0  0
   25.4609  -21.7223  -16.0810 C   0  0  2  0  0  0  0  0  0  0  0  0
   25.6385  -21.4203  -14.6842 N   0  0  0  0  0  0  0  0  0  0  0  0
   24.1094  -22.2715  -16.2810 C   0  0  0  0  0  0  0  0  0  0  0  0
   23.7092  -22.5229  -17.4406 O   0  0  0  0  0  0  0  0  0  0  0  0
   23.4259  -26.1292  -14.2551 N   0  0  0  0  0  0  0  0  0  0  0  0
   22.5806  -25.3907  -15.1456 C   0  0  0  0  0  0  0  0  0  0  0  0
   22.5410  -25.6831  -16.3672 O   0  0  0  0  0  0  0  0  0  0  0  0
   21.7739  -24.2990  -14.6001 C   0  0  0  0  0  0  0  0  0  0  0  0
   21.9299  -23.0591  -15.4705 C   0  0  2  0  0  0  0  0  0  0  0  0
   23.2350  -22.5289  -15.1947 N   0  0  0  0  0  0  0  0  0  0  0  0
   20.9376  -22.0246  -15.1237 C   0  0  0  0  0  0  0  0  0  0  0  0
   19.6960  -22.2918  -15.0094 O   0  0  0  0  0  0  0  0  0  0  0  0
   21.3202  -20.6797  -14.9003 N   0  0  0  0  0  0  0  0  0  0  0  0
   20.2596  -19.6744  -14.5657 C   0  0  1  0  0  0  0  0  0  0  0  0
   20.8759  -18.8757  -13.4497 C   0  0  0  0  0  0  0  0  0  0  0  0
   20.8537  -19.5171  -12.1338 C   0  0  0  0  0  0  0  0  0  0  0  0
   20.3763  -20.7142  -11.6865 C   0  0  0  0  0  0  0  0  0  0  0  0
   20.6904  -20.8076  -10.3706 N   0  0  0  0  0  0  0  0  0  0  0  0
   21.3486  -19.7077   -9.9863 C   0  0  0  0  0  0  0  0  0  0  0  0
   21.4457  -18.9277  -11.0592 N   0  0  0  0  0  0  0  0  0  0  0  0
   20.1807  -18.7522  -15.7516 C   0  0  0  0  0  0  0  0  0  0  0  0
   21.0468  -18.8817  -16.6476 O   0  0  0  0  0  0  0  0  0  0  0  0
   19.2286  -17.8180  -15.8678 O   0  0  0  0  0  0  0  0  0  0  0  0
  2  1  1  0
  3  2  2  0
  4  2  1  0
  5  4  1  0
  5  6  1  1
  7  5  1  0
  7  8  2  0
  9 10  1  0
 10 12  1  0
 10 11  2  0
 13 12  1  1
 13 14  1  0
 14  7  1  0
 15 13  1  0
 15 17  1  0
 16 15  2  0
 18 17  1  0
 18 19  1  1
 20 19  1  0
 20 21  2  0
 22 21  1  0
 23 22  1  0
 24 23  2  0
 24 20  1  0
 25 18  1  0
 26 25  2  0
 27 25  1  0
M  END
$$$$
