NNH.pdb
     RDKit          3D

 27 27  0  0  1  0  0  0  0  0999 V2000
   45.8087  -12.4104   -7.2447 N   0  0  0  0  0  0  0  0  0  0  0  0
   44.9312  -11.3692   -7.5874 C   0  0  0  0  0  0  0  0  0  0  0  0
   44.1849  -11.4916   -8.5859 O   0  0  0  0  0  0  0  0  0  0  0  0
   44.8792  -10.1285   -6.7807 C   0  0  0  0  0  0  0  0  0  0  0  0
   43.4771   -9.8423   -6.2786 C   0  0  2  0  0  0  0  0  0  0  0  0
   42.7860  -11.0469   -5.8976 N   0  0  0  0  0  0  0  0  0  0  0  0
   42.7353   -9.1940   -7.3730 C   0  0  0  0  0  0  0  0  0  0  0  0
   43.2512   -8.2306   -7.9843 O   0  0  0  0  0  0  0  0  0  0  0  0
   41.8170  -10.5027  -10.6062 N   0  0  0  0  0  0  0  0  0  0  0  0
   40.4132  -10.6893  -10.3885 C   0  0  0  0  0  0  0  0  0  0  0  0
   39.7834  -11.5612  -11.0384 O   0  0  0  0  0  0  0  0  0  0  0  0
   39.7406   -9.8466   -9.3998 C   0  0  0  0  0  0  0  0  0  0  0  0
   40.7435   -8.8859   -8.7749 C   0  0  2  0  0  0  0  0  0  0  0  0
   41.4428   -9.6271   -7.7638 N   0  0  0  0  0  0  0  0  0  0  0  0
   40.0700   -7.7491   -8.1196 C   0  0  0  0  0  0  0  0  0  0  0  0
   39.5288   -7.8569   -6.9700 O   0  0  0  0  0  0  0  0  0  0  0  0
   39.9931   -6.4788   -8.7403 N   0  0  0  0  0  0  0  0  0  0  0  0
   39.3492   -5.3494   -7.9939 C   0  0  1  0  0  0  0  0  0  0  0  0
   40.3294   -5.0566   -6.8908 C   0  0  0  0  0  0  0  0  0  0  0  0
   40.0697   -3.8328   -6.1304 C   0  0  0  0  0  0  0  0  0  0  0  0
   38.9252   -3.2039   -5.7357 C   0  0  0  0  0  0  0  0  0  0  0  0
   39.2907   -2.1290   -4.9939 N   0  0  0  0  0  0  0  0  0  0  0  0
   40.6252   -2.0707   -4.9141 C   0  0  0  0  0  0  0  0  0  0  0  0
   41.0936   -3.1063   -5.6047 N   0  0  0  0  0  0  0  0  0  0  0  0
   39.3930   -4.1669   -8.9228 C   0  0  0  0  0  0  0  0  0  0  0  0
   39.9745   -4.3129  -10.0229 O   0  0  0  0  0  0  0  0  0  0  0  0
   38.8380   -2.9899   -8.6073 O   0  0  0  0  0  0  0  0  0  0  0  0
  2  1  1  0
  3  2  2  0
  4  2  1  0
  5  4  1  0
  5  6  1  6
  7  5  1  0
  7  8  2  0
  9 10  1  0
 10 12  1  0
 10 11  2  0
 13 12  1  1
 13 14  1  0
 14  7  1  0
 15 13  1  0
 15 17  1  0
 16 15  2  0
 18 17  1  0
 18 19  1  1
 20 19  1  0
 20 21  2  0
 22 21  1  0
 23 22  1  0
 24 23  2  0
 24 20  1  0
 25 18  1  0
 26 25  2  0
 27 25  1  0
M  END
$$$$
