HNI.pdb
     RDKit          3D

 27 27  0  0  1  0  0  0  0  0999 V2000
   14.9584  -14.4064  -16.2451 N   0  0  0  0  0  0  0  0  0  0  0  0
   16.1708  -13.7672  -15.7673 C   0  0  1  0  0  0  0  0  0  0  0  0
   17.3193  -14.3505  -16.6031 C   0  0  0  0  0  0  0  0  0  0  0  0
   17.5494  -15.7694  -16.2939 C   0  0  0  0  0  0  0  0  0  0  0  0
   17.8082  -16.3456  -15.0739 C   0  0  0  0  0  0  0  0  0  0  0  0
   17.9449  -17.6660  -15.2945 N   0  0  0  0  0  0  0  0  0  0  0  0
   17.7824  -17.9284  -16.5931 C   0  0  0  0  0  0  0  0  0  0  0  0
   17.5341  -16.7508  -17.2316 N   0  0  0  0  0  0  0  0  0  0  0  0
   16.1665  -12.3175  -16.0300 C   0  0  0  0  0  0  0  0  0  0  0  0
   15.3466  -11.8435  -16.8380 O   0  0  0  0  0  0  0  0  0  0  0  0
   16.6608   -7.1311  -15.6209 N   0  0  0  0  0  0  0  0  0  0  0  0
   15.6646   -8.0718  -15.3399 C   0  0  0  0  0  0  0  0  0  0  0  0
   14.5013   -7.5532  -15.0957 O   0  0  0  0  0  0  0  0  0  0  0  0
   15.7268   -9.5220  -15.2805 C   0  0  0  0  0  0  0  0  0  0  0  0
   17.1081  -10.0496  -15.4927 C   0  0  2  0  0  0  0  0  0  0  0  0
   17.0970  -11.4842  -15.3574 N   0  0  0  0  0  0  0  0  0  0  0  0
   18.0486   -9.3550  -14.6170 C   0  0  0  0  0  0  0  0  0  0  0  0
   18.0624   -9.3895  -13.3584 O   0  0  0  0  0  0  0  0  0  0  0  0
   23.6142   -9.8271  -15.9996 C   0  0  0  0  0  0  0  0  0  0  0  0
   22.7633   -8.9325  -15.1049 C   0  0  0  0  0  0  0  0  0  0  0  0
   21.3404   -9.0835  -15.5337 C   0  0  2  0  0  0  0  0  0  0  0  0
   21.1165   -8.7016  -16.9718 C   0  0  0  0  0  0  0  0  0  0  0  0
   20.3610   -8.3507  -14.6410 C   0  0  2  0  0  0  0  0  0  0  0  0
   19.0522   -8.5591  -15.2362 N   0  0  0  0  0  0  0  0  0  0  0  0
   20.6275   -6.8889  -14.6650 C   0  0  0  0  0  0  0  0  0  0  0  0
   19.8971   -5.9833  -15.4272 O   0  0  0  0  0  0  0  0  0  0  0  0
   21.5647   -6.3605  -13.9726 O   0  0  0  0  0  0  0  0  0  0  0  0
  2  1  1  6
  2  3  1  0
  4  5  2  0
  4  3  1  0
  6  5  1  0
  7  8  2  0
  7  6  1  0
  8  4  1  0
  9 10  2  0
  9  2  1  0
 12 11  1  0
 12 14  1  0
 13 12  2  0
 15 14  1  1
 15 16  1  0
 16  9  1  0
 17 18  2  0
 17 15  1  0
 20 21  1  0
 20 19  1  0
 21 22  1  6
 23 21  1  0
 23 24  1  6
 24 17  1  0
 25 23  1  0
 26 25  1  0
 27 25  2  0
M  END
$$$$
