HNI.pdb
     RDKit          3D

 27 27  0  0  1  0  0  0  0  0999 V2000
   19.3024  -20.5191  -17.3891 N   0  0  0  0  0  0  0  0  0  0  0  0
   19.6323  -19.8430  -16.1478 C   0  0  1  0  0  0  0  0  0  0  0  0
   19.5679  -18.3390  -16.4502 C   0  0  0  0  0  0  0  0  0  0  0  0
   20.6934  -17.9057  -17.2914 C   0  0  0  0  0  0  0  0  0  0  0  0
   21.7705  -18.6425  -17.7208 C   0  0  0  0  0  0  0  0  0  0  0  0
   22.5294  -17.8156  -18.4632 N   0  0  0  0  0  0  0  0  0  0  0  0
   21.9693  -16.6050  -18.5101 C   0  0  0  0  0  0  0  0  0  0  0  0
   20.8190  -16.6459  -17.7811 N   0  0  0  0  0  0  0  0  0  0  0  0
   18.6260  -20.0952  -15.1016 C   0  0  0  0  0  0  0  0  0  0  0  0
   17.5712  -19.4341  -15.0939 O   0  0  0  0  0  0  0  0  0  0  0  0
   15.5713  -22.1354  -11.4413 N   0  0  0  0  0  0  0  0  0  0  0  0
   15.5863  -22.1986  -12.8384 C   0  0  0  0  0  0  0  0  0  0  0  0
   14.4653  -22.5872  -13.3622 O   0  0  0  0  0  0  0  0  0  0  0  0
   16.6471  -21.8996  -13.7847 C   0  0  0  0  0  0  0  0  0  0  0  0
   17.9095  -21.4613  -13.1169 C   0  0  2  0  0  0  0  0  0  0  0  0
   18.8750  -21.0882  -14.1195 N   0  0  0  0  0  0  0  0  0  0  0  0
   18.3601  -22.4857  -12.1781 C   0  0  0  0  0  0  0  0  0  0  0  0
   18.5902  -23.6944  -12.4451 O   0  0  0  0  0  0  0  0  0  0  0  0
   21.5103  -20.2075   -8.4938 C   0  0  0  0  0  0  0  0  0  0  0  0
   20.9370  -21.1394   -9.5557 C   0  0  0  0  0  0  0  0  0  0  0  0
   19.9241  -22.0145   -8.8927 C   0  0  2  0  0  0  0  0  0  0  0  0
   20.4881  -22.7926   -7.7348 C   0  0  0  0  0  0  0  0  0  0  0  0
   19.2137  -22.9471   -9.8511 C   0  0  2  0  0  0  0  0  0  0  0  0
   18.5628  -22.0896  -10.8267 N   0  0  0  0  0  0  0  0  0  0  0  0
   18.1451  -23.7025   -9.1469 C   0  0  0  0  0  0  0  0  0  0  0  0
   16.8247  -23.2736   -9.0611 O   0  0  0  0  0  0  0  0  0  0  0  0
   18.3768  -24.8171   -8.5631 O   0  0  0  0  0  0  0  0  0  0  0  0
  2  1  1  6
  2  3  1  0
  4  5  2  0
  4  3  1  0
  6  5  1  0
  7  8  2  0
  7  6  1  0
  8  4  1  0
  9 10  2  0
  9  2  1  0
 12 11  1  0
 12 14  1  0
 13 12  2  0
 15 14  1  6
 15 16  1  0
 16  9  1  0
 17 18  2  0
 17 15  1  0
 20 21  1  0
 20 19  1  0
 21 22  1  1
 23 21  1  0
 23 24  1  6
 24 17  1  0
 25 23  1  0
 26 25  1  0
 27 25  2  0
M  END
$$$$
