HNI.pdb
     RDKit          3D

 27 27  0  0  1  0  0  0  0  0999 V2000
   20.8773  -26.0220  -15.5641 N   0  0  0  0  0  0  0  0  0  0  0  0
   21.3022  -26.0981  -14.1783 C   0  0  1  0  0  0  0  0  0  0  0  0
   22.0964  -24.8129  -13.9037 C   0  0  0  0  0  0  0  0  0  0  0  0
   23.3831  -24.8073  -14.6152 C   0  0  0  0  0  0  0  0  0  0  0  0
   24.5532  -25.4373  -14.2669 C   0  0  0  0  0  0  0  0  0  0  0  0
   25.4495  -25.1390  -15.2252 N   0  0  0  0  0  0  0  0  0  0  0  0
   24.8852  -24.3549  -16.1463 C   0  0  0  0  0  0  0  0  0  0  0  0
   23.5914  -24.1386  -15.7780 N   0  0  0  0  0  0  0  0  0  0  0  0
   20.1570  -26.0794  -13.2516 C   0  0  0  0  0  0  0  0  0  0  0  0
   19.2273  -25.2738  -13.4427 O   0  0  0  0  0  0  0  0  0  0  0  0
   16.9808  -27.6414   -9.1957 N   0  0  0  0  0  0  0  0  0  0  0  0
   18.2259  -28.2750   -9.2642 C   0  0  0  0  0  0  0  0  0  0  0  0
   18.4166  -29.1672   -8.3426 O   0  0  0  0  0  0  0  0  0  0  0  0
   19.3262  -28.0940  -10.1954 C   0  0  0  0  0  0  0  0  0  0  0  0
   19.0829  -26.9864  -11.1679 C   0  0  2  0  0  0  0  0  0  0  0  0
   20.1316  -26.9803  -12.1562 N   0  0  0  0  0  0  0  0  0  0  0  0
   18.9011  -25.7251  -10.4539 C   0  0  0  0  0  0  0  0  0  0  0  0
   19.7501  -25.1522   -9.7216 O   0  0  0  0  0  0  0  0  0  0  0  0
   18.0720  -20.4950  -11.9195 C   0  0  0  0  0  0  0  0  0  0  0  0
   17.7720  -21.3577  -10.6985 C   0  0  0  0  0  0  0  0  0  0  0  0
   17.6559  -22.7734  -11.1605 C   0  0  2  0  0  0  0  0  0  0  0  0
   16.6429  -22.9517  -12.2589 C   0  0  0  0  0  0  0  0  0  0  0  0
   17.3859  -23.7533  -10.0381 C   0  0  2  0  0  0  0  0  0  0  0  0
   17.6455  -25.0706  -10.5931 N   0  0  0  0  0  0  0  0  0  0  0  0
   15.9527  -23.7154   -9.6469 C   0  0  0  0  0  0  0  0  0  0  0  0
   15.0523  -24.7416   -9.9128 O   0  0  0  0  0  0  0  0  0  0  0  0
   15.4463  -22.7161   -9.0288 O   0  0  0  0  0  0  0  0  0  0  0  0
  2  1  1  6
  2  3  1  0
  4  5  2  0
  4  3  1  0
  6  5  1  0
  7  8  2  0
  7  6  1  0
  8  4  1  0
  9 10  2  0
  9  2  1  0
 12 11  1  0
 12 14  1  0
 13 12  2  0
 15 14  1  1
 15 16  1  0
 16  9  1  0
 17 18  2  0
 17 15  1  0
 20 21  1  0
 20 19  1  0
 21 22  1  6
 23 21  1  0
 23 24  1  6
 24 17  1  0
 25 23  1  0
 26 25  1  0
 27 25  2  0
M  END
$$$$
