HNI.pdb
     RDKit          3D

 27 27  0  0  1  0  0  0  0  0999 V2000
   29.0450  -18.2509  -18.4770 N   0  0  0  0  0  0  0  0  0  0  0  0
   28.2197  -19.4220  -18.2445 C   0  0  1  0  0  0  0  0  0  0  0  0
   29.1524  -20.4929  -17.6605 C   0  0  0  0  0  0  0  0  0  0  0  0
   29.9694  -21.1291  -18.7044 C   0  0  0  0  0  0  0  0  0  0  0  0
   29.9304  -20.9228  -20.0621 C   0  0  0  0  0  0  0  0  0  0  0  0
   30.8632  -21.7301  -20.5997 N   0  0  0  0  0  0  0  0  0  0  0  0
   31.4736  -22.4232  -19.6361 C   0  0  0  0  0  0  0  0  0  0  0  0
   30.9247  -22.0576  -18.4439 N   0  0  0  0  0  0  0  0  0  0  0  0
   27.1893  -19.1724  -17.2215 C   0  0  0  0  0  0  0  0  0  0  0  0
   27.4945  -18.5619  -16.1804 O   0  0  0  0  0  0  0  0  0  0  0  0
   22.3842  -18.5953  -14.9926 N   0  0  0  0  0  0  0  0  0  0  0  0
   22.4241  -18.7801  -16.3784 C   0  0  0  0  0  0  0  0  0  0  0  0
   21.2788  -18.6219  -16.9661 O   0  0  0  0  0  0  0  0  0  0  0  0
   23.5339  -19.1162  -17.2535 C   0  0  0  0  0  0  0  0  0  0  0  0
   24.7920  -19.4092  -16.5033 C   0  0  2  0  0  0  0  0  0  0  0  0
   25.8648  -19.6317  -17.4394 N   0  0  0  0  0  0  0  0  0  0  0  0
   24.5665  -20.4965  -15.5542 C   0  0  0  0  0  0  0  0  0  0  0  0
   24.4003  -21.7122  -15.8367 O   0  0  0  0  0  0  0  0  0  0  0  0
   26.2367  -21.1132   -9.7950 C   0  0  0  0  0  0  0  0  0  0  0  0
   25.2883  -21.6769  -10.8474 C   0  0  0  0  0  0  0  0  0  0  0  0
   25.3465  -20.7780  -12.0390 C   0  0  2  0  0  0  0  0  0  0  0  0
   25.1884  -19.3238  -11.6860 C   0  0  0  0  0  0  0  0  0  0  0  0
   24.3678  -21.1592  -13.1298 C   0  0  2  0  0  0  0  0  0  0  0  0
   24.5299  -20.1603  -14.1723 N   0  0  0  0  0  0  0  0  0  0  0  0
   22.9702  -21.0561  -12.6352 C   0  0  0  0  0  0  0  0  0  0  0  0
   22.0878  -20.0515  -13.0182 O   0  0  0  0  0  0  0  0  0  0  0  0
   22.4809  -21.9014  -11.8088 O   0  0  0  0  0  0  0  0  0  0  0  0
  2  1  1  1
  2  3  1  0
  4  5  2  0
  4  3  1  0
  6  5  1  0
  7  8  2  0
  7  6  1  0
  8  4  1  0
  9 10  2  0
  9  2  1  0
 12 11  1  0
 12 14  1  0
 13 12  2  0
 15 14  1  6
 15 16  1  0
 16  9  1  0
 17 18  2  0
 17 15  1  0
 20 21  1  0
 20 19  1  0
 21 22  1  1
 23 21  1  0
 23 24  1  6
 24 17  1  0
 25 23  1  0
 26 25  1  0
 27 25  2  0
M  END
$$$$
