HNI.pdb
     RDKit          3D

 27 27  0  0  1  0  0  0  0  0999 V2000
   21.9556  -11.9077  -18.8549 N   0  0  0  0  0  0  0  0  0  0  0  0
   21.1012  -10.7357  -18.9100 C   0  0  1  0  0  0  0  0  0  0  0  0
   19.7985  -11.1224  -18.1950 C   0  0  0  0  0  0  0  0  0  0  0  0
   18.9767  -12.0250  -19.0147 C   0  0  0  0  0  0  0  0  0  0  0  0
   17.9716  -11.7013  -19.8935 C   0  0  0  0  0  0  0  0  0  0  0  0
   17.5191  -12.8617  -20.4030 N   0  0  0  0  0  0  0  0  0  0  0  0
   18.1989  -13.8835  -19.8784 C   0  0  0  0  0  0  0  0  0  0  0  0
   19.1150  -13.3754  -19.0073 N   0  0  0  0  0  0  0  0  0  0  0  0
   21.6678   -9.6077  -18.1502 C   0  0  0  0  0  0  0  0  0  0  0  0
   22.0546   -9.7893  -16.9809 O   0  0  0  0  0  0  0  0  0  0  0  0
   24.5061   -7.4383  -20.0047 N   0  0  0  0  0  0  0  0  0  0  0  0
   23.6457   -6.3374  -19.9416 C   0  0  0  0  0  0  0  0  0  0  0  0
   23.9168   -5.4045  -20.8007 O   0  0  0  0  0  0  0  0  0  0  0  0
   22.5083   -6.0778  -19.0760 C   0  0  0  0  0  0  0  0  0  0  0  0
   22.2774   -7.1700  -18.0833 C   0  0  2  0  0  0  0  0  0  0  0  0
   21.7639   -8.3321  -18.7633 N   0  0  0  0  0  0  0  0  0  0  0  0
   21.4469   -6.6807  -16.9857 C   0  0  0  0  0  0  0  0  0  0  0  0
   20.2048   -6.4778  -17.0219 O   0  0  0  0  0  0  0  0  0  0  0  0
   20.8161   -9.4284  -13.0661 C   0  0  0  0  0  0  0  0  0  0  0  0
   20.6602   -8.3241  -14.1058 C   0  0  0  0  0  0  0  0  0  0  0  0
   21.3957   -7.1236  -13.6067 C   0  0  2  0  0  0  0  0  0  0  0  0
   20.9378   -6.6787  -12.2441 C   0  0  0  0  0  0  0  0  0  0  0  0
   21.3707   -5.9571  -14.5719 C   0  0  2  0  0  0  0  0  0  0  0  0
   22.0946   -6.4036  -15.7497 N   0  0  0  0  0  0  0  0  0  0  0  0
   22.1153   -4.8001  -14.0101 C   0  0  0  0  0  0  0  0  0  0  0  0
   21.5230   -3.7946  -13.2534 O   0  0  0  0  0  0  0  0  0  0  0  0
   23.3732   -4.6527  -14.1912 O   0  0  0  0  0  0  0  0  0  0  0  0
  2  1  1  1
  2  3  1  0
  4  5  2  0
  4  3  1  0
  6  5  1  0
  7  8  2  0
  7  6  1  0
  8  4  1  0
  9 10  2  0
  9  2  1  0
 12 11  1  0
 12 14  1  0
 13 12  2  0
 15 14  1  6
 15 16  1  0
 16  9  1  0
 17 18  2  0
 17 15  1  0
 20 21  1  0
 20 19  1  0
 21 22  1  1
 23 21  1  0
 23 24  1  6
 24 17  1  0
 25 23  1  0
 26 25  1  0
 27 25  2  0
M  END
$$$$
