HNI.pdb
     RDKit          3D

 27 27  0  0  1  0  0  0  0  0999 V2000
   27.7672  -21.9545  -16.7348 N   0  0  0  0  0  0  0  0  0  0  0  0
   27.6492  -20.9574  -15.6866 C   0  0  1  0  0  0  0  0  0  0  0  0
   27.0977  -19.6925  -16.3602 C   0  0  0  0  0  0  0  0  0  0  0  0
   28.1166  -19.0299  -17.1877 C   0  0  0  0  0  0  0  0  0  0  0  0
   29.0761  -18.1268  -16.7988 C   0  0  0  0  0  0  0  0  0  0  0  0
   29.7710  -17.8052  -17.9054 N   0  0  0  0  0  0  0  0  0  0  0  0
   29.2834  -18.4680  -18.9563 C   0  0  0  0  0  0  0  0  0  0  0  0
   28.2472  -19.2389  -18.5225 N   0  0  0  0  0  0  0  0  0  0  0  0
   26.6578  -21.3465  -14.6687 C   0  0  0  0  0  0  0  0  0  0  0  0
   25.6677  -22.0225  -15.0044 O   0  0  0  0  0  0  0  0  0  0  0  0
   24.1374  -21.3774   -9.9122 N   0  0  0  0  0  0  0  0  0  0  0  0
   25.4515  -20.8986   -9.8992 C   0  0  0  0  0  0  0  0  0  0  0  0
   25.9076  -20.6381   -8.7135 O   0  0  0  0  0  0  0  0  0  0  0  0
   26.3759  -20.6512  -10.9922 C   0  0  0  0  0  0  0  0  0  0  0  0
   25.8130  -21.0340  -12.3219 C   0  0  2  0  0  0  0  0  0  0  0  0
   26.8473  -20.9449  -13.3214 N   0  0  0  0  0  0  0  0  0  0  0  0
   24.6147  -20.2472  -12.6029 C   0  0  0  0  0  0  0  0  0  0  0  0
   24.5335  -18.9909  -12.6220 O   0  0  0  0  0  0  0  0  0  0  0  0
   20.5828  -19.9120  -16.6095 C   0  0  0  0  0  0  0  0  0  0  0  0
   20.6387  -19.7972  -15.0901 C   0  0  0  0  0  0  0  0  0  0  0  0
   21.9204  -20.4148  -14.6351 C   0  0  2  0  0  0  0  0  0  0  0  0
   22.0667  -21.8492  -15.0656 C   0  0  0  0  0  0  0  0  0  0  0  0
   22.1527  -20.2917  -13.1438 C   0  0  2  0  0  0  0  0  0  0  0  0
   23.4162  -20.9602  -12.8845 N   0  0  0  0  0  0  0  0  0  0  0  0
   21.1033  -21.0268  -12.3907 C   0  0  0  0  0  0  0  0  0  0  0  0
   21.2720  -22.3121  -11.8867 O   0  0  0  0  0  0  0  0  0  0  0  0
   19.9554  -20.5138  -12.1543 O   0  0  0  0  0  0  0  0  0  0  0  0
  2  1  1  6
  2  3  1  0
  4  5  2  0
  4  3  1  0
  6  5  1  0
  7  8  2  0
  7  6  1  0
  8  4  1  0
  9 10  2  0
  9  2  1  0
 12 11  1  0
 12 14  1  0
 13 12  2  0
 15 14  1  1
 15 16  1  0
 16  9  1  0
 17 18  2  0
 17 15  1  0
 20 21  1  0
 20 19  1  0
 21 22  1  1
 23 21  1  0
 23 24  1  6
 24 17  1  0
 25 23  1  0
 26 25  1  0
 27 25  2  0
M  END
$$$$
