HNI.pdb
     RDKit          3D

 27 27  0  0  1  0  0  0  0  0999 V2000
   23.3598  -23.4193  -17.9797 N   0  0  0  0  0  0  0  0  0  0  0  0
   24.5321  -24.2161  -17.6673 C   0  0  1  0  0  0  0  0  0  0  0  0
   25.3704  -24.2651  -18.9529 C   0  0  0  0  0  0  0  0  0  0  0  0
   24.5447  -24.5813  -20.1277 C   0  0  0  0  0  0  0  0  0  0  0  0
   23.9793  -23.7144  -21.0312 C   0  0  0  0  0  0  0  0  0  0  0  0
   23.3184  -24.4708  -21.9267 N   0  0  0  0  0  0  0  0  0  0  0  0
   23.4509  -25.7621  -21.6158 C   0  0  0  0  0  0  0  0  0  0  0  0
   24.2162  -25.8470  -20.4918 N   0  0  0  0  0  0  0  0  0  0  0  0
   25.3787  -23.5705  -16.6490 C   0  0  0  0  0  0  0  0  0  0  0  0
   26.4077  -24.1478  -16.2519 O   0  0  0  0  0  0  0  0  0  0  0  0
   28.2358  -19.8937  -13.8931 N   0  0  0  0  0  0  0  0  0  0  0  0
   26.9440  -19.6782  -14.3841 C   0  0  0  0  0  0  0  0  0  0  0  0
   26.3054  -18.7189  -13.7892 O   0  0  0  0  0  0  0  0  0  0  0  0
   26.2137  -20.3511  -15.4444 C   0  0  0  0  0  0  0  0  0  0  0  0
   25.6739  -21.6782  -15.0210 C   0  0  2  0  0  0  0  0  0  0  0  0
   25.0079  -22.3005  -16.1371 N   0  0  0  0  0  0  0  0  0  0  0  0
   24.8544  -21.5250  -13.8215 C   0  0  0  0  0  0  0  0  0  0  0  0
   23.6018  -21.4039  -13.7830 O   0  0  0  0  0  0  0  0  0  0  0  0
   26.4651  -20.4145   -7.9980 C   0  0  0  0  0  0  0  0  0  0  0  0
   25.3368  -20.9274   -8.8862 C   0  0  0  0  0  0  0  0  0  0  0  0
   25.8830  -21.0869  -10.2673 C   0  0  2  0  0  0  0  0  0  0  0  0
   26.7198  -19.9161  -10.7069 C   0  0  0  0  0  0  0  0  0  0  0  0
   24.8213  -21.3876  -11.3043 C   0  0  2  0  0  0  0  0  0  0  0  0
   25.5273  -21.5104  -12.5680 N   0  0  0  0  0  0  0  0  0  0  0  0
   23.8817  -20.2436  -11.4346 C   0  0  0  0  0  0  0  0  0  0  0  0
   22.7470  -20.0828  -10.6464 O   0  0  0  0  0  0  0  0  0  0  0  0
   24.0603  -19.3161  -12.2976 O   0  0  0  0  0  0  0  0  0  0  0  0
  2  1  1  6
  2  3  1  0
  4  5  2  0
  4  3  1  0
  6  5  1  0
  7  8  2  0
  7  6  1  0
  8  4  1  0
  9 10  2  0
  9  2  1  0
 12 11  1  0
 12 14  1  0
 13 12  2  0
 15 14  1  6
 15 16  1  0
 16  9  1  0
 17 18  2  0
 17 15  1  0
 20 21  1  0
 20 19  1  0
 21 22  1  6
 23 21  1  0
 23 24  1  6
 24 17  1  0
 25 23  1  0
 26 25  1  0
 27 25  2  0
M  END
$$$$
