NCM.pdb
     RDKit          3D

 23 22  0  0  1  0  0  0  0  0999 V2000
    8.0612  -12.3050   18.1470 N   0  0  0  0  0  0  0  0  0  0  0  0
    7.9367  -13.6370   17.6801 C   0  0  0  0  0  0  0  0  0  0  0  0
    8.3836  -13.9264   16.5214 O   0  0  0  0  0  0  0  0  0  0  0  0
    7.3084  -14.7239   18.4744 C   0  0  0  0  0  0  0  0  0  0  0  0
    8.3429  -15.2800   19.4307 C   0  0  2  0  0  0  0  0  0  0  0  0
    8.7635  -16.5865   18.9706 N   0  0  0  0  0  0  0  0  0  0  0  0
    7.7822  -15.3930   20.8005 C   0  0  0  0  0  0  0  0  0  0  0  0
    7.2392  -14.4038   21.3668 O   0  0  0  0  0  0  0  0  0  0  0  0
    7.8699  -16.6397   21.4613 N   0  0  0  0  0  0  0  0  0  0  0  0
    7.2718  -16.8872   22.7815 C   0  0  1  0  0  0  0  0  0  0  0  0
    6.8914  -18.3533   22.8821 C   0  0  0  0  0  0  0  0  0  0  0  0
    6.4193  -18.7356   24.5727 S   0  0  0  0  0  0  0  0  0  0  0  0
    8.2799  -16.4776   23.7751 C   0  0  0  0  0  0  0  0  0  0  0  0
    9.5148  -16.8058   23.6216 O   0  0  0  0  0  0  0  0  0  0  0  0
    6.0116  -10.8051   26.0544 C   0  0  0  0  0  0  0  0  0  0  0  0
    7.0955  -11.9472   26.9492 S   0  0  0  0  0  0  0  0  0  0  0  0
    7.6568  -13.3014   25.8838 C   0  0  0  0  0  0  0  0  0  0  0  0
    8.5681  -14.1839   26.6685 C   0  0  0  0  0  0  0  0  0  0  0  0
    9.0293  -15.3994   25.9124 C   0  0  2  0  0  0  0  0  0  0  0  0
    7.9870  -15.7251   24.9210 N   0  0  0  0  0  0  0  0  0  0  0  0
    9.2503  -16.5777   26.7490 C   0  0  0  0  0  0  0  0  0  0  0  0
   10.3336  -16.7322   27.6044 O   0  0  0  0  0  0  0  0  0  0  0  0
    8.4371  -17.5374   26.7279 O   0  0  0  0  0  0  0  0  0  0  0  0
  1  2  1  0
  2  4  1  0
  2  3  2  0
  4  5  1  0
  5  7  1  0
  5  6  1  6
  7  9  1  0
  8  7  2  0
  9 10  1  0
 10 11  1  6
 10 13  1  0
 11 12  1  0
 13 20  1  0
 13 14  2  0
 16 15  1  0
 16 17  1  0
 17 18  1  0
 19 18  1  1
 20 19  1  0
 21 19  1  0
 21 22  1  0
 23 21  2  0
M  END
$$$$
