NCM.pdb
     RDKit          3D

 23 22  0  0  1  0  0  0  0  0999 V2000
    7.4549  -14.0241   14.9086 N   0  0  0  0  0  0  0  0  0  0  0  0
    8.2081  -13.6849   16.0597 C   0  0  0  0  0  0  0  0  0  0  0  0
    9.4411  -13.3901   15.9225 O   0  0  0  0  0  0  0  0  0  0  0  0
    7.6340  -13.6538   17.4296 C   0  0  0  0  0  0  0  0  0  0  0  0
    8.4934  -14.5162   18.3305 C   0  0  2  0  0  0  0  0  0  0  0  0
    8.7484  -15.7821   17.6763 N   0  0  0  0  0  0  0  0  0  0  0  0
    7.8143  -14.7563   19.6284 C   0  0  0  0  0  0  0  0  0  0  0  0
    7.3524  -13.7991   20.3100 O   0  0  0  0  0  0  0  0  0  0  0  0
    7.6950  -16.0880   20.0879 N   0  0  0  0  0  0  0  0  0  0  0  0
    6.9488  -16.4498   21.3019 C   0  0  1  0  0  0  0  0  0  0  0  0
    6.7065  -17.9484   21.3020 C   0  0  0  0  0  0  0  0  0  0  0  0
    8.2721  -18.8088   21.4910 S   0  0  0  0  0  0  0  0  0  0  0  0
    7.7644  -15.9917   22.4403 C   0  0  0  0  0  0  0  0  0  0  0  0
    9.0365  -15.8446   22.3111 O   0  0  0  0  0  0  0  0  0  0  0  0
    7.4208  -11.1197   28.5658 C   0  0  0  0  0  0  0  0  0  0  0  0
    6.6481  -12.1371   27.2822 S   0  0  0  0  0  0  0  0  0  0  0  0
    7.8463  -13.2586   26.5137 C   0  0  0  0  0  0  0  0  0  0  0  0
    7.1759  -13.9860   25.3972 C   0  0  0  0  0  0  0  0  0  0  0  0
    8.0548  -15.0074   24.7292 C   0  0  2  0  0  0  0  0  0  0  0  0
    7.2410  -15.6886   23.7049 N   0  0  0  0  0  0  0  0  0  0  0  0
    8.5925  -16.0204   25.6357 C   0  0  0  0  0  0  0  0  0  0  0  0
    9.8024  -15.8998   26.3070 O   0  0  0  0  0  0  0  0  0  0  0  0
    7.9570  -17.0841   25.8535 O   0  0  0  0  0  0  0  0  0  0  0  0
  1  2  1  0
  2  4  1  0
  2  3  2  0
  4  5  1  0
  5  7  1  0
  5  6  1  6
  7  9  1  0
  8  7  2  0
  9 10  1  0
 10 11  1  1
 10 13  1  0
 11 12  1  0
 13 20  1  0
 13 14  2  0
 16 15  1  0
 16 17  1  0
 17 18  1  0
 19 18  1  1
 20 19  1  0
 21 19  1  0
 21 22  1  0
 23 21  2  0
M  END
$$$$
