NCM.pdb
     RDKit          3D

 23 22  0  0  1  0  0  0  0  0999 V2000
    3.2142  -20.3190   19.5866 N   0  0  0  0  0  0  0  0  0  0  0  0
    3.1202  -19.2312   20.4896 C   0  0  0  0  0  0  0  0  0  0  0  0
    2.0791  -18.4954   20.4592 O   0  0  0  0  0  0  0  0  0  0  0  0
    4.1779  -18.8986   21.4784 C   0  0  0  0  0  0  0  0  0  0  0  0
    5.2043  -18.0120   20.8042 C   0  0  2  0  0  0  0  0  0  0  0  0
    5.4661  -18.5142   19.4720 N   0  0  0  0  0  0  0  0  0  0  0  0
    6.4678  -17.9885   21.5829 C   0  0  0  0  0  0  0  0  0  0  0  0
    6.8253  -18.9811   22.2765 O   0  0  0  0  0  0  0  0  0  0  0  0
    7.2672  -16.8236   21.5310 N   0  0  0  0  0  0  0  0  0  0  0  0
    8.5663  -16.7160   22.2109 C   0  0  1  0  0  0  0  0  0  0  0  0
    9.6217  -16.3176   21.1951 C   0  0  0  0  0  0  0  0  0  0  0  0
   11.2247  -16.2250   22.0008 S   0  0  0  0  0  0  0  0  0  0  0  0
    8.3891  -15.7241   23.2861 C   0  0  0  0  0  0  0  0  0  0  0  0
    8.1536  -14.4913   23.0009 O   0  0  0  0  0  0  0  0  0  0  0  0
    7.2336  -10.9117   26.8398 C   0  0  0  0  0  0  0  0  0  0  0  0
    6.0981  -12.2617   26.4302 S   0  0  0  0  0  0  0  0  0  0  0  0
    6.9015  -13.5136   25.3953 C   0  0  0  0  0  0  0  0  0  0  0  0
    7.6429  -14.4616   26.2766 C   0  0  0  0  0  0  0  0  0  0  0  0
    8.8847  -15.0273   25.6442 C   0  0  2  0  0  0  0  0  0  0  0  0
    8.4575  -16.0314   24.6521 N   0  0  0  0  0  0  0  0  0  0  0  0
    9.7966  -15.6732   26.5868 C   0  0  0  0  0  0  0  0  0  0  0  0
   10.6150  -14.9849   27.4731 O   0  0  0  0  0  0  0  0  0  0  0  0
    9.8809  -16.9275   26.6358 O   0  0  0  0  0  0  0  0  0  0  0  0
  1  2  1  0
  2  4  1  0
  2  3  2  0
  4  5  1  0
  5  7  1  0
  5  6  1  6
  7  9  1  0
  8  7  2  0
  9 10  1  0
 10 11  1  6
 10 13  1  0
 11 12  1  0
 13 20  1  0
 13 14  2  0
 16 15  1  0
 16 17  1  0
 17 18  1  0
 19 18  1  1
 20 19  1  0
 21 19  1  0
 21 22  1  0
 23 21  2  0
M  END
$$$$
