NCM.pdb
     RDKit          3D

 23 22  0  0  1  0  0  0  0  0999 V2000
   10.7936  -16.5299   16.7541 N   0  0  0  0  0  0  0  0  0  0  0  0
   10.9749  -16.3914   18.1525 C   0  0  0  0  0  0  0  0  0  0  0  0
   12.1616  -16.3554   18.6178 O   0  0  0  0  0  0  0  0  0  0  0  0
    9.8475  -16.2851   19.1141 C   0  0  0  0  0  0  0  0  0  0  0  0
   10.0617  -17.2980   20.2196 C   0  0  2  0  0  0  0  0  0  0  0  0
    9.9737  -18.6329   19.6663 N   0  0  0  0  0  0  0  0  0  0  0  0
    9.0409  -17.1341   21.2847 C   0  0  0  0  0  0  0  0  0  0  0  0
    7.8580  -16.7904   21.0074 O   0  0  0  0  0  0  0  0  0  0  0  0
    9.4239  -17.3725   22.6245 N   0  0  0  0  0  0  0  0  0  0  0  0
    8.4947  -17.2395   23.7561 C   0  0  1  0  0  0  0  0  0  0  0  0
    8.0068  -18.6200   24.1568 C   0  0  0  0  0  0  0  0  0  0  0  0
    6.9431  -18.4850   25.5982 S   0  0  0  0  0  0  0  0  0  0  0  0
    9.2409  -16.5526   24.8250 C   0  0  0  0  0  0  0  0  0  0  0  0
   10.4891  -16.8048   25.0119 O   0  0  0  0  0  0  0  0  0  0  0  0
    6.7366  -10.6779   25.2641 C   0  0  0  0  0  0  0  0  0  0  0  0
    6.8646  -12.1700   26.2824 S   0  0  0  0  0  0  0  0  0  0  0  0
    8.5919  -12.6603   26.5268 C   0  0  0  0  0  0  0  0  0  0  0  0
    8.6275  -13.8905   27.3698 C   0  0  0  0  0  0  0  0  0  0  0  0
    9.4565  -14.9998   26.7832 C   0  0  2  0  0  0  0  0  0  0  0  0
    8.6745  -15.6048   25.6888 N   0  0  0  0  0  0  0  0  0  0  0  0
    9.8061  -16.0539   27.7338 C   0  0  0  0  0  0  0  0  0  0  0  0
   10.7720  -15.9202   28.7229 O   0  0  0  0  0  0  0  0  0  0  0  0
    9.2242  -17.1685   27.6937 O   0  0  0  0  0  0  0  0  0  0  0  0
  1  2  1  0
  2  4  1  0
  2  3  2  0
  4  5  1  0
  5  7  1  0
  5  6  1  6
  7  9  1  0
  8  7  2  0
  9 10  1  0
 10 11  1  1
 10 13  1  0
 11 12  1  0
 13 20  1  0
 13 14  2  0
 16 15  1  0
 16 17  1  0
 17 18  1  0
 19 18  1  1
 20 19  1  0
 21 19  1  0
 21 22  1  0
 23 21  2  0
M  END
$$$$
