NCM.pdb
     RDKit          3D

 23 22  0  0  1  0  0  0  0  0999 V2000
    9.6808  -21.3940   19.5580 N   0  0  0  0  0  0  0  0  0  0  0  0
   10.6056  -20.5602   18.8818 C   0  0  0  0  0  0  0  0  0  0  0  0
   11.3804  -21.0801   18.0126 O   0  0  0  0  0  0  0  0  0  0  0  0
   10.7224  -19.1007   19.1328 C   0  0  0  0  0  0  0  0  0  0  0  0
    9.7448  -18.7213   20.2258 C   0  0  2  0  0  0  0  0  0  0  0  0
    8.4215  -19.1818   19.8622 N   0  0  0  0  0  0  0  0  0  0  0  0
    9.7222  -17.2498   20.4201 C   0  0  0  0  0  0  0  0  0  0  0  0
   10.6614  -16.5210   19.9947 O   0  0  0  0  0  0  0  0  0  0  0  0
    8.6197  -16.6785   21.0960 N   0  0  0  0  0  0  0  0  0  0  0  0
    8.5033  -15.2363   21.3568 C   0  0  1  0  0  0  0  0  0  0  0  0
    7.0489  -14.8261   21.2126 C   0  0  0  0  0  0  0  0  0  0  0  0
    6.0359  -15.8083   22.3245 S   0  0  0  0  0  0  0  0  0  0  0  0
    9.0386  -15.0169   22.7119 C   0  0  0  0  0  0  0  0  0  0  0  0
    9.0345  -13.8386   23.2297 O   0  0  0  0  0  0  0  0  0  0  0  0
    9.7748  -12.9629   29.1377 C   0  0  0  0  0  0  0  0  0  0  0  0
    9.4662  -13.2698   27.3798 S   0  0  0  0  0  0  0  0  0  0  0  0
    8.9838  -14.9909   27.0813 C   0  0  0  0  0  0  0  0  0  0  0  0
    8.7776  -15.1849   25.6168 C   0  0  0  0  0  0  0  0  0  0  0  0
    9.9667  -15.7800   24.9139 C   0  0  2  0  0  0  0  0  0  0  0  0
    9.5722  -16.0340   23.5157 N   0  0  0  0  0  0  0  0  0  0  0  0
   10.4381  -17.0368   25.4928 C   0  0  0  0  0  0  0  0  0  0  0  0
   10.3782  -18.2631   24.8433 O   0  0  0  0  0  0  0  0  0  0  0  0
   10.9368  -17.0605   26.6475 O   0  0  0  0  0  0  0  0  0  0  0  0
  1  2  1  0
  2  4  1  0
  2  3  2  0
  4  5  1  0
  5  7  1  0
  5  6  1  6
  7  9  1  0
  8  7  2  0
  9 10  1  0
 10 11  1  1
 10 13  1  0
 11 12  1  0
 13 20  1  0
 13 14  2  0
 16 15  1  0
 16 17  1  0
 17 18  1  0
 19 18  1  1
 20 19  1  0
 21 19  1  0
 21 22  1  0
 23 21  2  0
M  END
$$$$
