NCM.pdb
     RDKit          3D

 23 22  0  0  1  0  0  0  0  0999 V2000
    5.3013  -21.3351   23.5471 N   0  0  0  0  0  0  0  0  0  0  0  0
    4.9541  -20.9989   22.2152 C   0  0  0  0  0  0  0  0  0  0  0  0
    4.1533  -21.7598   21.5781 O   0  0  0  0  0  0  0  0  0  0  0  0
    5.4769  -19.7976   21.5149 C   0  0  0  0  0  0  0  0  0  0  0  0
    6.3403  -19.0150   22.4824 C   0  0  2  0  0  0  0  0  0  0  0  0
    5.4970  -18.4107   23.4920 N   0  0  0  0  0  0  0  0  0  0  0  0
    7.0976  -17.9559   21.7694 C   0  0  0  0  0  0  0  0  0  0  0  0
    8.1263  -18.2332   21.0918 O   0  0  0  0  0  0  0  0  0  0  0  0
    6.6395  -16.6219   21.8661 N   0  0  0  0  0  0  0  0  0  0  0  0
    7.4199  -15.4730   21.3838 C   0  0  1  0  0  0  0  0  0  0  0  0
    6.4818  -14.4908   20.7059 C   0  0  0  0  0  0  0  0  0  0  0  0
    7.4019  -13.0320   20.2035 S   0  0  0  0  0  0  0  0  0  0  0  0
    8.0988  -14.9099   22.5641 C   0  0  0  0  0  0  0  0  0  0  0  0
    8.1363  -13.6364   22.7466 O   0  0  0  0  0  0  0  0  0  0  0  0
    6.8141  -10.8843   25.5718 C   0  0  0  0  0  0  0  0  0  0  0  0
    7.4958  -12.0507   26.7779 S   0  0  0  0  0  0  0  0  0  0  0  0
    8.8653  -13.0070   26.0753 C   0  0  0  0  0  0  0  0  0  0  0  0
    8.3101  -14.2134   25.3961 C   0  0  0  0  0  0  0  0  0  0  0  0
    9.3554  -15.0650   24.7296 C   0  0  2  0  0  0  0  0  0  0  0  0
    8.7313  -15.6853   23.5459 N   0  0  0  0  0  0  0  0  0  0  0  0
    9.8906  -16.1296   25.5765 C   0  0  0  0  0  0  0  0  0  0  0  0
   11.0879  -16.0403   26.2747 O   0  0  0  0  0  0  0  0  0  0  0  0
    9.2647  -17.2123   25.7130 O   0  0  0  0  0  0  0  0  0  0  0  0
  1  2  1  0
  2  4  1  0
  2  3  2  0
  4  5  1  0
  5  7  1  0
  5  6  1  1
  7  9  1  0
  8  7  2  0
  9 10  1  0
 10 11  1  1
 10 13  1  0
 11 12  1  0
 13 20  1  0
 13 14  2  0
 16 15  1  0
 16 17  1  0
 17 18  1  0
 19 18  1  1
 20 19  1  0
 21 19  1  0
 21 22  1  0
 23 21  2  0
M  END
$$$$
