NCM.pdb
     RDKit          3D

 23 22  0  0  1  0  0  0  0  0999 V2000
    8.5314  -19.2236   19.4819 N   0  0  0  0  0  0  0  0  0  0  0  0
    7.6779  -18.0955   19.4027 C   0  0  0  0  0  0  0  0  0  0  0  0
    6.5638  -18.2094   18.7928 O   0  0  0  0  0  0  0  0  0  0  0  0
    8.0136  -16.7759   19.9968 C   0  0  0  0  0  0  0  0  0  0  0  0
    8.1257  -16.9393   21.4983 C   0  0  2  0  0  0  0  0  0  0  0  0
    6.8453  -17.3567   22.0291 N   0  0  0  0  0  0  0  0  0  0  0  0
    8.5342  -15.6621   22.1348 C   0  0  0  0  0  0  0  0  0  0  0  0
    9.6009  -15.0768   21.7974 O   0  0  0  0  0  0  0  0  0  0  0  0
    7.6981  -15.1115   23.1331 N   0  0  0  0  0  0  0  0  0  0  0  0
    8.0387  -13.8884   23.8744 C   0  0  1  0  0  0  0  0  0  0  0  0
    6.7572  -13.2295   24.3517 C   0  0  0  0  0  0  0  0  0  0  0  0
    6.5550  -13.5174   26.1133 S   0  0  0  0  0  0  0  0  0  0  0  0
    8.9241  -14.3057   24.9758 C   0  0  0  0  0  0  0  0  0  0  0  0
    9.3467  -13.4433   25.8326 O   0  0  0  0  0  0  0  0  0  0  0  0
   11.0330  -14.3790   30.0556 C   0  0  0  0  0  0  0  0  0  0  0  0
   10.2272  -13.7741   28.5508 S   0  0  0  0  0  0  0  0  0  0  0  0
    8.8906  -14.8786   28.0240 C   0  0  0  0  0  0  0  0  0  0  0  0
    9.4881  -16.1463   27.5132 C   0  0  0  0  0  0  0  0  0  0  0  0
   10.2965  -15.9690   26.2574 C   0  0  2  0  0  0  0  0  0  0  0  0
    9.3584  -15.6239   25.1728 N   0  0  0  0  0  0  0  0  0  0  0  0
   11.0462  -17.1574   25.8542 C   0  0  0  0  0  0  0  0  0  0  0  0
   10.8677  -17.8164   24.6447 O   0  0  0  0  0  0  0  0  0  0  0  0
   11.9176  -17.6513   26.6154 O   0  0  0  0  0  0  0  0  0  0  0  0
  1  2  1  0
  2  4  1  0
  2  3  2  0
  4  5  1  0
  5  7  1  0
  5  6  1  1
  7  9  1  0
  8  7  2  0
  9 10  1  0
 10 11  1  1
 10 13  1  0
 11 12  1  0
 13 20  1  0
 13 14  2  0
 16 15  1  0
 16 17  1  0
 17 18  1  0
 19 18  1  1
 20 19  1  0
 21 19  1  0
 21 22  1  0
 23 21  2  0
M  END
$$$$
