NCM.pdb
     RDKit          3D

 23 22  0  0  1  0  0  0  0  0999 V2000
    6.8529  -13.5963   16.9773 N   0  0  0  0  0  0  0  0  0  0  0  0
    7.9256  -13.4572   17.8924 C   0  0  0  0  0  0  0  0  0  0  0  0
    9.1195  -13.4574   17.4445 O   0  0  0  0  0  0  0  0  0  0  0  0
    7.7329  -13.3100   19.3581 C   0  0  0  0  0  0  0  0  0  0  0  0
    8.6509  -14.2862   20.0640 C   0  0  2  0  0  0  0  0  0  0  0  0
    8.6409  -15.5479   19.3543 N   0  0  0  0  0  0  0  0  0  0  0  0
    8.2089  -14.5012   21.4647 C   0  0  0  0  0  0  0  0  0  0  0  0
    7.8860  -13.5294   22.2034 O   0  0  0  0  0  0  0  0  0  0  0  0
    8.1569  -15.8255   21.9568 N   0  0  0  0  0  0  0  0  0  0  0  0
    7.6746  -16.1575   23.3054 C   0  0  1  0  0  0  0  0  0  0  0  0
    6.7090  -17.3249   23.2089 C   0  0  0  0  0  0  0  0  0  0  0  0
    6.1201  -17.7533   24.8511 S   0  0  0  0  0  0  0  0  0  0  0  0
    8.8718  -16.4571   24.1104 C   0  0  0  0  0  0  0  0  0  0  0  0
    9.8668  -17.0840   23.5873 O   0  0  0  0  0  0  0  0  0  0  0  0
   11.0948  -13.0189   29.5993 C   0  0  0  0  0  0  0  0  0  0  0  0
    9.4642  -13.5863   29.0526 S   0  0  0  0  0  0  0  0  0  0  0  0
    9.5402  -14.3336   27.4035 C   0  0  0  0  0  0  0  0  0  0  0  0
   10.1863  -15.6736   27.5126 C   0  0  0  0  0  0  0  0  0  0  0  0
   10.2439  -16.4232   26.2100 C   0  0  2  0  0  0  0  0  0  0  0  0
    9.0190  -16.0954   25.4567 N   0  0  0  0  0  0  0  0  0  0  0  0
   10.3167  -17.8758   26.3570 C   0  0  0  0  0  0  0  0  0  0  0  0
    9.2826  -18.7435   26.0301 O   0  0  0  0  0  0  0  0  0  0  0  0
   11.3592  -18.4210   26.8029 O   0  0  0  0  0  0  0  0  0  0  0  0
  1  2  1  0
  2  4  1  0
  2  3  2  0
  4  5  1  0
  5  7  1  0
  5  6  1  6
  7  9  1  0
  8  7  2  0
  9 10  1  0
 10 11  1  6
 10 13  1  0
 11 12  1  0
 13 20  1  0
 13 14  2  0
 16 15  1  0
 16 17  1  0
 17 18  1  0
 19 18  1  1
 20 19  1  0
 21 19  1  0
 21 22  1  0
 23 21  2  0
M  END
$$$$
