NCM.pdb
     RDKit          3D

 23 22  0  0  1  0  0  0  0  0999 V2000
    9.0540  -12.1252   18.4431 N   0  0  0  0  0  0  0  0  0  0  0  0
    8.2348  -13.2597   18.2212 C   0  0  0  0  0  0  0  0  0  0  0  0
    7.9418  -13.5812   17.0224 O   0  0  0  0  0  0  0  0  0  0  0  0
    7.6941  -14.1022   19.3188 C   0  0  0  0  0  0  0  0  0  0  0  0
    8.6326  -15.2714   19.5341 C   0  0  2  0  0  0  0  0  0  0  0  0
    8.3937  -16.2686   18.5124 N   0  0  0  0  0  0  0  0  0  0  0  0
    8.4201  -15.8732   20.8743 C   0  0  0  0  0  0  0  0  0  0  0  0
    7.2636  -15.9642   21.3728 O   0  0  0  0  0  0  0  0  0  0  0  0
    9.5474  -16.3453   21.5850 N   0  0  0  0  0  0  0  0  0  0  0  0
    9.4421  -17.0575   22.8669 C   0  0  1  0  0  0  0  0  0  0  0  0
   10.4739  -18.1706   22.8974 C   0  0  0  0  0  0  0  0  0  0  0  0
   10.4730  -18.9447   24.5185 S   0  0  0  0  0  0  0  0  0  0  0  0
    9.6451  -16.0464   23.9193 C   0  0  0  0  0  0  0  0  0  0  0  0
   10.5867  -15.1757   23.8114 O   0  0  0  0  0  0  0  0  0  0  0  0
    6.0192  -11.6291   25.6840 C   0  0  0  0  0  0  0  0  0  0  0  0
    6.5344  -12.0617   27.3655 S   0  0  0  0  0  0  0  0  0  0  0  0
    8.0353  -13.0771   27.3591 C   0  0  0  0  0  0  0  0  0  0  0  0
    7.9136  -14.1076   26.2875 C   0  0  0  0  0  0  0  0  0  0  0  0
    9.1460  -14.9534   26.1213 C   0  0  2  0  0  0  0  0  0  0  0  0
    8.8584  -15.9532   25.0758 N   0  0  0  0  0  0  0  0  0  0  0  0
    9.5549  -15.6617   27.3329 C   0  0  0  0  0  0  0  0  0  0  0  0
    9.5314  -17.0435   27.4715 O   0  0  0  0  0  0  0  0  0  0  0  0
    9.9605  -15.0244   28.3389 O   0  0  0  0  0  0  0  0  0  0  0  0
  1  2  1  0
  2  4  1  0
  2  3  2  0
  4  5  1  0
  5  7  1  0
  5  6  1  6
  7  9  1  0
  8  7  2  0
  9 10  1  0
 10 11  1  6
 10 13  1  0
 11 12  1  0
 13 20  1  0
 13 14  2  0
 16 15  1  0
 16 17  1  0
 17 18  1  0
 19 18  1  1
 20 19  1  0
 21 19  1  0
 21 22  1  0
 23 21  2  0
M  END
$$$$
