QAC.pdb
     RDKit          3D

 21 20  0  0  1  0  0  0  0  0999 V2000
    4.2286  -20.2146   22.4319 N   0  0  0  0  0  0  0  0  0  0  0  0
    5.5148  -20.5213   22.9109 C   0  0  0  0  0  0  0  0  0  0  0  0
    5.7096  -21.5670   23.5599 O   0  0  0  0  0  0  0  0  0  0  0  0
    6.6375  -19.6038   22.6453 C   0  0  0  0  0  0  0  0  0  0  0  0
    6.1574  -18.3176   21.9939 C   0  0  0  0  0  0  0  0  0  0  0  0
    7.1270  -17.9003   20.8851 C   0  0  2  0  0  0  0  0  0  0  0  0
    8.1309  -18.9165   20.6707 N   0  0  0  0  0  0  0  0  0  0  0  0
    7.7986  -16.6471   21.3402 C   0  0  0  0  0  0  0  0  0  0  0  0
    8.9707  -16.7205   21.7594 O   0  0  0  0  0  0  0  0  0  0  0  0
    6.8673  -12.9802   21.1371 C   0  0  0  0  0  0  0  0  0  0  0  0
    7.7568  -14.1421   21.4844 C   0  0  2  0  0  0  0  0  0  0  0  0
    7.1067  -15.4047   21.2917 N   0  0  0  0  0  0  0  0  0  0  0  0
    8.3038  -14.0266   22.8691 C   0  0  0  0  0  0  0  0  0  0  0  0
    9.0591  -13.0716   23.1311 O   0  0  0  0  0  0  0  0  0  0  0  0
    7.9765  -14.9769   23.8685 N   0  0  0  0  0  0  0  0  0  0  0  0
    8.4027  -14.7440   25.2252 C   0  0  1  0  0  0  0  0  0  0  0  0
    7.6185  -13.5632   25.8013 C   0  0  0  0  0  0  0  0  0  0  0  0
    5.8481  -13.9204   25.8707 S   0  0  0  0  0  0  0  0  0  0  0  0
    8.2206  -15.9458   26.0776 C   0  0  0  0  0  0  0  0  0  0  0  0
    7.6052  -16.9268   25.6261 O   0  0  0  0  0  0  0  0  0  0  0  0
    8.7292  -15.9820   27.3664 O   0  0  0  0  0  0  0  0  0  0  0  0
  2  3  2  0
  2  1  1  0
  4  2  1  0
  5  4  1  0
  5  6  1  0
  6  7  1  1
  8 12  1  0
  8  6  1  0
  9  8  2  0
 11 10  1  1
 11 12  1  0
 11 13  1  0
 13 15  1  0
 14 13  2  0
 15 16  1  0
 16 19  1  0
 16 17  1  1
 17 18  1  0
 19 21  1  0
 20 19  2  0
M  END
$$$$
