QAC.pdb
     RDKit          3D

 21 20  0  0  1  0  0  0  0  0999 V2000
   13.7565  -13.4340   18.8304 N   0  0  0  0  0  0  0  0  0  0  0  0
   13.9566  -14.7705   18.4410 C   0  0  0  0  0  0  0  0  0  0  0  0
   14.8788  -15.0637   17.6561 O   0  0  0  0  0  0  0  0  0  0  0  0
   13.0733  -15.8293   18.9621 C   0  0  0  0  0  0  0  0  0  0  0  0
   12.1240  -15.2868   20.0174 C   0  0  0  0  0  0  0  0  0  0  0  0
   12.0381  -16.2629   21.1937 C   0  0  2  0  0  0  0  0  0  0  0  0
   11.4799  -17.5270   20.7730 N   0  0  0  0  0  0  0  0  0  0  0  0
   11.1303  -15.6479   22.2068 C   0  0  0  0  0  0  0  0  0  0  0  0
   11.4241  -14.5253   22.6632 O   0  0  0  0  0  0  0  0  0  0  0  0
    7.9131  -16.7405   23.8998 C   0  0  0  0  0  0  0  0  0  0  0  0
    9.0554  -15.8063   23.6095 C   0  0  2  0  0  0  0  0  0  0  0  0
    9.9606  -16.3369   22.6332 N   0  0  0  0  0  0  0  0  0  0  0  0
    9.7800  -15.4133   24.8546 C   0  0  0  0  0  0  0  0  0  0  0  0
   10.3144  -14.2893   24.9005 O   0  0  0  0  0  0  0  0  0  0  0  0
    9.8628  -16.2924   25.9633 N   0  0  0  0  0  0  0  0  0  0  0  0
   10.2759  -15.7724   27.2422 C   0  0  1  0  0  0  0  0  0  0  0  0
    9.1922  -14.8329   27.7751 C   0  0  0  0  0  0  0  0  0  0  0  0
    9.6096  -14.2135   29.4210 S   0  0  0  0  0  0  0  0  0  0  0  0
   10.5425  -16.8561   28.2214 C   0  0  0  0  0  0  0  0  0  0  0  0
    9.8225  -17.8692   28.2217 O   0  0  0  0  0  0  0  0  0  0  0  0
   11.5831  -16.7470   29.1305 O   0  0  0  0  0  0  0  0  0  0  0  0
  2  3  2  0
  2  1  1  0
  4  2  1  0
  5  4  1  0
  5  6  1  0
  6  7  1  6
  8 12  1  0
  8  6  1  0
  9  8  2  0
 11 10  1  1
 11 12  1  0
 11 13  1  0
 13 15  1  0
 14 13  2  0
 15 16  1  0
 16 19  1  0
 16 17  1  1
 17 18  1  0
 19 21  1  0
 20 19  2  0
M  END
$$$$
