QAC.pdb
     RDKit          3D

 21 20  0  0  1  0  0  0  0  0999 V2000
   -0.7531  -28.4135   26.9474 N   0  0  0  0  0  0  0  0  0  0  0  0
   -0.8258  -28.1956   25.5599 C   0  0  0  0  0  0  0  0  0  0  0  0
   -0.0752  -28.8210   24.7866 O   0  0  0  0  0  0  0  0  0  0  0  0
   -1.7926  -27.2244   25.0168 C   0  0  0  0  0  0  0  0  0  0  0  0
   -2.6122  -26.5828   26.1241 C   0  0  0  0  0  0  0  0  0  0  0  0
   -3.5790  -25.5554   25.5297 C   0  0  2  0  0  0  0  0  0  0  0  0
   -2.9240  -24.7576   24.5193 N   0  0  0  0  0  0  0  0  0  0  0  0
   -4.0085  -24.6622   26.6462 C   0  0  0  0  0  0  0  0  0  0  0  0
   -4.6141  -25.1682   27.6117 O   0  0  0  0  0  0  0  0  0  0  0  0
   -3.6025  -20.9652   27.3978 C   0  0  0  0  0  0  0  0  0  0  0  0
   -4.1273  -22.3557   27.6279 C   0  0  2  0  0  0  0  0  0  0  0  0
   -3.7274  -23.2682   26.5976 N   0  0  0  0  0  0  0  0  0  0  0  0
   -5.6098  -22.3658   27.8071 C   0  0  0  0  0  0  0  0  0  0  0  0
   -6.3289  -22.4791   26.7966 O   0  0  0  0  0  0  0  0  0  0  0  0
   -6.1937  -22.2497   29.0934 N   0  0  0  0  0  0  0  0  0  0  0  0
   -7.6251  -22.3506   29.2262 C   0  0  1  0  0  0  0  0  0  0  0  0
   -8.0819  -23.7153   28.7066 C   0  0  0  0  0  0  0  0  0  0  0  0
   -9.8223  -24.0163   29.0898 S   0  0  0  0  0  0  0  0  0  0  0  0
   -8.0661  -22.1626   30.6313 C   0  0  0  0  0  0  0  0  0  0  0  0
   -7.3444  -22.5708   31.5573 O   0  0  0  0  0  0  0  0  0  0  0  0
   -9.2702  -21.5384   30.9168 O   0  0  0  0  0  0  0  0  0  0  0  0
  2  3  2  0
  2  1  1  0
  4  2  1  0
  5  4  1  0
  5  6  1  0
  6  7  1  6
  8 12  1  0
  8  6  1  0
  9  8  2  0
 11 10  1  6
 11 12  1  0
 11 13  1  0
 13 15  1  0
 14 13  2  0
 15 16  1  0
 16 19  1  0
 16 17  1  1
 17 18  1  0
 19 21  1  0
 20 19  2  0
M  END
$$$$
