QAC.pdb
     RDKit          3D

 21 20  0  0  1  0  0  0  0  0999 V2000
    9.2705  -13.4588   18.6264 N   0  0  0  0  0  0  0  0  0  0  0  0
    7.8875  -13.4582   18.3711 C   0  0  0  0  0  0  0  0  0  0  0  0
    7.4284  -12.8203   17.4042 O   0  0  0  0  0  0  0  0  0  0  0  0
    6.9763  -14.2142   19.2492 C   0  0  0  0  0  0  0  0  0  0  0  0
    7.7376  -14.9179   20.3603 C   0  0  0  0  0  0  0  0  0  0  0  0
    8.2939  -16.2497   19.8499 C   0  0  2  0  0  0  0  0  0  0  0  0
    7.2236  -17.1675   19.5363 N   0  0  0  0  0  0  0  0  0  0  0  0
    9.1196  -16.8293   20.9504 C   0  0  0  0  0  0  0  0  0  0  0  0
    8.5952  -17.6724   21.7048 O   0  0  0  0  0  0  0  0  0  0  0  0
   12.8039  -16.7747   21.7518 C   0  0  0  0  0  0  0  0  0  0  0  0
   11.3569  -17.0356   22.0682 C   0  0  2  0  0  0  0  0  0  0  0  0
   10.4716  -16.4208   21.1236 N   0  0  0  0  0  0  0  0  0  0  0  0
   11.0139  -16.6333   23.4648 C   0  0  0  0  0  0  0  0  0  0  0  0
   11.6822  -17.1108   24.4010 O   0  0  0  0  0  0  0  0  0  0  0  0
    9.9541  -15.7298   23.7284 N   0  0  0  0  0  0  0  0  0  0  0  0
    9.6220  -15.4168   25.0952 C   0  0  1  0  0  0  0  0  0  0  0  0
    8.7298  -14.1741   25.1225 C   0  0  0  0  0  0  0  0  0  0  0  0
    7.0788  -14.5353   24.4819 S   0  0  0  0  0  0  0  0  0  0  0  0
    8.9446  -16.5499   25.7744 C   0  0  0  0  0  0  0  0  0  0  0  0
    8.5904  -17.5375   25.1079 O   0  0  0  0  0  0  0  0  0  0  0  0
    8.7054  -16.5151   27.1392 O   0  0  0  0  0  0  0  0  0  0  0  0
  2  3  2  0
  2  1  1  0
  4  2  1  0
  5  4  1  0
  5  6  1  0
  6  7  1  1
  8 12  1  0
  8  6  1  0
  9  8  2  0
 11 10  1  6
 11 12  1  0
 11 13  1  0
 13 15  1  0
 14 13  2  0
 15 16  1  0
 16 19  1  0
 16 17  1  6
 17 18  1  0
 19 21  1  0
 20 19  2  0
M  END
$$$$
