QAC.pdb
     RDKit          3D

 21 20  0  0  1  0  0  0  0  0999 V2000
   11.5134  -20.4287   22.8143 N   0  0  0  0  0  0  0  0  0  0  0  0
   12.4032  -20.3803   21.7264 C   0  0  0  0  0  0  0  0  0  0  0  0
   12.8421  -21.4344   21.2276 O   0  0  0  0  0  0  0  0  0  0  0  0
   12.8193  -19.0790   21.1729 C   0  0  0  0  0  0  0  0  0  0  0  0
   12.1815  -17.9269   21.9313 C   0  0  0  0  0  0  0  0  0  0  0  0
   10.7937  -17.6291   21.3579 C   0  0  2  0  0  0  0  0  0  0  0  0
   10.8799  -17.2767   19.9597 N   0  0  0  0  0  0  0  0  0  0  0  0
   10.2480  -16.4646   22.1161 C   0  0  0  0  0  0  0  0  0  0  0  0
   10.9127  -15.4098   22.1432 O   0  0  0  0  0  0  0  0  0  0  0  0
    7.0115  -15.7931   23.9763 C   0  0  0  0  0  0  0  0  0  0  0  0
    8.4042  -15.4783   23.5038 C   0  0  2  0  0  0  0  0  0  0  0  0
    8.9978  -16.5686   22.7876 N   0  0  0  0  0  0  0  0  0  0  0  0
    9.2826  -15.0328   24.6263 C   0  0  0  0  0  0  0  0  0  0  0  0
    9.7238  -13.8682   24.6082 O   0  0  0  0  0  0  0  0  0  0  0  0
    9.6119  -15.9078   25.6915 N   0  0  0  0  0  0  0  0  0  0  0  0
   10.0387  -15.3516   26.9505 C   0  0  1  0  0  0  0  0  0  0  0  0
    8.8783  -14.5732   27.5738 C   0  0  0  0  0  0  0  0  0  0  0  0
    9.3003  -12.8301   27.7978 S   0  0  0  0  0  0  0  0  0  0  0  0
   10.5147  -16.4006   27.8871 C   0  0  0  0  0  0  0  0  0  0  0  0
   10.9794  -16.0681   28.9909 O   0  0  0  0  0  0  0  0  0  0  0  0
   10.4453  -17.7411   27.5416 O   0  0  0  0  0  0  0  0  0  0  0  0
  2  3  2  0
  2  1  1  0
  4  2  1  0
  5  4  1  0
  5  6  1  0
  6  7  1  6
  8 12  1  0
  8  6  1  0
  9  8  2  0
 11 10  1  1
 11 12  1  0
 11 13  1  0
 13 15  1  0
 14 13  2  0
 15 16  1  0
 16 19  1  0
 16 17  1  1
 17 18  1  0
 19 21  1  0
 20 19  2  0
M  END
$$$$
