QAC.pdb
     RDKit          3D

 21 20  0  0  1  0  0  0  0  0999 V2000
    7.2385  -20.8764   18.9040 N   0  0  0  0  0  0  0  0  0  0  0  0
    7.6597  -20.7031   17.5735 C   0  0  0  0  0  0  0  0  0  0  0  0
    7.8349  -21.6928   16.8371 O   0  0  0  0  0  0  0  0  0  0  0  0
    7.8953  -19.3468   17.0465 C   0  0  0  0  0  0  0  0  0  0  0  0
    7.4796  -18.2843   18.0504 C   0  0  0  0  0  0  0  0  0  0  0  0
    7.8562  -16.8958   17.5272 C   0  0  2  0  0  0  0  0  0  0  0  0
    8.8509  -16.9918   16.4842 N   0  0  0  0  0  0  0  0  0  0  0  0
    8.4336  -16.1373   18.6761 C   0  0  0  0  0  0  0  0  0  0  0  0
    9.6492  -16.2673   18.9222 O   0  0  0  0  0  0  0  0  0  0  0  0
    7.0732  -13.5680   21.1108 C   0  0  0  0  0  0  0  0  0  0  0  0
    8.1029  -14.5187   20.5652 C   0  0  2  0  0  0  0  0  0  0  0  0
    7.6058  -15.2895   19.4639 N   0  0  0  0  0  0  0  0  0  0  0  0
    8.6595  -15.4041   21.6312 C   0  0  0  0  0  0  0  0  0  0  0  0
    8.1337  -16.5186   21.8114 O   0  0  0  0  0  0  0  0  0  0  0  0
    9.7604  -14.9940   22.4242 N   0  0  0  0  0  0  0  0  0  0  0  0
   10.2221  -15.8553   23.4833 C   0  0  1  0  0  0  0  0  0  0  0  0
   11.6779  -15.5143   23.8080 C   0  0  0  0  0  0  0  0  0  0  0  0
   12.3061  -16.5338   25.1618 S   0  0  0  0  0  0  0  0  0  0  0  0
    9.3826  -15.7346   24.7017 C   0  0  0  0  0  0  0  0  0  0  0  0
    8.7627  -14.6783   24.9137 O   0  0  0  0  0  0  0  0  0  0  0  0
    9.2853  -16.7856   25.6002 O   0  0  0  0  0  0  0  0  0  0  0  0
  2  3  2  0
  2  1  1  0
  4  2  1  0
  5  4  1  0
  5  6  1  0
  6  7  1  6
  8 12  1  0
  8  6  1  0
  9  8  2  0
 11 10  1  1
 11 12  1  0
 11 13  1  0
 13 15  1  0
 14 13  2  0
 15 16  1  0
 16 19  1  0
 16 17  1  1
 17 18  1  0
 19 21  1  0
 20 19  2  0
M  END
$$$$
