QAC.pdb
     RDKit          3D

 21 20  0  0  1  0  0  0  0  0999 V2000
   12.0939  -13.4367   19.7792 N   0  0  0  0  0  0  0  0  0  0  0  0
   10.9984  -13.5723   18.9079 C   0  0  0  0  0  0  0  0  0  0  0  0
   11.0878  -14.2928   17.8952 O   0  0  0  0  0  0  0  0  0  0  0  0
    9.7392  -12.8606   19.1920 C   0  0  0  0  0  0  0  0  0  0  0  0
    9.1104  -13.3463   20.4874 C   0  0  0  0  0  0  0  0  0  0  0  0
    8.6323  -14.7916   20.3259 C   0  0  2  0  0  0  0  0  0  0  0  0
    7.3466  -14.8374   19.6691 N   0  0  0  0  0  0  0  0  0  0  0  0
    8.4935  -15.3622   21.6984 C   0  0  0  0  0  0  0  0  0  0  0  0
    7.5682  -14.9460   22.4234 O   0  0  0  0  0  0  0  0  0  0  0  0
    9.8769  -18.3620   23.4656 C   0  0  0  0  0  0  0  0  0  0  0  0
    9.2973  -16.9744   23.4456 C   0  0  2  0  0  0  0  0  0  0  0  0
    9.4020  -16.3570   22.1565 N   0  0  0  0  0  0  0  0  0  0  0  0
    9.8959  -16.1086   24.5049 C   0  0  0  0  0  0  0  0  0  0  0  0
   10.9759  -15.5370   24.2639 O   0  0  0  0  0  0  0  0  0  0  0  0
    9.2570  -15.9353   25.7582 N   0  0  0  0  0  0  0  0  0  0  0  0
    9.8936  -15.1236   26.7644 C   0  0  1  0  0  0  0  0  0  0  0  0
    8.8656  -14.1536   27.3502 C   0  0  0  0  0  0  0  0  0  0  0  0
    9.6385  -12.9882   28.4952 S   0  0  0  0  0  0  0  0  0  0  0  0
   10.4944  -15.9479   27.8431 C   0  0  0  0  0  0  0  0  0  0  0  0
   10.0362  -17.0802   28.0732 O   0  0  0  0  0  0  0  0  0  0  0  0
   11.5570  -15.4668   28.5918 O   0  0  0  0  0  0  0  0  0  0  0  0
  2  3  2  0
  2  1  1  0
  4  2  1  0
  5  4  1  0
  5  6  1  0
  6  7  1  1
  8 12  1  0
  8  6  1  0
  9  8  2  0
 11 10  1  6
 11 12  1  0
 11 13  1  0
 13 15  1  0
 14 13  2  0
 15 16  1  0
 16 19  1  0
 16 17  1  1
 17 18  1  0
 19 21  1  0
 20 19  2  0
M  END
$$$$
