QAC.pdb
     RDKit          3D

 21 20  0  0  1  0  0  0  0  0999 V2000
    9.1876  -20.3968   18.5929 N   0  0  0  0  0  0  0  0  0  0  0  0
    7.8820  -20.6081   18.1149 C   0  0  0  0  0  0  0  0  0  0  0  0
    7.5570  -21.7163   17.6471 O   0  0  0  0  0  0  0  0  0  0  0  0
    6.8932  -19.5162   18.1668 C   0  0  0  0  0  0  0  0  0  0  0  0
    7.4571  -18.2935   18.8712 C   0  0  0  0  0  0  0  0  0  0  0  0
    7.5325  -17.1168   17.8948 C   0  0  2  0  0  0  0  0  0  0  0  0
    8.3157  -17.4634   16.7316 N   0  0  0  0  0  0  0  0  0  0  0  0
    8.2063  -15.9949   18.6132 C   0  0  0  0  0  0  0  0  0  0  0  0
    9.4396  -16.0570   18.7869 O   0  0  0  0  0  0  0  0  0  0  0  0
    7.1253  -12.5913   19.8495 C   0  0  0  0  0  0  0  0  0  0  0  0
    8.0303  -13.7915   19.8014 C   0  0  2  0  0  0  0  0  0  0  0  0
    7.4478  -14.8867   19.0835 N   0  0  0  0  0  0  0  0  0  0  0  0
    8.4624  -14.2148   21.1667 C   0  0  0  0  0  0  0  0  0  0  0  0
    7.6908  -14.0113   22.1230 O   0  0  0  0  0  0  0  0  0  0  0  0
    9.7193  -14.8344   21.3789 N   0  0  0  0  0  0  0  0  0  0  0  0
   10.0819  -15.2486   22.7106 C   0  0  1  0  0  0  0  0  0  0  0  0
    9.0180  -16.2103   23.2437 C   0  0  0  0  0  0  0  0  0  0  0  0
    7.9635  -15.4090   24.4735 S   0  0  0  0  0  0  0  0  0  0  0  0
   11.4194  -15.8919   22.7463 C   0  0  0  0  0  0  0  0  0  0  0  0
   11.9304  -16.1773   23.8428 O   0  0  0  0  0  0  0  0  0  0  0  0
   12.0991  -16.1752   21.5720 O   0  0  0  0  0  0  0  0  0  0  0  0
  2  3  2  0
  2  1  1  0
  4  2  1  0
  5  4  1  0
  5  6  1  0
  6  7  1  6
  8 12  1  0
  8  6  1  0
  9  8  2  0
 11 10  1  1
 11 12  1  0
 11 13  1  0
 13 15  1  0
 14 13  2  0
 15 16  1  0
 16 19  1  0
 16 17  1  6
 17 18  1  0
 19 21  1  0
 20 19  2  0
M  END
$$$$
