QAC.pdb
     RDKit          3D

 21 20  0  0  1  0  0  0  0  0999 V2000
    9.8824  -16.8568   17.3599 N   0  0  0  0  0  0  0  0  0  0  0  0
    9.1091  -17.6763   18.2014 C   0  0  0  0  0  0  0  0  0  0  0  0
    9.6084  -18.6952   18.7163 O   0  0  0  0  0  0  0  0  0  0  0  0
    7.7028  -17.3303   18.4764 C   0  0  0  0  0  0  0  0  0  0  0  0
    7.5830  -16.4370   19.6999 C   0  0  0  0  0  0  0  0  0  0  0  0
    8.1582  -17.1508   20.9259 C   0  0  2  0  0  0  0  0  0  0  0  0
    7.8438  -18.5603   20.8948 N   0  0  0  0  0  0  0  0  0  0  0  0
    7.5175  -16.5401   22.1281 C   0  0  0  0  0  0  0  0  0  0  0  0
    6.9732  -15.4245   22.0084 O   0  0  0  0  0  0  0  0  0  0  0  0
    6.8397  -17.6642   25.6740 C   0  0  0  0  0  0  0  0  0  0  0  0
    7.0517  -16.6413   24.5920 C   0  0  2  0  0  0  0  0  0  0  0  0
    7.5345  -17.2250   23.3753 N   0  0  0  0  0  0  0  0  0  0  0  0
    7.9431  -15.5322   25.0451 C   0  0  0  0  0  0  0  0  0  0  0  0
    9.1662  -15.6289   24.8311 O   0  0  0  0  0  0  0  0  0  0  0  0
    7.4184  -14.3923   25.7040 N   0  0  0  0  0  0  0  0  0  0  0  0
    8.3238  -13.3757   26.1763 C   0  0  1  0  0  0  0  0  0  0  0  0
    7.6254  -12.0156   26.1172 C   0  0  0  0  0  0  0  0  0  0  0  0
    5.9014  -12.1377   26.6459 S   0  0  0  0  0  0  0  0  0  0  0  0
    8.7952  -13.6510   27.5569 C   0  0  0  0  0  0  0  0  0  0  0  0
    8.2544  -14.5542   28.2178 O   0  0  0  0  0  0  0  0  0  0  0  0
    9.8284  -12.9122   28.1117 O   0  0  0  0  0  0  0  0  0  0  0  0
  2  3  2  0
  2  1  1  0
  4  2  1  0
  5  4  1  0
  5  6  1  0
  6  7  1  6
  8 12  1  0
  8  6  1  0
  9  8  2  0
 11 10  1  1
 11 12  1  0
 11 13  1  0
 13 15  1  0
 14 13  2  0
 15 16  1  0
 16 19  1  0
 16 17  1  1
 17 18  1  0
 19 21  1  0
 20 19  2  0
M  END
$$$$
