AAH.pdb
     RDKit          3D

 21 21  0  0  1  0  0  0  0  0999 V2000
   16.8046   -9.1863  -17.3057 C   0  0  0  0  0  0  0  0  0  0  0  0
   17.3673  -10.1497  -16.2700 C   0  0  2  0  0  0  0  0  0  0  0  0
   16.2673  -10.5093  -15.3940 N   0  0  0  0  0  0  0  0  0  0  0  0
   18.4455   -9.4449  -15.5411 C   0  0  0  0  0  0  0  0  0  0  0  0
   18.1121   -8.6090  -14.6649 O   0  0  0  0  0  0  0  0  0  0  0  0
   22.1711   -9.6919  -15.2234 C   0  0  0  0  0  0  0  0  0  0  0  0
   20.8581   -8.9683  -14.9976 C   0  0  2  0  0  0  0  0  0  0  0  0
   19.8336   -9.6541  -15.7697 N   0  0  0  0  0  0  0  0  0  0  0  0
   20.9640   -7.5345  -15.3855 C   0  0  0  0  0  0  0  0  0  0  0  0
   20.9025   -7.2718  -16.6066 O   0  0  0  0  0  0  0  0  0  0  0  0
   21.1271   -6.4820  -14.4546 N   0  0  0  0  0  0  0  0  0  0  0  0
   21.2163   -5.0911  -14.8495 C   0  0  1  0  0  0  0  0  0  0  0  0
   20.0265   -4.3755  -14.2590 C   0  0  0  0  0  0  0  0  0  0  0  0
   18.7570   -4.6272  -14.9666 C   0  0  0  0  0  0  0  0  0  0  0  0
   18.4592   -4.3324  -16.2781 C   0  0  0  0  0  0  0  0  0  0  0  0
   17.1908   -4.7172  -16.5028 N   0  0  0  0  0  0  0  0  0  0  0  0
   16.7342   -5.2320  -15.3532 C   0  0  0  0  0  0  0  0  0  0  0  0
   17.6684   -5.1865  -14.4101 N   0  0  0  0  0  0  0  0  0  0  0  0
   22.4681   -4.4657  -14.3473 C   0  0  0  0  0  0  0  0  0  0  0  0
   23.2201   -5.0390  -13.5175 O   0  0  0  0  0  0  0  0  0  0  0  0
   22.9034   -3.1983  -14.7552 O   0  0  0  0  0  0  0  0  0  0  0  0
  2  1  1  6
  2  4  1  0
  2  3  1  0
  4  5  2  0
  7  6  1  6
  8  7  1  0
  8  4  1  0
  9 10  2  0
  9  7  1  0
 11  9  1  0
 12 11  1  0
 12 13  1  1
 13 14  1  0
 14 15  2  0
 14 18  1  0
 15 16  1  0
 16 17  1  0
 18 17  2  0
 19 12  1  0
 20 19  2  0
 21 19  1  0
M  END
$$$$
