AAH.pdb
     RDKit          3D

 21 21  0  0  1  0  0  0  0  0999 V2000
   31.7106   -9.5506  -22.9472 C   0  0  0  0  0  0  0  0  0  0  0  0
   31.4438  -10.4438  -21.7438 C   0  0  2  0  0  0  0  0  0  0  0  0
   30.6321  -11.5500  -22.2173 N   0  0  0  0  0  0  0  0  0  0  0  0
   30.7327   -9.6315  -20.7313 C   0  0  0  0  0  0  0  0  0  0  0  0
   29.7028   -9.0111  -21.0947 O   0  0  0  0  0  0  0  0  0  0  0  0
   30.6774   -9.2347  -17.0350 C   0  0  0  0  0  0  0  0  0  0  0  0
   30.4246   -8.6759  -18.4215 C   0  0  2  0  0  0  0  0  0  0  0  0
   31.1413   -9.5091  -19.3745 N   0  0  0  0  0  0  0  0  0  0  0  0
   30.8543   -7.2529  -18.5112 C   0  0  0  0  0  0  0  0  0  0  0  0
   30.2299   -6.4271  -17.8098 O   0  0  0  0  0  0  0  0  0  0  0  0
   31.9130   -6.8058  -19.3359 N   0  0  0  0  0  0  0  0  0  0  0  0
   32.3267   -5.4190  -19.3998 C   0  0  1  0  0  0  0  0  0  0  0  0
   33.7489   -5.3471  -18.9011 C   0  0  0  0  0  0  0  0  0  0  0  0
   33.9165   -5.7479  -17.4915 C   0  0  0  0  0  0  0  0  0  0  0  0
   33.8792   -4.9338  -16.3818 C   0  0  0  0  0  0  0  0  0  0  0  0
   34.0917   -5.7078  -15.3032 N   0  0  0  0  0  0  0  0  0  0  0  0
   34.2535   -6.9597  -15.7523 C   0  0  0  0  0  0  0  0  0  0  0  0
   34.1508   -7.0048  -17.0758 N   0  0  0  0  0  0  0  0  0  0  0  0
   32.2645   -4.8998  -20.7916 C   0  0  0  0  0  0  0  0  0  0  0  0
   32.5042   -3.6970  -21.0719 O   0  0  0  0  0  0  0  0  0  0  0  0
   31.9352   -5.7035  -21.8906 O   0  0  0  0  0  0  0  0  0  0  0  0
  2  1  1  6
  2  4  1  0
  2  3  1  0
  4  5  2  0
  7  6  1  1
  8  7  1  0
  8  4  1  0
  9 10  2  0
  9  7  1  0
 11  9  1  0
 12 11  1  0
 12 13  1  6
 13 14  1  0
 14 15  2  0
 14 18  1  0
 15 16  1  0
 16 17  1  0
 18 17  2  0
 19 12  1  0
 20 19  2  0
 21 19  1  0
M  END
$$$$
