AAH.pdb
     RDKit          3D

 21 21  0  0  1  0  0  0  0  0999 V2000
   42.6352   -8.2567   -7.8098 C   0  0  0  0  0  0  0  0  0  0  0  0
   42.9388   -8.1555   -9.2981 C   0  0  2  0  0  0  0  0  0  0  0  0
   44.2841   -7.6234   -9.4139 N   0  0  0  0  0  0  0  0  0  0  0  0
   41.9339   -7.2508   -9.9001 C   0  0  0  0  0  0  0  0  0  0  0  0
   42.1216   -6.0132   -9.7961 O   0  0  0  0  0  0  0  0  0  0  0  0
   38.9897   -7.5044  -12.1870 C   0  0  0  0  0  0  0  0  0  0  0  0
   39.7933   -6.7653  -11.1352 C   0  0  2  0  0  0  0  0  0  0  0  0
   40.7707   -7.6936  -10.5882 N   0  0  0  0  0  0  0  0  0  0  0  0
   38.9066   -6.2185  -10.0712 C   0  0  0  0  0  0  0  0  0  0  0  0
   37.9613   -5.4881  -10.4411 O   0  0  0  0  0  0  0  0  0  0  0  0
   39.0833   -6.4832   -8.6929 N   0  0  0  0  0  0  0  0  0  0  0  0
   38.2024   -5.9532   -7.6722 C   0  0  1  0  0  0  0  0  0  0  0  0
   38.3443   -6.8294   -6.4521 C   0  0  0  0  0  0  0  0  0  0  0  0
   38.0546   -8.2552   -6.6944 C   0  0  0  0  0  0  0  0  0  0  0  0
   37.5457   -8.8207   -7.8420 C   0  0  0  0  0  0  0  0  0  0  0  0
   37.4274  -10.1423   -7.6254 N   0  0  0  0  0  0  0  0  0  0  0  0
   37.8550  -10.3684   -6.3759 C   0  0  0  0  0  0  0  0  0  0  0  0
   38.2393   -9.2374   -5.7951 N   0  0  0  0  0  0  0  0  0  0  0  0
   38.5625   -4.5543   -7.3204 C   0  0  0  0  0  0  0  0  0  0  0  0
   39.6593   -4.0375   -7.6565 O   0  0  0  0  0  0  0  0  0  0  0  0
   37.7154   -3.7098   -6.5915 O   0  0  0  0  0  0  0  0  0  0  0  0
  2  1  1  1
  2  4  1  0
  2  3  1  0
  4  5  2  0
  7  6  1  6
  8  7  1  0
  8  4  1  0
  9 10  2  0
  9  7  1  0
 11  9  1  0
 12 11  1  0
 12 13  1  1
 13 14  1  0
 14 15  2  0
 14 18  1  0
 15 16  1  0
 16 17  1  0
 18 17  2  0
 19 12  1  0
 20 19  2  0
 21 19  1  0
M  END
$$$$
