AAH.pdb
     RDKit          3D

 21 21  0  0  1  0  0  0  0  0999 V2000
   18.3556  -14.5506  -17.6913 C   0  0  0  0  0  0  0  0  0  0  0  0
   18.5564  -13.7206  -16.4311 C   0  0  2  0  0  0  0  0  0  0  0  0
   17.3514  -13.8714  -15.6362 N   0  0  0  0  0  0  0  0  0  0  0  0
   18.7702  -12.3167  -16.8481 C   0  0  0  0  0  0  0  0  0  0  0  0
   19.8635  -12.0269  -17.3943 O   0  0  0  0  0  0  0  0  0  0  0  0
   16.7289   -9.2353  -17.3130 C   0  0  0  0  0  0  0  0  0  0  0  0
   18.0698   -9.9110  -17.1039 C   0  0  2  0  0  0  0  0  0  0  0  0
   17.8172  -11.2762  -16.6696 N   0  0  0  0  0  0  0  0  0  0  0  0
   18.8943   -9.1676  -16.1114 C   0  0  0  0  0  0  0  0  0  0  0  0
   18.6671   -9.3940  -14.9027 O   0  0  0  0  0  0  0  0  0  0  0  0
   19.8996   -8.2386  -16.4684 N   0  0  0  0  0  0  0  0  0  0  0  0
   20.5935   -7.4199  -15.4954 C   0  0  1  0  0  0  0  0  0  0  0  0
   22.0737   -7.6162  -15.7117 C   0  0  0  0  0  0  0  0  0  0  0  0
   22.6005   -8.8848  -15.1743 C   0  0  0  0  0  0  0  0  0  0  0  0
   21.9182   -9.8272  -14.4382 C   0  0  0  0  0  0  0  0  0  0  0  0
   22.7809  -10.8157  -14.1448 N   0  0  0  0  0  0  0  0  0  0  0  0
   23.9563  -10.4770  -14.6913 C   0  0  0  0  0  0  0  0  0  0  0  0
   23.8675   -9.3102  -15.3196 N   0  0  0  0  0  0  0  0  0  0  0  0
   20.2566   -5.9813  -15.6607 C   0  0  0  0  0  0  0  0  0  0  0  0
   19.7613   -5.5245  -16.7232 O   0  0  0  0  0  0  0  0  0  0  0  0
   20.4643   -5.0295  -14.6541 O   0  0  0  0  0  0  0  0  0  0  0  0
  2  1  1  6
  2  4  1  0
  2  3  1  0
  4  5  2  0
  7  6  1  1
  8  7  1  0
  8  4  1  0
  9 10  2  0
  9  7  1  0
 11  9  1  0
 12 11  1  0
 12 13  1  6
 13 14  1  0
 14 15  2  0
 14 18  1  0
 15 16  1  0
 16 17  1  0
 18 17  2  0
 19 12  1  0
 20 19  2  0
 21 19  1  0
M  END
$$$$
