AAH.pdb
     RDKit          3D

 21 21  0  0  1  0  0  0  0  0999 V2000
   18.1378  -12.2072  -16.6180 C   0  0  0  0  0  0  0  0  0  0  0  0
   19.0752  -11.1632  -17.2086 C   0  0  2  0  0  0  0  0  0  0  0  0
   20.4084  -11.7363  -17.1802 N   0  0  0  0  0  0  0  0  0  0  0  0
   18.9790   -9.9480  -16.3692 C   0  0  0  0  0  0  0  0  0  0  0  0
   17.8554   -9.3973  -16.2608 O   0  0  0  0  0  0  0  0  0  0  0  0
   20.9853   -8.2186  -13.7745 C   0  0  0  0  0  0  0  0  0  0  0  0
   19.9335   -8.1675  -14.8652 C   0  0  2  0  0  0  0  0  0  0  0  0
   20.0771   -9.3651  -15.6783 N   0  0  0  0  0  0  0  0  0  0  0  0
   20.0731   -6.9325  -15.6853 C   0  0  0  0  0  0  0  0  0  0  0  0
   21.0237   -6.8957  -16.4971 O   0  0  0  0  0  0  0  0  0  0  0  0
   19.1978   -5.8255  -15.5881 N   0  0  0  0  0  0  0  0  0  0  0  0
   19.3022   -4.6640  -16.4475 C   0  0  1  0  0  0  0  0  0  0  0  0
   18.1660   -4.7301  -17.4382 C   0  0  0  0  0  0  0  0  0  0  0  0
   18.3012   -5.8014  -18.4430 C   0  0  0  0  0  0  0  0  0  0  0  0
   19.1850   -5.8506  -19.4975 C   0  0  0  0  0  0  0  0  0  0  0  0
   18.9564   -6.9944  -20.1659 N   0  0  0  0  0  0  0  0  0  0  0  0
   17.9576   -7.6205  -19.5291 C   0  0  0  0  0  0  0  0  0  0  0  0
   17.5468   -6.9136  -18.4824 N   0  0  0  0  0  0  0  0  0  0  0  0
   19.2037   -3.4029  -15.6664 C   0  0  0  0  0  0  0  0  0  0  0  0
   18.9040   -3.3904  -14.4446 O   0  0  0  0  0  0  0  0  0  0  0  0
   19.4341   -2.1397  -16.2265 O   0  0  0  0  0  0  0  0  0  0  0  0
  2  1  1  1
  2  4  1  0
  2  3  1  0
  4  5  2  0
  7  6  1  1
  8  7  1  0
  8  4  1  0
  9 10  2  0
  9  7  1  0
 11  9  1  0
 12 11  1  0
 12 13  1  6
 13 14  1  0
 14 15  2  0
 14 18  1  0
 15 16  1  0
 16 17  1  0
 18 17  2  0
 19 12  1  0
 20 19  2  0
 21 19  1  0
M  END
$$$$
