CET.pdb
     RDKit          3D

 23 22  0  0  1  0  0  0  0  0999 V2000
   21.3100  -10.6218  -15.8721 N   0  0  0  0  0  0  0  0  0  0  0  0
   21.2099   -9.4069  -15.1047 C   0  0  1  0  0  0  0  0  0  0  0  0
   22.5980   -8.7972  -15.0475 C   0  0  0  0  0  0  0  0  0  0  0  0
   23.5612   -9.6658  -13.7898 S   0  0  0  0  0  0  0  0  0  0  0  0
   20.2536   -8.4324  -15.7447 C   0  0  0  0  0  0  0  0  0  0  0  0
   20.4559   -8.1951  -16.9597 O   0  0  0  0  0  0  0  0  0  0  0  0
   19.2132   -7.8536  -14.9757 N   0  0  0  0  0  0  0  0  0  0  0  0
   18.3029   -6.9076  -15.5690 C   0  0  1  0  0  0  0  0  0  0  0  0
   16.9354   -7.5029  -15.5237 C   0  0  0  0  0  0  0  0  0  0  0  0
   15.8277   -6.6854  -16.0542 C   0  0  0  0  0  0  0  0  0  0  0  0
   14.4835   -7.2892  -15.9418 C   0  0  0  0  0  0  0  0  0  0  0  0
   14.1477   -8.2566  -16.6279 O   0  0  0  0  0  0  0  0  0  0  0  0
   18.4674   -5.5880  -14.9752 C   0  0  0  0  0  0  0  0  0  0  0  0
   18.6139   -5.3918  -13.7395 O   0  0  0  0  0  0  0  0  0  0  0  0
   13.5305   -6.7809  -15.0430 O   0  0  0  0  0  0  0  0  0  0  0  0
   21.1404   -2.9519  -15.0944 C   0  0  0  0  0  0  0  0  0  0  0  0
   19.8942   -2.4007  -15.7293 C   0  0  1  0  0  0  0  0  0  0  0  0
   20.0699   -2.3266  -17.0876 O   0  0  0  0  0  0  0  0  0  0  0  0
   18.6481   -3.0768  -15.2800 C   0  0  2  0  0  0  0  0  0  0  0  0
   18.4693   -4.4239  -15.7821 N   0  0  0  0  0  0  0  0  0  0  0  0
   17.4381   -2.2874  -15.6195 C   0  0  0  0  0  0  0  0  0  0  0  0
   16.5600   -2.7400  -16.4175 O   0  0  0  0  0  0  0  0  0  0  0  0
   17.2564   -1.0438  -15.0688 O   0  0  0  0  0  0  0  0  0  0  0  0
  2  1  1  6
  3  2  1  0
  3  4  1  0
  5  2  1  0
  6  5  2  0
  7  5  1  0
  8 13  1  0
  8  7  1  0
  8  9  1  1
 10  9  1  0
 11 10  1  0
 12 11  2  0
 13 14  2  0
 15 11  1  0
 17 16  1  1
 17 19  1  0
 17 18  1  0
 19 20  1  6
 20 13  1  0
 21 23  1  0
 21 19  1  0
 22 21  2  0
M  END
$$$$
