CET.pdb
     RDKit          3D

 23 22  0  0  1  0  0  0  0  0999 V2000
   17.6705  -12.6367  -16.0676 N   0  0  0  0  0  0  0  0  0  0  0  0
   17.8598  -11.2686  -16.4764 C   0  0  1  0  0  0  0  0  0  0  0  0
   16.5413  -10.5496  -16.2604 C   0  0  0  0  0  0  0  0  0  0  0  0
   15.3023  -11.2678  -17.3618 S   0  0  0  0  0  0  0  0  0  0  0  0
   18.9412  -10.5996  -15.6660 C   0  0  0  0  0  0  0  0  0  0  0  0
   18.7687  -10.6071  -14.4235 O   0  0  0  0  0  0  0  0  0  0  0  0
   20.0566  -10.0175  -16.3184 N   0  0  0  0  0  0  0  0  0  0  0  0
   21.0526   -9.2984  -15.5657 C   0  0  1  0  0  0  0  0  0  0  0  0
   22.3815   -9.9007  -15.8788 C   0  0  0  0  0  0  0  0  0  0  0  0
   22.6522  -10.2369  -17.2896 C   0  0  0  0  0  0  0  0  0  0  0  0
   23.9540  -10.8869  -17.5481 C   0  0  0  0  0  0  0  0  0  0  0  0
   24.3334  -11.8612  -16.8952 O   0  0  0  0  0  0  0  0  0  0  0  0
   20.9162   -7.8623  -15.7655 C   0  0  0  0  0  0  0  0  0  0  0  0
   20.3656   -7.3470  -16.7746 O   0  0  0  0  0  0  0  0  0  0  0  0
   24.8149  -10.4167  -18.5541 O   0  0  0  0  0  0  0  0  0  0  0  0
   19.5468   -3.6721  -14.2720 C   0  0  0  0  0  0  0  0  0  0  0  0
   19.7425   -5.1485  -14.4766 C   0  0  1  0  0  0  0  0  0  0  0  0
   18.7813   -5.6206  -15.3337 O   0  0  0  0  0  0  0  0  0  0  0  0
   21.1418   -5.5224  -14.8141 C   0  0  2  0  0  0  0  0  0  0  0  0
   21.4123   -6.9455  -14.8066 N   0  0  0  0  0  0  0  0  0  0  0  0
   22.1223   -4.8559  -13.9213 C   0  0  0  0  0  0  0  0  0  0  0  0
   22.4812   -5.3876  -12.8253 O   0  0  0  0  0  0  0  0  0  0  0  0
   22.6546   -3.6419  -14.2757 O   0  0  0  0  0  0  0  0  0  0  0  0
  2  1  1  1
  3  2  1  0
  3  4  1  0
  5  2  1  0
  6  5  2  0
  7  5  1  0
  8 13  1  0
  8  7  1  0
  8  9  1  6
 10  9  1  0
 11 10  1  0
 12 11  2  0
 13 14  2  0
 15 11  1  0
 17 16  1  6
 17 19  1  0
 17 18  1  0
 19 20  1  1
 20 13  1  0
 21 23  1  0
 21 19  1  0
 22 21  2  0
M  END
$$$$
