CET.pdb
     RDKit          3D

 23 22  0  0  1  0  0  0  0  0999 V2000
   25.3899  -16.7144  -17.0382 N   0  0  0  0  0  0  0  0  0  0  0  0
   24.9257  -16.0872  -15.8274 C   0  0  1  0  0  0  0  0  0  0  0  0
   26.1378  -15.4860  -15.1408 C   0  0  0  0  0  0  0  0  0  0  0  0
   27.2194  -16.8265  -14.5958 S   0  0  0  0  0  0  0  0  0  0  0  0
   23.9204  -15.0030  -16.1232 C   0  0  0  0  0  0  0  0  0  0  0  0
   24.1288  -14.3431  -17.1695 O   0  0  0  0  0  0  0  0  0  0  0  0
   22.8312  -14.7884  -15.2420 N   0  0  0  0  0  0  0  0  0  0  0  0
   21.8286  -13.7988  -15.5438 C   0  0  1  0  0  0  0  0  0  0  0  0
   20.4967  -14.4694  -15.4874 C   0  0  0  0  0  0  0  0  0  0  0  0
   19.3118  -13.6370  -15.7695 C   0  0  0  0  0  0  0  0  0  0  0  0
   18.0186  -14.3523  -15.7655 C   0  0  0  0  0  0  0  0  0  0  0  0
   17.4811  -14.7261  -16.8098 O   0  0  0  0  0  0  0  0  0  0  0  0
   22.0052  -12.6134  -14.7165 C   0  0  0  0  0  0  0  0  0  0  0  0
   22.2002  -12.6529  -13.4725 O   0  0  0  0  0  0  0  0  0  0  0  0
   17.3478  -14.6358  -14.5639 O   0  0  0  0  0  0  0  0  0  0  0  0
   24.6629   -9.9653  -14.5958 C   0  0  0  0  0  0  0  0  0  0  0  0
   23.3609   -9.3022  -14.9494 C   0  0  1  0  0  0  0  0  0  0  0  0
   23.3938   -8.9056  -16.2620 O   0  0  0  0  0  0  0  0  0  0  0  0
   22.1641  -10.0880  -14.5469 C   0  0  2  0  0  0  0  0  0  0  0  0
   21.9639  -11.3174  -15.2865 N   0  0  0  0  0  0  0  0  0  0  0  0
   20.9202   -9.2832  -14.6333 C   0  0  0  0  0  0  0  0  0  0  0  0
   19.9818   -9.6057  -15.4258 O   0  0  0  0  0  0  0  0  0  0  0  0
   20.7723   -8.1669  -13.8490 O   0  0  0  0  0  0  0  0  0  0  0  0
  2  1  1  6
  3  2  1  0
  3  4  1  0
  5  2  1  0
  6  5  2  0
  7  5  1  0
  8 13  1  0
  8  7  1  0
  8  9  1  1
 10  9  1  0
 11 10  1  0
 12 11  2  0
 13 14  2  0
 15 11  1  0
 17 16  1  6
 17 19  1  0
 17 18  1  0
 19 20  1  6
 20 13  1  0
 21 23  1  0
 21 19  1  0
 22 21  2  0
M  END
$$$$
