CET.pdb
     RDKit          3D

 23 22  0  0  1  0  0  0  0  0999 V2000
   26.8549  -11.8747  -18.3584 N   0  0  0  0  0  0  0  0  0  0  0  0
   26.3870  -11.5148  -17.0444 C   0  0  1  0  0  0  0  0  0  0  0  0
   27.5653  -10.9198  -16.2964 C   0  0  0  0  0  0  0  0  0  0  0  0
   28.7498  -12.2363  -15.9394 S   0  0  0  0  0  0  0  0  0  0  0  0
   25.2705  -10.5041  -17.1187 C   0  0  0  0  0  0  0  0  0  0  0  0
   25.3347   -9.6968  -18.0766 O   0  0  0  0  0  0  0  0  0  0  0  0
   24.2424  -10.5126  -16.1432 N   0  0  0  0  0  0  0  0  0  0  0  0
   23.1194   -9.6170  -16.2544 C   0  0  1  0  0  0  0  0  0  0  0  0
   21.8819  -10.4030  -15.9757 C   0  0  0  0  0  0  0  0  0  0  0  0
   20.6052   -9.6638  -15.9574 C   0  0  0  0  0  0  0  0  0  0  0  0
   19.3997  -10.4860  -15.7233 C   0  0  0  0  0  0  0  0  0  0  0  0
   19.4743  -11.6926  -15.4829 O   0  0  0  0  0  0  0  0  0  0  0  0
   23.3322   -8.4177  -15.4562 C   0  0  0  0  0  0  0  0  0  0  0  0
   23.9144   -8.4168  -14.3390 O   0  0  0  0  0  0  0  0  0  0  0  0
   18.1140   -9.9206  -15.7658 O   0  0  0  0  0  0  0  0  0  0  0  0
   22.6187   -4.4729  -17.2024 C   0  0  0  0  0  0  0  0  0  0  0  0
   23.5461   -4.7749  -16.0585 C   0  0  1  0  0  0  0  0  0  0  0  0
   23.8401   -3.6128  -15.3919 O   0  0  0  0  0  0  0  0  0  0  0  0
   23.0913   -5.9055  -15.2060 C   0  0  2  0  0  0  0  0  0  0  0  0
   22.8802   -7.1542  -15.9094 N   0  0  0  0  0  0  0  0  0  0  0  0
   21.8507   -5.5726  -14.4627 C   0  0  0  0  0  0  0  0  0  0  0  0
   20.7812   -6.2345  -14.6382 O   0  0  0  0  0  0  0  0  0  0  0  0
   21.8475   -4.5311  -13.5694 O   0  0  0  0  0  0  0  0  0  0  0  0
  2  1  1  6
  3  2  1  0
  3  4  1  0
  5  2  1  0
  6  5  2  0
  7  5  1  0
  8 13  1  0
  8  7  1  0
  8  9  1  1
 10  9  1  0
 11 10  1  0
 12 11  2  0
 13 14  2  0
 15 11  1  0
 17 16  1  6
 17 19  1  0
 17 18  1  0
 19 20  1  6
 20 13  1  0
 21 23  1  0
 21 19  1  0
 22 21  2  0
M  END
$$$$
