CET.pdb
     RDKit          3D

 23 22  0  0  1  0  0  0  0  0999 V2000
   20.2503  -10.9961  -15.1456 N   0  0  0  0  0  0  0  0  0  0  0  0
   20.9692  -10.5235  -16.3009 C   0  0  1  0  0  0  0  0  0  0  0  0
   20.5364  -11.3769  -17.4782 C   0  0  0  0  0  0  0  0  0  0  0  0
   21.4036  -12.9597  -17.3966 S   0  0  0  0  0  0  0  0  0  0  0  0
   20.6599   -9.0750  -16.5833 C   0  0  0  0  0  0  0  0  0  0  0  0
   19.4650   -8.8232  -16.8705 O   0  0  0  0  0  0  0  0  0  0  0  0
   21.6907   -8.1048  -16.5139 N   0  0  0  0  0  0  0  0  0  0  0  0
   21.4130   -6.7193  -16.7948 C   0  0  1  0  0  0  0  0  0  0  0  0
   21.2018   -6.0247  -15.4910 C   0  0  0  0  0  0  0  0  0  0  0  0
   22.2267   -6.2241  -14.4487 C   0  0  0  0  0  0  0  0  0  0  0  0
   21.9775   -5.5229  -13.1719 C   0  0  0  0  0  0  0  0  0  0  0  0
   22.7603   -5.6051  -12.2233 O   0  0  0  0  0  0  0  0  0  0  0  0
   22.4207   -6.1590  -17.6845 C   0  0  0  0  0  0  0  0  0  0  0  0
   23.5959   -6.6034  -17.7761 O   0  0  0  0  0  0  0  0  0  0  0  0
   20.8316   -4.7306  -12.9886 O   0  0  0  0  0  0  0  0  0  0  0  0
   22.4880   -5.8430  -21.4933 C   0  0  0  0  0  0  0  0  0  0  0  0
   22.5582   -4.4717  -20.8814 C   0  0  1  0  0  0  0  0  0  0  0  0
   21.3752   -3.8136  -21.1022 O   0  0  0  0  0  0  0  0  0  0  0  0
   23.0388   -4.4716  -19.4740 C   0  0  2  0  0  0  0  0  0  0  0  0
   22.1207   -5.0517  -18.5153 N   0  0  0  0  0  0  0  0  0  0  0  0
   23.3959   -3.1072  -19.0122 C   0  0  0  0  0  0  0  0  0  0  0  0
   22.7803   -2.5574  -18.0471 O   0  0  0  0  0  0  0  0  0  0  0  0
   24.4060   -2.4174  -19.6341 O   0  0  0  0  0  0  0  0  0  0  0  0
  2  1  1  1
  3  2  1  0
  3  4  1  0
  5  2  1  0
  6  5  2  0
  7  5  1  0
  8 13  1  0
  8  7  1  0
  8  9  1  1
 10  9  1  0
 11 10  1  0
 12 11  2  0
 13 14  2  0
 15 11  1  0
 17 16  1  1
 17 19  1  0
 17 18  1  0
 19 20  1  1
 20 13  1  0
 21 23  1  0
 21 19  1  0
 22 21  2  0
M  END
$$$$
