CET.pdb
     RDKit          3D

 23 22  0  0  1  0  0  0  0  0999 V2000
   24.7741  -12.7598  -17.3794 N   0  0  0  0  0  0  0  0  0  0  0  0
   24.2287  -12.2238  -16.1587 C   0  0  1  0  0  0  0  0  0  0  0  0
   25.4003  -11.8117  -15.2872 C   0  0  0  0  0  0  0  0  0  0  0  0
   26.2640  -10.4413  -16.0872 S   0  0  0  0  0  0  0  0  0  0  0  0
   23.3523  -11.0271  -16.4297 C   0  0  0  0  0  0  0  0  0  0  0  0
   23.5682  -10.4329  -17.5132 O   0  0  0  0  0  0  0  0  0  0  0  0
   22.3657  -10.6445  -15.4868 N   0  0  0  0  0  0  0  0  0  0  0  0
   21.5473   -9.4808  -15.7140 C   0  0  1  0  0  0  0  0  0  0  0  0
   20.1290   -9.8648  -15.4535 C   0  0  0  0  0  0  0  0  0  0  0  0
   19.1057   -8.8159  -15.6246 C   0  0  0  0  0  0  0  0  0  0  0  0
   17.7133   -9.2407  -15.3699 C   0  0  0  0  0  0  0  0  0  0  0  0
   16.7883   -8.4284  -15.3090 O   0  0  0  0  0  0  0  0  0  0  0  0
   22.0644   -8.3329  -14.9821 C   0  0  0  0  0  0  0  0  0  0  0  0
   22.5934   -8.4126  -13.8415 O   0  0  0  0  0  0  0  0  0  0  0  0
   17.3880  -10.5953  -15.1863 O   0  0  0  0  0  0  0  0  0  0  0  0
   24.5531   -5.4776  -16.2975 C   0  0  0  0  0  0  0  0  0  0  0  0
   23.2540   -4.9145  -15.7924 C   0  0  1  0  0  0  0  0  0  0  0  0
   22.5337   -4.4148  -16.8473 O   0  0  0  0  0  0  0  0  0  0  0  0
   22.5146   -5.8388  -14.8919 C   0  0  2  0  0  0  0  0  0  0  0  0
   21.9950   -7.0296  -15.5324 N   0  0  0  0  0  0  0  0  0  0  0  0
   21.3950   -5.1555  -14.1976 C   0  0  0  0  0  0  0  0  0  0  0  0
   20.1913   -5.5198  -14.3743 O   0  0  0  0  0  0  0  0  0  0  0  0
   21.6537   -4.1083  -13.3494 O   0  0  0  0  0  0  0  0  0  0  0  0
  2  1  1  6
  3  2  1  0
  3  4  1  0
  5  2  1  0
  6  5  2  0
  7  5  1  0
  8 13  1  0
  8  7  1  0
  8  9  1  1
 10  9  1  0
 11 10  1  0
 12 11  2  0
 13 14  2  0
 15 11  1  0
 17 16  1  6
 17 19  1  0
 17 18  1  0
 19 20  1  6
 20 13  1  0
 21 23  1  0
 21 19  1  0
 22 21  2  0
M  END
$$$$
