CET.pdb
     RDKit          3D

 23 22  0  0  1  0  0  0  0  0999 V2000
   18.2410  -11.4893  -16.2467 N   0  0  0  0  0  0  0  0  0  0  0  0
   18.3470  -10.2551  -16.9818 C   0  0  1  0  0  0  0  0  0  0  0  0
   17.1638  -10.1947  -17.9296 C   0  0  0  0  0  0  0  0  0  0  0  0
   17.3770  -11.4572  -19.2041 S   0  0  0  0  0  0  0  0  0  0  0  0
   18.3187   -9.0636  -16.0582 C   0  0  0  0  0  0  0  0  0  0  0  0
   17.5645   -9.1698  -15.0615 O   0  0  0  0  0  0  0  0  0  0  0  0
   19.1127   -7.9256  -16.3468 N   0  0  0  0  0  0  0  0  0  0  0  0
   19.0900   -6.7768  -15.4776 C   0  0  1  0  0  0  0  0  0  0  0  0
   20.4736   -6.5734  -14.9571 C   0  0  0  0  0  0  0  0  0  0  0  0
   20.7155   -5.3670  -14.1428 C   0  0  0  0  0  0  0  0  0  0  0  0
   22.1130   -5.1666  -13.7058 C   0  0  0  0  0  0  0  0  0  0  0  0
   22.4772   -4.1260  -13.1546 O   0  0  0  0  0  0  0  0  0  0  0  0
   18.4600   -5.6411  -16.1365 C   0  0  0  0  0  0  0  0  0  0  0  0
   18.6963   -5.3058  -17.3276 O   0  0  0  0  0  0  0  0  0  0  0  0
   23.0865   -6.1605  -13.9030 O   0  0  0  0  0  0  0  0  0  0  0  0
   14.8538   -2.1913  -16.1076 C   0  0  0  0  0  0  0  0  0  0  0  0
   15.4777   -3.4406  -15.5509 C   0  0  1  0  0  0  0  0  0  0  0  0
   14.6180   -4.4951  -15.7246 O   0  0  0  0  0  0  0  0  0  0  0  0
   16.8723   -3.6672  -16.0152 C   0  0  2  0  0  0  0  0  0  0  0  0
   17.5226   -4.8315  -15.4494 N   0  0  0  0  0  0  0  0  0  0  0  0
   17.7352   -2.4850  -15.7700 C   0  0  0  0  0  0  0  0  0  0  0  0
   18.6846   -2.5270  -14.9277 O   0  0  0  0  0  0  0  0  0  0  0  0
   17.5100   -1.3196  -16.4586 O   0  0  0  0  0  0  0  0  0  0  0  0
  2  1  1  1
  3  2  1  0
  3  4  1  0
  5  2  1  0
  6  5  2  0
  7  5  1  0
  8 13  1  0
  8  7  1  0
  8  9  1  6
 10  9  1  0
 11 10  1  0
 12 11  2  0
 13 14  2  0
 15 11  1  0
 17 16  1  6
 17 19  1  0
 17 18  1  0
 19 20  1  1
 20 13  1  0
 21 23  1  0
 21 19  1  0
 22 21  2  0
M  END
$$$$
