CET.pdb
     RDKit          3D

 23 22  0  0  1  0  0  0  0  0999 V2000
   17.5257  -14.6511  -15.9218 N   0  0  0  0  0  0  0  0  0  0  0  0
   17.0569  -13.3381  -16.2838 C   0  0  1  0  0  0  0  0  0  0  0  0
   15.9099  -12.9986  -15.3505 C   0  0  0  0  0  0  0  0  0  0  0  0
   14.4563  -13.9485  -15.8491 S   0  0  0  0  0  0  0  0  0  0  0  0
   18.1490  -12.3083  -16.1412 C   0  0  0  0  0  0  0  0  0  0  0  0
   18.8957  -12.4465  -15.1428 O   0  0  0  0  0  0  0  0  0  0  0  0
   18.2764  -11.2743  -17.1022 N   0  0  0  0  0  0  0  0  0  0  0  0
   19.3414  -10.3092  -17.0032 C   0  0  1  0  0  0  0  0  0  0  0  0
   19.7347   -9.9225  -18.3898 C   0  0  0  0  0  0  0  0  0  0  0  0
   20.7897   -8.9007  -18.5297 C   0  0  0  0  0  0  0  0  0  0  0  0
   21.1799   -8.5781  -19.9181 C   0  0  0  0  0  0  0  0  0  0  0  0
   22.0454   -7.7373  -20.1698 O   0  0  0  0  0  0  0  0  0  0  0  0
   18.9793   -9.2294  -16.0955 C   0  0  0  0  0  0  0  0  0  0  0  0
   17.8873   -8.6041  -16.1548 O   0  0  0  0  0  0  0  0  0  0  0  0
   20.5757   -9.2211  -21.0117 O   0  0  0  0  0  0  0  0  0  0  0  0
   18.2788   -9.0987  -12.4708 C   0  0  0  0  0  0  0  0  0  0  0  0
   19.4531   -8.1914  -12.7106 C   0  0  1  0  0  0  0  0  0  0  0  0
   20.5776   -8.7456  -12.1543 O   0  0  0  0  0  0  0  0  0  0  0  0
   19.5873   -7.7527  -14.1254 C   0  0  2  0  0  0  0  0  0  0  0  0
   19.8645   -8.8151  -15.0704 N   0  0  0  0  0  0  0  0  0  0  0  0
   20.6263   -6.7048  -14.2826 C   0  0  0  0  0  0  0  0  0  0  0  0
   21.6537   -6.9001  -15.0031 O   0  0  0  0  0  0  0  0  0  0  0  0
   20.4855   -5.5005  -13.6401 O   0  0  0  0  0  0  0  0  0  0  0  0
  2  1  1  1
  3  2  1  0
  3  4  1  0
  5  2  1  0
  6  5  2  0
  7  5  1  0
  8 13  1  0
  8  7  1  0
  8  9  1  6
 10  9  1  0
 11 10  1  0
 12 11  2  0
 13 14  2  0
 15 11  1  0
 17 16  1  6
 17 19  1  0
 17 18  1  0
 19 20  1  6
 20 13  1  0
 21 23  1  0
 21 19  1  0
 22 21  2  0
M  END
$$$$
