NTQ.pdb
     RDKit          3D

 25 24  0  0  1  0  0  0  0  0999 V2000
   15.4668  -12.5410  -16.9734 N   0  0  0  0  0  0  0  0  0  0  0  0
   15.4438  -11.8336  -15.7430 C   0  0  0  0  0  0  0  0  0  0  0  0
   14.3726  -11.6058  -15.1296 O   0  0  0  0  0  0  0  0  0  0  0  0
   16.7061  -11.3561  -15.1727 C   0  0  0  0  0  0  0  0  0  0  0  0
   17.8946  -11.6445  -16.0815 C   0  0  2  0  0  0  0  0  0  0  0  0
   18.2369  -13.0497  -16.0439 N   0  0  0  0  0  0  0  0  0  0  0  0
   19.0354  -10.8653  -15.5318 C   0  0  0  0  0  0  0  0  0  0  0  0
   19.6650  -11.3364  -14.5316 O   0  0  0  0  0  0  0  0  0  0  0  0
   22.0938   -9.8958  -17.2014 C   0  0  0  0  0  0  0  0  0  0  0  0
   21.5468   -8.6063  -16.6345 C   0  0  1  0  0  0  0  0  0  0  0  0
   20.9593   -7.9107  -17.6901 O   0  0  0  0  0  0  0  0  0  0  0  0
   20.5644   -8.8611  -15.5146 C   0  0  2  0  0  0  0  0  0  0  0  0
   19.4608   -9.6254  -16.0609 N   0  0  0  0  0  0  0  0  0  0  0  0
   20.1174   -7.6156  -14.8667 C   0  0  0  0  0  0  0  0  0  0  0  0
   18.9105   -7.3039  -14.8962 O   0  0  0  0  0  0  0  0  0  0  0  0
   17.9090   -6.4378  -10.3463 N   0  0  0  0  0  0  0  0  0  0  0  0
   18.3089   -5.1002  -10.5026 C   0  0  0  0  0  0  0  0  0  0  0  0
   17.8822   -4.2184   -9.7458 O   0  0  0  0  0  0  0  0  0  0  0  0
   19.2593   -4.7407  -11.5947 C   0  0  0  0  0  0  0  0  0  0  0  0
   19.6452   -5.9599  -12.3970 C   0  0  0  0  0  0  0  0  0  0  0  0
   20.5936   -5.5887  -13.4943 C   0  0  2  0  0  0  0  0  0  0  0  0
   21.0419   -6.7832  -14.2187 N   0  0  0  0  0  0  0  0  0  0  0  0
   21.7516   -4.7977  -13.0984 C   0  0  0  0  0  0  0  0  0  0  0  0
   21.7644   -3.4399  -12.8732 O   0  0  0  0  0  0  0  0  0  0  0  0
   22.8722   -5.3918  -12.9391 O   0  0  0  0  0  0  0  0  0  0  0  0
  1  2  1  0
  2  3  2  0
  4  2  1  0
  4  5  1  0
  5  6  1  1
  7  5  1  0
  7  8  2  0
 10  9  1  6
 10 12  1  0
 10 11  1  0
 12 13  1  6
 13  7  1  0
 14 12  1  0
 15 14  2  0
 17 16  1  0
 18 17  2  0
 19 20  1  0
 19 17  1  0
 21 20  1  1
 21 23  1  0
 21 22  1  0
 22 14  1  0
 23 24  1  0
 25 23  2  0
M  END
$$$$
