NTQ.pdb
     RDKit          3D

 25 24  0  0  1  0  0  0  0  0999 V2000
   23.1847  -21.6210   -8.3075 N   0  0  0  0  0  0  0  0  0  0  0  0
   22.5071  -20.8928   -9.3201 C   0  0  0  0  0  0  0  0  0  0  0  0
   21.2864  -20.6139   -9.2315 O   0  0  0  0  0  0  0  0  0  0  0  0
   23.2535  -20.4539  -10.5020 C   0  0  0  0  0  0  0  0  0  0  0  0
   24.6885  -20.9660  -10.5002 C   0  0  2  0  0  0  0  0  0  0  0  0
   25.3936  -20.5050   -9.3240 N   0  0  0  0  0  0  0  0  0  0  0  0
   25.3395  -20.3797  -11.7016 C   0  0  0  0  0  0  0  0  0  0  0  0
   25.9110  -19.2485  -11.5897 O   0  0  0  0  0  0  0  0  0  0  0  0
   27.9720  -21.6314  -13.9223 C   0  0  0  0  0  0  0  0  0  0  0  0
   26.8183  -21.2959  -14.8387 C   0  0  1  0  0  0  0  0  0  0  0  0
   26.2250  -22.5015  -15.2098 O   0  0  0  0  0  0  0  0  0  0  0  0
   25.8300  -20.3652  -14.1742 C   0  0  2  0  0  0  0  0  0  0  0  0
   25.3586  -21.0118  -12.9658 N   0  0  0  0  0  0  0  0  0  0  0  0
   24.7265  -19.9845  -15.0733 C   0  0  0  0  0  0  0  0  0  0  0  0
   23.5559  -20.2977  -14.7798 O   0  0  0  0  0  0  0  0  0  0  0  0
   20.5998  -18.4015  -15.6495 N   0  0  0  0  0  0  0  0  0  0  0  0
   20.7038  -17.4592  -16.6862 C   0  0  0  0  0  0  0  0  0  0  0  0
   19.6956  -16.9027  -17.1404 O   0  0  0  0  0  0  0  0  0  0  0  0
   22.0465  -17.1269  -17.2447 C   0  0  0  0  0  0  0  0  0  0  0  0
   23.1462  -17.6791  -16.3700 C   0  0  0  0  0  0  0  0  0  0  0  0
   23.8876  -18.7676  -17.0817 C   0  0  2  0  0  0  0  0  0  0  0  0
   24.9881  -19.2730  -16.2534 N   0  0  0  0  0  0  0  0  0  0  0  0
   24.3909  -18.4368  -18.4086 C   0  0  0  0  0  0  0  0  0  0  0  0
   25.4535  -17.6072  -18.6866 O   0  0  0  0  0  0  0  0  0  0  0  0
   23.8118  -18.9481  -19.4271 O   0  0  0  0  0  0  0  0  0  0  0  0
  1  2  1  0
  2  3  2  0
  4  2  1  0
  4  5  1  0
  5  6  1  1
  7  5  1  0
  7  8  2  0
 10  9  1  1
 10 12  1  0
 10 11  1  0
 12 13  1  1
 13  7  1  0
 14 12  1  0
 15 14  2  0
 17 16  1  0
 18 17  2  0
 19 20  1  0
 19 17  1  0
 21 20  1  1
 21 23  1  0
 21 22  1  0
 22 14  1  0
 23 24  1  0
 25 23  2  0
M  END
$$$$
