NTQ.pdb
     RDKit          3D

 25 24  0  0  1  0  0  0  0  0999 V2000
   18.8568  -11.8085    4.7607 N   0  0  0  0  0  0  0  0  0  0  0  0
   19.4208  -12.7003    5.7101 C   0  0  0  0  0  0  0  0  0  0  0  0
   20.4653  -12.4173    6.3462 O   0  0  0  0  0  0  0  0  0  0  0  0
   18.7651  -13.9875    5.9549 C   0  0  0  0  0  0  0  0  0  0  0  0
   17.5310  -14.1806    5.0824 C   0  0  2  0  0  0  0  0  0  0  0  0
   16.4555  -13.3182    5.5211 N   0  0  0  0  0  0  0  0  0  0  0  0
   17.1090  -15.5942    5.2681 C   0  0  0  0  0  0  0  0  0  0  0  0
   16.4148  -15.8897    6.2926 O   0  0  0  0  0  0  0  0  0  0  0  0
   16.5788  -20.0764    3.1966 C   0  0  0  0  0  0  0  0  0  0  0  0
   17.2691  -18.7328    3.2362 C   0  0  1  0  0  0  0  0  0  0  0  0
   16.8251  -18.0106    2.1297 O   0  0  0  0  0  0  0  0  0  0  0  0
   16.9945  -18.0020    4.5303 C   0  0  2  0  0  0  0  0  0  0  0  0
   17.4377  -16.6319    4.3662 N   0  0  0  0  0  0  0  0  0  0  0  0
   17.6229  -18.6594    5.6896 C   0  0  0  0  0  0  0  0  0  0  0  0
   18.6772  -18.1943    6.1657 O   0  0  0  0  0  0  0  0  0  0  0  0
   20.0814  -20.2842   10.9914 N   0  0  0  0  0  0  0  0  0  0  0  0
   18.8492  -19.7145   10.6299 C   0  0  0  0  0  0  0  0  0  0  0  0
   18.5763  -18.5468   10.9373 O   0  0  0  0  0  0  0  0  0  0  0  0
   17.8594  -20.5285    9.8665 C   0  0  0  0  0  0  0  0  0  0  0  0
   17.3319  -19.7611    8.6782 C   0  0  0  0  0  0  0  0  0  0  0  0
   17.6670  -20.4705    7.4032 C   0  0  2  0  0  0  0  0  0  0  0  0
   17.0402  -19.8020    6.2575 N   0  0  0  0  0  0  0  0  0  0  0  0
   17.3584  -21.8941    7.3633 C   0  0  0  0  0  0  0  0  0  0  0  0
   18.1077  -22.8999    7.9302 O   0  0  0  0  0  0  0  0  0  0  0  0
   16.3019  -22.2737    6.7519 O   0  0  0  0  0  0  0  0  0  0  0  0
  1  2  1  0
  2  3  2  0
  4  2  1  0
  4  5  1  0
  5  6  1  1
  7  5  1  0
  7  8  2  0
 10  9  1  1
 10 12  1  0
 10 11  1  0
 12 13  1  6
 13  7  1  0
 14 12  1  0
 15 14  2  0
 17 16  1  0
 18 17  2  0
 19 20  1  0
 19 17  1  0
 21 20  1  1
 21 23  1  0
 21 22  1  0
 22 14  1  0
 23 24  1  0
 25 23  2  0
M  END
$$$$
