NTQ.pdb
     RDKit          3D

 25 24  0  0  1  0  0  0  0  0999 V2000
   26.5728  -22.3629  -17.3709 N   0  0  0  0  0  0  0  0  0  0  0  0
   27.0729  -22.3979  -16.0429 C   0  0  0  0  0  0  0  0  0  0  0  0
   28.2412  -22.7774  -15.7846 O   0  0  0  0  0  0  0  0  0  0  0  0
   26.2009  -21.9790  -14.9426 C   0  0  0  0  0  0  0  0  0  0  0  0
   24.7539  -21.8069  -15.3876 C   0  0  2  0  0  0  0  0  0  0  0  0
   24.6395  -20.7305  -16.3474 N   0  0  0  0  0  0  0  0  0  0  0  0
   23.9865  -21.4370  -14.1689 C   0  0  0  0  0  0  0  0  0  0  0  0
   24.4508  -20.5236  -13.4146 O   0  0  0  0  0  0  0  0  0  0  0  0
   22.8122  -19.2983  -13.1758 C   0  0  0  0  0  0  0  0  0  0  0  0
   21.5870  -20.1510  -12.9411 C   0  0  1  0  0  0  0  0  0  0  0  0
   20.7695  -20.0121  -14.0617 O   0  0  0  0  0  0  0  0  0  0  0  0
   21.9523  -21.5957  -12.6885 C   0  0  2  0  0  0  0  0  0  0  0  0
   22.7653  -22.0462  -13.8006 N   0  0  0  0  0  0  0  0  0  0  0  0
   20.7669  -22.4456  -12.4802 C   0  0  0  0  0  0  0  0  0  0  0  0
   20.2651  -23.0520  -13.4473 O   0  0  0  0  0  0  0  0  0  0  0  0
   18.7156  -24.8703   -7.0235 N   0  0  0  0  0  0  0  0  0  0  0  0
   17.6903  -25.2219   -7.9173 C   0  0  0  0  0  0  0  0  0  0  0  0
   16.7217  -25.8931   -7.5385 O   0  0  0  0  0  0  0  0  0  0  0  0
   17.7723  -24.7797   -9.3395 C   0  0  0  0  0  0  0  0  0  0  0  0
   18.9833  -23.9066   -9.5640 C   0  0  0  0  0  0  0  0  0  0  0  0
   19.0338  -23.4322  -10.9831 C   0  0  2  0  0  0  0  0  0  0  0  0
   20.2039  -22.5746  -11.2020 N   0  0  0  0  0  0  0  0  0  0  0  0
   17.8390  -22.7585  -11.4750 C   0  0  0  0  0  0  0  0  0  0  0  0
   16.8093  -23.3465  -12.1739 O   0  0  0  0  0  0  0  0  0  0  0  0
   17.7081  -21.5064  -11.2532 O   0  0  0  0  0  0  0  0  0  0  0  0
  1  2  1  0
  2  3  2  0
  4  2  1  0
  4  5  1  0
  5  6  1  6
  7  5  1  0
  7  8  2  0
 10  9  1  6
 10 12  1  0
 10 11  1  0
 12 13  1  6
 13  7  1  0
 14 12  1  0
 15 14  2  0
 17 16  1  0
 18 17  2  0
 19 20  1  0
 19 17  1  0
 21 20  1  1
 21 23  1  0
 21 22  1  0
 22 14  1  0
 23 24  1  0
 25 23  2  0
M  END
$$$$
