NTQ.pdb
     RDKit          3D

 25 24  0  0  1  0  0  0  0  0999 V2000
   13.1808  -11.3529  -10.2562 N   0  0  0  0  0  0  0  0  0  0  0  0
   12.8038  -10.1311   -9.6398 C   0  0  0  0  0  0  0  0  0  0  0  0
   11.7125  -10.0044   -9.0327 O   0  0  0  0  0  0  0  0  0  0  0  0
   13.7144   -8.9857   -9.7139 C   0  0  0  0  0  0  0  0  0  0  0  0
   14.9815   -9.3066  -10.4968 C   0  0  2  0  0  0  0  0  0  0  0  0
   15.8929  -10.0920   -9.6934 N   0  0  0  0  0  0  0  0  0  0  0  0
   15.6238   -8.0003  -10.7996 C   0  0  0  0  0  0  0  0  0  0  0  0
   15.0356   -7.2074  -11.6022 O   0  0  0  0  0  0  0  0  0  0  0  0
   15.9547   -5.1041   -9.0564 C   0  0  0  0  0  0  0  0  0  0  0  0
   17.3951   -5.4237   -9.3826 C   0  0  1  0  0  0  0  0  0  0  0  0
   17.9574   -5.9943   -8.2418 O   0  0  0  0  0  0  0  0  0  0  0  0
   17.5065   -6.3383  -10.5806 C   0  0  2  0  0  0  0  0  0  0  0  0
   16.8565   -7.5889  -10.2431 N   0  0  0  0  0  0  0  0  0  0  0  0
   18.9024   -6.5305  -11.0114 C   0  0  0  0  0  0  0  0  0  0  0  0
   19.5734   -7.4646  -10.5299 O   0  0  0  0  0  0  0  0  0  0  0  0
   20.3962   -9.2528  -15.2913 N   0  0  0  0  0  0  0  0  0  0  0  0
   21.6639   -8.6595  -15.1703 C   0  0  0  0  0  0  0  0  0  0  0  0
   22.6221   -9.0697  -15.8382 O   0  0  0  0  0  0  0  0  0  0  0  0
   21.8551   -7.5217  -14.2248 C   0  0  0  0  0  0  0  0  0  0  0  0
   20.5884   -7.2443  -13.4515 C   0  0  0  0  0  0  0  0  0  0  0  0
   20.7435   -6.0144  -12.6122 C   0  0  2  0  0  0  0  0  0  0  0  0
   19.4762   -5.6694  -11.9584 N   0  0  0  0  0  0  0  0  0  0  0  0
   21.2752   -4.8397  -13.2911 C   0  0  0  0  0  0  0  0  0  0  0  0
   22.6064   -4.5625  -13.5040 O   0  0  0  0  0  0  0  0  0  0  0  0
   20.4539   -3.9689  -13.7399 O   0  0  0  0  0  0  0  0  0  0  0  0
  1  2  1  0
  2  3  2  0
  4  2  1  0
  4  5  1  0
  5  6  1  1
  7  5  1  0
  7  8  2  0
 10  9  1  1
 10 12  1  0
 10 11  1  0
 12 13  1  1
 13  7  1  0
 14 12  1  0
 15 14  2  0
 17 16  1  0
 18 17  2  0
 19 20  1  0
 19 17  1  0
 21 20  1  6
 21 23  1  0
 21 22  1  0
 22 14  1  0
 23 24  1  0
 25 23  2  0
M  END
$$$$
