NTQ.pdb
     RDKit          3D

 25 24  0  0  1  0  0  0  0  0999 V2000
   17.2444  -13.8364  -16.4471 N   0  0  0  0  0  0  0  0  0  0  0  0
   18.6325  -14.1058  -16.3226 C   0  0  0  0  0  0  0  0  0  0  0  0
   19.0908  -15.2717  -16.4014 O   0  0  0  0  0  0  0  0  0  0  0  0
   19.5564  -12.9915  -16.0959 C   0  0  0  0  0  0  0  0  0  0  0  0
   18.8391  -11.6480  -16.0521 C   0  0  2  0  0  0  0  0  0  0  0  0
   18.4695  -11.2229  -17.3846 N   0  0  0  0  0  0  0  0  0  0  0  0
   19.8170  -10.6738  -15.4993 C   0  0  0  0  0  0  0  0  0  0  0  0
   20.4064  -10.9595  -14.4086 O   0  0  0  0  0  0  0  0  0  0  0  0
   21.2919   -7.4476  -17.8643 C   0  0  0  0  0  0  0  0  0  0  0  0
   22.0404   -8.1550  -16.7586 C   0  0  1  0  0  0  0  0  0  0  0  0
   23.0675   -7.3058  -16.3497 O   0  0  0  0  0  0  0  0  0  0  0  0
   21.1266   -8.5227  -15.6123 C   0  0  2  0  0  0  0  0  0  0  0  0
   20.1291   -9.4431  -16.1208 N   0  0  0  0  0  0  0  0  0  0  0  0
   20.5238   -7.3394  -14.9740 C   0  0  0  0  0  0  0  0  0  0  0  0
   19.4469   -6.8856  -15.4087 O   0  0  0  0  0  0  0  0  0  0  0  0
   18.2164   -6.4717   -9.8534 N   0  0  0  0  0  0  0  0  0  0  0  0
   18.3633   -5.1127  -10.1779 C   0  0  0  0  0  0  0  0  0  0  0  0
   17.8092   -4.2361   -9.5018 O   0  0  0  0  0  0  0  0  0  0  0  0
   19.1976   -4.7239  -11.3517 C   0  0  0  0  0  0  0  0  0  0  0  0
   19.7639   -5.9433  -12.0385 C   0  0  0  0  0  0  0  0  0  0  0  0
   20.5615   -5.5462  -13.2416 C   0  0  2  0  0  0  0  0  0  0  0  0
   21.1551   -6.7248  -13.8826 N   0  0  0  0  0  0  0  0  0  0  0  0
   21.5939   -4.5416  -13.0213 C   0  0  0  0  0  0  0  0  0  0  0  0
   22.8099   -4.7522  -12.4118 O   0  0  0  0  0  0  0  0  0  0  0  0
   21.3783   -3.3460  -13.4191 O   0  0  0  0  0  0  0  0  0  0  0  0
  1  2  1  0
  2  3  2  0
  4  2  1  0
  4  5  1  0
  5  6  1  6
  7  5  1  0
  7  8  2  0
 10  9  1  6
 10 12  1  0
 10 11  1  0
 12 13  1  6
 13  7  1  0
 14 12  1  0
 15 14  2  0
 17 16  1  0
 18 17  2  0
 19 20  1  0
 19 17  1  0
 21 20  1  1
 21 23  1  0
 21 22  1  0
 22 14  1  0
 23 24  1  0
 25 23  2  0
M  END
$$$$
