NTQ.pdb
     RDKit          3D

 25 24  0  0  1  0  0  0  0  0999 V2000
   18.0653  -17.5108  -17.1820 N   0  0  0  0  0  0  0  0  0  0  0  0
   19.0108  -16.4522  -17.1814 C   0  0  0  0  0  0  0  0  0  0  0  0
   20.2346  -16.6568  -16.9911 O   0  0  0  0  0  0  0  0  0  0  0  0
   18.5453  -15.0818  -17.4095 C   0  0  0  0  0  0  0  0  0  0  0  0
   18.9784  -14.1336  -16.2982 C   0  0  2  0  0  0  0  0  0  0  0  0
   18.1725  -14.3335  -15.1135 N   0  0  0  0  0  0  0  0  0  0  0  0
   18.7355  -12.7583  -16.8086 C   0  0  0  0  0  0  0  0  0  0  0  0
   18.2675  -12.6221  -17.9838 O   0  0  0  0  0  0  0  0  0  0  0  0
   16.2832  -10.7839  -15.8652 C   0  0  0  0  0  0  0  0  0  0  0  0
   17.2017  -10.2925  -16.9599 C   0  0  1  0  0  0  0  0  0  0  0  0
   16.7481   -9.0305  -17.3404 O   0  0  0  0  0  0  0  0  0  0  0  0
   18.6428  -10.2574  -16.5057 C   0  0  2  0  0  0  0  0  0  0  0  0
   18.9969  -11.5895  -16.0577 N   0  0  0  0  0  0  0  0  0  0  0  0
   18.8795   -9.2363  -15.4701 C   0  0  0  0  0  0  0  0  0  0  0  0
   18.6251   -9.4968  -14.2777 O   0  0  0  0  0  0  0  0  0  0  0  0
   22.9964   -4.5242  -15.7313 N   0  0  0  0  0  0  0  0  0  0  0  0
   22.2994   -4.2332  -14.5468 C   0  0  0  0  0  0  0  0  0  0  0  0
   22.6270   -3.2725  -13.8383 O   0  0  0  0  0  0  0  0  0  0  0  0
   21.1509   -5.0939  -14.1402 C   0  0  0  0  0  0  0  0  0  0  0  0
   20.8709   -6.1482  -15.1839 C   0  0  0  0  0  0  0  0  0  0  0  0
   19.6893   -6.9783  -14.7889 C   0  0  2  0  0  0  0  0  0  0  0  0
   19.3890   -7.9774  -15.8205 N   0  0  0  0  0  0  0  0  0  0  0  0
   18.4752   -6.2448  -14.4553 C   0  0  0  0  0  0  0  0  0  0  0  0
   18.1319   -5.7743  -13.2082 O   0  0  0  0  0  0  0  0  0  0  0  0
   17.6325   -6.0021  -15.3854 O   0  0  0  0  0  0  0  0  0  0  0  0
  1  2  1  0
  2  3  2  0
  4  2  1  0
  4  5  1  0
  5  6  1  1
  7  5  1  0
  7  8  2  0
 10  9  1  1
 10 12  1  0
 10 11  1  0
 12 13  1  1
 13  7  1  0
 14 12  1  0
 15 14  2  0
 17 16  1  0
 18 17  2  0
 19 20  1  0
 19 17  1  0
 21 20  1  6
 21 23  1  0
 21 22  1  0
 22 14  1  0
 23 24  1  0
 25 23  2  0
M  END
$$$$
