NTQ.pdb
     RDKit          3D

 25 24  0  0  1  0  0  0  0  0999 V2000
   15.9569  -15.5611  -14.3391 N   0  0  0  0  0  0  0  0  0  0  0  0
   17.2011  -15.5499  -15.0222 C   0  0  0  0  0  0  0  0  0  0  0  0
   17.9464  -16.5593  -15.0581 O   0  0  0  0  0  0  0  0  0  0  0  0
   17.6274  -14.3257  -15.7050 C   0  0  0  0  0  0  0  0  0  0  0  0
   16.6229  -13.1924  -15.5366 C   0  0  2  0  0  0  0  0  0  0  0  0
   15.4560  -13.4177  -16.3615 N   0  0  0  0  0  0  0  0  0  0  0  0
   17.3057  -11.9594  -16.0104 C   0  0  0  0  0  0  0  0  0  0  0  0
   18.5239  -12.0410  -16.3684 O   0  0  0  0  0  0  0  0  0  0  0  0
   16.2270   -9.9183  -18.8740 C   0  0  0  0  0  0  0  0  0  0  0  0
   16.3779   -8.9671  -17.7096 C   0  0  1  0  0  0  0  0  0  0  0  0
   15.1002   -8.7299  -17.2051 O   0  0  0  0  0  0  0  0  0  0  0  0
   17.3047   -9.5217  -16.6522 C   0  0  2  0  0  0  0  0  0  0  0  0
   16.6741  -10.6970  -16.0852 N   0  0  0  0  0  0  0  0  0  0  0  0
   17.6488   -8.5206  -15.6273 C   0  0  0  0  0  0  0  0  0  0  0  0
   16.9977   -8.4769  -14.5648 O   0  0  0  0  0  0  0  0  0  0  0  0
   22.4821   -3.5750  -15.0061 N   0  0  0  0  0  0  0  0  0  0  0  0
   22.1979   -4.6301  -14.1231 C   0  0  0  0  0  0  0  0  0  0  0  0
   23.1010   -5.1751  -13.4752 O   0  0  0  0  0  0  0  0  0  0  0  0
   20.7901   -5.0974  -13.9661 C   0  0  0  0  0  0  0  0  0  0  0  0
   20.4396   -6.1179  -15.0221 C   0  0  0  0  0  0  0  0  0  0  0  0
   19.0360   -6.6049  -14.8374 C   0  0  2  0  0  0  0  0  0  0  0  0
   18.7029   -7.6206  -15.8423 N   0  0  0  0  0  0  0  0  0  0  0  0
   18.0004   -5.5798  -14.8212 C   0  0  0  0  0  0  0  0  0  0  0  0
   17.5212   -4.9324  -13.7051 O   0  0  0  0  0  0  0  0  0  0  0  0
   17.4690   -5.2300  -15.9300 O   0  0  0  0  0  0  0  0  0  0  0  0
  1  2  1  0
  2  3  2  0
  4  2  1  0
  4  5  1  0
  5  6  1  6
  7  5  1  0
  7  8  2  0
 10  9  1  6
 10 12  1  0
 10 11  1  0
 12 13  1  1
 13  7  1  0
 14 12  1  0
 15 14  2  0
 17 16  1  0
 18 17  2  0
 19 20  1  0
 19 17  1  0
 21 20  1  6
 21 23  1  0
 21 22  1  0
 22 14  1  0
 23 24  1  0
 25 23  2  0
M  END
$$$$
