NTQ.pdb
     RDKit          3D

 25 24  0  0  1  0  0  0  0  0999 V2000
   20.3023  -22.9606   -7.8067 N   0  0  0  0  0  0  0  0  0  0  0  0
   19.6870  -22.3122   -8.9094 C   0  0  0  0  0  0  0  0  0  0  0  0
   18.4584  -22.4226   -9.1417 O   0  0  0  0  0  0  0  0  0  0  0  0
   20.5092  -21.4906   -9.8014 C   0  0  0  0  0  0  0  0  0  0  0  0
   21.9868  -21.5419   -9.4332 C   0  0  2  0  0  0  0  0  0  0  0  0
   22.2118  -20.9353   -8.1392 N   0  0  0  0  0  0  0  0  0  0  0  0
   22.6986  -20.7384  -10.4621 C   0  0  0  0  0  0  0  0  0  0  0  0
   22.7863  -19.4802  -10.2944 O   0  0  0  0  0  0  0  0  0  0  0  0
   26.1758  -21.3379  -11.7788 C   0  0  0  0  0  0  0  0  0  0  0  0
   25.2564  -21.2285  -12.9730 C   0  0  1  0  0  0  0  0  0  0  0  0
   25.0178  -22.5247  -13.4272 O   0  0  0  0  0  0  0  0  0  0  0  0
   23.9727  -20.5106  -12.6253 C   0  0  2  0  0  0  0  0  0  0  0  0
   23.2853  -21.2970  -11.6205 N   0  0  0  0  0  0  0  0  0  0  0  0
   23.1335  -20.2572  -13.8096 C   0  0  0  0  0  0  0  0  0  0  0  0
   21.9051  -20.4622  -13.7503 O   0  0  0  0  0  0  0  0  0  0  0  0
   19.1121  -17.6261  -17.2762 N   0  0  0  0  0  0  0  0  0  0  0  0
   19.9475  -17.3185  -16.1894 C   0  0  0  0  0  0  0  0  0  0  0  0
   19.4824  -17.1867  -15.0498 O   0  0  0  0  0  0  0  0  0  0  0  0
   21.4124  -17.1494  -16.4141 C   0  0  0  0  0  0  0  0  0  0  0  0
   22.2079  -17.9037  -15.3761 C   0  0  0  0  0  0  0  0  0  0  0  0
   22.8987  -19.0790  -15.9948 C   0  0  2  0  0  0  0  0  0  0  0  0
   23.7102  -19.7872  -14.9987 N   0  0  0  0  0  0  0  0  0  0  0  0
   23.7110  -18.7969  -17.1713 C   0  0  0  0  0  0  0  0  0  0  0  0
   23.2454  -18.6449  -18.4576 O   0  0  0  0  0  0  0  0  0  0  0  0
   24.9752  -18.6752  -17.0264 O   0  0  0  0  0  0  0  0  0  0  0  0
  1  2  1  0
  2  3  2  0
  4  2  1  0
  4  5  1  0
  5  6  1  1
  7  5  1  0
  7  8  2  0
 10  9  1  1
 10 12  1  0
 10 11  1  0
 12 13  1  1
 13  7  1  0
 14 12  1  0
 15 14  2  0
 17 16  1  0
 18 17  2  0
 19 20  1  0
 19 17  1  0
 21 20  1  1
 21 23  1  0
 21 22  1  0
 22 14  1  0
 23 24  1  0
 25 23  2  0
M  END
$$$$
