NTQ.pdb
     RDKit          3D

 25 24  0  0  1  0  0  0  0  0999 V2000
   16.4143  -15.7736  -15.2985 N   0  0  0  0  0  0  0  0  0  0  0  0
   17.5256  -15.0906  -14.7387 C   0  0  0  0  0  0  0  0  0  0  0  0
   18.1164  -15.5137  -13.7151 O   0  0  0  0  0  0  0  0  0  0  0  0
   17.9967  -13.8571  -15.3737 C   0  0  0  0  0  0  0  0  0  0  0  0
   17.0779  -13.4020  -16.5007 C   0  0  2  0  0  0  0  0  0  0  0  0
   17.2479  -14.2399  -17.6678 N   0  0  0  0  0  0  0  0  0  0  0  0
   17.4996  -12.0187  -16.8465 C   0  0  0  0  0  0  0  0  0  0  0  0
   18.5663  -11.8615  -17.5219 O   0  0  0  0  0  0  0  0  0  0  0  0
   15.3948   -9.6932  -18.6837 C   0  0  0  0  0  0  0  0  0  0  0  0
   15.9000   -8.8972  -17.5027 C   0  0  1  0  0  0  0  0  0  0  0  0
   14.8530   -8.8136  -16.5862 O   0  0  0  0  0  0  0  0  0  0  0  0
   17.1316   -9.5253  -16.8920 C   0  0  2  0  0  0  0  0  0  0  0  0
   16.7784  -10.8644  -16.4647 N   0  0  0  0  0  0  0  0  0  0  0  0
   17.6884   -8.7152  -15.7944 C   0  0  0  0  0  0  0  0  0  0  0  0
   17.6055   -9.1271  -14.6204 O   0  0  0  0  0  0  0  0  0  0  0  0
   22.9942   -6.0605  -15.1053 N   0  0  0  0  0  0  0  0  0  0  0  0
   22.2909   -5.4199  -14.0715 C   0  0  0  0  0  0  0  0  0  0  0  0
   22.8801   -4.6977  -13.2569 O   0  0  0  0  0  0  0  0  0  0  0  0
   20.8164   -5.6140  -13.9563 C   0  0  0  0  0  0  0  0  0  0  0  0
   20.3054   -6.5250  -15.0464 C   0  0  0  0  0  0  0  0  0  0  0  0
   18.8152   -6.6476  -14.9735 C   0  0  2  0  0  0  0  0  0  0  0  0
   18.3098   -7.4873  -16.0653 N   0  0  0  0  0  0  0  0  0  0  0  0
   18.0713   -5.3951  -14.9399 C   0  0  0  0  0  0  0  0  0  0  0  0
   17.7768   -4.6597  -13.8143 O   0  0  0  0  0  0  0  0  0  0  0  0
   17.6390   -4.9110  -16.0413 O   0  0  0  0  0  0  0  0  0  0  0  0
  1  2  1  0
  2  3  2  0
  4  2  1  0
  4  5  1  0
  5  6  1  6
  7  5  1  0
  7  8  2  0
 10  9  1  6
 10 12  1  0
 10 11  1  0
 12 13  1  1
 13  7  1  0
 14 12  1  0
 15 14  2  0
 17 16  1  0
 18 17  2  0
 19 20  1  0
 19 17  1  0
 21 20  1  6
 21 23  1  0
 21 22  1  0
 22 14  1  0
 23 24  1  0
 25 23  2  0
M  END
$$$$
