NTQ.pdb
     RDKit          3D

 25 24  0  0  1  0  0  0  0  0999 V2000
   28.5361  -10.0876  -16.0996 N   0  0  0  0  0  0  0  0  0  0  0  0
   27.7887  -10.5094  -17.2302 C   0  0  0  0  0  0  0  0  0  0  0  0
   28.3285  -11.0941  -18.2010 O   0  0  0  0  0  0  0  0  0  0  0  0
   26.3461  -10.2554  -17.2651 C   0  0  0  0  0  0  0  0  0  0  0  0
   25.5839  -11.1243  -16.2724 C   0  0  2  0  0  0  0  0  0  0  0  0
   25.6808  -12.5210  -16.6369 N   0  0  0  0  0  0  0  0  0  0  0  0
   24.1592  -10.7090  -16.3664 C   0  0  0  0  0  0  0  0  0  0  0  0
   23.4673  -11.1352  -17.3454 O   0  0  0  0  0  0  0  0  0  0  0  0
   21.4993  -11.4704  -14.0705 C   0  0  0  0  0  0  0  0  0  0  0  0
   21.4765   -9.9651  -14.2015 C   0  0  1  0  0  0  0  0  0  0  0  0
   22.1238   -9.4460  -13.0813 O   0  0  0  0  0  0  0  0  0  0  0  0
   22.1255   -9.5068  -15.4872 C   0  0  2  0  0  0  0  0  0  0  0  0
   23.5287   -9.8638  -15.4250 N   0  0  0  0  0  0  0  0  0  0  0  0
   21.9234   -8.0686  -15.7355 C   0  0  0  0  0  0  0  0  0  0  0  0
   22.9066   -7.3021  -15.7558 O   0  0  0  0  0  0  0  0  0  0  0  0
   22.1311   -4.9703  -19.9450 N   0  0  0  0  0  0  0  0  0  0  0  0
   21.3688   -4.0106  -19.2583 C   0  0  0  0  0  0  0  0  0  0  0  0
   21.2023   -2.8780  -19.7293 O   0  0  0  0  0  0  0  0  0  0  0  0
   20.7537   -4.3632  -17.9460 C   0  0  0  0  0  0  0  0  0  0  0  0
   21.0653   -5.7920  -17.5707 C   0  0  0  0  0  0  0  0  0  0  0  0
   20.4295   -6.1423  -16.2614 C   0  0  2  0  0  0  0  0  0  0  0  0
   20.6332   -7.5613  -15.9491 N   0  0  0  0  0  0  0  0  0  0  0  0
   19.0160   -5.8139  -16.1287 C   0  0  0  0  0  0  0  0  0  0  0  0
   18.4929   -4.5548  -15.9401 O   0  0  0  0  0  0  0  0  0  0  0  0
   18.1600   -6.7615  -16.1877 O   0  0  0  0  0  0  0  0  0  0  0  0
  1  2  1  0
  2  3  2  0
  4  2  1  0
  4  5  1  0
  5  6  1  6
  7  5  1  0
  7  8  2  0
 10  9  1  1
 10 12  1  0
 10 11  1  0
 12 13  1  1
 13  7  1  0
 14 12  1  0
 15 14  2  0
 17 16  1  0
 18 17  2  0
 19 20  1  0
 19 17  1  0
 21 20  1  6
 21 23  1  0
 21 22  1  0
 22 14  1  0
 23 24  1  0
 25 23  2  0
M  END
$$$$
