PCD.pdb
     RDKit          3D

 22 22  0  0  1  0  0  0  0  0999 V2000
   24.4891  -13.4251  -15.3051 N   0  0  0  0  0  0  0  0  0  0  0  0
   25.0692  -14.7524  -15.1689 C   0  0  0  0  0  0  0  0  0  0  0  0
   24.9729  -15.4197  -16.5146 C   0  0  0  0  0  0  0  0  0  0  0  0
   23.9683  -14.5460  -17.2346 C   0  0  0  0  0  0  0  0  0  0  0  0
   24.3967  -13.1667  -16.7194 C   0  0  1  0  0  0  0  0  0  0  0  0
   23.4266  -12.1200  -17.0571 C   0  0  0  0  0  0  0  0  0  0  0  0
   23.4211  -11.7095  -18.2581 O   0  0  0  0  0  0  0  0  0  0  0  0
   22.5119  -11.5384  -16.1733 N   0  0  0  0  0  0  0  0  0  0  0  0
   21.5479  -10.5074  -16.6177 C   0  0  1  0  0  0  0  0  0  0  0  0
   20.1857  -11.2119  -16.5827 C   0  0  0  0  0  0  0  0  0  0  0  0
   19.8703  -12.0328  -15.0089 S   0  0  0  0  0  0  0  0  0  0  0  0
   21.5092   -9.4093  -15.6388 C   0  0  0  0  0  0  0  0  0  0  0  0
   22.3792   -9.4076  -14.7122 O   0  0  0  0  0  0  0  0  0  0  0  0
   20.5600   -8.3662  -15.6819 N   0  0  0  0  0  0  0  0  0  0  0  0
   20.8100   -7.1814  -14.8815 C   0  0  1  0  0  0  0  0  0  0  0  0
   22.0895   -6.4928  -15.2940 C   0  0  0  0  0  0  0  0  0  0  0  0
   22.3457   -5.2767  -14.4831 C   0  0  0  0  0  0  0  0  0  0  0  0
   21.6781   -5.0880  -13.4564 O   0  0  0  0  0  0  0  0  0  0  0  0
   19.7096   -6.1860  -15.0878 C   0  0  0  0  0  0  0  0  0  0  0  0
   19.4166   -5.4618  -14.1253 O   0  0  0  0  0  0  0  0  0  0  0  0
   23.3114   -4.3693  -14.8646 O   0  0  0  0  0  0  0  0  0  0  0  0
   19.0526   -6.0760  -16.2840 O   0  0  0  0  0  0  0  0  0  0  0  0
  1  2  1  0
  3  2  1  0
  4  3  1  0
  4  5  1  0
  5  1  1  0
  5  6  1  1
  7  6  2  0
  8  6  1  0
  9  8  1  0
  9 12  1  0
  9 10  1  1
 11 10  1  0
 12 14  1  0
 13 12  2  0
 14 15  1  0
 15 16  1  6
 15 19  1  0
 16 17  1  0
 17 21  1  0
 17 18  2  0
 19 20  2  0
 19 22  1  0
M  END
$$$$
