PCD.pdb
     RDKit          3D

 22 22  0  0  1  0  0  0  0  0999 V2000
   21.3614   -9.6602  -17.3413 N   0  0  0  0  0  0  0  0  0  0  0  0
   21.3996  -11.0296  -17.8310 C   0  0  0  0  0  0  0  0  0  0  0  0
   20.3325  -11.7947  -17.0952 C   0  0  0  0  0  0  0  0  0  0  0  0
   20.0208  -10.8744  -15.9346 C   0  0  0  0  0  0  0  0  0  0  0  0
   20.1115   -9.5157  -16.6396 C   0  0  1  0  0  0  0  0  0  0  0  0
   20.1021   -8.3954  -15.6933 C   0  0  0  0  0  0  0  0  0  0  0  0
   19.0176   -8.1811  -15.0695 O   0  0  0  0  0  0  0  0  0  0  0  0
   21.1803   -7.5473  -15.4209 N   0  0  0  0  0  0  0  0  0  0  0  0
   21.0490   -6.3898  -14.5083 C   0  0  1  0  0  0  0  0  0  0  0  0
   22.2699   -6.4860  -13.5846 C   0  0  0  0  0  0  0  0  0  0  0  0
   22.4778   -5.0202  -12.5558 S   0  0  0  0  0  0  0  0  0  0  0  0
   21.1646   -5.1385  -15.2741 C   0  0  0  0  0  0  0  0  0  0  0  0
   22.1229   -5.0346  -16.1027 O   0  0  0  0  0  0  0  0  0  0  0  0
   20.2675   -4.0585  -15.1335 N   0  0  0  0  0  0  0  0  0  0  0  0
   20.4413   -2.9084  -16.0017 C   0  0  1  0  0  0  0  0  0  0  0  0
   19.1191   -2.4132  -16.5382 C   0  0  0  0  0  0  0  0  0  0  0  0
   18.4555   -3.4307  -17.3906 C   0  0  0  0  0  0  0  0  0  0  0  0
   19.1230   -4.0196  -18.2525 O   0  0  0  0  0  0  0  0  0  0  0  0
   21.0353   -1.7714  -15.2279 C   0  0  0  0  0  0  0  0  0  0  0  0
   21.2438   -1.9592  -14.0204 O   0  0  0  0  0  0  0  0  0  0  0  0
   17.1167   -3.7178  -17.2275 O   0  0  0  0  0  0  0  0  0  0  0  0
   21.3369   -0.5755  -15.8222 O   0  0  0  0  0  0  0  0  0  0  0  0
  1  2  1  0
  3  2  1  0
  4  3  1  0
  4  5  1  0
  5  1  1  0
  5  6  1  1
  7  6  2  0
  8  6  1  0
  9  8  1  0
  9 12  1  0
  9 10  1  1
 11 10  1  0
 12 14  1  0
 13 12  2  0
 14 15  1  0
 15 16  1  1
 15 19  1  0
 16 17  1  0
 17 21  1  0
 17 18  2  0
 19 20  2  0
 19 22  1  0
M  END
$$$$
