PCD.pdb
     RDKit          3D

 22 22  0  0  1  0  0  0  0  0999 V2000
   17.9211  -12.5314  -17.5200 N   0  0  0  0  0  0  0  0  0  0  0  0
   16.8766  -12.7610  -18.5065 C   0  0  0  0  0  0  0  0  0  0  0  0
   16.4706  -11.4155  -19.0453 C   0  0  0  0  0  0  0  0  0  0  0  0
   17.0550  -10.4694  -18.0185 C   0  0  0  0  0  0  0  0  0  0  0  0
   18.3807  -11.1813  -17.7237 C   0  0  1  0  0  0  0  0  0  0  0  0
   19.0677  -10.6186  -16.5566 C   0  0  0  0  0  0  0  0  0  0  0  0
   18.5435  -10.8386  -15.4217 O   0  0  0  0  0  0  0  0  0  0  0  0
   20.2448   -9.8641  -16.5870 N   0  0  0  0  0  0  0  0  0  0  0  0
   20.8284   -9.2820  -15.3580 C   0  0  1  0  0  0  0  0  0  0  0  0
   22.1925   -9.9690  -15.2155 C   0  0  0  0  0  0  0  0  0  0  0  0
   23.1422   -9.3406  -13.8178 S   0  0  0  0  0  0  0  0  0  0  0  0
   21.0700   -7.8439  -15.5562 C   0  0  0  0  0  0  0  0  0  0  0  0
   21.5596   -7.4709  -16.6682 O   0  0  0  0  0  0  0  0  0  0  0  0
   20.7841   -6.8683  -14.5778 N   0  0  0  0  0  0  0  0  0  0  0  0
   21.0678   -5.4803  -14.8936 C   0  0  1  0  0  0  0  0  0  0  0  0
   19.8520   -4.6064  -14.6955 C   0  0  0  0  0  0  0  0  0  0  0  0
   18.7186   -5.0387  -15.5504 C   0  0  0  0  0  0  0  0  0  0  0  0
   18.8737   -5.0764  -16.7792 O   0  0  0  0  0  0  0  0  0  0  0  0
   22.1219   -4.9529  -13.9689 C   0  0  0  0  0  0  0  0  0  0  0  0
   22.5158   -5.7119  -13.0715 O   0  0  0  0  0  0  0  0  0  0  0  0
   17.5106   -5.3935  -14.9879 O   0  0  0  0  0  0  0  0  0  0  0  0
   22.6317   -3.6894  -14.1038 O   0  0  0  0  0  0  0  0  0  0  0  0
  1  2  1  0
  3  2  1  0
  4  3  1  0
  4  5  1  0
  5  1  1  0
  5  6  1  1
  7  6  2  0
  8  6  1  0
  9  8  1  0
  9 12  1  0
  9 10  1  6
 11 10  1  0
 12 14  1  0
 13 12  2  0
 14 15  1  0
 15 16  1  1
 15 19  1  0
 16 17  1  0
 17 21  1  0
 17 18  2  0
 19 20  2  0
 19 22  1  0
M  END
$$$$
