PCD.pdb
     RDKit          3D

 22 22  0  0  1  0  0  0  0  0999 V2000
   25.9992  -19.8550  -15.0951 N   0  0  0  0  0  0  0  0  0  0  0  0
   25.8905  -18.5882  -15.8023 C   0  0  0  0  0  0  0  0  0  0  0  0
   27.0362  -17.7251  -15.3466 C   0  0  0  0  0  0  0  0  0  0  0  0
   27.4973  -18.4393  -14.0943 C   0  0  0  0  0  0  0  0  0  0  0  0
   27.3282  -19.8965  -14.5406 C   0  0  1  0  0  0  0  0  0  0  0  0
   27.4640  -20.8398  -13.4259 C   0  0  0  0  0  0  0  0  0  0  0  0
   28.5579  -20.8134  -12.7826 O   0  0  0  0  0  0  0  0  0  0  0  0
   26.4961  -21.7612  -13.0133 N   0  0  0  0  0  0  0  0  0  0  0  0
   25.7089  -21.5618  -11.7762 C   0  0  1  0  0  0  0  0  0  0  0  0
   26.3592  -20.3505  -11.0957 C   0  0  0  0  0  0  0  0  0  0  0  0
   25.6160  -19.9717   -9.4975 S   0  0  0  0  0  0  0  0  0  0  0  0
   24.3268  -21.1926  -12.1215 C   0  0  0  0  0  0  0  0  0  0  0  0
   23.4713  -21.1466  -11.1826 O   0  0  0  0  0  0  0  0  0  0  0  0
   23.9114  -20.8883  -13.4352 N   0  0  0  0  0  0  0  0  0  0  0  0
   22.4872  -20.7812  -13.6939 C   0  0  1  0  0  0  0  0  0  0  0  0
   22.1891  -19.7219  -14.7284 C   0  0  0  0  0  0  0  0  0  0  0  0
   21.3480  -18.6325  -14.1736 C   0  0  0  0  0  0  0  0  0  0  0  0
   21.0172  -18.6777  -12.9803 O   0  0  0  0  0  0  0  0  0  0  0  0
   21.9725  -22.0727  -14.2519 C   0  0  0  0  0  0  0  0  0  0  0  0
   22.6874  -22.6531  -15.0819 O   0  0  0  0  0  0  0  0  0  0  0  0
   20.9396  -17.5850  -14.9721 O   0  0  0  0  0  0  0  0  0  0  0  0
   20.7668  -22.5943  -13.8664 O   0  0  0  0  0  0  0  0  0  0  0  0
  1  2  1  0
  3  2  1  0
  4  3  1  0
  4  5  1  0
  5  1  1  0
  5  6  1  1
  7  6  2  0
  8  6  1  0
  9  8  1  0
  9 12  1  0
  9 10  1  1
 11 10  1  0
 12 14  1  0
 13 12  2  0
 14 15  1  0
 15 16  1  6
 15 19  1  0
 16 17  1  0
 17 21  1  0
 17 18  2  0
 19 20  2  0
 19 22  1  0
M  END
$$$$
