PCD.pdb
     RDKit          3D

 22 22  0  0  1  0  0  0  0  0999 V2000
   18.1318  -11.0913  -13.9365 N   0  0  0  0  0  0  0  0  0  0  0  0
   18.2534  -12.3336  -14.6838 C   0  0  0  0  0  0  0  0  0  0  0  0
   16.9134  -12.6073  -15.3123 C   0  0  0  0  0  0  0  0  0  0  0  0
   16.0007  -11.6814  -14.5371 C   0  0  0  0  0  0  0  0  0  0  0  0
   16.9187  -10.4618  -14.3921 C   0  0  1  0  0  0  0  0  0  0  0  0
   16.3867   -9.4732  -13.4484 C   0  0  0  0  0  0  0  0  0  0  0  0
   15.3598   -8.8242  -13.8164 O   0  0  0  0  0  0  0  0  0  0  0  0
   16.9114   -9.1861  -12.1842 N   0  0  0  0  0  0  0  0  0  0  0  0
   16.3480   -8.1152  -11.3324 C   0  0  1  0  0  0  0  0  0  0  0  0
   16.9213   -8.3903   -9.9365 C   0  0  0  0  0  0  0  0  0  0  0  0
   16.5701   -7.0623   -8.7689 S   0  0  0  0  0  0  0  0  0  0  0  0
   16.8582   -6.8081  -11.7761 C   0  0  0  0  0  0  0  0  0  0  0  0
   18.0979   -6.7119  -12.0396 O   0  0  0  0  0  0  0  0  0  0  0  0
   16.0415   -5.6669  -11.9229 N   0  0  0  0  0  0  0  0  0  0  0  0
   16.6655   -4.4319  -12.3610 C   0  0  1  0  0  0  0  0  0  0  0  0
   16.3780   -4.1508  -13.8169 C   0  0  0  0  0  0  0  0  0  0  0  0
   16.9434   -2.8482  -14.2477 C   0  0  0  0  0  0  0  0  0  0  0  0
   16.2792   -2.1263  -15.0048 O   0  0  0  0  0  0  0  0  0  0  0  0
   16.1050   -3.2765  -11.5895 C   0  0  0  0  0  0  0  0  0  0  0  0
   15.1318   -3.5067  -10.8569 O   0  0  0  0  0  0  0  0  0  0  0  0
   18.1887   -2.4454  -13.8134 O   0  0  0  0  0  0  0  0  0  0  0  0
   16.6395   -2.0196  -11.6847 O   0  0  0  0  0  0  0  0  0  0  0  0
  1  2  1  0
  3  2  1  0
  4  3  1  0
  4  5  1  0
  5  1  1  0
  5  6  1  1
  7  6  2  0
  8  6  1  0
  9  8  1  0
  9 12  1  0
  9 10  1  1
 11 10  1  0
 12 14  1  0
 13 12  2  0
 14 15  1  0
 15 16  1  6
 15 19  1  0
 16 17  1  0
 17 21  1  0
 17 18  2  0
 19 20  2  0
 19 22  1  0
M  END
$$$$
