PCD.pdb
     RDKit          3D

 22 22  0  0  1  0  0  0  0  0999 V2000
   43.7562  -15.7146   -6.9995 N   0  0  0  0  0  0  0  0  0  0  0  0
   44.0018  -17.0862   -6.5809 C   0  0  0  0  0  0  0  0  0  0  0  0
   45.1943  -17.5804   -7.3551 C   0  0  0  0  0  0  0  0  0  0  0  0
   45.3006  -16.5586   -8.4667 C   0  0  0  0  0  0  0  0  0  0  0  0
   44.9434  -15.2840   -7.6927 C   0  0  1  0  0  0  0  0  0  0  0  0
   44.7156  -14.1388   -8.5800 C   0  0  0  0  0  0  0  0  0  0  0  0
   45.7446  -13.5766   -9.0660 O   0  0  0  0  0  0  0  0  0  0  0  0
   43.4678  -13.6160   -8.9346 N   0  0  0  0  0  0  0  0  0  0  0  0
   43.3362  -12.5036   -9.9015 C   0  0  1  0  0  0  0  0  0  0  0  0
   41.9598  -12.7126  -10.5457 C   0  0  0  0  0  0  0  0  0  0  0  0
   41.9741  -13.9980  -11.8096 S   0  0  0  0  0  0  0  0  0  0  0  0
   43.3030  -11.2209   -9.1808 C   0  0  0  0  0  0  0  0  0  0  0  0
   42.7332  -11.1916   -8.0450 O   0  0  0  0  0  0  0  0  0  0  0  0
   43.8709  -10.0328   -9.6873 N   0  0  0  0  0  0  0  0  0  0  0  0
   43.8914   -8.8642   -8.8266 C   0  0  1  0  0  0  0  0  0  0  0  0
   44.6412   -9.1332   -7.5434 C   0  0  0  0  0  0  0  0  0  0  0  0
   44.7829   -7.9057   -6.7215 C   0  0  0  0  0  0  0  0  0  0  0  0
   44.0290   -6.9468   -6.9395 O   0  0  0  0  0  0  0  0  0  0  0  0
   44.6116   -7.7417   -9.5089 C   0  0  0  0  0  0  0  0  0  0  0  0
   44.1643   -6.5982   -9.3379 O   0  0  0  0  0  0  0  0  0  0  0  0
   45.7383   -7.8314   -5.7299 O   0  0  0  0  0  0  0  0  0  0  0  0
   45.7154   -7.9623  -10.2883 O   0  0  0  0  0  0  0  0  0  0  0  0
  1  2  1  0
  3  2  1  0
  4  3  1  0
  4  5  1  0
  5  1  1  0
  5  6  1  6
  7  6  2  0
  8  6  1  0
  9  8  1  0
  9 12  1  0
  9 10  1  1
 11 10  1  0
 12 14  1  0
 13 12  2  0
 14 15  1  0
 15 16  1  1
 15 19  1  0
 16 17  1  0
 17 21  1  0
 17 18  2  0
 19 20  2  0
 19 22  1  0
M  END
$$$$
