PVM.pdb
     RDKit          3D

 23 23  0  0  1  0  0  0  0  0999 V2000
   27.1570  -21.3699  -17.1231 N   0  0  0  0  0  0  0  0  0  0  0  0
   28.6104  -21.1968  -17.1677 C   0  0  0  0  0  0  0  0  0  0  0  0
   29.0953  -22.5324  -16.6810 C   0  0  0  0  0  0  0  0  0  0  0  0
   28.0850  -22.9711  -15.6495 C   0  0  0  0  0  0  0  0  0  0  0  0
   26.9092  -22.0826  -15.8713 C   0  0  1  0  0  0  0  0  0  0  0  0
   26.6583  -21.1340  -14.7566 C   0  0  0  0  0  0  0  0  0  0  0  0
   27.1943  -19.9804  -14.7734 O   0  0  0  0  0  0  0  0  0  0  0  0
   23.6223  -19.3498  -14.0188 C   0  0  0  0  0  0  0  0  0  0  0  0
   24.0204  -20.0661  -12.7740 C   0  0  1  0  0  0  0  0  0  0  0  0
   23.1849  -21.2978  -12.6402 C   0  0  0  0  0  0  0  0  0  0  0  0
   25.4619  -20.3988  -12.6501 C   0  0  2  0  0  0  0  0  0  0  0  0
   25.8563  -21.4039  -13.6486 N   0  0  0  0  0  0  0  0  0  0  0  0
   25.7430  -20.9380  -11.2988 C   0  0  0  0  0  0  0  0  0  0  0  0
   25.4630  -22.1832  -11.0719 O   0  0  0  0  0  0  0  0  0  0  0  0
   28.7665  -18.0913   -5.8817 C   0  0  0  0  0  0  0  0  0  0  0  0
   28.8307  -19.8961   -5.6800 S   0  0  0  0  0  0  0  0  0  0  0  0
   27.5941  -20.7231   -6.6801 C   0  0  0  0  0  0  0  0  0  0  0  0
   27.4677  -20.2783   -8.0869 C   0  0  0  0  0  0  0  0  0  0  0  0
   26.4314  -20.9774   -8.8717 C   0  0  2  0  0  0  0  0  0  0  0  0
   26.2907  -20.2829  -10.1929 N   0  0  0  0  0  0  0  0  0  0  0  0
   25.0971  -20.9333   -8.2927 C   0  0  0  0  0  0  0  0  0  0  0  0
   24.1824  -20.1275   -8.5948 O   0  0  0  0  0  0  0  0  0  0  0  0
   24.7064  -21.8518   -7.2862 O   0  0  0  0  0  0  0  0  0  0  0  0
  1  5  1  0
  1  2  1  0
  2  3  1  0
  4  3  1  0
  5  4  1  0
  5  6  1  1
  7  6  2  0
  9  8  1  6
  9 10  1  0
  9 11  1  0
 11 12  1  6
 12  6  1  0
 13 20  1  0
 13 11  1  0
 14 13  2  0
 15 16  1  0
 16 17  1  0
 19 18  1  1
 18 17  1  0
 19 20  1  0
 19 21  1  0
 21 23  1  0
 22 21  2  0
M  END
$$$$
