PVM.pdb
     RDKit          3D

 23 23  0  0  1  0  0  0  0  0999 V2000
   28.6686  -20.8211  -15.3050 N   0  0  0  0  0  0  0  0  0  0  0  0
   27.9844  -20.6370  -16.5865 C   0  0  0  0  0  0  0  0  0  0  0  0
   27.8199  -19.1449  -16.6368 C   0  0  0  0  0  0  0  0  0  0  0  0
   27.5817  -18.7221  -15.2079 C   0  0  0  0  0  0  0  0  0  0  0  0
   27.9958  -19.8989  -14.3923 C   0  0  1  0  0  0  0  0  0  0  0  0
   26.8695  -20.5665  -13.6917 C   0  0  0  0  0  0  0  0  0  0  0  0
   26.3398  -21.6088  -14.1932 O   0  0  0  0  0  0  0  0  0  0  0  0
   24.1796  -21.0730   -9.4909 C   0  0  0  0  0  0  0  0  0  0  0  0
   25.3072  -20.5426  -10.3083 C   0  0  1  0  0  0  0  0  0  0  0  0
   26.5949  -21.0105   -9.7118 C   0  0  0  0  0  0  0  0  0  0  0  0
   25.2607  -20.8568  -11.7585 C   0  0  2  0  0  0  0  0  0  0  0  0
   26.3174  -20.1373  -12.4855 N   0  0  0  0  0  0  0  0  0  0  0  0
   23.9473  -20.4634  -12.3203 C   0  0  0  0  0  0  0  0  0  0  0  0
   23.7413  -19.2061  -12.5591 O   0  0  0  0  0  0  0  0  0  0  0  0
   20.5729  -23.4476  -16.8655 C   0  0  0  0  0  0  0  0  0  0  0  0
   19.6956  -21.8623  -16.7265 S   0  0  0  0  0  0  0  0  0  0  0  0
   20.0798  -21.0202  -15.1914 C   0  0  0  0  0  0  0  0  0  0  0  0
   21.3571  -21.3806  -14.5345 C   0  0  0  0  0  0  0  0  0  0  0  0
   21.6141  -20.6966  -13.2521 C   0  0  2  0  0  0  0  0  0  0  0  0
   22.8588  -21.2754  -12.6492 N   0  0  0  0  0  0  0  0  0  0  0  0
   20.5897  -20.8997  -12.2387 C   0  0  0  0  0  0  0  0  0  0  0  0
   20.6106  -21.7589  -11.3230 O   0  0  0  0  0  0  0  0  0  0  0  0
   19.4237  -20.0943  -12.2065 O   0  0  0  0  0  0  0  0  0  0  0  0
  1  5  1  0
  1  2  1  0
  2  3  1  0
  4  3  1  0
  5  4  1  0
  5  6  1  6
  7  6  2  0
  9  8  1  1
  9 10  1  0
  9 11  1  0
 11 12  1  6
 12  6  1  0
 13 20  1  0
 13 11  1  0
 14 13  2  0
 15 16  1  0
 16 17  1  0
 19 18  1  6
 18 17  1  0
 19 20  1  0
 19 21  1  0
 21 23  1  0
 22 21  2  0
M  END
$$$$
