PVM.pdb
     RDKit          3D

 23 23  0  0  1  0  0  0  0  0999 V2000
   27.1394  -18.9132  -16.7312 N   0  0  0  0  0  0  0  0  0  0  0  0
   27.3596  -17.4715  -16.8634 C   0  0  0  0  0  0  0  0  0  0  0  0
   28.7380  -17.3159  -16.2873 C   0  0  0  0  0  0  0  0  0  0  0  0
   28.8203  -18.3294  -15.1723 C   0  0  0  0  0  0  0  0  0  0  0  0
   27.6709  -19.2476  -15.4115 C   0  0  1  0  0  0  0  0  0  0  0  0
   26.6134  -19.1644  -14.3723 C   0  0  0  0  0  0  0  0  0  0  0  0
   25.5957  -18.4248  -14.5616 O   0  0  0  0  0  0  0  0  0  0  0  0
   23.8977  -20.6302  -14.1277 C   0  0  0  0  0  0  0  0  0  0  0  0
   24.5037  -20.9728  -12.8100 C   0  0  1  0  0  0  0  0  0  0  0  0
   25.1280  -22.3271  -12.9056 C   0  0  0  0  0  0  0  0  0  0  0  0
   25.4743  -19.9893  -12.2672 C   0  0  2  0  0  0  0  0  0  0  0  0
   26.6354  -19.8509  -13.1590 N   0  0  0  0  0  0  0  0  0  0  0  0
   25.9503  -20.4296  -10.9349 C   0  0  0  0  0  0  0  0  0  0  0  0
   27.0595  -21.0978  -10.8770 O   0  0  0  0  0  0  0  0  0  0  0  0
   29.4840  -18.3015   -5.6280 C   0  0  0  0  0  0  0  0  0  0  0  0
   28.8814  -19.9565   -6.0752 S   0  0  0  0  0  0  0  0  0  0  0  0
   27.1104  -19.9686   -6.3525 C   0  0  0  0  0  0  0  0  0  0  0  0
   26.6477  -19.6493   -7.7225 C   0  0  0  0  0  0  0  0  0  0  0  0
   25.9892  -20.7622   -8.4340 C   0  0  2  0  0  0  0  0  0  0  0  0
   25.3641  -20.2196   -9.6840 N   0  0  0  0  0  0  0  0  0  0  0  0
   24.8856  -21.3774   -7.7120 C   0  0  0  0  0  0  0  0  0  0  0  0
   23.6683  -21.3028   -8.0116 O   0  0  0  0  0  0  0  0  0  0  0  0
   25.1159  -22.1538   -6.5486 O   0  0  0  0  0  0  0  0  0  0  0  0
  1  5  1  0
  1  2  1  0
  2  3  1  0
  4  3  1  0
  5  4  1  0
  5  6  1  1
  7  6  2  0
  9  8  1  6
  9 10  1  0
  9 11  1  0
 11 12  1  6
 12  6  1  0
 13 20  1  0
 13 11  1  0
 14 13  2  0
 15 16  1  0
 16 17  1  0
 19 18  1  1
 18 17  1  0
 19 20  1  0
 19 21  1  0
 21 23  1  0
 22 21  2  0
M  END
$$$$
