PVM.pdb
     RDKit          3D

 23 23  0  0  1  0  0  0  0  0999 V2000
   25.6594  -24.1006  -17.2214 N   0  0  0  0  0  0  0  0  0  0  0  0
   26.5451  -25.2529  -17.0425 C   0  0  0  0  0  0  0  0  0  0  0  0
   25.7275  -26.1336  -16.1414 C   0  0  0  0  0  0  0  0  0  0  0  0
   24.9779  -25.1888  -15.2344 C   0  0  0  0  0  0  0  0  0  0  0  0
   25.0982  -23.8576  -15.8939 C   0  0  1  0  0  0  0  0  0  0  0  0
   25.9254  -22.8866  -15.1334 C   0  0  0  0  0  0  0  0  0  0  0  0
   27.1879  -23.0336  -15.0813 O   0  0  0  0  0  0  0  0  0  0  0  0
   26.7545  -18.4609  -13.1676 C   0  0  0  0  0  0  0  0  0  0  0  0
   26.0259  -19.4701  -13.9874 C   0  0  1  0  0  0  0  0  0  0  0  0
   26.3635  -19.2542  -15.4270 C   0  0  0  0  0  0  0  0  0  0  0  0
   26.2405  -20.8896  -13.6095 C   0  0  2  0  0  0  0  0  0  0  0  0
   25.4234  -21.7840  -14.4433 N   0  0  0  0  0  0  0  0  0  0  0  0
   25.8712  -21.0973  -12.1897 C   0  0  0  0  0  0  0  0  0  0  0  0
   24.6597  -21.4760  -11.9268 O   0  0  0  0  0  0  0  0  0  0  0  0
   29.4453  -20.2400   -6.5156 C   0  0  0  0  0  0  0  0  0  0  0  0
   27.7581  -19.6883   -6.1269 S   0  0  0  0  0  0  0  0  0  0  0  0
   26.5704  -20.2737   -7.3352 C   0  0  0  0  0  0  0  0  0  0  0  0
   27.0577  -20.4386   -8.7238 C   0  0  0  0  0  0  0  0  0  0  0  0
   26.0602  -20.9625   -9.6772 C   0  0  2  0  0  0  0  0  0  0  0  0
   26.6643  -20.9466  -11.0492 N   0  0  0  0  0  0  0  0  0  0  0  0
   24.8548  -20.1567   -9.8002 C   0  0  0  0  0  0  0  0  0  0  0  0
   24.7403  -19.0845  -10.4441 O   0  0  0  0  0  0  0  0  0  0  0  0
   23.6480  -20.5454   -9.1663 O   0  0  0  0  0  0  0  0  0  0  0  0
  1  5  1  0
  1  2  1  0
  2  3  1  0
  4  3  1  0
  5  4  1  0
  5  6  1  1
  7  6  2  0
  9  8  1  1
  9 10  1  0
  9 11  1  0
 11 12  1  6
 12  6  1  0
 13 20  1  0
 13 11  1  0
 14 13  2  0
 15 16  1  0
 16 17  1  0
 19 18  1  1
 18 17  1  0
 19 20  1  0
 19 21  1  0
 21 23  1  0
 22 21  2  0
M  END
$$$$
