PVM.pdb
     RDKit          3D

 23 23  0  0  1  0  0  0  0  0999 V2000
   17.4529  -11.5502  -15.7622 N   0  0  0  0  0  0  0  0  0  0  0  0
   16.1653  -12.1455  -15.3990 C   0  0  0  0  0  0  0  0  0  0  0  0
   15.1942  -11.1484  -15.9636 C   0  0  0  0  0  0  0  0  0  0  0  0
   15.8571   -9.8040  -15.7888 C   0  0  0  0  0  0  0  0  0  0  0  0
   17.2848  -10.1218  -15.5024 C   0  0  1  0  0  0  0  0  0  0  0  0
   17.7085   -9.7759  -14.1218 C   0  0  0  0  0  0  0  0  0  0  0  0
   17.5390  -10.6125  -13.1785 O   0  0  0  0  0  0  0  0  0  0  0  0
   20.6532   -7.0872  -11.1637 C   0  0  0  0  0  0  0  0  0  0  0  0
   20.1006   -7.5524  -12.4673 C   0  0  1  0  0  0  0  0  0  0  0  0
   21.1331   -8.3829  -13.1582 C   0  0  0  0  0  0  0  0  0  0  0  0
   18.8073   -8.2784  -12.4014 C   0  0  2  0  0  0  0  0  0  0  0  0
   18.2990   -8.5686  -13.7505 N   0  0  0  0  0  0  0  0  0  0  0  0
   17.8028   -7.4597  -11.6829 C   0  0  0  0  0  0  0  0  0  0  0  0
   17.3001   -6.4366  -12.2999 O   0  0  0  0  0  0  0  0  0  0  0  0
   11.6341   -6.8617   -6.8292 C   0  0  0  0  0  0  0  0  0  0  0  0
   12.8706   -7.8880   -7.6775 S   0  0  0  0  0  0  0  0  0  0  0  0
   14.1399   -6.8926   -8.4596 C   0  0  0  0  0  0  0  0  0  0  0  0
   15.1973   -7.6201   -9.1981 C   0  0  0  0  0  0  0  0  0  0  0  0
   16.1921   -6.7618   -9.8705 C   0  0  2  0  0  0  0  0  0  0  0  0
   17.2925   -7.6351  -10.3941 N   0  0  0  0  0  0  0  0  0  0  0  0
   16.8648   -5.8117   -8.9973 C   0  0  0  0  0  0  0  0  0  0  0  0
   17.9172   -6.0194   -8.3441 O   0  0  0  0  0  0  0  0  0  0  0  0
   16.3533   -4.5033   -8.8088 O   0  0  0  0  0  0  0  0  0  0  0  0
  1  5  1  0
  1  2  1  0
  2  3  1  0
  4  3  1  0
  5  4  1  0
  5  6  1  1
  7  6  2  0
  9  8  1  1
  9 10  1  0
  9 11  1  0
 11 12  1  6
 12  6  1  0
 13 20  1  0
 13 11  1  0
 14 13  2  0
 15 16  1  0
 16 17  1  0
 19 18  1  1
 18 17  1  0
 19 20  1  0
 19 21  1  0
 21 23  1  0
 22 21  2  0
M  END
$$$$
