PVM.pdb
     RDKit          3D

 23 23  0  0  1  0  0  0  0  0999 V2000
   25.9043  -16.9382  -16.4121 N   0  0  0  0  0  0  0  0  0  0  0  0
   24.9180  -15.9297  -16.0192 C   0  0  0  0  0  0  0  0  0  0  0  0
   25.7420  -15.0082  -15.1660 C   0  0  0  0  0  0  0  0  0  0  0  0
   26.7261  -15.9013  -14.4510 C   0  0  0  0  0  0  0  0  0  0  0  0
   26.6773  -17.1903  -15.1976 C   0  0  1  0  0  0  0  0  0  0  0  0
   26.0956  -18.3115  -14.4167 C   0  0  0  0  0  0  0  0  0  0  0  0
   24.8483  -18.5520  -14.4860 O   0  0  0  0  0  0  0  0  0  0  0  0
   26.8260  -21.7730  -15.1008 C   0  0  0  0  0  0  0  0  0  0  0  0
   27.0096  -21.5849  -13.6338 C   0  0  1  0  0  0  0  0  0  0  0  0
   28.4727  -21.5200  -13.3370 C   0  0  0  0  0  0  0  0  0  0  0  0
   26.3050  -20.4231  -13.0358 C   0  0  2  0  0  0  0  0  0  0  0  0
   26.8218  -19.1586  -13.5806 N   0  0  0  0  0  0  0  0  0  0  0  0
   26.4937  -20.4177  -11.5662 C   0  0  0  0  0  0  0  0  0  0  0  0
   27.6483  -20.0523  -11.1039 O   0  0  0  0  0  0  0  0  0  0  0  0
   29.3322  -20.1398   -6.5370 C   0  0  0  0  0  0  0  0  0  0  0  0
   28.2746  -18.6839   -6.7899 S   0  0  0  0  0  0  0  0  0  0  0  0
   26.6264  -19.1421   -7.3251 C   0  0  0  0  0  0  0  0  0  0  0  0
   26.4399  -19.3894   -8.7732 C   0  0  0  0  0  0  0  0  0  0  0  0
   25.9714  -20.7455   -9.1195 C   0  0  2  0  0  0  0  0  0  0  0  0
   25.5779  -20.7542  -10.5661 N   0  0  0  0  0  0  0  0  0  0  0  0
   24.7735  -21.1738   -8.4131 C   0  0  0  0  0  0  0  0  0  0  0  0
   23.6139  -21.2421   -8.8906 O   0  0  0  0  0  0  0  0  0  0  0  0
   24.8293  -21.5709   -7.0536 O   0  0  0  0  0  0  0  0  0  0  0  0
  1  5  1  0
  1  2  1  0
  2  3  1  0
  4  3  1  0
  5  4  1  0
  5  6  1  1
  7  6  2  0
  9  8  1  6
  9 10  1  0
  9 11  1  0
 11 12  1  6
 12  6  1  0
 13 20  1  0
 13 11  1  0
 14 13  2  0
 15 16  1  0
 16 17  1  0
 19 18  1  1
 18 17  1  0
 19 20  1  0
 19 21  1  0
 21 23  1  0
 22 21  2  0
M  END
$$$$
