PVM.pdb
     RDKit          3D

 23 23  0  0  1  0  0  0  0  0999 V2000
   24.9296  -15.3615  -17.1859 N   0  0  0  0  0  0  0  0  0  0  0  0
   23.5498  -15.1080  -16.7662 C   0  0  0  0  0  0  0  0  0  0  0  0
   23.7490  -14.2216  -15.5702 C   0  0  0  0  0  0  0  0  0  0  0  0
   25.0106  -14.7213  -14.9099 C   0  0  0  0  0  0  0  0  0  0  0  0
   25.6593  -15.5825  -15.9390 C   0  0  1  0  0  0  0  0  0  0  0  0
   25.6843  -17.0238  -15.5824 C   0  0  0  0  0  0  0  0  0  0  0  0
   24.6135  -17.7087  -15.6362 O   0  0  0  0  0  0  0  0  0  0  0  0
   28.3295  -21.1925  -14.8551 C   0  0  0  0  0  0  0  0  0  0  0  0
   28.1276  -19.7745  -15.2667 C   0  0  1  0  0  0  0  0  0  0  0  0
   28.3168  -19.6716  -16.7454 C   0  0  0  0  0  0  0  0  0  0  0  0
   26.8382  -19.1593  -14.8628 C   0  0  2  0  0  0  0  0  0  0  0  0
   26.8207  -17.7229  -15.1775 N   0  0  0  0  0  0  0  0  0  0  0  0
   26.6312  -19.3274  -13.4053 C   0  0  0  0  0  0  0  0  0  0  0  0
   27.3289  -18.5852  -12.6037 O   0  0  0  0  0  0  0  0  0  0  0  0
   21.3465  -19.7327   -9.9123 C   0  0  0  0  0  0  0  0  0  0  0  0
   22.4887  -20.4786   -8.7118 S   0  0  0  0  0  0  0  0  0  0  0  0
   24.1695  -20.5285   -9.3330 C   0  0  0  0  0  0  0  0  0  0  0  0
   24.3510  -20.3012  -10.7849 C   0  0  0  0  0  0  0  0  0  0  0  0
   25.7536  -20.2898  -11.2443 C   0  0  2  0  0  0  0  0  0  0  0  0
   25.7599  -20.1940  -12.7404 N   0  0  0  0  0  0  0  0  0  0  0  0
   26.4986  -21.5056  -10.9536 C   0  0  0  0  0  0  0  0  0  0  0  0
   26.3729  -22.6111  -11.5363 O   0  0  0  0  0  0  0  0  0  0  0  0
   27.4807  -21.5344   -9.9320 O   0  0  0  0  0  0  0  0  0  0  0  0
  1  5  1  0
  1  2  1  0
  2  3  1  0
  4  3  1  0
  5  4  1  0
  5  6  1  1
  7  6  2  0
  9  8  1  6
  9 10  1  0
  9 11  1  0
 11 12  1  1
 12  6  1  0
 13 20  1  0
 13 11  1  0
 14 13  2  0
 15 16  1  0
 16 17  1  0
 19 18  1  6
 18 17  1  0
 19 20  1  0
 19 21  1  0
 21 23  1  0
 22 21  2  0
M  END
$$$$
