PVM.pdb
     RDKit          3D

 23 23  0  0  1  0  0  0  0  0999 V2000
   26.5523  -20.7356  -16.7194 N   0  0  0  0  0  0  0  0  0  0  0  0
   27.9055  -20.1987  -16.8773 C   0  0  0  0  0  0  0  0  0  0  0  0
   28.7522  -21.3783  -16.4930 C   0  0  0  0  0  0  0  0  0  0  0  0
   27.9834  -22.0815  -15.4014 C   0  0  0  0  0  0  0  0  0  0  0  0
   26.6071  -21.5154  -15.4845 C   0  0  1  0  0  0  0  0  0  0  0  0
   26.2303  -20.6864  -14.3114 C   0  0  0  0  0  0  0  0  0  0  0  0
   26.5974  -19.4699  -14.2509 O   0  0  0  0  0  0  0  0  0  0  0  0
   22.8064  -19.6230  -13.3280 C   0  0  0  0  0  0  0  0  0  0  0  0
   23.4661  -20.2793  -12.1639 C   0  0  1  0  0  0  0  0  0  0  0  0
   22.9545  -21.6785  -12.0475 C   0  0  0  0  0  0  0  0  0  0  0  0
   24.9506  -20.2664  -12.1677 C   0  0  2  0  0  0  0  0  0  0  0  0
   25.4803  -21.1387  -13.2265 N   0  0  0  0  0  0  0  0  0  0  0  0
   25.4647  -20.7411  -10.8616 C   0  0  0  0  0  0  0  0  0  0  0  0
   25.6060  -22.0185  -10.6931 O   0  0  0  0  0  0  0  0  0  0  0  0
   28.8310  -19.6378   -3.7282 C   0  0  0  0  0  0  0  0  0  0  0  0
   28.4176  -18.9523   -5.3596 S   0  0  0  0  0  0  0  0  0  0  0  0
   27.4278  -20.0895   -6.3292 C   0  0  0  0  0  0  0  0  0  0  0  0
   27.1080  -19.6802   -7.7159 C   0  0  0  0  0  0  0  0  0  0  0  0
   26.3108  -20.6547   -8.4861 C   0  0  2  0  0  0  0  0  0  0  0  0
   25.8399  -19.9901   -9.7448 N   0  0  0  0  0  0  0  0  0  0  0  0
   25.0903  -21.0969   -7.8286 C   0  0  0  0  0  0  0  0  0  0  0  0
   23.9340  -20.6500   -8.0303 O   0  0  0  0  0  0  0  0  0  0  0  0
   25.1165  -22.1269   -6.8551 O   0  0  0  0  0  0  0  0  0  0  0  0
  1  5  1  0
  1  2  1  0
  2  3  1  0
  4  3  1  0
  5  4  1  0
  5  6  1  1
  7  6  2  0
  9  8  1  6
  9 10  1  0
  9 11  1  0
 11 12  1  6
 12  6  1  0
 13 20  1  0
 13 11  1  0
 14 13  2  0
 15 16  1  0
 16 17  1  0
 19 18  1  1
 18 17  1  0
 19 20  1  0
 19 21  1  0
 21 23  1  0
 22 21  2  0
M  END
$$$$
