NGF.pdb
     RDKit          3D

 24 24  0  0  1  0  0  0  0  0999 V2000
   29.0419  -21.2076  -18.2542 N   0  0  0  0  0  0  0  0  0  0  0  0
   27.6542  -21.1745  -18.0310 C   0  0  0  0  0  0  0  0  0  0  0  0
   26.9042  -20.6298  -18.9010 O   0  0  0  0  0  0  0  0  0  0  0  0
   27.0277  -21.7519  -16.8166 C   0  0  0  0  0  0  0  0  0  0  0  0
   26.1464  -20.7203  -16.1796 C   0  0  2  0  0  0  0  0  0  0  0  0
   26.9967  -19.6858  -15.6362 N   0  0  0  0  0  0  0  0  0  0  0  0
   25.2845  -21.3363  -15.1182 C   0  0  0  0  0  0  0  0  0  0  0  0
   24.1189  -21.7373  -15.3915 O   0  0  0  0  0  0  0  0  0  0  0  0
   25.7701  -21.4721  -13.8059 N   0  0  0  0  0  0  0  0  0  0  0  0
   24.9747  -22.0365  -12.7462 C   0  0  0  0  0  0  0  0  0  0  0  0
   23.7740  -21.2823  -12.3933 C   0  0  0  0  0  0  0  0  0  0  0  0
   23.8782  -20.1744  -11.7584 O   0  0  0  0  0  0  0  0  0  0  0  0
   22.4332  -21.6493  -12.6879 N   0  0  0  0  0  0  0  0  0  0  0  0
   21.3214  -20.7216  -12.5965 C   0  0  1  0  0  0  0  0  0  0  0  0
   21.7491  -19.4547  -13.2727 C   0  0  0  0  0  0  0  0  0  0  0  0
   20.7131  -18.4033  -13.3154 C   0  0  0  0  0  0  0  0  0  0  0  0
   19.8652  -18.2590  -14.3943 C   0  0  0  0  0  0  0  0  0  0  0  0
   18.9055  -17.2692  -14.4057 C   0  0  0  0  0  0  0  0  0  0  0  0
   18.7496  -16.3883  -13.3533 C   0  0  0  0  0  0  0  0  0  0  0  0
   19.6093  -16.5534  -12.2868 C   0  0  0  0  0  0  0  0  0  0  0  0
   20.5742  -17.5327  -12.2522 C   0  0  0  0  0  0  0  0  0  0  0  0
   20.0787  -21.3009  -13.1375 C   0  0  0  0  0  0  0  0  0  0  0  0
   18.9859  -21.0825  -12.5590 O   0  0  0  0  0  0  0  0  0  0  0  0
   20.0572  -22.0892  -14.2744 O   0  0  0  0  0  0  0  0  0  0  0  0
  1  2  1  0
  2  3  2  0
  4  2  1  0
  5  4  1  0
  5  6  1  1
  7  9  1  0
  7  5  1  0
  8  7  2  0
 10  9  1  0
 10 11  1  0
 11 13  1  0
 12 11  2  0
 13 14  1  0
 14 22  1  0
 14 15  1  6
 15 16  1  0
 16 17  2  0
 17 18  1  0
 19 18  2  0
 20 19  1  0
 21 16  1  0
 21 20  2  0
 22 23  2  0
 22 24  1  0
M  END
$$$$
