NGF.pdb
     RDKit          3D

 24 24  0  0  1  0  0  0  0  0999 V2000
   23.0581  -19.5379  -17.4304 N   0  0  0  0  0  0  0  0  0  0  0  0
   22.2006  -19.1356  -16.3915 C   0  0  0  0  0  0  0  0  0  0  0  0
   20.9685  -18.9541  -16.6464 O   0  0  0  0  0  0  0  0  0  0  0  0
   22.6777  -18.9134  -15.0045 C   0  0  0  0  0  0  0  0  0  0  0  0
   23.7355  -19.9245  -14.6800 C   0  0  2  0  0  0  0  0  0  0  0  0
   23.0887  -21.2071  -14.5217 N   0  0  0  0  0  0  0  0  0  0  0  0
   24.4874  -19.5325  -13.4430 C   0  0  0  0  0  0  0  0  0  0  0  0
   23.8787  -19.0443  -12.4504 O   0  0  0  0  0  0  0  0  0  0  0  0
   25.8810  -19.7065  -13.3797 N   0  0  0  0  0  0  0  0  0  0  0  0
   26.6417  -19.3952  -12.1970 C   0  0  0  0  0  0  0  0  0  0  0  0
   26.4102  -20.2740  -11.0529 C   0  0  0  0  0  0  0  0  0  0  0  0
   25.5375  -21.2088  -11.1306 O   0  0  0  0  0  0  0  0  0  0  0  0
   27.0744  -20.2139   -9.7981 N   0  0  0  0  0  0  0  0  0  0  0  0
   26.8349  -21.1669   -8.7305 C   0  0  1  0  0  0  0  0  0  0  0  0
   28.1298  -21.3394   -7.9965 C   0  0  0  0  0  0  0  0  0  0  0  0
   28.2118  -20.6047   -6.7182 C   0  0  0  0  0  0  0  0  0  0  0  0
   28.0190  -21.2310   -5.5039 C   0  0  0  0  0  0  0  0  0  0  0  0
   28.1037  -20.5198   -4.3258 C   0  0  0  0  0  0  0  0  0  0  0  0
   28.3815  -19.1670   -4.3055 C   0  0  0  0  0  0  0  0  0  0  0  0
   28.5702  -18.5643   -5.5322 C   0  0  0  0  0  0  0  0  0  0  0  0
   28.4909  -19.2520   -6.7204 C   0  0  0  0  0  0  0  0  0  0  0  0
   25.7085  -20.7569   -7.8728 C   0  0  0  0  0  0  0  0  0  0  0  0
   25.2911  -19.5735   -7.9157 O   0  0  0  0  0  0  0  0  0  0  0  0
   25.0759  -21.6300   -7.0056 O   0  0  0  0  0  0  0  0  0  0  0  0
  1  2  1  0
  2  3  2  0
  4  2  1  0
  5  4  1  0
  5  6  1  1
  7  9  1  0
  7  5  1  0
  8  7  2  0
 10  9  1  0
 10 11  1  0
 11 13  1  0
 12 11  2  0
 13 14  1  0
 14 22  1  0
 14 15  1  1
 15 16  1  0
 16 17  2  0
 17 18  1  0
 19 18  2  0
 20 19  1  0
 21 16  1  0
 21 20  2  0
 22 23  2  0
 22 24  1  0
M  END
$$$$
