NGF.pdb
     RDKit          3D

 24 24  0  0  1  0  0  0  0  0999 V2000
   18.4317  -12.0799  -17.6972 N   0  0  0  0  0  0  0  0  0  0  0  0
   18.8864  -11.4164  -18.8502 C   0  0  0  0  0  0  0  0  0  0  0  0
   19.2581  -12.1068  -19.8508 O   0  0  0  0  0  0  0  0  0  0  0  0
   18.9502   -9.9374  -18.9465 C   0  0  0  0  0  0  0  0  0  0  0  0
   20.3157   -9.5329  -19.4135 C   0  0  2  0  0  0  0  0  0  0  0  0
   21.2860  -10.1939  -18.5707 N   0  0  0  0  0  0  0  0  0  0  0  0
   20.4754   -8.0424  -19.3698 C   0  0  0  0  0  0  0  0  0  0  0  0
   19.7159   -7.2961  -20.0482 O   0  0  0  0  0  0  0  0  0  0  0  0
   21.4760   -7.4633  -18.5699 N   0  0  0  0  0  0  0  0  0  0  0  0
   21.5864   -6.0388  -18.3880 C   0  0  0  0  0  0  0  0  0  0  0  0
   21.0573   -5.5248  -17.1267 C   0  0  0  0  0  0  0  0  0  0  0  0
   20.0160   -4.7783  -17.1267 O   0  0  0  0  0  0  0  0  0  0  0  0
   21.5866   -5.7687  -15.8308 N   0  0  0  0  0  0  0  0  0  0  0  0
   20.9099   -5.3668  -14.6119 C   0  0  1  0  0  0  0  0  0  0  0  0
   20.0947   -6.5380  -14.1549 C   0  0  0  0  0  0  0  0  0  0  0  0
   20.8877   -7.6740  -13.6438 C   0  0  0  0  0  0  0  0  0  0  0  0
   21.4945   -8.5789  -14.4904 C   0  0  0  0  0  0  0  0  0  0  0  0
   22.2308   -9.6290  -13.9847 C   0  0  0  0  0  0  0  0  0  0  0  0
   22.3936   -9.8223  -12.6268 C   0  0  0  0  0  0  0  0  0  0  0  0
   21.7773   -8.9043  -11.8015 C   0  0  0  0  0  0  0  0  0  0  0  0
   21.0379   -7.8488  -12.2819 C   0  0  0  0  0  0  0  0  0  0  0  0
   21.8563   -4.8626  -13.6006 C   0  0  0  0  0  0  0  0  0  0  0  0
   23.0900   -4.8916  -13.8325 O   0  0  0  0  0  0  0  0  0  0  0  0
   21.4434   -4.3486  -12.3842 O   0  0  0  0  0  0  0  0  0  0  0  0
  1  2  1  0
  2  3  2  0
  4  2  1  0
  5  4  1  0
  5  6  1  1
  7  9  1  0
  7  5  1  0
  8  7  2  0
 10  9  1  0
 10 11  1  0
 11 13  1  0
 12 11  2  0
 13 14  1  0
 14 22  1  0
 14 15  1  1
 15 16  1  0
 16 17  2  0
 17 18  1  0
 19 18  2  0
 20 19  1  0
 21 16  1  0
 21 20  2  0
 22 23  2  0
 22 24  1  0
M  END
$$$$
