NGF.pdb
     RDKit          3D

 24 24  0  0  1  0  0  0  0  0999 V2000
   33.7745  -35.2245   -3.1436 N   0  0  0  0  0  0  0  0  0  0  0  0
   35.0225  -35.7940   -2.8355 C   0  0  0  0  0  0  0  0  0  0  0  0
   35.1482  -36.4524   -1.7554 O   0  0  0  0  0  0  0  0  0  0  0  0
   36.2028  -35.6568   -3.7236 C   0  0  0  0  0  0  0  0  0  0  0  0
   37.3982  -36.2605   -3.0502 C   0  0  2  0  0  0  0  0  0  0  0  0
   37.1785  -37.6855   -2.9518 N   0  0  0  0  0  0  0  0  0  0  0  0
   37.6187  -35.6445   -1.7008 C   0  0  0  0  0  0  0  0  0  0  0  0
   37.9694  -34.4361   -1.5971 O   0  0  0  0  0  0  0  0  0  0  0  0
   37.4358  -36.4115   -0.5368 N   0  0  0  0  0  0  0  0  0  0  0  0
   37.7117  -35.8917    0.7777 C   0  0  0  0  0  0  0  0  0  0  0  0
   36.5742  -35.2811    1.4622 C   0  0  0  0  0  0  0  0  0  0  0  0
   36.5903  -35.1487    2.7364 O   0  0  0  0  0  0  0  0  0  0  0  0
   35.3902  -34.7880    0.8504 N   0  0  0  0  0  0  0  0  0  0  0  0
   34.3153  -34.1631    1.5982 C   0  0  1  0  0  0  0  0  0  0  0  0
   34.2726  -32.7230    1.1865 C   0  0  0  0  0  0  0  0  0  0  0  0
   35.4277  -31.9221    1.6392 C   0  0  0  0  0  0  0  0  0  0  0  0
   35.4936  -31.3924    2.9115 C   0  0  0  0  0  0  0  0  0  0  0  0
   36.5859  -30.6501    3.3073 C   0  0  0  0  0  0  0  0  0  0  0  0
   37.6501  -30.4051    2.4617 C   0  0  0  0  0  0  0  0  0  0  0  0
   37.5603  -30.9455    1.1954 C   0  0  0  0  0  0  0  0  0  0  0  0
   36.4816  -31.6891    0.7774 C   0  0  0  0  0  0  0  0  0  0  0  0
   33.0378  -34.8765    1.4209 C   0  0  0  0  0  0  0  0  0  0  0  0
   32.0091  -34.4696    2.0148 O   0  0  0  0  0  0  0  0  0  0  0  0
   32.9143  -35.9949    0.6156 O   0  0  0  0  0  0  0  0  0  0  0  0
  1  2  1  0
  2  3  2  0
  4  2  1  0
  5  4  1  0
  5  6  1  1
  7  9  1  0
  7  5  1  0
  8  7  2  0
 10  9  1  0
 10 11  1  0
 11 13  1  0
 12 11  2  0
 13 14  1  0
 14 22  1  0
 14 15  1  6
 15 16  1  0
 16 17  2  0
 17 18  1  0
 19 18  2  0
 20 19  1  0
 21 16  1  0
 21 20  2  0
 22 23  2  0
 22 24  1  0
M  END
$$$$
