NGF.pdb
     RDKit          3D

 24 24  0  0  1  0  0  0  0  0999 V2000
   28.3034  -22.5774  -18.6652 N   0  0  0  0  0  0  0  0  0  0  0  0
   28.8016  -23.2136  -17.5147 C   0  0  0  0  0  0  0  0  0  0  0  0
   29.9004  -23.8484  -17.5900 O   0  0  0  0  0  0  0  0  0  0  0  0
   28.0940  -23.1737  -16.2116 C   0  0  0  0  0  0  0  0  0  0  0  0
   26.7741  -22.4859  -16.3890 C   0  0  2  0  0  0  0  0  0  0  0  0
   26.7947  -21.2769  -15.5976 N   0  0  0  0  0  0  0  0  0  0  0  0
   25.6443  -23.3863  -15.9867 C   0  0  0  0  0  0  0  0  0  0  0  0
   24.7494  -23.7033  -16.8190 O   0  0  0  0  0  0  0  0  0  0  0  0
   25.5733  -23.8858  -14.6745 N   0  0  0  0  0  0  0  0  0  0  0  0
   24.3958  -24.5385  -14.1629 C   0  0  0  0  0  0  0  0  0  0  0  0
   23.2608  -23.6601  -13.8888 C   0  0  0  0  0  0  0  0  0  0  0  0
   22.2299  -24.1177  -13.2810 O   0  0  0  0  0  0  0  0  0  0  0  0
   23.1593  -22.2849  -14.2321 N   0  0  0  0  0  0  0  0  0  0  0  0
   22.1857  -21.3906  -13.6341 C   0  0  1  0  0  0  0  0  0  0  0  0
   22.9410  -20.2108  -13.1022 C   0  0  0  0  0  0  0  0  0  0  0  0
   23.8392  -20.5179  -11.9711 C   0  0  0  0  0  0  0  0  0  0  0  0
   23.3788  -20.5853  -10.6722 C   0  0  0  0  0  0  0  0  0  0  0  0
   24.2405  -20.8763   -9.6360 C   0  0  0  0  0  0  0  0  0  0  0  0
   25.5854  -21.1107   -9.8459 C   0  0  0  0  0  0  0  0  0  0  0  0
   26.0208  -21.0376  -11.1531 C   0  0  0  0  0  0  0  0  0  0  0  0
   25.1810  -20.7491  -12.2032 C   0  0  0  0  0  0  0  0  0  0  0  0
   21.1113  -21.0390  -14.5800 C   0  0  0  0  0  0  0  0  0  0  0  0
   21.2480  -21.2950  -15.8016 O   0  0  0  0  0  0  0  0  0  0  0  0
   19.9359  -20.4289  -14.1793 O   0  0  0  0  0  0  0  0  0  0  0  0
  1  2  1  0
  2  3  2  0
  4  2  1  0
  5  4  1  0
  5  6  1  1
  7  9  1  0
  7  5  1  0
  8  7  2  0
 10  9  1  0
 10 11  1  0
 11 13  1  0
 12 11  2  0
 13 14  1  0
 14 22  1  0
 14 15  1  6
 15 16  1  0
 16 17  2  0
 17 18  1  0
 19 18  2  0
 20 19  1  0
 21 16  1  0
 21 20  2  0
 22 23  2  0
 22 24  1  0
M  END
$$$$
