NGF.pdb
     RDKit          3D

 24 24  0  0  1  0  0  0  0  0999 V2000
   28.9489  -23.3019  -16.9111 N   0  0  0  0  0  0  0  0  0  0  0  0
   27.6619  -22.7620  -16.7410 C   0  0  0  0  0  0  0  0  0  0  0  0
   27.0821  -22.2283  -17.7385 O   0  0  0  0  0  0  0  0  0  0  0  0
   26.9509  -22.7902  -15.4394 C   0  0  0  0  0  0  0  0  0  0  0  0
   26.3211  -21.4525  -15.1935 C   0  0  2  0  0  0  0  0  0  0  0  0
   27.3555  -20.4492  -15.3025 N   0  0  0  0  0  0  0  0  0  0  0  0
   25.6579  -21.4135  -13.8490 C   0  0  0  0  0  0  0  0  0  0  0  0
   24.9470  -22.3802  -13.4564 O   0  0  0  0  0  0  0  0  0  0  0  0
   25.8237  -20.2956  -13.0128 N   0  0  0  0  0  0  0  0  0  0  0  0
   25.0990  -20.1454  -11.7772 C   0  0  0  0  0  0  0  0  0  0  0  0
   25.8001  -20.6022  -10.5794 C   0  0  0  0  0  0  0  0  0  0  0  0
   26.4641  -21.6976  -10.6054 O   0  0  0  0  0  0  0  0  0  0  0  0
   25.8374  -19.9400   -9.3226 N   0  0  0  0  0  0  0  0  0  0  0  0
   26.5807  -20.4463   -8.1840 C   0  0  1  0  0  0  0  0  0  0  0  0
   27.3875  -19.3054   -7.6431 C   0  0  0  0  0  0  0  0  0  0  0  0
   28.0228  -19.5698   -6.3365 C   0  0  0  0  0  0  0  0  0  0  0  0
   27.8538  -18.7242   -5.2595 C   0  0  0  0  0  0  0  0  0  0  0  0
   28.4577  -18.9976   -4.0506 C   0  0  0  0  0  0  0  0  0  0  0  0
   29.2486  -20.1143   -3.8631 C   0  0  0  0  0  0  0  0  0  0  0  0
   29.4019  -20.9438   -4.9549 C   0  0  0  0  0  0  0  0  0  0  0  0
   28.8099  -20.6926   -6.1706 C   0  0  0  0  0  0  0  0  0  0  0  0
   25.6959  -21.0805   -7.1903 C   0  0  0  0  0  0  0  0  0  0  0  0
   24.4860  -20.7501   -7.1325 O   0  0  0  0  0  0  0  0  0  0  0  0
   26.1424  -22.0416   -6.3007 O   0  0  0  0  0  0  0  0  0  0  0  0
  1  2  1  0
  2  3  2  0
  4  2  1  0
  5  4  1  0
  5  6  1  1
  7  9  1  0
  7  5  1  0
  8  7  2  0
 10  9  1  0
 10 11  1  0
 11 13  1  0
 12 11  2  0
 13 14  1  0
 14 22  1  0
 14 15  1  1
 15 16  1  0
 16 17  2  0
 17 18  1  0
 19 18  2  0
 20 19  1  0
 21 16  1  0
 21 20  2  0
 22 23  2  0
 22 24  1  0
M  END
$$$$
