NGF.pdb
     RDKit          3D

 24 24  0  0  1  0  0  0  0  0999 V2000
   18.4729  -14.7860  -17.0687 N   0  0  0  0  0  0  0  0  0  0  0  0
   17.9877  -13.6165  -16.4575 C   0  0  0  0  0  0  0  0  0  0  0  0
   17.2075  -13.7225  -15.4595 O   0  0  0  0  0  0  0  0  0  0  0  0
   18.3508  -12.2589  -16.9324 C   0  0  0  0  0  0  0  0  0  0  0  0
   18.5323  -11.3560  -15.7498 C   0  0  2  0  0  0  0  0  0  0  0  0
   17.2386  -11.1674  -15.1338 N   0  0  0  0  0  0  0  0  0  0  0  0
   19.1388  -10.0486  -16.1642 C   0  0  0  0  0  0  0  0  0  0  0  0
   20.3506   -9.9858  -16.5132 O   0  0  0  0  0  0  0  0  0  0  0  0
   18.3593   -8.8786  -16.1670 N   0  0  0  0  0  0  0  0  0  0  0  0
   18.8959   -7.5980  -16.5496 C   0  0  0  0  0  0  0  0  0  0  0  0
   19.4313   -6.7903  -15.4560 C   0  0  0  0  0  0  0  0  0  0  0  0
   18.9711   -6.9350  -14.2691 O   0  0  0  0  0  0  0  0  0  0  0  0
   20.4579   -5.8129  -15.5567 N   0  0  0  0  0  0  0  0  0  0  0  0
   20.9146   -5.0268  -14.4259 C   0  0  1  0  0  0  0  0  0  0  0  0
   22.3368   -5.4190  -14.1634 C   0  0  0  0  0  0  0  0  0  0  0  0
   22.5418   -6.8637  -13.9369 C   0  0  0  0  0  0  0  0  0  0  0  0
   22.2828   -7.4542  -12.7171 C   0  0  0  0  0  0  0  0  0  0  0  0
   22.4816   -8.8064  -12.5353 C   0  0  0  0  0  0  0  0  0  0  0  0
   22.9426   -9.6218  -13.5503 C   0  0  0  0  0  0  0  0  0  0  0  0
   23.1940   -9.0075  -14.7600 C   0  0  0  0  0  0  0  0  0  0  0  0
   23.0036   -7.6612  -14.9658 C   0  0  0  0  0  0  0  0  0  0  0  0
   20.7213   -3.5827  -14.6489 C   0  0  0  0  0  0  0  0  0  0  0  0
   20.3455   -3.1707  -15.7738 O   0  0  0  0  0  0  0  0  0  0  0  0
   20.9377   -2.6403  -13.6592 O   0  0  0  0  0  0  0  0  0  0  0  0
  1  2  1  0
  2  3  2  0
  4  2  1  0
  5  4  1  0
  5  6  1  6
  7  9  1  0
  7  5  1  0
  8  7  2  0
 10  9  1  0
 10 11  1  0
 11 13  1  0
 12 11  2  0
 13 14  1  0
 14 22  1  0
 14 15  1  6
 15 16  1  0
 16 17  2  0
 17 18  1  0
 19 18  2  0
 20 19  1  0
 21 16  1  0
 21 20  2  0
 22 23  2  0
 22 24  1  0
M  END
$$$$
