NGF.pdb
     RDKit          3D

 24 24  0  0  1  0  0  0  0  0999 V2000
   29.0616  -19.5318  -18.7030 N   0  0  0  0  0  0  0  0  0  0  0  0
   27.8360  -20.2204  -18.6915 C   0  0  0  0  0  0  0  0  0  0  0  0
   27.1589  -20.2888  -19.7653 O   0  0  0  0  0  0  0  0  0  0  0  0
   27.2991  -20.8729  -17.4722 C   0  0  0  0  0  0  0  0  0  0  0  0
   28.2466  -20.6437  -16.3336 C   0  0  2  0  0  0  0  0  0  0  0  0
   28.8481  -21.9135  -15.9955 N   0  0  0  0  0  0  0  0  0  0  0  0
   27.5340  -20.0436  -15.1584 C   0  0  0  0  0  0  0  0  0  0  0  0
   26.3707  -19.5699  -15.2874 O   0  0  0  0  0  0  0  0  0  0  0  0
   28.1587  -20.0039  -13.8996 N   0  0  0  0  0  0  0  0  0  0  0  0
   27.5409  -19.3879  -12.7537 C   0  0  0  0  0  0  0  0  0  0  0  0
   26.6535  -20.2525  -11.9790 C   0  0  0  0  0  0  0  0  0  0  0  0
   26.5009  -21.4791  -12.3164 O   0  0  0  0  0  0  0  0  0  0  0  0
   25.9014  -19.8760  -10.8337 N   0  0  0  0  0  0  0  0  0  0  0  0
   25.0571  -20.8024  -10.1028 C   0  0  1  0  0  0  0  0  0  0  0  0
   25.1381  -20.4229   -8.6555 C   0  0  0  0  0  0  0  0  0  0  0  0
   26.5124  -20.3233   -8.1245 C   0  0  0  0  0  0  0  0  0  0  0  0
   26.9609  -19.1944   -7.4702 C   0  0  0  0  0  0  0  0  0  0  0  0
   28.2491  -19.1304   -6.9829 C   0  0  0  0  0  0  0  0  0  0  0  0
   29.1384  -20.1777   -7.1244 C   0  0  0  0  0  0  0  0  0  0  0  0
   28.6659  -21.2949   -7.7820 C   0  0  0  0  0  0  0  0  0  0  0  0
   27.3857  -21.3825   -8.2768 C   0  0  0  0  0  0  0  0  0  0  0  0
   23.6847  -20.8331  -10.6396 C   0  0  0  0  0  0  0  0  0  0  0  0
   23.3483  -20.0220  -11.5370 O   0  0  0  0  0  0  0  0  0  0  0  0
   22.7302  -21.7303  -10.1942 O   0  0  0  0  0  0  0  0  0  0  0  0
  1  2  1  0
  2  3  2  0
  4  2  1  0
  5  4  1  0
  5  6  1  1
  7  9  1  0
  7  5  1  0
  8  7  2  0
 10  9  1  0
 10 11  1  0
 11 13  1  0
 12 11  2  0
 13 14  1  0
 14 22  1  0
 14 15  1  1
 15 16  1  0
 16 17  2  0
 17 18  1  0
 19 18  2  0
 20 19  1  0
 21 16  1  0
 21 20  2  0
 22 23  2  0
 22 24  1  0
M  END
$$$$
