NGF.pdb
     RDKit          3D

 24 24  0  0  1  0  0  0  0  0999 V2000
   16.1087  -13.5384  -18.9961 N   0  0  0  0  0  0  0  0  0  0  0  0
   17.3378  -13.0117  -19.4303 C   0  0  0  0  0  0  0  0  0  0  0  0
   18.2227  -13.8057  -19.8801 O   0  0  0  0  0  0  0  0  0  0  0  0
   17.6446  -11.5610  -19.3844 C   0  0  0  0  0  0  0  0  0  0  0  0
   18.8422  -11.3386  -18.5110 C   0  0  2  0  0  0  0  0  0  0  0  0
   18.4467  -11.5918  -17.1442 N   0  0  0  0  0  0  0  0  0  0  0  0
   19.3750   -9.9469  -18.6795 C   0  0  0  0  0  0  0  0  0  0  0  0
   19.8993   -9.5888  -19.7708 O   0  0  0  0  0  0  0  0  0  0  0  0
   19.2942   -9.0274  -17.6191 N   0  0  0  0  0  0  0  0  0  0  0  0
   19.8273   -7.6930  -17.7162 C   0  0  0  0  0  0  0  0  0  0  0  0
   20.1264   -7.0428  -16.4423 C   0  0  0  0  0  0  0  0  0  0  0  0
   19.2935   -7.1230  -15.4721 O   0  0  0  0  0  0  0  0  0  0  0  0
   21.2943   -6.2944  -16.1337 N   0  0  0  0  0  0  0  0  0  0  0  0
   21.5307   -5.6992  -14.8317 C   0  0  1  0  0  0  0  0  0  0  0  0
   21.9123   -6.8112  -13.9027 C   0  0  0  0  0  0  0  0  0  0  0  0
   22.9492   -7.7210  -14.4298 C   0  0  0  0  0  0  0  0  0  0  0  0
   23.9511   -7.2766  -15.2678 C   0  0  0  0  0  0  0  0  0  0  0  0
   24.9074   -8.1487  -15.7430 C   0  0  0  0  0  0  0  0  0  0  0  0
   24.9078   -9.4886  -15.4078 C   0  0  0  0  0  0  0  0  0  0  0  0
   23.8959   -9.9080  -14.5688 C   0  0  0  0  0  0  0  0  0  0  0  0
   22.9310   -9.0575  -14.0819 C   0  0  0  0  0  0  0  0  0  0  0  0
   22.5188   -4.6077  -14.8996 C   0  0  0  0  0  0  0  0  0  0  0  0
   23.1099   -4.3686  -15.9812 O   0  0  0  0  0  0  0  0  0  0  0  0
   22.8329   -3.8177  -13.8079 O   0  0  0  0  0  0  0  0  0  0  0  0
  1  2  1  0
  2  3  2  0
  4  2  1  0
  5  4  1  0
  5  6  1  1
  7  9  1  0
  7  5  1  0
  8  7  2  0
 10  9  1  0
 10 11  1  0
 11 13  1  0
 12 11  2  0
 13 14  1  0
 14 22  1  0
 14 15  1  1
 15 16  1  0
 16 17  2  0
 17 18  1  0
 19 18  2  0
 20 19  1  0
 21 16  1  0
 21 20  2  0
 22 23  2  0
 22 24  1  0
M  END
$$$$
