NGF.pdb
     RDKit          3D

 24 24  0  0  1  0  0  0  0  0999 V2000
   26.3132  -17.9873  -17.8568 N   0  0  0  0  0  0  0  0  0  0  0  0
   25.8427  -17.9261  -16.5334 C   0  0  0  0  0  0  0  0  0  0  0  0
   24.6670  -17.4932  -16.3181 O   0  0  0  0  0  0  0  0  0  0  0  0
   26.6661  -18.3478  -15.3738 C   0  0  0  0  0  0  0  0  0  0  0  0
   26.0853  -19.5985  -14.7866 C   0  0  2  0  0  0  0  0  0  0  0  0
   24.9856  -19.2165  -13.9303 N   0  0  0  0  0  0  0  0  0  0  0  0
   27.1276  -20.3680  -14.0312 C   0  0  0  0  0  0  0  0  0  0  0  0
   28.1760  -20.7666  -14.6110 O   0  0  0  0  0  0  0  0  0  0  0  0
   26.9441  -20.6520  -12.6667 N   0  0  0  0  0  0  0  0  0  0  0  0
   27.9446  -21.3264  -11.8803 C   0  0  0  0  0  0  0  0  0  0  0  0
   27.7217  -21.3128  -10.4363 C   0  0  0  0  0  0  0  0  0  0  0  0
   28.2103  -22.2443   -9.7048 O   0  0  0  0  0  0  0  0  0  0  0  0
   26.9907  -20.3365   -9.7072 N   0  0  0  0  0  0  0  0  0  0  0  0
   26.4049  -20.5966   -8.4055 C   0  0  1  0  0  0  0  0  0  0  0  0
   26.5868  -19.3557   -7.5856 C   0  0  0  0  0  0  0  0  0  0  0  0
   27.6577  -19.4424   -6.5725 C   0  0  0  0  0  0  0  0  0  0  0  0
   28.2491  -18.3159   -6.0387 C   0  0  0  0  0  0  0  0  0  0  0  0
   29.2455  -18.4275   -5.0924 C   0  0  0  0  0  0  0  0  0  0  0  0
   29.6924  -19.6538   -4.6406 C   0  0  0  0  0  0  0  0  0  0  0  0
   29.0853  -20.7646   -5.1896 C   0  0  0  0  0  0  0  0  0  0  0  0
   28.0897  -20.6790   -6.1344 C   0  0  0  0  0  0  0  0  0  0  0  0
   25.0049  -21.0445   -8.5144 C   0  0  0  0  0  0  0  0  0  0  0  0
   24.3811  -20.8831   -9.5921 O   0  0  0  0  0  0  0  0  0  0  0  0
   24.3313  -21.6463   -7.4664 O   0  0  0  0  0  0  0  0  0  0  0  0
  1  2  1  0
  2  3  2  0
  4  2  1  0
  5  4  1  0
  5  6  1  1
  7  9  1  0
  7  5  1  0
  8  7  2  0
 10  9  1  0
 10 11  1  0
 11 13  1  0
 12 11  2  0
 13 14  1  0
 14 22  1  0
 14 15  1  1
 15 16  1  0
 16 17  2  0
 17 18  1  0
 19 18  2  0
 20 19  1  0
 21 16  1  0
 21 20  2  0
 22 23  2  0
 22 24  1  0
M  END
$$$$
