DSQ.pdb
     RDKit          3D

 24 23  0  0  1  0  0  0  0  0999 V2000
    7.6293  -13.8641   14.5343 N   0  0  0  0  0  0  0  0  0  0  0  0
    7.8573  -14.9073   15.5149 C   0  0  1  0  0  0  0  0  0  0  0  0
    8.5682  -16.0912   14.9464 C   0  0  0  0  0  0  0  0  0  0  0  0
    7.7108  -16.6943   13.8945 C   0  0  0  0  0  0  0  0  0  0  0  0
    7.7242  -16.2753   12.7233 O   0  0  0  0  0  0  0  0  0  0  0  0
    8.4987  -14.3773   16.7428 C   0  0  0  0  0  0  0  0  0  0  0  0
    9.6617  -13.8973   16.6233 O   0  0  0  0  0  0  0  0  0  0  0  0
    6.8736  -17.7499   14.2200 O   0  0  0  0  0  0  0  0  0  0  0  0
    7.0720  -14.9279   20.4947 O   0  0  0  0  0  0  0  0  0  0  0  0
    7.5952  -13.6608   20.2562 C   0  0  0  0  0  0  0  0  0  0  0  0
    8.6223  -13.8114   19.1318 C   0  0  2  0  0  0  0  0  0  0  0  0
    7.9035  -14.3754   18.0115 N   0  0  0  0  0  0  0  0  0  0  0  0
    9.6778  -14.7098   19.6401 C   0  0  0  0  0  0  0  0  0  0  0  0
    9.6658  -15.9090   19.2674 O   0  0  0  0  0  0  0  0  0  0  0  0
   15.4743  -13.6927   19.0752 N   0  0  0  0  0  0  0  0  0  0  0  0
   15.5335  -14.8651   19.8961 C   0  0  0  0  0  0  0  0  0  0  0  0
   16.6826  -15.3719   20.0367 O   0  0  0  0  0  0  0  0  0  0  0  0
   14.3420  -15.4521   20.5478 C   0  0  0  0  0  0  0  0  0  0  0  0
   13.1092  -14.6599   20.4068 C   0  0  0  0  0  0  0  0  0  0  0  0
   11.8281  -15.2133   20.8959 C   0  0  2  0  0  0  0  0  0  0  0  0
   10.7102  -14.3159   20.5234 N   0  0  0  0  0  0  0  0  0  0  0  0
   11.7108  -15.6492   22.2826 C   0  0  0  0  0  0  0  0  0  0  0  0
   11.3395  -16.9710   22.6207 O   0  0  0  0  0  0  0  0  0  0  0  0
   11.9194  -14.9237   23.3065 O   0  0  0  0  0  0  0  0  0  0  0  0
  2  1  1  6
  2  3  1  0
  3  4  1  0
  4  8  1  0
  5  4  2  0
  6  2  1  0
  7  6  2  0
  9 10  1  0
 11 10  1  1
 11 13  1  0
 11 12  1  0
 12  6  1  0
 13 21  1  0
 14 13  2  0
 16 18  1  0
 16 15  1  0
 17 16  2  0
 19 18  1  0
 20 19  1  1
 21 20  1  0
 22 23  1  0
 22 20  1  0
 24 22  2  0
M  END
$$$$
