DSQ.pdb
     RDKit          3D

 24 23  0  0  1  0  0  0  0  0999 V2000
   10.4100  -16.7063   17.5589 N   0  0  0  0  0  0  0  0  0  0  0  0
    9.5149  -17.2043   18.5848 C   0  0  1  0  0  0  0  0  0  0  0  0
    9.7579  -18.6394   18.9187 C   0  0  0  0  0  0  0  0  0  0  0  0
    9.3108  -19.4713   17.7727 C   0  0  0  0  0  0  0  0  0  0  0  0
    8.1176  -19.5124   17.4235 O   0  0  0  0  0  0  0  0  0  0  0  0
    9.5013  -16.3231   19.7780 C   0  0  0  0  0  0  0  0  0  0  0  0
   10.6131  -15.8666   20.1688 O   0  0  0  0  0  0  0  0  0  0  0  0
   10.2413  -20.2221   17.0715 O   0  0  0  0  0  0  0  0  0  0  0  0
    6.1306  -15.2712   21.8506 O   0  0  0  0  0  0  0  0  0  0  0  0
    7.1496  -14.3319   21.7264 C   0  0  0  0  0  0  0  0  0  0  0  0
    8.4633  -15.1130   21.6490 C   0  0  2  0  0  0  0  0  0  0  0  0
    8.3474  -15.9695   20.4902 N   0  0  0  0  0  0  0  0  0  0  0  0
    8.5782  -15.8740   22.9089 C   0  0  0  0  0  0  0  0  0  0  0  0
    8.0501  -17.0120   22.9643 O   0  0  0  0  0  0  0  0  0  0  0  0
   12.0923  -19.4785   25.5579 N   0  0  0  0  0  0  0  0  0  0  0  0
   12.2789  -18.5637   24.4715 C   0  0  0  0  0  0  0  0  0  0  0  0
   13.3337  -18.7312   23.7959 O   0  0  0  0  0  0  0  0  0  0  0  0
   11.3101  -17.4945   24.1445 C   0  0  0  0  0  0  0  0  0  0  0  0
   10.0743  -17.5167   24.9442 C   0  0  0  0  0  0  0  0  0  0  0  0
    9.4033  -16.2433   25.2831 C   0  0  2  0  0  0  0  0  0  0  0  0
    9.2449  -15.4118   24.0678 N   0  0  0  0  0  0  0  0  0  0  0  0
    9.8877  -15.4464   26.4043 C   0  0  0  0  0  0  0  0  0  0  0  0
   10.2199  -14.0795   26.2601 O   0  0  0  0  0  0  0  0  0  0  0  0
   10.0609  -15.8682   27.5918 O   0  0  0  0  0  0  0  0  0  0  0  0
  2  1  1  6
  2  3  1  0
  3  4  1  0
  4  8  1  0
  5  4  2  0
  6  2  1  0
  7  6  2  0
  9 10  1  0
 11 10  1  1
 11 13  1  0
 11 12  1  0
 12  6  1  0
 13 21  1  0
 14 13  2  0
 16 18  1  0
 16 15  1  0
 17 16  2  0
 19 18  1  0
 20 19  1  6
 21 20  1  0
 22 23  1  0
 22 20  1  0
 24 22  2  0
M  END
$$$$
