DSQ.pdb
     RDKit          3D

 24 23  0  0  1  0  0  0  0  0999 V2000
   10.7673  -18.6334   19.2599 N   0  0  0  0  0  0  0  0  0  0  0  0
   10.5843  -17.2014   19.1267 C   0  0  1  0  0  0  0  0  0  0  0  0
    9.9069  -16.8202   17.8516 C   0  0  0  0  0  0  0  0  0  0  0  0
   10.7295  -17.3111   16.7169 C   0  0  0  0  0  0  0  0  0  0  0  0
   10.9785  -18.5206   16.5677 O   0  0  0  0  0  0  0  0  0  0  0  0
    9.9388  -16.6154   20.3268 C   0  0  0  0  0  0  0  0  0  0  0  0
   10.4905  -15.6004   20.8391 O   0  0  0  0  0  0  0  0  0  0  0  0
   11.2345  -16.4038   15.7987 O   0  0  0  0  0  0  0  0  0  0  0  0
    6.3012  -16.4074   23.4180 O   0  0  0  0  0  0  0  0  0  0  0  0
    6.8615  -17.0781   22.3353 C   0  0  0  0  0  0  0  0  0  0  0  0
    8.2395  -16.4569   22.0959 C   0  0  2  0  0  0  0  0  0  0  0  0
    8.7701  -17.1106   20.9207 N   0  0  0  0  0  0  0  0  0  0  0  0
    9.0410  -16.7254   23.3063 C   0  0  0  0  0  0  0  0  0  0  0  0
    9.8428  -17.6916   23.2841 O   0  0  0  0  0  0  0  0  0  0  0  0
   10.2477  -12.9939   28.4308 N   0  0  0  0  0  0  0  0  0  0  0  0
   10.1543  -14.3201   28.9643 C   0  0  0  0  0  0  0  0  0  0  0  0
   10.3320  -14.4171   30.2117 O   0  0  0  0  0  0  0  0  0  0  0  0
    9.8639  -15.5053   28.1277 C   0  0  0  0  0  0  0  0  0  0  0  0
    9.6793  -15.2187   26.6955 C   0  0  0  0  0  0  0  0  0  0  0  0
    9.7318  -16.3273   25.7184 C   0  0  2  0  0  0  0  0  0  0  0  0
    8.9715  -15.9681   24.4992 N   0  0  0  0  0  0  0  0  0  0  0  0
    9.4218  -17.6859   26.1484 C   0  0  0  0  0  0  0  0  0  0  0  0
   10.4207  -18.5622   26.6317 O   0  0  0  0  0  0  0  0  0  0  0  0
    8.2670  -18.2193   26.1399 O   0  0  0  0  0  0  0  0  0  0  0  0
  2  1  1  1
  2  3  1  0
  3  4  1  0
  4  8  1  0
  5  4  2  0
  6  2  1  0
  7  6  2  0
  9 10  1  0
 11 10  1  1
 11 13  1  0
 11 12  1  0
 12  6  1  0
 13 21  1  0
 14 13  2  0
 16 18  1  0
 16 15  1  0
 17 16  2  0
 19 18  1  0
 20 19  1  1
 21 20  1  0
 22 23  1  0
 22 20  1  0
 24 22  2  0
M  END
$$$$
