DSQ.pdb
     RDKit          3D

 24 23  0  0  1  0  0  0  0  0999 V2000
   11.5490  -19.2320   19.7796 N   0  0  0  0  0  0  0  0  0  0  0  0
   11.5889  -17.8254   20.1283 C   0  0  1  0  0  0  0  0  0  0  0  0
   11.5101  -16.9304   18.9354 C   0  0  0  0  0  0  0  0  0  0  0  0
   12.7533  -17.0959   18.1402 C   0  0  0  0  0  0  0  0  0  0  0  0
   13.4233  -16.1167   17.7666 O   0  0  0  0  0  0  0  0  0  0  0  0
   10.5927  -17.4897   21.1748 C   0  0  0  0  0  0  0  0  0  0  0  0
   10.5826  -16.2993   21.5989 O   0  0  0  0  0  0  0  0  0  0  0  0
   13.1822  -18.3702   17.8033 O   0  0  0  0  0  0  0  0  0  0  0  0
    6.9621  -19.2116   22.2131 O   0  0  0  0  0  0  0  0  0  0  0  0
    7.9741  -19.2036   23.1681 C   0  0  0  0  0  0  0  0  0  0  0  0
    8.8706  -18.0044   22.8517 C   0  0  2  0  0  0  0  0  0  0  0  0
    9.6735  -18.3985   21.7160 N   0  0  0  0  0  0  0  0  0  0  0  0
    9.6805  -17.7510   24.0598 C   0  0  0  0  0  0  0  0  0  0  0  0
   10.8713  -18.1498   24.0696 O   0  0  0  0  0  0  0  0  0  0  0  0
   10.2649  -13.3039   30.0801 N   0  0  0  0  0  0  0  0  0  0  0  0
    9.8809  -13.7999   28.7923 C   0  0  0  0  0  0  0  0  0  0  0  0
    9.1143  -13.0470   28.1271 O   0  0  0  0  0  0  0  0  0  0  0  0
   10.3461  -15.0992   28.2590 C   0  0  0  0  0  0  0  0  0  0  0  0
    9.6616  -15.5433   27.0336 C   0  0  0  0  0  0  0  0  0  0  0  0
   10.0771  -16.8050   26.3840 C   0  0  2  0  0  0  0  0  0  0  0  0
    9.2101  -17.0865   25.2167 N   0  0  0  0  0  0  0  0  0  0  0  0
   10.2749  -18.0033   27.1913 C   0  0  0  0  0  0  0  0  0  0  0  0
   11.4876  -18.2511   27.8749 O   0  0  0  0  0  0  0  0  0  0  0  0
    9.4175  -18.9263   27.3680 O   0  0  0  0  0  0  0  0  0  0  0  0
  2  1  1  6
  2  3  1  0
  3  4  1  0
  4  8  1  0
  5  4  2  0
  6  2  1  0
  7  6  2  0
  9 10  1  0
 11 10  1  1
 11 13  1  0
 11 12  1  0
 12  6  1  0
 13 21  1  0
 14 13  2  0
 16 18  1  0
 16 15  1  0
 17 16  2  0
 19 18  1  0
 20 19  1  1
 21 20  1  0
 22 23  1  0
 22 20  1  0
 24 22  2  0
M  END
$$$$
