DSQ.pdb
     RDKit          3D

 24 23  0  0  1  0  0  0  0  0999 V2000
    9.9933  -19.1000   18.2969 N   0  0  0  0  0  0  0  0  0  0  0  0
   10.4188  -17.7464   18.5940 C   0  0  1  0  0  0  0  0  0  0  0  0
   10.7643  -16.9658   17.3687 C   0  0  0  0  0  0  0  0  0  0  0  0
   11.7641  -17.7363   16.5864 C   0  0  0  0  0  0  0  0  0  0  0  0
   11.7625  -17.7315   15.3425 O   0  0  0  0  0  0  0  0  0  0  0  0
    9.4530  -17.0475   19.4766 C   0  0  0  0  0  0  0  0  0  0  0  0
    9.0446  -15.9130   19.0983 O   0  0  0  0  0  0  0  0  0  0  0  0
   12.7245  -18.4806   17.2532 O   0  0  0  0  0  0  0  0  0  0  0  0
    7.1985  -18.3741   22.9726 O   0  0  0  0  0  0  0  0  0  0  0  0
    6.8711  -17.7220   21.7878 C   0  0  0  0  0  0  0  0  0  0  0  0
    8.0339  -16.7806   21.4659 C   0  0  2  0  0  0  0  0  0  0  0  0
    8.9712  -17.5598   20.6886 N   0  0  0  0  0  0  0  0  0  0  0  0
    8.5944  -16.3424   22.7596 C   0  0  0  0  0  0  0  0  0  0  0  0
    9.6367  -16.9062   23.1754 O   0  0  0  0  0  0  0  0  0  0  0  0
    5.2955  -11.8555   26.6810 N   0  0  0  0  0  0  0  0  0  0  0  0
    6.6481  -12.2887   26.8676 C   0  0  0  0  0  0  0  0  0  0  0  0
    7.4234  -11.4380   27.3893 O   0  0  0  0  0  0  0  0  0  0  0  0
    7.1204  -13.6382   26.4876 C   0  0  0  0  0  0  0  0  0  0  0  0
    8.0459  -13.6678   25.3430 C   0  0  0  0  0  0  0  0  0  0  0  0
    8.6041  -14.9604   24.8912 C   0  0  2  0  0  0  0  0  0  0  0  0
    8.0392  -15.3260   23.5718 N   0  0  0  0  0  0  0  0  0  0  0  0
    8.6049  -16.1040   25.7962 C   0  0  0  0  0  0  0  0  0  0  0  0
    9.5773  -16.2514   26.8121 O   0  0  0  0  0  0  0  0  0  0  0  0
    7.7678  -17.0617   25.7792 O   0  0  0  0  0  0  0  0  0  0  0  0
  2  1  1  6
  2  3  1  0
  3  4  1  0
  4  8  1  0
  5  4  2  0
  6  2  1  0
  7  6  2  0
  9 10  1  0
 11 10  1  1
 11 13  1  0
 11 12  1  0
 12  6  1  0
 13 21  1  0
 14 13  2  0
 16 18  1  0
 16 15  1  0
 17 16  2  0
 19 18  1  0
 20 19  1  1
 21 20  1  0
 22 23  1  0
 22 20  1  0
 24 22  2  0
M  END
$$$$
