DSQ.pdb
     RDKit          3D

 24 23  0  0  1  0  0  0  0  0999 V2000
   10.0353  -17.5510   19.3098 N   0  0  0  0  0  0  0  0  0  0  0  0
   10.8356  -18.0978   20.3879 C   0  0  1  0  0  0  0  0  0  0  0  0
   12.2588  -17.6481   20.3384 C   0  0  0  0  0  0  0  0  0  0  0  0
   12.8409  -18.0709   19.0394 C   0  0  0  0  0  0  0  0  0  0  0  0
   13.2877  -17.2434   18.2252 O   0  0  0  0  0  0  0  0  0  0  0  0
   10.2009  -17.8776   21.7104 C   0  0  0  0  0  0  0  0  0  0  0  0
    9.9905  -16.6802   22.0554 O   0  0  0  0  0  0  0  0  0  0  0  0
   12.8901  -19.4191   18.7212 O   0  0  0  0  0  0  0  0  0  0  0  0
    9.1784  -20.7735   24.6207 O   0  0  0  0  0  0  0  0  0  0  0  0
    8.3059  -19.7773   24.1935 C   0  0  0  0  0  0  0  0  0  0  0  0
    9.1646  -18.5635   23.8312 C   0  0  2  0  0  0  0  0  0  0  0  0
    9.8248  -18.9013   22.5903 N   0  0  0  0  0  0  0  0  0  0  0  0
   10.1137  -18.3687   24.9452 C   0  0  0  0  0  0  0  0  0  0  0  0
   11.2461  -18.9047   24.8597 O   0  0  0  0  0  0  0  0  0  0  0  0
   10.7391  -13.1426   28.4331 N   0  0  0  0  0  0  0  0  0  0  0  0
    9.5450  -13.9335   28.4623 C   0  0  0  0  0  0  0  0  0  0  0  0
    8.5077  -13.3355   28.8664 O   0  0  0  0  0  0  0  0  0  0  0  0
    9.5094  -15.3524   28.0451 C   0  0  0  0  0  0  0  0  0  0  0  0
   10.7789  -15.8690   27.5076 C   0  0  0  0  0  0  0  0  0  0  0  0
   10.8784  -17.2912   27.1151 C   0  0  2  0  0  0  0  0  0  0  0  0
    9.8389  -17.6166   26.1114 N   0  0  0  0  0  0  0  0  0  0  0  0
   10.9547  -18.3220   28.1439 C   0  0  0  0  0  0  0  0  0  0  0  0
   12.0350  -18.3902   29.0536 O   0  0  0  0  0  0  0  0  0  0  0  0
   10.0962  -19.2409   28.3358 O   0  0  0  0  0  0  0  0  0  0  0  0
  2  1  1  6
  2  3  1  0
  3  4  1  0
  4  8  1  0
  5  4  2  0
  6  2  1  0
  7  6  2  0
  9 10  1  0
 11 10  1  1
 11 13  1  0
 11 12  1  0
 12  6  1  0
 13 21  1  0
 14 13  2  0
 16 18  1  0
 16 15  1  0
 17 16  2  0
 19 18  1  0
 20 19  1  1
 21 20  1  0
 22 23  1  0
 22 20  1  0
 24 22  2  0
M  END
$$$$
