DSQ.pdb
     RDKit          3D

 24 23  0  0  1  0  0  0  0  0999 V2000
   11.3758  -14.6577   18.6327 N   0  0  0  0  0  0  0  0  0  0  0  0
   12.2313  -15.2132   19.6628 C   0  0  1  0  0  0  0  0  0  0  0  0
   13.5038  -14.4502   19.8324 C   0  0  0  0  0  0  0  0  0  0  0  0
   14.3689  -14.7100   18.6537 C   0  0  0  0  0  0  0  0  0  0  0  0
   14.0782  -15.5770   17.8104 O   0  0  0  0  0  0  0  0  0  0  0  0
   11.4988  -15.4144   20.9368 C   0  0  0  0  0  0  0  0  0  0  0  0
   11.2279  -14.3823   21.6140 O   0  0  0  0  0  0  0  0  0  0  0  0
   15.5295  -13.9714   18.4840 O   0  0  0  0  0  0  0  0  0  0  0  0
   10.2754  -19.0408   22.2593 O   0  0  0  0  0  0  0  0  0  0  0  0
    9.4058  -17.9744   22.4666 C   0  0  0  0  0  0  0  0  0  0  0  0
   10.2714  -16.7216   22.6183 C   0  0  2  0  0  0  0  0  0  0  0  0
   11.0934  -16.6616   21.4306 N   0  0  0  0  0  0  0  0  0  0  0  0
   11.0650  -16.9020   23.8501 C   0  0  0  0  0  0  0  0  0  0  0  0
   12.2759  -17.2142   23.7348 O   0  0  0  0  0  0  0  0  0  0  0  0
   10.5898  -13.1821   28.1960 N   0  0  0  0  0  0  0  0  0  0  0  0
    9.6891  -14.2671   28.4479 C   0  0  0  0  0  0  0  0  0  0  0  0
    8.6224  -13.9581   29.0510 O   0  0  0  0  0  0  0  0  0  0  0  0
    9.9694  -15.6588   28.0316 C   0  0  0  0  0  0  0  0  0  0  0  0
   11.2378  -15.8420   27.3071 C   0  0  0  0  0  0  0  0  0  0  0  0
   11.3836  -16.9760   26.3694 C   0  0  2  0  0  0  0  0  0  0  0  0
   10.5575  -16.7477   25.1615 N   0  0  0  0  0  0  0  0  0  0  0  0
   11.2329  -18.3420   26.8572 C   0  0  0  0  0  0  0  0  0  0  0  0
   12.0962  -18.8844   27.8369 O   0  0  0  0  0  0  0  0  0  0  0  0
   10.3460  -19.1703   26.4756 O   0  0  0  0  0  0  0  0  0  0  0  0
  2  1  1  6
  2  3  1  0
  3  4  1  0
  4  8  1  0
  5  4  2  0
  6  2  1  0
  7  6  2  0
  9 10  1  0
 11 10  1  6
 11 13  1  0
 11 12  1  0
 12  6  1  0
 13 21  1  0
 14 13  2  0
 16 18  1  0
 16 15  1  0
 17 16  2  0
 19 18  1  0
 20 19  1  1
 21 20  1  0
 22 23  1  0
 22 20  1  0
 24 22  2  0
M  END
$$$$
