DSQ.pdb
     RDKit          3D

 24 23  0  0  1  0  0  0  0  0999 V2000
    9.4080  -15.6276   20.4151 N   0  0  0  0  0  0  0  0  0  0  0  0
    8.2907  -15.6716   21.3378 C   0  0  1  0  0  0  0  0  0  0  0  0
    7.6200  -17.0055   21.3719 C   0  0  0  0  0  0  0  0  0  0  0  0
    7.4486  -17.4818   19.9759 C   0  0  0  0  0  0  0  0  0  0  0  0
    7.4207  -18.6943   19.6997 O   0  0  0  0  0  0  0  0  0  0  0  0
    8.6687  -15.1754   22.6836 C   0  0  0  0  0  0  0  0  0  0  0  0
    9.8496  -15.4048   23.0707 O   0  0  0  0  0  0  0  0  0  0  0  0
    7.3161  -16.5571   18.9518 O   0  0  0  0  0  0  0  0  0  0  0  0
    6.0520  -13.7689   25.5406 O   0  0  0  0  0  0  0  0  0  0  0  0
    7.2554  -13.0874   25.3880 C   0  0  0  0  0  0  0  0  0  0  0  0
    8.2728  -14.1006   24.8586 C   0  0  2  0  0  0  0  0  0  0  0  0
    7.8092  -14.4767   23.5420 N   0  0  0  0  0  0  0  0  0  0  0  0
    8.2744  -15.2332   25.8056 C   0  0  0  0  0  0  0  0  0  0  0  0
    7.4671  -16.1742   25.6057 O   0  0  0  0  0  0  0  0  0  0  0  0
    7.6597  -19.7150   26.7144 N   0  0  0  0  0  0  0  0  0  0  0  0
    8.9866  -20.0004   27.1725 C   0  0  0  0  0  0  0  0  0  0  0  0
    9.1629  -21.1632   27.6349 O   0  0  0  0  0  0  0  0  0  0  0  0
   10.0887  -19.0153   27.1098 C   0  0  0  0  0  0  0  0  0  0  0  0
    9.6939  -17.6778   26.6380 C   0  0  0  0  0  0  0  0  0  0  0  0
    9.3794  -16.6214   27.6238 C   0  0  2  0  0  0  0  0  0  0  0  0
    9.1254  -15.3373   26.9308 N   0  0  0  0  0  0  0  0  0  0  0  0
   10.2464  -16.4303   28.7807 C   0  0  0  0  0  0  0  0  0  0  0  0
   10.2955  -17.3661   29.8395 O   0  0  0  0  0  0  0  0  0  0  0  0
   11.0264  -15.4426   28.9657 O   0  0  0  0  0  0  0  0  0  0  0  0
  2  1  1  6
  2  3  1  0
  3  4  1  0
  4  8  1  0
  5  4  2  0
  6  2  1  0
  7  6  2  0
  9 10  1  0
 11 10  1  1
 11 13  1  0
 11 12  1  0
 12  6  1  0
 13 21  1  0
 14 13  2  0
 16 18  1  0
 16 15  1  0
 17 16  2  0
 19 18  1  0
 20 19  1  6
 21 20  1  0
 22 23  1  0
 22 20  1  0
 24 22  2  0
M  END
$$$$
