DSQ.pdb
     RDKit          3D

 24 23  0  0  1  0  0  0  0  0999 V2000
    9.1268  -15.3678   20.5617 N   0  0  0  0  0  0  0  0  0  0  0  0
    8.2187  -15.6784   21.6482 C   0  0  1  0  0  0  0  0  0  0  0  0
    8.0060  -17.1461   21.8237 C   0  0  0  0  0  0  0  0  0  0  0  0
    7.5178  -17.7076   20.5386 C   0  0  0  0  0  0  0  0  0  0  0  0
    7.6855  -18.9047   20.2449 O   0  0  0  0  0  0  0  0  0  0  0  0
    8.6088  -14.9923   22.9042 C   0  0  0  0  0  0  0  0  0  0  0  0
    9.8092  -15.1168   23.2790 O   0  0  0  0  0  0  0  0  0  0  0  0
    6.8585  -16.8825   19.6410 O   0  0  0  0  0  0  0  0  0  0  0  0
    6.0314  -13.4826   25.7624 O   0  0  0  0  0  0  0  0  0  0  0  0
    7.1264  -12.7007   25.4080 C   0  0  0  0  0  0  0  0  0  0  0  0
    8.2196  -13.6606   24.9334 C   0  0  2  0  0  0  0  0  0  0  0  0
    7.7404  -14.2241   23.6914 N   0  0  0  0  0  0  0  0  0  0  0  0
    8.3809  -14.6757   25.9933 C   0  0  0  0  0  0  0  0  0  0  0  0
    7.8523  -15.8018   25.8209 O   0  0  0  0  0  0  0  0  0  0  0  0
   12.1539  -17.9133   25.1730 N   0  0  0  0  0  0  0  0  0  0  0  0
   12.1603  -18.2424   26.5671 C   0  0  0  0  0  0  0  0  0  0  0  0
   12.9016  -19.2129   26.8923 O   0  0  0  0  0  0  0  0  0  0  0  0
   11.3650  -17.5032   27.5720 C   0  0  0  0  0  0  0  0  0  0  0  0
   10.5656  -16.3923   27.0297 C   0  0  0  0  0  0  0  0  0  0  0  0
    9.7355  -15.5785   27.9436 C   0  0  2  0  0  0  0  0  0  0  0  0
    9.0928  -14.4716   27.1985 N   0  0  0  0  0  0  0  0  0  0  0  0
   10.2975  -15.1056   29.2035 C   0  0  0  0  0  0  0  0  0  0  0  0
   10.6335  -15.9938   30.2511 O   0  0  0  0  0  0  0  0  0  0  0  0
   10.5411  -13.8917   29.4957 O   0  0  0  0  0  0  0  0  0  0  0  0
  2  1  1  6
  2  3  1  0
  3  4  1  0
  4  8  1  0
  5  4  2  0
  6  2  1  0
  7  6  2  0
  9 10  1  0
 11 10  1  1
 11 13  1  0
 11 12  1  0
 12  6  1  0
 13 21  1  0
 14 13  2  0
 16 18  1  0
 16 15  1  0
 17 16  2  0
 19 18  1  0
 20 19  1  6
 21 20  1  0
 22 23  1  0
 22 20  1  0
 24 22  2  0
M  END
$$$$
