GFA.pdb
     RDKit          3D

 21 21  0  0  1  0  0  0  0  0999 V2000
    9.1581  -16.6560   18.6148 N   0  0  0  0  0  0  0  0  0  0  0  0
    8.3464  -17.1515   19.7065 C   0  0  0  0  0  0  0  0  0  0  0  0
    8.6379  -16.3506   20.9154 C   0  0  0  0  0  0  0  0  0  0  0  0
    9.8102  -15.9193   21.1488 O   0  0  0  0  0  0  0  0  0  0  0  0
    7.6477  -16.0150   21.8794 N   0  0  0  0  0  0  0  0  0  0  0  0
    7.9147  -15.2575   23.0815 C   0  0  1  0  0  0  0  0  0  0  0  0
    6.7106  -14.4830   23.5309 C   0  0  0  0  0  0  0  0  0  0  0  0
    6.9061  -13.7315   24.7762 C   0  0  0  0  0  0  0  0  0  0  0  0
    6.6775  -14.2744   26.0320 C   0  0  0  0  0  0  0  0  0  0  0  0
    6.8693  -13.5432   27.1879 C   0  0  0  0  0  0  0  0  0  0  0  0
    7.2989  -12.2333   27.1518 C   0  0  0  0  0  0  0  0  0  0  0  0
    7.5284  -11.6861   25.9071 C   0  0  0  0  0  0  0  0  0  0  0  0
    7.3355  -12.4215   24.7434 C   0  0  0  0  0  0  0  0  0  0  0  0
    8.5668  -16.0703   24.1044 C   0  0  0  0  0  0  0  0  0  0  0  0
    7.9738  -17.1067   24.5008 O   0  0  0  0  0  0  0  0  0  0  0  0
   12.0521  -16.5065   25.4083 C   0  0  0  0  0  0  0  0  0  0  0  0
   10.5361  -16.6705   25.5601 C   0  0  2  0  0  0  0  0  0  0  0  0
    9.8216  -15.7859   24.6907 N   0  0  0  0  0  0  0  0  0  0  0  0
   10.2196  -16.4996   26.9909 C   0  0  0  0  0  0  0  0  0  0  0  0
    9.4145  -15.6176   27.3607 O   0  0  0  0  0  0  0  0  0  0  0  0
   10.8048  -17.3078   27.9448 O   0  0  0  0  0  0  0  0  0  0  0  0
  1  2  1  0
  2  3  1  0
  3  4  2  0
  5  6  1  0
  5  3  1  0
  6 14  1  0
  6  7  1  1
  8  7  1  0
  9  8  2  0
 10  9  1  0
 11 10  2  0
 11 12  1  0
 12 13  2  0
 13  8  1  0
 14 15  2  0
 17 16  1  1
 17 19  1  0
 18 14  1  0
 18 17  1  0
 19 20  2  0
 19 21  1  0
M  END
$$$$
