GFA.pdb
     RDKit          3D

 21 21  0  0  1  0  0  0  0  0999 V2000
    6.1499  -19.3046   19.9870 N   0  0  0  0  0  0  0  0  0  0  0  0
    5.7867  -18.4886   21.1266 C   0  0  0  0  0  0  0  0  0  0  0  0
    6.9995  -17.8047   21.6257 C   0  0  0  0  0  0  0  0  0  0  0  0
    8.1550  -18.1347   21.2123 O   0  0  0  0  0  0  0  0  0  0  0  0
    6.9574  -16.7531   22.5822 N   0  0  0  0  0  0  0  0  0  0  0  0
    8.1275  -16.0600   23.0726 C   0  0  1  0  0  0  0  0  0  0  0  0
    7.8791  -14.5883   23.2279 C   0  0  0  0  0  0  0  0  0  0  0  0
    7.6945  -13.8700   21.9615 C   0  0  0  0  0  0  0  0  0  0  0  0
    6.5001  -13.8735   21.2561 C   0  0  0  0  0  0  0  0  0  0  0  0
    6.3549  -13.1885   20.0656 C   0  0  0  0  0  0  0  0  0  0  0  0
    7.3925  -12.4648   19.5169 C   0  0  0  0  0  0  0  0  0  0  0  0
    8.5834  -12.4561   20.2119 C   0  0  0  0  0  0  0  0  0  0  0  0
    8.7302  -13.1454   21.4102 C   0  0  0  0  0  0  0  0  0  0  0  0
    8.7143  -16.7317   24.2288 C   0  0  0  0  0  0  0  0  0  0  0  0
    8.0334  -16.7902   25.2852 O   0  0  0  0  0  0  0  0  0  0  0  0
   10.8560  -19.4736   25.0741 C   0  0  0  0  0  0  0  0  0  0  0  0
   10.5562  -18.0042   25.3888 C   0  0  2  0  0  0  0  0  0  0  0  0
    9.9961  -17.3278   24.2584 N   0  0  0  0  0  0  0  0  0  0  0  0
   11.8040  -17.4032   25.8969 C   0  0  0  0  0  0  0  0  0  0  0  0
   12.3421  -17.8438   26.9358 O   0  0  0  0  0  0  0  0  0  0  0  0
   12.3987  -16.3468   25.2368 O   0  0  0  0  0  0  0  0  0  0  0  0
  1  2  1  0
  2  3  1  0
  3  4  2  0
  5  6  1  0
  5  3  1  0
  6 14  1  0
  6  7  1  1
  8  7  1  0
  9  8  2  0
 10  9  1  0
 11 10  2  0
 11 12  1  0
 12 13  2  0
 13  8  1  0
 14 15  2  0
 17 16  1  6
 17 19  1  0
 18 14  1  0
 18 17  1  0
 19 20  2  0
 19 21  1  0
M  END
$$$$
