GFA.pdb
     RDKit          3D

 21 21  0  0  1  0  0  0  0  0999 V2000
    5.6263  -18.8635   21.3423 N   0  0  0  0  0  0  0  0  0  0  0  0
    5.6608  -18.8835   22.7897 C   0  0  0  0  0  0  0  0  0  0  0  0
    6.5266  -17.7796   23.2584 C   0  0  0  0  0  0  0  0  0  0  0  0
    7.2865  -17.1556   22.4533 O   0  0  0  0  0  0  0  0  0  0  0  0
    6.5677  -17.3493   24.6132 N   0  0  0  0  0  0  0  0  0  0  0  0
    7.5023  -16.3706   25.1219 C   0  0  1  0  0  0  0  0  0  0  0  0
    6.9499  -15.6368   26.3084 C   0  0  0  0  0  0  0  0  0  0  0  0
    7.9008  -14.7200   26.9480 C   0  0  0  0  0  0  0  0  0  0  0  0
    8.8359  -15.1323   27.8860 C   0  0  0  0  0  0  0  0  0  0  0  0
    9.7188  -14.2468   28.4726 C   0  0  0  0  0  0  0  0  0  0  0  0
    9.7153  -12.9051   28.1545 C   0  0  0  0  0  0  0  0  0  0  0  0
    8.7887  -12.4870   27.2229 C   0  0  0  0  0  0  0  0  0  0  0  0
    7.8998  -13.3777   26.6322 C   0  0  0  0  0  0  0  0  0  0  0  0
    8.8413  -16.9297   25.2863 C   0  0  0  0  0  0  0  0  0  0  0  0
    8.9635  -17.9743   25.9768 O   0  0  0  0  0  0  0  0  0  0  0  0
   12.0899  -16.5732   23.4238 C   0  0  0  0  0  0  0  0  0  0  0  0
   11.2640  -17.0901   24.6065 C   0  0  2  0  0  0  0  0  0  0  0  0
   10.0221  -16.3888   24.7274 N   0  0  0  0  0  0  0  0  0  0  0  0
   12.1217  -17.0136   25.8044 C   0  0  0  0  0  0  0  0  0  0  0  0
   13.2252  -17.6004   25.8320 O   0  0  0  0  0  0  0  0  0  0  0  0
   11.7230  -16.2949   26.9135 O   0  0  0  0  0  0  0  0  0  0  0  0
  1  2  1  0
  2  3  1  0
  3  4  2  0
  5  6  1  0
  5  3  1  0
  6 14  1  0
  6  7  1  1
  8  7  1  0
  9  8  2  0
 10  9  1  0
 11 10  2  0
 11 12  1  0
 12 13  2  0
 13  8  1  0
 14 15  2  0
 17 16  1  6
 17 19  1  0
 18 14  1  0
 18 17  1  0
 19 20  2  0
 19 21  1  0
M  END
$$$$
