GFA.pdb
     RDKit          3D

 21 21  0  0  1  0  0  0  0  0999 V2000
    7.1722  -20.3247   25.1788 N   0  0  0  0  0  0  0  0  0  0  0  0
    6.4714  -19.1138   24.8058 C   0  0  0  0  0  0  0  0  0  0  0  0
    7.4681  -18.0676   24.4897 C   0  0  0  0  0  0  0  0  0  0  0  0
    8.5641  -18.3584   23.9158 O   0  0  0  0  0  0  0  0  0  0  0  0
    7.2732  -16.6934   24.7995 N   0  0  0  0  0  0  0  0  0  0  0  0
    8.1511  -15.6333   24.3574 C   0  0  1  0  0  0  0  0  0  0  0  0
    7.3837  -14.4204   23.9198 C   0  0  0  0  0  0  0  0  0  0  0  0
    7.0093  -13.5157   25.0130 C   0  0  0  0  0  0  0  0  0  0  0  0
    7.6677  -12.3213   25.2664 C   0  0  0  0  0  0  0  0  0  0  0  0
    7.2938  -11.4890   26.3033 C   0  0  0  0  0  0  0  0  0  0  0  0
    6.2447  -11.8041   27.1409 C   0  0  0  0  0  0  0  0  0  0  0  0
    5.5849  -12.9897   26.8957 C   0  0  0  0  0  0  0  0  0  0  0  0
    5.9606  -13.8279   25.8523 C   0  0  0  0  0  0  0  0  0  0  0  0
    9.2353  -15.3925   25.3055 C   0  0  0  0  0  0  0  0  0  0  0  0
   10.3192  -14.9363   24.8585 O   0  0  0  0  0  0  0  0  0  0  0  0
    9.9165  -14.1781   28.5232 C   0  0  0  0  0  0  0  0  0  0  0  0
   10.2278  -15.3788   27.6233 C   0  0  2  0  0  0  0  0  0  0  0  0
    9.1658  -15.6315   26.6974 N   0  0  0  0  0  0  0  0  0  0  0  0
   10.5437  -16.5167   28.5076 C   0  0  0  0  0  0  0  0  0  0  0  0
    9.8505  -17.5566   28.4740 O   0  0  0  0  0  0  0  0  0  0  0  0
   11.6071  -16.4545   29.3855 O   0  0  0  0  0  0  0  0  0  0  0  0
  1  2  1  0
  2  3  1  0
  3  4  2  0
  5  6  1  0
  5  3  1  0
  6 14  1  0
  6  7  1  1
  8  7  1  0
  9  8  2  0
 10  9  1  0
 11 10  2  0
 11 12  1  0
 12 13  2  0
 13  8  1  0
 14 15  2  0
 17 16  1  1
 17 19  1  0
 18 14  1  0
 18 17  1  0
 19 20  2  0
 19 21  1  0
M  END
$$$$
