GFA.pdb
     RDKit          3D

 21 21  0  0  1  0  0  0  0  0999 V2000
    9.9638  -18.1029   20.3997 N   0  0  0  0  0  0  0  0  0  0  0  0
    8.8582  -18.1340   21.3341 C   0  0  0  0  0  0  0  0  0  0  0  0
    9.0301  -17.0346   22.3085 C   0  0  0  0  0  0  0  0  0  0  0  0
   10.1343  -16.4133   22.4076 O   0  0  0  0  0  0  0  0  0  0  0  0
    7.9940  -16.6060   23.1832 N   0  0  0  0  0  0  0  0  0  0  0  0
    8.1339  -15.5241   24.1320 C   0  0  1  0  0  0  0  0  0  0  0  0
    6.8409  -14.7903   24.3348 C   0  0  0  0  0  0  0  0  0  0  0  0
    6.9203  -13.6795   25.2906 C   0  0  0  0  0  0  0  0  0  0  0  0
    7.5770  -12.4891   25.0151 C   0  0  0  0  0  0  0  0  0  0  0  0
    7.6364  -11.4600   25.9344 C   0  0  0  0  0  0  0  0  0  0  0  0
    7.0444  -11.5642   27.1754 C   0  0  0  0  0  0  0  0  0  0  0  0
    6.3895  -12.7445   27.4572 C   0  0  0  0  0  0  0  0  0  0  0  0
    6.3294  -13.7806   26.5324 C   0  0  0  0  0  0  0  0  0  0  0  0
    8.8210  -15.9509   25.3478 C   0  0  0  0  0  0  0  0  0  0  0  0
    8.3009  -16.8742   26.0260 O   0  0  0  0  0  0  0  0  0  0  0  0
   12.3111  -15.6335   26.7086 C   0  0  0  0  0  0  0  0  0  0  0  0
   10.8274  -15.9789   26.8745 C   0  0  2  0  0  0  0  0  0  0  0  0
   10.0341  -15.4071   25.8292 N   0  0  0  0  0  0  0  0  0  0  0  0
   10.4312  -15.5614   28.2328 C   0  0  0  0  0  0  0  0  0  0  0  0
   11.0080  -16.0364   29.2351 O   0  0  0  0  0  0  0  0  0  0  0  0
    9.4196  -14.6413   28.4218 O   0  0  0  0  0  0  0  0  0  0  0  0
  1  2  1  0
  2  3  1  0
  3  4  2  0
  5  6  1  0
  5  3  1  0
  6 14  1  0
  6  7  1  1
  8  7  1  0
  9  8  2  0
 10  9  1  0
 11 10  2  0
 11 12  1  0
 12 13  2  0
 13  8  1  0
 14 15  2  0
 17 16  1  6
 17 19  1  0
 18 14  1  0
 18 17  1  0
 19 20  2  0
 19 21  1  0
M  END
$$$$
