GFA.pdb
     RDKit          3D

 21 21  0  0  1  0  0  0  0  0999 V2000
   10.3162  -17.3675   19.8562 N   0  0  0  0  0  0  0  0  0  0  0  0
    9.1307  -16.5508   20.0114 C   0  0  0  0  0  0  0  0  0  0  0  0
    9.2367  -15.7977   21.2800 C   0  0  0  0  0  0  0  0  0  0  0  0
   10.3337  -15.2632   21.6351 O   0  0  0  0  0  0  0  0  0  0  0  0
    8.1422  -15.6232   22.1710 N   0  0  0  0  0  0  0  0  0  0  0  0
    8.1881  -14.7939   23.3542 C   0  0  1  0  0  0  0  0  0  0  0  0
    6.8516  -14.1836   23.6591 C   0  0  0  0  0  0  0  0  0  0  0  0
    6.8248  -13.3656   24.8772 C   0  0  0  0  0  0  0  0  0  0  0  0
    6.1671  -13.7535   26.0353 C   0  0  0  0  0  0  0  0  0  0  0  0
    6.1580  -12.9628   27.1678 C   0  0  0  0  0  0  0  0  0  0  0  0
    6.8038  -11.7449   27.2043 C   0  0  0  0  0  0  0  0  0  0  0  0
    7.4601  -11.3520   26.0570 C   0  0  0  0  0  0  0  0  0  0  0  0
    7.4696  -12.1473   24.9170 C   0  0  0  0  0  0  0  0  0  0  0  0
    8.8481  -15.4694   24.4680 C   0  0  0  0  0  0  0  0  0  0  0  0
    9.0770  -14.8026   25.5100 O   0  0  0  0  0  0  0  0  0  0  0  0
    9.8267  -18.9853   25.4763 C   0  0  0  0  0  0  0  0  0  0  0  0
    9.9651  -17.4604   25.5382 C   0  0  2  0  0  0  0  0  0  0  0  0
    9.2539  -16.8239   24.4716 N   0  0  0  0  0  0  0  0  0  0  0  0
   11.4079  -17.1541   25.5716 C   0  0  0  0  0  0  0  0  0  0  0  0
   12.1352  -17.6266   26.4720 O   0  0  0  0  0  0  0  0  0  0  0  0
   11.9798  -16.3428   24.6123 O   0  0  0  0  0  0  0  0  0  0  0  0
  1  2  1  0
  2  3  1  0
  3  4  2  0
  5  6  1  0
  5  3  1  0
  6 14  1  0
  6  7  1  1
  8  7  1  0
  9  8  2  0
 10  9  1  0
 11 10  2  0
 11 12  1  0
 12 13  2  0
 13  8  1  0
 14 15  2  0
 17 16  1  6
 17 19  1  0
 18 14  1  0
 18 17  1  0
 19 20  2  0
 19 21  1  0
M  END
$$$$
