GFA.pdb
     RDKit          3D

 21 21  0  0  1  0  0  0  0  0999 V2000
    5.7698  -15.8766   20.4038 N   0  0  0  0  0  0  0  0  0  0  0  0
    5.6864  -16.4171   21.7444 C   0  0  0  0  0  0  0  0  0  0  0  0
    6.8346  -15.9151   22.5302 C   0  0  0  0  0  0  0  0  0  0  0  0
    7.7871  -15.2868   21.9706 O   0  0  0  0  0  0  0  0  0  0  0  0
    6.9497  -16.0968   23.9359 N   0  0  0  0  0  0  0  0  0  0  0  0
    8.0901  -15.6692   24.7149 C   0  0  1  0  0  0  0  0  0  0  0  0
    7.7022  -15.3092   26.1190 C   0  0  0  0  0  0  0  0  0  0  0  0
    7.2951  -13.9101   26.2934 C   0  0  0  0  0  0  0  0  0  0  0  0
    6.0053  -13.5343   26.6388 C   0  0  0  0  0  0  0  0  0  0  0  0
    5.6498  -12.2089   26.7958 C   0  0  0  0  0  0  0  0  0  0  0  0
    6.5615  -11.1899   26.6167 C   0  0  0  0  0  0  0  0  0  0  0  0
    7.8460  -11.5551   26.2732 C   0  0  0  0  0  0  0  0  0  0  0  0
    8.2043  -12.8888   26.1150 C   0  0  0  0  0  0  0  0  0  0  0  0
    9.2168  -16.5885   24.5817 C   0  0  0  0  0  0  0  0  0  0  0  0
    9.0459  -17.7852   24.9306 O   0  0  0  0  0  0  0  0  0  0  0  0
   12.5553  -16.6061   22.8104 C   0  0  0  0  0  0  0  0  0  0  0  0
   11.5461  -17.1735   23.8142 C   0  0  2  0  0  0  0  0  0  0  0  0
   10.4952  -16.2410   24.0877 N   0  0  0  0  0  0  0  0  0  0  0  0
   12.3063  -17.5958   25.0060 C   0  0  0  0  0  0  0  0  0  0  0  0
   13.2961  -18.3508   24.8913 O   0  0  0  0  0  0  0  0  0  0  0  0
   11.9399  -17.1666   26.2658 O   0  0  0  0  0  0  0  0  0  0  0  0
  1  2  1  0
  2  3  1  0
  3  4  2  0
  5  6  1  0
  5  3  1  0
  6 14  1  0
  6  7  1  1
  8  7  1  0
  9  8  2  0
 10  9  1  0
 11 10  2  0
 11 12  1  0
 12 13  2  0
 13  8  1  0
 14 15  2  0
 17 16  1  6
 17 19  1  0
 18 14  1  0
 18 17  1  0
 19 20  2  0
 19 21  1  0
M  END
$$$$
