GFA.pdb
     RDKit          3D

 21 21  0  0  1  0  0  0  0  0999 V2000
    6.7909  -14.4686   20.0762 N   0  0  0  0  0  0  0  0  0  0  0  0
    6.3870  -15.2751   21.2088 C   0  0  0  0  0  0  0  0  0  0  0  0
    7.3310  -15.0355   22.3220 C   0  0  0  0  0  0  0  0  0  0  0  0
    8.3768  -14.3332   22.1548 O   0  0  0  0  0  0  0  0  0  0  0  0
    7.1377  -15.5630   23.6284 N   0  0  0  0  0  0  0  0  0  0  0  0
    8.0991  -15.4369   24.7008 C   0  0  1  0  0  0  0  0  0  0  0  0
    7.4336  -15.1502   26.0148 C   0  0  0  0  0  0  0  0  0  0  0  0
    7.0385  -13.7489   26.1988 C   0  0  0  0  0  0  0  0  0  0  0  0
    5.7157  -13.3319   26.2215 C   0  0  0  0  0  0  0  0  0  0  0  0
    5.3728  -12.0054   26.3960 C   0  0  0  0  0  0  0  0  0  0  0  0
    6.3304  -11.0263   26.5568 C   0  0  0  0  0  0  0  0  0  0  0  0
    7.6479  -11.4326   26.5355 C   0  0  0  0  0  0  0  0  0  0  0  0
    7.9937  -12.7675   26.3599 C   0  0  0  0  0  0  0  0  0  0  0  0
    9.0622  -16.5345   24.7013 C   0  0  0  0  0  0  0  0  0  0  0  0
    8.6212  -17.7059   24.8287 O   0  0  0  0  0  0  0  0  0  0  0  0
   12.6762  -17.0290   23.7345 C   0  0  0  0  0  0  0  0  0  0  0  0
   11.3883  -17.4709   24.4374 C   0  0  2  0  0  0  0  0  0  0  0  0
   10.4621  -16.3874   24.5684 N   0  0  0  0  0  0  0  0  0  0  0  0
   11.7803  -18.0906   25.7176 C   0  0  0  0  0  0  0  0  0  0  0  0
   11.4058  -17.5945   26.8023 O   0  0  0  0  0  0  0  0  0  0  0  0
   12.5652  -19.2258   25.7413 O   0  0  0  0  0  0  0  0  0  0  0  0
  1  2  1  0
  2  3  1  0
  3  4  2  0
  5  6  1  0
  5  3  1  0
  6 14  1  0
  6  7  1  1
  8  7  1  0
  9  8  2  0
 10  9  1  0
 11 10  2  0
 11 12  1  0
 12 13  2  0
 13  8  1  0
 14 15  2  0
 17 16  1  1
 17 19  1  0
 18 14  1  0
 18 17  1  0
 19 20  2  0
 19 21  1  0
M  END
$$$$
