QQT.pdb
     RDKit          3D

 26 25  0  0  1  0  0  0  0  0999 V2000
   27.6941  -19.4991  -18.9780 N   0  0  0  0  0  0  0  0  0  0  0  0
   28.6480  -19.6025  -17.9302 C   0  0  0  0  0  0  0  0  0  0  0  0
   29.8680  -19.5570  -18.2082 O   0  0  0  0  0  0  0  0  0  0  0  0
   28.1360  -19.7610  -16.5458 C   0  0  0  0  0  0  0  0  0  0  0  0
   26.6178  -19.7629  -16.5757 C   0  0  0  0  0  0  0  0  0  0  0  0
   26.1184  -20.9383  -15.7342 C   0  0  2  0  0  0  0  0  0  0  0  0
   26.7256  -22.1586  -16.1746 N   0  0  0  0  0  0  0  0  0  0  0  0
   24.6453  -21.0219  -15.8938 C   0  0  0  0  0  0  0  0  0  0  0  0
   24.1529  -20.6182  -16.9880 O   0  0  0  0  0  0  0  0  0  0  0  0
   21.2365  -25.6194  -14.0171 N   0  0  0  0  0  0  0  0  0  0  0  0
   20.2336  -24.7972  -14.5940 C   0  0  0  0  0  0  0  0  0  0  0  0
   19.0812  -25.2041  -14.8077 O   0  0  0  0  0  0  0  0  0  0  0  0
   20.5740  -23.3717  -14.9648 C   0  0  0  0  0  0  0  0  0  0  0  0
   22.0284  -23.1321  -14.7100 C   0  0  0  0  0  0  0  0  0  0  0  0
   22.4156  -21.7335  -15.0266 C   0  0  2  0  0  0  0  0  0  0  0  0
   23.8569  -21.5336  -14.8533 N   0  0  0  0  0  0  0  0  0  0  0  0
   21.6946  -20.7132  -14.2180 C   0  0  0  0  0  0  0  0  0  0  0  0
   21.8925  -20.4862  -13.0033 O   0  0  0  0  0  0  0  0  0  0  0  0
   21.4049  -17.0115  -14.3345 C   0  0  0  0  0  0  0  0  0  0  0  0
   20.0171  -17.5552  -14.5660 C   0  0  1  0  0  0  0  0  0  0  0  0
   19.8604  -17.6423  -15.9690 O   0  0  0  0  0  0  0  0  0  0  0  0
   19.9079  -18.9868  -14.0589 C   0  0  2  0  0  0  0  0  0  0  0  0
   20.6886  -19.9023  -14.8253 N   0  0  0  0  0  0  0  0  0  0  0  0
   18.4667  -19.3285  -14.0661 C   0  0  0  0  0  0  0  0  0  0  0  0
   17.9982  -20.2235  -14.7994 O   0  0  0  0  0  0  0  0  0  0  0  0
   17.6124  -18.6328  -13.2327 O   0  0  0  0  0  0  0  0  0  0  0  0
  2  3  2  0
  2  1  1  0
  4  2  1  0
  5  4  1  0
  5  6  1  0
  6  7  1  6
  6  8  1  0
  8  9  2  0
 11 12  2  0
 11 10  1  0
 13 11  1  0
 14 13  1  0
 15 14  1  1
 16  8  1  0
 16 15  1  0
 17 15  1  0
 17 18  2  0
 20 19  1  6
 20 22  1  0
 21 20  1  0
 22 23  1  6
 23 17  1  0
 24 22  1  0
 25 24  2  0
 26 24  1  0
M  END
$$$$
