QQT.pdb
     RDKit          3D

 26 25  0  0  1  0  0  0  0  0999 V2000
   11.4594  -11.6788  -11.7193 N   0  0  0  0  0  0  0  0  0  0  0  0
   12.1253  -12.9074  -11.4633 C   0  0  0  0  0  0  0  0  0  0  0  0
   11.5055  -13.8292  -10.8854 O   0  0  0  0  0  0  0  0  0  0  0  0
   13.5382  -13.0297  -11.9020 C   0  0  0  0  0  0  0  0  0  0  0  0
   13.9795  -11.7168  -12.5246 C   0  0  0  0  0  0  0  0  0  0  0  0
   15.4744  -11.8064  -12.8348 C   0  0  2  0  0  0  0  0  0  0  0  0
   15.9730  -13.1088  -12.5077 N   0  0  0  0  0  0  0  0  0  0  0  0
   16.1726  -10.7802  -12.0210 C   0  0  0  0  0  0  0  0  0  0  0  0
   16.6118  -11.1337  -10.8875 O   0  0  0  0  0  0  0  0  0  0  0  0
   20.3911   -7.0349  -14.0158 N   0  0  0  0  0  0  0  0  0  0  0  0
   20.6537   -8.1724  -13.2085 C   0  0  0  0  0  0  0  0  0  0  0  0
   21.7740   -8.7022  -13.1496 O   0  0  0  0  0  0  0  0  0  0  0  0
   19.5323   -8.7664  -12.3869 C   0  0  0  0  0  0  0  0  0  0  0  0
   18.2668   -8.0219  -12.6725 C   0  0  0  0  0  0  0  0  0  0  0  0
   17.1499   -8.4929  -11.8141 C   0  0  2  0  0  0  0  0  0  0  0  0
   16.3236   -9.4776  -12.5174 N   0  0  0  0  0  0  0  0  0  0  0  0
   16.2687   -7.3993  -11.3217 C   0  0  0  0  0  0  0  0  0  0  0  0
   15.2836   -6.9358  -11.9389 O   0  0  0  0  0  0  0  0  0  0  0  0
   14.9813   -7.0092   -7.5082 C   0  0  0  0  0  0  0  0  0  0  0  0
   15.6245   -5.7458   -8.0230 C   0  0  1  0  0  0  0  0  0  0  0  0
   16.9709   -5.7888   -7.5914 O   0  0  0  0  0  0  0  0  0  0  0  0
   15.6889   -5.7554   -9.5443 C   0  0  2  0  0  0  0  0  0  0  0  0
   16.5216   -6.7961  -10.0526 N   0  0  0  0  0  0  0  0  0  0  0  0
   16.1508   -4.4095   -9.9558 C   0  0  0  0  0  0  0  0  0  0  0  0
   17.2035   -4.2362  -10.6040 O   0  0  0  0  0  0  0  0  0  0  0  0
   15.3904   -3.3091   -9.6104 O   0  0  0  0  0  0  0  0  0  0  0  0
  2  3  2  0
  2  1  1  0
  4  2  1  0
  5  4  1  0
  5  6  1  0
  6  7  1  1
  6  8  1  0
  8  9  2  0
 11 12  2  0
 11 10  1  0
 13 11  1  0
 14 13  1  0
 15 14  1  6
 16  8  1  0
 16 15  1  0
 17 15  1  0
 17 18  2  0
 20 19  1  1
 20 22  1  0
 21 20  1  0
 22 23  1  1
 23 17  1  0
 24 22  1  0
 25 24  2  0
 26 24  1  0
M  END
$$$$
