QQT.pdb
     RDKit          3D

 26 25  0  0  1  0  0  0  0  0999 V2000
   15.5808  -14.5753  -13.8381 N   0  0  0  0  0  0  0  0  0  0  0  0
   14.4801  -14.2404  -14.6717 C   0  0  0  0  0  0  0  0  0  0  0  0
   13.5111  -15.0294  -14.7501 O   0  0  0  0  0  0  0  0  0  0  0  0
   14.5431  -12.9556  -15.4128 C   0  0  0  0  0  0  0  0  0  0  0  0
   15.8007  -12.2088  -15.0045 C   0  0  0  0  0  0  0  0  0  0  0  0
   15.9128  -10.9457  -15.8596 C   0  0  2  0  0  0  0  0  0  0  0  0
   15.9404  -11.2875  -17.2504 N   0  0  0  0  0  0  0  0  0  0  0  0
   17.1699  -10.2507  -15.4862 C   0  0  0  0  0  0  0  0  0  0  0  0
   17.2913   -9.8690  -14.2853 O   0  0  0  0  0  0  0  0  0  0  0  0
   22.3523  -11.8040  -15.4604 N   0  0  0  0  0  0  0  0  0  0  0  0
   22.8022  -10.4739  -15.6681 C   0  0  0  0  0  0  0  0  0  0  0  0
   23.9225  -10.0857  -15.3029 O   0  0  0  0  0  0  0  0  0  0  0  0
   21.8885   -9.4875  -16.3592 C   0  0  0  0  0  0  0  0  0  0  0  0
   20.5863  -10.1565  -16.6665 C   0  0  0  0  0  0  0  0  0  0  0  0
   19.4385   -9.4067  -16.0953 C   0  0  2  0  0  0  0  0  0  0  0  0
   18.1658  -10.0403  -16.4505 N   0  0  0  0  0  0  0  0  0  0  0  0
   19.3888   -7.9780  -16.5092 C   0  0  0  0  0  0  0  0  0  0  0  0
   19.5490   -7.5614  -17.6784 O   0  0  0  0  0  0  0  0  0  0  0  0
   16.7230   -5.5017  -16.4710 C   0  0  0  0  0  0  0  0  0  0  0  0
   17.8108   -4.9009  -15.6160 C   0  0  1  0  0  0  0  0  0  0  0  0
   17.4873   -5.2349  -14.2801 O   0  0  0  0  0  0  0  0  0  0  0  0
   19.1465   -5.5793  -15.8885 C   0  0  2  0  0  0  0  0  0  0  0  0
   19.1426   -6.9618  -15.5370 N   0  0  0  0  0  0  0  0  0  0  0  0
   20.1704   -4.8095  -15.1448 C   0  0  0  0  0  0  0  0  0  0  0  0
   20.7903   -5.2908  -14.1740 O   0  0  0  0  0  0  0  0  0  0  0  0
   20.4485   -3.5151  -15.5393 O   0  0  0  0  0  0  0  0  0  0  0  0
  2  3  2  0
  2  1  1  0
  4  2  1  0
  5  4  1  0
  5  6  1  0
  6  7  1  6
  6  8  1  0
  8  9  2  0
 11 12  2  0
 11 10  1  0
 13 11  1  0
 14 13  1  0
 15 14  1  6
 16  8  1  0
 16 15  1  0
 17 15  1  0
 17 18  2  0
 20 19  1  6
 20 22  1  0
 21 20  1  0
 22 23  1  1
 23 17  1  0
 24 22  1  0
 25 24  2  0
 26 24  1  0
M  END
$$$$
