QQT.pdb
     RDKit          3D

 26 25  0  0  1  0  0  0  0  0999 V2000
   26.6407  -17.5499  -17.5470 N   0  0  0  0  0  0  0  0  0  0  0  0
   27.9156  -18.0971  -17.8534 C   0  0  0  0  0  0  0  0  0  0  0  0
   28.6144  -17.5575  -18.7412 O   0  0  0  0  0  0  0  0  0  0  0  0
   28.3522  -19.2946  -17.0923 C   0  0  0  0  0  0  0  0  0  0  0  0
   27.2633  -19.6799  -16.1066 C   0  0  0  0  0  0  0  0  0  0  0  0
   27.7044  -20.9443  -15.3678 C   0  0  2  0  0  0  0  0  0  0  0  0
   27.8345  -22.0366  -16.2853 N   0  0  0  0  0  0  0  0  0  0  0  0
   26.6731  -21.2619  -14.3489 C   0  0  0  0  0  0  0  0  0  0  0  0
   25.8554  -22.1908  -14.6158 O   0  0  0  0  0  0  0  0  0  0  0  0
   24.1076  -21.6625   -7.9651 N   0  0  0  0  0  0  0  0  0  0  0  0
   25.0941  -20.9555   -8.7011 C   0  0  0  0  0  0  0  0  0  0  0  0
   26.2875  -20.9327   -8.3629 O   0  0  0  0  0  0  0  0  0  0  0  0
   24.6836  -20.1998   -9.9444 C   0  0  0  0  0  0  0  0  0  0  0  0
   25.8474  -20.1271  -10.8814 C   0  0  0  0  0  0  0  0  0  0  0  0
   25.5130  -20.6928  -12.2134 C   0  0  2  0  0  0  0  0  0  0  0  0
   26.6328  -20.5419  -13.1464 N   0  0  0  0  0  0  0  0  0  0  0  0
   24.2974  -20.0964  -12.8311 C   0  0  0  0  0  0  0  0  0  0  0  0
   24.1658  -18.8915  -13.1429 O   0  0  0  0  0  0  0  0  0  0  0  0
   22.5973  -20.4428  -15.9650 C   0  0  0  0  0  0  0  0  0  0  0  0
   21.5464  -20.8346  -14.9565 C   0  0  1  0  0  0  0  0  0  0  0  0
   21.5767  -22.2472  -14.8891 O   0  0  0  0  0  0  0  0  0  0  0  0
   21.9322  -20.3567  -13.5632 C   0  0  2  0  0  0  0  0  0  0  0  0
   23.1634  -20.9175  -13.1111 N   0  0  0  0  0  0  0  0  0  0  0  0
   20.7972  -20.6919  -12.6725 C   0  0  0  0  0  0  0  0  0  0  0  0
   20.9044  -21.5117  -11.7372 O   0  0  0  0  0  0  0  0  0  0  0  0
   19.5788  -20.0762  -12.8844 O   0  0  0  0  0  0  0  0  0  0  0  0
  2  3  2  0
  2  1  1  0
  4  2  1  0
  5  4  1  0
  5  6  1  0
  6  7  1  6
  6  8  1  0
  8  9  2  0
 11 12  2  0
 11 10  1  0
 13 11  1  0
 14 13  1  0
 15 14  1  1
 16  8  1  0
 16 15  1  0
 17 15  1  0
 17 18  2  0
 20 19  1  6
 20 22  1  0
 21 20  1  0
 22 23  1  1
 23 17  1  0
 24 22  1  0
 25 24  2  0
 26 24  1  0
M  END
$$$$
