QQT.pdb
     RDKit          3D

 26 25  0  0  1  0  0  0  0  0999 V2000
   14.9472  -25.3053    3.3967 N   0  0  0  0  0  0  0  0  0  0  0  0
   15.3289  -24.2547    4.2736 C   0  0  0  0  0  0  0  0  0  0  0  0
   15.9356  -24.5334    5.3329 O   0  0  0  0  0  0  0  0  0  0  0  0
   14.9816  -22.8666    3.8780 C   0  0  0  0  0  0  0  0  0  0  0  0
   16.0095  -22.3635    2.8799 C   0  0  0  0  0  0  0  0  0  0  0  0
   15.5903  -20.9681    2.4150 C   0  0  2  0  0  0  0  0  0  0  0  0
   15.5594  -20.9090    0.9842 N   0  0  0  0  0  0  0  0  0  0  0  0
   16.5808  -19.9948    2.9386 C   0  0  0  0  0  0  0  0  0  0  0  0
   17.6832  -19.8961    2.3241 O   0  0  0  0  0  0  0  0  0  0  0  0
   15.5816  -14.3513    4.0366 N   0  0  0  0  0  0  0  0  0  0  0  0
   16.9175  -14.4087    4.5126 C   0  0  0  0  0  0  0  0  0  0  0  0
   17.5984  -13.3903    4.7087 O   0  0  0  0  0  0  0  0  0  0  0  0
   17.5413  -15.7568    4.7937 C   0  0  0  0  0  0  0  0  0  0  0  0
   16.6016  -16.8340    4.3532 C   0  0  0  0  0  0  0  0  0  0  0  0
   17.1894  -18.1844    4.5455 C   0  0  2  0  0  0  0  0  0  0  0  0
   16.2766  -19.2288    4.0729 N   0  0  0  0  0  0  0  0  0  0  0  0
   17.5616  -18.4821    5.9554 C   0  0  0  0  0  0  0  0  0  0  0  0
   16.7846  -18.9385    6.8238 O   0  0  0  0  0  0  0  0  0  0  0  0
   20.5902  -20.6257    7.0900 C   0  0  0  0  0  0  0  0  0  0  0  0
   20.6608  -19.2788    7.7652 C   0  0  1  0  0  0  0  0  0  0  0  0
   21.5087  -18.4822    6.9608 O   0  0  0  0  0  0  0  0  0  0  0  0
   19.3049  -18.5867    7.7295 C   0  0  2  0  0  0  0  0  0  0  0  0
   18.8959  -18.2472    6.4058 N   0  0  0  0  0  0  0  0  0  0  0  0
   19.4131  -17.4004    8.6098 C   0  0  0  0  0  0  0  0  0  0  0  0
   19.2667  -16.2373    8.1808 O   0  0  0  0  0  0  0  0  0  0  0  0
   19.6853  -17.5881    9.9512 O   0  0  0  0  0  0  0  0  0  0  0  0
  2  3  2  0
  2  1  1  0
  4  2  1  0
  5  4  1  0
  5  6  1  0
  6  7  1  6
  6  8  1  0
  8  9  2  0
 11 12  2  0
 11 10  1  0
 13 11  1  0
 14 13  1  0
 15 14  1  1
 16  8  1  0
 16 15  1  0
 17 15  1  0
 17 18  2  0
 20 19  1  6
 20 22  1  0
 21 20  1  0
 22 23  1  6
 23 17  1  0
 24 22  1  0
 25 24  2  0
 26 24  1  0
M  END
$$$$
