QQT.pdb
     RDKit          3D

 26 25  0  0  1  0  0  0  0  0999 V2000
   26.9041  -18.3096  -15.6658 N   0  0  0  0  0  0  0  0  0  0  0  0
   27.7563  -18.9931  -16.5741 C   0  0  0  0  0  0  0  0  0  0  0  0
   28.9300  -18.5871  -16.7338 O   0  0  0  0  0  0  0  0  0  0  0  0
   27.1983  -20.1665  -17.2922 C   0  0  0  0  0  0  0  0  0  0  0  0
   25.7927  -20.4359  -16.7846 C   0  0  0  0  0  0  0  0  0  0  0  0
   25.8885  -21.3191  -15.5396 C   0  0  2  0  0  0  0  0  0  0  0  0
   26.3762  -22.6198  -15.8889 N   0  0  0  0  0  0  0  0  0  0  0  0
   24.5300  -21.4308  -14.9525 C   0  0  0  0  0  0  0  0  0  0  0  0
   23.8544  -22.4630  -15.2368 O   0  0  0  0  0  0  0  0  0  0  0  0
   22.8654  -19.4821   -9.4334 N   0  0  0  0  0  0  0  0  0  0  0  0
   21.6048  -19.9169   -9.9196 C   0  0  0  0  0  0  0  0  0  0  0  0
   20.6120  -20.0326   -9.1846 O   0  0  0  0  0  0  0  0  0  0  0  0
   21.4579  -20.2535  -11.3861 C   0  0  0  0  0  0  0  0  0  0  0  0
   22.7841  -20.0990  -12.0605 C   0  0  0  0  0  0  0  0  0  0  0  0
   22.7276  -20.5262  -13.4819 C   0  0  2  0  0  0  0  0  0  0  0  0
   24.0427  -20.4145  -14.1185 N   0  0  0  0  0  0  0  0  0  0  0  0
   21.7398  -19.7689  -14.2977 C   0  0  0  0  0  0  0  0  0  0  0  0
   21.8583  -18.5718  -14.6428 O   0  0  0  0  0  0  0  0  0  0  0  0
   18.1476  -21.7027  -16.0184 C   0  0  0  0  0  0  0  0  0  0  0  0
   18.9935  -20.6188  -16.6385 C   0  0  1  0  0  0  0  0  0  0  0  0
   18.1011  -19.7895  -17.3573 O   0  0  0  0  0  0  0  0  0  0  0  0
   19.5965  -19.7248  -15.5635 C   0  0  2  0  0  0  0  0  0  0  0  0
   20.5460  -20.4094  -14.7482 N   0  0  0  0  0  0  0  0  0  0  0  0
   18.4624  -19.1847  -14.7785 C   0  0  0  0  0  0  0  0  0  0  0  0
   18.3146  -19.4337  -13.5643 O   0  0  0  0  0  0  0  0  0  0  0  0
   17.5371  -18.3781  -15.4123 O   0  0  0  0  0  0  0  0  0  0  0  0
  2  3  2  0
  2  1  1  0
  4  2  1  0
  5  4  1  0
  5  6  1  0
  6  7  1  6
  6  8  1  0
  8  9  2  0
 11 12  2  0
 11 10  1  0
 13 11  1  0
 14 13  1  0
 15 14  1  1
 16  8  1  0
 16 15  1  0
 17 15  1  0
 17 18  2  0
 20 19  1  1
 20 22  1  0
 21 20  1  0
 22 23  1  1
 23 17  1  0
 24 22  1  0
 25 24  2  0
 26 24  1  0
M  END
$$$$
