YKQ.pdb
     RDKit          3D

 31 31  0  0  1  0  0  0  0  0999 V2000
    7.3548  -12.7474   15.4354 O   0  0  0  0  0  0  0  0  0  0  0  0
    7.4347  -13.2768   16.7110 C   0  0  0  0  0  0  0  0  0  0  0  0
    7.1661  -14.6028   16.9484 C   0  0  0  0  0  0  0  0  0  0  0  0
    7.2488  -15.1304   18.2395 C   0  0  0  0  0  0  0  0  0  0  0  0
    7.6014  -14.3412   19.3145 C   0  0  0  0  0  0  0  0  0  0  0  0
    7.6883  -14.8948   20.6699 C   0  0  0  0  0  0  0  0  0  0  0  0
    9.1143  -15.1334   21.1211 C   0  0  2  0  0  0  0  0  0  0  0  0
    9.8279  -15.7129   19.9849 N   0  0  0  0  0  0  0  0  0  0  0  0
    9.0310  -16.1184   22.2332 C   0  0  0  0  0  0  0  0  0  0  0  0
    8.3854  -15.7766   23.2551 O   0  0  0  0  0  0  0  0  0  0  0  0
    7.8663  -13.0129   19.0508 C   0  0  0  0  0  0  0  0  0  0  0  0
    7.7881  -12.4787   17.7782 C   0  0  0  0  0  0  0  0  0  0  0  0
    9.6310  -17.4035   22.2050 N   0  0  0  0  0  0  0  0  0  0  0  0
    9.5669  -18.3475   23.2901 C   0  0  1  0  0  0  0  0  0  0  0  0
   10.0442  -19.7014   22.8147 C   0  0  0  0  0  0  0  0  0  0  0  0
    9.9744  -20.7104   23.9418 C   0  0  0  0  0  0  0  0  0  0  0  0
   10.4925  -22.0706   23.4726 C   0  0  0  0  0  0  0  0  0  0  0  0
   10.4365  -23.0389   24.6572 C   0  0  0  0  0  0  0  0  0  0  0  0
   11.1077  -24.2742   24.3464 N   0  0  0  0  0  0  0  0  0  0  0  0
   10.3607  -17.9217   24.4667 C   0  0  0  0  0  0  0  0  0  0  0  0
   11.5788  -17.6550   24.3011 O   0  0  0  0  0  0  0  0  0  0  0  0
   10.4067  -12.8806   29.4826 N   0  0  0  0  0  0  0  0  0  0  0  0
   10.0242  -13.6372   28.3667 C   0  0  0  0  0  0  0  0  0  0  0  0
    9.1843  -13.2159   27.5622 O   0  0  0  0  0  0  0  0  0  0  0  0
   10.6400  -14.9768   28.1419 C   0  0  0  0  0  0  0  0  0  0  0  0
    9.9713  -15.7067   27.0151 C   0  0  0  0  0  0  0  0  0  0  0  0
   10.5811  -17.0483   26.8036 C   0  0  2  0  0  0  0  0  0  0  0  0
    9.8315  -17.7951   25.7752 N   0  0  0  0  0  0  0  0  0  0  0  0
   10.5786  -17.8569   28.0141 C   0  0  0  0  0  0  0  0  0  0  0  0
   11.6805  -17.7810   28.8905 O   0  0  0  0  0  0  0  0  0  0  0  0
    9.6321  -18.6188   28.3058 O   0  0  0  0  0  0  0  0  0  0  0  0
  2  1  1  0
  3  2  2  0
  4  3  1  0
  5  4  2  0
  5 11  1  0
  6  5  1  0
  7  9  1  0
  7  6  1  0
  7  8  1  6
  9 10  2  0
 11 12  2  0
 12  2  1  0
 13 14  1  0
 13  9  1  0
 14 20  1  0
 14 15  1  6
 16 15  1  0
 17 16  1  0
 18 17  1  0
 19 18  1  0
 20 21  2  0
 20 28  1  0
 22 23  1  0
 23 24  2  0
 23 25  1  0
 25 26  1  0
 27 26  1  1
 27 29  1  0
 28 27  1  0
 29 31  2  0
 29 30  1  0
M  END
$$$$
