YKQ.pdb
     RDKit          3D

 31 31  0  0  1  0  0  0  0  0999 V2000
    6.2772  -10.9703   28.7137 O   0  0  0  0  0  0  0  0  0  0  0  0
    6.7540  -11.8842   27.7910 C   0  0  0  0  0  0  0  0  0  0  0  0
    6.3679  -11.8318   26.4739 C   0  0  0  0  0  0  0  0  0  0  0  0
    6.8536  -12.7583   25.5476 C   0  0  0  0  0  0  0  0  0  0  0  0
    7.7333  -13.7524   25.9229 C   0  0  0  0  0  0  0  0  0  0  0  0
    8.2433  -14.7251   24.9509 C   0  0  0  0  0  0  0  0  0  0  0  0
    7.1587  -15.6137   24.3783 C   0  0  2  0  0  0  0  0  0  0  0  0
    7.0840  -16.7970   25.2328 N   0  0  0  0  0  0  0  0  0  0  0  0
    7.6185  -15.9918   23.0147 C   0  0  0  0  0  0  0  0  0  0  0  0
    8.0512  -17.1607   22.8588 O   0  0  0  0  0  0  0  0  0  0  0  0
    8.1062  -13.7843   27.2510 C   0  0  0  0  0  0  0  0  0  0  0  0
    7.6330  -12.8737   28.1772 C   0  0  0  0  0  0  0  0  0  0  0  0
    7.5963  -15.1191   21.8965 N   0  0  0  0  0  0  0  0  0  0  0  0
    7.8879  -15.5290   20.5476 C   0  0  1  0  0  0  0  0  0  0  0  0
    7.6156  -14.3838   19.5983 C   0  0  0  0  0  0  0  0  0  0  0  0
    7.8658  -14.8139   18.1681 C   0  0  0  0  0  0  0  0  0  0  0  0
    7.8411  -13.6026   17.2349 C   0  0  0  0  0  0  0  0  0  0  0  0
    7.8747  -14.1099   15.7907 C   0  0  0  0  0  0  0  0  0  0  0  0
    7.8059  -13.0157   14.8575 N   0  0  0  0  0  0  0  0  0  0  0  0
    9.2842  -15.9962   20.3807 C   0  0  0  0  0  0  0  0  0  0  0  0
    9.5990  -16.5668   19.3048 O   0  0  0  0  0  0  0  0  0  0  0  0
   13.4279  -13.4168   18.6508 N   0  0  0  0  0  0  0  0  0  0  0  0
   14.3017  -14.3665   19.1971 C   0  0  0  0  0  0  0  0  0  0  0  0
   15.4261  -14.5559   18.7172 O   0  0  0  0  0  0  0  0  0  0  0  0
   13.8708  -15.1660   20.3800 C   0  0  0  0  0  0  0  0  0  0  0  0
   12.4436  -14.8831   20.7439 C   0  0  0  0  0  0  0  0  0  0  0  0
   11.6993  -16.1410   21.0278 C   0  0  2  0  0  0  0  0  0  0  0  0
   10.2942  -15.8400   21.3625 N   0  0  0  0  0  0  0  0  0  0  0  0
   12.2631  -16.8793   22.1487 C   0  0  0  0  0  0  0  0  0  0  0  0
   13.5650  -17.4083   22.0347 O   0  0  0  0  0  0  0  0  0  0  0  0
   11.6327  -17.0620   23.2120 O   0  0  0  0  0  0  0  0  0  0  0  0
  2  1  1  0
  3  2  2  0
  4  3  1  0
  5  4  2  0
  5 11  1  0
  6  5  1  0
  7  9  1  0
  7  6  1  0
  7  8  1  1
  9 10  2  0
 11 12  2  0
 12  2  1  0
 13 14  1  0
 13  9  1  0
 14 20  1  0
 14 15  1  6
 16 15  1  0
 17 16  1  0
 18 17  1  0
 19 18  1  0
 20 21  2  0
 20 28  1  0
 22 23  1  0
 23 24  2  0
 23 25  1  0
 25 26  1  0
 27 26  1  1
 27 29  1  0
 28 27  1  0
 29 31  2  0
 29 30  1  0
M  END
$$$$
