YKQ.pdb
     RDKit          3D

 31 31  0  0  1  0  0  0  0  0999 V2000
   10.3074  -14.2971   30.9265 O   0  0  0  0  0  0  0  0  0  0  0  0
   10.0744  -14.5602   29.5885 C   0  0  0  0  0  0  0  0  0  0  0  0
    9.3854  -13.6722   28.7989 C   0  0  0  0  0  0  0  0  0  0  0  0
    9.1539  -13.9448   27.4482 C   0  0  0  0  0  0  0  0  0  0  0  0
    9.6073  -15.1095   26.8647 C   0  0  0  0  0  0  0  0  0  0  0  0
    9.3645  -15.3960   25.4469 C   0  0  0  0  0  0  0  0  0  0  0  0
    7.9544  -15.8765   25.1735 C   0  0  2  0  0  0  0  0  0  0  0  0
    7.7969  -17.1505   25.8723 N   0  0  0  0  0  0  0  0  0  0  0  0
    7.8717  -16.0827   23.7023 C   0  0  0  0  0  0  0  0  0  0  0  0
    8.1226  -17.2350   23.2696 O   0  0  0  0  0  0  0  0  0  0  0  0
   10.2965  -15.9856   27.6781 C   0  0  0  0  0  0  0  0  0  0  0  0
   10.5322  -15.7278   29.0156 C   0  0  0  0  0  0  0  0  0  0  0  0
    7.5302  -15.0660   22.7738 N   0  0  0  0  0  0  0  0  0  0  0  0
    7.8414  -15.1189   21.3692 C   0  0  1  0  0  0  0  0  0  0  0  0
    7.4831  -13.8013   20.7193 C   0  0  0  0  0  0  0  0  0  0  0  0
    7.6623  -13.8881   19.2182 C   0  0  0  0  0  0  0  0  0  0  0  0
    7.3069  -12.5539   18.5607 C   0  0  0  0  0  0  0  0  0  0  0  0
    7.2080  -12.7763   17.0491 C   0  0  0  0  0  0  0  0  0  0  0  0
    8.3775  -13.4507   16.5489 N   0  0  0  0  0  0  0  0  0  0  0  0
    9.2662  -15.4335   21.1103 C   0  0  0  0  0  0  0  0  0  0  0  0
   10.1338  -14.9602   21.8884 O   0  0  0  0  0  0  0  0  0  0  0  0
   10.9589  -20.3123   22.6186 N   0  0  0  0  0  0  0  0  0  0  0  0
   12.1428  -20.0611   21.9122 C   0  0  0  0  0  0  0  0  0  0  0  0
   13.1233  -20.8084   22.0152 O   0  0  0  0  0  0  0  0  0  0  0  0
   12.2256  -18.8704   21.0179 C   0  0  0  0  0  0  0  0  0  0  0  0
   10.9530  -18.0771   21.0401 C   0  0  0  0  0  0  0  0  0  0  0  0
   11.0272  -16.9115   20.1168 C   0  0  2  0  0  0  0  0  0  0  0  0
    9.7164  -16.2391   20.0347 N   0  0  0  0  0  0  0  0  0  0  0  0
   11.4017  -17.2972   18.7640 C   0  0  0  0  0  0  0  0  0  0  0  0
   10.4593  -17.1529   17.7252 O   0  0  0  0  0  0  0  0  0  0  0  0
   12.5320  -17.7534   18.4888 O   0  0  0  0  0  0  0  0  0  0  0  0
  2  1  1  0
  3  2  2  0
  4  3  1  0
  5  4  2  0
  5 11  1  0
  6  5  1  0
  7  9  1  0
  7  6  1  0
  7  8  1  1
  9 10  2  0
 11 12  2  0
 12  2  1  0
 13 14  1  0
 13  9  1  0
 14 20  1  0
 14 15  1  1
 16 15  1  0
 17 16  1  0
 18 17  1  0
 19 18  1  0
 20 21  2  0
 20 28  1  0
 22 23  1  0
 23 24  2  0
 23 25  1  0
 25 26  1  0
 27 26  1  1
 27 29  1  0
 28 27  1  0
 29 31  2  0
 29 30  1  0
M  END
$$$$
