YKQ.pdb
     RDKit          3D

 31 31  0  0  1  0  0  0  0  0999 V2000
   11.0504  -15.4394   30.1819 O   0  0  0  0  0  0  0  0  0  0  0  0
   10.2314  -15.2069   29.0915 C   0  0  0  0  0  0  0  0  0  0  0  0
   10.3425  -14.0548   28.3519 C   0  0  0  0  0  0  0  0  0  0  0  0
    9.5117  -13.8270   27.2518 C   0  0  0  0  0  0  0  0  0  0  0  0
    8.5563  -14.7470   26.8730 C   0  0  0  0  0  0  0  0  0  0  0  0
    7.6842  -14.5082   25.7183 C   0  0  0  0  0  0  0  0  0  0  0  0
    7.2512  -15.7857   25.0296 C   0  0  2  0  0  0  0  0  0  0  0  0
    7.9251  -16.8869   25.7148 N   0  0  0  0  0  0  0  0  0  0  0  0
    7.7366  -15.6781   23.6273 C   0  0  0  0  0  0  0  0  0  0  0  0
    8.4973  -16.5874   23.2122 O   0  0  0  0  0  0  0  0  0  0  0  0
    8.4640  -15.8962   27.6314 C   0  0  0  0  0  0  0  0  0  0  0  0
    9.2798  -16.1336   28.7218 C   0  0  0  0  0  0  0  0  0  0  0  0
    7.3936  -14.6214   22.7450 N   0  0  0  0  0  0  0  0  0  0  0  0
    7.7249  -14.6008   21.3442 C   0  0  1  0  0  0  0  0  0  0  0  0
    7.7418  -13.1728   20.8469 C   0  0  0  0  0  0  0  0  0  0  0  0
    7.5594  -13.1358   19.3441 C   0  0  0  0  0  0  0  0  0  0  0  0
    8.3595  -14.2582   18.6820 C   0  0  0  0  0  0  0  0  0  0  0  0
    8.1114  -14.1972   17.1725 C   0  0  0  0  0  0  0  0  0  0  0  0
    8.8651  -15.2125   16.4840 N   0  0  0  0  0  0  0  0  0  0  0  0
    9.0266  -15.2470   21.0544 C   0  0  0  0  0  0  0  0  0  0  0  0
    9.1222  -15.9634   20.0249 O   0  0  0  0  0  0  0  0  0  0  0  0
   15.3439  -14.5841   22.6733 N   0  0  0  0  0  0  0  0  0  0  0  0
   14.9873  -14.8377   21.3420 C   0  0  0  0  0  0  0  0  0  0  0  0
   15.7881  -15.3467   20.5483 O   0  0  0  0  0  0  0  0  0  0  0  0
   13.6165  -14.4883   20.8697 C   0  0  0  0  0  0  0  0  0  0  0  0
   12.5856  -14.7631   21.9239 C   0  0  0  0  0  0  0  0  0  0  0  0
   11.4817  -15.6088   21.3920 C   0  0  2  0  0  0  0  0  0  0  0  0
   10.1781  -15.1085   21.8688 N   0  0  0  0  0  0  0  0  0  0  0  0
   11.5932  -16.9977   21.8136 C   0  0  0  0  0  0  0  0  0  0  0  0
   10.5386  -17.5769   22.5487 O   0  0  0  0  0  0  0  0  0  0  0  0
   12.5933  -17.6978   21.5470 O   0  0  0  0  0  0  0  0  0  0  0  0
  2  1  1  0
  3  2  2  0
  4  3  1  0
  5  4  2  0
  5 11  1  0
  6  5  1  0
  7  9  1  0
  7  6  1  0
  7  8  1  1
  9 10  2  0
 11 12  2  0
 12  2  1  0
 13 14  1  0
 13  9  1  0
 14 20  1  0
 14 15  1  1
 16 15  1  0
 17 16  1  0
 18 17  1  0
 19 18  1  0
 20 21  2  0
 20 28  1  0
 22 23  1  0
 23 24  2  0
 23 25  1  0
 25 26  1  0
 27 26  1  1
 27 29  1  0
 28 27  1  0
 29 31  2  0
 29 30  1  0
M  END
$$$$
