YKQ.pdb
     RDKit          3D

 31 31  0  0  1  0  0  0  0  0999 V2000
    5.1759  -10.8721   28.2483 O   0  0  0  0  0  0  0  0  0  0  0  0
    5.8271  -11.8298   27.4916 C   0  0  0  0  0  0  0  0  0  0  0  0
    6.9041  -12.5198   27.9923 C   0  0  0  0  0  0  0  0  0  0  0  0
    7.5568  -13.4858   27.2221 C   0  0  0  0  0  0  0  0  0  0  0  0
    7.1437  -13.7778   25.9388 C   0  0  0  0  0  0  0  0  0  0  0  0
    7.8286  -14.7917   25.1301 C   0  0  0  0  0  0  0  0  0  0  0  0
    6.8737  -15.7547   24.4558 C   0  0  2  0  0  0  0  0  0  0  0  0
    6.8624  -16.9748   25.2604 N   0  0  0  0  0  0  0  0  0  0  0  0
    7.4519  -16.0293   23.1127 C   0  0  0  0  0  0  0  0  0  0  0  0
    8.2810  -16.9689   23.0262 O   0  0  0  0  0  0  0  0  0  0  0  0
    6.0599  -13.0716   25.4583 C   0  0  0  0  0  0  0  0  0  0  0  0
    5.4055  -12.1137   26.2100 C   0  0  0  0  0  0  0  0  0  0  0  0
    7.1243  -15.3001   21.9407 N   0  0  0  0  0  0  0  0  0  0  0  0
    7.9838  -15.1933   20.7907 C   0  0  1  0  0  0  0  0  0  0  0  0
    7.8884  -13.7992   20.2126 C   0  0  0  0  0  0  0  0  0  0  0  0
    8.8393  -13.6469   19.0440 C   0  0  0  0  0  0  0  0  0  0  0  0
    8.1713  -14.1107   17.7490 C   0  0  0  0  0  0  0  0  0  0  0  0
    9.1806  -13.9576   16.6080 C   0  0  0  0  0  0  0  0  0  0  0  0
    8.6340  -14.4411   15.3668 N   0  0  0  0  0  0  0  0  0  0  0  0
    9.3975  -15.5105   21.1015 C   0  0  0  0  0  0  0  0  0  0  0  0
    9.9831  -14.8300   21.9825 O   0  0  0  0  0  0  0  0  0  0  0  0
   11.0099  -20.2676   22.7525 N   0  0  0  0  0  0  0  0  0  0  0  0
   11.4695  -19.1969   23.5311 C   0  0  0  0  0  0  0  0  0  0  0  0
   11.4820  -19.2598   24.7665 O   0  0  0  0  0  0  0  0  0  0  0  0
   11.9538  -17.9560   22.8604 C   0  0  0  0  0  0  0  0  0  0  0  0
   11.8165  -18.0480   21.3697 C   0  0  0  0  0  0  0  0  0  0  0  0
   11.5710  -16.7091   20.7665 C   0  0  2  0  0  0  0  0  0  0  0  0
   10.1367  -16.5386   20.4650 N   0  0  0  0  0  0  0  0  0  0  0  0
   12.3011  -16.5180   19.5217 C   0  0  0  0  0  0  0  0  0  0  0  0
   13.7014  -16.3601   19.5665 O   0  0  0  0  0  0  0  0  0  0  0  0
   11.7297  -16.4886   18.4108 O   0  0  0  0  0  0  0  0  0  0  0  0
  2  1  1  0
  3  2  2  0
  4  3  1  0
  5  4  2  0
  5 11  1  0
  6  5  1  0
  7  9  1  0
  7  6  1  0
  7  8  1  1
  9 10  2  0
 11 12  2  0
 12  2  1  0
 13 14  1  0
 13  9  1  0
 14 20  1  0
 14 15  1  1
 16 15  1  0
 17 16  1  0
 18 17  1  0
 19 18  1  0
 20 21  2  0
 20 28  1  0
 22 23  1  0
 23 24  2  0
 23 25  1  0
 25 26  1  0
 27 26  1  6
 27 29  1  0
 28 27  1  0
 29 31  2  0
 29 30  1  0
M  END
$$$$
