YKQ.pdb
     RDKit          3D

 31 31  0  0  1  0  0  0  0  0999 V2000
    5.1841  -10.8716   28.0552 O   0  0  0  0  0  0  0  0  0  0  0  0
    5.7940  -11.9533   27.4455 C   0  0  0  0  0  0  0  0  0  0  0  0
    5.6948  -12.1544   26.0903 C   0  0  0  0  0  0  0  0  0  0  0  0
    6.3136  -13.2492   25.4815 C   0  0  0  0  0  0  0  0  0  0  0  0
    7.0417  -14.1609   26.2173 C   0  0  0  0  0  0  0  0  0  0  0  0
    7.6914  -15.3103   25.5785 C   0  0  0  0  0  0  0  0  0  0  0  0
    6.7854  -16.0371   24.6065 C   0  0  2  0  0  0  0  0  0  0  0  0
    6.6660  -17.4129   25.0849 N   0  0  0  0  0  0  0  0  0  0  0  0
    7.4868  -16.0075   23.2947 C   0  0  0  0  0  0  0  0  0  0  0  0
    8.2971  -16.9372   23.0563 O   0  0  0  0  0  0  0  0  0  0  0  0
    7.1268  -13.9375   27.5763 C   0  0  0  0  0  0  0  0  0  0  0  0
    6.5194  -12.8584   28.1908 C   0  0  0  0  0  0  0  0  0  0  0  0
    7.2949  -15.0027   22.3118 N   0  0  0  0  0  0  0  0  0  0  0  0
    8.0280  -14.9341   21.0747 C   0  0  1  0  0  0  0  0  0  0  0  0
    7.6772  -13.6561   20.3462 C   0  0  0  0  0  0  0  0  0  0  0  0
    8.5090  -13.5213   19.0880 C   0  0  0  0  0  0  0  0  0  0  0  0
    7.7186  -14.0058   17.8718 C   0  0  0  0  0  0  0  0  0  0  0  0
    8.6144  -13.8785   16.6367 C   0  0  0  0  0  0  0  0  0  0  0  0
    7.9506  -14.3839   15.4633 N   0  0  0  0  0  0  0  0  0  0  0  0
    9.4945  -15.0103   21.2737 C   0  0  0  0  0  0  0  0  0  0  0  0
   10.0009  -14.3771   22.2354 O   0  0  0  0  0  0  0  0  0  0  0  0
   12.0199  -18.4331   24.3292 N   0  0  0  0  0  0  0  0  0  0  0  0
   11.4935  -19.0270   23.1742 C   0  0  0  0  0  0  0  0  0  0  0  0
   11.1309  -20.2097   23.1682 O   0  0  0  0  0  0  0  0  0  0  0  0
   11.3665  -18.2202   21.9263 C   0  0  0  0  0  0  0  0  0  0  0  0
   11.7546  -16.7896   22.1552 C   0  0  0  0  0  0  0  0  0  0  0  0
   11.7529  -16.0193   20.8811 C   0  0  2  0  0  0  0  0  0  0  0  0
   10.3685  -15.7559   20.4439 N   0  0  0  0  0  0  0  0  0  0  0  0
   12.4204  -16.7308   19.8007 C   0  0  0  0  0  0  0  0  0  0  0  0
   11.6458  -17.2613   18.7488 O   0  0  0  0  0  0  0  0  0  0  0  0
   13.6596  -16.8894   19.7716 O   0  0  0  0  0  0  0  0  0  0  0  0
  2  1  1  0
  3  2  2  0
  4  3  1  0
  5  4  2  0
  5 11  1  0
  6  5  1  0
  7  9  1  0
  7  6  1  0
  7  8  1  1
  9 10  2  0
 11 12  2  0
 12  2  1  0
 13 14  1  0
 13  9  1  0
 14 20  1  0
 14 15  1  1
 16 15  1  0
 17 16  1  0
 18 17  1  0
 19 18  1  0
 20 21  2  0
 20 28  1  0
 22 23  1  0
 23 24  2  0
 23 25  1  0
 25 26  1  0
 27 26  1  1
 27 29  1  0
 28 27  1  0
 29 31  2  0
 29 30  1  0
M  END
$$$$
