YKQ.pdb
     RDKit          3D

 31 31  0  0  1  0  0  0  0  0999 V2000
    6.6363  -10.4650   26.9620 O   0  0  0  0  0  0  0  0  0  0  0  0
    6.7780  -11.8264   26.7614 C   0  0  0  0  0  0  0  0  0  0  0  0
    5.7607  -12.6989   27.0620 C   0  0  0  0  0  0  0  0  0  0  0  0
    5.9112  -14.0728   26.8566 C   0  0  0  0  0  0  0  0  0  0  0  0
    7.0811  -14.5969   26.3474 C   0  0  0  0  0  0  0  0  0  0  0  0
    7.2394  -16.0390   26.1317 C   0  0  0  0  0  0  0  0  0  0  0  0
    6.4102  -16.5588   24.9758 C   0  0  2  0  0  0  0  0  0  0  0  0
    6.1939  -17.9842   25.2155 N   0  0  0  0  0  0  0  0  0  0  0  0
    7.2405  -16.3620   23.7570 C   0  0  0  0  0  0  0  0  0  0  0  0
    8.1897  -17.1641   23.5739 O   0  0  0  0  0  0  0  0  0  0  0  0
    8.0882  -13.7006   26.0533 C   0  0  0  0  0  0  0  0  0  0  0  0
    7.9520  -12.3394   26.2518 C   0  0  0  0  0  0  0  0  0  0  0  0
    7.0239  -15.3342   22.8035 N   0  0  0  0  0  0  0  0  0  0  0  0
    7.8474  -15.1257   21.6412 C   0  0  1  0  0  0  0  0  0  0  0  0
    7.5505  -13.7682   21.0448 C   0  0  0  0  0  0  0  0  0  0  0  0
    8.4492  -13.5075   19.8543 C   0  0  0  0  0  0  0  0  0  0  0  0
    7.7118  -13.8187   18.5512 C   0  0  0  0  0  0  0  0  0  0  0  0
    8.6683  -13.5555   17.3850 C   0  0  0  0  0  0  0  0  0  0  0  0
    7.9848  -13.6635   16.1224 N   0  0  0  0  0  0  0  0  0  0  0  0
    9.2950  -15.2361   21.9383 C   0  0  0  0  0  0  0  0  0  0  0  0
    9.7410  -14.6568   22.9619 O   0  0  0  0  0  0  0  0  0  0  0  0
   13.9893  -20.3181   22.9539 N   0  0  0  0  0  0  0  0  0  0  0  0
   12.9096  -19.4732   23.2441 C   0  0  0  0  0  0  0  0  0  0  0  0
   11.9587  -19.8599   23.9344 O   0  0  0  0  0  0  0  0  0  0  0  0
   12.9037  -18.0801   22.7117 C   0  0  0  0  0  0  0  0  0  0  0  0
   11.5574  -17.7059   22.1667 C   0  0  0  0  0  0  0  0  0  0  0  0
   11.5461  -16.3013   21.6731 C   0  0  2  0  0  0  0  0  0  0  0  0
   10.2150  -15.9575   21.1373 N   0  0  0  0  0  0  0  0  0  0  0  0
   12.5126  -16.0791   20.6073 C   0  0  0  0  0  0  0  0  0  0  0  0
   13.8877  -16.0801   20.9188 O   0  0  0  0  0  0  0  0  0  0  0  0
   12.1666  -15.8866   19.4222 O   0  0  0  0  0  0  0  0  0  0  0  0
  2  1  1  0
  3  2  2  0
  4  3  1  0
  5  4  2  0
  5 11  1  0
  6  5  1  0
  7  9  1  0
  7  6  1  0
  7  8  1  1
  9 10  2  0
 11 12  2  0
 12  2  1  0
 13 14  1  0
 13  9  1  0
 14 20  1  0
 14 15  1  1
 16 15  1  0
 17 16  1  0
 18 17  1  0
 19 18  1  0
 20 21  2  0
 20 28  1  0
 22 23  1  0
 23 24  2  0
 23 25  1  0
 25 26  1  0
 27 26  1  6
 27 29  1  0
 28 27  1  0
 29 31  2  0
 29 30  1  0
M  END
$$$$
