YKQ.pdb
     RDKit          3D

 31 31  0  0  1  0  0  0  0  0999 V2000
    9.4601  -13.1711   30.2628 O   0  0  0  0  0  0  0  0  0  0  0  0
   10.0380  -13.8255   29.1897 C   0  0  0  0  0  0  0  0  0  0  0  0
    9.5718  -13.6425   27.9107 C   0  0  0  0  0  0  0  0  0  0  0  0
   10.1605  -14.3070   26.8318 C   0  0  0  0  0  0  0  0  0  0  0  0
   11.2250  -15.1652   27.0136 C   0  0  0  0  0  0  0  0  0  0  0  0
   11.8432  -15.8629   25.8813 C   0  0  0  0  0  0  0  0  0  0  0  0
   10.9531  -16.9363   25.2904 C   0  0  2  0  0  0  0  0  0  0  0  0
   10.7617  -17.9479   26.3278 N   0  0  0  0  0  0  0  0  0  0  0  0
   11.7107  -17.5101   24.1456 C   0  0  0  0  0  0  0  0  0  0  0  0
   12.6721  -18.2713   24.4178 O   0  0  0  0  0  0  0  0  0  0  0  0
   11.6753  -15.3326   28.3073 C   0  0  0  0  0  0  0  0  0  0  0  0
   11.1016  -14.6812   29.3831 C   0  0  0  0  0  0  0  0  0  0  0  0
   11.4128  -17.2497   22.7832 N   0  0  0  0  0  0  0  0  0  0  0  0
   12.1794  -17.7624   21.6778 C   0  0  1  0  0  0  0  0  0  0  0  0
   11.3758  -17.6414   20.4025 C   0  0  0  0  0  0  0  0  0  0  0  0
   10.3780  -18.7757   20.2986 C   0  0  0  0  0  0  0  0  0  0  0  0
    9.5108  -18.6104   19.0499 C   0  0  0  0  0  0  0  0  0  0  0  0
    8.4793  -19.7417   19.0300 C   0  0  0  0  0  0  0  0  0  0  0  0
    7.5518  -19.5755   17.9414 N   0  0  0  0  0  0  0  0  0  0  0  0
   13.4815  -17.0736   21.5161 C   0  0  0  0  0  0  0  0  0  0  0  0
   13.5118  -15.8205   21.6206 O   0  0  0  0  0  0  0  0  0  0  0  0
   18.8094  -19.2075   23.4034 N   0  0  0  0  0  0  0  0  0  0  0  0
   17.9239  -18.4043   24.1345 C   0  0  0  0  0  0  0  0  0  0  0  0
   17.9934  -18.3290   25.3673 O   0  0  0  0  0  0  0  0  0  0  0  0
   16.8761  -17.6239   23.4154 C   0  0  0  0  0  0  0  0  0  0  0  0
   17.0389  -17.7261   21.9279 C   0  0  0  0  0  0  0  0  0  0  0  0
   15.9660  -16.9797   21.2148 C   0  0  2  0  0  0  0  0  0  0  0  0
   14.7028  -17.7413   21.2494 N   0  0  0  0  0  0  0  0  0  0  0  0
   16.2902  -16.7420   19.8157 C   0  0  0  0  0  0  0  0  0  0  0  0
   16.9832  -15.5656   19.4637 O   0  0  0  0  0  0  0  0  0  0  0  0
   15.9754  -17.5454   18.9119 O   0  0  0  0  0  0  0  0  0  0  0  0
  2  1  1  0
  3  2  2  0
  4  3  1  0
  5  4  2  0
  5 11  1  0
  6  5  1  0
  7  9  1  0
  7  6  1  0
  7  8  1  1
  9 10  2  0
 11 12  2  0
 12  2  1  0
 13 14  1  0
 13  9  1  0
 14 20  1  0
 14 15  1  6
 16 15  1  0
 17 16  1  0
 18 17  1  0
 19 18  1  0
 20 21  2  0
 20 28  1  0
 22 23  1  0
 23 24  2  0
 23 25  1  0
 25 26  1  0
 27 26  1  6
 27 29  1  0
 28 27  1  0
 29 31  2  0
 29 30  1  0
M  END
$$$$
