YKQ.pdb
     RDKit          3D

 31 31  0  0  1  0  0  0  0  0999 V2000
   11.8592  -15.4603   28.6942 O   0  0  0  0  0  0  0  0  0  0  0  0
   10.6145  -15.4065   28.0928 C   0  0  0  0  0  0  0  0  0  0  0  0
   10.1649  -14.2565   27.4910 C   0  0  0  0  0  0  0  0  0  0  0  0
    8.9065  -14.2097   26.8856 C   0  0  0  0  0  0  0  0  0  0  0  0
    8.0769  -15.3116   26.8718 C   0  0  0  0  0  0  0  0  0  0  0  0
    6.7559  -15.2628   26.2364 C   0  0  0  0  0  0  0  0  0  0  0  0
    6.4641  -16.4803   25.3841 C   0  0  2  0  0  0  0  0  0  0  0  0
    6.8210  -17.6522   26.1812 N   0  0  0  0  0  0  0  0  0  0  0  0
    7.3572  -16.3724   24.1991 C   0  0  0  0  0  0  0  0  0  0  0  0
    8.2392  -17.2564   24.0631 O   0  0  0  0  0  0  0  0  0  0  0  0
    8.5506  -16.4548   27.4826 C   0  0  0  0  0  0  0  0  0  0  0  0
    9.7934  -16.5141   28.0850 C   0  0  0  0  0  0  0  0  0  0  0  0
    7.2702  -15.3422   23.2277 N   0  0  0  0  0  0  0  0  0  0  0  0
    8.1701  -15.2076   22.1120 C   0  0  1  0  0  0  0  0  0  0  0  0
    7.7109  -14.0741   21.2225 C   0  0  0  0  0  0  0  0  0  0  0  0
    7.7563  -14.4937   19.7683 C   0  0  0  0  0  0  0  0  0  0  0  0
    7.8355  -13.2652   18.8610 C   0  0  0  0  0  0  0  0  0  0  0  0
    7.7312  -13.7356   17.4077 C   0  0  0  0  0  0  0  0  0  0  0  0
    7.8866  -12.6324   16.4957 N   0  0  0  0  0  0  0  0  0  0  0  0
    9.5723  -14.9772   22.5324 C   0  0  0  0  0  0  0  0  0  0  0  0
    9.7827  -14.2628   23.5462 O   0  0  0  0  0  0  0  0  0  0  0  0
   11.2254  -18.7193   25.6390 N   0  0  0  0  0  0  0  0  0  0  0  0
   12.5096  -18.1627   25.5690 C   0  0  0  0  0  0  0  0  0  0  0  0
   13.3976  -18.4944   26.3638 O   0  0  0  0  0  0  0  0  0  0  0  0
   12.8149  -17.1507   24.5170 C   0  0  0  0  0  0  0  0  0  0  0  0
   11.5884  -16.7832   23.7358 C   0  0  0  0  0  0  0  0  0  0  0  0
   11.9171  -15.8528   22.6209 C   0  0  2  0  0  0  0  0  0  0  0  0
   10.6988  -15.5141   21.8606 N   0  0  0  0  0  0  0  0  0  0  0  0
   12.8689  -16.4266   21.6806 C   0  0  0  0  0  0  0  0  0  0  0  0
   14.2295  -16.5004   22.0428 O   0  0  0  0  0  0  0  0  0  0  0  0
   12.5227  -16.8576   20.5600 O   0  0  0  0  0  0  0  0  0  0  0  0
  2  1  1  0
  3  2  2  0
  4  3  1  0
  5  4  2  0
  5 11  1  0
  6  5  1  0
  7  9  1  0
  7  6  1  0
  7  8  1  1
  9 10  2  0
 11 12  2  0
 12  2  1  0
 13 14  1  0
 13  9  1  0
 14 20  1  0
 14 15  1  6
 16 15  1  0
 17 16  1  0
 18 17  1  0
 19 18  1  0
 20 21  2  0
 20 28  1  0
 22 23  1  0
 23 24  2  0
 23 25  1  0
 25 26  1  0
 27 26  1  1
 27 29  1  0
 28 27  1  0
 29 31  2  0
 29 30  1  0
M  END
$$$$
