YKQ.pdb
     RDKit          3D

 31 31  0  0  1  0  0  0  0  0999 V2000
    8.5363  -12.6191   17.3626 O   0  0  0  0  0  0  0  0  0  0  0  0
    8.2752  -13.2443   18.5688 C   0  0  0  0  0  0  0  0  0  0  0  0
    7.5152  -12.6334   19.5362 C   0  0  0  0  0  0  0  0  0  0  0  0
    7.2557  -13.2710   20.7520 C   0  0  0  0  0  0  0  0  0  0  0  0
    7.7516  -14.5298   21.0208 C   0  0  0  0  0  0  0  0  0  0  0  0
    7.4794  -15.1994   22.2970 C   0  0  0  0  0  0  0  0  0  0  0  0
    6.6227  -16.4389   22.1438 C   0  0  2  0  0  0  0  0  0  0  0  0
    5.2695  -15.9838   21.8310 N   0  0  0  0  0  0  0  0  0  0  0  0
    6.6445  -17.1163   23.4683 C   0  0  0  0  0  0  0  0  0  0  0  0
    6.0185  -16.5628   24.4061 O   0  0  0  0  0  0  0  0  0  0  0  0
    8.5121  -15.1227   20.0337 C   0  0  0  0  0  0  0  0  0  0  0  0
    8.7761  -14.5027   18.8268 C   0  0  0  0  0  0  0  0  0  0  0  0
    7.3228  -18.3349   23.7282 N   0  0  0  0  0  0  0  0  0  0  0  0
    7.4581  -18.9194   25.0368 C   0  0  1  0  0  0  0  0  0  0  0  0
    7.5484  -20.4240   24.9146 C   0  0  0  0  0  0  0  0  0  0  0  0
    7.6358  -21.0599   26.2861 C   0  0  0  0  0  0  0  0  0  0  0  0
    7.7945  -22.5758   26.1619 C   0  0  0  0  0  0  0  0  0  0  0  0
    7.8556  -23.1681   27.5724 C   0  0  0  0  0  0  0  0  0  0  0  0
    8.1274  -24.5813   27.5275 N   0  0  0  0  0  0  0  0  0  0  0  0
    8.6364  -18.4056   25.7740 C   0  0  0  0  0  0  0  0  0  0  0  0
    9.7013  -18.2064   25.1347 O   0  0  0  0  0  0  0  0  0  0  0  0
    8.6602  -13.5235   28.8768 N   0  0  0  0  0  0  0  0  0  0  0  0
    9.9364  -13.6845   28.3208 C   0  0  0  0  0  0  0  0  0  0  0  0
   10.6811  -12.7152   28.1306 O   0  0  0  0  0  0  0  0  0  0  0  0
   10.4091  -15.0496   27.9502 C   0  0  0  0  0  0  0  0  0  0  0  0
    9.3848  -16.0941   28.2806 C   0  0  0  0  0  0  0  0  0  0  0  0
    9.7936  -17.4317   27.7703 C   0  0  2  0  0  0  0  0  0  0  0  0
    8.6400  -18.1224   27.1627 N   0  0  0  0  0  0  0  0  0  0  0  0
   10.3095  -18.2943   28.8234 C   0  0  0  0  0  0  0  0  0  0  0  0
   11.6569  -18.1632   29.2173 O   0  0  0  0  0  0  0  0  0  0  0  0
    9.5990  -19.1501   29.3929 O   0  0  0  0  0  0  0  0  0  0  0  0
  2  1  1  0
  3  2  2  0
  4  3  1  0
  5  4  2  0
  5 11  1  0
  6  5  1  0
  7  9  1  0
  7  6  1  0
  7  8  1  1
  9 10  2  0
 11 12  2  0
 12  2  1  0
 13 14  1  0
 13  9  1  0
 14 20  1  0
 14 15  1  6
 16 15  1  0
 17 16  1  0
 18 17  1  0
 19 18  1  0
 20 21  2  0
 20 28  1  0
 22 23  1  0
 23 24  2  0
 23 25  1  0
 25 26  1  0
 27 26  1  1
 27 29  1  0
 28 27  1  0
 29 31  2  0
 29 30  1  0
M  END
$$$$
