YKQ.pdb
     RDKit          3D

 31 31  0  0  1  0  0  0  0  0999 V2000
    5.6882  -10.2543   27.5897 O   0  0  0  0  0  0  0  0  0  0  0  0
    6.1426  -11.4653   27.0990 C   0  0  0  0  0  0  0  0  0  0  0  0
    6.9484  -12.2813   27.8550 C   0  0  0  0  0  0  0  0  0  0  0  0
    7.4036  -13.5031   27.3526 C   0  0  0  0  0  0  0  0  0  0  0  0
    7.0608  -13.9291   26.0862 C   0  0  0  0  0  0  0  0  0  0  0  0
    7.5384  -15.2115   25.5585 C   0  0  0  0  0  0  0  0  0  0  0  0
    6.6332  -15.7848   24.4881 C   0  0  2  0  0  0  0  0  0  0  0  0
    6.1656  -17.0805   24.9767 N   0  0  0  0  0  0  0  0  0  0  0  0
    7.4888  -15.9669   23.2846 C   0  0  0  0  0  0  0  0  0  0  0  0
    7.9793  -17.1080   23.0968 O   0  0  0  0  0  0  0  0  0  0  0  0
    6.2508  -13.0922   25.3462 C   0  0  0  0  0  0  0  0  0  0  0  0
    5.7938  -11.8812   25.8316 C   0  0  0  0  0  0  0  0  0  0  0  0
    7.7780  -14.9391   22.3505 N   0  0  0  0  0  0  0  0  0  0  0  0
    8.7906  -15.0367   21.3318 C   0  0  1  0  0  0  0  0  0  0  0  0
    8.9544  -13.6978   20.6482 C   0  0  0  0  0  0  0  0  0  0  0  0
    8.0149  -13.5914   19.4654 C   0  0  0  0  0  0  0  0  0  0  0  0
    8.6440  -14.2284   18.2256 C   0  0  0  0  0  0  0  0  0  0  0  0
    7.7407  -13.9338   17.0250 C   0  0  0  0  0  0  0  0  0  0  0  0
    8.1736  -14.6637   15.8619 N   0  0  0  0  0  0  0  0  0  0  0  0
   10.0969  -15.4897   21.8649 C   0  0  0  0  0  0  0  0  0  0  0  0
   10.5692  -14.8995   22.8704 O   0  0  0  0  0  0  0  0  0  0  0  0
   13.1480  -20.8671   24.4398 N   0  0  0  0  0  0  0  0  0  0  0  0
   13.1740  -20.4830   23.0924 C   0  0  0  0  0  0  0  0  0  0  0  0
   13.1068  -21.3203   22.1843 O   0  0  0  0  0  0  0  0  0  0  0  0
   13.2848  -19.0373   22.7430 C   0  0  0  0  0  0  0  0  0  0  0  0
   11.9676  -18.4781   22.2941 C   0  0  0  0  0  0  0  0  0  0  0  0
   12.0725  -17.0235   21.9944 C   0  0  2  0  0  0  0  0  0  0  0  0
   10.8530  -16.5523   21.3104 N   0  0  0  0  0  0  0  0  0  0  0  0
   13.2015  -16.7145   21.1289 C   0  0  0  0  0  0  0  0  0  0  0  0
   12.9976  -16.6472   19.7354 O   0  0  0  0  0  0  0  0  0  0  0  0
   14.3490  -16.5062   21.5776 O   0  0  0  0  0  0  0  0  0  0  0  0
  2  1  1  0
  3  2  2  0
  4  3  1  0
  5  4  2  0
  5 11  1  0
  6  5  1  0
  7  9  1  0
  7  6  1  0
  7  8  1  1
  9 10  2  0
 11 12  2  0
 12  2  1  0
 13 14  1  0
 13  9  1  0
 14 20  1  0
 14 15  1  1
 16 15  1  0
 17 16  1  0
 18 17  1  0
 19 18  1  0
 20 21  2  0
 20 28  1  0
 22 23  1  0
 23 24  2  0
 23 25  1  0
 25 26  1  0
 27 26  1  6
 27 29  1  0
 28 27  1  0
 29 31  2  0
 29 30  1  0
M  END
$$$$
