YKQ.pdb
     RDKit          3D

 31 31  0  0  1  0  0  0  0  0999 V2000
    5.7960  -10.6387   27.8799 O   0  0  0  0  0  0  0  0  0  0  0  0
    6.3373  -11.6794   27.1466 C   0  0  0  0  0  0  0  0  0  0  0  0
    5.5426  -12.6735   26.6299 C   0  0  0  0  0  0  0  0  0  0  0  0
    6.0965  -13.7216   25.8902 C   0  0  0  0  0  0  0  0  0  0  0  0
    7.4538  -13.7931   25.6549 C   0  0  0  0  0  0  0  0  0  0  0  0
    8.0355  -14.8930   24.8785 C   0  0  0  0  0  0  0  0  0  0  0  0
    7.0740  -15.4729   23.8622 C   0  0  2  0  0  0  0  0  0  0  0  0
    6.3129  -16.5172   24.5452 N   0  0  0  0  0  0  0  0  0  0  0  0
    7.9204  -16.0686   22.7933 C   0  0  0  0  0  0  0  0  0  0  0  0
    8.5090  -17.1455   23.0610 O   0  0  0  0  0  0  0  0  0  0  0  0
    8.2310  -12.7831   26.1842 C   0  0  0  0  0  0  0  0  0  0  0  0
    7.6955  -11.7409   26.9176 C   0  0  0  0  0  0  0  0  0  0  0  0
    8.0976  -15.4971   21.5070 N   0  0  0  0  0  0  0  0  0  0  0  0
    9.1109  -15.9126   20.5726 C   0  0  1  0  0  0  0  0  0  0  0  0
    9.2926  -14.8485   19.5135 C   0  0  0  0  0  0  0  0  0  0  0  0
    8.1902  -14.9406   18.4793 C   0  0  0  0  0  0  0  0  0  0  0  0
    8.4925  -14.0222   17.2945 C   0  0  0  0  0  0  0  0  0  0  0  0
    7.3817  -14.1992   16.2558 C   0  0  0  0  0  0  0  0  0  0  0  0
    7.6425  -13.4084   15.0813 N   0  0  0  0  0  0  0  0  0  0  0  0
   10.4105  -16.1953   21.2260 C   0  0  0  0  0  0  0  0  0  0  0  0
   10.8555  -15.3623   22.0569 O   0  0  0  0  0  0  0  0  0  0  0  0
   11.1205  -20.5605   24.0914 N   0  0  0  0  0  0  0  0  0  0  0  0
   11.3036  -19.3163   24.7097 C   0  0  0  0  0  0  0  0  0  0  0  0
   10.9117  -19.1090   25.8646 O   0  0  0  0  0  0  0  0  0  0  0  0
   11.9837  -18.2186   23.9635 C   0  0  0  0  0  0  0  0  0  0  0  0
   12.4239  -18.6700   22.6027 C   0  0  0  0  0  0  0  0  0  0  0  0
   12.4883  -17.5279   21.6497 C   0  0  2  0  0  0  0  0  0  0  0  0
   11.1891  -17.3520   20.9727 N   0  0  0  0  0  0  0  0  0  0  0  0
   13.4931  -17.7238   20.6147 C   0  0  0  0  0  0  0  0  0  0  0  0
   14.8575  -17.6750   20.9668 O   0  0  0  0  0  0  0  0  0  0  0  0
   13.1892  -17.9342   19.4210 O   0  0  0  0  0  0  0  0  0  0  0  0
  2  1  1  0
  3  2  2  0
  4  3  1  0
  5  4  2  0
  5 11  1  0
  6  5  1  0
  7  9  1  0
  7  6  1  0
  7  8  1  1
  9 10  2  0
 11 12  2  0
 12  2  1  0
 13 14  1  0
 13  9  1  0
 14 20  1  0
 14 15  1  6
 16 15  1  0
 17 16  1  0
 18 17  1  0
 19 18  1  0
 20 21  2  0
 20 28  1  0
 22 23  1  0
 23 24  2  0
 23 25  1  0
 25 26  1  0
 27 26  1  1
 27 29  1  0
 28 27  1  0
 29 31  2  0
 29 30  1  0
M  END
$$$$
