GGL.pdb
     RDKit          3D

 17 16  0  0  1  0  0  0  0  0999 V2000
    6.7317  -21.9808   25.6116 N   0  0  0  0  0  0  0  0  0  0  0  0
    6.7266  -20.9679   24.5792 C   0  0  0  0  0  0  0  0  0  0  0  0
    6.8442  -19.6363   25.2316 C   0  0  0  0  0  0  0  0  0  0  0  0
    7.6420  -19.4377   26.1775 O   0  0  0  0  0  0  0  0  0  0  0  0
    6.0366  -18.5338   24.7877 N   0  0  0  0  0  0  0  0  0  0  0  0
    6.3425  -17.8671   23.5614 C   0  0  0  0  0  0  0  0  0  0  0  0
    7.1541  -16.6579   23.8526 C   0  0  0  0  0  0  0  0  0  0  0  0
    7.8184  -16.1034   22.9521 O   0  0  0  0  0  0  0  0  0  0  0  0
    5.7197  -12.3321   26.8368 C   0  0  0  0  0  0  0  0  0  0  0  0
    6.3780  -13.1256   25.7146 C   0  0  1  0  0  0  0  0  0  0  0  0
    6.8080  -12.2684   24.5649 C   0  0  0  0  0  0  0  0  0  0  0  0
    7.5136  -13.9168   26.2943 C   0  0  0  0  0  0  0  0  0  0  0  0
    8.0872  -14.9588   25.4095 C   0  0  2  0  0  0  0  0  0  0  0  0
    7.2181  -16.0757   25.1500 N   0  0  0  0  0  0  0  0  0  0  0  0
    9.4262  -15.4433   25.9189 C   0  0  0  0  0  0  0  0  0  0  0  0
    9.6282  -16.7529   26.3285 O   0  0  0  0  0  0  0  0  0  0  0  0
   10.4105  -14.6657   25.9883 O   0  0  0  0  0  0  0  0  0  0  0  0
  1  2  1  0
  3  5  1  0
  3  2  1  0
  4  3  2  0
  6  5  1  0
  7  6  1  0
  7  8  2  0
 10  9  1  1
 10 12  1  0
 11 10  1  0
 13 12  1  1
 13 14  1  0
 13 15  1  0
 14  7  1  0
 15 16  1  0
 17 15  2  0
M  END
$$$$
