GGL.pdb
     RDKit          3D

 17 16  0  0  1  0  0  0  0  0999 V2000
    7.5141  -12.6217   18.3412 N   0  0  0  0  0  0  0  0  0  0  0  0
    8.5674  -13.0002   19.2572 C   0  0  0  0  0  0  0  0  0  0  0  0
    8.0043  -13.9597   20.2447 C   0  0  0  0  0  0  0  0  0  0  0  0
    6.7676  -14.1102   20.3810 O   0  0  0  0  0  0  0  0  0  0  0  0
    8.8749  -14.7456   21.0749 N   0  0  0  0  0  0  0  0  0  0  0  0
    8.3279  -15.6751   22.0123 C   0  0  0  0  0  0  0  0  0  0  0  0
    8.7488  -15.2901   23.3835 C   0  0  0  0  0  0  0  0  0  0  0  0
    9.9583  -15.1632   23.6674 O   0  0  0  0  0  0  0  0  0  0  0  0
    5.6748  -12.1786   26.8009 C   0  0  0  0  0  0  0  0  0  0  0  0
    6.9072  -12.6593   26.0445 C   0  0  1  0  0  0  0  0  0  0  0  0
    8.0297  -11.6687   26.0631 C   0  0  0  0  0  0  0  0  0  0  0  0
    7.3133  -13.9944   26.5962 C   0  0  0  0  0  0  0  0  0  0  0  0
    8.2668  -14.7687   25.7662 C   0  0  2  0  0  0  0  0  0  0  0  0
    7.8140  -15.0491   24.4296 N   0  0  0  0  0  0  0  0  0  0  0  0
    8.6914  -16.0462   26.4552 C   0  0  0  0  0  0  0  0  0  0  0  0
    9.5821  -16.0484   27.5184 O   0  0  0  0  0  0  0  0  0  0  0  0
    8.2457  -17.1600   26.0822 O   0  0  0  0  0  0  0  0  0  0  0  0
  1  2  1  0
  3  5  1  0
  3  2  1  0
  4  3  2  0
  6  5  1  0
  7  6  1  0
  7  8  2  0
 10  9  1  1
 10 12  1  0
 11 10  1  0
 13 12  1  1
 13 14  1  0
 13 15  1  0
 14  7  1  0
 15 16  1  0
 17 15  2  0
M  END
$$$$
