GGL.pdb
     RDKit          3D

 17 16  0  0  1  0  0  0  0  0999 V2000
    6.4882  -20.3516   23.3204 N   0  0  0  0  0  0  0  0  0  0  0  0
    6.0511  -19.0189   23.6732 C   0  0  0  0  0  0  0  0  0  0  0  0
    6.5796  -18.0702   22.6565 C   0  0  0  0  0  0  0  0  0  0  0  0
    7.4393  -18.4225   21.8154 O   0  0  0  0  0  0  0  0  0  0  0  0
    6.1117  -16.7123   22.6145 N   0  0  0  0  0  0  0  0  0  0  0  0
    6.9271  -15.6888   22.0404 C   0  0  0  0  0  0  0  0  0  0  0  0
    7.6992  -15.0185   23.1176 C   0  0  0  0  0  0  0  0  0  0  0  0
    8.6826  -14.2989   22.8443 O   0  0  0  0  0  0  0  0  0  0  0  0
    5.9873  -11.9179   26.9494 C   0  0  0  0  0  0  0  0  0  0  0  0
    6.8585  -12.5537   25.8728 C   0  0  1  0  0  0  0  0  0  0  0  0
    7.7838  -11.5773   25.2155 C   0  0  0  0  0  0  0  0  0  0  0  0
    7.5892  -13.7163   26.4776 C   0  0  0  0  0  0  0  0  0  0  0  0
    8.2385  -14.6375   25.5145 C   0  0  2  0  0  0  0  0  0  0  0  0
    7.3667  -15.1571   24.4948 N   0  0  0  0  0  0  0  0  0  0  0  0
    8.9505  -15.7685   26.2225 C   0  0  0  0  0  0  0  0  0  0  0  0
   10.0088  -15.5436   27.0902 O   0  0  0  0  0  0  0  0  0  0  0  0
    8.6020  -16.9623   26.0452 O   0  0  0  0  0  0  0  0  0  0  0  0
  1  2  1  0
  3  5  1  0
  3  2  1  0
  4  3  2  0
  6  5  1  0
  7  6  1  0
  7  8  2  0
 10  9  1  1
 10 12  1  0
 11 10  1  0
 13 12  1  1
 13 14  1  0
 13 15  1  0
 14  7  1  0
 15 16  1  0
 17 15  2  0
M  END
$$$$
