GGL.pdb
     RDKit          3D

 17 16  0  0  1  0  0  0  0  0999 V2000
    5.2753  -20.1393   19.2213 N   0  0  0  0  0  0  0  0  0  0  0  0
    6.6286  -20.0418   19.7220 C   0  0  0  0  0  0  0  0  0  0  0  0
    7.3138  -18.9351   19.0021 C   0  0  0  0  0  0  0  0  0  0  0  0
    6.6726  -17.9781   18.5083 O   0  0  0  0  0  0  0  0  0  0  0  0
    8.7431  -18.9370   18.8541 N   0  0  0  0  0  0  0  0  0  0  0  0
    9.3997  -17.8469   18.2043 C   0  0  0  0  0  0  0  0  0  0  0  0
    9.8732  -16.8817   19.2289 C   0  0  0  0  0  0  0  0  0  0  0  0
   10.9290  -16.2370   19.0581 O   0  0  0  0  0  0  0  0  0  0  0  0
    6.6717  -13.1086   21.1405 C   0  0  0  0  0  0  0  0  0  0  0  0
    7.8811  -13.8616   20.5997 C   0  0  1  0  0  0  0  0  0  0  0  0
    8.8758  -12.9672   19.9274 C   0  0  0  0  0  0  0  0  0  0  0  0
    8.4890  -14.6528   21.7205 C   0  0  0  0  0  0  0  0  0  0  0  0
    9.5693  -15.5906   21.3318 C   0  0  2  0  0  0  0  0  0  0  0  0
    9.1626  -16.6431   20.4391 N   0  0  0  0  0  0  0  0  0  0  0  0
   10.2637  -16.1698   22.5440 C   0  0  0  0  0  0  0  0  0  0  0  0
   11.1288  -15.4188   23.3259 O   0  0  0  0  0  0  0  0  0  0  0  0
   10.0772  -17.3642   22.8858 O   0  0  0  0  0  0  0  0  0  0  0  0
  1  2  1  0
  3  5  1  0
  3  2  1  0
  4  3  2  0
  6  5  1  0
  7  6  1  0
  7  8  2  0
 10  9  1  1
 10 12  1  0
 11 10  1  0
 13 12  1  1
 13 14  1  0
 13 15  1  0
 14  7  1  0
 15 16  1  0
 17 15  2  0
M  END
$$$$
