GGL.pdb
     RDKit          3D

 17 16  0  0  1  0  0  0  0  0999 V2000
    6.3645  -21.6387   25.6067 N   0  0  0  0  0  0  0  0  0  0  0  0
    7.1361  -21.1247   24.4967 C   0  0  0  0  0  0  0  0  0  0  0  0
    6.3624  -20.0252   23.8603 C   0  0  0  0  0  0  0  0  0  0  0  0
    5.3874  -20.2593   23.1086 O   0  0  0  0  0  0  0  0  0  0  0  0
    6.7187  -18.6530   24.0951 N   0  0  0  0  0  0  0  0  0  0  0  0
    6.2362  -17.6265   23.2260 C   0  0  0  0  0  0  0  0  0  0  0  0
    6.7178  -16.3087   23.7130 C   0  0  0  0  0  0  0  0  0  0  0  0
    6.5845  -15.2827   23.0134 O   0  0  0  0  0  0  0  0  0  0  0  0
    6.0721  -12.5181   26.9363 C   0  0  0  0  0  0  0  0  0  0  0  0
    6.6981  -13.1770   25.7130 C   0  0  1  0  0  0  0  0  0  0  0  0
    7.1195  -12.1915   24.6678 C   0  0  0  0  0  0  0  0  0  0  0  0
    7.8322  -14.0470   26.1695 C   0  0  0  0  0  0  0  0  0  0  0  0
    8.2817  -15.0759   25.2015 C   0  0  2  0  0  0  0  0  0  0  0  0
    7.3458  -16.1460   24.9800 N   0  0  0  0  0  0  0  0  0  0  0  0
    9.6373  -15.6332   25.5739 C   0  0  0  0  0  0  0  0  0  0  0  0
   10.7899  -14.8634   25.5205 O   0  0  0  0  0  0  0  0  0  0  0  0
    9.7647  -16.8256   25.9481 O   0  0  0  0  0  0  0  0  0  0  0  0
  1  2  1  0
  3  5  1  0
  3  2  1  0
  4  3  2  0
  6  5  1  0
  7  6  1  0
  7  8  2  0
 10  9  1  1
 10 12  1  0
 11 10  1  0
 13 12  1  1
 13 14  1  0
 13 15  1  0
 14  7  1  0
 15 16  1  0
 17 15  2  0
M  END
$$$$
