PIE.pdb
     RDKit          3D

 25 25  0  0  1  0  0  0  0  0999 V2000
   28.4683  -21.1085  -15.4590 N   0  0  0  0  0  0  0  0  0  0  0  0
   28.5598  -20.6175  -16.8320 C   0  0  0  0  0  0  0  0  0  0  0  0
   28.4393  -19.0914  -16.6822 C   0  0  0  0  0  0  0  0  0  0  0  0
   27.3126  -19.0623  -15.6548 C   0  0  0  0  0  0  0  0  0  0  0  0
   27.7487  -20.1320  -14.7076 C   0  0  1  0  0  0  0  0  0  0  0  0
   26.6279  -20.7106  -13.9283 C   0  0  0  0  0  0  0  0  0  0  0  0
   26.0530  -21.7173  -14.4059 O   0  0  0  0  0  0  0  0  0  0  0  0
   26.7725  -20.6610   -8.6141 C   0  0  0  0  0  0  0  0  0  0  0  0
   26.4360  -21.1402  -10.0001 C   0  0  0  0  0  0  0  0  0  0  0  0
   25.1688  -20.5270  -10.5485 C   0  0  2  0  0  0  0  0  0  0  0  0
   24.0002  -20.9777   -9.7230 C   0  0  0  0  0  0  0  0  0  0  0  0
   25.0237  -20.8039  -12.0054 C   0  0  2  0  0  0  0  0  0  0  0  0
   26.1751  -20.2013  -12.6969 N   0  0  0  0  0  0  0  0  0  0  0  0
   23.7520  -20.2894  -12.5704 C   0  0  0  0  0  0  0  0  0  0  0  0
   23.6252  -19.0500  -12.6705 O   0  0  0  0  0  0  0  0  0  0  0  0
   22.7075  -21.1152  -12.9878 N   0  0  0  0  0  0  0  0  0  0  0  0
   21.4344  -20.6529  -13.5548 C   0  0  1  0  0  0  0  0  0  0  0  0
   21.0634  -21.4321  -14.7411 C   0  0  0  0  0  0  0  0  0  0  0  0
   19.8108  -21.0061  -15.4141 C   0  0  0  0  0  0  0  0  0  0  0  0
   19.4565  -21.8573  -16.5828 C   0  0  0  0  0  0  0  0  0  0  0  0
   20.2781  -21.9052  -17.5667 O   0  0  0  0  0  0  0  0  0  0  0  0
   20.4178  -20.3755  -12.5779 C   0  0  0  0  0  0  0  0  0  0  0  0
   20.1642  -21.0239  -11.5375 O   0  0  0  0  0  0  0  0  0  0  0  0
   18.3007  -22.5895  -16.6609 O   0  0  0  0  0  0  0  0  0  0  0  0
   19.5931  -19.2504  -12.7851 O   0  0  0  0  0  0  0  0  0  0  0  0
  1  5  1  0
  2  1  1  0
  3  2  1  0
  3  4  1  0
  4  5  1  0
  5  6  1  6
  6  7  2  0
  9 10  1  0
  9  8  1  0
 10 12  1  0
 10 11  1  1
 12 13  1  6
 12 14  1  0
 13  6  1  0
 14 15  2  0
 14 16  1  0
 16 17  1  0
 17 22  1  0
 17 18  1  6
 19 18  1  0
 19 20  1  0
 20 21  2  0
 22 23  2  0
 22 25  1  0
 24 20  1  0
M  END
$$$$
