PIE.pdb
     RDKit          3D

 25 25  0  0  1  0  0  0  0  0999 V2000
   15.3676  -23.4494    1.3547 N   0  0  0  0  0  0  0  0  0  0  0  0
   14.1818  -24.1984    1.7638 C   0  0  0  0  0  0  0  0  0  0  0  0
   13.0550  -23.1525    1.7145 C   0  0  0  0  0  0  0  0  0  0  0  0
   13.8078  -21.9919    2.3565 C   0  0  0  0  0  0  0  0  0  0  0  0
   15.1286  -22.0770    1.6637 C   0  0  1  0  0  0  0  0  0  0  0  0
   16.2313  -21.4562    2.4362 C   0  0  0  0  0  0  0  0  0  0  0  0
   16.8755  -22.1957    3.2174 O   0  0  0  0  0  0  0  0  0  0  0  0
   19.5052  -18.2597    0.1755 C   0  0  0  0  0  0  0  0  0  0  0  0
   19.2133  -19.1788    1.3304 C   0  0  0  0  0  0  0  0  0  0  0  0
   18.3951  -18.5233    2.4183 C   0  0  2  0  0  0  0  0  0  0  0  0
   19.2822  -17.6390    3.2437 C   0  0  0  0  0  0  0  0  0  0  0  0
   17.6435  -19.5366    3.2111 C   0  0  2  0  0  0  0  0  0  0  0  0
   16.5935  -20.0992    2.3461 N   0  0  0  0  0  0  0  0  0  0  0  0
   17.0503  -18.9798    4.4517 C   0  0  0  0  0  0  0  0  0  0  0  0
   15.9586  -18.3798    4.3499 O   0  0  0  0  0  0  0  0  0  0  0  0
   17.6483  -19.0941    5.7073 N   0  0  0  0  0  0  0  0  0  0  0  0
   17.0776  -18.6019    6.9675 C   0  0  1  0  0  0  0  0  0  0  0  0
   17.6257  -19.3244    8.1206 C   0  0  0  0  0  0  0  0  0  0  0  0
   17.0874  -18.9133    9.4415 C   0  0  0  0  0  0  0  0  0  0  0  0
   17.6755  -19.6772   10.5758 C   0  0  0  0  0  0  0  0  0  0  0  0
   18.5125  -20.6111   10.3061 O   0  0  0  0  0  0  0  0  0  0  0  0
   16.9705  -17.1713    7.0494 C   0  0  0  0  0  0  0  0  0  0  0  0
   17.7921  -16.3212    6.6378 O   0  0  0  0  0  0  0  0  0  0  0  0
   17.3688  -19.4344   11.8892 O   0  0  0  0  0  0  0  0  0  0  0  0
   15.8194  -16.6297    7.6581 O   0  0  0  0  0  0  0  0  0  0  0  0
  1  5  1  0
  2  1  1  0
  3  2  1  0
  3  4  1  0
  4  5  1  0
  5  6  1  1
  6  7  2  0
  9 10  1  0
  9  8  1  0
 10 12  1  0
 10 11  1  1
 12 13  1  6
 12 14  1  0
 13  6  1  0
 14 15  2  0
 14 16  1  0
 16 17  1  0
 17 22  1  0
 17 18  1  1
 19 18  1  0
 19 20  1  0
 20 21  2  0
 22 23  2  0
 22 25  1  0
 24 20  1  0
M  END
$$$$
