PIE.pdb
     RDKit          3D

 25 25  0  0  1  0  0  0  0  0999 V2000
   21.9600  -10.8960  -20.0184 N   0  0  0  0  0  0  0  0  0  0  0  0
   21.9801  -12.2273  -20.6198 C   0  0  0  0  0  0  0  0  0  0  0  0
   20.5073  -12.4873  -20.9790 C   0  0  0  0  0  0  0  0  0  0  0  0
   19.8736  -11.9480  -19.7010 C   0  0  0  0  0  0  0  0  0  0  0  0
   20.6488  -10.6876  -19.4958 C   0  0  1  0  0  0  0  0  0  0  0  0
   20.6527  -10.2307  -18.0853 C   0  0  0  0  0  0  0  0  0  0  0  0
   19.5415  -10.0151  -17.5461 O   0  0  0  0  0  0  0  0  0  0  0  0
   23.3964  -12.6582  -14.5048 C   0  0  0  0  0  0  0  0  0  0  0  0
   22.3853  -11.7991  -15.2145 C   0  0  0  0  0  0  0  0  0  0  0  0
   22.6848  -10.3220  -15.1111 C   0  0  2  0  0  0  0  0  0  0  0  0
   22.7146   -9.9202  -13.6661 C   0  0  0  0  0  0  0  0  0  0  0  0
   21.7419   -9.5221  -15.9426 C   0  0  2  0  0  0  0  0  0  0  0  0
   21.8184  -10.0258  -17.3238 N   0  0  0  0  0  0  0  0  0  0  0  0
   22.0259   -8.0665  -15.9049 C   0  0  0  0  0  0  0  0  0  0  0  0
   23.1695   -7.6931  -16.2441 O   0  0  0  0  0  0  0  0  0  0  0  0
   21.0876   -7.1108  -15.5132 N   0  0  0  0  0  0  0  0  0  0  0  0
   21.3366   -5.6672  -15.4138 C   0  0  1  0  0  0  0  0  0  0  0  0
   20.2245   -4.8931  -15.9757 C   0  0  0  0  0  0  0  0  0  0  0  0
   20.3903   -3.4187  -15.9296 C   0  0  0  0  0  0  0  0  0  0  0  0
   19.2351   -2.6820  -16.5115 C   0  0  0  0  0  0  0  0  0  0  0  0
   18.2463   -3.3654  -16.9598 O   0  0  0  0  0  0  0  0  0  0  0  0
   21.8904   -5.2478  -14.1559 C   0  0  0  0  0  0  0  0  0  0  0  0
   21.5762   -5.6509  -13.0131 O   0  0  0  0  0  0  0  0  0  0  0  0
   19.1745   -1.3154  -16.5928 O   0  0  0  0  0  0  0  0  0  0  0  0
   22.9067   -4.2703  -14.1756 O   0  0  0  0  0  0  0  0  0  0  0  0
  1  5  1  0
  2  1  1  0
  3  2  1  0
  3  4  1  0
  4  5  1  0
  5  6  1  1
  6  7  2  0
  9 10  1  0
  9  8  1  0
 10 12  1  0
 10 11  1  1
 12 13  1  6
 12 14  1  0
 13  6  1  0
 14 15  2  0
 14 16  1  0
 16 17  1  0
 17 22  1  0
 17 18  1  1
 19 18  1  0
 19 20  1  0
 20 21  2  0
 22 23  2  0
 22 25  1  0
 24 20  1  0
M  END
$$$$
