PIE.pdb
     RDKit          3D

 25 25  0  0  1  0  0  0  0  0999 V2000
   21.6411  -12.3812  -18.7893 N   0  0  0  0  0  0  0  0  0  0  0  0
   21.5801  -13.7932  -19.1593 C   0  0  0  0  0  0  0  0  0  0  0  0
   20.4170  -14.3413  -18.3151 C   0  0  0  0  0  0  0  0  0  0  0  0
   20.7500  -13.6375  -17.0037 C   0  0  0  0  0  0  0  0  0  0  0  0
   21.0809  -12.2616  -17.4825 C   0  0  1  0  0  0  0  0  0  0  0  0
   21.9520  -11.5136  -16.5445 C   0  0  0  0  0  0  0  0  0  0  0  0
   21.5355  -11.3557  -15.3724 O   0  0  0  0  0  0  0  0  0  0  0  0
   27.1334  -12.2148  -16.2685 C   0  0  0  0  0  0  0  0  0  0  0  0
   25.7091  -11.8615  -15.9365 C   0  0  0  0  0  0  0  0  0  0  0  0
   25.4014  -10.3949  -16.1285 C   0  0  2  0  0  0  0  0  0  0  0  0
   26.2914   -9.5790  -15.2384 C   0  0  0  0  0  0  0  0  0  0  0  0
   23.9480  -10.1215  -15.9463 C   0  0  2  0  0  0  0  0  0  0  0  0
   23.2059  -10.9750  -16.8886 N   0  0  0  0  0  0  0  0  0  0  0  0
   23.5954   -8.6950  -16.1503 C   0  0  0  0  0  0  0  0  0  0  0  0
   23.6985   -8.2355  -17.3080 O   0  0  0  0  0  0  0  0  0  0  0  0
   23.1612   -7.8567  -15.1227 N   0  0  0  0  0  0  0  0  0  0  0  0
   22.6245   -6.5017  -15.3019 C   0  0  1  0  0  0  0  0  0  0  0  0
   21.6668   -6.4487  -16.4118 C   0  0  0  0  0  0  0  0  0  0  0  0
   21.1163   -5.1030  -16.7114 C   0  0  0  0  0  0  0  0  0  0  0  0
   20.1183   -5.1123  -17.8158 C   0  0  0  0  0  0  0  0  0  0  0  0
   19.0015   -4.5102  -17.6263 O   0  0  0  0  0  0  0  0  0  0  0  0
   22.2830   -5.8339  -14.0762 C   0  0  0  0  0  0  0  0  0  0  0  0
   22.0768   -6.3551  -12.9569 O   0  0  0  0  0  0  0  0  0  0  0  0
   20.3310   -5.7297  -19.0207 O   0  0  0  0  0  0  0  0  0  0  0  0
   22.1576   -4.4295  -14.1029 O   0  0  0  0  0  0  0  0  0  0  0  0
  1  5  1  0
  2  1  1  0
  3  2  1  0
  3  4  1  0
  4  5  1  0
  5  6  1  1
  6  7  2  0
  9 10  1  0
  9  8  1  0
 10 12  1  0
 10 11  1  1
 12 13  1  6
 12 14  1  0
 13  6  1  0
 14 15  2  0
 14 16  1  0
 16 17  1  0
 17 22  1  0
 17 18  1  6
 19 18  1  0
 19 20  1  0
 20 21  2  0
 22 23  2  0
 22 25  1  0
 24 20  1  0
M  END
$$$$
