PIE.pdb
     RDKit          3D

 25 25  0  0  1  0  0  0  0  0999 V2000
   19.4173  -11.3514  -18.8625 N   0  0  0  0  0  0  0  0  0  0  0  0
   19.1952  -12.7123  -19.3453 C   0  0  0  0  0  0  0  0  0  0  0  0
   17.8887  -13.1360  -18.6530 C   0  0  0  0  0  0  0  0  0  0  0  0
   18.1856  -12.5746  -17.2664 C   0  0  0  0  0  0  0  0  0  0  0  0
   18.7526  -11.2347  -17.6054 C   0  0  1  0  0  0  0  0  0  0  0  0
   19.6230  -10.6849  -16.5383 C   0  0  0  0  0  0  0  0  0  0  0  0
   19.1043  -10.4936  -15.4129 O   0  0  0  0  0  0  0  0  0  0  0  0
   24.3707  -12.5841  -15.7896 C   0  0  0  0  0  0  0  0  0  0  0  0
   23.0399  -11.9093  -15.5961 C   0  0  0  0  0  0  0  0  0  0  0  0
   23.1264  -10.4018  -15.6450 C   0  0  2  0  0  0  0  0  0  0  0  0
   24.0406   -9.9203  -14.5576 C   0  0  0  0  0  0  0  0  0  0  0  0
   21.7710   -9.7836  -15.6145 C   0  0  2  0  0  0  0  0  0  0  0  0
   20.9830  -10.3677  -16.7123 N   0  0  0  0  0  0  0  0  0  0  0  0
   21.8044   -8.3049  -15.7297 C   0  0  0  0  0  0  0  0  0  0  0  0
   22.2995   -7.8186  -16.7693 O   0  0  0  0  0  0  0  0  0  0  0  0
   21.3158   -7.4465  -14.7440 N   0  0  0  0  0  0  0  0  0  0  0  0
   21.2833   -5.9813  -14.8340 C   0  0  1  0  0  0  0  0  0  0  0  0
   19.9067   -5.4813  -14.9159 C   0  0  0  0  0  0  0  0  0  0  0  0
   19.7722   -4.0067  -15.0214 C   0  0  0  0  0  0  0  0  0  0  0  0
   18.3584   -3.5554  -15.1356 C   0  0  0  0  0  0  0  0  0  0  0  0
   17.4352   -4.4455  -15.1029 O   0  0  0  0  0  0  0  0  0  0  0  0
   22.1981   -5.3140  -13.9492 C   0  0  0  0  0  0  0  0  0  0  0  0
   22.6960   -4.1738  -14.0872 O   0  0  0  0  0  0  0  0  0  0  0  0
   17.9940   -2.2415  -15.2738 O   0  0  0  0  0  0  0  0  0  0  0  0
   22.6016   -5.9945  -12.7818 O   0  0  0  0  0  0  0  0  0  0  0  0
  1  5  1  0
  2  1  1  0
  3  2  1  0
  3  4  1  0
  4  5  1  0
  5  6  1  1
  6  7  2  0
  9 10  1  0
  9  8  1  0
 10 12  1  0
 10 11  1  1
 12 13  1  6
 12 14  1  0
 13  6  1  0
 14 15  2  0
 14 16  1  0
 16 17  1  0
 17 22  1  0
 17 18  1  1
 19 18  1  0
 19 20  1  0
 20 21  2  0
 22 23  2  0
 22 25  1  0
 24 20  1  0
M  END
$$$$
