PIE.pdb
     RDKit          3D

 25 25  0  0  1  0  0  0  0  0999 V2000
   22.1931  -12.4319  -19.5015 N   0  0  0  0  0  0  0  0  0  0  0  0
   22.2209  -13.8551  -19.8304 C   0  0  0  0  0  0  0  0  0  0  0  0
   20.8877  -14.3838  -19.2748 C   0  0  0  0  0  0  0  0  0  0  0  0
   20.8955  -13.6376  -17.9447 C   0  0  0  0  0  0  0  0  0  0  0  0
   21.3342  -12.2753  -18.3728 C   0  0  1  0  0  0  0  0  0  0  0  0
   21.9544  -11.4931  -17.2765 C   0  0  0  0  0  0  0  0  0  0  0  0
   21.2523  -11.2637  -16.2634 O   0  0  0  0  0  0  0  0  0  0  0  0
   27.0441  -12.3372  -16.1942 C   0  0  0  0  0  0  0  0  0  0  0  0
   25.5785  -12.0138  -16.0879 C   0  0  0  0  0  0  0  0  0  0  0  0
   25.2949  -10.5301  -16.1139 C   0  0  2  0  0  0  0  0  0  0  0  0
   26.0004   -9.8685  -14.9672 C   0  0  0  0  0  0  0  0  0  0  0  0
   23.8297  -10.2628  -16.1587 C   0  0  2  0  0  0  0  0  0  0  0  0
   23.2712  -10.9972  -17.3059 N   0  0  0  0  0  0  0  0  0  0  0  0
   23.5057   -8.8186  -16.2600 C   0  0  0  0  0  0  0  0  0  0  0  0
   23.7910   -8.2372  -17.3290 O   0  0  0  0  0  0  0  0  0  0  0  0
   22.9065   -8.0919  -15.2303 N   0  0  0  0  0  0  0  0  0  0  0  0
   22.5021   -6.6826  -15.3096 C   0  0  1  0  0  0  0  0  0  0  0  0
   21.3812   -6.4997  -16.2381 C   0  0  0  0  0  0  0  0  0  0  0  0
   20.8651   -5.1120  -16.3445 C   0  0  0  0  0  0  0  0  0  0  0  0
   19.7510   -4.9760  -17.3223 C   0  0  0  0  0  0  0  0  0  0  0  0
   19.2098   -3.8217  -17.4652 O   0  0  0  0  0  0  0  0  0  0  0  0
   22.4513   -6.0096  -14.0410 C   0  0  0  0  0  0  0  0  0  0  0  0
   22.2434   -6.5189  -12.9165 O   0  0  0  0  0  0  0  0  0  0  0  0
   19.2754   -6.0178  -18.0748 O   0  0  0  0  0  0  0  0  0  0  0  0
   22.6549   -4.6142  -14.0259 O   0  0  0  0  0  0  0  0  0  0  0  0
  1  5  1  0
  2  1  1  0
  3  2  1  0
  3  4  1  0
  4  5  1  0
  5  6  1  1
  6  7  2  0
  9 10  1  0
  9  8  1  0
 10 12  1  0
 10 11  1  1
 12 13  1  6
 12 14  1  0
 13  6  1  0
 14 15  2  0
 14 16  1  0
 16 17  1  0
 17 22  1  0
 17 18  1  1
 19 18  1  0
 19 20  1  0
 20 21  2  0
 22 23  2  0
 22 25  1  0
 24 20  1  0
M  END
$$$$
