PIE.pdb
     RDKit          3D

 25 25  0  0  1  0  0  0  0  0999 V2000
   28.6254  -20.5840  -15.2949 N   0  0  0  0  0  0  0  0  0  0  0  0
   28.6380  -19.9477  -16.6100 C   0  0  0  0  0  0  0  0  0  0  0  0
   28.3918  -18.4618  -16.2983 C   0  0  0  0  0  0  0  0  0  0  0  0
   27.2945  -18.6379  -15.2539 C   0  0  0  0  0  0  0  0  0  0  0  0
   27.8454  -19.7573  -14.4324 C   0  0  1  0  0  0  0  0  0  0  0  0
   26.7992  -20.5094  -13.6987 C   0  0  0  0  0  0  0  0  0  0  0  0
   26.3451  -21.5441  -14.2420 O   0  0  0  0  0  0  0  0  0  0  0  0
   26.6991  -20.5949   -8.3460 C   0  0  0  0  0  0  0  0  0  0  0  0
   26.4934  -21.0827   -9.7544 C   0  0  0  0  0  0  0  0  0  0  0  0
   25.1962  -20.6055  -10.3642 C   0  0  2  0  0  0  0  0  0  0  0  0
   24.0436  -21.2070   -9.6159 C   0  0  0  0  0  0  0  0  0  0  0  0
   25.1651  -20.8614  -11.8317 C   0  0  2  0  0  0  0  0  0  0  0  0
   26.2903  -20.1338  -12.4414 N   0  0  0  0  0  0  0  0  0  0  0  0
   23.8844  -20.4602  -12.4641 C   0  0  0  0  0  0  0  0  0  0  0  0
   23.5691  -19.2519  -12.4115 O   0  0  0  0  0  0  0  0  0  0  0  0
   23.0296  -21.3582  -13.1045 N   0  0  0  0  0  0  0  0  0  0  0  0
   21.7322  -21.0170  -13.7013 C   0  0  1  0  0  0  0  0  0  0  0  0
   21.3406  -21.9937  -14.7233 C   0  0  0  0  0  0  0  0  0  0  0  0
   20.0788  -21.6881  -15.4430 C   0  0  0  0  0  0  0  0  0  0  0  0
   19.7091  -22.7277  -16.4421 C   0  0  0  0  0  0  0  0  0  0  0  0
   20.4395  -23.7796  -16.5183 O   0  0  0  0  0  0  0  0  0  0  0  0
   20.7400  -20.5883  -12.7544 C   0  0  0  0  0  0  0  0  0  0  0  0
   20.4795  -21.0977  -11.6410 O   0  0  0  0  0  0  0  0  0  0  0  0
   18.6317  -22.6186  -17.2820 O   0  0  0  0  0  0  0  0  0  0  0  0
   19.9514  -19.4674  -13.0870 O   0  0  0  0  0  0  0  0  0  0  0  0
  1  5  1  0
  2  1  1  0
  3  2  1  0
  3  4  1  0
  4  5  1  0
  5  6  1  6
  6  7  2  0
  9 10  1  0
  9  8  1  0
 10 12  1  0
 10 11  1  1
 12 13  1  6
 12 14  1  0
 13  6  1  0
 14 15  2  0
 14 16  1  0
 16 17  1  0
 17 22  1  0
 17 18  1  1
 19 18  1  0
 19 20  1  0
 20 21  2  0
 22 23  2  0
 22 25  1  0
 24 20  1  0
M  END
$$$$
