PIE.pdb
     RDKit          3D

 25 25  0  0  1  0  0  0  0  0999 V2000
   21.9389   -9.3149  -19.8672 N   0  0  0  0  0  0  0  0  0  0  0  0
   22.4539  -10.4167  -20.6767 C   0  0  0  0  0  0  0  0  0  0  0  0
   21.1843  -11.1323  -21.1683 C   0  0  0  0  0  0  0  0  0  0  0  0
   20.3967  -11.0989  -19.8628 C   0  0  0  0  0  0  0  0  0  0  0  0
   20.6454   -9.6992  -19.4035 C   0  0  1  0  0  0  0  0  0  0  0  0
   20.4803   -9.5298  -17.9398 C   0  0  0  0  0  0  0  0  0  0  0  0
   19.3530   -9.7846  -17.4536 O   0  0  0  0  0  0  0  0  0  0  0  0
   23.9674  -11.2136  -14.4881 C   0  0  0  0  0  0  0  0  0  0  0  0
   22.7029  -10.7364  -15.1493 C   0  0  0  0  0  0  0  0  0  0  0  0
   22.3901   -9.2878  -14.8559 C   0  0  2  0  0  0  0  0  0  0  0  0
   22.2279   -9.1036  -13.3760 C   0  0  0  0  0  0  0  0  0  0  0  0
   21.2251   -8.8160  -15.6561 C   0  0  2  0  0  0  0  0  0  0  0  0
   21.5036   -9.1034  -17.0727 N   0  0  0  0  0  0  0  0  0  0  0  0
   20.9366   -7.3731  -15.4666 C   0  0  0  0  0  0  0  0  0  0  0  0
   21.9087   -6.5876  -15.4533 O   0  0  0  0  0  0  0  0  0  0  0  0
   19.6482   -6.8623  -15.3045 N   0  0  0  0  0  0  0  0  0  0  0  0
   19.2835   -5.4415  -15.3710 C   0  0  1  0  0  0  0  0  0  0  0  0
   20.0312   -4.7466  -16.4245 C   0  0  0  0  0  0  0  0  0  0  0  0
   19.6646   -3.3229  -16.6293 C   0  0  0  0  0  0  0  0  0  0  0  0
   20.4878   -2.6514  -17.6721 C   0  0  0  0  0  0  0  0  0  0  0  0
   21.5956   -2.1130  -17.3136 O   0  0  0  0  0  0  0  0  0  0  0  0
   17.8740   -5.1867  -15.2561 C   0  0  0  0  0  0  0  0  0  0  0  0
   16.9404   -6.0161  -15.3440 O   0  0  0  0  0  0  0  0  0  0  0  0
   20.1234   -2.5792  -18.9912 O   0  0  0  0  0  0  0  0  0  0  0  0
   17.4609   -3.8597  -15.0168 O   0  0  0  0  0  0  0  0  0  0  0  0
  1  5  1  0
  2  1  1  0
  3  2  1  0
  3  4  1  0
  4  5  1  0
  5  6  1  1
  6  7  2  0
  9 10  1  0
  9  8  1  0
 10 12  1  0
 10 11  1  1
 12 13  1  6
 12 14  1  0
 13  6  1  0
 14 15  2  0
 14 16  1  0
 16 17  1  0
 17 22  1  0
 17 18  1  6
 19 18  1  0
 19 20  1  0
 20 21  2  0
 22 23  2  0
 22 25  1  0
 24 20  1  0
M  END
$$$$
