KDP.pdb
     RDKit          3D

 25 25  0  0  1  0  0  0  0  0999 V2000
   19.2069  -15.0773  -18.9760 N   0  0  0  0  0  0  0  0  0  0  0  0
   18.4335  -14.3502  -17.9796 C   0  0  1  0  0  0  0  0  0  0  0  0
   18.5300  -14.9967  -16.6288 C   0  0  0  0  0  0  0  0  0  0  0  0
   17.8527  -16.2824  -16.4672 C   0  0  0  0  0  0  0  0  0  0  0  0
   17.9361  -17.0990  -15.2610 C   0  0  0  0  0  0  0  0  0  0  0  0
   17.1210  -18.3188  -15.0946 C   0  0  0  0  0  0  0  0  0  0  0  0
   17.5435  -18.8911  -13.7741 N   0  0  0  0  0  0  0  0  0  0  0  0
   19.0922  -12.9761  -17.9161 C   0  0  0  0  0  0  0  0  0  0  0  0
   20.3216  -12.8686  -18.1580 O   0  0  0  0  0  0  0  0  0  0  0  0
   18.3358  -11.8312  -17.5908 N   0  0  0  0  0  0  0  0  0  0  0  0
   18.9813  -10.5174  -17.5468 C   0  0  1  0  0  0  0  0  0  0  0  0
   17.8808   -9.5416  -17.9742 C   0  0  0  0  0  0  0  0  0  0  0  0
   18.3336   -8.1308  -17.9256 C   0  0  0  0  0  0  0  0  0  0  0  0
   17.9411   -7.2893  -17.1062 O   0  0  0  0  0  0  0  0  0  0  0  0
   19.4558  -10.1996  -16.1812 C   0  0  0  0  0  0  0  0  0  0  0  0
   18.7814  -10.7164  -15.2213 O   0  0  0  0  0  0  0  0  0  0  0  0
   19.2776   -7.6886  -18.8667 O   0  0  0  0  0  0  0  0  0  0  0  0
   20.5804   -9.3803  -15.9329 N   0  0  0  0  0  0  0  0  0  0  0  0
   21.3826   -8.7162  -16.9182 C   0  0  0  0  0  0  0  0  0  0  0  0
   22.7972   -8.9227  -16.3640 C   0  0  0  0  0  0  0  0  0  0  0  0
   22.6305   -9.2343  -14.8984 C   0  0  0  0  0  0  0  0  0  0  0  0
   21.1496   -9.0635  -14.6540 C   0  0  1  0  0  0  0  0  0  0  0  0
   20.9153   -7.6290  -14.2741 C   0  0  0  0  0  0  0  0  0  0  0  0
   20.3026   -6.7254  -15.1251 O   0  0  0  0  0  0  0  0  0  0  0  0
   21.2703   -7.1856  -13.1510 O   0  0  0  0  0  0  0  0  0  0  0  0
  2  1  1  6
  3  2  1  0
  4  3  1  0
  5  6  1  0
  5  4  1  0
  6  7  1  0
  8  9  2  0
  8  2  1  0
 10  8  1  0
 11 15  1  0
 11 10  1  0
 11 12  1  1
 13 12  1  0
 13 14  2  0
 15 18  1  0
 16 15  2  0
 17 13  1  0
 18 22  1  0
 19 18  1  0
 19 20  1  0
 20 21  1  0
 22 21  1  0
 23 24  1  0
 22 23  1  6
 25 23  2  0
M  END
$$$$
