KDP.pdb
     RDKit          3D

 25 25  0  0  1  0  0  0  0  0999 V2000
   19.4025  -12.5865  -17.8485 N   0  0  0  0  0  0  0  0  0  0  0  0
   20.5186  -11.6944  -17.5684 C   0  0  1  0  0  0  0  0  0  0  0  0
   21.1331  -11.1682  -18.8323 C   0  0  0  0  0  0  0  0  0  0  0  0
   21.4289  -12.1490  -19.8756 C   0  0  0  0  0  0  0  0  0  0  0  0
   22.6794  -12.8961  -19.9579 C   0  0  0  0  0  0  0  0  0  0  0  0
   22.9577  -13.8181  -21.0770 C   0  0  0  0  0  0  0  0  0  0  0  0
   24.2955  -14.4188  -20.7618 N   0  0  0  0  0  0  0  0  0  0  0  0
   19.8933  -10.5323  -16.8039 C   0  0  0  0  0  0  0  0  0  0  0  0
   18.9510   -9.8843  -17.3271 O   0  0  0  0  0  0  0  0  0  0  0  0
   20.3614  -10.1820  -15.5205 N   0  0  0  0  0  0  0  0  0  0  0  0
   19.8360   -8.9899  -14.8515 C   0  0  1  0  0  0  0  0  0  0  0  0
   19.3482   -9.5033  -13.4935 C   0  0  0  0  0  0  0  0  0  0  0  0
   18.7511   -8.4255  -12.6691 C   0  0  0  0  0  0  0  0  0  0  0  0
   17.8744   -7.6413  -13.0564 O   0  0  0  0  0  0  0  0  0  0  0  0
   20.8917   -7.9679  -14.6719 C   0  0  0  0  0  0  0  0  0  0  0  0
   22.0672   -8.4164  -14.4262 O   0  0  0  0  0  0  0  0  0  0  0  0
   19.1938   -8.2588  -11.3467 O   0  0  0  0  0  0  0  0  0  0  0  0
   20.6374   -6.5806  -14.7630 N   0  0  0  0  0  0  0  0  0  0  0  0
   19.3565   -5.9607  -14.9372 C   0  0  0  0  0  0  0  0  0  0  0  0
   19.6807   -4.8428  -15.9354 C   0  0  0  0  0  0  0  0  0  0  0  0
   21.1691   -4.6211  -15.8456 C   0  0  0  0  0  0  0  0  0  0  0  0
   21.6060   -5.5225  -14.7149 C   0  0  1  0  0  0  0  0  0  0  0  0
   21.5112   -4.7311  -13.4415 C   0  0  0  0  0  0  0  0  0  0  0  0
   22.4180   -3.7374  -13.1148 O   0  0  0  0  0  0  0  0  0  0  0  0
   20.5905   -4.9417  -12.6098 O   0  0  0  0  0  0  0  0  0  0  0  0
  2  1  1  6
  3  2  1  0
  4  3  1  0
  5  6  1  0
  5  4  1  0
  6  7  1  0
  8  9  2  0
  8  2  1  0
 10  8  1  0
 11 15  1  0
 11 10  1  0
 11 12  1  1
 13 12  1  0
 13 14  2  0
 15 18  1  0
 16 15  2  0
 17 13  1  0
 18 22  1  0
 19 18  1  0
 19 20  1  0
 20 21  1  0
 22 21  1  0
 23 24  1  0
 22 23  1  1
 25 23  2  0
M  END
$$$$
