KDP.pdb
     RDKit          3D

 25 25  0  0  1  0  0  0  0  0999 V2000
   18.8030  -13.7483  -16.8474 N   0  0  0  0  0  0  0  0  0  0  0  0
   18.9711  -12.5318  -17.6295 C   0  0  1  0  0  0  0  0  0  0  0  0
   17.8905  -12.3869  -18.6607 C   0  0  0  0  0  0  0  0  0  0  0  0
   17.3981  -13.6201  -19.2725 C   0  0  0  0  0  0  0  0  0  0  0  0
   16.0395  -14.1249  -19.1042 C   0  0  0  0  0  0  0  0  0  0  0  0
   15.5598  -15.3143  -19.8356 C   0  0  0  0  0  0  0  0  0  0  0  0
   14.1542  -15.5244  -19.3560 N   0  0  0  0  0  0  0  0  0  0  0  0
   18.8352  -11.4041  -16.6118 C   0  0  0  0  0  0  0  0  0  0  0  0
   17.7882  -11.3186  -15.9205 O   0  0  0  0  0  0  0  0  0  0  0  0
   19.8707  -10.4621  -16.4409 N   0  0  0  0  0  0  0  0  0  0  0  0
   19.6811   -9.3235  -15.5397 C   0  0  1  0  0  0  0  0  0  0  0  0
   20.9401   -9.3185  -14.6675 C   0  0  0  0  0  0  0  0  0  0  0  0
   20.8952   -8.2651  -13.6254 C   0  0  0  0  0  0  0  0  0  0  0  0
   19.9914   -7.4271  -13.5045 O   0  0  0  0  0  0  0  0  0  0  0  0
   19.5677   -8.0557  -16.2955 C   0  0  0  0  0  0  0  0  0  0  0  0
   20.3531   -7.9329  -17.3011 O   0  0  0  0  0  0  0  0  0  0  0  0
   21.9422   -8.1887  -12.6926 O   0  0  0  0  0  0  0  0  0  0  0  0
   18.6557   -7.0345  -15.9448 N   0  0  0  0  0  0  0  0  0  0  0  0
   17.6901   -7.0837  -14.8863 C   0  0  0  0  0  0  0  0  0  0  0  0
   16.4721   -6.4201  -15.5398 C   0  0  0  0  0  0  0  0  0  0  0  0
   17.0047   -5.6224  -16.7029 C   0  0  0  0  0  0  0  0  0  0  0  0
   18.5044   -5.7582  -16.5838 C   0  0  1  0  0  0  0  0  0  0  0  0
   18.9941   -4.6337  -15.7163 C   0  0  0  0  0  0  0  0  0  0  0  0
   19.5259   -4.8448  -14.4558 O   0  0  0  0  0  0  0  0  0  0  0  0
   18.9410   -3.4383  -16.1066 O   0  0  0  0  0  0  0  0  0  0  0  0
  2  1  1  1
  3  2  1  0
  4  3  1  0
  5  6  1  0
  5  4  1  0
  6  7  1  0
  8  9  2  0
  8  2  1  0
 10  8  1  0
 11 15  1  0
 11 10  1  0
 11 12  1  1
 13 12  1  0
 13 14  2  0
 15 18  1  0
 16 15  2  0
 17 13  1  0
 18 22  1  0
 19 18  1  0
 19 20  1  0
 20 21  1  0
 22 21  1  0
 23 24  1  0
 22 23  1  1
 25 23  2  0
M  END
$$$$
