KDP.pdb
     RDKit          3D

 25 25  0  0  1  0  0  0  0  0999 V2000
   17.6118  -22.3716  -13.1745 N   0  0  0  0  0  0  0  0  0  0  0  0
   18.8207  -23.1623  -12.9934 C   0  0  1  0  0  0  0  0  0  0  0  0
   18.5945  -24.6027  -13.3486 C   0  0  0  0  0  0  0  0  0  0  0  0
   19.7862  -25.4369  -13.4960 C   0  0  0  0  0  0  0  0  0  0  0  0
   20.1809  -26.4666  -12.5406 C   0  0  0  0  0  0  0  0  0  0  0  0
   21.3976  -27.2794  -12.7375 C   0  0  0  0  0  0  0  0  0  0  0  0
   21.4531  -28.1901  -11.5470 N   0  0  0  0  0  0  0  0  0  0  0  0
   19.8180  -22.5628  -13.9793 C   0  0  0  0  0  0  0  0  0  0  0  0
   19.6592  -22.7541  -15.2121 O   0  0  0  0  0  0  0  0  0  0  0  0
   20.9106  -21.7983  -13.5204 N   0  0  0  0  0  0  0  0  0  0  0  0
   21.9112  -21.3096  -14.4716 C   0  0  1  0  0  0  0  0  0  0  0  0
   22.0627  -19.8242  -14.1304 C   0  0  0  0  0  0  0  0  0  0  0  0
   22.8681  -19.0971  -15.1404 C   0  0  0  0  0  0  0  0  0  0  0  0
   23.5040  -19.6330  -16.0581 O   0  0  0  0  0  0  0  0  0  0  0  0
   23.2010  -22.0159  -14.3018 C   0  0  0  0  0  0  0  0  0  0  0  0
   23.5275  -22.3000  -13.0952 O   0  0  0  0  0  0  0  0  0  0  0  0
   22.9324  -17.6956  -15.0758 O   0  0  0  0  0  0  0  0  0  0  0  0
   24.0324  -22.3636  -15.3906 N   0  0  0  0  0  0  0  0  0  0  0  0
   23.7636  -22.1193  -16.7774 C   0  0  0  0  0  0  0  0  0  0  0  0
   24.2448  -23.4227  -17.4260 C   0  0  0  0  0  0  0  0  0  0  0  0
   25.1821  -24.0621  -16.4334 C   0  0  0  0  0  0  0  0  0  0  0  0
   25.2967  -23.0400  -15.3271 C   0  0  1  0  0  0  0  0  0  0  0  0
   26.4402  -22.1276  -15.6693 C   0  0  0  0  0  0  0  0  0  0  0  0
   27.7630  -22.5190  -15.5550 O   0  0  0  0  0  0  0  0  0  0  0  0
   26.2385  -20.9553  -16.0803 O   0  0  0  0  0  0  0  0  0  0  0  0
  2  1  1  6
  3  2  1  0
  4  3  1  0
  5  6  1  0
  5  4  1  0
  6  7  1  0
  8  9  2  0
  8  2  1  0
 10  8  1  0
 11 15  1  0
 11 10  1  0
 11 12  1  1
 13 12  1  0
 13 14  2  0
 15 18  1  0
 16 15  2  0
 17 13  1  0
 18 22  1  0
 19 18  1  0
 19 20  1  0
 20 21  1  0
 22 21  1  0
 23 24  1  0
 22 23  1  6
 25 23  2  0
M  END
$$$$
