KDP.pdb
     RDKit          3D

 25 25  0  0  1  0  0  0  0  0999 V2000
   14.5858  -22.2535   -1.9729 N   0  0  0  0  0  0  0  0  0  0  0  0
   13.8459  -22.2066   -0.7198 C   0  0  1  0  0  0  0  0  0  0  0  0
   13.0785  -23.4748   -0.4861 C   0  0  0  0  0  0  0  0  0  0  0  0
   12.2925  -23.9824   -1.6096 C   0  0  0  0  0  0  0  0  0  0  0  0
   12.7086  -25.0961   -2.4553 C   0  0  0  0  0  0  0  0  0  0  0  0
   11.7976  -25.6933   -3.4520 C   0  0  0  0  0  0  0  0  0  0  0  0
   12.5703  -26.8299   -4.0526 N   0  0  0  0  0  0  0  0  0  0  0  0
   14.9228  -22.0779    0.3525 C   0  0  0  0  0  0  0  0  0  0  0  0
   16.0955  -22.4545    0.0987 O   0  0  0  0  0  0  0  0  0  0  0  0
   14.6143  -21.5412    1.6196 N   0  0  0  0  0  0  0  0  0  0  0  0
   15.6717  -21.3723    2.6186 C   0  0  1  0  0  0  0  0  0  0  0  0
   15.0291  -20.5056    3.7057 C   0  0  0  0  0  0  0  0  0  0  0  0
   15.7239  -19.2062    3.8692 C   0  0  0  0  0  0  0  0  0  0  0  0
   16.9184  -19.0049    3.6117 O   0  0  0  0  0  0  0  0  0  0  0  0
   16.0943  -22.6767    3.1764 C   0  0  0  0  0  0  0  0  0  0  0  0
   15.2412  -23.6285    3.0788 O   0  0  0  0  0  0  0  0  0  0  0  0
   14.9977  -18.1046    4.3501 O   0  0  0  0  0  0  0  0  0  0  0  0
   17.3556  -22.8779    3.7815 N   0  0  0  0  0  0  0  0  0  0  0  0
   18.4353  -21.9359    3.8299 C   0  0  0  0  0  0  0  0  0  0  0  0
   19.6502  -22.8359    3.5749 C   0  0  0  0  0  0  0  0  0  0  0  0
   19.2068  -24.2392    3.9020 C   0  0  0  0  0  0  0  0  0  0  0  0
   17.8105  -24.0633    4.4508 C   0  0  1  0  0  0  0  0  0  0  0  0
   17.9286  -23.8608    5.9347 C   0  0  0  0  0  0  0  0  0  0  0  0
   17.7502  -22.6252    6.5327 O   0  0  0  0  0  0  0  0  0  0  0  0
   18.1970  -24.8198    6.7043 O   0  0  0  0  0  0  0  0  0  0  0  0
  2  1  1  6
  3  2  1  0
  4  3  1  0
  5  6  1  0
  5  4  1  0
  6  7  1  0
  8  9  2  0
  8  2  1  0
 10  8  1  0
 11 15  1  0
 11 10  1  0
 11 12  1  1
 13 12  1  0
 13 14  2  0
 15 18  1  0
 16 15  2  0
 17 13  1  0
 18 22  1  0
 19 18  1  0
 19 20  1  0
 20 21  1  0
 22 21  1  0
 23 24  1  0
 22 23  1  1
 25 23  2  0
M  END
$$$$
