KDP.pdb
     RDKit          3D

 25 25  0  0  1  0  0  0  0  0999 V2000
   18.5798  -15.1684  -17.4393 N   0  0  0  0  0  0  0  0  0  0  0  0
   17.8031  -14.1610  -16.7311 C   0  0  1  0  0  0  0  0  0  0  0  0
   17.6232  -14.5209  -15.2854 C   0  0  0  0  0  0  0  0  0  0  0  0
   16.5902  -15.5094  -14.9791 C   0  0  0  0  0  0  0  0  0  0  0  0
   15.3009  -15.5750  -15.6589 C   0  0  0  0  0  0  0  0  0  0  0  0
   14.2717  -16.5606  -15.2725 C   0  0  0  0  0  0  0  0  0  0  0  0
   13.1242  -16.3097  -16.2052 N   0  0  0  0  0  0  0  0  0  0  0  0
   18.6495  -12.8955  -16.8220 C   0  0  0  0  0  0  0  0  0  0  0  0
   19.8897  -12.9664  -16.6261 O   0  0  0  0  0  0  0  0  0  0  0  0
   18.0540  -11.6533  -17.1236 N   0  0  0  0  0  0  0  0  0  0  0  0
   18.8849  -10.4522  -17.2330 C   0  0  1  0  0  0  0  0  0  0  0  0
   17.9698   -9.4193  -17.8974 C   0  0  0  0  0  0  0  0  0  0  0  0
   18.6610   -8.1297  -18.1352 C   0  0  0  0  0  0  0  0  0  0  0  0
   19.4541   -7.9118  -19.0611 O   0  0  0  0  0  0  0  0  0  0  0  0
   19.3202   -9.9793  -15.8996 C   0  0  0  0  0  0  0  0  0  0  0  0
   18.5083  -10.2066  -14.9339 O   0  0  0  0  0  0  0  0  0  0  0  0
   18.4169   -7.0579  -17.2611 O   0  0  0  0  0  0  0  0  0  0  0  0
   20.5508   -9.3176  -15.6863 N   0  0  0  0  0  0  0  0  0  0  0  0
   21.5318   -9.0047  -16.6838 C   0  0  0  0  0  0  0  0  0  0  0  0
   22.8401   -9.3183  -15.9482 C   0  0  0  0  0  0  0  0  0  0  0  0
   22.5086   -9.2952  -14.4777 C   0  0  0  0  0  0  0  0  0  0  0  0
   21.0679   -8.8433  -14.4343 C   0  0  1  0  0  0  0  0  0  0  0  0
   21.0654   -7.3430  -14.3571 C   0  0  0  0  0  0  0  0  0  0  0  0
   21.4164   -6.6574  -13.2070 O   0  0  0  0  0  0  0  0  0  0  0  0
   20.7407   -6.6396  -15.3490 O   0  0  0  0  0  0  0  0  0  0  0  0
  2  1  1  6
  3  2  1  0
  4  3  1  0
  5  6  1  0
  5  4  1  0
  6  7  1  0
  8  9  2  0
  8  2  1  0
 10  8  1  0
 11 15  1  0
 11 10  1  0
 11 12  1  1
 13 12  1  0
 13 14  2  0
 15 18  1  0
 16 15  2  0
 17 13  1  0
 18 22  1  0
 19 18  1  0
 19 20  1  0
 20 21  1  0
 22 21  1  0
 23 24  1  0
 22 23  1  6
 25 23  2  0
M  END
$$$$
