KDP.pdb
     RDKit          3D

 25 25  0  0  1  0  0  0  0  0999 V2000
   18.8433  -13.3465  -16.4876 N   0  0  0  0  0  0  0  0  0  0  0  0
   20.0730  -12.5798  -16.6286 C   0  0  1  0  0  0  0  0  0  0  0  0
   20.6585  -12.7266  -18.0025 C   0  0  0  0  0  0  0  0  0  0  0  0
   20.5125  -14.0336  -18.6414 C   0  0  0  0  0  0  0  0  0  0  0  0
   21.1204  -14.3858  -19.9202 C   0  0  0  0  0  0  0  0  0  0  0  0
   20.9362  -15.7210  -20.5229 C   0  0  0  0  0  0  0  0  0  0  0  0
   21.7035  -15.6748  -21.8109 N   0  0  0  0  0  0  0  0  0  0  0  0
   19.6419  -11.1305  -16.4293 C   0  0  0  0  0  0  0  0  0  0  0  0
   18.6943  -10.6680  -17.1147 O   0  0  0  0  0  0  0  0  0  0  0  0
   20.2945  -10.3102  -15.4859 N   0  0  0  0  0  0  0  0  0  0  0  0
   19.8732   -8.9184  -15.3126 C   0  0  1  0  0  0  0  0  0  0  0  0
   18.9652   -8.9495  -14.0796 C   0  0  0  0  0  0  0  0  0  0  0  0
   18.4981   -7.5964  -13.6940 C   0  0  0  0  0  0  0  0  0  0  0  0
   17.5874   -6.9746  -14.2577 O   0  0  0  0  0  0  0  0  0  0  0  0
   21.0359   -8.0323  -15.0795 C   0  0  0  0  0  0  0  0  0  0  0  0
   22.0203   -8.5572  -14.4480 O   0  0  0  0  0  0  0  0  0  0  0  0
   19.1163   -6.9480  -12.6125 O   0  0  0  0  0  0  0  0  0  0  0  0
   21.0754   -6.6897  -15.5192 N   0  0  0  0  0  0  0  0  0  0  0  0
   20.0215   -5.9819  -16.1853 C   0  0  0  0  0  0  0  0  0  0  0  0
   20.7951   -5.1909  -17.2469 C   0  0  0  0  0  0  0  0  0  0  0  0
   22.2234   -5.1349  -16.7678 C   0  0  0  0  0  0  0  0  0  0  0  0
   22.1766   -5.7768  -15.4012 C   0  0  1  0  0  0  0  0  0  0  0  0
   21.9023   -4.6914  -14.3995 C   0  0  0  0  0  0  0  0  0  0  0  0
   20.6962   -4.5871  -13.7283 O   0  0  0  0  0  0  0  0  0  0  0  0
   22.7703   -3.8222  -14.1257 O   0  0  0  0  0  0  0  0  0  0  0  0
  2  1  1  6
  3  2  1  0
  4  3  1  0
  5  6  1  0
  5  4  1  0
  6  7  1  0
  8  9  2  0
  8  2  1  0
 10  8  1  0
 11 15  1  0
 11 10  1  0
 11 12  1  1
 13 12  1  0
 13 14  2  0
 15 18  1  0
 16 15  2  0
 17 13  1  0
 18 22  1  0
 19 18  1  0
 19 20  1  0
 20 21  1  0
 22 21  1  0
 23 24  1  0
 22 23  1  1
 25 23  2  0
M  END
$$$$
