KDP.pdb
     RDKit          3D

 25 25  0  0  1  0  0  0  0  0999 V2000
   24.6671  -26.0444  -15.4083 N   0  0  0  0  0  0  0  0  0  0  0  0
   25.5771  -24.9092  -15.4613 C   0  0  1  0  0  0  0  0  0  0  0  0
   26.0165  -24.6214  -16.8670 C   0  0  0  0  0  0  0  0  0  0  0  0
   27.2086  -25.3245  -17.3385 C   0  0  0  0  0  0  0  0  0  0  0  0
   27.5986  -26.6561  -16.8874 C   0  0  0  0  0  0  0  0  0  0  0  0
   28.8272  -27.3108  -17.3792 C   0  0  0  0  0  0  0  0  0  0  0  0
   28.9887  -28.5293  -16.5197 N   0  0  0  0  0  0  0  0  0  0  0  0
   24.7481  -23.7338  -14.9541 C   0  0  0  0  0  0  0  0  0  0  0  0
   23.5312  -23.6576  -15.2620 O   0  0  0  0  0  0  0  0  0  0  0  0
   25.3336  -22.7378  -14.1454 N   0  0  0  0  0  0  0  0  0  0  0  0
   24.5641  -21.5458  -13.7825 C   0  0  1  0  0  0  0  0  0  0  0  0
   25.3687  -20.9088  -12.6455 C   0  0  0  0  0  0  0  0  0  0  0  0
   25.1133  -21.5667  -11.3419 C   0  0  0  0  0  0  0  0  0  0  0  0
   24.2444  -22.4260  -11.1408 O   0  0  0  0  0  0  0  0  0  0  0  0
   24.4519  -20.6125  -14.9259 C   0  0  0  0  0  0  0  0  0  0  0  0
   25.4890  -20.5178  -15.6734 O   0  0  0  0  0  0  0  0  0  0  0  0
   25.9003  -21.2082  -10.2354 O   0  0  0  0  0  0  0  0  0  0  0  0
   23.2821  -19.8652  -15.1921 N   0  0  0  0  0  0  0  0  0  0  0  0
   22.1110  -19.7971  -14.3680 C   0  0  0  0  0  0  0  0  0  0  0  0
   20.9885  -19.8394  -15.4116 C   0  0  0  0  0  0  0  0  0  0  0  0
   21.6170  -19.4267  -16.7183 C   0  0  0  0  0  0  0  0  0  0  0  0
   23.0282  -19.0428  -16.3406 C   0  0  1  0  0  0  0  0  0  0  0  0
   23.0234  -17.5808  -15.9951 C   0  0  0  0  0  0  0  0  0  0  0  0
   22.9348  -16.5899  -16.9576 O   0  0  0  0  0  0  0  0  0  0  0  0
   23.0997  -17.1928  -14.8002 O   0  0  0  0  0  0  0  0  0  0  0  0
  2  1  1  6
  3  2  1  0
  4  3  1  0
  5  6  1  0
  5  4  1  0
  6  7  1  0
  8  9  2  0
  8  2  1  0
 10  8  1  0
 11 15  1  0
 11 10  1  0
 11 12  1  1
 13 12  1  0
 13 14  2  0
 15 18  1  0
 16 15  2  0
 17 13  1  0
 18 22  1  0
 19 18  1  0
 19 20  1  0
 20 21  1  0
 22 21  1  0
 23 24  1  0
 22 23  1  1
 25 23  2  0
M  END
$$$$
