KDP.pdb
     RDKit          3D

 25 25  0  0  1  0  0  0  0  0999 V2000
   20.7949  -11.7812  -16.1634 N   0  0  0  0  0  0  0  0  0  0  0  0
   20.4321  -10.7535  -17.1287 C   0  0  1  0  0  0  0  0  0  0  0  0
   19.1051  -11.0420  -17.7672 C   0  0  0  0  0  0  0  0  0  0  0  0
   19.0374  -12.2143  -18.6383 C   0  0  0  0  0  0  0  0  0  0  0  0
   18.5236  -13.5127  -18.2154 C   0  0  0  0  0  0  0  0  0  0  0  0
   18.3610  -14.6284  -19.1686 C   0  0  0  0  0  0  0  0  0  0  0  0
   17.7416  -15.7357  -18.3686 N   0  0  0  0  0  0  0  0  0  0  0  0
   20.3131   -9.4788  -16.2998 C   0  0  0  0  0  0  0  0  0  0  0  0
   19.4083   -9.3891  -15.4310 O   0  0  0  0  0  0  0  0  0  0  0  0
   21.2068   -8.4063  -16.4991 N   0  0  0  0  0  0  0  0  0  0  0  0
   20.9995   -7.1413  -15.7908 C   0  0  1  0  0  0  0  0  0  0  0  0
   22.0104   -7.1822  -14.6411 C   0  0  0  0  0  0  0  0  0  0  0  0
   21.9620   -5.9562  -13.8091 C   0  0  0  0  0  0  0  0  0  0  0  0
   22.7573   -5.0108  -13.8946 O   0  0  0  0  0  0  0  0  0  0  0  0
   21.2641   -5.9836  -16.6745 C   0  0  0  0  0  0  0  0  0  0  0  0
   22.2524   -6.1109  -17.4809 O   0  0  0  0  0  0  0  0  0  0  0  0
   20.9493   -5.8309  -12.8442 O   0  0  0  0  0  0  0  0  0  0  0  0
   20.4857   -4.8043  -16.6447 N   0  0  0  0  0  0  0  0  0  0  0  0
   19.3461   -4.5586  -15.8101 C   0  0  0  0  0  0  0  0  0  0  0  0
   18.3979   -3.8380  -16.7758 C   0  0  0  0  0  0  0  0  0  0  0  0
   19.2618   -3.3065  -17.8911 C   0  0  0  0  0  0  0  0  0  0  0  0
   20.6697   -3.6303  -17.4496 C   0  0  1  0  0  0  0  0  0  0  0  0
   21.1702   -2.4672  -16.6411 C   0  0  0  0  0  0  0  0  0  0  0  0
   21.5573   -1.2711  -17.2206 O   0  0  0  0  0  0  0  0  0  0  0  0
   21.2578   -2.5340  -15.3874 O   0  0  0  0  0  0  0  0  0  0  0  0
  2  1  1  1
  3  2  1  0
  4  3  1  0
  5  6  1  0
  5  4  1  0
  6  7  1  0
  8  9  2  0
  8  2  1  0
 10  8  1  0
 11 15  1  0
 11 10  1  0
 11 12  1  1
 13 12  1  0
 13 14  2  0
 15 18  1  0
 16 15  2  0
 17 13  1  0
 18 22  1  0
 19 18  1  0
 19 20  1  0
 20 21  1  0
 22 21  1  0
 23 24  1  0
 22 23  1  1
 25 23  2  0
M  END
$$$$
