KDP.pdb
     RDKit          3D

 25 25  0  0  1  0  0  0  0  0999 V2000
   16.5225  -12.3175  -16.1056 N   0  0  0  0  0  0  0  0  0  0  0  0
   17.8103  -12.0662  -15.4747 C   0  0  1  0  0  0  0  0  0  0  0  0
   18.9446  -12.2871  -16.4322 C   0  0  0  0  0  0  0  0  0  0  0  0
   18.5858  -12.5408  -17.8267 C   0  0  0  0  0  0  0  0  0  0  0  0
   19.2053  -13.5734  -18.6504 C   0  0  0  0  0  0  0  0  0  0  0  0
   18.8324  -13.7607  -20.0667 C   0  0  0  0  0  0  0  0  0  0  0  0
   19.7652  -14.8183  -20.5774 N   0  0  0  0  0  0  0  0  0  0  0  0
   17.7660  -10.5896  -15.0958 C   0  0  0  0  0  0  0  0  0  0  0  0
   17.3522   -9.7488  -15.9344 O   0  0  0  0  0  0  0  0  0  0  0  0
   18.1827  -10.1631  -13.8178 N   0  0  0  0  0  0  0  0  0  0  0  0
   18.2166   -8.7340  -13.4996 C   0  0  1  0  0  0  0  0  0  0  0  0
   17.8348   -8.6680  -12.0178 C   0  0  0  0  0  0  0  0  0  0  0  0
   17.9259   -7.2908  -11.4770 C   0  0  0  0  0  0  0  0  0  0  0  0
   18.7978   -6.8948  -10.6917 O   0  0  0  0  0  0  0  0  0  0  0  0
   19.5684   -8.1700  -13.7135 C   0  0  0  0  0  0  0  0  0  0  0  0
   20.5480   -8.9615  -13.4746 O   0  0  0  0  0  0  0  0  0  0  0  0
   16.9651   -6.3438  -11.8675 O   0  0  0  0  0  0  0  0  0  0  0  0
   19.7837   -6.8443  -14.1538 N   0  0  0  0  0  0  0  0  0  0  0  0
   18.7725   -5.8736  -14.4547 C   0  0  0  0  0  0  0  0  0  0  0  0
   19.3397   -5.2078  -15.7141 C   0  0  0  0  0  0  0  0  0  0  0  0
   20.8171   -5.5081  -15.7162 C   0  0  0  0  0  0  0  0  0  0  0  0
   21.0491   -6.2137  -14.4009 C   0  0  1  0  0  0  0  0  0  0  0  0
   21.3646   -5.1646  -13.3729 C   0  0  0  0  0  0  0  0  0  0  0  0
   20.4773   -4.8175  -12.3687 O   0  0  0  0  0  0  0  0  0  0  0  0
   22.4638   -4.5516  -13.3829 O   0  0  0  0  0  0  0  0  0  0  0  0
  2  1  1  6
  3  2  1  0
  4  3  1  0
  5  6  1  0
  5  4  1  0
  6  7  1  0
  8  9  2  0
  8  2  1  0
 10  8  1  0
 11 15  1  0
 11 10  1  0
 11 12  1  1
 13 12  1  0
 13 14  2  0
 15 18  1  0
 16 15  2  0
 17 13  1  0
 18 22  1  0
 19 18  1  0
 19 20  1  0
 20 21  1  0
 22 21  1  0
 23 24  1  0
 22 23  1  1
 25 23  2  0
M  END
$$$$
