LLY.pdb
     RDKit          3D

 29 29  0  0  1  0  0  0  0  0999 V2000
    8.0915  -14.6787   18.4245 C   0  0  0  0  0  0  0  0  0  0  0  0
    7.4844  -13.6475   19.3942 C   0  0  2  0  0  0  0  0  0  0  0  0
    7.4014  -12.3523   18.6631 C   0  0  0  0  0  0  0  0  0  0  0  0
    8.3410  -13.6567   20.6007 C   0  0  0  0  0  0  0  0  0  0  0  0
    8.3935  -14.9223   21.3894 C   0  0  2  0  0  0  0  0  0  0  0  0
    6.9947  -15.3976   21.4333 N   0  0  0  0  0  0  0  0  0  0  0  0
    8.8405  -14.7682   22.7889 C   0  0  0  0  0  0  0  0  0  0  0  0
   10.0488  -14.4420   23.0130 O   0  0  0  0  0  0  0  0  0  0  0  0
    7.9845  -11.7906   25.9548 C   0  0  0  0  0  0  0  0  0  0  0  0
    6.8789  -12.8536   25.7372 C   0  0  2  0  0  0  0  0  0  0  0  0
    5.7193  -12.3891   26.5471 C   0  0  0  0  0  0  0  0  0  0  0  0
    7.4525  -14.1562   26.1065 C   0  0  0  0  0  0  0  0  0  0  0  0
    8.5751  -14.7069   25.3024 C   0  0  2  0  0  0  0  0  0  0  0  0
    8.0354  -14.9511   23.9342 N   0  0  0  0  0  0  0  0  0  0  0  0
    9.0267  -16.0019   25.8709 C   0  0  0  0  0  0  0  0  0  0  0  0
    8.2887  -16.6230   26.7192 O   0  0  0  0  0  0  0  0  0  0  0  0
    5.0508  -20.2889   24.1099 O   0  0  0  0  0  0  0  0  0  0  0  0
    6.3755  -19.9709   24.3719 C   0  0  0  0  0  0  0  0  0  0  0  0
    7.0024  -20.4242   25.5327 C   0  0  0  0  0  0  0  0  0  0  0  0
    8.3169  -20.1143   25.8025 C   0  0  0  0  0  0  0  0  0  0  0  0
    9.0101  -19.3363   24.8899 C   0  0  0  0  0  0  0  0  0  0  0  0
   10.4044  -18.9722   25.1252 C   0  0  0  0  0  0  0  0  0  0  0  0
   10.6118  -17.9339   26.2069 C   0  0  2  0  0  0  0  0  0  0  0  0
   10.2328  -16.6627   25.5676 N   0  0  0  0  0  0  0  0  0  0  0  0
   12.0210  -17.9296   26.6063 C   0  0  0  0  0  0  0  0  0  0  0  0
   12.5920  -18.8503   27.4631 O   0  0  0  0  0  0  0  0  0  0  0  0
    8.4011  -18.8766   23.7289 C   0  0  0  0  0  0  0  0  0  0  0  0
    7.0892  -19.2020   23.4872 C   0  0  0  0  0  0  0  0  0  0  0  0
   12.7839  -17.0233   26.1424 O   0  0  0  0  0  0  0  0  0  0  0  0
  2  4  1  0
  2  1  1  6
  3  2  1  0
  5  6  1  1
  5  4  1  0
  7  5  1  0
  8  7  2  0
 10  9  1  1
 10 12  1  0
 11 10  1  0
 13 12  1  1
 13 15  1  0
 13 14  1  0
 14  7  1  0
 15 24  1  0
 16 15  2  0
 17 18  1  0
 18 28  2  0
 19 20  2  0
 19 18  1  0
 20 21  1  0
 21 22  1  0
 21 27  2  0
 23 22  1  6
 23 25  1  0
 24 23  1  0
 25 29  2  0
 25 26  1  0
 28 27  1  0
M  END
$$$$
