LLY.pdb
     RDKit          3D

 29 29  0  0  1  0  0  0  0  0999 V2000
    8.3537  -14.4483   18.3638 C   0  0  0  0  0  0  0  0  0  0  0  0
    7.9367  -13.3514   19.3613 C   0  0  2  0  0  0  0  0  0  0  0  0
    8.1349  -12.0408   18.6817 C   0  0  0  0  0  0  0  0  0  0  0  0
    8.7389  -13.5749   20.5845 C   0  0  0  0  0  0  0  0  0  0  0  0
    8.5002  -14.8432   21.3334 C   0  0  2  0  0  0  0  0  0  0  0  0
    7.0451  -15.0780   21.2236 N   0  0  0  0  0  0  0  0  0  0  0  0
    8.8204  -14.7876   22.7744 C   0  0  0  0  0  0  0  0  0  0  0  0
   10.0410  -14.7641   23.1298 O   0  0  0  0  0  0  0  0  0  0  0  0
    8.1210  -11.8323   26.4363 C   0  0  0  0  0  0  0  0  0  0  0  0
    6.9465  -12.6099   25.7920 C   0  0  2  0  0  0  0  0  0  0  0  0
    5.7157  -12.0645   26.4274 C   0  0  0  0  0  0  0  0  0  0  0  0
    7.2090  -14.0415   26.0011 C   0  0  0  0  0  0  0  0  0  0  0  0
    8.3147  -14.6920   25.2497 C   0  0  2  0  0  0  0  0  0  0  0  0
    7.8782  -14.7553   23.8255 N   0  0  0  0  0  0  0  0  0  0  0  0
    8.5245  -16.0768   25.7420 C   0  0  0  0  0  0  0  0  0  0  0  0
    7.8835  -17.0527   25.2067 O   0  0  0  0  0  0  0  0  0  0  0  0
   13.3469  -22.9572   25.2283 O   0  0  0  0  0  0  0  0  0  0  0  0
   12.7358  -21.7168   25.3415 C   0  0  0  0  0  0  0  0  0  0  0  0
   13.4397  -20.6163   25.8308 C   0  0  0  0  0  0  0  0  0  0  0  0
   12.8427  -19.3806   25.9474 C   0  0  0  0  0  0  0  0  0  0  0  0
   11.5175  -19.2516   25.5657 C   0  0  0  0  0  0  0  0  0  0  0  0
   10.8310  -17.9673   25.6714 C   0  0  0  0  0  0  0  0  0  0  0  0
    9.9344  -17.8285   26.8831 C   0  0  2  0  0  0  0  0  0  0  0  0
    9.3941  -16.4626   26.7805 N   0  0  0  0  0  0  0  0  0  0  0  0
   10.7369  -17.9939   28.0972 C   0  0  0  0  0  0  0  0  0  0  0  0
   11.4152  -16.9703   28.7296 O   0  0  0  0  0  0  0  0  0  0  0  0
   10.8019  -20.3373   25.0763 C   0  0  0  0  0  0  0  0  0  0  0  0
   11.4241  -21.5568   24.9715 C   0  0  0  0  0  0  0  0  0  0  0  0
   10.8261  -19.1519   28.6167 O   0  0  0  0  0  0  0  0  0  0  0  0
  2  4  1  0
  2  1  1  6
  3  2  1  0
  5  6  1  1
  5  4  1  0
  7  5  1  0
  8  7  2  0
 10  9  1  1
 10 12  1  0
 11 10  1  0
 13 12  1  1
 13 15  1  0
 13 14  1  0
 14  7  1  0
 15 24  1  0
 16 15  2  0
 17 18  1  0
 18 28  2  0
 19 20  2  0
 19 18  1  0
 20 21  1  0
 21 22  1  0
 21 27  2  0
 23 22  1  6
 23 25  1  0
 24 23  1  0
 25 29  2  0
 25 26  1  0
 28 27  1  0
M  END
$$$$
