LLY.pdb
     RDKit          3D

 29 29  0  0  1  0  0  0  0  0999 V2000
    9.8504  -21.0149   18.5797 C   0  0  0  0  0  0  0  0  0  0  0  0
    9.0347  -19.8157   18.0611 C   0  0  2  0  0  0  0  0  0  0  0  0
    9.0461  -19.8869   16.5733 C   0  0  0  0  0  0  0  0  0  0  0  0
    9.6471  -18.6075   18.6567 C   0  0  0  0  0  0  0  0  0  0  0  0
    9.6931  -18.5307   20.1461 C   0  0  2  0  0  0  0  0  0  0  0  0
    8.3339  -18.9103   20.5855 N   0  0  0  0  0  0  0  0  0  0  0  0
    9.9634  -17.1858   20.6943 C   0  0  0  0  0  0  0  0  0  0  0  0
   11.1507  -16.7331   20.6476 O   0  0  0  0  0  0  0  0  0  0  0  0
    8.6518  -13.0684   19.6118 C   0  0  0  0  0  0  0  0  0  0  0  0
    7.6307  -13.8966   20.4308 C   0  0  2  0  0  0  0  0  0  0  0  0
    6.3678  -13.1089   20.4000 C   0  0  0  0  0  0  0  0  0  0  0  0
    8.2240  -14.1262   21.7565 C   0  0  0  0  0  0  0  0  0  0  0  0
    9.4048  -15.0215   21.8757 C   0  0  2  0  0  0  0  0  0  0  0  0
    9.0063  -16.3288   21.2799 N   0  0  0  0  0  0  0  0  0  0  0  0
    9.7434  -15.2368   23.3051 C   0  0  0  0  0  0  0  0  0  0  0  0
   10.2720  -14.2873   23.9899 O   0  0  0  0  0  0  0  0  0  0  0  0
    6.8524  -11.0379   27.5797 O   0  0  0  0  0  0  0  0  0  0  0  0
    7.1869  -12.3216   27.1735 C   0  0  0  0  0  0  0  0  0  0  0  0
    8.5199  -12.6848   26.9809 C   0  0  0  0  0  0  0  0  0  0  0  0
    8.8629  -13.9563   26.5779 C   0  0  0  0  0  0  0  0  0  0  0  0
    7.8486  -14.8753   26.3656 C   0  0  0  0  0  0  0  0  0  0  0  0
    8.1519  -16.2365   25.9332 C   0  0  0  0  0  0  0  0  0  0  0  0
    9.5869  -16.4581   25.5056 C   0  0  2  0  0  0  0  0  0  0  0  0
    9.5369  -16.4238   24.0344 N   0  0  0  0  0  0  0  0  0  0  0  0
   10.0384  -17.7636   25.9927 C   0  0  0  0  0  0  0  0  0  0  0  0
   10.3241  -18.8434   25.1801 O   0  0  0  0  0  0  0  0  0  0  0  0
    6.5159  -14.5303   26.5528 C   0  0  0  0  0  0  0  0  0  0  0  0
    6.2048  -13.2549   26.9551 C   0  0  0  0  0  0  0  0  0  0  0  0
   10.1815  -17.9312   27.2457 O   0  0  0  0  0  0  0  0  0  0  0  0
  2  4  1  0
  2  1  1  1
  3  2  1  0
  5  6  1  1
  5  4  1  0
  7  5  1  0
  8  7  2  0
 10  9  1  6
 10 12  1  0
 11 10  1  0
 13 12  1  1
 13 15  1  0
 13 14  1  0
 14  7  1  0
 15 24  1  0
 16 15  2  0
 17 18  1  0
 18 28  2  0
 19 20  2  0
 19 18  1  0
 20 21  1  0
 21 22  1  0
 21 27  2  0
 23 22  1  1
 23 25  1  0
 24 23  1  0
 25 29  2  0
 25 26  1  0
 28 27  1  0
M  END
$$$$
