LLY.pdb
     RDKit          3D

 29 29  0  0  1  0  0  0  0  0999 V2000
    7.8960  -15.0286   17.2241 C   0  0  0  0  0  0  0  0  0  0  0  0
    6.9709  -14.1391   18.0758 C   0  0  2  0  0  0  0  0  0  0  0  0
    6.5812  -12.9751   17.2321 C   0  0  0  0  0  0  0  0  0  0  0  0
    7.7212  -13.8218   19.3111 C   0  0  0  0  0  0  0  0  0  0  0  0
    8.0808  -14.9634   20.2021 C   0  0  2  0  0  0  0  0  0  0  0  0
    6.8003  -15.6517   20.4688 N   0  0  0  0  0  0  0  0  0  0  0  0
    8.6450  -14.5796   21.5123 C   0  0  0  0  0  0  0  0  0  0  0  0
    9.7415  -13.9366   21.5419 O   0  0  0  0  0  0  0  0  0  0  0  0
    7.7416  -11.7830   25.2571 C   0  0  0  0  0  0  0  0  0  0  0  0
    6.7854  -12.9656   24.9628 C   0  0  2  0  0  0  0  0  0  0  0  0
    5.6948  -12.8519   25.9697 C   0  0  0  0  0  0  0  0  0  0  0  0
    7.5907  -14.1950   25.0095 C   0  0  0  0  0  0  0  0  0  0  0  0
    8.6961  -14.3738   24.0316 C   0  0  2  0  0  0  0  0  0  0  0  0
    8.0698  -14.8631   22.7702 N   0  0  0  0  0  0  0  0  0  0  0  0
    9.6490  -15.4036   24.5170 C   0  0  0  0  0  0  0  0  0  0  0  0
    9.2844  -16.6332   24.5883 O   0  0  0  0  0  0  0  0  0  0  0  0
   11.0846  -17.4228   32.2609 O   0  0  0  0  0  0  0  0  0  0  0  0
   11.1750  -16.8289   31.0104 C   0  0  0  0  0  0  0  0  0  0  0  0
   11.6058  -17.5592   29.9027 C   0  0  0  0  0  0  0  0  0  0  0  0
   11.6992  -16.9795   28.6569 C   0  0  0  0  0  0  0  0  0  0  0  0
   11.3537  -15.6447   28.5249 C   0  0  0  0  0  0  0  0  0  0  0  0
   11.4372  -14.9757   27.2297 C   0  0  0  0  0  0  0  0  0  0  0  0
   11.5893  -15.9075   26.0466 C   0  0  2  0  0  0  0  0  0  0  0  0
   10.9771  -15.1744   24.9259 N   0  0  0  0  0  0  0  0  0  0  0  0
   10.8729  -17.1552   26.3212 C   0  0  0  0  0  0  0  0  0  0  0  0
    9.5356  -17.2291   26.6585 O   0  0  0  0  0  0  0  0  0  0  0  0
   10.9226  -14.9027   29.6175 C   0  0  0  0  0  0  0  0  0  0  0  0
   10.8397  -15.5082   30.8471 C   0  0  0  0  0  0  0  0  0  0  0  0
   11.5109  -18.2537   26.2491 O   0  0  0  0  0  0  0  0  0  0  0  0
  2  4  1  0
  2  1  1  6
  3  2  1  0
  5  6  1  1
  5  4  1  0
  7  5  1  0
  8  7  2  0
 10  9  1  1
 10 12  1  0
 11 10  1  0
 13 12  1  1
 13 15  1  0
 13 14  1  0
 14  7  1  0
 15 24  1  0
 16 15  2  0
 17 18  1  0
 18 28  2  0
 19 20  2  0
 19 18  1  0
 20 21  1  0
 21 22  1  0
 21 27  2  0
 23 22  1  1
 23 25  1  0
 24 23  1  0
 25 29  2  0
 25 26  1  0
 28 27  1  0
M  END
$$$$
