LLY.pdb
     RDKit          3D

 29 29  0  0  1  0  0  0  0  0999 V2000
    8.0500  -15.1523   18.1104 C   0  0  0  0  0  0  0  0  0  0  0  0
    7.1595  -14.1961   18.9258 C   0  0  2  0  0  0  0  0  0  0  0  0
    6.7371  -13.1001   18.0097 C   0  0  0  0  0  0  0  0  0  0  0  0
    7.9580  -13.7858   20.1021 C   0  0  0  0  0  0  0  0  0  0  0  0
    8.3367  -14.8526   21.0742 C   0  0  2  0  0  0  0  0  0  0  0  0
    7.0628  -15.5179   21.4193 N   0  0  0  0  0  0  0  0  0  0  0  0
    8.9249  -14.3654   22.3387 C   0  0  0  0  0  0  0  0  0  0  0  0
   10.0548  -13.7834   22.3037 O   0  0  0  0  0  0  0  0  0  0  0  0
    7.4267  -11.3951   25.2726 C   0  0  0  0  0  0  0  0  0  0  0  0
    6.8313  -12.8075   25.4966 C   0  0  2  0  0  0  0  0  0  0  0  0
    5.7842  -12.6339   26.5406 C   0  0  0  0  0  0  0  0  0  0  0  0
    7.9497  -13.6995   25.8365 C   0  0  0  0  0  0  0  0  0  0  0  0
    9.0163  -13.9393   24.8290 C   0  0  2  0  0  0  0  0  0  0  0  0
    8.3391  -14.4844   23.6178 N   0  0  0  0  0  0  0  0  0  0  0  0
    9.9772  -14.9537   25.3305 C   0  0  0  0  0  0  0  0  0  0  0  0
   10.6429  -14.7312   26.4063 O   0  0  0  0  0  0  0  0  0  0  0  0
   11.1844  -14.9514   31.3183 O   0  0  0  0  0  0  0  0  0  0  0  0
   10.9798  -15.6506   30.1376 C   0  0  0  0  0  0  0  0  0  0  0  0
   11.1406  -17.0354   30.0910 C   0  0  0  0  0  0  0  0  0  0  0  0
   10.9400  -17.7392   28.9242 C   0  0  0  0  0  0  0  0  0  0  0  0
   10.5722  -17.0379   27.7879 C   0  0  0  0  0  0  0  0  0  0  0  0
   10.3505  -17.7301   26.5216 C   0  0  0  0  0  0  0  0  0  0  0  0
   11.1493  -17.1862   25.3565 C   0  0  2  0  0  0  0  0  0  0  0  0
   10.2538  -16.1982   24.7319 N   0  0  0  0  0  0  0  0  0  0  0  0
   11.4611  -18.2803   24.4340 C   0  0  0  0  0  0  0  0  0  0  0  0
   10.8992  -18.4284   23.1809 O   0  0  0  0  0  0  0  0  0  0  0  0
   10.4076  -15.6586   27.8167 C   0  0  0  0  0  0  0  0  0  0  0  0
   10.6146  -14.9843   28.9948 C   0  0  0  0  0  0  0  0  0  0  0  0
   12.3035  -19.1623   24.7959 O   0  0  0  0  0  0  0  0  0  0  0  0
  2  4  1  0
  2  1  1  6
  3  2  1  0
  5  6  1  1
  5  4  1  0
  7  5  1  0
  8  7  2  0
 10  9  1  1
 10 12  1  0
 11 10  1  0
 13 12  1  1
 13 15  1  0
 13 14  1  0
 14  7  1  0
 15 24  1  0
 16 15  2  0
 17 18  1  0
 18 28  2  0
 19 20  2  0
 19 18  1  0
 20 21  1  0
 21 22  1  0
 21 27  2  0
 23 22  1  1
 23 25  1  0
 24 23  1  0
 25 29  2  0
 25 26  1  0
 28 27  1  0
M  END
$$$$
