LLY.pdb
     RDKit          3D

 29 29  0  0  1  0  0  0  0  0999 V2000
    7.8452  -15.5861   16.7256 C   0  0  0  0  0  0  0  0  0  0  0  0
    7.2963  -14.5260   17.6989 C   0  0  2  0  0  0  0  0  0  0  0  0
    6.9471  -13.3252   16.8898 C   0  0  0  0  0  0  0  0  0  0  0  0
    8.3379  -14.3310   18.7317 C   0  0  0  0  0  0  0  0  0  0  0  0
    8.3476  -15.2857   19.8784 C   0  0  2  0  0  0  0  0  0  0  0  0
    6.9462  -15.7382   20.0043 N   0  0  0  0  0  0  0  0  0  0  0  0
    8.7288  -14.6968   21.1785 C   0  0  0  0  0  0  0  0  0  0  0  0
    9.8461  -14.0976   21.2749 O   0  0  0  0  0  0  0  0  0  0  0  0
    5.9186  -13.0680   26.3462 C   0  0  0  0  0  0  0  0  0  0  0  0
    7.3351  -13.1395   25.7235 C   0  0  2  0  0  0  0  0  0  0  0  0
    7.8527  -11.7441   25.7575 C   0  0  0  0  0  0  0  0  0  0  0  0
    7.1926  -13.7501   24.3934 C   0  0  0  0  0  0  0  0  0  0  0  0
    8.4142  -14.0610   23.6051 C   0  0  2  0  0  0  0  0  0  0  0  0
    7.9524  -14.7334   22.3572 N   0  0  0  0  0  0  0  0  0  0  0  0
    9.2835  -15.0019   24.3555 C   0  0  0  0  0  0  0  0  0  0  0  0
    8.8491  -16.1707   24.6637 O   0  0  0  0  0  0  0  0  0  0  0  0
   11.3210  -17.2377   32.0116 O   0  0  0  0  0  0  0  0  0  0  0  0
   11.3236  -16.6105   30.7742 C   0  0  0  0  0  0  0  0  0  0  0  0
   11.9165  -17.2180   29.6672 C   0  0  0  0  0  0  0  0  0  0  0  0
   11.9247  -16.6041   28.4343 C   0  0  0  0  0  0  0  0  0  0  0  0
   11.3271  -15.3603   28.3147 C   0  0  0  0  0  0  0  0  0  0  0  0
   11.3093  -14.6598   27.0338 C   0  0  0  0  0  0  0  0  0  0  0  0
   11.2573  -15.5637   25.8207 C   0  0  2  0  0  0  0  0  0  0  0  0
   10.5996  -14.7468   24.7871 N   0  0  0  0  0  0  0  0  0  0  0  0
   10.4668  -16.7544   26.1411 C   0  0  0  0  0  0  0  0  0  0  0  0
   10.9256  -18.0515   26.0194 O   0  0  0  0  0  0  0  0  0  0  0  0
   10.7320  -14.7412   29.4069 C   0  0  0  0  0  0  0  0  0  0  0  0
   10.7395  -15.3779   30.6234 C   0  0  0  0  0  0  0  0  0  0  0  0
    9.2754  -16.6012   26.5603 O   0  0  0  0  0  0  0  0  0  0  0  0
  2  4  1  0
  2  1  1  6
  3  2  1  0
  5  6  1  1
  5  4  1  0
  7  5  1  0
  8  7  2  0
 10  9  1  6
 10 12  1  0
 11 10  1  0
 13 12  1  1
 13 15  1  0
 13 14  1  0
 14  7  1  0
 15 24  1  0
 16 15  2  0
 17 18  1  0
 18 28  2  0
 19 20  2  0
 19 18  1  0
 20 21  1  0
 21 22  1  0
 21 27  2  0
 23 22  1  1
 23 25  1  0
 24 23  1  0
 25 29  2  0
 25 26  1  0
 28 27  1  0
M  END
$$$$
