LLY.pdb
     RDKit          3D

 29 29  0  0  1  0  0  0  0  0999 V2000
   10.8991  -19.7223   15.4391 C   0  0  0  0  0  0  0  0  0  0  0  0
   10.7212  -18.1999   15.2874 C   0  0  2  0  0  0  0  0  0  0  0  0
   11.5287  -17.7783   14.1088 C   0  0  0  0  0  0  0  0  0  0  0  0
   11.1094  -17.6046   16.5853 C   0  0  0  0  0  0  0  0  0  0  0  0
   10.3465  -18.0419   17.7908 C   0  0  2  0  0  0  0  0  0  0  0  0
    8.9370  -18.0893   17.3484 N   0  0  0  0  0  0  0  0  0  0  0  0
   10.4070  -17.1142   18.9388 C   0  0  0  0  0  0  0  0  0  0  0  0
   11.5257  -16.9216   19.5117 O   0  0  0  0  0  0  0  0  0  0  0  0
    9.0868  -12.7072   19.4735 C   0  0  0  0  0  0  0  0  0  0  0  0
    7.9567  -13.7628   19.5640 C   0  0  2  0  0  0  0  0  0  0  0  0
    6.6933  -12.9816   19.6622 C   0  0  0  0  0  0  0  0  0  0  0  0
    8.2725  -14.6381   20.7026 C   0  0  0  0  0  0  0  0  0  0  0  0
    9.4898  -15.4896   20.6451 C   0  0  2  0  0  0  0  0  0  0  0  0
    9.3149  -16.3992   19.4768 N   0  0  0  0  0  0  0  0  0  0  0  0
    9.5975  -16.3145   21.8747 C   0  0  0  0  0  0  0  0  0  0  0  0
    8.6468  -17.1166   22.1953 O   0  0  0  0  0  0  0  0  0  0  0  0
   15.8678  -18.7885   20.5327 O   0  0  0  0  0  0  0  0  0  0  0  0
   14.6644  -18.7417   21.2215 C   0  0  0  0  0  0  0  0  0  0  0  0
   13.4692  -19.0951   20.5951 C   0  0  0  0  0  0  0  0  0  0  0  0
   12.2691  -19.0522   21.2695 C   0  0  0  0  0  0  0  0  0  0  0  0
   12.2730  -18.6474   22.5942 C   0  0  0  0  0  0  0  0  0  0  0  0
   11.0306  -18.5780   23.3581 C   0  0  0  0  0  0  0  0  0  0  0  0
   10.7242  -17.2158   23.9427 C   0  0  2  0  0  0  0  0  0  0  0  0
   10.6811  -16.3206   22.7743 N   0  0  0  0  0  0  0  0  0  0  0  0
   11.7964  -16.8357   24.8653 C   0  0  0  0  0  0  0  0  0  0  0  0
   12.0859  -17.5000   26.0412 O   0  0  0  0  0  0  0  0  0  0  0  0
   13.4543  -18.2921   23.2333 C   0  0  0  0  0  0  0  0  0  0  0  0
   14.6353  -18.3450   22.5349 C   0  0  0  0  0  0  0  0  0  0  0  0
   12.5185  -15.8279   24.5797 O   0  0  0  0  0  0  0  0  0  0  0  0
  2  4  1  0
  2  1  1  1
  3  2  1  0
  5  6  1  6
  5  4  1  0
  7  5  1  0
  8  7  2  0
 10  9  1  1
 10 12  1  0
 11 10  1  0
 13 12  1  1
 13 15  1  0
 13 14  1  0
 14  7  1  0
 15 24  1  0
 16 15  2  0
 17 18  1  0
 18 28  2  0
 19 20  2  0
 19 18  1  0
 20 21  1  0
 21 22  1  0
 21 27  2  0
 23 22  1  6
 23 25  1  0
 24 23  1  0
 25 29  2  0
 25 26  1  0
 28 27  1  0
M  END
$$$$
