LLY.pdb
     RDKit          3D

 29 29  0  0  1  0  0  0  0  0999 V2000
    8.4600  -14.7081   18.5682 C   0  0  0  0  0  0  0  0  0  0  0  0
    7.7267  -13.7198   19.4944 C   0  0  2  0  0  0  0  0  0  0  0  0
    7.5699  -12.4446   18.7406 C   0  0  0  0  0  0  0  0  0  0  0  0
    8.5260  -13.6436   20.7374 C   0  0  0  0  0  0  0  0  0  0  0  0
    8.6245  -14.8839   21.5611 C   0  0  2  0  0  0  0  0  0  0  0  0
    7.2784  -15.4903   21.4923 N   0  0  0  0  0  0  0  0  0  0  0  0
    8.9251  -14.6624   22.9903 C   0  0  0  0  0  0  0  0  0  0  0  0
   10.0762  -14.2297   23.3138 O   0  0  0  0  0  0  0  0  0  0  0  0
    7.6895  -11.8124   26.3499 C   0  0  0  0  0  0  0  0  0  0  0  0
    6.6307  -12.8564   25.9156 C   0  0  2  0  0  0  0  0  0  0  0  0
    5.3954  -12.5026   26.6673 C   0  0  0  0  0  0  0  0  0  0  0  0
    7.1989  -14.1859   26.1834 C   0  0  0  0  0  0  0  0  0  0  0  0
    8.4350  -14.6019   25.4698 C   0  0  2  0  0  0  0  0  0  0  0  0
    8.0349  -14.8888   24.0626 N   0  0  0  0  0  0  0  0  0  0  0  0
    8.9798  -15.8459   26.0697 C   0  0  0  0  0  0  0  0  0  0  0  0
    8.2552  -16.9052   26.1203 O   0  0  0  0  0  0  0  0  0  0  0  0
   12.9150  -16.9694   21.2729 O   0  0  0  0  0  0  0  0  0  0  0  0
   12.7155  -17.0996   22.6397 C   0  0  0  0  0  0  0  0  0  0  0  0
   12.1207  -18.2452   23.1683 C   0  0  0  0  0  0  0  0  0  0  0  0
   11.9181  -18.3847   24.5235 C   0  0  0  0  0  0  0  0  0  0  0  0
   12.3202  -17.3551   25.3582 C   0  0  0  0  0  0  0  0  0  0  0  0
   12.1266  -17.4451   26.8026 C   0  0  0  0  0  0  0  0  0  0  0  0
   10.6961  -17.2581   27.2606 C   0  0  2  0  0  0  0  0  0  0  0  0
   10.2686  -16.0059   26.6144 N   0  0  0  0  0  0  0  0  0  0  0  0
   10.6695  -17.1400   28.7203 C   0  0  0  0  0  0  0  0  0  0  0  0
   10.3298  -15.9888   29.4039 O   0  0  0  0  0  0  0  0  0  0  0  0
   12.9142  -16.2073   24.8483 C   0  0  0  0  0  0  0  0  0  0  0  0
   13.1032  -16.0970   23.4928 C   0  0  0  0  0  0  0  0  0  0  0  0
   10.9778  -18.1565   29.4205 O   0  0  0  0  0  0  0  0  0  0  0  0
  2  4  1  0
  2  1  1  6
  3  2  1  0
  5  6  1  1
  5  4  1  0
  7  5  1  0
  8  7  2  0
 10  9  1  1
 10 12  1  0
 11 10  1  0
 13 12  1  1
 13 15  1  0
 13 14  1  0
 14  7  1  0
 15 24  1  0
 16 15  2  0
 17 18  1  0
 18 28  2  0
 19 20  2  0
 19 18  1  0
 20 21  1  0
 21 22  1  0
 21 27  2  0
 23 22  1  6
 23 25  1  0
 24 23  1  0
 25 29  2  0
 25 26  1  0
 28 27  1  0
M  END
$$$$
