EMV.pdb
     RDKit          3D

 25 24  0  0  1  0  0  0  0  0999 V2000
    9.1507  -15.6678   19.3650 N   0  0  0  0  0  0  0  0  0  0  0  0
    8.0835  -15.7586   20.3266 C   0  0  1  0  0  0  0  0  0  0  0  0
    7.5503  -17.1661   20.3472 C   0  0  0  0  0  0  0  0  0  0  0  0
    8.6415  -18.1592   20.2241 C   0  0  0  0  0  0  0  0  0  0  0  0
    8.1331  -19.4468   19.7190 C   0  0  0  0  0  0  0  0  0  0  0  0
    8.6025  -20.5622   20.0764 O   0  0  0  0  0  0  0  0  0  0  0  0
    8.5695  -15.4638   21.6919 C   0  0  0  0  0  0  0  0  0  0  0  0
    9.7690  -15.6401   21.9653 O   0  0  0  0  0  0  0  0  0  0  0  0
    7.0715  -19.4013   18.7939 O   0  0  0  0  0  0  0  0  0  0  0  0
    7.1813  -11.5352   28.2782 C   0  0  0  0  0  0  0  0  0  0  0  0
    6.4772  -12.1205   26.7008 S   0  0  0  0  0  0  0  0  0  0  0  0
    7.6486  -13.2553   25.9369 C   0  0  0  0  0  0  0  0  0  0  0  0
    7.0948  -13.7207   24.5863 C   0  0  0  0  0  0  0  0  0  0  0  0
    8.1637  -14.5661   23.9467 C   0  0  2  0  0  0  0  0  0  0  0  0
    7.6780  -14.9927   22.6579 N   0  0  0  0  0  0  0  0  0  0  0  0
    8.5223  -15.7452   24.7447 C   0  0  0  0  0  0  0  0  0  0  0  0
    7.6568  -16.6167   25.0025 O   0  0  0  0  0  0  0  0  0  0  0  0
   11.3934  -18.2083   24.0966 C   0  0  0  0  0  0  0  0  0  0  0  0
   11.4119  -17.8152   25.5427 C   0  0  1  0  0  0  0  0  0  0  0  0
   12.6404  -16.9842   25.7877 C   0  0  0  0  0  0  0  0  0  0  0  0
   10.1445  -17.1724   26.0020 C   0  0  2  0  0  0  0  0  0  0  0  0
    9.8317  -15.9666   25.2601 N   0  0  0  0  0  0  0  0  0  0  0  0
   10.1971  -16.8684   27.4783 C   0  0  0  0  0  0  0  0  0  0  0  0
   10.1030  -15.5601   27.9416 O   0  0  0  0  0  0  0  0  0  0  0  0
   10.3266  -17.7728   28.3349 O   0  0  0  0  0  0  0  0  0  0  0  0
  2  1  1  6
  3  2  1  0
  4  3  1  0
  5  4  1  0
  6  5  2  0
  7  8  2  0
  7  2  1  0
  9  5  1  0
 11 10  1  0
 11 12  1  0
 12 13  1  0
 14 13  1  1
 14 15  1  0
 15  7  1  0
 16 22  1  0
 16 14  1  0
 17 16  2  0
 19 18  1  6
 19 21  1  0
 20 19  1  0
 21 22  1  6
 21 23  1  0
 23 24  1  0
 25 23  2  0
M  END
$$$$
