EMV.pdb
     RDKit          3D

 25 24  0  0  1  0  0  0  0  0999 V2000
    9.8591  -15.9838   19.8609 N   0  0  0  0  0  0  0  0  0  0  0  0
    8.7748  -16.2810   20.7598 C   0  0  1  0  0  0  0  0  0  0  0  0
    8.6349  -17.7736   20.8949 C   0  0  0  0  0  0  0  0  0  0  0  0
    9.9510  -18.4248   21.0846 C   0  0  0  0  0  0  0  0  0  0  0  0
    9.8097  -19.8880   21.1868 C   0  0  0  0  0  0  0  0  0  0  0  0
    8.7035  -20.4843   21.0722 O   0  0  0  0  0  0  0  0  0  0  0  0
    9.0443  -15.7509   22.1139 C   0  0  0  0  0  0  0  0  0  0  0  0
   10.2196  -15.6166   22.4952 O   0  0  0  0  0  0  0  0  0  0  0  0
   10.9819  -20.6328   21.4237 O   0  0  0  0  0  0  0  0  0  0  0  0
    7.0103  -11.3378   27.8631 C   0  0  0  0  0  0  0  0  0  0  0  0
    6.5366  -12.0784   26.2651 S   0  0  0  0  0  0  0  0  0  0  0  0
    7.2274  -13.7393   26.1767 C   0  0  0  0  0  0  0  0  0  0  0  0
    6.9260  -14.3399   24.7998 C   0  0  0  0  0  0  0  0  0  0  0  0
    8.2299  -14.8641   24.2598 C   0  0  2  0  0  0  0  0  0  0  0  0
    7.9785  -15.4088   22.9486 N   0  0  0  0  0  0  0  0  0  0  0  0
    8.8319  -15.9000   25.1083 C   0  0  0  0  0  0  0  0  0  0  0  0
    8.3675  -17.0660   25.1022 O   0  0  0  0  0  0  0  0  0  0  0  0
   12.7815  -16.4634   25.6330 C   0  0  0  0  0  0  0  0  0  0  0  0
   12.0158  -16.5441   26.9187 C   0  0  1  0  0  0  0  0  0  0  0  0
   12.3738  -15.3469   27.7544 C   0  0  0  0  0  0  0  0  0  0  0  0
   10.5464  -16.7310   26.7267 C   0  0  2  0  0  0  0  0  0  0  0  0
    9.9438  -15.6549   25.9644 N   0  0  0  0  0  0  0  0  0  0  0  0
    9.8428  -16.8782   28.0525 C   0  0  0  0  0  0  0  0  0  0  0  0
   10.1237  -17.9490   28.8949 O   0  0  0  0  0  0  0  0  0  0  0  0
    8.9870  -16.0508   28.4418 O   0  0  0  0  0  0  0  0  0  0  0  0
  2  1  1  6
  3  2  1  0
  4  3  1  0
  5  4  1  0
  6  5  2  0
  7  8  2  0
  7  2  1  0
  9  5  1  0
 11 10  1  0
 11 12  1  0
 12 13  1  0
 14 13  1  1
 14 15  1  0
 15  7  1  0
 16 22  1  0
 16 14  1  0
 17 16  2  0
 19 18  1  6
 19 21  1  0
 20 19  1  0
 21 22  1  1
 21 23  1  0
 23 24  1  0
 25 23  2  0
M  END
$$$$
