EMV.pdb
     RDKit          3D

 25 24  0  0  1  0  0  0  0  0999 V2000
    9.6654  -16.1213   19.7914 N   0  0  0  0  0  0  0  0  0  0  0  0
    9.0950  -16.7963   20.9275 C   0  0  1  0  0  0  0  0  0  0  0  0
    9.7588  -18.1367   21.0954 C   0  0  0  0  0  0  0  0  0  0  0  0
    9.3908  -19.0629   20.0006 C   0  0  0  0  0  0  0  0  0  0  0  0
   10.0262  -20.3799   20.1831 C   0  0  0  0  0  0  0  0  0  0  0  0
    9.6634  -21.2048   21.0665 O   0  0  0  0  0  0  0  0  0  0  0  0
    9.3367  -16.0385   22.1744 C   0  0  0  0  0  0  0  0  0  0  0  0
   10.4744  -15.5979   22.4113 O   0  0  0  0  0  0  0  0  0  0  0  0
   11.0868  -20.7086   19.3160 O   0  0  0  0  0  0  0  0  0  0  0  0
    6.2130  -11.4433   27.5740 C   0  0  0  0  0  0  0  0  0  0  0  0
    5.8750  -12.6007   26.2056 S   0  0  0  0  0  0  0  0  0  0  0  0
    7.4112  -13.4318   25.7660 C   0  0  0  0  0  0  0  0  0  0  0  0
    7.1620  -14.3557   24.5695 C   0  0  0  0  0  0  0  0  0  0  0  0
    8.4823  -14.9962   24.2331 C   0  0  2  0  0  0  0  0  0  0  0  0
    8.2873  -15.8273   23.0711 N   0  0  0  0  0  0  0  0  0  0  0  0
    9.0243  -15.8113   25.3273 C   0  0  0  0  0  0  0  0  0  0  0  0
    8.5431  -16.9460   25.5640 O   0  0  0  0  0  0  0  0  0  0  0  0
   12.9959  -15.9926   26.2187 C   0  0  0  0  0  0  0  0  0  0  0  0
   12.1124  -15.9461   27.4283 C   0  0  1  0  0  0  0  0  0  0  0  0
   12.3054  -14.6152   28.1000 C   0  0  0  0  0  0  0  0  0  0  0  0
   10.6851  -16.2760   27.1370 C   0  0  2  0  0  0  0  0  0  0  0  0
   10.0949  -15.3798   26.1621 N   0  0  0  0  0  0  0  0  0  0  0  0
    9.8617  -16.2751   28.4006 C   0  0  0  0  0  0  0  0  0  0  0  0
   10.1075  -17.1961   29.4137 O   0  0  0  0  0  0  0  0  0  0  0  0
    8.9342  -15.4538   28.5842 O   0  0  0  0  0  0  0  0  0  0  0  0
  2  1  1  6
  3  2  1  0
  4  3  1  0
  5  4  1  0
  6  5  2  0
  7  8  2  0
  7  2  1  0
  9  5  1  0
 11 10  1  0
 11 12  1  0
 12 13  1  0
 14 13  1  1
 14 15  1  0
 15  7  1  0
 16 22  1  0
 16 14  1  0
 17 16  2  0
 19 18  1  6
 19 21  1  0
 20 19  1  0
 21 22  1  6
 21 23  1  0
 23 24  1  0
 25 23  2  0
M  END
$$$$
