EMV.pdb
     RDKit          3D

 25 24  0  0  1  0  0  0  0  0999 V2000
   10.5188  -15.7834   20.2163 N   0  0  0  0  0  0  0  0  0  0  0  0
    9.5432  -16.2574   21.1624 C   0  0  1  0  0  0  0  0  0  0  0  0
    9.6629  -17.7520   21.2946 C   0  0  0  0  0  0  0  0  0  0  0  0
    8.6974  -18.2862   22.2818 C   0  0  0  0  0  0  0  0  0  0  0  0
    8.7252  -19.7593   22.3082 C   0  0  0  0  0  0  0  0  0  0  0  0
    9.7943  -20.4290   22.3365 O   0  0  0  0  0  0  0  0  0  0  0  0
    9.7826  -15.6872   22.5059 C   0  0  0  0  0  0  0  0  0  0  0  0
   10.9409  -15.6439   22.9542 O   0  0  0  0  0  0  0  0  0  0  0  0
    7.4844  -20.4266   22.3014 O   0  0  0  0  0  0  0  0  0  0  0  0
    5.1794  -12.5533   26.2769 C   0  0  0  0  0  0  0  0  0  0  0  0
    6.7741  -11.6753   26.3886 S   0  0  0  0  0  0  0  0  0  0  0  0
    8.0987  -12.8496   26.0564 C   0  0  0  0  0  0  0  0  0  0  0  0
    7.8780  -13.4850   24.6798 C   0  0  0  0  0  0  0  0  0  0  0  0
    8.9406  -14.5381   24.5122 C   0  0  2  0  0  0  0  0  0  0  0  0
    8.7075  -15.2056   23.2556 N   0  0  0  0  0  0  0  0  0  0  0  0
    8.9467  -15.5300   25.5947 C   0  0  0  0  0  0  0  0  0  0  0  0
    9.1143  -15.1627   26.7830 O   0  0  0  0  0  0  0  0  0  0  0  0
    6.5172  -18.6635   25.7118 C   0  0  0  0  0  0  0  0  0  0  0  0
    7.8730  -19.0361   26.2304 C   0  0  1  0  0  0  0  0  0  0  0  0
    8.4655  -20.0600   25.3029 C   0  0  0  0  0  0  0  0  0  0  0  0
    8.7595  -17.8603   26.4802 C   0  0  2  0  0  0  0  0  0  0  0  0
    8.7693  -16.9258   25.3717 N   0  0  0  0  0  0  0  0  0  0  0  0
   10.1674  -18.3019   26.7925 C   0  0  0  0  0  0  0  0  0  0  0  0
   11.2230  -17.9715   25.9489 O   0  0  0  0  0  0  0  0  0  0  0  0
   10.4373  -18.9765   27.8125 O   0  0  0  0  0  0  0  0  0  0  0  0
  2  1  1  6
  3  2  1  0
  4  3  1  0
  5  4  1  0
  6  5  2  0
  7  8  2  0
  7  2  1  0
  9  5  1  0
 11 10  1  0
 11 12  1  0
 12 13  1  0
 14 13  1  1
 14 15  1  0
 15  7  1  0
 16 22  1  0
 16 14  1  0
 17 16  2  0
 19 18  1  6
 19 21  1  0
 20 19  1  0
 21 22  1  6
 21 23  1  0
 23 24  1  0
 25 23  2  0
M  END
$$$$
