EMV.pdb
     RDKit          3D

 25 24  0  0  1  0  0  0  0  0999 V2000
    9.0328  -18.1794   21.1046 N   0  0  0  0  0  0  0  0  0  0  0  0
   10.3710  -17.7526   21.4192 C   0  0  1  0  0  0  0  0  0  0  0  0
   10.9865  -17.1089   20.2058 C   0  0  0  0  0  0  0  0  0  0  0  0
   12.1354  -17.8948   19.7013 C   0  0  0  0  0  0  0  0  0  0  0  0
   13.1137  -17.0282   19.0207 C   0  0  0  0  0  0  0  0  0  0  0  0
   12.9432  -15.7883   18.8599 O   0  0  0  0  0  0  0  0  0  0  0  0
   10.3673  -16.7329   22.4905 C   0  0  0  0  0  0  0  0  0  0  0  0
   11.4293  -16.1652   22.7979 O   0  0  0  0  0  0  0  0  0  0  0  0
   14.2872  -17.6391   18.5363 O   0  0  0  0  0  0  0  0  0  0  0  0
    6.1414  -11.7704   26.7293 C   0  0  0  0  0  0  0  0  0  0  0  0
    6.0728  -13.2455   25.6589 S   0  0  0  0  0  0  0  0  0  0  0  0
    7.7511  -13.8477   25.4055 C   0  0  0  0  0  0  0  0  0  0  0  0
    7.7268  -15.0073   24.4045 C   0  0  0  0  0  0  0  0  0  0  0  0
    9.1574  -15.4216   24.1850 C   0  0  2  0  0  0  0  0  0  0  0  0
    9.1741  -16.4201   23.1448 N   0  0  0  0  0  0  0  0  0  0  0  0
    9.7925  -15.9668   25.3911 C   0  0  0  0  0  0  0  0  0  0  0  0
   10.0547  -17.1919   25.4646 O   0  0  0  0  0  0  0  0  0  0  0  0
   11.5573  -13.4251   28.2444 C   0  0  0  0  0  0  0  0  0  0  0  0
   11.0643  -14.7487   28.7453 C   0  0  1  0  0  0  0  0  0  0  0  0
    9.8704  -14.5027   29.6250 C   0  0  0  0  0  0  0  0  0  0  0  0
   10.8210  -15.7442   27.6588 C   0  0  2  0  0  0  0  0  0  0  0  0
   10.1393  -15.1661   26.5172 N   0  0  0  0  0  0  0  0  0  0  0  0
   10.0439  -16.9289   28.1756 C   0  0  0  0  0  0  0  0  0  0  0  0
    8.6991  -17.0935   27.8598 O   0  0  0  0  0  0  0  0  0  0  0  0
   10.5738  -17.8008   28.9019 O   0  0  0  0  0  0  0  0  0  0  0  0
  2  1  1  6
  3  2  1  0
  4  3  1  0
  5  4  1  0
  6  5  2  0
  7  8  2  0
  7  2  1  0
  9  5  1  0
 11 10  1  0
 11 12  1  0
 12 13  1  0
 14 13  1  1
 14 15  1  0
 15  7  1  0
 16 22  1  0
 16 14  1  0
 17 16  2  0
 19 18  1  6
 19 21  1  0
 20 19  1  0
 21 22  1  6
 21 23  1  0
 23 24  1  0
 25 23  2  0
M  END
$$$$
