EMV.pdb
     RDKit          3D

 25 24  0  0  1  0  0  0  0  0999 V2000
   37.5328  -68.4829   16.9047 N   0  0  0  0  0  0  0  0  0  0  0  0
   36.4150  -67.9337   17.6262 C   0  0  1  0  0  0  0  0  0  0  0  0
   36.9199  -66.9831   18.6783 C   0  0  0  0  0  0  0  0  0  0  0  0
   37.8255  -67.6635   19.6318 C   0  0  0  0  0  0  0  0  0  0  0  0
   38.0857  -69.0535   19.2173 C   0  0  0  0  0  0  0  0  0  0  0  0
   37.2934  -69.7178   18.4939 O   0  0  0  0  0  0  0  0  0  0  0  0
   35.5335  -67.1538   16.7306 C   0  0  0  0  0  0  0  0  0  0  0  0
   35.7705  -67.1272   15.5109 O   0  0  0  0  0  0  0  0  0  0  0  0
   39.2840  -69.6446   19.6639 O   0  0  0  0  0  0  0  0  0  0  0  0
   34.2222  -62.6814   20.1179 C   0  0  0  0  0  0  0  0  0  0  0  0
   33.7551  -62.5541   18.3595 S   0  0  0  0  0  0  0  0  0  0  0  0
   34.2543  -64.0691   17.5234 C   0  0  0  0  0  0  0  0  0  0  0  0
   33.0862  -64.5898   16.6797 C   0  0  0  0  0  0  0  0  0  0  0  0
   33.3603  -66.0453   16.4099 C   0  0  2  0  0  0  0  0  0  0  0  0
   34.4475  -66.4563   17.2632 N   0  0  0  0  0  0  0  0  0  0  0  0
   33.7122  -66.3172   15.0107 C   0  0  0  0  0  0  0  0  0  0  0  0
   32.8308  -66.7008   14.2038 O   0  0  0  0  0  0  0  0  0  0  0  0
   35.8364  -69.2837   16.0036 C   0  0  0  0  0  0  0  0  0  0  0  0
   35.8100  -68.4774   14.7406 C   0  0  1  0  0  0  0  0  0  0  0  0
   34.5021  -68.7357   14.0458 C   0  0  0  0  0  0  0  0  0  0  0  0
   36.1079  -67.0291   14.9515 C   0  0  2  0  0  0  0  0  0  0  0  0
   35.0329  -66.1684   14.4979 N   0  0  0  0  0  0  0  0  0  0  0  0
   37.3986  -66.6391   14.2757 C   0  0  0  0  0  0  0  0  0  0  0  0
   37.5846  -66.8533   12.9139 O   0  0  0  0  0  0  0  0  0  0  0  0
   38.3428  -66.1131   14.9083 O   0  0  0  0  0  0  0  0  0  0  0  0
  2  1  1  6
  3  2  1  0
  4  3  1  0
  5  4  1  0
  6  5  2  0
  7  8  2  0
  7  2  1  0
  9  5  1  0
 11 10  1  0
 11 12  1  0
 12 13  1  0
 14 13  1  6
 14 15  1  0
 15  7  1  0
 16 22  1  0
 16 14  1  0
 17 16  2  0
 19 18  1  1
 19 21  1  0
 20 19  1  0
 21 22  1  6
 21 23  1  0
 23 24  1  0
 25 23  2  0
M  END
$$$$
