EMV.pdb
     RDKit          3D

 25 24  0  0  1  0  0  0  0  0999 V2000
    9.8236  -17.6266   20.7227 N   0  0  0  0  0  0  0  0  0  0  0  0
   10.9374  -17.2838   21.5675 C   0  0  1  0  0  0  0  0  0  0  0  0
   11.9615  -16.5316   20.7605 C   0  0  0  0  0  0  0  0  0  0  0  0
   12.2459  -17.2138   19.4776 C   0  0  0  0  0  0  0  0  0  0  0  0
   13.6909  -17.2210   19.1890 C   0  0  0  0  0  0  0  0  0  0  0  0
   14.5546  -16.7464   19.9771 O   0  0  0  0  0  0  0  0  0  0  0  0
   10.5167  -16.3894   22.6676 C   0  0  0  0  0  0  0  0  0  0  0  0
   11.3435  -15.6114   23.1733 O   0  0  0  0  0  0  0  0  0  0  0  0
   14.1004  -17.7918   17.9677 O   0  0  0  0  0  0  0  0  0  0  0  0
    6.1387  -12.1028   26.3949 C   0  0  0  0  0  0  0  0  0  0  0  0
    7.0990  -13.0690   25.1821 S   0  0  0  0  0  0  0  0  0  0  0  0
    6.9161  -14.8183   25.5700 C   0  0  0  0  0  0  0  0  0  0  0  0
    7.3035  -15.6515   24.3439 C   0  0  0  0  0  0  0  0  0  0  0  0
    8.8074  -15.6521   24.2768 C   0  0  2  0  0  0  0  0  0  0  0  0
    9.1985  -16.4287   23.1266 N   0  0  0  0  0  0  0  0  0  0  0  0
    9.4390  -16.2122   25.4780 C   0  0  0  0  0  0  0  0  0  0  0  0
    9.8875  -17.3843   25.4642 O   0  0  0  0  0  0  0  0  0  0  0  0
   11.2968  -13.6178   28.1879 C   0  0  0  0  0  0  0  0  0  0  0  0
   10.7476  -14.8888   28.7614 C   0  0  1  0  0  0  0  0  0  0  0  0
    9.5529  -14.5450   29.6065 C   0  0  0  0  0  0  0  0  0  0  0  0
   10.4805  -15.9397   27.7342 C   0  0  2  0  0  0  0  0  0  0  0  0
    9.5776  -15.4848   26.6950 N   0  0  0  0  0  0  0  0  0  0  0  0
    9.9388  -17.1940   28.3729 C   0  0  0  0  0  0  0  0  0  0  0  0
   10.7218  -17.9493   29.2398 O   0  0  0  0  0  0  0  0  0  0  0  0
    8.7753  -17.5999   28.1491 O   0  0  0  0  0  0  0  0  0  0  0  0
  2  1  1  6
  3  2  1  0
  4  3  1  0
  5  4  1  0
  6  5  2  0
  7  8  2  0
  7  2  1  0
  9  5  1  0
 11 10  1  0
 11 12  1  0
 12 13  1  0
 14 13  1  1
 14 15  1  0
 15  7  1  0
 16 22  1  0
 16 14  1  0
 17 16  2  0
 19 18  1  6
 19 21  1  0
 20 19  1  0
 21 22  1  6
 21 23  1  0
 23 24  1  0
 25 23  2  0
M  END
$$$$
