EMV.pdb
     RDKit          3D

 25 24  0  0  1  0  0  0  0  0999 V2000
    8.0571  -12.7155   19.4972 N   0  0  0  0  0  0  0  0  0  0  0  0
    7.3346  -13.6520   20.3175 C   0  0  1  0  0  0  0  0  0  0  0  0
    7.2301  -14.9687   19.5957 C   0  0  0  0  0  0  0  0  0  0  0  0
    8.5673  -15.5128   19.2675 C   0  0  0  0  0  0  0  0  0  0  0  0
    8.4583  -16.8143   18.5851 C   0  0  0  0  0  0  0  0  0  0  0  0
    7.3599  -17.3023   18.2009 O   0  0  0  0  0  0  0  0  0  0  0  0
    8.0502  -13.9131   21.5852 C   0  0  0  0  0  0  0  0  0  0  0  0
    9.2836  -13.7677   21.6322 O   0  0  0  0  0  0  0  0  0  0  0  0
    9.6534  -17.5267   18.3633 O   0  0  0  0  0  0  0  0  0  0  0  0
    6.5969  -10.4266   27.1789 C   0  0  0  0  0  0  0  0  0  0  0  0
    6.3656  -12.2106   26.8784 S   0  0  0  0  0  0  0  0  0  0  0  0
    7.0929  -12.6215   25.2829 C   0  0  0  0  0  0  0  0  0  0  0  0
    7.0166  -14.1365   25.0672 C   0  0  0  0  0  0  0  0  0  0  0  0
    8.0042  -14.4708   23.9813 C   0  0  2  0  0  0  0  0  0  0  0  0
    7.3349  -14.3204   22.7131 N   0  0  0  0  0  0  0  0  0  0  0  0
    8.5411  -15.8331   24.0881 C   0  0  0  0  0  0  0  0  0  0  0  0
    7.8343  -16.8153   23.7550 O   0  0  0  0  0  0  0  0  0  0  0  0
   12.2132  -19.0794   24.4660 C   0  0  0  0  0  0  0  0  0  0  0  0
   11.6669  -17.7155   24.1705 C   0  0  1  0  0  0  0  0  0  0  0  0
   11.7614  -17.4828   22.6884 C   0  0  0  0  0  0  0  0  0  0  0  0
   10.3032  -17.4846   24.7340 C   0  0  2  0  0  0  0  0  0  0  0  0
    9.8544  -16.1167   24.5615 N   0  0  0  0  0  0  0  0  0  0  0  0
   10.2503  -17.8627   26.1931 C   0  0  0  0  0  0  0  0  0  0  0  0
   10.3679  -19.1904   26.5913 O   0  0  0  0  0  0  0  0  0  0  0  0
   10.0998  -17.0047   27.0928 O   0  0  0  0  0  0  0  0  0  0  0  0
  2  1  1  6
  3  2  1  0
  4  3  1  0
  5  4  1  0
  6  5  2  0
  7  8  2  0
  7  2  1  0
  9  5  1  0
 11 10  1  0
 11 12  1  0
 12 13  1  0
 14 13  1  1
 14 15  1  0
 15  7  1  0
 16 22  1  0
 16 14  1  0
 17 16  2  0
 19 18  1  6
 19 21  1  0
 20 19  1  0
 21 22  1  1
 21 23  1  0
 23 24  1  0
 25 23  2  0
M  END
$$$$
