DSV.pdb
     RDKit          3D

 22 21  0  0  1  0  0  0  0  0999 V2000
    9.0322  -18.0900   20.5334 N   0  0  0  0  0  0  0  0  0  0  0  0
    8.4990  -16.7571   20.1344 C   0  0  1  0  0  0  0  0  0  0  0  0
    7.6124  -16.9608   18.9382 C   0  0  0  0  0  0  0  0  0  0  0  0
    8.3388  -17.5487   17.8166 C   0  0  0  0  0  0  0  0  0  0  0  0
    9.5035  -17.9247   17.8828 O   0  0  0  0  0  0  0  0  0  0  0  0
    7.6627  -16.2836   21.2811 C   0  0  0  0  0  0  0  0  0  0  0  0
    6.8959  -15.3178   21.1474 O   0  0  0  0  0  0  0  0  0  0  0  0
    7.6507  -17.6833   16.6042 O   0  0  0  0  0  0  0  0  0  0  0  0
    7.7451  -18.1330   25.1912 O   0  0  0  0  0  0  0  0  0  0  0  0
    6.6356  -17.5128   24.6797 C   0  0  0  0  0  0  0  0  0  0  0  0
    6.9948  -16.3983   23.6836 C   0  0  2  0  0  0  0  0  0  0  0  0
    7.7302  -16.9339   22.5518 N   0  0  0  0  0  0  0  0  0  0  0  0
    7.8806  -15.4875   24.4573 C   0  0  0  0  0  0  0  0  0  0  0  0
    9.1406  -15.5323   24.2845 O   0  0  0  0  0  0  0  0  0  0  0  0
    7.1959  -11.5997   25.3185 C   0  0  0  0  0  0  0  0  0  0  0  0
    7.5249  -12.4292   26.5568 C   0  0  1  0  0  0  0  0  0  0  0  0
    6.2773  -12.6496   27.3560 C   0  0  0  0  0  0  0  0  0  0  0  0
    8.1862  -13.7316   26.1536 C   0  0  2  0  0  0  0  0  0  0  0  0
    7.3194  -14.5712   25.3870 N   0  0  0  0  0  0  0  0  0  0  0  0
    8.5918  -14.3970   27.4291 C   0  0  0  0  0  0  0  0  0  0  0  0
    9.5914  -13.9309   28.2362 O   0  0  0  0  0  0  0  0  0  0  0  0
    7.9527  -15.4457   27.7446 O   0  0  0  0  0  0  0  0  0  0  0  0
  2  1  1  1
  3  2  1  0
  3  4  1  0
  4  8  1  0
  5  4  2  0
  6  2  1  0
  7  6  2  0
  9 10  1  0
 11 10  1  1
 11 13  1  0
 11 12  1  0
 12  6  1  0
 13 19  1  0
 14 13  2  0
 16 15  1  6
 16 17  1  0
 18 16  1  0
 18 19  1  1
 20 21  1  0
 20 18  1  0
 22 20  2  0
M  END
$$$$
