DSV.pdb
     RDKit          3D

 22 21  0  0  1  0  0  0  0  0999 V2000
    9.4276  -17.4263   19.0586 N   0  0  0  0  0  0  0  0  0  0  0  0
   10.1108  -17.1858   20.3607 C   0  0  1  0  0  0  0  0  0  0  0  0
   11.3660  -16.4087   20.0798 C   0  0  0  0  0  0  0  0  0  0  0  0
   12.4625  -17.2782   19.6640 C   0  0  0  0  0  0  0  0  0  0  0  0
   13.3323  -16.9427   18.8682 O   0  0  0  0  0  0  0  0  0  0  0  0
    9.1829  -16.3313   21.1653 C   0  0  0  0  0  0  0  0  0  0  0  0
    8.7818  -15.2441   20.7230 O   0  0  0  0  0  0  0  0  0  0  0  0
   12.5079  -18.5648   20.2154 O   0  0  0  0  0  0  0  0  0  0  0  0
    7.2712  -17.9410   24.5309 O   0  0  0  0  0  0  0  0  0  0  0  0
    6.6776  -16.9562   23.7859 C   0  0  0  0  0  0  0  0  0  0  0  0
    7.7037  -16.0047   23.1494 C   0  0  2  0  0  0  0  0  0  0  0  0
    8.7405  -16.7501   22.4581 N   0  0  0  0  0  0  0  0  0  0  0  0
    8.3039  -15.2871   24.3060 C   0  0  0  0  0  0  0  0  0  0  0  0
    9.4837  -15.5750   24.6864 O   0  0  0  0  0  0  0  0  0  0  0  0
    7.2456  -11.3495   25.4963 C   0  0  0  0  0  0  0  0  0  0  0  0
    7.3098  -12.4337   26.5688 C   0  0  1  0  0  0  0  0  0  0  0  0
    5.9203  -12.8549   26.9368 C   0  0  0  0  0  0  0  0  0  0  0  0
    8.1538  -13.5966   26.0874 C   0  0  2  0  0  0  0  0  0  0  0  0
    7.5601  -14.2837   24.9832 N   0  0  0  0  0  0  0  0  0  0  0  0
    8.3112  -14.5035   27.2651 C   0  0  0  0  0  0  0  0  0  0  0  0
    7.7522  -15.7486   27.3361 O   0  0  0  0  0  0  0  0  0  0  0  0
    9.0057  -14.0592   28.2284 O   0  0  0  0  0  0  0  0  0  0  0  0
  2  1  1  6
  3  2  1  0
  3  4  1  0
  4  8  1  0
  5  4  2  0
  6  2  1  0
  7  6  2  0
  9 10  1  0
 11 10  1  1
 11 13  1  0
 11 12  1  0
 12  6  1  0
 13 19  1  0
 14 13  2  0
 16 15  1  6
 16 17  1  0
 18 16  1  0
 18 19  1  6
 20 21  1  0
 20 18  1  0
 22 20  2  0
M  END
$$$$
