DSV.pdb
     RDKit          3D

 22 21  0  0  1  0  0  0  0  0999 V2000
    8.8578  -18.1097   20.3663 N   0  0  0  0  0  0  0  0  0  0  0  0
    8.4410  -16.6985   20.1319 C   0  0  1  0  0  0  0  0  0  0  0  0
    7.4884  -16.6921   18.9697 C   0  0  0  0  0  0  0  0  0  0  0  0
    8.1378  -17.1133   17.7319 C   0  0  0  0  0  0  0  0  0  0  0  0
    7.7342  -16.8102   16.6149 O   0  0  0  0  0  0  0  0  0  0  0  0
    7.7049  -16.2726   21.3628 C   0  0  0  0  0  0  0  0  0  0  0  0
    7.0285  -15.2328   21.3665 O   0  0  0  0  0  0  0  0  0  0  0  0
    9.2855  -17.9078   17.8456 O   0  0  0  0  0  0  0  0  0  0  0  0
    8.0689  -18.3407   25.0892 O   0  0  0  0  0  0  0  0  0  0  0  0
    6.8514  -17.8459   24.7020 C   0  0  0  0  0  0  0  0  0  0  0  0
    6.9824  -16.6714   23.7187 C   0  0  2  0  0  0  0  0  0  0  0  0
    7.7657  -17.0544   22.5576 N   0  0  0  0  0  0  0  0  0  0  0  0
    7.7195  -15.6321   24.4865 C   0  0  0  0  0  0  0  0  0  0  0  0
    8.9522  -15.4243   24.2482 O   0  0  0  0  0  0  0  0  0  0  0  0
    7.6307  -11.7074   27.4615 C   0  0  0  0  0  0  0  0  0  0  0  0
    6.8237  -12.7963   26.7595 C   0  0  1  0  0  0  0  0  0  0  0  0
    5.9400  -12.1730   25.7230 C   0  0  0  0  0  0  0  0  0  0  0  0
    7.7527  -13.8386   26.1705 C   0  0  2  0  0  0  0  0  0  0  0  0
    7.0473  -14.8748   25.4832 N   0  0  0  0  0  0  0  0  0  0  0  0
    8.5328  -14.3887   27.3208 C   0  0  0  0  0  0  0  0  0  0  0  0
    8.4002  -15.6708   27.7754 O   0  0  0  0  0  0  0  0  0  0  0  0
    9.3490  -13.5945   27.8781 O   0  0  0  0  0  0  0  0  0  0  0  0
  2  1  1  1
  3  2  1  0
  3  4  1  0
  4  8  1  0
  5  4  2  0
  6  2  1  0
  7  6  2  0
  9 10  1  0
 11 10  1  1
 11 13  1  0
 11 12  1  0
 12  6  1  0
 13 19  1  0
 14 13  2  0
 16 15  1  6
 16 17  1  0
 18 16  1  0
 18 19  1  1
 20 21  1  0
 20 18  1  0
 22 20  2  0
M  END
$$$$
