DSV.pdb
     RDKit          3D

 22 21  0  0  1  0  0  0  0  0999 V2000
   11.0521  -18.2464   20.3702 N   0  0  0  0  0  0  0  0  0  0  0  0
   11.9225  -17.8046   21.4959 C   0  0  1  0  0  0  0  0  0  0  0  0
   12.7603  -16.6592   21.0014 C   0  0  0  0  0  0  0  0  0  0  0  0
   13.9795  -17.1210   20.3445 C   0  0  0  0  0  0  0  0  0  0  0  0
   14.5615  -18.1579   20.6421 O   0  0  0  0  0  0  0  0  0  0  0  0
   11.0005  -17.3040   22.5626 C   0  0  0  0  0  0  0  0  0  0  0  0
   10.5363  -16.1550   22.5083 O   0  0  0  0  0  0  0  0  0  0  0  0
   14.4996  -16.3222   19.3184 O   0  0  0  0  0  0  0  0  0  0  0  0
    9.7956  -19.8259   25.7347 O   0  0  0  0  0  0  0  0  0  0  0  0
    8.9321  -18.8608   25.2873 C   0  0  0  0  0  0  0  0  0  0  0  0
    9.6643  -17.6751   24.6382 C   0  0  2  0  0  0  0  0  0  0  0  0
   10.6362  -18.1386   23.6639 N   0  0  0  0  0  0  0  0  0  0  0  0
   10.3767  -17.0217   25.7688 C   0  0  0  0  0  0  0  0  0  0  0  0
   11.6184  -17.2381   25.9444 O   0  0  0  0  0  0  0  0  0  0  0  0
   10.5081  -13.6005   29.3002 C   0  0  0  0  0  0  0  0  0  0  0  0
    9.6577  -14.2974   28.2414 C   0  0  1  0  0  0  0  0  0  0  0  0
    9.3341  -13.3299   27.1447 C   0  0  0  0  0  0  0  0  0  0  0  0
   10.3708  -15.5314   27.7266 C   0  0  2  0  0  0  0  0  0  0  0  0
    9.6706  -16.1590   26.6498 N   0  0  0  0  0  0  0  0  0  0  0  0
   10.4946  -16.4515   28.8981 C   0  0  0  0  0  0  0  0  0  0  0  0
    9.7463  -17.5855   29.0467 O   0  0  0  0  0  0  0  0  0  0  0  0
   11.3481  -16.1294   29.7787 O   0  0  0  0  0  0  0  0  0  0  0  0
  2  1  1  6
  3  2  1  0
  3  4  1  0
  4  8  1  0
  5  4  2  0
  6  2  1  0
  7  6  2  0
  9 10  1  0
 11 10  1  1
 11 13  1  0
 11 12  1  0
 12  6  1  0
 13 19  1  0
 14 13  2  0
 16 15  1  1
 16 17  1  0
 18 16  1  0
 18 19  1  6
 20 21  1  0
 20 18  1  0
 22 20  2  0
M  END
$$$$
