DSV.pdb
     RDKit          3D

 22 21  0  0  1  0  0  0  0  0999 V2000
   10.1416  -18.0514   19.8474 N   0  0  0  0  0  0  0  0  0  0  0  0
   10.7447  -17.1895   20.9026 C   0  0  1  0  0  0  0  0  0  0  0  0
   11.6488  -16.2011   20.2215 C   0  0  0  0  0  0  0  0  0  0  0  0
   13.0560  -16.5624   20.3650 C   0  0  0  0  0  0  0  0  0  0  0  0
   13.4519  -17.4943   21.0558 O   0  0  0  0  0  0  0  0  0  0  0  0
    9.6083  -16.4496   21.5346 C   0  0  0  0  0  0  0  0  0  0  0  0
    8.9200  -15.6607   20.8693 O   0  0  0  0  0  0  0  0  0  0  0  0
   13.9929  -15.7903   19.6668 O   0  0  0  0  0  0  0  0  0  0  0  0
    7.7801  -17.8412   24.9887 O   0  0  0  0  0  0  0  0  0  0  0  0
    7.1651  -16.9992   24.0998 C   0  0  0  0  0  0  0  0  0  0  0  0
    8.1381  -15.9740   23.4951 C   0  0  2  0  0  0  0  0  0  0  0  0
    9.2930  -16.6367   22.9159 N   0  0  0  0  0  0  0  0  0  0  0  0
    8.5747  -15.1543   24.6573 C   0  0  0  0  0  0  0  0  0  0  0  0
    9.6955  -15.3894   25.2122 O   0  0  0  0  0  0  0  0  0  0  0  0
    7.4429  -11.1437   25.4594 C   0  0  0  0  0  0  0  0  0  0  0  0
    7.2582  -12.1775   26.5671 C   0  0  1  0  0  0  0  0  0  0  0  0
    5.8096  -12.5438   26.6717 C   0  0  0  0  0  0  0  0  0  0  0  0
    8.1384  -13.3838   26.3091 C   0  0  2  0  0  0  0  0  0  0  0  0
    7.7408  -14.1126   25.1452 N   0  0  0  0  0  0  0  0  0  0  0  0
    8.0405  -14.2320   27.5360 C   0  0  0  0  0  0  0  0  0  0  0  0
    7.4242  -15.4516   27.5604 O   0  0  0  0  0  0  0  0  0  0  0  0
    8.5680  -13.7616   28.5886 O   0  0  0  0  0  0  0  0  0  0  0  0
  2  1  1  6
  3  2  1  0
  3  4  1  0
  4  8  1  0
  5  4  2  0
  6  2  1  0
  7  6  2  0
  9 10  1  0
 11 10  1  1
 11 13  1  0
 11 12  1  0
 12  6  1  0
 13 19  1  0
 14 13  2  0
 16 15  1  6
 16 17  1  0
 18 16  1  0
 18 19  1  6
 20 21  1  0
 20 18  1  0
 22 20  2  0
M  END
$$$$
