DSV.pdb
     RDKit          3D

 22 21  0  0  1  0  0  0  0  0999 V2000
   12.1870  -18.8544   21.4865 N   0  0  0  0  0  0  0  0  0  0  0  0
   12.5392  -17.4083   21.4167 C   0  0  1  0  0  0  0  0  0  0  0  0
   12.3349  -16.9577   19.9977 C   0  0  0  0  0  0  0  0  0  0  0  0
   13.3314  -17.5291   19.0968 C   0  0  0  0  0  0  0  0  0  0  0  0
   14.1819  -18.3385   19.4488 O   0  0  0  0  0  0  0  0  0  0  0  0
   11.5580  -16.6986   22.2954 C   0  0  0  0  0  0  0  0  0  0  0  0
   11.5410  -15.4596   22.3514 O   0  0  0  0  0  0  0  0  0  0  0  0
   13.2992  -17.1185   17.7582 O   0  0  0  0  0  0  0  0  0  0  0  0
    9.2734  -18.9308   24.9263 O   0  0  0  0  0  0  0  0  0  0  0  0
    8.7366  -17.7015   24.6473 C   0  0  0  0  0  0  0  0  0  0  0  0
    9.7656  -16.7391   24.0323 C   0  0  2  0  0  0  0  0  0  0  0  0
   10.6217  -17.4330   23.0867 N   0  0  0  0  0  0  0  0  0  0  0  0
   10.5811  -16.2861   25.1911 C   0  0  0  0  0  0  0  0  0  0  0  0
   11.6251  -15.5853   24.9951 O   0  0  0  0  0  0  0  0  0  0  0  0
    8.7637  -14.3687   27.6467 C   0  0  0  0  0  0  0  0  0  0  0  0
   10.2874  -14.4548   27.6216 C   0  0  1  0  0  0  0  0  0  0  0  0
   10.8498  -13.6933   28.7824 C   0  0  0  0  0  0  0  0  0  0  0  0
   10.7296  -15.9042   27.6172 C   0  0  2  0  0  0  0  0  0  0  0  0
   10.1939  -16.6366   26.5126 N   0  0  0  0  0  0  0  0  0  0  0  0
   10.2683  -16.4770   28.9185 C   0  0  0  0  0  0  0  0  0  0  0  0
   11.0549  -16.5389   30.0344 O   0  0  0  0  0  0  0  0  0  0  0  0
    9.0802  -16.9187   28.9491 O   0  0  0  0  0  0  0  0  0  0  0  0
  2  1  1  6
  3  2  1  0
  3  4  1  0
  4  8  1  0
  5  4  2  0
  6  2  1  0
  7  6  2  0
  9 10  1  0
 11 10  1  1
 11 13  1  0
 11 12  1  0
 12  6  1  0
 13 19  1  0
 14 13  2  0
 16 15  1  1
 16 17  1  0
 18 16  1  0
 18 19  1  6
 20 21  1  0
 20 18  1  0
 22 20  2  0
M  END
$$$$
