DSV.pdb
     RDKit          3D

 22 21  0  0  1  0  0  0  0  0999 V2000
   10.0474  -17.5594   19.3852 N   0  0  0  0  0  0  0  0  0  0  0  0
   10.6037  -17.2978   20.7425 C   0  0  1  0  0  0  0  0  0  0  0  0
   11.8656  -16.4999   20.5715 C   0  0  0  0  0  0  0  0  0  0  0  0
   13.0070  -17.3502   20.2468 C   0  0  0  0  0  0  0  0  0  0  0  0
   12.9309  -18.5651   20.1031 O   0  0  0  0  0  0  0  0  0  0  0  0
    9.5910  -16.4549   21.4514 C   0  0  0  0  0  0  0  0  0  0  0  0
    9.5791  -15.2234   21.3035 O   0  0  0  0  0  0  0  0  0  0  0  0
   14.2513  -16.7261   20.0940 O   0  0  0  0  0  0  0  0  0  0  0  0
    6.9295  -17.9649   24.4657 O   0  0  0  0  0  0  0  0  0  0  0  0
    6.4614  -17.1161   23.4974 C   0  0  0  0  0  0  0  0  0  0  0  0
    7.5727  -16.2352   22.9038 C   0  0  2  0  0  0  0  0  0  0  0  0
    8.6181  -17.0509   22.3119 N   0  0  0  0  0  0  0  0  0  0  0  0
    8.1254  -15.5043   24.0757 C   0  0  0  0  0  0  0  0  0  0  0  0
    9.2588  -15.8347   24.5507 O   0  0  0  0  0  0  0  0  0  0  0  0
    5.7761  -12.9504   26.6331 C   0  0  0  0  0  0  0  0  0  0  0  0
    7.1318  -12.4825   26.1106 C   0  0  1  0  0  0  0  0  0  0  0  0
    7.7993  -11.6310   27.1465 C   0  0  0  0  0  0  0  0  0  0  0  0
    7.9794  -13.6743   25.7138 C   0  0  2  0  0  0  0  0  0  0  0  0
    7.3878  -14.4408   24.6621 N   0  0  0  0  0  0  0  0  0  0  0  0
    8.1397  -14.4937   26.9537 C   0  0  0  0  0  0  0  0  0  0  0  0
    9.1218  -14.2749   27.8785 O   0  0  0  0  0  0  0  0  0  0  0  0
    7.3025  -15.4313   27.1205 O   0  0  0  0  0  0  0  0  0  0  0  0
  2  1  1  6
  3  2  1  0
  3  4  1  0
  4  8  1  0
  5  4  2  0
  6  2  1  0
  7  6  2  0
  9 10  1  0
 11 10  1  1
 11 13  1  0
 11 12  1  0
 12  6  1  0
 13 19  1  0
 14 13  2  0
 16 15  1  1
 16 17  1  0
 18 16  1  0
 18 19  1  6
 20 21  1  0
 20 18  1  0
 22 20  2  0
M  END
$$$$
