LEV.pdb
     RDKit          3D

 25 24  0  0  1  0  0  0  0  0999 V2000
    9.6836  -13.0597   19.6117 C   0  0  0  0  0  0  0  0  0  0  0  0
    8.3219  -13.2766   19.1089 C   0  0  2  0  0  0  0  0  0  0  0  0
    7.5127  -11.9978   19.0988 C   0  0  0  0  0  0  0  0  0  0  0  0
    7.4967  -14.3264   19.8206 C   0  0  0  0  0  0  0  0  0  0  0  0
    8.2678  -15.5821   20.1145 C   0  0  2  0  0  0  0  0  0  0  0  0
    7.8017  -16.6718   19.2990 N   0  0  0  0  0  0  0  0  0  0  0  0
    8.1251  -15.9466   21.5507 C   0  0  0  0  0  0  0  0  0  0  0  0
    7.0043  -15.9915   22.1529 O   0  0  0  0  0  0  0  0  0  0  0  0
    9.2530  -16.2745   22.3563 N   0  0  0  0  0  0  0  0  0  0  0  0
    9.4169  -16.7151   23.6459 C   0  0  1  0  0  0  0  0  0  0  0  0
   10.5324  -17.6092   24.0621 C   0  0  0  0  0  0  0  0  0  0  0  0
   10.6776  -18.0844   25.4563 C   0  0  0  0  0  0  0  0  0  0  0  0
   11.4690  -19.3810   25.3504 C   0  0  0  0  0  0  0  0  0  0  0  0
   12.3958  -19.5046   24.5430 O   0  0  0  0  0  0  0  0  0  0  0  0
    9.4090  -15.5935   24.6368 C   0  0  0  0  0  0  0  0  0  0  0  0
   10.3399  -14.7284   24.4664 O   0  0  0  0  0  0  0  0  0  0  0  0
   11.1147  -20.4019   26.1878 O   0  0  0  0  0  0  0  0  0  0  0  0
    6.7114  -13.0506   25.4241 C   0  0  0  0  0  0  0  0  0  0  0  0
    7.2692  -13.5852   26.7352 C   0  0  2  0  0  0  0  0  0  0  0  0
    7.4495  -12.3514   27.6058 C   0  0  0  0  0  0  0  0  0  0  0  0
    8.6550  -14.1901   26.5282 C   0  0  2  0  0  0  0  0  0  0  0  0
    8.5355  -15.3806   25.6823 N   0  0  0  0  0  0  0  0  0  0  0  0
    9.2958  -14.5309   27.7783 C   0  0  0  0  0  0  0  0  0  0  0  0
    9.9804  -13.5618   28.5278 O   0  0  0  0  0  0  0  0  0  0  0  0
    9.2423  -15.7197   28.2147 O   0  0  0  0  0  0  0  0  0  0  0  0
  2  1  1  1
  2  3  1  0
  4  5  1  0
  4  2  1  0
  5  7  1  0
  5  6  1  6
  7  8  2  0
  9  7  1  0
  9 10  1  0
 11 12  1  0
 10 11  1  6
 12 13  1  0
 13 17  1  0
 13 14  2  0
 15 10  1  0
 15 16  2  0
 19 18  1  6
 19 21  1  0
 20 19  1  0
 21 22  1  6
 21 23  1  0
 22 15  1  0
 23 25  2  0
 23 24  1  0
M  END
$$$$
