LEV.pdb
     RDKit          3D

 25 24  0  0  1  0  0  0  0  0999 V2000
    9.4177  -12.8571   19.6621 C   0  0  0  0  0  0  0  0  0  0  0  0
    8.0391  -13.0763   19.2088 C   0  0  2  0  0  0  0  0  0  0  0  0
    7.2507  -11.7858   19.1524 C   0  0  0  0  0  0  0  0  0  0  0  0
    7.2174  -14.0722   19.9978 C   0  0  0  0  0  0  0  0  0  0  0  0
    7.9301  -15.3754   20.2245 C   0  0  2  0  0  0  0  0  0  0  0  0
    7.4595  -16.3820   19.3107 N   0  0  0  0  0  0  0  0  0  0  0  0
    7.7150  -15.8407   21.6220 C   0  0  0  0  0  0  0  0  0  0  0  0
    6.5640  -16.0841   22.1088 O   0  0  0  0  0  0  0  0  0  0  0  0
    8.8021  -16.0472   22.5189 N   0  0  0  0  0  0  0  0  0  0  0  0
    8.9051  -16.4524   23.8263 C   0  0  1  0  0  0  0  0  0  0  0  0
    9.8658  -17.4961   24.2788 C   0  0  0  0  0  0  0  0  0  0  0  0
    9.9178  -17.9571   25.6842 C   0  0  0  0  0  0  0  0  0  0  0  0
   11.0436  -18.9816   25.7217 C   0  0  0  0  0  0  0  0  0  0  0  0
   10.9345  -20.0778   25.1627 O   0  0  0  0  0  0  0  0  0  0  0  0
    9.0877  -15.3025   24.7666 C   0  0  0  0  0  0  0  0  0  0  0  0
   10.1714  -14.6402   24.5908 O   0  0  0  0  0  0  0  0  0  0  0  0
   12.1821  -18.6377   26.3960 O   0  0  0  0  0  0  0  0  0  0  0  0
    6.1471  -13.6217   27.1382 C   0  0  0  0  0  0  0  0  0  0  0  0
    7.3765  -12.8171   26.7423 C   0  0  2  0  0  0  0  0  0  0  0  0
    7.0577  -12.2900   25.3519 C   0  0  0  0  0  0  0  0  0  0  0  0
    8.5968  -13.7236   26.6055 C   0  0  2  0  0  0  0  0  0  0  0  0
    8.2452  -14.8759   25.7715 N   0  0  0  0  0  0  0  0  0  0  0  0
    9.0931  -14.1707   27.8873 C   0  0  0  0  0  0  0  0  0  0  0  0
    9.0693  -15.5294   28.2381 O   0  0  0  0  0  0  0  0  0  0  0  0
    9.5617  -13.3315   28.7135 O   0  0  0  0  0  0  0  0  0  0  0  0
  2  1  1  1
  2  3  1  0
  4  5  1  0
  4  2  1  0
  5  7  1  0
  5  6  1  6
  7  8  2  0
  9  7  1  0
  9 10  1  0
 11 12  1  0
 10 11  1  6
 12 13  1  0
 13 17  1  0
 13 14  2  0
 15 10  1  0
 15 16  2  0
 19 18  1  6
 19 21  1  0
 20 19  1  0
 21 22  1  6
 21 23  1  0
 22 15  1  0
 23 25  2  0
 23 24  1  0
M  END
$$$$
