LEV.pdb
     RDKit          3D

 25 24  0  0  1  0  0  0  0  0999 V2000
    7.9196  -12.9732   24.9280 C   0  0  0  0  0  0  0  0  0  0  0  0
    6.4792  -13.0208   25.2059 C   0  0  2  0  0  0  0  0  0  0  0  0
    6.1092  -12.1896   26.4152 C   0  0  0  0  0  0  0  0  0  0  0  0
    5.8722  -14.3932   25.3995 C   0  0  0  0  0  0  0  0  0  0  0  0
    6.2652  -15.3678   24.3256 C   0  0  2  0  0  0  0  0  0  0  0  0
    5.2520  -16.3743   24.1519 N   0  0  0  0  0  0  0  0  0  0  0  0
    7.5548  -16.0236   24.6759 C   0  0  0  0  0  0  0  0  0  0  0  0
    7.7480  -16.6478   25.7686 O   0  0  0  0  0  0  0  0  0  0  0  0
    8.6740  -15.9944   23.7953 N   0  0  0  0  0  0  0  0  0  0  0  0
    9.9705  -16.4382   23.8745 C   0  0  1  0  0  0  0  0  0  0  0  0
   10.9815  -16.1835   22.8115 C   0  0  0  0  0  0  0  0  0  0  0  0
   12.3974  -16.5868   22.9635 C   0  0  0  0  0  0  0  0  0  0  0  0
   12.6451  -17.5866   21.8422 C   0  0  0  0  0  0  0  0  0  0  0  0
   12.1418  -17.4365   20.7240 O   0  0  0  0  0  0  0  0  0  0  0  0
   10.6298  -16.0453   25.1594 C   0  0  0  0  0  0  0  0  0  0  0  0
   11.1423  -14.8700   25.1551 O   0  0  0  0  0  0  0  0  0  0  0  0
   13.4504  -18.6554   22.1217 O   0  0  0  0  0  0  0  0  0  0  0  0
   10.2805  -13.8764   27.1063 C   0  0  0  0  0  0  0  0  0  0  0  0
   10.2289  -15.0982   28.0119 C   0  0  2  0  0  0  0  0  0  0  0  0
   10.7031  -14.5919   29.3653 C   0  0  0  0  0  0  0  0  0  0  0  0
   11.2319  -16.1541   27.5555 C   0  0  2  0  0  0  0  0  0  0  0  0
   10.7426  -16.7771   26.3227 N   0  0  0  0  0  0  0  0  0  0  0  0
   11.4622  -17.1630   28.5647 C   0  0  0  0  0  0  0  0  0  0  0  0
   12.3732  -16.9456   29.6099 O   0  0  0  0  0  0  0  0  0  0  0  0
   10.8348  -18.2632   28.5160 O   0  0  0  0  0  0  0  0  0  0  0  0
  2  1  1  1
  2  3  1  0
  4  5  1  0
  4  2  1  0
  5  7  1  0
  5  6  1  1
  7  8  2  0
  9  7  1  0
  9 10  1  0
 11 12  1  0
 10 11  1  6
 12 13  1  0
 13 17  1  0
 13 14  2  0
 15 10  1  0
 15 16  2  0
 19 18  1  6
 19 21  1  0
 20 19  1  0
 21 22  1  6
 21 23  1  0
 22 15  1  0
 23 25  2  0
 23 24  1  0
M  END
$$$$
