LEV.pdb
     RDKit          3D

 25 24  0  0  1  0  0  0  0  0999 V2000
    6.3249  -12.2659   25.6245 C   0  0  0  0  0  0  0  0  0  0  0  0
    7.1009  -12.9560   24.5873 C   0  0  2  0  0  0  0  0  0  0  0  0
    7.9602  -11.9970   23.7923 C   0  0  0  0  0  0  0  0  0  0  0  0
    6.3165  -13.7867   23.5953 C   0  0  0  0  0  0  0  0  0  0  0  0
    7.1746  -14.7506   22.8258 C   0  0  2  0  0  0  0  0  0  0  0  0
    6.3845  -15.5041   21.8888 N   0  0  0  0  0  0  0  0  0  0  0  0
    7.8564  -15.6880   23.7597 C   0  0  0  0  0  0  0  0  0  0  0  0
    7.3089  -16.1469   24.8135 O   0  0  0  0  0  0  0  0  0  0  0  0
    9.1876  -16.1393   23.5294 N   0  0  0  0  0  0  0  0  0  0  0  0
   10.0281  -17.0172   24.1673 C   0  0  1  0  0  0  0  0  0  0  0  0
   11.1724  -17.6842   23.4872 C   0  0  0  0  0  0  0  0  0  0  0  0
   12.0775  -16.9506   22.5745 C   0  0  0  0  0  0  0  0  0  0  0  0
   12.9601  -18.0221   21.9490 C   0  0  0  0  0  0  0  0  0  0  0  0
   13.8584  -17.7312   21.1525 O   0  0  0  0  0  0  0  0  0  0  0  0
   10.5876  -16.4515   25.4350 C   0  0  0  0  0  0  0  0  0  0  0  0
   11.4216  -15.4924   25.2653 O   0  0  0  0  0  0  0  0  0  0  0  0
   12.7204  -19.3195   22.3074 O   0  0  0  0  0  0  0  0  0  0  0  0
   10.1598  -13.9233   27.5163 C   0  0  0  0  0  0  0  0  0  0  0  0
   10.2322  -15.1118   28.4638 C   0  0  2  0  0  0  0  0  0  0  0  0
   11.0075  -14.5962   29.6662 C   0  0  0  0  0  0  0  0  0  0  0  0
   11.0569  -16.2420   27.8539 C   0  0  2  0  0  0  0  0  0  0  0  0
   10.3138  -16.8253   26.7337 N   0  0  0  0  0  0  0  0  0  0  0  0
   11.3825  -17.2657   28.8211 C   0  0  0  0  0  0  0  0  0  0  0  0
   12.4101  -17.0750   29.7577 O   0  0  0  0  0  0  0  0  0  0  0  0
   10.7342  -18.3548   28.8341 O   0  0  0  0  0  0  0  0  0  0  0  0
  2  1  1  1
  2  3  1  0
  4  5  1  0
  4  2  1  0
  5  7  1  0
  5  6  1  6
  7  8  2  0
  9  7  1  0
  9 10  1  0
 11 12  1  0
 10 11  1  6
 12 13  1  0
 13 17  1  0
 13 14  2  0
 15 10  1  0
 15 16  2  0
 19 18  1  6
 19 21  1  0
 20 19  1  0
 21 22  1  6
 21 23  1  0
 22 15  1  0
 23 25  2  0
 23 24  1  0
M  END
$$$$
