LEV.pdb
     RDKit          3D

 25 24  0  0  1  0  0  0  0  0999 V2000
    7.3644  -12.1236   20.7731 C   0  0  0  0  0  0  0  0  0  0  0  0
    8.0220  -13.4105   20.5168 C   0  0  2  0  0  0  0  0  0  0  0  0
    9.0232  -13.3181   19.3857 C   0  0  0  0  0  0  0  0  0  0  0  0
    7.1167  -14.5865   20.2223 C   0  0  0  0  0  0  0  0  0  0  0  0
    7.8204  -15.9105   20.3202 C   0  0  2  0  0  0  0  0  0  0  0  0
    7.0728  -16.9387   19.6468 N   0  0  0  0  0  0  0  0  0  0  0  0
    8.0022  -16.2898   21.7481 C   0  0  0  0  0  0  0  0  0  0  0  0
    7.0319  -16.4858   22.5487 O   0  0  0  0  0  0  0  0  0  0  0  0
    9.2957  -16.4611   22.3193 N   0  0  0  0  0  0  0  0  0  0  0  0
    9.7577  -16.8532   23.5509 C   0  0  1  0  0  0  0  0  0  0  0  0
   11.0587  -17.5510   23.7448 C   0  0  0  0  0  0  0  0  0  0  0  0
   11.5246  -17.9837   25.0813 C   0  0  0  0  0  0  0  0  0  0  0  0
   12.8606  -18.6695   24.8302 C   0  0  0  0  0  0  0  0  0  0  0  0
   13.8675  -18.0233   24.5226 O   0  0  0  0  0  0  0  0  0  0  0  0
    9.7486  -15.7350   24.5456 C   0  0  0  0  0  0  0  0  0  0  0  0
   10.4920  -14.7389   24.2309 O   0  0  0  0  0  0  0  0  0  0  0  0
   12.9018  -20.0296   24.9625 O   0  0  0  0  0  0  0  0  0  0  0  0
    7.4304  -13.1677   25.3152 C   0  0  0  0  0  0  0  0  0  0  0  0
    7.8075  -13.7682   26.6616 C   0  0  2  0  0  0  0  0  0  0  0  0
    7.9756  -12.5692   27.5820 C   0  0  0  0  0  0  0  0  0  0  0  0
    9.1640  -14.4634   26.5844 C   0  0  2  0  0  0  0  0  0  0  0  0
    9.0464  -15.6474   25.7291 N   0  0  0  0  0  0  0  0  0  0  0  0
    9.6614  -14.8397   27.8885 C   0  0  0  0  0  0  0  0  0  0  0  0
   10.2761  -13.8975   28.7275 O   0  0  0  0  0  0  0  0  0  0  0  0
    9.5430  -16.0357   28.2912 O   0  0  0  0  0  0  0  0  0  0  0  0
  2  1  1  6
  2  3  1  0
  4  5  1  0
  4  2  1  0
  5  7  1  0
  5  6  1  6
  7  8  2  0
  9  7  1  0
  9 10  1  0
 11 12  1  0
 10 11  1  6
 12 13  1  0
 13 17  1  0
 13 14  2  0
 15 10  1  0
 15 16  2  0
 19 18  1  6
 19 21  1  0
 20 19  1  0
 21 22  1  6
 21 23  1  0
 22 15  1  0
 23 25  2  0
 23 24  1  0
M  END
$$$$
