LEV.pdb
     RDKit          3D

 25 24  0  0  1  0  0  0  0  0999 V2000
    9.6710  -13.8090   19.1733 C   0  0  0  0  0  0  0  0  0  0  0  0
    8.2373  -13.7010   18.8782 C   0  0  2  0  0  0  0  0  0  0  0  0
    7.7858  -12.2594   18.7883 C   0  0  0  0  0  0  0  0  0  0  0  0
    7.2957  -14.4097   19.8272 C   0  0  0  0  0  0  0  0  0  0  0  0
    7.7176  -15.8191   20.1323 C   0  0  2  0  0  0  0  0  0  0  0  0
    6.8523  -16.7653   19.4798 N   0  0  0  0  0  0  0  0  0  0  0  0
    7.6869  -16.0565   21.6015 C   0  0  0  0  0  0  0  0  0  0  0  0
    6.6241  -15.9874   22.2991 O   0  0  0  0  0  0  0  0  0  0  0  0
    8.8649  -16.3824   22.3329 N   0  0  0  0  0  0  0  0  0  0  0  0
    9.1179  -16.7590   23.6283 C   0  0  1  0  0  0  0  0  0  0  0  0
   10.2611  -17.6331   24.0105 C   0  0  0  0  0  0  0  0  0  0  0  0
   10.4764  -18.0768   25.4059 C   0  0  0  0  0  0  0  0  0  0  0  0
   11.7182  -18.9563   25.3529 C   0  0  0  0  0  0  0  0  0  0  0  0
   11.6419  -20.1619   25.0945 O   0  0  0  0  0  0  0  0  0  0  0  0
    9.1760  -15.5898   24.5608 C   0  0  0  0  0  0  0  0  0  0  0  0
   10.0986  -14.7413   24.2909 O   0  0  0  0  0  0  0  0  0  0  0  0
   12.9220  -18.3568   25.5992 O   0  0  0  0  0  0  0  0  0  0  0  0
    6.5199  -13.0316   25.3508 C   0  0  0  0  0  0  0  0  0  0  0  0
    7.1636  -13.4612   26.6610 C   0  0  2  0  0  0  0  0  0  0  0  0
    7.3945  -12.1626   27.4181 C   0  0  0  0  0  0  0  0  0  0  0  0
    8.5358  -14.0817   26.4132 C   0  0  2  0  0  0  0  0  0  0  0  0
    8.3695  -15.3190   25.6460 N   0  0  0  0  0  0  0  0  0  0  0  0
    9.2451  -14.3513   27.6435 C   0  0  0  0  0  0  0  0  0  0  0  0
    9.9068  -13.3258   28.3364 O   0  0  0  0  0  0  0  0  0  0  0  0
    9.2736  -15.5279   28.1140 O   0  0  0  0  0  0  0  0  0  0  0  0
  2  1  1  1
  2  3  1  0
  4  5  1  0
  4  2  1  0
  5  7  1  0
  5  6  1  6
  7  8  2  0
  9  7  1  0
  9 10  1  0
 11 12  1  0
 10 11  1  6
 12 13  1  0
 13 17  1  0
 13 14  2  0
 15 10  1  0
 15 16  2  0
 19 18  1  6
 19 21  1  0
 20 19  1  0
 21 22  1  1
 21 23  1  0
 22 15  1  0
 23 25  2  0
 23 24  1  0
M  END
$$$$
