LEV.pdb
     RDKit          3D

 25 24  0  0  1  0  0  0  0  0999 V2000
    9.5589  -13.0578   19.0167 C   0  0  0  0  0  0  0  0  0  0  0  0
    8.0951  -13.1651   19.0236 C   0  0  2  0  0  0  0  0  0  0  0  0
    7.4286  -11.8075   18.9683 C   0  0  0  0  0  0  0  0  0  0  0  0
    7.4774  -13.9237   20.1779 C   0  0  0  0  0  0  0  0  0  0  0  0
    8.1502  -15.2404   20.4446 C   0  0  2  0  0  0  0  0  0  0  0  0
    7.5870  -16.2788   19.6234 N   0  0  0  0  0  0  0  0  0  0  0  0
    7.9999  -15.6115   21.8783 C   0  0  0  0  0  0  0  0  0  0  0  0
    6.8830  -15.6043   22.4893 O   0  0  0  0  0  0  0  0  0  0  0  0
    9.1155  -16.0056   22.6714 N   0  0  0  0  0  0  0  0  0  0  0  0
    9.2642  -16.4867   23.9483 C   0  0  1  0  0  0  0  0  0  0  0  0
   10.2968  -17.4926   24.3211 C   0  0  0  0  0  0  0  0  0  0  0  0
   10.4195  -18.0159   25.7001 C   0  0  0  0  0  0  0  0  0  0  0  0
   11.5442  -19.0401   25.6345 C   0  0  0  0  0  0  0  0  0  0  0  0
   12.6188  -18.8532   26.2145 O   0  0  0  0  0  0  0  0  0  0  0  0
    9.3869  -15.3903   24.9597 C   0  0  0  0  0  0  0  0  0  0  0  0
   10.4105  -14.6345   24.8013 O   0  0  0  0  0  0  0  0  0  0  0  0
   11.3154  -20.1770   24.9106 O   0  0  0  0  0  0  0  0  0  0  0  0
    6.4140  -13.9484   27.4815 C   0  0  0  0  0  0  0  0  0  0  0  0
    7.6395  -13.1239   27.1152 C   0  0  2  0  0  0  0  0  0  0  0  0
    7.3197  -12.5518   25.7429 C   0  0  0  0  0  0  0  0  0  0  0  0
    8.8651  -14.0183   26.9499 C   0  0  2  0  0  0  0  0  0  0  0  0
    8.5457  -15.0985   26.0126 N   0  0  0  0  0  0  0  0  0  0  0  0
    9.3147  -14.5690   28.2084 C   0  0  0  0  0  0  0  0  0  0  0  0
    9.8715  -13.7465   29.2000 O   0  0  0  0  0  0  0  0  0  0  0  0
    9.2066  -15.8121   28.4312 O   0  0  0  0  0  0  0  0  0  0  0  0
  2  1  1  1
  2  3  1  0
  4  5  1  0
  4  2  1  0
  5  7  1  0
  5  6  1  6
  7  8  2  0
  9  7  1  0
  9 10  1  0
 11 12  1  0
 10 11  1  6
 12 13  1  0
 13 17  1  0
 13 14  2  0
 15 10  1  0
 15 16  2  0
 19 18  1  6
 19 21  1  0
 20 19  1  0
 21 22  1  6
 21 23  1  0
 22 15  1  0
 23 25  2  0
 23 24  1  0
M  END
$$$$
