LEV.pdb
     RDKit          3D

 25 24  0  0  1  0  0  0  0  0999 V2000
    9.7196  -13.9833   19.7234 C   0  0  0  0  0  0  0  0  0  0  0  0
    8.4676  -13.8558   18.9682 C   0  0  2  0  0  0  0  0  0  0  0  0
    8.0966  -12.4082   18.7292 C   0  0  0  0  0  0  0  0  0  0  0  0
    7.2520  -14.5420   19.5520 C   0  0  0  0  0  0  0  0  0  0  0  0
    7.5764  -15.8500   20.2165 C   0  0  2  0  0  0  0  0  0  0  0  0
    7.0693  -16.9548   19.4471 N   0  0  0  0  0  0  0  0  0  0  0  0
    6.9872  -15.8906   21.5829 C   0  0  0  0  0  0  0  0  0  0  0  0
    5.8348  -15.4267   21.8616 O   0  0  0  0  0  0  0  0  0  0  0  0
    7.6870  -16.4615   22.6842 N   0  0  0  0  0  0  0  0  0  0  0  0
    7.3626  -16.7391   23.9888 C   0  0  1  0  0  0  0  0  0  0  0  0
    7.6188  -18.0608   24.6248 C   0  0  0  0  0  0  0  0  0  0  0  0
    7.2635  -18.3340   26.0354 C   0  0  0  0  0  0  0  0  0  0  0  0
    7.7125  -19.7674   26.2845 C   0  0  0  0  0  0  0  0  0  0  0  0
    8.8897  -20.1087   26.1299 O   0  0  0  0  0  0  0  0  0  0  0  0
    7.9089  -15.7217   24.9408 C   0  0  0  0  0  0  0  0  0  0  0  0
    9.1383  -15.4161   24.7429 O   0  0  0  0  0  0  0  0  0  0  0  0
    6.7607  -20.6610   26.6901 O   0  0  0  0  0  0  0  0  0  0  0  0
    6.3594  -12.2655   25.8870 C   0  0  0  0  0  0  0  0  0  0  0  0
    6.9022  -12.9645   27.1250 C   0  0  2  0  0  0  0  0  0  0  0  0
    7.6504  -11.8776   27.8811 C   0  0  0  0  0  0  0  0  0  0  0  0
    7.9287  -14.0269   26.7415 C   0  0  2  0  0  0  0  0  0  0  0  0
    7.2605  -15.0832   25.9768 N   0  0  0  0  0  0  0  0  0  0  0  0
    8.5896  -14.5916   27.8964 C   0  0  0  0  0  0  0  0  0  0  0  0
    9.6145  -13.8953   28.5555 O   0  0  0  0  0  0  0  0  0  0  0  0
    8.2439  -15.7312   28.3304 O   0  0  0  0  0  0  0  0  0  0  0  0
  2  1  1  1
  2  3  1  0
  4  5  1  0
  4  2  1  0
  5  7  1  0
  5  6  1  6
  7  8  2  0
  9  7  1  0
  9 10  1  0
 11 12  1  0
 10 11  1  1
 12 13  1  0
 13 17  1  0
 13 14  2  0
 15 10  1  0
 15 16  2  0
 19 18  1  6
 19 21  1  0
 20 19  1  0
 21 22  1  1
 21 23  1  0
 22 15  1  0
 23 25  2  0
 23 24  1  0
M  END
$$$$
