HCF.pdb
     RDKit          3D

 28 29  0  0  1  0  0  0  0  0999 V2000
    9.2719  -18.4321   18.9664 N   0  0  0  0  0  0  0  0  0  0  0  0
    8.6828  -18.7390   20.2276 C   0  0  1  0  0  0  0  0  0  0  0  0
    8.9482  -20.1554   20.6786 C   0  0  0  0  0  0  0  0  0  0  0  0
    8.2887  -21.0781   19.7320 C   0  0  0  0  0  0  0  0  0  0  0  0
    7.0953  -20.7947   19.0636 C   0  0  0  0  0  0  0  0  0  0  0  0
    6.8135  -21.8742   18.2927 N   0  0  0  0  0  0  0  0  0  0  0  0
    7.7661  -22.7928   18.4558 C   0  0  0  0  0  0  0  0  0  0  0  0
    8.6450  -22.2907   19.3282 N   0  0  0  0  0  0  0  0  0  0  0  0
    9.0886  -17.8089   21.3066 C   0  0  0  0  0  0  0  0  0  0  0  0
   10.0952  -17.0612   21.2208 O   0  0  0  0  0  0  0  0  0  0  0  0
    8.3075  -17.7586   22.4908 N   0  0  0  0  0  0  0  0  0  0  0  0
    8.6498  -16.7852   23.5098 C   0  0  1  0  0  0  0  0  0  0  0  0
    7.4328  -16.2503   24.2259 C   0  0  0  0  0  0  0  0  0  0  0  0
    6.6360  -17.5343   25.2269 S   0  0  0  0  0  0  0  0  0  0  0  0
    9.4924  -17.4678   24.5311 C   0  0  0  0  0  0  0  0  0  0  0  0
    9.5115  -18.7183   24.6673 O   0  0  0  0  0  0  0  0  0  0  0  0
   10.3181  -16.7085   25.4014 N   0  0  0  0  0  0  0  0  0  0  0  0
   11.1722  -17.3892   26.3526 C   0  0  1  0  0  0  0  0  0  0  0  0
   12.0359  -16.3382   26.9985 C   0  0  0  0  0  0  0  0  0  0  0  0
   11.3117  -15.4031   27.8602 C   0  0  0  0  0  0  0  0  0  0  0  0
   11.1976  -15.5395   29.2246 C   0  0  0  0  0  0  0  0  0  0  0  0
   10.5121  -14.6374   29.9770 C   0  0  0  0  0  0  0  0  0  0  0  0
    9.9007  -13.5410   29.3869 C   0  0  0  0  0  0  0  0  0  0  0  0
   10.0021  -13.3865   28.0304 C   0  0  0  0  0  0  0  0  0  0  0  0
   10.7022  -14.3114   27.2779 C   0  0  0  0  0  0  0  0  0  0  0  0
   10.3655  -18.1689   27.3001 C   0  0  0  0  0  0  0  0  0  0  0  0
   10.9415  -18.9737   28.0730 O   0  0  0  0  0  0  0  0  0  0  0  0
    8.9859  -18.0665   27.3924 O   0  0  0  0  0  0  0  0  0  0  0  0
  2  1  1  6
  3  4  1  0
  3  2  1  0
  4  5  2  0
  5  6  1  0
  7  6  1  0
  8  4  1  0
  8  7  2  0
  9  2  1  0
  9 10  2  0
 11  9  1  0
 12 11  1  0
 12 15  1  0
 12 13  1  1
 14 13  1  0
 15 17  1  0
 16 15  2  0
 17 18  1  0
 18 26  1  0
 19 20  1  0
 18 19  1  1
 20 25  1  0
 21 20  2  0
 21 22  1  0
 22 23  2  0
 23 24  1  0
 25 24  2  0
 26 27  2  0
 26 28  1  0
M  END
$$$$
