HCF.pdb
     RDKit          3D

 28 29  0  0  1  0  0  0  0  0999 V2000
    7.4768  -17.4337   19.2171 N   0  0  0  0  0  0  0  0  0  0  0  0
    7.3044  -16.2620   20.0105 C   0  0  1  0  0  0  0  0  0  0  0  0
    6.4240  -15.2249   19.3553 C   0  0  0  0  0  0  0  0  0  0  0  0
    7.2342  -14.4800   18.3699 C   0  0  0  0  0  0  0  0  0  0  0  0
    8.5921  -14.7100   18.1370 C   0  0  0  0  0  0  0  0  0  0  0  0
    8.9762  -13.8381   17.1720 N   0  0  0  0  0  0  0  0  0  0  0  0
    7.9305  -13.0950   16.8081 C   0  0  0  0  0  0  0  0  0  0  0  0
    6.8912  -13.4999   17.5438 N   0  0  0  0  0  0  0  0  0  0  0  0
    6.7832  -16.5440   21.3680 C   0  0  0  0  0  0  0  0  0  0  0  0
    5.6411  -17.0266   21.5742 O   0  0  0  0  0  0  0  0  0  0  0  0
    7.6084  -16.2569   22.4867 N   0  0  0  0  0  0  0  0  0  0  0  0
    7.2713  -16.8437   23.7693 C   0  0  1  0  0  0  0  0  0  0  0  0
    7.1751  -18.3494   23.7053 C   0  0  0  0  0  0  0  0  0  0  0  0
    6.8417  -19.0615   25.3384 S   0  0  0  0  0  0  0  0  0  0  0  0
    8.3660  -16.5165   24.7250 C   0  0  0  0  0  0  0  0  0  0  0  0
    9.5803  -16.7010   24.4528 O   0  0  0  0  0  0  0  0  0  0  0  0
    8.0634  -15.9737   26.0016 N   0  0  0  0  0  0  0  0  0  0  0  0
    9.1409  -15.5908   26.8904 C   0  0  1  0  0  0  0  0  0  0  0  0
    8.6240  -14.4670   27.7492 C   0  0  0  0  0  0  0  0  0  0  0  0
    8.0056  -13.3693   27.0048 C   0  0  0  0  0  0  0  0  0  0  0  0
    8.6883  -12.5336   26.1510 C   0  0  0  0  0  0  0  0  0  0  0  0
    8.0608  -11.5286   25.4830 C   0  0  0  0  0  0  0  0  0  0  0  0
    6.7000  -11.3125   25.6430 C   0  0  0  0  0  0  0  0  0  0  0  0
    6.0019  -12.1329   26.4881 C   0  0  0  0  0  0  0  0  0  0  0  0
    6.6528  -13.1505   27.1606 C   0  0  0  0  0  0  0  0  0  0  0  0
    9.6191  -16.7544   27.6478 C   0  0  0  0  0  0  0  0  0  0  0  0
    8.9824  -17.8341   27.5729 O   0  0  0  0  0  0  0  0  0  0  0  0
   10.7483  -16.7298   28.4519 O   0  0  0  0  0  0  0  0  0  0  0  0
  2  1  1  6
  3  4  1  0
  3  2  1  0
  4  5  2  0
  5  6  1  0
  7  6  1  0
  8  4  1  0
  8  7  2  0
  9  2  1  0
  9 10  2  0
 11  9  1  0
 12 11  1  0
 12 15  1  0
 12 13  1  6
 14 13  1  0
 15 17  1  0
 16 15  2  0
 17 18  1  0
 18 26  1  0
 19 20  1  0
 18 19  1  1
 20 25  1  0
 21 20  2  0
 21 22  1  0
 22 23  2  0
 23 24  1  0
 25 24  2  0
 26 27  2  0
 26 28  1  0
M  END
$$$$
