HCF.pdb
     RDKit          3D

 28 29  0  0  1  0  0  0  0  0999 V2000
    9.3467  -17.8152   15.9681 N   0  0  0  0  0  0  0  0  0  0  0  0
    9.0367  -16.8226   16.9431 C   0  0  1  0  0  0  0  0  0  0  0  0
    7.7780  -16.0511   16.6263 C   0  0  0  0  0  0  0  0  0  0  0  0
    7.9888  -15.3116   15.3650 C   0  0  0  0  0  0  0  0  0  0  0  0
    8.8350  -14.2078   15.2351 C   0  0  0  0  0  0  0  0  0  0  0  0
    8.7620  -13.8097   13.9409 N   0  0  0  0  0  0  0  0  0  0  0  0
    7.9217  -14.6076   13.2812 C   0  0  0  0  0  0  0  0  0  0  0  0
    7.4677  -15.5057   14.1603 N   0  0  0  0  0  0  0  0  0  0  0  0
    8.9337  -17.3631   18.3184 C   0  0  0  0  0  0  0  0  0  0  0  0
    7.8567  -17.7909   18.8049 O   0  0  0  0  0  0  0  0  0  0  0  0
   10.1018  -17.4000   19.1240 N   0  0  0  0  0  0  0  0  0  0  0  0
   10.0182  -17.9933   20.4447 C   0  0  1  0  0  0  0  0  0  0  0  0
   11.0790  -19.0439   20.6711 C   0  0  0  0  0  0  0  0  0  0  0  0
   11.1190  -19.5820   22.4015 S   0  0  0  0  0  0  0  0  0  0  0  0
   10.2501  -16.9158   21.4467 C   0  0  0  0  0  0  0  0  0  0  0  0
   11.2422  -16.1441   21.3942 O   0  0  0  0  0  0  0  0  0  0  0  0
    9.3359  -16.7239   22.5160 N   0  0  0  0  0  0  0  0  0  0  0  0
    9.5478  -15.6403   23.4532 C   0  0  1  0  0  0  0  0  0  0  0  0
    8.2699  -14.8452   23.5024 C   0  0  0  0  0  0  0  0  0  0  0  0
    7.8536  -14.2855   22.2160 C   0  0  0  0  0  0  0  0  0  0  0  0
    6.9656  -14.8945   21.3593 C   0  0  0  0  0  0  0  0  0  0  0  0
    6.6132  -14.3265   20.1748 C   0  0  0  0  0  0  0  0  0  0  0  0
    7.1430  -13.1039   19.7894 C   0  0  0  0  0  0  0  0  0  0  0  0
    8.0285  -12.4809   20.6274 C   0  0  0  0  0  0  0  0  0  0  0  0
    8.3777  -13.0699   21.8285 C   0  0  0  0  0  0  0  0  0  0  0  0
    9.9790  -16.1651   24.7552 C   0  0  0  0  0  0  0  0  0  0  0  0
   10.3319  -15.3588   25.6509 O   0  0  0  0  0  0  0  0  0  0  0  0
   10.0194  -17.5177   25.0572 O   0  0  0  0  0  0  0  0  0  0  0  0
  2  1  1  6
  3  4  1  0
  3  2  1  0
  4  5  2  0
  5  6  1  0
  7  6  1  0
  8  4  1  0
  8  7  2  0
  9  2  1  0
  9 10  2  0
 11  9  1  0
 12 11  1  0
 12 15  1  0
 12 13  1  6
 14 13  1  0
 15 17  1  0
 16 15  2  0
 17 18  1  0
 18 26  1  0
 19 20  1  0
 18 19  1  1
 20 25  1  0
 21 20  2  0
 21 22  1  0
 22 23  2  0
 23 24  1  0
 25 24  2  0
 26 27  2  0
 26 28  1  0
M  END
$$$$
