HCF.pdb
     RDKit          3D

 28 29  0  0  1  0  0  0  0  0999 V2000
    8.8166  -17.1128   19.7043 N   0  0  0  0  0  0  0  0  0  0  0  0
    8.7220  -16.2918   20.8657 C   0  0  1  0  0  0  0  0  0  0  0  0
    7.5254  -15.3710   20.8466 C   0  0  0  0  0  0  0  0  0  0  0  0
    7.8420  -14.2118   19.9873 C   0  0  0  0  0  0  0  0  0  0  0  0
    9.0769  -14.0102   19.3664 C   0  0  0  0  0  0  0  0  0  0  0  0
    8.9799  -12.8497   18.6715 N   0  0  0  0  0  0  0  0  0  0  0  0
    7.7594  -12.3385   18.8359 C   0  0  0  0  0  0  0  0  0  0  0  0
    7.0909  -13.1770   19.6331 N   0  0  0  0  0  0  0  0  0  0  0  0
    8.7126  -17.0630   22.1303 C   0  0  0  0  0  0  0  0  0  0  0  0
    8.1632  -18.1881   22.2398 O   0  0  0  0  0  0  0  0  0  0  0  0
    9.3516  -16.5084   23.2700 N   0  0  0  0  0  0  0  0  0  0  0  0
    9.4454  -17.3102   24.4747 C   0  0  1  0  0  0  0  0  0  0  0  0
   10.3201  -18.5271   24.2887 C   0  0  0  0  0  0  0  0  0  0  0  0
   10.5779  -19.4026   25.8548 S   0  0  0  0  0  0  0  0  0  0  0  0
   10.0788  -16.4750   25.5331 C   0  0  0  0  0  0  0  0  0  0  0  0
   11.1680  -15.8705   25.3574 O   0  0  0  0  0  0  0  0  0  0  0  0
    9.4564  -16.3335   26.8013 N   0  0  0  0  0  0  0  0  0  0  0  0
   10.1013  -15.5455   27.8313 C   0  0  1  0  0  0  0  0  0  0  0  0
    9.0471  -14.6471   28.4222 C   0  0  0  0  0  0  0  0  0  0  0  0
    8.3979  -13.7578   27.4584 C   0  0  0  0  0  0  0  0  0  0  0  0
    8.9633  -12.6021   26.9706 C   0  0  0  0  0  0  0  0  0  0  0  0
    8.3132  -11.8131   26.0736 C   0  0  0  0  0  0  0  0  0  0  0  0
    7.0477  -12.1518   25.6179 C   0  0  0  0  0  0  0  0  0  0  0  0
    6.4669  -13.2980   26.0907 C   0  0  0  0  0  0  0  0  0  0  0  0
    7.1394  -14.0905   27.0024 C   0  0  0  0  0  0  0  0  0  0  0  0
   10.7614  -16.4205   28.8086 C   0  0  0  0  0  0  0  0  0  0  0  0
   10.5458  -17.6567   28.7634 O   0  0  0  0  0  0  0  0  0  0  0  0
   11.6207  -15.9546   29.7919 O   0  0  0  0  0  0  0  0  0  0  0  0
  2  1  1  6
  3  4  1  0
  3  2  1  0
  4  5  2  0
  5  6  1  0
  7  6  1  0
  8  4  1  0
  8  7  2  0
  9  2  1  0
  9 10  2  0
 11  9  1  0
 12 11  1  0
 12 15  1  0
 12 13  1  6
 14 13  1  0
 15 17  1  0
 16 15  2  0
 17 18  1  0
 18 26  1  0
 19 20  1  0
 18 19  1  1
 20 25  1  0
 21 20  2  0
 21 22  1  0
 22 23  2  0
 23 24  1  0
 25 24  2  0
 26 27  2  0
 26 28  1  0
M  END
$$$$
