HCF.pdb
     RDKit          3D

 28 29  0  0  1  0  0  0  0  0999 V2000
    7.4132  -17.2786   19.9535 N   0  0  0  0  0  0  0  0  0  0  0  0
    7.8566  -16.3243   20.9151 C   0  0  1  0  0  0  0  0  0  0  0  0
    7.0658  -15.0384   20.8845 C   0  0  0  0  0  0  0  0  0  0  0  0
    7.6392  -14.1624   19.8423 C   0  0  0  0  0  0  0  0  0  0  0  0
    8.7538  -14.4916   19.0674 C   0  0  0  0  0  0  0  0  0  0  0  0
    8.9717  -13.4456   18.2323 N   0  0  0  0  0  0  0  0  0  0  0  0
    8.0547  -12.5040   18.4569 C   0  0  0  0  0  0  0  0  0  0  0  0
    7.2619  -12.9583   19.4319 N   0  0  0  0  0  0  0  0  0  0  0  0
    7.8656  -16.8481   22.3006 C   0  0  0  0  0  0  0  0  0  0  0  0
    6.8169  -17.1591   22.9197 O   0  0  0  0  0  0  0  0  0  0  0  0
    9.1125  -17.0061   22.9600 N   0  0  0  0  0  0  0  0  0  0  0  0
    9.1269  -17.5687   24.2966 C   0  0  1  0  0  0  0  0  0  0  0  0
    9.9730  -18.8162   24.3862 C   0  0  0  0  0  0  0  0  0  0  0  0
   10.0412  -19.4495   26.0832 S   0  0  0  0  0  0  0  0  0  0  0  0
    9.7350  -16.5622   25.2110 C   0  0  0  0  0  0  0  0  0  0  0  0
   10.7747  -15.9189   24.9148 O   0  0  0  0  0  0  0  0  0  0  0  0
    9.1445  -16.2934   26.4739 N   0  0  0  0  0  0  0  0  0  0  0  0
    9.7549  -15.3214   27.3572 C   0  0  1  0  0  0  0  0  0  0  0  0
    8.6355  -14.5331   27.9842 C   0  0  0  0  0  0  0  0  0  0  0  0
    7.9833  -13.5829   27.0824 C   0  0  0  0  0  0  0  0  0  0  0  0
    6.7065  -13.1014   27.2591 C   0  0  0  0  0  0  0  0  0  0  0  0
    6.1505  -12.2171   26.3882 C   0  0  0  0  0  0  0  0  0  0  0  0
    6.8598  -11.7684   25.2838 C   0  0  0  0  0  0  0  0  0  0  0  0
    8.1322  -12.2351   25.0895 C   0  0  0  0  0  0  0  0  0  0  0  0
    8.6848  -13.1338   25.9830 C   0  0  0  0  0  0  0  0  0  0  0  0
   10.6345  -15.9892   28.3251 C   0  0  0  0  0  0  0  0  0  0  0  0
   11.2747  -15.2912   29.1496 O   0  0  0  0  0  0  0  0  0  0  0  0
   10.8015  -17.3643   28.3823 O   0  0  0  0  0  0  0  0  0  0  0  0
  2  1  1  6
  3  4  1  0
  3  2  1  0
  4  5  2  0
  5  6  1  0
  7  6  1  0
  8  4  1  0
  8  7  2  0
  9  2  1  0
  9 10  2  0
 11  9  1  0
 12 11  1  0
 12 15  1  0
 12 13  1  6
 14 13  1  0
 15 17  1  0
 16 15  2  0
 17 18  1  0
 18 26  1  0
 19 20  1  0
 18 19  1  1
 20 25  1  0
 21 20  2  0
 21 22  1  0
 22 23  2  0
 23 24  1  0
 25 24  2  0
 26 27  2  0
 26 28  1  0
M  END
$$$$
