HCF.pdb
     RDKit          3D

 28 29  0  0  1  0  0  0  0  0999 V2000
    9.4722  -15.5309   20.2523 N   0  0  0  0  0  0  0  0  0  0  0  0
    8.5153  -14.8397   21.0514 C   0  0  1  0  0  0  0  0  0  0  0  0
    7.2180  -14.5721   20.3265 C   0  0  0  0  0  0  0  0  0  0  0  0
    7.5337  -14.1202   18.9560 C   0  0  0  0  0  0  0  0  0  0  0  0
    7.7093  -12.7830   18.5922 C   0  0  0  0  0  0  0  0  0  0  0  0
    7.9830  -12.7722   17.2641 N   0  0  0  0  0  0  0  0  0  0  0  0
    7.9831  -14.0238   16.8040 C   0  0  0  0  0  0  0  0  0  0  0  0
    7.7098  -14.8194   17.8421 N   0  0  0  0  0  0  0  0  0  0  0  0
    8.2166  -15.5227   22.3314 C   0  0  0  0  0  0  0  0  0  0  0  0
    7.1105  -15.4182   22.9191 O   0  0  0  0  0  0  0  0  0  0  0  0
    9.2228  -16.3312   22.9219 N   0  0  0  0  0  0  0  0  0  0  0  0
    8.9399  -16.9814   24.1869 C   0  0  1  0  0  0  0  0  0  0  0  0
    9.5201  -18.3737   24.2601 C   0  0  0  0  0  0  0  0  0  0  0  0
   11.2176  -18.4177   23.6260 S   0  0  0  0  0  0  0  0  0  0  0  0
    9.5840  -16.1828   25.2669 C   0  0  0  0  0  0  0  0  0  0  0  0
   10.6003  -15.4690   25.0670 O   0  0  0  0  0  0  0  0  0  0  0  0
    9.0566  -16.2048   26.5850 N   0  0  0  0  0  0  0  0  0  0  0  0
    9.7648  -15.5263   27.6507 C   0  0  1  0  0  0  0  0  0  0  0  0
    8.7871  -14.5790   28.2945 C   0  0  0  0  0  0  0  0  0  0  0  0
    8.2716  -13.5399   27.4023 C   0  0  0  0  0  0  0  0  0  0  0  0
    8.9821  -12.4241   27.0238 C   0  0  0  0  0  0  0  0  0  0  0  0
    8.4522  -11.4898   26.1895 C   0  0  0  0  0  0  0  0  0  0  0  0
    7.1666  -11.6339   25.6890 C   0  0  0  0  0  0  0  0  0  0  0  0
    6.4423  -12.7372   26.0532 C   0  0  0  0  0  0  0  0  0  0  0  0
    6.9937  -13.6789   26.9022 C   0  0  0  0  0  0  0  0  0  0  0  0
   10.3547  -16.5014   28.5767 C   0  0  0  0  0  0  0  0  0  0  0  0
   10.0704  -17.7173   28.4442 O   0  0  0  0  0  0  0  0  0  0  0  0
   11.2193  -16.1529   29.6030 O   0  0  0  0  0  0  0  0  0  0  0  0
  2  1  1  6
  3  4  1  0
  3  2  1  0
  4  5  2  0
  5  6  1  0
  7  6  1  0
  8  4  1  0
  8  7  2  0
  9  2  1  0
  9 10  2  0
 11  9  1  0
 12 11  1  0
 12 15  1  0
 12 13  1  6
 14 13  1  0
 15 17  1  0
 16 15  2  0
 17 18  1  0
 18 26  1  0
 19 20  1  0
 18 19  1  1
 20 25  1  0
 21 20  2  0
 21 22  1  0
 22 23  2  0
 23 24  1  0
 25 24  2  0
 26 27  2  0
 26 28  1  0
M  END
$$$$
