HCF.pdb
     RDKit          3D

 28 29  0  0  1  0  0  0  0  0999 V2000
   10.1545  -13.1963   19.5534 N   0  0  0  0  0  0  0  0  0  0  0  0
    8.7642  -13.1329   19.8617 C   0  0  1  0  0  0  0  0  0  0  0  0
    7.8899  -12.9959   18.6382 C   0  0  0  0  0  0  0  0  0  0  0  0
    8.2337  -14.0796   17.6950 C   0  0  0  0  0  0  0  0  0  0  0  0
    9.5288  -14.3453   17.2442 C   0  0  0  0  0  0  0  0  0  0  0  0
    9.4395  -15.4032   16.4006 N   0  0  0  0  0  0  0  0  0  0  0  0
    8.1670  -15.7924   16.3151 C   0  0  0  0  0  0  0  0  0  0  0  0
    7.4582  -14.9797   17.1042 N   0  0  0  0  0  0  0  0  0  0  0  0
    8.2881  -14.2832   20.6641 C   0  0  0  0  0  0  0  0  0  0  0  0
    7.0734  -14.5904   20.7632 O   0  0  0  0  0  0  0  0  0  0  0  0
    9.2443  -15.0746   21.3526 N   0  0  0  0  0  0  0  0  0  0  0  0
    8.7754  -16.1646   22.1864 C   0  0  1  0  0  0  0  0  0  0  0  0
    9.3387  -17.4989   21.7590 C   0  0  0  0  0  0  0  0  0  0  0  0
    8.7280  -18.8428   22.8107 S   0  0  0  0  0  0  0  0  0  0  0  0
    9.2499  -15.9154   23.5762 C   0  0  0  0  0  0  0  0  0  0  0  0
   10.4019  -15.4784   23.8304 O   0  0  0  0  0  0  0  0  0  0  0  0
    8.3951  -16.1700   24.6809 N   0  0  0  0  0  0  0  0  0  0  0  0
    8.8784  -15.9429   26.0272 C   0  0  1  0  0  0  0  0  0  0  0  0
    7.7117  -15.4363   26.8334 C   0  0  0  0  0  0  0  0  0  0  0  0
    7.3006  -14.0690   26.5127 C   0  0  0  0  0  0  0  0  0  0  0  0
    6.0945  -13.7393   25.9383 C   0  0  0  0  0  0  0  0  0  0  0  0
    5.7643  -12.4490   25.6630 C   0  0  0  0  0  0  0  0  0  0  0  0
    6.6413  -11.4149   25.9554 C   0  0  0  0  0  0  0  0  0  0  0  0
    7.8469  -11.7212   26.5274 C   0  0  0  0  0  0  0  0  0  0  0  0
    8.1694  -13.0374   26.8017 C   0  0  0  0  0  0  0  0  0  0  0  0
    9.4944  -17.1632   26.5638 C   0  0  0  0  0  0  0  0  0  0  0  0
   10.0453  -17.1227   27.6915 O   0  0  0  0  0  0  0  0  0  0  0  0
    9.5031  -18.3740   25.8885 O   0  0  0  0  0  0  0  0  0  0  0  0
  2  1  1  6
  3  4  1  0
  3  2  1  0
  4  5  2  0
  5  6  1  0
  7  6  1  0
  8  4  1  0
  8  7  2  0
  9  2  1  0
  9 10  2  0
 11  9  1  0
 12 11  1  0
 12 15  1  0
 12 13  1  6
 14 13  1  0
 15 17  1  0
 16 15  2  0
 17 18  1  0
 18 26  1  0
 19 20  1  0
 18 19  1  1
 20 25  1  0
 21 20  2  0
 21 22  1  0
 22 23  2  0
 23 24  1  0
 25 24  2  0
 26 27  2  0
 26 28  1  0
M  END
$$$$
