HCF.pdb
     RDKit          3D

 28 29  0  0  1  0  0  0  0  0999 V2000
    8.4927  -16.9345   19.6808 N   0  0  0  0  0  0  0  0  0  0  0  0
    8.4766  -15.9160   20.6780 C   0  0  1  0  0  0  0  0  0  0  0  0
    7.4471  -14.8431   20.4151 C   0  0  0  0  0  0  0  0  0  0  0  0
    7.7017  -14.2696   19.0777 C   0  0  0  0  0  0  0  0  0  0  0  0
    8.4906  -13.1404   18.8460 C   0  0  0  0  0  0  0  0  0  0  0  0
    8.4842  -12.9274   17.5068 N   0  0  0  0  0  0  0  0  0  0  0  0
    7.7381  -13.8612   16.9157 C   0  0  0  0  0  0  0  0  0  0  0  0
    7.2766  -14.6595   17.8828 N   0  0  0  0  0  0  0  0  0  0  0  0
    8.2819  -16.4406   22.0495 C   0  0  0  0  0  0  0  0  0  0  0  0
    7.2680  -17.1005   22.3905 O   0  0  0  0  0  0  0  0  0  0  0  0
    9.2833  -16.1876   23.0231 N   0  0  0  0  0  0  0  0  0  0  0  0
    9.2193  -16.8947   24.2876 C   0  0  1  0  0  0  0  0  0  0  0  0
   10.0401  -18.1621   24.2798 C   0  0  0  0  0  0  0  0  0  0  0  0
   11.6902  -17.8781   23.5854 S   0  0  0  0  0  0  0  0  0  0  0  0
    9.7945  -16.0086   25.3378 C   0  0  0  0  0  0  0  0  0  0  0  0
   10.6334  -15.1076   25.0788 O   0  0  0  0  0  0  0  0  0  0  0  0
    9.4031  -16.1589   26.6943 N   0  0  0  0  0  0  0  0  0  0  0  0
   10.0223  -15.3367   27.7133 C   0  0  1  0  0  0  0  0  0  0  0  0
    8.9111  -14.6249   28.4389 C   0  0  0  0  0  0  0  0  0  0  0  0
    8.1924  -13.6392   27.6308 C   0  0  0  0  0  0  0  0  0  0  0  0
    8.6308  -12.3538   27.4094 C   0  0  0  0  0  0  0  0  0  0  0  0
    7.9211  -11.4791   26.6472 C   0  0  0  0  0  0  0  0  0  0  0  0
    6.7215  -11.8589   26.0634 C   0  0  0  0  0  0  0  0  0  0  0  0
    6.2672  -13.1337   26.2711 C   0  0  0  0  0  0  0  0  0  0  0  0
    6.9991  -14.0122   27.0483 C   0  0  0  0  0  0  0  0  0  0  0  0
   10.8793  -16.1542   28.5813 C   0  0  0  0  0  0  0  0  0  0  0  0
   11.5401  -15.5923   29.4893 O   0  0  0  0  0  0  0  0  0  0  0  0
   11.0030  -17.5293   28.4550 O   0  0  0  0  0  0  0  0  0  0  0  0
  2  1  1  6
  3  4  1  0
  3  2  1  0
  4  5  2  0
  5  6  1  0
  7  6  1  0
  8  4  1  0
  8  7  2  0
  9  2  1  0
  9 10  2  0
 11  9  1  0
 12 11  1  0
 12 15  1  0
 12 13  1  6
 14 13  1  0
 15 17  1  0
 16 15  2  0
 17 18  1  0
 18 26  1  0
 19 20  1  0
 18 19  1  1
 20 25  1  0
 21 20  2  0
 21 22  1  0
 22 23  2  0
 23 24  1  0
 25 24  2  0
 26 27  2  0
 26 28  1  0
M  END
$$$$
