HCF.pdb
     RDKit          3D

 28 29  0  0  1  0  0  0  0  0999 V2000
    9.8362  -18.2137   14.5462 N   0  0  0  0  0  0  0  0  0  0  0  0
   10.5939  -17.7378   15.6559 C   0  0  1  0  0  0  0  0  0  0  0  0
   11.2007  -16.3753   15.4205 C   0  0  0  0  0  0  0  0  0  0  0  0
   12.3582  -16.5297   14.5158 C   0  0  0  0  0  0  0  0  0  0  0  0
   13.6076  -17.0095   14.9158 C   0  0  0  0  0  0  0  0  0  0  0  0
   14.3987  -17.0052   13.8145 N   0  0  0  0  0  0  0  0  0  0  0  0
   13.7011  -16.5511   12.7727 C   0  0  0  0  0  0  0  0  0  0  0  0
   12.4734  -16.2707   13.2195 N   0  0  0  0  0  0  0  0  0  0  0  0
    9.8251  -17.7074   16.9216 C   0  0  0  0  0  0  0  0  0  0  0  0
    8.6104  -17.3891   16.9751 O   0  0  0  0  0  0  0  0  0  0  0  0
   10.4878  -18.0525   18.1284 N   0  0  0  0  0  0  0  0  0  0  0  0
    9.7020  -18.1897   19.3396 C   0  0  1  0  0  0  0  0  0  0  0  0
    9.7308  -19.5966   19.8873 C   0  0  0  0  0  0  0  0  0  0  0  0
    8.5623  -20.6715   19.0129 S   0  0  0  0  0  0  0  0  0  0  0  0
   10.3012  -17.3049   20.3774 C   0  0  0  0  0  0  0  0  0  0  0  0
   11.5224  -17.0031   20.3871 O   0  0  0  0  0  0  0  0  0  0  0  0
    9.4917  -16.7634   21.4105 N   0  0  0  0  0  0  0  0  0  0  0  0
   10.0764  -15.8578   22.3778 C   0  0  1  0  0  0  0  0  0  0  0  0
    9.0334  -14.8186   22.6936 C   0  0  0  0  0  0  0  0  0  0  0  0
    8.5805  -14.0427   21.5384 C   0  0  0  0  0  0  0  0  0  0  0  0
    9.3214  -13.0536   20.9335 C   0  0  0  0  0  0  0  0  0  0  0  0
    8.8499  -12.3645   19.8598 C   0  0  0  0  0  0  0  0  0  0  0  0
    7.5954  -12.6398   19.3360 C   0  0  0  0  0  0  0  0  0  0  0  0
    6.8418  -13.6205   19.9232 C   0  0  0  0  0  0  0  0  0  0  0  0
    7.3338  -14.3130   21.0141 C   0  0  0  0  0  0  0  0  0  0  0  0
   10.5585  -16.6002   23.5495 C   0  0  0  0  0  0  0  0  0  0  0  0
   11.1877  -15.9843   24.4448 O   0  0  0  0  0  0  0  0  0  0  0  0
   10.3563  -17.9603   23.7272 O   0  0  0  0  0  0  0  0  0  0  0  0
  2  1  1  6
  3  4  1  0
  3  2  1  0
  4  5  2  0
  5  6  1  0
  7  6  1  0
  8  4  1  0
  8  7  2  0
  9  2  1  0
  9 10  2  0
 11  9  1  0
 12 11  1  0
 12 15  1  0
 12 13  1  1
 14 13  1  0
 15 17  1  0
 16 15  2  0
 17 18  1  0
 18 26  1  0
 19 20  1  0
 18 19  1  1
 20 25  1  0
 21 20  2  0
 21 22  1  0
 22 23  2  0
 23 24  1  0
 25 24  2  0
 26 27  2  0
 26 28  1  0
M  END
$$$$
