HKQ.pdb
     RDKit          3D

 29 29  0  0  1  0  0  0  0  0999 V2000
   12.9174  -14.1315   17.8837 N   0  0  0  0  0  0  0  0  0  0  0  0
   13.0480  -15.0498   18.9968 C   0  0  1  0  0  0  0  0  0  0  0  0
   14.5118  -15.1141   19.3549 C   0  0  0  0  0  0  0  0  0  0  0  0
   15.2648  -15.5074   18.1281 C   0  0  0  0  0  0  0  0  0  0  0  0
   14.7858  -16.0937   16.9843 C   0  0  0  0  0  0  0  0  0  0  0  0
   15.8102  -16.2711   16.1382 N   0  0  0  0  0  0  0  0  0  0  0  0
   16.9345  -15.8057   16.7275 C   0  0  0  0  0  0  0  0  0  0  0  0
   16.5916  -15.3453   17.9332 N   0  0  0  0  0  0  0  0  0  0  0  0
   12.2549  -14.5837   20.1743 C   0  0  0  0  0  0  0  0  0  0  0  0
   12.7818  -13.8339   21.0033 O   0  0  0  0  0  0  0  0  0  0  0  0
   10.9290  -14.9784   20.3575 N   0  0  0  0  0  0  0  0  0  0  0  0
   10.0143  -14.6960   21.3816 C   0  0  1  0  0  0  0  0  0  0  0  0
    8.5781  -14.4222   21.0423 C   0  0  0  0  0  0  0  0  0  0  0  0
    8.4199  -13.4767   19.8729 C   0  0  0  0  0  0  0  0  0  0  0  0
    7.6128  -14.0082   18.7410 C   0  0  0  0  0  0  0  0  0  0  0  0
    7.4718  -13.1541   17.5442 C   0  0  0  0  0  0  0  0  0  0  0  0
    6.7549  -13.8202   16.5073 N   0  0  0  0  0  0  0  0  0  0  0  0
   10.1042  -15.6206   22.5012 C   0  0  0  0  0  0  0  0  0  0  0  0
   10.5525  -16.7960   22.2480 O   0  0  0  0  0  0  0  0  0  0  0  0
    6.0367  -18.5972   24.4962 N   0  0  0  0  0  0  0  0  0  0  0  0
    7.1341  -19.2646   25.1557 C   0  0  0  0  0  0  0  0  0  0  0  0
    6.8607  -20.2048   25.9295 O   0  0  0  0  0  0  0  0  0  0  0  0
    8.4956  -18.8168   24.8988 C   0  0  0  0  0  0  0  0  0  0  0  0
    8.7130  -17.5494   24.1474 C   0  0  0  0  0  0  0  0  0  0  0  0
    9.4905  -16.4720   24.8139 C   0  0  2  0  0  0  0  0  0  0  0  0
    9.7595  -15.3876   23.8371 N   0  0  0  0  0  0  0  0  0  0  0  0
   10.8175  -16.8898   25.2950 C   0  0  0  0  0  0  0  0  0  0  0  0
   11.0462  -17.3373   26.4623 O   0  0  0  0  0  0  0  0  0  0  0  0
   11.9486  -16.8200   24.4492 O   0  0  0  0  0  0  0  0  0  0  0  0
  2  1  1  6
  3  4  1  0
  3  2  1  0
  4  5  2  0
  5  6  1  0
  7  6  1  0
  8  4  1  0
  8  7  2  0
  9  2  1  0
  9 10  2  0
 11  9  1  0
 12 11  1  0
 13 14  1  0
 12 13  1  6
 14 15  1  0
 15 16  1  0
 16 17  1  0
 18 19  2  0
 18 12  1  0
 20 21  1  0
 21 22  2  0
 23 21  1  0
 23 24  1  0
 25 24  1  6
 25 27  1  0
 25 26  1  0
 26 18  1  0
 27 29  1  0
 28 27  2  0
M  END
$$$$
