HKQ.pdb
     RDKit          3D

 29 29  0  0  1  0  0  0  0  0999 V2000
    7.8189  -15.4214   19.4853 N   0  0  0  0  0  0  0  0  0  0  0  0
    9.1044  -14.7607   19.5864 C   0  0  1  0  0  0  0  0  0  0  0  0
    9.0040  -13.4659   18.8192 C   0  0  0  0  0  0  0  0  0  0  0  0
    8.5394  -13.7886   17.4384 C   0  0  0  0  0  0  0  0  0  0  0  0
    7.4544  -13.2884   16.7646 C   0  0  0  0  0  0  0  0  0  0  0  0
    7.4127  -13.8535   15.5498 N   0  0  0  0  0  0  0  0  0  0  0  0
    8.4560  -14.7065   15.4411 C   0  0  0  0  0  0  0  0  0  0  0  0
    9.1318  -14.6587   16.5919 N   0  0  0  0  0  0  0  0  0  0  0  0
    9.4555  -14.4829   21.0121 C   0  0  0  0  0  0  0  0  0  0  0  0
   10.5962  -14.0997   21.2932 O   0  0  0  0  0  0  0  0  0  0  0  0
    8.5200  -14.6476   22.0343 N   0  0  0  0  0  0  0  0  0  0  0  0
    8.6042  -14.4009   23.4118 C   0  0  1  0  0  0  0  0  0  0  0  0
    7.4413  -13.7798   24.1292 C   0  0  0  0  0  0  0  0  0  0  0  0
    7.7624  -13.4100   25.5598 C   0  0  0  0  0  0  0  0  0  0  0  0
    6.6548  -12.7467   26.3003 C   0  0  0  0  0  0  0  0  0  0  0  0
    6.9256  -12.3111   27.6854 C   0  0  0  0  0  0  0  0  0  0  0  0
    5.8008  -11.6444   28.2539 N   0  0  0  0  0  0  0  0  0  0  0  0
    9.1202  -15.5329   24.1661 C   0  0  0  0  0  0  0  0  0  0  0  0
    8.3519  -16.5548   24.2764 O   0  0  0  0  0  0  0  0  0  0  0  0
   15.0962  -17.4438   24.2383 N   0  0  0  0  0  0  0  0  0  0  0  0
   14.4844  -18.3885   25.1427 C   0  0  0  0  0  0  0  0  0  0  0  0
   15.1929  -19.3208   25.5744 O   0  0  0  0  0  0  0  0  0  0  0  0
   13.0842  -18.2206   25.5052 C   0  0  0  0  0  0  0  0  0  0  0  0
   12.3291  -17.0567   24.9638 C   0  0  0  0  0  0  0  0  0  0  0  0
   10.8939  -16.9297   25.3293 C   0  0  2  0  0  0  0  0  0  0  0  0
   10.3647  -15.6503   24.7946 N   0  0  0  0  0  0  0  0  0  0  0  0
   10.6393  -16.8720   26.7780 C   0  0  0  0  0  0  0  0  0  0  0  0
   10.5950  -15.7964   27.4535 O   0  0  0  0  0  0  0  0  0  0  0  0
   10.4143  -18.0541   27.5206 O   0  0  0  0  0  0  0  0  0  0  0  0
  2  1  1  1
  3  4  1  0
  3  2  1  0
  4  5  2  0
  5  6  1  0
  7  6  1  0
  8  4  1  0
  8  7  2  0
  9  2  1  0
  9 10  2  0
 11  9  1  0
 12 11  1  0
 13 14  1  0
 12 13  1  1
 14 15  1  0
 15 16  1  0
 16 17  1  0
 18 19  2  0
 18 12  1  0
 20 21  1  0
 21 22  2  0
 23 21  1  0
 23 24  1  0
 25 24  1  1
 25 27  1  0
 25 26  1  0
 26 18  1  0
 27 29  1  0
 28 27  2  0
M  END
$$$$
