HKQ.pdb
     RDKit          3D

 29 29  0  0  1  0  0  0  0  0999 V2000
   15.6607  -13.5016   16.9212 N   0  0  0  0  0  0  0  0  0  0  0  0
   16.0713  -14.8199   17.3603 C   0  0  1  0  0  0  0  0  0  0  0  0
   17.5656  -14.7796   17.5618 C   0  0  0  0  0  0  0  0  0  0  0  0
   18.2057  -14.7089   16.2157 C   0  0  0  0  0  0  0  0  0  0  0  0
   17.7576  -15.2316   15.0294 C   0  0  0  0  0  0  0  0  0  0  0  0
   18.6459  -14.9310   14.0716 N   0  0  0  0  0  0  0  0  0  0  0  0
   19.6531  -14.2242   14.6318 C   0  0  0  0  0  0  0  0  0  0  0  0
   19.3754  -14.0958   15.9317 N   0  0  0  0  0  0  0  0  0  0  0  0
   15.3944  -15.1961   18.6383 C   0  0  0  0  0  0  0  0  0  0  0  0
   15.6513  -14.5664   19.6700 O   0  0  0  0  0  0  0  0  0  0  0  0
   14.4763  -16.2457   18.6907 N   0  0  0  0  0  0  0  0  0  0  0  0
   13.8043  -16.8318   19.7724 C   0  0  1  0  0  0  0  0  0  0  0  0
   12.6399  -17.7445   19.5193 C   0  0  0  0  0  0  0  0  0  0  0  0
   12.0484  -18.3096   20.7910 C   0  0  0  0  0  0  0  0  0  0  0  0
   10.8670  -19.1934   20.5949 C   0  0  0  0  0  0  0  0  0  0  0  0
   10.3090  -19.8603   21.7888 C   0  0  0  0  0  0  0  0  0  0  0  0
    9.1714  -20.6548   21.4608 N   0  0  0  0  0  0  0  0  0  0  0  0
   14.7026  -17.4159   20.7566 C   0  0  0  0  0  0  0  0  0  0  0  0
   15.5020  -18.3299   20.3417 O   0  0  0  0  0  0  0  0  0  0  0  0
   19.5396  -15.2049   24.1147 N   0  0  0  0  0  0  0  0  0  0  0  0
   18.6139  -15.2107   23.0067 C   0  0  0  0  0  0  0  0  0  0  0  0
   18.9923  -14.7023   21.9317 O   0  0  0  0  0  0  0  0  0  0  0  0
   17.2932  -15.7968   23.1874 C   0  0  0  0  0  0  0  0  0  0  0  0
   17.0955  -17.2439   22.8963 C   0  0  0  0  0  0  0  0  0  0  0  0
   15.7262  -17.8018   23.0486 C   0  0  2  0  0  0  0  0  0  0  0  0
   14.8071  -17.1027   22.1163 N   0  0  0  0  0  0  0  0  0  0  0  0
   15.1364  -17.6070   24.3832 C   0  0  0  0  0  0  0  0  0  0  0  0
   15.6226  -18.0843   25.4559 O   0  0  0  0  0  0  0  0  0  0  0  0
   13.9579  -16.8433   24.5488 O   0  0  0  0  0  0  0  0  0  0  0  0
  2  1  1  1
  3  4  1  0
  3  2  1  0
  4  5  2  0
  5  6  1  0
  7  6  1  0
  8  4  1  0
  8  7  2  0
  9  2  1  0
  9 10  2  0
 11  9  1  0
 12 11  1  0
 13 14  1  0
 12 13  1  6
 14 15  1  0
 15 16  1  0
 16 17  1  0
 18 19  2  0
 18 12  1  0
 20 21  1  0
 21 22  2  0
 23 21  1  0
 23 24  1  0
 25 24  1  1
 25 27  1  0
 25 26  1  0
 26 18  1  0
 27 29  1  0
 28 27  2  0
M  END
$$$$
