HKQ.pdb
     RDKit          3D

 29 29  0  0  1  0  0  0  0  0999 V2000
   13.0188  -14.1767   16.9377 N   0  0  0  0  0  0  0  0  0  0  0  0
   13.4702  -14.8088   18.1608 C   0  0  1  0  0  0  0  0  0  0  0  0
   14.6168  -13.9861   18.6933 C   0  0  0  0  0  0  0  0  0  0  0  0
   15.8026  -14.2393   17.8237 C   0  0  0  0  0  0  0  0  0  0  0  0
   16.2063  -15.4200   17.2540 C   0  0  0  0  0  0  0  0  0  0  0  0
   17.3244  -15.1907   16.5510 N   0  0  0  0  0  0  0  0  0  0  0  0
   17.6379  -13.8805   16.6654 C   0  0  0  0  0  0  0  0  0  0  0  0
   16.7085  -13.3140   17.4391 N   0  0  0  0  0  0  0  0  0  0  0  0
   12.3720  -14.8683   19.1724 C   0  0  0  0  0  0  0  0  0  0  0  0
   11.6725  -13.8688   19.3689 O   0  0  0  0  0  0  0  0  0  0  0  0
   12.1198  -16.0313   19.9011 N   0  0  0  0  0  0  0  0  0  0  0  0
   11.0899  -16.3561   20.7949 C   0  0  1  0  0  0  0  0  0  0  0  0
   10.1906  -17.5217   20.5027 C   0  0  0  0  0  0  0  0  0  0  0  0
    9.4099  -17.3548   19.2186 C   0  0  0  0  0  0  0  0  0  0  0  0
    8.4957  -18.4821   18.8888 C   0  0  0  0  0  0  0  0  0  0  0  0
    7.5855  -18.3076   17.7388 C   0  0  0  0  0  0  0  0  0  0  0  0
    6.7879  -19.4693   17.5215 N   0  0  0  0  0  0  0  0  0  0  0  0
   11.5240  -16.3853   22.1832 C   0  0  0  0  0  0  0  0  0  0  0  0
   12.7068  -16.8274   22.4117 O   0  0  0  0  0  0  0  0  0  0  0  0
    8.6669  -14.0718   27.5192 N   0  0  0  0  0  0  0  0  0  0  0  0
    9.9202  -14.6067   27.9966 C   0  0  0  0  0  0  0  0  0  0  0  0
   10.1969  -14.4477   29.2031 O   0  0  0  0  0  0  0  0  0  0  0  0
   10.8002  -15.2956   27.0632 C   0  0  0  0  0  0  0  0  0  0  0  0
   10.4228  -15.3615   25.6241 C   0  0  0  0  0  0  0  0  0  0  0  0
   11.3438  -16.0695   24.6967 C   0  0  2  0  0  0  0  0  0  0  0  0
   10.8059  -15.9867   23.3160 N   0  0  0  0  0  0  0  0  0  0  0  0
   11.4862  -17.5098   24.9648 C   0  0  0  0  0  0  0  0  0  0  0  0
   10.7207  -18.4048   24.4871 O   0  0  0  0  0  0  0  0  0  0  0  0
   12.5260  -17.9922   25.7929 O   0  0  0  0  0  0  0  0  0  0  0  0
  2  1  1  6
  3  4  1  0
  3  2  1  0
  4  5  2  0
  5  6  1  0
  7  6  1  0
  8  4  1  0
  8  7  2  0
  9  2  1  0
  9 10  2  0
 11  9  1  0
 12 11  1  0
 13 14  1  0
 12 13  1  6
 14 15  1  0
 15 16  1  0
 16 17  1  0
 18 19  2  0
 18 12  1  0
 20 21  1  0
 21 22  2  0
 23 21  1  0
 23 24  1  0
 25 24  1  1
 25 27  1  0
 25 26  1  0
 26 18  1  0
 27 29  1  0
 28 27  2  0
M  END
$$$$
