HKQ.pdb
     RDKit          3D

 29 29  0  0  1  0  0  0  0  0999 V2000
    8.5851  -16.3118   20.0985 N   0  0  0  0  0  0  0  0  0  0  0  0
    8.0806  -15.1892   20.8631 C   0  0  1  0  0  0  0  0  0  0  0  0
    6.9102  -14.6186   20.1016 C   0  0  0  0  0  0  0  0  0  0  0  0
    7.4038  -14.1908   18.7600 C   0  0  0  0  0  0  0  0  0  0  0  0
    8.0109  -13.0115   18.4104 C   0  0  0  0  0  0  0  0  0  0  0  0
    8.2884  -13.0503   17.0995 N   0  0  0  0  0  0  0  0  0  0  0  0
    7.8664  -14.2378   16.6100 C   0  0  0  0  0  0  0  0  0  0  0  0
    7.3320  -14.9206   17.6256 N   0  0  0  0  0  0  0  0  0  0  0  0
    7.6418  -15.6200   22.2250 C   0  0  0  0  0  0  0  0  0  0  0  0
    7.0934  -14.8035   22.9731 O   0  0  0  0  0  0  0  0  0  0  0  0
    7.8389  -16.9278   22.6702 N   0  0  0  0  0  0  0  0  0  0  0  0
    7.5719  -17.5327   23.9064 C   0  0  1  0  0  0  0  0  0  0  0  0
    7.6588  -19.0252   24.0391 C   0  0  0  0  0  0  0  0  0  0  0  0
    7.2521  -19.5185   25.4094 C   0  0  0  0  0  0  0  0  0  0  0  0
    7.3723  -20.9886   25.6083 C   0  0  0  0  0  0  0  0  0  0  0  0
    6.9675  -21.5343   26.9198 C   0  0  0  0  0  0  0  0  0  0  0  0
    7.1215  -22.9509   26.9673 N   0  0  0  0  0  0  0  0  0  0  0  0
    8.2475  -16.8838   25.0196 C   0  0  0  0  0  0  0  0  0  0  0  0
    9.5302  -16.9215   25.0209 O   0  0  0  0  0  0  0  0  0  0  0  0
    6.4813  -11.5057   27.1041 N   0  0  0  0  0  0  0  0  0  0  0  0
    7.4405  -11.7990   26.0656 C   0  0  0  0  0  0  0  0  0  0  0  0
    7.6449  -10.9233   25.2003 O   0  0  0  0  0  0  0  0  0  0  0  0
    8.1170  -13.0884   26.0669 C   0  0  0  0  0  0  0  0  0  0  0  0
    7.8460  -14.0489   27.1725 C   0  0  0  0  0  0  0  0  0  0  0  0
    8.4451  -15.4058   27.0754 C   0  0  2  0  0  0  0  0  0  0  0  0
    7.6683  -16.2146   26.1032 N   0  0  0  0  0  0  0  0  0  0  0  0
    8.4078  -16.1768   28.3288 C   0  0  0  0  0  0  0  0  0  0  0  0
    7.6059  -17.1367   28.5538 O   0  0  0  0  0  0  0  0  0  0  0  0
    9.3010  -15.8839   29.3852 O   0  0  0  0  0  0  0  0  0  0  0  0
  2  1  1  6
  3  4  1  0
  3  2  1  0
  4  5  2  0
  5  6  1  0
  7  6  1  0
  8  4  1  0
  8  7  2  0
  9  2  1  0
  9 10  2  0
 11  9  1  0
 12 11  1  0
 13 14  1  0
 12 13  1  6
 14 15  1  0
 15 16  1  0
 16 17  1  0
 18 19  2  0
 18 12  1  0
 20 21  1  0
 21 22  2  0
 23 21  1  0
 23 24  1  0
 25 24  1  1
 25 27  1  0
 25 26  1  0
 26 18  1  0
 27 29  1  0
 28 27  2  0
M  END
$$$$
