HKQ.pdb
     RDKit          3D

 29 29  0  0  1  0  0  0  0  0999 V2000
   10.4755  -13.8619   19.5044 N   0  0  0  0  0  0  0  0  0  0  0  0
    9.1524  -14.1218   20.0346 C   0  0  1  0  0  0  0  0  0  0  0  0
    8.6226  -15.3486   19.3350 C   0  0  0  0  0  0  0  0  0  0  0  0
    8.3525  -14.9824   17.9139 C   0  0  0  0  0  0  0  0  0  0  0  0
    8.5862  -13.7879   17.2814 C   0  0  0  0  0  0  0  0  0  0  0  0
    8.1924  -13.9002   16.0050 N   0  0  0  0  0  0  0  0  0  0  0  0
    7.7113  -15.1496   15.8164 C   0  0  0  0  0  0  0  0  0  0  0  0
    7.8134  -15.7963   16.9802 N   0  0  0  0  0  0  0  0  0  0  0  0
    9.2008  -14.3567   21.5095 C   0  0  0  0  0  0  0  0  0  0  0  0
   10.1403  -14.9984   21.9919 O   0  0  0  0  0  0  0  0  0  0  0  0
    8.2051  -13.8656   22.3549 N   0  0  0  0  0  0  0  0  0  0  0  0
    8.0908  -13.8781   23.7520 C   0  0  1  0  0  0  0  0  0  0  0  0
    6.9327  -13.1866   24.4104 C   0  0  0  0  0  0  0  0  0  0  0  0
    7.0334  -13.1779   25.9192 C   0  0  0  0  0  0  0  0  0  0  0  0
    5.9987  -12.3632   26.6125 C   0  0  0  0  0  0  0  0  0  0  0  0
    6.0633  -12.2901   28.0863 C   0  0  0  0  0  0  0  0  0  0  0  0
    5.0378  -11.4520   28.6143 N   0  0  0  0  0  0  0  0  0  0  0  0
    8.2902  -15.1977   24.3315 C   0  0  0  0  0  0  0  0  0  0  0  0
    7.3549  -16.0575   24.1511 O   0  0  0  0  0  0  0  0  0  0  0  0
   13.0613  -17.0369   23.7818 N   0  0  0  0  0  0  0  0  0  0  0  0
   11.9441  -17.3166   22.9110 C   0  0  0  0  0  0  0  0  0  0  0  0
   12.1382  -17.2543   21.6798 O   0  0  0  0  0  0  0  0  0  0  0  0
   10.6532  -17.6503   23.4964 C   0  0  0  0  0  0  0  0  0  0  0  0
   10.5396  -17.7823   24.9754 C   0  0  0  0  0  0  0  0  0  0  0  0
    9.4677  -17.0134   25.6605 C   0  0  2  0  0  0  0  0  0  0  0  0
    9.3874  -15.6543   25.0699 N   0  0  0  0  0  0  0  0  0  0  0  0
    9.7028  -16.7919   27.0967 C   0  0  0  0  0  0  0  0  0  0  0  0
    9.8715  -17.7229   27.9451 O   0  0  0  0  0  0  0  0  0  0  0  0
    9.7633  -15.4822   27.6262 O   0  0  0  0  0  0  0  0  0  0  0  0
  2  1  1  6
  3  4  1  0
  3  2  1  0
  4  5  2  0
  5  6  1  0
  7  6  1  0
  8  4  1  0
  8  7  2  0
  9  2  1  0
  9 10  2  0
 11  9  1  0
 12 11  1  0
 13 14  1  0
 12 13  1  6
 14 15  1  0
 15 16  1  0
 16 17  1  0
 18 19  2  0
 18 12  1  0
 20 21  1  0
 21 22  2  0
 23 21  1  0
 23 24  1  0
 25 24  1  6
 25 27  1  0
 25 26  1  0
 26 18  1  0
 27 29  1  0
 28 27  2  0
M  END
$$$$
