HKQ.pdb
     RDKit          3D

 29 29  0  0  1  0  0  0  0  0999 V2000
    8.3101  -15.9224   19.4128 N   0  0  0  0  0  0  0  0  0  0  0  0
    8.5469  -14.8622   20.3716 C   0  0  1  0  0  0  0  0  0  0  0  0
    7.7626  -13.6588   19.9115 C   0  0  0  0  0  0  0  0  0  0  0  0
    8.0067  -13.4869   18.4495 C   0  0  0  0  0  0  0  0  0  0  0  0
    7.1304  -13.0661   17.4818 C   0  0  0  0  0  0  0  0  0  0  0  0
    7.7708  -13.0589   16.3043 N   0  0  0  0  0  0  0  0  0  0  0  0
    9.0427  -13.4694   16.5091 C   0  0  0  0  0  0  0  0  0  0  0  0
    9.1739  -13.7260   17.8130 N   0  0  0  0  0  0  0  0  0  0  0  0
    8.1044  -15.2665   21.7405 C   0  0  0  0  0  0  0  0  0  0  0  0
    8.1759  -14.4521   22.6671 O   0  0  0  0  0  0  0  0  0  0  0  0
    7.6113  -16.5470   21.9942 N   0  0  0  0  0  0  0  0  0  0  0  0
    7.2229  -17.1669   23.1901 C   0  0  1  0  0  0  0  0  0  0  0  0
    6.5241  -18.4945   23.1476 C   0  0  0  0  0  0  0  0  0  0  0  0
    5.3194  -18.4961   22.2338 C   0  0  0  0  0  0  0  0  0  0  0  0
    4.5852  -19.7889   22.1655 C   0  0  0  0  0  0  0  0  0  0  0  0
    3.3271  -19.8183   21.3922 C   0  0  0  0  0  0  0  0  0  0  0  0
    2.7630  -21.1274   21.3599 N   0  0  0  0  0  0  0  0  0  0  0  0
    8.2729  -17.1778   24.1972 C   0  0  0  0  0  0  0  0  0  0  0  0
    9.4646  -17.4238   23.7897 O   0  0  0  0  0  0  0  0  0  0  0  0
    8.6827  -13.6645   29.4062 N   0  0  0  0  0  0  0  0  0  0  0  0
    9.8242  -14.5362   29.5545 C   0  0  0  0  0  0  0  0  0  0  0  0
   10.5723  -14.3506   30.5359 O   0  0  0  0  0  0  0  0  0  0  0  0
   10.0556  -15.5782   28.5641 C   0  0  0  0  0  0  0  0  0  0  0  0
    9.1028  -15.7250   27.4290 C   0  0  0  0  0  0  0  0  0  0  0  0
    9.3038  -16.8655   26.4971 C   0  0  2  0  0  0  0  0  0  0  0  0
    8.1465  -16.9506   25.5720 N   0  0  0  0  0  0  0  0  0  0  0  0
    9.3654  -18.1818   27.1531 C   0  0  0  0  0  0  0  0  0  0  0  0
    8.3677  -18.9557   27.2974 O   0  0  0  0  0  0  0  0  0  0  0  0
   10.5853  -18.6764   27.6695 O   0  0  0  0  0  0  0  0  0  0  0  0
  2  1  1  6
  3  4  1  0
  3  2  1  0
  4  5  2  0
  5  6  1  0
  7  6  1  0
  8  4  1  0
  8  7  2  0
  9  2  1  0
  9 10  2  0
 11  9  1  0
 12 11  1  0
 13 14  1  0
 12 13  1  6
 14 15  1  0
 15 16  1  0
 16 17  1  0
 18 19  2  0
 18 12  1  0
 20 21  1  0
 21 22  2  0
 23 21  1  0
 23 24  1  0
 25 24  1  1
 25 27  1  0
 25 26  1  0
 26 18  1  0
 27 29  1  0
 28 27  2  0
M  END
$$$$
