HKQ.pdb
     RDKit          3D

 29 29  0  0  1  0  0  0  0  0999 V2000
   12.5617  -14.1102   18.0203 N   0  0  0  0  0  0  0  0  0  0  0  0
   13.0071  -14.8926   19.1556 C   0  0  1  0  0  0  0  0  0  0  0  0
   14.1666  -14.1568   19.7794 C   0  0  0  0  0  0  0  0  0  0  0  0
   15.3824  -14.4463   18.9642 C   0  0  0  0  0  0  0  0  0  0  0  0
   15.7694  -13.8774   17.7777 C   0  0  0  0  0  0  0  0  0  0  0  0
   16.9273  -14.4358   17.3978 N   0  0  0  0  0  0  0  0  0  0  0  0
   17.2826  -15.3523   18.3262 C   0  0  0  0  0  0  0  0  0  0  0  0
   16.3387  -15.3498   19.2708 N   0  0  0  0  0  0  0  0  0  0  0  0
   11.9106  -15.0594   20.1570 C   0  0  0  0  0  0  0  0  0  0  0  0
   11.1371  -14.1202   20.3728 O   0  0  0  0  0  0  0  0  0  0  0  0
   11.7420  -16.2561   20.8547 N   0  0  0  0  0  0  0  0  0  0  0  0
   10.7622  -16.6598   21.7725 C   0  0  1  0  0  0  0  0  0  0  0  0
    9.9977  -17.9294   21.5350 C   0  0  0  0  0  0  0  0  0  0  0  0
    9.5343  -18.0778   20.1033 C   0  0  0  0  0  0  0  0  0  0  0  0
    8.2042  -18.7247   19.9380 C   0  0  0  0  0  0  0  0  0  0  0  0
    7.7359  -18.9782   18.5603 C   0  0  0  0  0  0  0  0  0  0  0  0
    6.5041  -19.6961   18.5499 N   0  0  0  0  0  0  0  0  0  0  0  0
   11.2078  -16.5867   23.1556 C   0  0  0  0  0  0  0  0  0  0  0  0
   12.4169  -16.9437   23.3948 O   0  0  0  0  0  0  0  0  0  0  0  0
    8.4601  -13.7361   28.2584 N   0  0  0  0  0  0  0  0  0  0  0  0
    9.6129  -14.3984   28.8216 C   0  0  0  0  0  0  0  0  0  0  0  0
    9.8198  -14.2629   30.0448 O   0  0  0  0  0  0  0  0  0  0  0  0
   10.4778  -15.1820   27.9510 C   0  0  0  0  0  0  0  0  0  0  0  0
   10.1534  -15.2769   26.5005 C   0  0  0  0  0  0  0  0  0  0  0  0
   11.0396  -16.1080   25.6440 C   0  0  2  0  0  0  0  0  0  0  0  0
   10.4754  -16.1704   24.2727 N   0  0  0  0  0  0  0  0  0  0  0  0
   11.1560  -17.5113   26.0728 C   0  0  0  0  0  0  0  0  0  0  0  0
   10.3474  -18.4315   25.7343 O   0  0  0  0  0  0  0  0  0  0  0  0
   12.2181  -17.9265   26.9089 O   0  0  0  0  0  0  0  0  0  0  0  0
  2  1  1  6
  3  4  1  0
  3  2  1  0
  4  5  2  0
  5  6  1  0
  7  6  1  0
  8  4  1  0
  8  7  2  0
  9  2  1  0
  9 10  2  0
 11  9  1  0
 12 11  1  0
 13 14  1  0
 12 13  1  6
 14 15  1  0
 15 16  1  0
 16 17  1  0
 18 19  2  0
 18 12  1  0
 20 21  1  0
 21 22  2  0
 23 21  1  0
 23 24  1  0
 25 24  1  1
 25 27  1  0
 25 26  1  0
 26 18  1  0
 27 29  1  0
 28 27  2  0
M  END
$$$$
