HKQ.pdb
     RDKit          3D

 29 29  0  0  1  0  0  0  0  0999 V2000
   12.8325  -15.7535   14.5296 N   0  0  0  0  0  0  0  0  0  0  0  0
   12.0895  -16.4815   15.5383 C   0  0  1  0  0  0  0  0  0  0  0  0
   12.5403  -17.9195   15.4757 C   0  0  0  0  0  0  0  0  0  0  0  0
   12.0465  -18.4969   14.1914 C   0  0  0  0  0  0  0  0  0  0  0  0
   10.8501  -18.2725   13.5592 C   0  0  0  0  0  0  0  0  0  0  0  0
   10.8243  -18.9970   12.4317 N   0  0  0  0  0  0  0  0  0  0  0  0
   11.9877  -19.6793   12.3375 C   0  0  0  0  0  0  0  0  0  0  0  0
   12.7204  -19.3683   13.4097 N   0  0  0  0  0  0  0  0  0  0  0  0
   12.3464  -15.9253   16.9012 C   0  0  0  0  0  0  0  0  0  0  0  0
   13.5102  -15.8075   17.2998 O   0  0  0  0  0  0  0  0  0  0  0  0
   11.2973  -15.5356   17.7347 N   0  0  0  0  0  0  0  0  0  0  0  0
   11.2976  -14.9836   19.0233 C   0  0  1  0  0  0  0  0  0  0  0  0
   10.0291  -14.4165   19.5906 C   0  0  0  0  0  0  0  0  0  0  0  0
    9.3306  -13.4709   18.6395 C   0  0  0  0  0  0  0  0  0  0  0  0
    7.9092  -13.1820   18.9729 C   0  0  0  0  0  0  0  0  0  0  0  0
    7.1796  -12.2457   18.0939 C   0  0  0  0  0  0  0  0  0  0  0  0
    5.8423  -12.0399   18.5435 N   0  0  0  0  0  0  0  0  0  0  0  0
   11.9620  -15.8251   20.0069 C   0  0  0  0  0  0  0  0  0  0  0  0
   11.7848  -17.0916   19.9008 O   0  0  0  0  0  0  0  0  0  0  0  0
   17.5713  -15.0525   22.7401 N   0  0  0  0  0  0  0  0  0  0  0  0
   17.0770  -16.2358   23.4036 C   0  0  0  0  0  0  0  0  0  0  0  0
   17.8355  -16.8063   24.2140 O   0  0  0  0  0  0  0  0  0  0  0  0
   15.7345  -16.7116   23.1009 C   0  0  0  0  0  0  0  0  0  0  0  0
   14.8764  -15.9219   22.1746 C   0  0  0  0  0  0  0  0  0  0  0  0
   13.4751  -16.3740   21.9714 C   0  0  2  0  0  0  0  0  0  0  0  0
   12.7809  -15.4231   21.0678 N   0  0  0  0  0  0  0  0  0  0  0  0
   12.6612  -16.3981   23.1977 C   0  0  0  0  0  0  0  0  0  0  0  0
   11.8033  -15.5119   23.5035 O   0  0  0  0  0  0  0  0  0  0  0  0
   12.7905  -17.4524   24.1311 O   0  0  0  0  0  0  0  0  0  0  0  0
  2  1  1  6
  3  4  1  0
  3  2  1  0
  4  5  2  0
  5  6  1  0
  7  6  1  0
  8  4  1  0
  8  7  2  0
  9  2  1  0
  9 10  2  0
 11  9  1  0
 12 11  1  0
 13 14  1  0
 12 13  1  1
 14 15  1  0
 15 16  1  0
 16 17  1  0
 18 19  2  0
 18 12  1  0
 20 21  1  0
 21 22  2  0
 23 21  1  0
 23 24  1  0
 25 24  1  1
 25 27  1  0
 25 26  1  0
 26 18  1  0
 27 29  1  0
 28 27  2  0
M  END
$$$$
