ACN.pdb
     RDKit          3D

 20 19  0  0  1  0  0  0  0  0999 V2000
    5.7943  -21.3143   20.8284 C   0  0  0  0  0  0  0  0  0  0  0  0
    5.6198  -19.8156   20.7855 C   0  0  2  0  0  0  0  0  0  0  0  0
    5.6838  -19.2629   19.4508 N   0  0  0  0  0  0  0  0  0  0  0  0
    6.5755  -19.0890   21.6472 C   0  0  0  0  0  0  0  0  0  0  0  0
    7.7216  -18.7356   21.2491 O   0  0  0  0  0  0  0  0  0  0  0  0
    6.2117  -18.7721   22.9696 N   0  0  0  0  0  0  0  0  0  0  0  0
    7.1058  -18.0902   23.9065 C   0  0  1  0  0  0  0  0  0  0  0  0
    6.3734  -16.9380   24.4987 C   0  0  0  0  0  0  0  0  0  0  0  0
    7.2530  -16.1538   25.8608 S   0  0  0  0  0  0  0  0  0  0  0  0
    7.5532  -19.1030   24.9173 C   0  0  0  0  0  0  0  0  0  0  0  0
    6.7002  -19.8251   25.4689 O   0  0  0  0  0  0  0  0  0  0  0  0
    9.7236  -23.1741   24.6646 N   0  0  0  0  0  0  0  0  0  0  0  0
   10.1132  -21.8446   24.4278 C   0  0  0  0  0  0  0  0  0  0  0  0
   10.0666  -21.3879   23.2618 O   0  0  0  0  0  0  0  0  0  0  0  0
   10.5709  -20.9782   25.5116 C   0  0  0  0  0  0  0  0  0  0  0  0
    9.4787  -20.1752   26.1682 C   0  0  2  0  0  0  0  0  0  0  0  0
    8.9157  -19.2216   25.2287 N   0  0  0  0  0  0  0  0  0  0  0  0
    9.8889  -19.4552   27.3778 C   0  0  0  0  0  0  0  0  0  0  0  0
   10.2082  -20.2121   28.5220 O   0  0  0  0  0  0  0  0  0  0  0  0
    9.9924  -18.2148   27.5201 O   0  0  0  0  0  0  0  0  0  0  0  0
  2  1  1  6
  2  3  1  0
  4  2  1  0
  4  5  2  0
  6  4  1  0
  7  6  1  0
  7  8  1  1
  9  8  1  0
 10  7  1  0
 10 17  1  0
 11 10  2  0
 13 15  1  0
 13 12  1  0
 14 13  2  0
 16 15  1  6
 16 17  1  0
 16 18  1  0
 18 20  2  0
 18 19  1  0
M  END
$$$$
