ACN.pdb
     RDKit          3D

 20 19  0  0  1  0  0  0  0  0999 V2000
    8.0514  -15.7659   17.3096 C   0  0  0  0  0  0  0  0  0  0  0  0
    7.6889  -14.4081   17.8605 C   0  0  2  0  0  0  0  0  0  0  0  0
    7.9434  -13.3226   16.9398 N   0  0  0  0  0  0  0  0  0  0  0  0
    8.3464  -14.1031   19.1483 C   0  0  0  0  0  0  0  0  0  0  0  0
    9.4161  -13.4350   19.2276 O   0  0  0  0  0  0  0  0  0  0  0  0
    7.7728  -14.5710   20.3456 N   0  0  0  0  0  0  0  0  0  0  0  0
    8.3888  -14.3792   21.6594 C   0  0  1  0  0  0  0  0  0  0  0  0
    7.3086  -14.3410   22.6823 C   0  0  0  0  0  0  0  0  0  0  0  0
    7.9244  -14.3432   24.3748 S   0  0  0  0  0  0  0  0  0  0  0  0
    9.3705  -15.4941   21.8616 C   0  0  0  0  0  0  0  0  0  0  0  0
    9.0735  -16.6401   21.4716 O   0  0  0  0  0  0  0  0  0  0  0  0
   14.8158  -16.5110   24.0291 N   0  0  0  0  0  0  0  0  0  0  0  0
   14.1026  -16.5428   22.8184 C   0  0  0  0  0  0  0  0  0  0  0  0
   14.4174  -17.3794   21.9403 O   0  0  0  0  0  0  0  0  0  0  0  0
   12.9978  -15.6225   22.5583 C   0  0  0  0  0  0  0  0  0  0  0  0
   11.6302  -16.2253   22.7452 C   0  0  2  0  0  0  0  0  0  0  0  0
   10.5999  -15.2353   22.4851 N   0  0  0  0  0  0  0  0  0  0  0  0
   11.3936  -16.8116   24.0681 C   0  0  0  0  0  0  0  0  0  0  0  0
   11.0545  -15.9445   25.1250 O   0  0  0  0  0  0  0  0  0  0  0  0
   11.4584  -18.0233   24.3800 O   0  0  0  0  0  0  0  0  0  0  0  0
  2  1  1  6
  2  3  1  0
  4  2  1  0
  4  5  2  0
  6  4  1  0
  7  6  1  0
  7  8  1  1
  9  8  1  0
 10  7  1  0
 10 17  1  0
 11 10  2  0
 13 15  1  0
 13 12  1  0
 14 13  2  0
 16 15  1  1
 16 17  1  0
 16 18  1  0
 18 20  2  0
 18 19  1  0
M  END
$$$$
