ACN.pdb
     RDKit          3D

 20 19  0  0  1  0  0  0  0  0999 V2000
    8.0898  -15.2480   18.0012 C   0  0  0  0  0  0  0  0  0  0  0  0
    8.0305  -13.9796   18.8174 C   0  0  2  0  0  0  0  0  0  0  0  0
    8.3992  -12.7950   18.0748 N   0  0  0  0  0  0  0  0  0  0  0  0
    8.8408  -14.0382   20.0518 C   0  0  0  0  0  0  0  0  0  0  0  0
   10.0378  -13.6363   20.1026 O   0  0  0  0  0  0  0  0  0  0  0  0
    8.2727  -14.5631   21.2279 N   0  0  0  0  0  0  0  0  0  0  0  0
    8.9725  -14.5937   22.5130 C   0  0  1  0  0  0  0  0  0  0  0  0
    7.9594  -14.7245   23.5953 C   0  0  0  0  0  0  0  0  0  0  0  0
    6.9376  -13.2556   23.8011 S   0  0  0  0  0  0  0  0  0  0  0  0
    9.9510  -15.7285   22.4639 C   0  0  0  0  0  0  0  0  0  0  0  0
    9.6355  -16.7740   21.8631 O   0  0  0  0  0  0  0  0  0  0  0  0
   13.1775  -15.4541   20.7880 N   0  0  0  0  0  0  0  0  0  0  0  0
   13.9963  -15.4094   21.9294 C   0  0  0  0  0  0  0  0  0  0  0  0
   15.1018  -14.8223   21.8714 O   0  0  0  0  0  0  0  0  0  0  0  0
   13.5881  -16.0309   23.1872 C   0  0  0  0  0  0  0  0  0  0  0  0
   12.2106  -16.6397   23.1608 C   0  0  2  0  0  0  0  0  0  0  0  0
   11.1982  -15.6007   23.0927 N   0  0  0  0  0  0  0  0  0  0  0  0
   11.9058  -17.5176   24.2949 C   0  0  0  0  0  0  0  0  0  0  0  0
   12.4339  -18.8233   24.2815 O   0  0  0  0  0  0  0  0  0  0  0  0
   11.2137  -17.2388   25.3014 O   0  0  0  0  0  0  0  0  0  0  0  0
  2  1  1  6
  2  3  1  0
  4  2  1  0
  4  5  2  0
  6  4  1  0
  7  6  1  0
  7  8  1  1
  9  8  1  0
 10  7  1  0
 10 17  1  0
 11 10  2  0
 13 15  1  0
 13 12  1  0
 14 13  2  0
 16 15  1  1
 16 17  1  0
 16 18  1  0
 18 20  2  0
 18 19  1  0
M  END
$$$$
