ACN.pdb
     RDKit          3D

 20 19  0  0  1  0  0  0  0  0999 V2000
    6.5889  -14.7859   20.1951 C   0  0  0  0  0  0  0  0  0  0  0  0
    7.1519  -13.4775   20.6948 C   0  0  2  0  0  0  0  0  0  0  0  0
    7.8741  -12.7346   19.6861 N   0  0  0  0  0  0  0  0  0  0  0  0
    8.0156  -13.6269   21.8845 C   0  0  0  0  0  0  0  0  0  0  0  0
    9.2736  -13.7180   21.8080 O   0  0  0  0  0  0  0  0  0  0  0  0
    7.4291  -13.6747   23.1633 N   0  0  0  0  0  0  0  0  0  0  0  0
    8.2057  -13.7870   24.3988 C   0  0  1  0  0  0  0  0  0  0  0  0
    7.4416  -13.1301   25.4939 C   0  0  0  0  0  0  0  0  0  0  0  0
    5.8293  -13.8763   25.7899 S   0  0  0  0  0  0  0  0  0  0  0  0
    8.4642  -15.2447   24.6352 C   0  0  0  0  0  0  0  0  0  0  0  0
    7.5454  -16.0626   24.4340 O   0  0  0  0  0  0  0  0  0  0  0  0
   12.5527  -16.2805   22.8881 N   0  0  0  0  0  0  0  0  0  0  0  0
   11.6218  -17.1832   23.4304 C   0  0  0  0  0  0  0  0  0  0  0  0
   10.9062  -17.8660   22.6611 O   0  0  0  0  0  0  0  0  0  0  0  0
   11.4686  -17.3471   24.8743 C   0  0  0  0  0  0  0  0  0  0  0  0
   10.0884  -17.0368   25.3916 C   0  0  2  0  0  0  0  0  0  0  0  0
    9.7263  -15.6654   25.0792 N   0  0  0  0  0  0  0  0  0  0  0  0
    9.9096  -17.2526   26.8307 C   0  0  0  0  0  0  0  0  0  0  0  0
   10.0935  -18.5560   27.3321 O   0  0  0  0  0  0  0  0  0  0  0  0
    9.6048  -16.3945   27.6912 O   0  0  0  0  0  0  0  0  0  0  0  0
  2  1  1  6
  2  3  1  0
  4  2  1  0
  4  5  2  0
  6  4  1  0
  7  6  1  0
  7  8  1  1
  9  8  1  0
 10  7  1  0
 10 17  1  0
 11 10  2  0
 13 15  1  0
 13 12  1  0
 14 13  2  0
 16 15  1  1
 16 17  1  0
 16 18  1  0
 18 20  2  0
 18 19  1  0
M  END
$$$$
