ACN.pdb
     RDKit          3D

 20 19  0  0  1  0  0  0  0  0999 V2000
    6.5487  -19.7165   23.5204 C   0  0  0  0  0  0  0  0  0  0  0  0
    5.9364  -18.3412   23.4108 C   0  0  2  0  0  0  0  0  0  0  0  0
    5.0447  -18.1922   22.2823 N   0  0  0  0  0  0  0  0  0  0  0  0
    6.9376  -17.2549   23.3721 C   0  0  0  0  0  0  0  0  0  0  0  0
    7.9736  -17.3065   22.6504 O   0  0  0  0  0  0  0  0  0  0  0  0
    6.7466  -16.1096   24.1680 N   0  0  0  0  0  0  0  0  0  0  0  0
    7.7158  -15.0156   24.2459 C   0  0  1  0  0  0  0  0  0  0  0  0
    7.0616  -13.8567   24.9120 C   0  0  0  0  0  0  0  0  0  0  0  0
    5.8549  -14.3356   26.1604 S   0  0  0  0  0  0  0  0  0  0  0  0
    8.9172  -15.5321   24.9790 C   0  0  0  0  0  0  0  0  0  0  0  0
    8.7938  -15.8906   26.1663 O   0  0  0  0  0  0  0  0  0  0  0  0
   12.6221  -18.6989   26.6536 N   0  0  0  0  0  0  0  0  0  0  0  0
   12.0979  -18.6414   25.3507 C   0  0  0  0  0  0  0  0  0  0  0  0
   12.6153  -19.3392   24.4476 O   0  0  0  0  0  0  0  0  0  0  0  0
   10.9593  -17.7865   25.0225 C   0  0  0  0  0  0  0  0  0  0  0  0
   11.3128  -16.3391   24.8011 C   0  0  2  0  0  0  0  0  0  0  0  0
   10.1558  -15.6018   24.3247 N   0  0  0  0  0  0  0  0  0  0  0  0
   12.4262  -16.1143   23.8740 C   0  0  0  0  0  0  0  0  0  0  0  0
   12.1207  -15.8545   22.5238 O   0  0  0  0  0  0  0  0  0  0  0  0
   13.6493  -16.1257   24.1454 O   0  0  0  0  0  0  0  0  0  0  0  0
  2  1  1  6
  2  3  1  0
  4  2  1  0
  4  5  2  0
  6  4  1  0
  7  6  1  0
  7  8  1  1
  9  8  1  0
 10  7  1  0
 10 17  1  0
 11 10  2  0
 13 15  1  0
 13 12  1  0
 14 13  2  0
 16 15  1  6
 16 17  1  0
 16 18  1  0
 18 20  2  0
 18 19  1  0
M  END
$$$$
