ACN.pdb
     RDKit          3D

 20 19  0  0  1  0  0  0  0  0999 V2000
    6.8526  -17.7613   24.1773 C   0  0  0  0  0  0  0  0  0  0  0  0
    6.5586  -16.6621   23.1855 C   0  0  2  0  0  0  0  0  0  0  0  0
    6.9003  -17.0045   21.8228 N   0  0  0  0  0  0  0  0  0  0  0  0
    7.2012  -15.3761   23.5278 C   0  0  0  0  0  0  0  0  0  0  0  0
    8.1933  -14.9181   22.8930 O   0  0  0  0  0  0  0  0  0  0  0  0
    6.7024  -14.6186   24.6044 N   0  0  0  0  0  0  0  0  0  0  0  0
    7.1650  -13.2655   24.9161 C   0  0  1  0  0  0  0  0  0  0  0  0
    6.0213  -12.4973   25.4787 C   0  0  0  0  0  0  0  0  0  0  0  0
    5.4550  -13.1192   27.0714 S   0  0  0  0  0  0  0  0  0  0  0  0
    8.3252  -13.3937   25.8570 C   0  0  0  0  0  0  0  0  0  0  0  0
    8.6735  -12.4021   26.5269 O   0  0  0  0  0  0  0  0  0  0  0  0
   11.4085  -14.3164   29.8146 N   0  0  0  0  0  0  0  0  0  0  0  0
   10.3765  -15.1822   29.4134 C   0  0  0  0  0  0  0  0  0  0  0  0
   10.2487  -16.2921   29.9807 O   0  0  0  0  0  0  0  0  0  0  0  0
    9.4445  -14.8179   28.3486 C   0  0  0  0  0  0  0  0  0  0  0  0
   10.0158  -14.9263   26.9591 C   0  0  2  0  0  0  0  0  0  0  0  0
    9.0001  -14.6182   25.9678 N   0  0  0  0  0  0  0  0  0  0  0  0
   10.6044  -16.2301   26.6376 C   0  0  0  0  0  0  0  0  0  0  0  0
   10.0201  -16.9819   25.5996 O   0  0  0  0  0  0  0  0  0  0  0  0
   11.5907  -16.7706   27.1896 O   0  0  0  0  0  0  0  0  0  0  0  0
  2  1  1  1
  2  3  1  0
  4  2  1  0
  4  5  2  0
  6  4  1  0
  7  6  1  0
  7  8  1  1
  9  8  1  0
 10  7  1  0
 10 17  1  0
 11 10  2  0
 13 15  1  0
 13 12  1  0
 14 13  2  0
 16 15  1  1
 16 17  1  0
 16 18  1  0
 18 20  2  0
 18 19  1  0
M  END
$$$$
