ACN.pdb
     RDKit          3D

 20 19  0  0  1  0  0  0  0  0999 V2000
    6.4384  -18.6950   18.6537 C   0  0  0  0  0  0  0  0  0  0  0  0
    7.1993  -17.6010   17.9446 C   0  0  2  0  0  0  0  0  0  0  0  0
    8.0297  -18.0808   16.8624 N   0  0  0  0  0  0  0  0  0  0  0  0
    8.0281  -16.7802   18.8518 C   0  0  0  0  0  0  0  0  0  0  0  0
    9.2417  -17.0395   19.0902 O   0  0  0  0  0  0  0  0  0  0  0  0
    7.4573  -15.6614   19.4875 N   0  0  0  0  0  0  0  0  0  0  0  0
    8.2188  -14.7477   20.3405 C   0  0  1  0  0  0  0  0  0  0  0  0
    7.4933  -13.4498   20.4018 C   0  0  0  0  0  0  0  0  0  0  0  0
    8.0171  -12.2762   19.1398 S   0  0  0  0  0  0  0  0  0  0  0  0
    8.3809  -15.4106   21.6754 C   0  0  0  0  0  0  0  0  0  0  0  0
    7.3923  -15.9543   22.2051 O   0  0  0  0  0  0  0  0  0  0  0  0
    9.6236  -19.6627   24.4813 N   0  0  0  0  0  0  0  0  0  0  0  0
   10.4588  -18.7239   23.8517 C   0  0  0  0  0  0  0  0  0  0  0  0
   11.6863  -18.7254   24.1036 O   0  0  0  0  0  0  0  0  0  0  0  0
    9.9297  -17.7440   22.9057 C   0  0  0  0  0  0  0  0  0  0  0  0
   10.0368  -16.3143   23.3674 C   0  0  2  0  0  0  0  0  0  0  0  0
    9.6330  -15.4075   22.3073 N   0  0  0  0  0  0  0  0  0  0  0  0
   11.3676  -15.9201   23.8399 C   0  0  0  0  0  0  0  0  0  0  0  0
   12.2696  -15.3803   22.9022 O   0  0  0  0  0  0  0  0  0  0  0  0
   11.8111  -16.0077   25.0084 O   0  0  0  0  0  0  0  0  0  0  0  0
  2  1  1  1
  2  3  1  0
  4  2  1  0
  4  5  2  0
  6  4  1  0
  7  6  1  0
  7  8  1  1
  9  8  1  0
 10  7  1  0
 10 17  1  0
 11 10  2  0
 13 15  1  0
 13 12  1  0
 14 13  2  0
 16 15  1  6
 16 17  1  0
 16 18  1  0
 18 20  2  0
 18 19  1  0
M  END
$$$$
