PYM.pdb
     RDKit          3D

 28 29  0  0  1  0  0  0  0  0999 V2000
   27.4969  -21.4219  -15.2785 N   0  0  0  0  0  0  0  0  0  0  0  0
   27.0623  -21.4546  -16.6614 C   0  0  0  0  0  0  0  0  0  0  0  0
   27.4290  -20.1072  -17.2345 C   0  0  0  0  0  0  0  0  0  0  0  0
   27.2526  -19.1884  -16.0689 C   0  0  0  0  0  0  0  0  0  0  0  0
   27.5695  -20.0486  -14.8904 C   0  0  1  0  0  0  0  0  0  0  0  0
   26.7314  -19.7436  -13.6995 C   0  0  0  0  0  0  0  0  0  0  0  0
   26.5455  -18.5527  -13.3404 O   0  0  0  0  0  0  0  0  0  0  0  0
   20.3313  -18.9951  -16.0077 O   0  0  0  0  0  0  0  0  0  0  0  0
   21.2068  -19.5787  -15.0960 C   0  0  0  0  0  0  0  0  0  0  0  0
   21.2517  -19.1064  -13.8001 C   0  0  0  0  0  0  0  0  0  0  0  0
   22.1074  -19.6650  -12.8797 C   0  0  0  0  0  0  0  0  0  0  0  0
   22.9662  -20.7248  -13.1979 C   0  0  0  0  0  0  0  0  0  0  0  0
   23.8992  -21.2959  -12.2500 C   0  0  0  0  0  0  0  0  0  0  0  0
   25.1356  -20.5706  -11.9070 C   0  0  2  0  0  0  0  0  0  0  0  0
   26.1439  -20.8116  -12.9730 N   0  0  0  0  0  0  0  0  0  0  0  0
   25.7521  -20.9997  -10.6478 C   0  0  0  0  0  0  0  0  0  0  0  0
   25.9208  -22.2405  -10.4368 O   0  0  0  0  0  0  0  0  0  0  0  0
   22.9045  -21.1798  -14.4952 C   0  0  0  0  0  0  0  0  0  0  0  0
   22.0399  -20.6201  -15.4371 C   0  0  0  0  0  0  0  0  0  0  0  0
   28.9495  -19.6633   -3.4707 C   0  0  0  0  0  0  0  0  0  0  0  0
   28.4120  -18.9203   -5.0425 S   0  0  0  0  0  0  0  0  0  0  0  0
   27.4965  -20.0763   -6.0524 C   0  0  0  0  0  0  0  0  0  0  0  0
   27.1585  -19.6209   -7.4253 C   0  0  0  0  0  0  0  0  0  0  0  0
   26.4885  -20.6932   -8.2842 C   0  0  2  0  0  0  0  0  0  0  0  0
   26.2015  -20.1359   -9.6059 N   0  0  0  0  0  0  0  0  0  0  0  0
   25.2638  -21.1439   -7.6211 C   0  0  0  0  0  0  0  0  0  0  0  0
   24.1375  -20.7248   -7.9564 O   0  0  0  0  0  0  0  0  0  0  0  0
   25.2771  -22.0758   -6.5694 O   0  0  0  0  0  0  0  0  0  0  0  0
  1  5  1  0
  2  3  1  0
  2  1  1  0
  3  4  1  0
  4  5  1  0
  5  6  1  1
  6  7  2  0
  9  8  1  0
  9 19  2  0
 10  9  1  0
 11 10  2  0
 11 12  1  0
 12 18  2  0
 13 12  1  0
 14 13  1  6
 14 16  1  0
 15 14  1  0
 15  6  1  0
 16 17  2  0
 16 25  1  0
 18 19  1  0
 21 22  1  0
 21 20  1  0
 22 23  1  0
 24 23  1  1
 24 26  1  0
 25 24  1  0
 26 27  2  0
 26 28  1  0
M  END
$$$$
