PYM.pdb
     RDKit          3D

 28 29  0  0  1  0  0  0  0  0999 V2000
   28.0580  -22.5301  -17.5489 N   0  0  0  0  0  0  0  0  0  0  0  0
   27.5285  -22.6562  -18.8929 C   0  0  0  0  0  0  0  0  0  0  0  0
   27.0524  -21.2752  -19.2732 C   0  0  0  0  0  0  0  0  0  0  0  0
   26.5739  -20.7160  -17.9723 C   0  0  0  0  0  0  0  0  0  0  0  0
   27.4475  -21.3803  -16.9601 C   0  0  1  0  0  0  0  0  0  0  0  0
   26.7392  -21.6937  -15.6897 C   0  0  0  0  0  0  0  0  0  0  0  0
   26.1894  -22.8132  -15.5273 O   0  0  0  0  0  0  0  0  0  0  0  0
   24.8019  -20.4753   -6.9856 O   0  0  0  0  0  0  0  0  0  0  0  0
   25.2979  -20.4293   -8.2857 C   0  0  0  0  0  0  0  0  0  0  0  0
   24.9650  -19.3676   -9.1020 C   0  0  0  0  0  0  0  0  0  0  0  0
   25.4413  -19.2977  -10.3903 C   0  0  0  0  0  0  0  0  0  0  0  0
   26.2755  -20.2807  -10.9378 C   0  0  0  0  0  0  0  0  0  0  0  0
   26.7521  -20.2394  -12.3040 C   0  0  0  0  0  0  0  0  0  0  0  0
   26.0380  -20.9866  -13.3548 C   0  0  2  0  0  0  0  0  0  0  0  0
   26.6907  -20.7153  -14.6631 N   0  0  0  0  0  0  0  0  0  0  0  0
   24.6297  -20.6082  -13.5071 C   0  0  0  0  0  0  0  0  0  0  0  0
   24.3411  -19.5657  -14.1723 O   0  0  0  0  0  0  0  0  0  0  0  0
   26.5947  -21.3297  -10.1061 C   0  0  0  0  0  0  0  0  0  0  0  0
   26.1167  -21.4104   -8.7973 C   0  0  0  0  0  0  0  0  0  0  0  0
   19.6330  -21.8314  -17.2025 C   0  0  0  0  0  0  0  0  0  0  0  0
   19.0395  -22.1598  -15.5139 S   0  0  0  0  0  0  0  0  0  0  0  0
   19.9707  -21.2527  -14.2874 C   0  0  0  0  0  0  0  0  0  0  0  0
   21.3854  -21.6661  -14.1024 C   0  0  0  0  0  0  0  0  0  0  0  0
   22.1682  -20.7748  -13.1383 C   0  0  2  0  0  0  0  0  0  0  0  0
   23.5157  -21.3194  -12.9718 N   0  0  0  0  0  0  0  0  0  0  0  0
   21.4594  -20.7121  -11.8591 C   0  0  0  0  0  0  0  0  0  0  0  0
   21.8606  -21.3261  -10.8499 O   0  0  0  0  0  0  0  0  0  0  0  0
   20.2869  -19.9573  -11.6851 O   0  0  0  0  0  0  0  0  0  0  0  0
  1  5  1  0
  2  3  1  0
  2  1  1  0
  3  4  1  0
  4  5  1  0
  5  6  1  1
  6  7  2  0
  9  8  1  0
  9 19  2  0
 10  9  1  0
 11 10  2  0
 11 12  1  0
 12 18  2  0
 13 12  1  0
 14 13  1  1
 14 16  1  0
 15 14  1  0
 15  6  1  0
 16 17  2  0
 16 25  1  0
 18 19  1  0
 21 22  1  0
 21 20  1  0
 22 23  1  0
 24 23  1  6
 24 26  1  0
 25 24  1  0
 26 27  2  0
 26 28  1  0
M  END
$$$$
