PYM.pdb
     RDKit          3D

 28 29  0  0  1  0  0  0  0  0999 V2000
   28.4516  -20.9727  -15.5381 N   0  0  0  0  0  0  0  0  0  0  0  0
   28.1684  -20.8679  -16.9563 C   0  0  0  0  0  0  0  0  0  0  0  0
   28.5714  -19.4672  -17.3486 C   0  0  0  0  0  0  0  0  0  0  0  0
   28.2555  -18.6722  -16.1229 C   0  0  0  0  0  0  0  0  0  0  0  0
   28.4588  -19.6455  -15.0091 C   0  0  1  0  0  0  0  0  0  0  0  0
   27.4928  -19.4678  -13.8915 C   0  0  0  0  0  0  0  0  0  0  0  0
   27.2816  -18.3259  -13.4086 O   0  0  0  0  0  0  0  0  0  0  0  0
   19.6040  -18.6375  -13.5420 O   0  0  0  0  0  0  0  0  0  0  0  0
   20.8274  -19.2819  -13.3799 C   0  0  0  0  0  0  0  0  0  0  0  0
   21.0199  -20.1093  -12.2923 C   0  0  0  0  0  0  0  0  0  0  0  0
   22.2187  -20.7579  -12.1085 C   0  0  0  0  0  0  0  0  0  0  0  0
   23.2926  -20.6189  -12.9969 C   0  0  0  0  0  0  0  0  0  0  0  0
   24.5723  -21.2645  -12.7947 C   0  0  0  0  0  0  0  0  0  0  0  0
   25.7355  -20.4712  -12.3590 C   0  0  2  0  0  0  0  0  0  0  0  0
   26.8124  -20.6013  -13.3761 N   0  0  0  0  0  0  0  0  0  0  0  0
   26.3140  -20.9066  -11.0840 C   0  0  0  0  0  0  0  0  0  0  0  0
   26.8744  -22.0443  -11.0193 O   0  0  0  0  0  0  0  0  0  0  0  0
   23.0784  -19.7895  -14.0740 C   0  0  0  0  0  0  0  0  0  0  0  0
   21.8659  -19.1266  -14.2699 C   0  0  0  0  0  0  0  0  0  0  0  0
   27.6020  -18.1584   -4.4840 C   0  0  0  0  0  0  0  0  0  0  0  0
   28.6854  -19.3731   -5.2978 S   0  0  0  0  0  0  0  0  0  0  0  0
   27.7779  -20.4503   -6.3979 C   0  0  0  0  0  0  0  0  0  0  0  0
   27.4924  -19.9119   -7.7525 C   0  0  0  0  0  0  0  0  0  0  0  0
   26.6183  -20.8275   -8.6093 C   0  0  2  0  0  0  0  0  0  0  0  0
   26.3164  -20.1544   -9.8726 N   0  0  0  0  0  0  0  0  0  0  0  0
   25.3943  -21.1494   -7.8738 C   0  0  0  0  0  0  0  0  0  0  0  0
   25.4107  -21.8293   -6.8279 O   0  0  0  0  0  0  0  0  0  0  0  0
   24.1267  -20.7130   -8.2953 O   0  0  0  0  0  0  0  0  0  0  0  0
  1  5  1  0
  2  3  1  0
  2  1  1  0
  3  4  1  0
  4  5  1  0
  5  6  1  1
  6  7  2  0
  9  8  1  0
  9 19  2  0
 10  9  1  0
 11 10  2  0
 11 12  1  0
 12 18  2  0
 13 12  1  0
 14 13  1  6
 14 16  1  0
 15 14  1  0
 15  6  1  0
 16 17  2  0
 16 25  1  0
 18 19  1  0
 21 22  1  0
 21 20  1  0
 22 23  1  0
 24 23  1  1
 24 26  1  0
 25 24  1  0
 26 27  2  0
 26 28  1  0
M  END
$$$$
