PYM.pdb
     RDKit          3D

 28 29  0  0  1  0  0  0  0  0999 V2000
   27.3537  -20.0585  -16.2872 N   0  0  0  0  0  0  0  0  0  0  0  0
   27.7920  -19.1787  -17.3532 C   0  0  0  0  0  0  0  0  0  0  0  0
   29.1091  -18.6047  -16.8905 C   0  0  0  0  0  0  0  0  0  0  0  0
   28.9275  -18.5004  -15.4106 C   0  0  0  0  0  0  0  0  0  0  0  0
   28.0002  -19.6255  -15.0889 C   0  0  1  0  0  0  0  0  0  0  0  0
   27.0370  -19.2992  -14.0028 C   0  0  0  0  0  0  0  0  0  0  0  0
   26.6830  -18.1091  -13.8027 O   0  0  0  0  0  0  0  0  0  0  0  0
   19.3545  -19.9154   -9.8959 O   0  0  0  0  0  0  0  0  0  0  0  0
   20.5417  -20.1270  -10.5918 C   0  0  0  0  0  0  0  0  0  0  0  0
   21.3552  -21.1849  -10.2403 C   0  0  0  0  0  0  0  0  0  0  0  0
   22.5332  -21.4164  -10.9112 C   0  0  0  0  0  0  0  0  0  0  0  0
   22.9671  -20.6078  -11.9695 C   0  0  0  0  0  0  0  0  0  0  0  0
   24.2229  -20.8166  -12.6583 C   0  0  0  0  0  0  0  0  0  0  0  0
   25.4351  -20.1095  -12.2081 C   0  0  2  0  0  0  0  0  0  0  0  0
   26.5221  -20.3460  -13.1949 N   0  0  0  0  0  0  0  0  0  0  0  0
   25.9463  -20.5630  -10.9109 C   0  0  0  0  0  0  0  0  0  0  0  0
   26.3880  -21.7488  -10.8041 O   0  0  0  0  0  0  0  0  0  0  0  0
   22.1404  -19.5593  -12.3030 C   0  0  0  0  0  0  0  0  0  0  0  0
   20.9430  -19.3154  -11.6286 C   0  0  0  0  0  0  0  0  0  0  0  0
   29.9509  -19.7680   -4.5264 C   0  0  0  0  0  0  0  0  0  0  0  0
   28.5328  -18.8858   -5.2490 S   0  0  0  0  0  0  0  0  0  0  0  0
   27.5207  -19.9574   -6.2597 C   0  0  0  0  0  0  0  0  0  0  0  0
   27.1073  -19.4140   -7.5789 C   0  0  0  0  0  0  0  0  0  0  0  0
   26.3621  -20.4205   -8.4553 C   0  0  2  0  0  0  0  0  0  0  0  0
   26.0052  -19.7794   -9.7209 N   0  0  0  0  0  0  0  0  0  0  0  0
   25.1718  -20.8886   -7.7435 C   0  0  0  0  0  0  0  0  0  0  0  0
   24.0355  -20.4328   -7.9837 O   0  0  0  0  0  0  0  0  0  0  0  0
   25.2313  -21.8796   -6.7489 O   0  0  0  0  0  0  0  0  0  0  0  0
  1  5  1  0
  2  3  1  0
  2  1  1  0
  3  4  1  0
  4  5  1  0
  5  6  1  1
  6  7  2  0
  9  8  1  0
  9 19  2  0
 10  9  1  0
 11 10  2  0
 11 12  1  0
 12 18  2  0
 13 12  1  0
 14 13  1  6
 14 16  1  0
 15 14  1  0
 15  6  1  0
 16 17  2  0
 16 25  1  0
 18 19  1  0
 21 22  1  0
 21 20  1  0
 22 23  1  0
 24 23  1  1
 24 26  1  0
 25 24  1  0
 26 27  2  0
 26 28  1  0
M  END
$$$$
