PYM.pdb
     RDKit          3D

 28 29  0  0  1  0  0  0  0  0999 V2000
   27.6188  -21.8029  -15.1834 N   0  0  0  0  0  0  0  0  0  0  0  0
   27.1640  -21.9415  -16.5532 C   0  0  0  0  0  0  0  0  0  0  0  0
   27.5566  -20.6578  -17.2434 C   0  0  0  0  0  0  0  0  0  0  0  0
   27.4201  -19.6390  -16.1583 C   0  0  0  0  0  0  0  0  0  0  0  0
   27.7317  -20.4041  -14.9147 C   0  0  1  0  0  0  0  0  0  0  0  0
   26.9186  -19.9770  -13.7442 C   0  0  0  0  0  0  0  0  0  0  0  0
   26.8463  -18.7616  -13.4292 O   0  0  0  0  0  0  0  0  0  0  0  0
   20.1608  -18.8884  -15.5828 O   0  0  0  0  0  0  0  0  0  0  0  0
   21.1012  -19.4936  -14.7534 C   0  0  0  0  0  0  0  0  0  0  0  0
   21.1652  -19.1324  -13.4230 C   0  0  0  0  0  0  0  0  0  0  0  0
   22.0847  -19.7146  -12.5821 C   0  0  0  0  0  0  0  0  0  0  0  0
   22.9917  -20.6886  -13.0186 C   0  0  0  0  0  0  0  0  0  0  0  0
   23.9900  -21.2809  -12.1539 C   0  0  0  0  0  0  0  0  0  0  0  0
   25.2650  -20.5811  -11.9154 C   0  0  2  0  0  0  0  0  0  0  0  0
   26.2253  -20.9565  -12.9869 N   0  0  0  0  0  0  0  0  0  0  0  0
   25.9078  -20.9239  -10.6430 C   0  0  0  0  0  0  0  0  0  0  0  0
   26.3764  -22.0937  -10.4860 O   0  0  0  0  0  0  0  0  0  0  0  0
   22.9098  -21.0334  -14.3484 C   0  0  0  0  0  0  0  0  0  0  0  0
   21.9807  -20.4488  -15.2103 C   0  0  0  0  0  0  0  0  0  0  0  0
   30.1642  -19.1187   -5.3881 C   0  0  0  0  0  0  0  0  0  0  0  0
   28.3970  -18.9272   -4.9988 S   0  0  0  0  0  0  0  0  0  0  0  0
   27.3723  -20.0136   -5.9807 C   0  0  0  0  0  0  0  0  0  0  0  0
   27.1150  -19.5836   -7.3790 C   0  0  0  0  0  0  0  0  0  0  0  0
   26.3361  -20.6061   -8.2062 C   0  0  2  0  0  0  0  0  0  0  0  0
   26.0708  -20.0460   -9.5312 N   0  0  0  0  0  0  0  0  0  0  0  0
   25.0911  -20.9379   -7.5114 C   0  0  0  0  0  0  0  0  0  0  0  0
   23.9848  -20.5073   -7.8948 O   0  0  0  0  0  0  0  0  0  0  0  0
   25.0614  -21.7616   -6.3732 O   0  0  0  0  0  0  0  0  0  0  0  0
  1  5  1  0
  2  3  1  0
  2  1  1  0
  3  4  1  0
  4  5  1  0
  5  6  1  1
  6  7  2  0
  9  8  1  0
  9 19  2  0
 10  9  1  0
 11 10  2  0
 11 12  1  0
 12 18  2  0
 13 12  1  0
 14 13  1  6
 14 16  1  0
 15 14  1  0
 15  6  1  0
 16 17  2  0
 16 25  1  0
 18 19  1  0
 21 22  1  0
 21 20  1  0
 22 23  1  0
 24 23  1  1
 24 26  1  0
 25 24  1  0
 26 27  2  0
 26 28  1  0
M  END
$$$$
