PYM.pdb
     RDKit          3D

 28 29  0  0  1  0  0  0  0  0999 V2000
   27.9404  -21.0299  -15.1336 N   0  0  0  0  0  0  0  0  0  0  0  0
   27.6075  -20.8145  -16.5283 C   0  0  0  0  0  0  0  0  0  0  0  0
   28.1384  -19.4423  -16.8654 C   0  0  0  0  0  0  0  0  0  0  0  0
   27.9625  -18.6914  -15.5851 C   0  0  0  0  0  0  0  0  0  0  0  0
   28.1110  -19.7433  -14.5360 C   0  0  1  0  0  0  0  0  0  0  0  0
   27.2194  -19.5321  -13.3637 C   0  0  0  0  0  0  0  0  0  0  0  0
   27.1164  -18.3935  -12.8396 O   0  0  0  0  0  0  0  0  0  0  0  0
   20.5861  -18.8885  -15.8400 O   0  0  0  0  0  0  0  0  0  0  0  0
   21.4808  -19.4308  -14.9214 C   0  0  0  0  0  0  0  0  0  0  0  0
   22.4866  -20.2651  -15.3649 C   0  0  0  0  0  0  0  0  0  0  0  0
   23.3836  -20.8142  -14.4787 C   0  0  0  0  0  0  0  0  0  0  0  0
   23.3294  -20.5634  -13.1017 C   0  0  0  0  0  0  0  0  0  0  0  0
   24.2428  -21.1654  -12.1537 C   0  0  0  0  0  0  0  0  0  0  0  0
   25.4751  -20.4553  -11.7672 C   0  0  2  0  0  0  0  0  0  0  0  0
   26.4864  -20.6301  -12.8433 N   0  0  0  0  0  0  0  0  0  0  0  0
   26.0914  -20.9531  -10.5335 C   0  0  0  0  0  0  0  0  0  0  0  0
   26.4531  -22.1689  -10.4735 O   0  0  0  0  0  0  0  0  0  0  0  0
   22.3189  -19.7288  -12.6820 C   0  0  0  0  0  0  0  0  0  0  0  0
   21.4033  -19.1665  -13.5728 C   0  0  0  0  0  0  0  0  0  0  0  0
   28.9051  -17.9595   -5.3273 C   0  0  0  0  0  0  0  0  0  0  0  0
   28.3006  -19.5027   -4.5760 S   0  0  0  0  0  0  0  0  0  0  0  0
   27.4350  -20.5289   -5.7559 C   0  0  0  0  0  0  0  0  0  0  0  0
   27.2820  -19.9678   -7.1227 C   0  0  0  0  0  0  0  0  0  0  0  0
   26.4850  -20.8625   -8.0718 C   0  0  2  0  0  0  0  0  0  0  0  0
   26.3396  -20.1831   -9.3592 N   0  0  0  0  0  0  0  0  0  0  0  0
   25.1804  -21.1539   -7.4753 C   0  0  0  0  0  0  0  0  0  0  0  0
   24.1366  -20.5884   -7.8591 O   0  0  0  0  0  0  0  0  0  0  0  0
   25.0195  -22.0874   -6.4373 O   0  0  0  0  0  0  0  0  0  0  0  0
  1  5  1  0
  2  3  1  0
  2  1  1  0
  3  4  1  0
  4  5  1  0
  5  6  1  1
  6  7  2  0
  9  8  1  0
  9 19  2  0
 10  9  1  0
 11 10  2  0
 11 12  1  0
 12 18  2  0
 13 12  1  0
 14 13  1  6
 14 16  1  0
 15 14  1  0
 15  6  1  0
 16 17  2  0
 16 25  1  0
 18 19  1  0
 21 22  1  0
 21 20  1  0
 22 23  1  0
 24 23  1  1
 24 26  1  0
 25 24  1  0
 26 27  2  0
 26 28  1  0
M  END
$$$$
