PYM.pdb
     RDKit          3D

 28 29  0  0  1  0  0  0  0  0999 V2000
   27.7956  -21.5619  -15.1246 N   0  0  0  0  0  0  0  0  0  0  0  0
   27.3794  -21.5172  -16.5129 C   0  0  0  0  0  0  0  0  0  0  0  0
   27.9239  -20.2195  -17.0586 C   0  0  0  0  0  0  0  0  0  0  0  0
   27.8511  -19.3037  -15.8796 C   0  0  0  0  0  0  0  0  0  0  0  0
   28.0387  -20.2157  -14.7124 C   0  0  1  0  0  0  0  0  0  0  0  0
   27.2304  -19.8238  -13.5263 C   0  0  0  0  0  0  0  0  0  0  0  0
   27.2070  -18.6273  -13.1394 O   0  0  0  0  0  0  0  0  0  0  0  0
   20.9501  -18.3654  -16.0656 O   0  0  0  0  0  0  0  0  0  0  0  0
   21.7433  -18.9962  -15.1110 C   0  0  0  0  0  0  0  0  0  0  0  0
   22.4151  -20.1546  -15.4446 C   0  0  0  0  0  0  0  0  0  0  0  0
   23.2051  -20.7977  -14.5206 C   0  0  0  0  0  0  0  0  0  0  0  0
   23.3704  -20.3235  -13.2130 C   0  0  0  0  0  0  0  0  0  0  0  0
   24.1673  -21.0112  -12.2194 C   0  0  0  0  0  0  0  0  0  0  0  0
   25.4706  -20.4578  -11.8102 C   0  0  2  0  0  0  0  0  0  0  0  0
   26.4862  -20.8153  -12.8359 N   0  0  0  0  0  0  0  0  0  0  0  0
   25.9687  -20.9790  -10.5336 C   0  0  0  0  0  0  0  0  0  0  0  0
   26.1931  -22.2240  -10.4228 O   0  0  0  0  0  0  0  0  0  0  0  0
   22.6918  -19.1672  -12.9025 C   0  0  0  0  0  0  0  0  0  0  0  0
   21.8875  -18.5069  -13.8325 C   0  0  0  0  0  0  0  0  0  0  0  0
   28.9550  -17.9258   -5.4639 C   0  0  0  0  0  0  0  0  0  0  0  0
   28.3312  -19.4322   -4.6558 S   0  0  0  0  0  0  0  0  0  0  0  0
   27.3830  -20.4511   -5.7769 C   0  0  0  0  0  0  0  0  0  0  0  0
   27.2653  -19.9544   -7.1719 C   0  0  0  0  0  0  0  0  0  0  0  0
   26.4682  -20.8792   -8.0915 C   0  0  2  0  0  0  0  0  0  0  0  0
   26.2414  -20.2030   -9.3687 N   0  0  0  0  0  0  0  0  0  0  0  0
   25.2027  -21.2273   -7.4433 C   0  0  0  0  0  0  0  0  0  0  0  0
   24.1168  -20.7290   -7.8023 O   0  0  0  0  0  0  0  0  0  0  0  0
   25.1292  -22.1433   -6.3802 O   0  0  0  0  0  0  0  0  0  0  0  0
  1  5  1  0
  2  3  1  0
  2  1  1  0
  3  4  1  0
  4  5  1  0
  5  6  1  1
  6  7  2  0
  9  8  1  0
  9 19  2  0
 10  9  1  0
 11 10  2  0
 11 12  1  0
 12 18  2  0
 13 12  1  0
 14 13  1  6
 14 16  1  0
 15 14  1  0
 15  6  1  0
 16 17  2  0
 16 25  1  0
 18 19  1  0
 21 22  1  0
 21 20  1  0
 22 23  1  0
 24 23  1  1
 24 26  1  0
 25 24  1  0
 26 27  2  0
 26 28  1  0
M  END
$$$$
