PYM.pdb
     RDKit          3D

 28 29  0  0  1  0  0  0  0  0999 V2000
   27.4565  -20.9532  -15.5730 N   0  0  0  0  0  0  0  0  0  0  0  0
   27.0478  -20.8967  -16.9630 C   0  0  0  0  0  0  0  0  0  0  0  0
   27.4397  -19.5215  -17.4461 C   0  0  0  0  0  0  0  0  0  0  0  0
   27.2513  -18.6731  -16.2301 C   0  0  0  0  0  0  0  0  0  0  0  0
   27.5366  -19.6071  -15.1007 C   0  0  1  0  0  0  0  0  0  0  0  0
   26.6795  -19.3650  -13.9089 C   0  0  0  0  0  0  0  0  0  0  0  0
   26.4924  -18.1951  -13.4868 O   0  0  0  0  0  0  0  0  0  0  0  0
   20.4723  -18.2566  -16.2968 O   0  0  0  0  0  0  0  0  0  0  0  0
   21.2952  -18.9273  -15.3961 C   0  0  0  0  0  0  0  0  0  0  0  0
   21.1299  -18.7203  -14.0417 C   0  0  0  0  0  0  0  0  0  0  0  0
   21.9293  -19.3700  -13.1306 C   0  0  0  0  0  0  0  0  0  0  0  0
   22.9378  -20.2620  -13.5168 C   0  0  0  0  0  0  0  0  0  0  0  0
   23.8117  -20.9224  -12.5705 C   0  0  0  0  0  0  0  0  0  0  0  0
   25.0768  -20.2827  -12.1674 C   0  0  2  0  0  0  0  0  0  0  0  0
   26.0753  -20.4690  -13.2534 N   0  0  0  0  0  0  0  0  0  0  0  0
   25.6736  -20.8478  -10.9533 C   0  0  0  0  0  0  0  0  0  0  0  0
   25.8485  -22.1036  -10.8807 O   0  0  0  0  0  0  0  0  0  0  0  0
   23.0847  -20.4534  -14.8717 C   0  0  0  0  0  0  0  0  0  0  0  0
   22.2789  -19.7991  -15.8047 C   0  0  0  0  0  0  0  0  0  0  0  0
   29.3695  -18.2802   -6.0969 C   0  0  0  0  0  0  0  0  0  0  0  0
   28.5390  -19.6455   -5.2265 S   0  0  0  0  0  0  0  0  0  0  0  0
   27.4195  -20.5395   -6.2949 C   0  0  0  0  0  0  0  0  0  0  0  0
   27.1805  -19.9461   -7.6356 C   0  0  0  0  0  0  0  0  0  0  0  0
   26.2791  -20.7928   -8.5339 C   0  0  2  0  0  0  0  0  0  0  0  0
   26.0971  -20.1049   -9.8121 N   0  0  0  0  0  0  0  0  0  0  0  0
   24.9974  -21.0097   -7.8608 C   0  0  0  0  0  0  0  0  0  0  0  0
   23.9727  -20.3671   -8.1668 O   0  0  0  0  0  0  0  0  0  0  0  0
   24.8383  -21.9536   -6.8320 O   0  0  0  0  0  0  0  0  0  0  0  0
  1  5  1  0
  2  3  1  0
  2  1  1  0
  3  4  1  0
  4  5  1  0
  5  6  1  1
  6  7  2  0
  9  8  1  0
  9 19  2  0
 10  9  1  0
 11 10  2  0
 11 12  1  0
 12 18  2  0
 13 12  1  0
 14 13  1  6
 14 16  1  0
 15 14  1  0
 15  6  1  0
 16 17  2  0
 16 25  1  0
 18 19  1  0
 21 22  1  0
 21 20  1  0
 22 23  1  0
 24 23  1  1
 24 26  1  0
 25 24  1  0
 26 27  2  0
 26 28  1  0
M  END
$$$$
