GVL.pdb
     RDKit          3D

 20 19  0  0  1  0  0  0  0  0999 V2000
   14.6775  -13.4843  -12.1015 N   0  0  0  0  0  0  0  0  0  0  0  0
   15.0937  -12.5421  -11.1023 C   0  0  0  0  0  0  0  0  0  0  0  0
   15.2621  -11.1730  -11.6490 C   0  0  0  0  0  0  0  0  0  0  0  0
   15.3150  -10.9925  -12.8970 O   0  0  0  0  0  0  0  0  0  0  0  0
   15.3375   -7.8746   -8.9975 C   0  0  0  0  0  0  0  0  0  0  0  0
   14.7719   -7.6822  -10.3911 C   0  0  1  0  0  0  0  0  0  0  0  0
   14.9443   -6.2610  -10.8715 C   0  0  0  0  0  0  0  0  0  0  0  0
   15.4227   -8.6798  -11.3234 C   0  0  2  0  0  0  0  0  0  0  0  0
   15.3707  -10.0205  -10.8309 N   0  0  0  0  0  0  0  0  0  0  0  0
   16.8428   -8.3044  -11.5365 C   0  0  0  0  0  0  0  0  0  0  0  0
   17.6703   -8.4286  -10.6206 O   0  0  0  0  0  0  0  0  0  0  0  0
   21.6336   -8.4979  -13.2539 C   0  0  0  0  0  0  0  0  0  0  0  0
   20.6534   -8.2653  -14.3867 C   0  0  1  0  0  0  0  0  0  0  0  0
   20.9959   -9.1818  -15.5717 C   0  0  0  0  0  0  0  0  0  0  0  0
   19.2335   -8.5323  -13.9553 C   0  0  0  0  0  0  0  0  0  0  0  0
   18.7061   -7.4578  -13.0321 C   0  0  2  0  0  0  0  0  0  0  0  0
   17.3126   -7.7942  -12.7784 N   0  0  0  0  0  0  0  0  0  0  0  0
   18.7134   -6.1295  -13.6880 C   0  0  0  0  0  0  0  0  0  0  0  0
   17.7811   -5.7622  -14.4811 O   0  0  0  0  0  0  0  0  0  0  0  0
   19.7114   -5.1724  -13.5094 O   0  0  0  0  0  0  0  0  0  0  0  0
  2  1  1  0
  3  2  1  0
  4  3  2  0
  6  5  1  1
  6  8  1  0
  7  6  1  0
  8 10  1  0
  8  9  1  1
  9  3  1  0
 10 17  1  0
 11 10  2  0
 13 12  1  1
 13 14  1  0
 15 13  1  0
 16 15  1  6
 17 16  1  0
 18 20  1  0
 18 16  1  0
 19 18  2  0
M  END
$$$$
