GVL.pdb
     RDKit          3D

 20 19  0  0  1  0  0  0  0  0999 V2000
   18.6469  -20.5726  -11.8765 N   0  0  0  0  0  0  0  0  0  0  0  0
   19.5445  -19.7471  -12.6330 C   0  0  0  0  0  0  0  0  0  0  0  0
   20.7651  -20.4767  -13.0564 C   0  0  0  0  0  0  0  0  0  0  0  0
   21.1862  -21.4529  -12.3765 O   0  0  0  0  0  0  0  0  0  0  0  0
   22.8798  -19.3461  -16.6172 C   0  0  0  0  0  0  0  0  0  0  0  0
   22.8138  -20.7972  -16.1826 C   0  0  1  0  0  0  0  0  0  0  0  0
   24.0189  -21.5756  -16.6537 C   0  0  0  0  0  0  0  0  0  0  0  0
   22.6562  -20.8493  -14.6791 C   0  0  2  0  0  0  0  0  0  0  0  0
   21.5099  -20.1341  -14.2129 N   0  0  0  0  0  0  0  0  0  0  0  0
   23.8671  -20.2823  -14.0348 C   0  0  0  0  0  0  0  0  0  0  0  0
   24.0217  -19.0538  -13.9579 O   0  0  0  0  0  0  0  0  0  0  0  0
   25.1393  -21.4855   -9.2698 C   0  0  0  0  0  0  0  0  0  0  0  0
   25.0777  -20.7811  -10.6106 C   0  0  1  0  0  0  0  0  0  0  0  0
   25.1555  -19.2599  -10.4068 C   0  0  0  0  0  0  0  0  0  0  0  0
   26.2036  -21.2122  -11.5161 C   0  0  0  0  0  0  0  0  0  0  0  0
   26.1070  -20.5817  -12.8865 C   0  0  2  0  0  0  0  0  0  0  0  0
   24.8882  -21.1062  -13.4854 N   0  0  0  0  0  0  0  0  0  0  0  0
   27.2284  -21.0050  -13.7571 C   0  0  0  0  0  0  0  0  0  0  0  0
   28.4161  -20.5631  -13.5924 O   0  0  0  0  0  0  0  0  0  0  0  0
   27.1032  -21.9049  -14.8147 O   0  0  0  0  0  0  0  0  0  0  0  0
  2  1  1  0
  3  2  1  0
  4  3  2  0
  6  5  1  1
  6  8  1  0
  7  6  1  0
  8 10  1  0
  8  9  1  6
  9  3  1  0
 10 17  1  0
 11 10  2  0
 13 12  1  1
 13 14  1  0
 15 13  1  0
 16 15  1  1
 17 16  1  0
 18 20  1  0
 18 16  1  0
 19 18  2  0
M  END
$$$$
