GVL.pdb
     RDKit          3D

 20 19  0  0  1  0  0  0  0  0999 V2000
   18.0805  -20.6489  -13.6285 N   0  0  0  0  0  0  0  0  0  0  0  0
   19.3141  -19.9473  -13.8408 C   0  0  0  0  0  0  0  0  0  0  0  0
   20.4995  -20.7607  -13.4738 C   0  0  0  0  0  0  0  0  0  0  0  0
   20.4562  -21.5245  -12.4702 O   0  0  0  0  0  0  0  0  0  0  0  0
   23.5433  -21.4626  -16.3162 C   0  0  0  0  0  0  0  0  0  0  0  0
   23.2107  -22.4121  -15.1816 C   0  0  1  0  0  0  0  0  0  0  0  0
   24.3523  -23.3575  -14.8932 C   0  0  0  0  0  0  0  0  0  0  0  0
   22.8234  -21.6012  -13.9649 C   0  0  2  0  0  0  0  0  0  0  0  0
   21.7146  -20.7316  -14.2035 N   0  0  0  0  0  0  0  0  0  0  0  0
   23.9828  -20.7863  -13.5238 C   0  0  0  0  0  0  0  0  0  0  0  0
   24.1611  -19.6470  -13.9813 O   0  0  0  0  0  0  0  0  0  0  0  0
   25.7210  -21.1764   -8.3672 C   0  0  0  0  0  0  0  0  0  0  0  0
   25.3993  -20.6074   -9.7349 C   0  0  1  0  0  0  0  0  0  0  0  0
   25.3372  -19.0736   -9.6622 C   0  0  0  0  0  0  0  0  0  0  0  0
   26.4308  -21.0079  -10.7591 C   0  0  0  0  0  0  0  0  0  0  0  0
   26.0886  -20.5016  -12.1416 C   0  0  2  0  0  0  0  0  0  0  0  0
   24.9264  -21.2650  -12.5731 N   0  0  0  0  0  0  0  0  0  0  0  0
   27.1737  -20.7910  -13.1078 C   0  0  0  0  0  0  0  0  0  0  0  0
   27.2755  -21.9238  -13.6907 O   0  0  0  0  0  0  0  0  0  0  0  0
   28.1655  -19.8800  -13.4688 O   0  0  0  0  0  0  0  0  0  0  0  0
  2  1  1  0
  3  2  1  0
  4  3  2  0
  6  5  1  6
  6  8  1  0
  7  6  1  0
  8 10  1  0
  8  9  1  6
  9  3  1  0
 10 17  1  0
 11 10  2  0
 13 12  1  1
 13 14  1  0
 15 13  1  0
 16 15  1  1
 17 16  1  0
 18 20  1  0
 18 16  1  0
 19 18  2  0
M  END
$$$$
