GVL.pdb
     RDKit          3D

 20 19  0  0  1  0  0  0  0  0999 V2000
   16.4356  -14.6057  -17.1929 N   0  0  0  0  0  0  0  0  0  0  0  0
   16.2451  -13.2807  -16.6755 C   0  0  0  0  0  0  0  0  0  0  0  0
   17.3319  -12.3536  -17.0767 C   0  0  0  0  0  0  0  0  0  0  0  0
   18.2996  -12.7753  -17.7683 O   0  0  0  0  0  0  0  0  0  0  0  0
   16.7898   -9.5452  -19.0932 C   0  0  0  0  0  0  0  0  0  0  0  0
   17.6621   -8.9243  -18.0196 C   0  0  1  0  0  0  0  0  0  0  0  0
   16.8822   -7.9635  -17.1541 C   0  0  0  0  0  0  0  0  0  0  0  0
   18.2990  -10.0308  -17.2084 C   0  0  2  0  0  0  0  0  0  0  0  0
   17.3504  -10.9818  -16.7200 N   0  0  0  0  0  0  0  0  0  0  0  0
   19.0240   -9.4437  -16.0540 C   0  0  0  0  0  0  0  0  0  0  0  0
   18.4487   -9.2813  -14.9669 O   0  0  0  0  0  0  0  0  0  0  0  0
   24.1752  -10.8457  -15.3641 C   0  0  0  0  0  0  0  0  0  0  0  0
   22.7648  -10.4119  -15.0170 C   0  0  1  0  0  0  0  0  0  0  0  0
   22.4586  -10.7523  -13.5500 C   0  0  0  0  0  0  0  0  0  0  0  0
   22.5724   -8.9312  -15.2267 C   0  0  0  0  0  0  0  0  0  0  0  0
   21.1373   -8.5067  -15.0142 C   0  0  2  0  0  0  0  0  0  0  0  0
   20.3874   -9.0473  -16.1389 N   0  0  0  0  0  0  0  0  0  0  0  0
   20.9945   -7.0333  -15.0730 C   0  0  0  0  0  0  0  0  0  0  0  0
   20.7399   -6.4219  -16.1659 O   0  0  0  0  0  0  0  0  0  0  0  0
   21.1195   -6.1890  -13.9705 O   0  0  0  0  0  0  0  0  0  0  0  0
  2  1  1  0
  3  2  1  0
  4  3  2  0
  6  5  1  6
  6  8  1  0
  7  6  1  0
  8 10  1  0
  8  9  1  1
  9  3  1  0
 10 17  1  0
 11 10  2  0
 13 12  1  1
 13 14  1  0
 15 13  1  0
 16 15  1  6
 17 16  1  0
 18 20  1  0
 18 16  1  0
 19 18  2  0
M  END
$$$$
