GVL.pdb
     RDKit          3D

 20 19  0  0  1  0  0  0  0  0999 V2000
   28.9876  -20.2626  -16.5051 N   0  0  0  0  0  0  0  0  0  0  0  0
   28.0585  -21.0178  -15.7140 C   0  0  0  0  0  0  0  0  0  0  0  0
   27.5516  -20.2514  -14.5490 C   0  0  0  0  0  0  0  0  0  0  0  0
   27.6238  -18.9914  -14.5411 O   0  0  0  0  0  0  0  0  0  0  0  0
   23.4623  -19.8922  -12.4950 C   0  0  0  0  0  0  0  0  0  0  0  0
   24.5589  -20.4331  -13.3916 C   0  0  1  0  0  0  0  0  0  0  0  0
   24.5865  -19.7275  -14.7264 C   0  0  0  0  0  0  0  0  0  0  0  0
   25.8809  -20.3249  -12.6645 C   0  0  2  0  0  0  0  0  0  0  0  0
   26.9738  -20.8661  -13.4098 N   0  0  0  0  0  0  0  0  0  0  0  0
   25.7905  -21.0364  -11.3651 C   0  0  0  0  0  0  0  0  0  0  0  0
   25.6565  -22.2693  -11.3312 O   0  0  0  0  0  0  0  0  0  0  0  0
   28.2534  -18.7543   -7.0963 C   0  0  0  0  0  0  0  0  0  0  0  0
   27.7010  -19.7725   -8.0741 C   0  0  1  0  0  0  0  0  0  0  0  0
   28.5080  -21.0772   -7.9829 C   0  0  0  0  0  0  0  0  0  0  0  0
   26.2494  -20.0743   -7.7998 C   0  0  0  0  0  0  0  0  0  0  0  0
   25.6543  -21.0022   -8.8341 C   0  0  2  0  0  0  0  0  0  0  0  0
   25.8523  -20.3502  -10.1206 N   0  0  0  0  0  0  0  0  0  0  0  0
   24.1919  -21.1509   -8.6501 C   0  0  0  0  0  0  0  0  0  0  0  0
   23.3515  -20.5229   -9.3797 O   0  0  0  0  0  0  0  0  0  0  0  0
   23.6021  -21.9701   -7.6883 O   0  0  0  0  0  0  0  0  0  0  0  0
  2  1  1  0
  3  2  1  0
  4  3  2  0
  6  5  1  1
  6  8  1  0
  7  6  1  0
  8 10  1  0
  8  9  1  6
  9  3  1  0
 10 17  1  0
 11 10  2  0
 13 12  1  1
 13 14  1  0
 15 13  1  0
 16 15  1  1
 17 16  1  0
 18 20  1  0
 18 16  1  0
 19 18  2  0
M  END
$$$$
