GVL.pdb
     RDKit          3D

 20 19  0  0  1  0  0  0  0  0999 V2000
   28.2360  -17.6754  -16.4339 N   0  0  0  0  0  0  0  0  0  0  0  0
   27.5724  -17.5306  -15.1698 C   0  0  0  0  0  0  0  0  0  0  0  0
   26.7671  -18.7243  -14.8121 C   0  0  0  0  0  0  0  0  0  0  0  0
   26.4389  -19.5558  -15.7029 O   0  0  0  0  0  0  0  0  0  0  0  0
   25.1584  -21.9232  -11.4485 C   0  0  0  0  0  0  0  0  0  0  0  0
   25.9364  -20.6510  -11.7230 C   0  0  1  0  0  0  0  0  0  0  0  0
   27.4227  -20.8596  -11.5569 C   0  0  0  0  0  0  0  0  0  0  0  0
   25.5839  -20.1530  -13.1071 C   0  0  2  0  0  0  0  0  0  0  0  0
   26.3305  -18.9963  -13.4911 N   0  0  0  0  0  0  0  0  0  0  0  0
   24.1369  -19.8270  -13.1620 C   0  0  0  0  0  0  0  0  0  0  0  0
   23.6710  -18.9140  -12.4631 O   0  0  0  0  0  0  0  0  0  0  0  0
   21.8761  -19.3285  -17.8426 C   0  0  0  0  0  0  0  0  0  0  0  0
   22.0697  -19.1473  -16.3501 C   0  0  1  0  0  0  0  0  0  0  0  0
   21.4154  -17.8341  -15.8929 C   0  0  0  0  0  0  0  0  0  0  0  0
   21.4710  -20.2904  -15.5702 C   0  0  0  0  0  0  0  0  0  0  0  0
   21.8150  -20.2200  -14.0999 C   0  0  2  0  0  0  0  0  0  0  0  0
   23.2334  -20.5334  -14.0034 N   0  0  0  0  0  0  0  0  0  0  0  0
   21.0938  -21.2566  -13.3252 C   0  0  0  0  0  0  0  0  0  0  0  0
   21.5676  -22.4326  -13.1651 O   0  0  0  0  0  0  0  0  0  0  0  0
   19.8591  -21.0574  -12.7090 O   0  0  0  0  0  0  0  0  0  0  0  0
  2  1  1  0
  3  2  1  0
  4  3  2  0
  6  5  1  6
  6  8  1  0
  7  6  1  0
  8 10  1  0
  8  9  1  1
  9  3  1  0
 10 17  1  0
 11 10  2  0
 13 12  1  6
 13 14  1  0
 15 13  1  0
 16 15  1  6
 17 16  1  0
 18 20  1  0
 18 16  1  0
 19 18  2  0
M  END
$$$$
