RHP.pdb
     RDKit          3D

 29 30  0  0  1  0  0  0  0  0999 V2000
    8.1035  -13.3974   16.1273 N   0  0  0  0  0  0  0  0  0  0  0  0
    8.8784  -14.1604   17.0452 C   0  0  0  0  0  0  0  0  0  0  0  0
    9.5389  -13.5891   17.9694 N   0  0  0  0  0  0  0  0  0  0  0  0
    8.9169  -15.5871   16.9286 N   0  0  0  0  0  0  0  0  0  0  0  0
    8.8107  -16.3605   18.1461 C   0  0  0  0  0  0  0  0  0  0  0  0
   10.1806  -16.7814   18.6415 C   0  0  0  0  0  0  0  0  0  0  0  0
   10.7162  -15.8020   19.6676 C   0  0  0  0  0  0  0  0  0  0  0  0
   10.7023  -16.5015   20.9913 C   0  0  2  0  0  0  0  0  0  0  0  0
    9.9513  -17.7245   20.9802 N   0  0  0  0  0  0  0  0  0  0  0  0
   10.2932  -15.6137   22.1206 C   0  0  0  0  0  0  0  0  0  0  0  0
   10.9139  -14.5274   22.2444 O   0  0  0  0  0  0  0  0  0  0  0  0
   10.1342  -14.1308   18.6021 N   0  0  0  0  0  0  0  0  0  0  0  0
    9.2753  -15.9287   23.0253 C   0  0  1  0  0  0  0  0  0  0  0  0
    8.9019  -15.0713   24.1772 C   0  0  0  0  0  0  0  0  0  0  0  0
    7.4261  -14.9061   24.2392 C   0  0  0  0  0  0  0  0  0  0  0  0
    6.9399  -14.0838   25.3728 C   0  0  0  0  0  0  0  0  0  0  0  0
    6.7007  -12.7445   25.3498 N   0  0  0  0  0  0  0  0  0  0  0  0
    6.2946  -12.3468   26.5782 C   0  0  0  0  0  0  0  0  0  0  0  0
    6.2931  -13.4443   27.3280 N   0  0  0  0  0  0  0  0  0  0  0  0
    6.6784  -14.5075   26.6263 C   0  0  0  0  0  0  0  0  0  0  0  0
    9.4461  -15.7520   25.3957 O   0  0  0  0  0  0  0  0  0  0  0  0
    9.7110  -17.0191   25.2985 N   0  0  0  0  0  0  0  0  0  0  0  0
    9.7106  -15.1832   26.6419 C   0  0  0  0  0  0  0  0  0  0  0  0
    9.3128  -13.8030   26.9715 C   0  0  0  0  0  0  0  0  0  0  0  0
   10.1710  -13.4179   28.1525 C   0  0  0  0  0  0  0  0  0  0  0  0
   10.4755  -14.7233   28.8487 C   0  0  2  0  0  0  0  0  0  0  0  0
   10.3418  -15.7952   27.7706 C   0  0  0  0  0  0  0  0  0  0  0  0
    9.5118  -16.8654   28.3990 O   0  0  0  0  0  0  0  0  0  0  0  0
    8.3457  -17.0420   27.9571 O   0  0  0  0  0  0  0  0  0  0  0  0
  2  1  1  0
  3  2  2  0
  4  2  1  0
  5  4  1  0
  6  5  1  0
  7  6  1  0
  8  7  1  0
  8  9  1  6
 10 12  1  0
 10  8  1  0
 11 10  2  0
 13 14  1  1
 13 12  1  0
 14 15  1  0
 15 19  1  0
 15 16  2  0
 16 17  1  0
 18 17  1  0
 19 18  2  0
 20 21  2  0
 20 13  1  0
 22 20  1  0
 23 22  1  0
 24 23  1  0
 24 25  1  0
 25 26  1  0
 26 22  1  0
 26 27  1  1
 28 27  2  0
 29 27  1  0
M  END
$$$$
