RHP.pdb
     RDKit          3D

 29 30  0  0  1  0  0  0  0  0999 V2000
   11.0614  -15.6670   15.0366 N   0  0  0  0  0  0  0  0  0  0  0  0
    9.9328  -15.2361   15.7887 C   0  0  0  0  0  0  0  0  0  0  0  0
    9.0603  -14.4704   15.2696 N   0  0  0  0  0  0  0  0  0  0  0  0
    9.7758  -15.6677   17.1451 N   0  0  0  0  0  0  0  0  0  0  0  0
   10.9746  -15.9912   17.8868 C   0  0  0  0  0  0  0  0  0  0  0  0
   10.6329  -16.4905   19.2772 C   0  0  0  0  0  0  0  0  0  0  0  0
   11.8858  -16.7150   20.1012 C   0  0  0  0  0  0  0  0  0  0  0  0
   11.4439  -17.0012   21.5028 C   0  0  2  0  0  0  0  0  0  0  0  0
   10.7236  -18.2360   21.6309 N   0  0  0  0  0  0  0  0  0  0  0  0
   10.7049  -15.8644   22.1293 C   0  0  0  0  0  0  0  0  0  0  0  0
   11.2933  -14.7540   22.1658 O   0  0  0  0  0  0  0  0  0  0  0  0
    8.2637  -14.1338   15.8175 N   0  0  0  0  0  0  0  0  0  0  0  0
    9.4187  -15.9767   22.6649 C   0  0  1  0  0  0  0  0  0  0  0  0
    8.5890  -14.8143   23.0673 C   0  0  0  0  0  0  0  0  0  0  0  0
    7.2658  -14.8679   22.3925 C   0  0  0  0  0  0  0  0  0  0  0  0
    7.3069  -14.6550   20.9261 C   0  0  0  0  0  0  0  0  0  0  0  0
    8.1984  -13.8795   20.2512 N   0  0  0  0  0  0  0  0  0  0  0  0
    7.9013  -13.9112   18.9310 C   0  0  0  0  0  0  0  0  0  0  0  0
    6.8379  -14.7011   18.8218 N   0  0  0  0  0  0  0  0  0  0  0  0
    6.4577  -15.1640   20.0103 C   0  0  0  0  0  0  0  0  0  0  0  0
    8.4664  -14.8875   24.5585 O   0  0  0  0  0  0  0  0  0  0  0  0
    8.9186  -15.9569   25.1389 N   0  0  0  0  0  0  0  0  0  0  0  0
    7.9199  -13.9317   25.4156 C   0  0  0  0  0  0  0  0  0  0  0  0
    7.3928  -12.6477   24.9202 C   0  0  0  0  0  0  0  0  0  0  0  0
    7.3604  -11.7435   26.1290 C   0  0  0  0  0  0  0  0  0  0  0  0
    7.1929  -12.6777   27.3039 C   0  0  1  0  0  0  0  0  0  0  0  0
    7.7461  -14.0200   26.8330 C   0  0  0  0  0  0  0  0  0  0  0  0
    6.7136  -15.0199   27.2370 O   0  0  0  0  0  0  0  0  0  0  0  0
    5.9038  -15.4180   26.3584 O   0  0  0  0  0  0  0  0  0  0  0  0
  2  1  1  0
  3  2  2  0
  4  2  1  0
  5  4  1  0
  6  5  1  0
  7  6  1  0
  8  7  1  0
  8  9  1  6
 10 12  1  0
 10  8  1  0
 11 10  2  0
 13 14  1  1
 13 12  1  0
 14 15  1  0
 15 19  1  0
 15 16  2  0
 16 17  1  0
 18 17  1  0
 19 18  2  0
 20 21  2  0
 20 13  1  0
 22 20  1  0
 23 22  1  0
 24 23  1  0
 24 25  1  0
 25 26  1  0
 26 22  1  0
 26 27  1  6
 28 27  2  0
 29 27  1  0
M  END
$$$$
