RHP.pdb
     RDKit          3D

 29 30  0  0  1  0  0  0  0  0999 V2000
    8.5436  -12.6838   16.6810 N   0  0  0  0  0  0  0  0  0  0  0  0
    9.0060  -12.9456   18.0011 C   0  0  0  0  0  0  0  0  0  0  0  0
    9.3717  -11.9945   18.7618 N   0  0  0  0  0  0  0  0  0  0  0  0
    9.0615  -14.2939   18.4805 N   0  0  0  0  0  0  0  0  0  0  0  0
    8.0882  -15.2288   17.9606 C   0  0  0  0  0  0  0  0  0  0  0  0
    8.2168  -16.5782   18.6402 C   0  0  0  0  0  0  0  0  0  0  0  0
    7.4064  -16.6255   19.9208 C   0  0  0  0  0  0  0  0  0  0  0  0
    8.3756  -16.5271   21.0576 C   0  0  2  0  0  0  0  0  0  0  0  0
    9.3455  -17.5849   21.0711 N   0  0  0  0  0  0  0  0  0  0  0  0
    7.7096  -16.3731   22.3857 C   0  0  0  0  0  0  0  0  0  0  0  0
    6.5836  -15.8140   22.3964 O   0  0  0  0  0  0  0  0  0  0  0  0
    9.7901  -12.1842   19.6767 N   0  0  0  0  0  0  0  0  0  0  0  0
    8.2687  -16.8119   23.5893 C   0  0  1  0  0  0  0  0  0  0  0  0
    7.6463  -16.5876   24.9174 C   0  0  0  0  0  0  0  0  0  0  0  0
    7.7064  -17.8302   25.7307 C   0  0  0  0  0  0  0  0  0  0  0  0
    6.9281  -18.9680   25.1855 C   0  0  0  0  0  0  0  0  0  0  0  0
    5.7034  -18.8955   24.5970 N   0  0  0  0  0  0  0  0  0  0  0  0
    5.3035  -20.1420   24.2532 C   0  0  0  0  0  0  0  0  0  0  0  0
    6.2855  -20.9518   24.6362 N   0  0  0  0  0  0  0  0  0  0  0  0
    7.2788  -20.2702   25.2020 C   0  0  0  0  0  0  0  0  0  0  0  0
    8.4072  -15.4619   25.5482 O   0  0  0  0  0  0  0  0  0  0  0  0
    9.7004  -15.4857   25.4389 N   0  0  0  0  0  0  0  0  0  0  0  0
    7.8896  -14.3714   26.2479 C   0  0  0  0  0  0  0  0  0  0  0  0
    6.4476  -14.0678   26.2669 C   0  0  0  0  0  0  0  0  0  0  0  0
    6.3562  -12.6193   26.6827 C   0  0  0  0  0  0  0  0  0  0  0  0
    7.5918  -12.3801   27.5178 C   0  0  1  0  0  0  0  0  0  0  0  0
    8.6011  -13.4260   27.0521 C   0  0  0  0  0  0  0  0  0  0  0  0
    9.1450  -14.0169   28.3108 O   0  0  0  0  0  0  0  0  0  0  0  0
    9.8680  -13.2872   29.0394 O   0  0  0  0  0  0  0  0  0  0  0  0
  2  1  1  0
  3  2  2  0
  4  2  1  0
  5  4  1  0
  6  5  1  0
  7  6  1  0
  8  7  1  0
  8  9  1  1
 10 12  1  0
 10  8  1  0
 11 10  2  0
 13 14  1  6
 13 12  1  0
 14 15  1  0
 15 19  1  0
 15 16  2  0
 16 17  1  0
 18 17  1  0
 19 18  2  0
 20 21  2  0
 20 13  1  0
 22 20  1  0
 23 22  1  0
 24 23  1  0
 24 25  1  0
 25 26  1  0
 26 22  1  0
 26 27  1  1
 28 27  2  0
 29 27  1  0
M  END
$$$$
