RHP.pdb
     RDKit          3D

 29 30  0  0  1  0  0  0  0  0999 V2000
   16.1034  -19.3510   19.0758 N   0  0  0  0  0  0  0  0  0  0  0  0
   15.0323  -20.1238   18.5458 C   0  0  0  0  0  0  0  0  0  0  0  0
   15.2351  -20.9570   17.6069 N   0  0  0  0  0  0  0  0  0  0  0  0
   13.7108  -19.9628   19.0735 N   0  0  0  0  0  0  0  0  0  0  0  0
   13.5158  -18.9545   20.0918 C   0  0  0  0  0  0  0  0  0  0  0  0
   12.0665  -18.9057   20.5350 C   0  0  0  0  0  0  0  0  0  0  0  0
   11.8815  -17.9500   21.6974 C   0  0  0  0  0  0  0  0  0  0  0  0
   10.8752  -16.9274   21.2692 C   0  0  2  0  0  0  0  0  0  0  0  0
   11.2504  -16.2260   20.0746 N   0  0  0  0  0  0  0  0  0  0  0  0
   10.4921  -15.9861   22.3638 C   0  0  0  0  0  0  0  0  0  0  0  0
   11.1841  -14.9437   22.4864 O   0  0  0  0  0  0  0  0  0  0  0  0
   14.4594  -21.4811   17.1925 N   0  0  0  0  0  0  0  0  0  0  0  0
    9.4239  -16.2067   23.2380 C   0  0  2  0  0  0  0  0  0  0  0  0
    9.0237  -15.2581   24.3064 C   0  0  0  0  0  0  0  0  0  0  0  0
    7.5423  -15.1721   24.3903 C   0  0  0  0  0  0  0  0  0  0  0  0
    7.0313  -14.2618   25.4428 C   0  0  0  0  0  0  0  0  0  0  0  0
    7.7825  -13.4653   26.2507 N   0  0  0  0  0  0  0  0  0  0  0  0
    6.9651  -12.8023   27.1017 C   0  0  0  0  0  0  0  0  0  0  0  0
    5.7338  -13.2033   26.8016 N   0  0  0  0  0  0  0  0  0  0  0  0
    5.7440  -14.0842   25.8040 C   0  0  0  0  0  0  0  0  0  0  0  0
    9.6324  -15.7775   25.5728 O   0  0  0  0  0  0  0  0  0  0  0  0
    9.9459  -17.0367   25.6071 N   0  0  0  0  0  0  0  0  0  0  0  0
    9.9113  -15.0635   26.7386 C   0  0  0  0  0  0  0  0  0  0  0  0
    9.4472  -13.6788   26.9371 C   0  0  0  0  0  0  0  0  0  0  0  0
   10.3265  -13.1225   28.0311 C   0  0  0  0  0  0  0  0  0  0  0  0
   10.7327  -14.3264   28.8478 C   0  0  2  0  0  0  0  0  0  0  0  0
   10.6198  -15.5147   27.8967 C   0  0  0  0  0  0  0  0  0  0  0  0
    9.8781  -16.5532   28.6716 O   0  0  0  0  0  0  0  0  0  0  0  0
   10.4553  -17.0720   29.6634 O   0  0  0  0  0  0  0  0  0  0  0  0
  2  1  1  0
  3  2  2  0
  4  2  1  0
  5  4  1  0
  6  5  1  0
  7  6  1  0
  8  7  1  0
  8  9  1  6
 10 12  1  0
 10  8  1  0
 11 10  2  0
 13 14  1  6
 13 12  1  0
 14 15  1  0
 15 19  1  0
 15 16  2  0
 16 17  1  0
 18 17  1  0
 19 18  2  0
 20 21  2  0
 20 13  1  0
 22 20  1  0
 23 22  1  0
 24 23  1  0
 24 25  1  0
 25 26  1  0
 26 22  1  0
 26 27  1  1
 28 27  2  0
 29 27  1  0
M  END
$$$$
