RHP.pdb
     RDKit          3D

 29 30  0  0  1  0  0  0  0  0999 V2000
    7.8112  -13.8766   13.6947 N   0  0  0  0  0  0  0  0  0  0  0  0
    8.4775  -14.1414   14.9240 C   0  0  0  0  0  0  0  0  0  0  0  0
    9.7370  -14.3136   14.9561 N   0  0  0  0  0  0  0  0  0  0  0  0
    7.7238  -14.2158   16.1393 N   0  0  0  0  0  0  0  0  0  0  0  0
    8.3085  -13.6301   17.3255 C   0  0  0  0  0  0  0  0  0  0  0  0
    7.4518  -13.9084   18.5453 C   0  0  0  0  0  0  0  0  0  0  0  0
    7.9591  -13.1483   19.7552 C   0  0  0  0  0  0  0  0  0  0  0  0
    8.7935  -14.1009   20.5540 C   0  0  2  0  0  0  0  0  0  0  0  0
    9.2196  -15.2489   19.8056 N   0  0  0  0  0  0  0  0  0  0  0  0
    8.1613  -14.4912   21.8498 C   0  0  0  0  0  0  0  0  0  0  0  0
    7.4889  -13.6102   22.4433 O   0  0  0  0  0  0  0  0  0  0  0  0
   10.2311  -14.4156   15.8469 N   0  0  0  0  0  0  0  0  0  0  0  0
    8.2810  -15.7621   22.4193 C   0  0  1  0  0  0  0  0  0  0  0  0
    7.7190  -16.1284   23.7428 C   0  0  0  0  0  0  0  0  0  0  0  0
    7.8540  -17.5906   23.9726 C   0  0  0  0  0  0  0  0  0  0  0  0
    7.4931  -18.0410   25.3381 C   0  0  0  0  0  0  0  0  0  0  0  0
    8.3605  -18.4295   26.3118 N   0  0  0  0  0  0  0  0  0  0  0  0
    7.6580  -18.7968   27.4089 C   0  0  0  0  0  0  0  0  0  0  0  0
    6.3790  -18.6281   27.0886 N   0  0  0  0  0  0  0  0  0  0  0  0
    6.2501  -18.1729   25.8447 C   0  0  0  0  0  0  0  0  0  0  0  0
    8.4784  -15.3250   24.7537 O   0  0  0  0  0  0  0  0  0  0  0  0
    9.7723  -15.4288   24.7429 N   0  0  0  0  0  0  0  0  0  0  0  0
    7.9593  -14.4623   25.7196 C   0  0  0  0  0  0  0  0  0  0  0  0
    6.5162  -14.1811   25.8219 C   0  0  0  0  0  0  0  0  0  0  0  0
    6.4209  -12.8959   26.6084 C   0  0  0  0  0  0  0  0  0  0  0  0
    7.6584  -12.8821   27.4743 C   0  0  1  0  0  0  0  0  0  0  0  0
    8.6700  -13.7618   26.7447 C   0  0  0  0  0  0  0  0  0  0  0  0
    9.2203  -14.6640   27.7995 O   0  0  0  0  0  0  0  0  0  0  0  0
    8.8825  -15.8769   27.7717 O   0  0  0  0  0  0  0  0  0  0  0  0
  2  1  1  0
  3  2  2  0
  4  2  1  0
  5  4  1  0
  6  5  1  0
  7  6  1  0
  8  7  1  0
  8  9  1  6
 10 12  1  0
 10  8  1  0
 11 10  2  0
 13 14  1  6
 13 12  1  0
 14 15  1  0
 15 19  1  0
 15 16  2  0
 16 17  1  0
 18 17  1  0
 19 18  2  0
 20 21  2  0
 20 13  1  0
 22 20  1  0
 23 22  1  0
 24 23  1  0
 24 25  1  0
 25 26  1  0
 26 22  1  0
 26 27  1  1
 28 27  2  0
 29 27  1  0
M  END
$$$$
