RHP.pdb
     RDKit          3D

 29 30  0  0  1  0  0  0  0  0999 V2000
    9.4658  -15.4069   15.9710 N   0  0  0  0  0  0  0  0  0  0  0  0
    8.6177  -14.3229   15.6092 C   0  0  0  0  0  0  0  0  0  0  0  0
    8.4530  -14.0065   14.3887 N   0  0  0  0  0  0  0  0  0  0  0  0
    7.9418  -13.5783   16.6288 N   0  0  0  0  0  0  0  0  0  0  0  0
    8.4791  -13.6415   17.9701 C   0  0  0  0  0  0  0  0  0  0  0  0
    8.2426  -15.0075   18.5844 C   0  0  0  0  0  0  0  0  0  0  0  0
    7.5029  -14.8938   19.9031 C   0  0  0  0  0  0  0  0  0  0  0  0
    8.5000  -15.1529   20.9895 C   0  0  2  0  0  0  0  0  0  0  0  0
    9.3211  -16.3043   20.7448 N   0  0  0  0  0  0  0  0  0  0  0  0
    7.8879  -15.1918   22.3515 C   0  0  0  0  0  0  0  0  0  0  0  0
    7.0173  -14.3223   22.6093 O   0  0  0  0  0  0  0  0  0  0  0  0
    7.7961  -13.2682   14.1210 N   0  0  0  0  0  0  0  0  0  0  0  0
    8.2315  -16.1292   23.3297 C   0  0  1  0  0  0  0  0  0  0  0  0
    7.6073  -16.1835   24.6747 C   0  0  0  0  0  0  0  0  0  0  0  0
    7.5695  -17.5848   25.1687 C   0  0  0  0  0  0  0  0  0  0  0  0
    6.7407  -18.5077   24.3569 C   0  0  0  0  0  0  0  0  0  0  0  0
    5.6222  -18.1777   23.6558 N   0  0  0  0  0  0  0  0  0  0  0  0
    5.1263  -19.2901   23.0653 C   0  0  0  0  0  0  0  0  0  0  0  0
    5.9457  -20.2768   23.4143 N   0  0  0  0  0  0  0  0  0  0  0  0
    6.9290  -19.8332   24.1937 C   0  0  0  0  0  0  0  0  0  0  0  0
    8.4353  -15.2966   25.5534 O   0  0  0  0  0  0  0  0  0  0  0  0
    9.7202  -15.4802   25.5387 N   0  0  0  0  0  0  0  0  0  0  0  0
    7.9897  -14.2790   26.3974 C   0  0  0  0  0  0  0  0  0  0  0  0
    6.5971  -13.7971   26.3734 C   0  0  0  0  0  0  0  0  0  0  0  0
    6.6400  -12.4381   27.0297 C   0  0  0  0  0  0  0  0  0  0  0  0
    7.8170  -12.5039   27.9741 C   0  0  1  0  0  0  0  0  0  0  0  0
    8.7337  -13.5808   27.4003 C   0  0  0  0  0  0  0  0  0  0  0  0
    9.0919  -14.4379   28.5692 O   0  0  0  0  0  0  0  0  0  0  0  0
    8.5647  -15.5790   28.6461 O   0  0  0  0  0  0  0  0  0  0  0  0
  2  1  1  0
  3  2  2  0
  4  2  1  0
  5  4  1  0
  6  5  1  0
  7  6  1  0
  8  7  1  0
  8  9  1  6
 10 12  1  0
 10  8  1  0
 11 10  2  0
 13 14  1  1
 13 12  1  0
 14 15  1  0
 15 19  1  0
 15 16  2  0
 16 17  1  0
 18 17  1  0
 19 18  2  0
 20 21  2  0
 20 13  1  0
 22 20  1  0
 23 22  1  0
 24 23  1  0
 24 25  1  0
 25 26  1  0
 26 22  1  0
 26 27  1  1
 28 27  2  0
 29 27  1  0
M  END
$$$$
