RHP.pdb
     RDKit          3D

 29 30  0  0  1  0  0  0  0  0999 V2000
    8.6206  -15.4172   15.7183 N   0  0  0  0  0  0  0  0  0  0  0  0
    8.7189  -14.0052   15.8650 C   0  0  0  0  0  0  0  0  0  0  0  0
    8.9518  -13.2624   14.8595 N   0  0  0  0  0  0  0  0  0  0  0  0
    8.5545  -13.4118   17.1579 N   0  0  0  0  0  0  0  0  0  0  0  0
    8.7554  -14.2590   18.3127 C   0  0  0  0  0  0  0  0  0  0  0  0
    7.4548  -14.9126   18.7377 C   0  0  0  0  0  0  0  0  0  0  0  0
    7.2029  -14.7171   20.2200 C   0  0  0  0  0  0  0  0  0  0  0  0
    7.4589  -16.0334   20.8861 C   0  0  2  0  0  0  0  0  0  0  0  0
    6.8622  -17.1435   20.1997 N   0  0  0  0  0  0  0  0  0  0  0  0
    7.1130  -16.0334   22.3392 C   0  0  0  0  0  0  0  0  0  0  0  0
    5.8917  -15.9881   22.6337 O   0  0  0  0  0  0  0  0  0  0  0  0
    9.0660  -12.2508   14.9685 N   0  0  0  0  0  0  0  0  0  0  0  0
    8.0639  -16.0800   23.3627 C   0  0  1  0  0  0  0  0  0  0  0  0
    7.7203  -16.1594   24.8040 C   0  0  0  0  0  0  0  0  0  0  0  0
    8.1111  -17.4835   25.3544 C   0  0  0  0  0  0  0  0  0  0  0  0
    7.3619  -18.6343   24.7960 C   0  0  0  0  0  0  0  0  0  0  0  0
    6.0433  -18.6484   24.4604 N   0  0  0  0  0  0  0  0  0  0  0  0
    5.7145  -19.8823   24.0115 C   0  0  0  0  0  0  0  0  0  0  0  0
    6.8321  -20.5985   24.0808 N   0  0  0  0  0  0  0  0  0  0  0  0
    7.8422  -19.8705   24.5508 C   0  0  0  0  0  0  0  0  0  0  0  0
    8.4513  -15.0331   25.4682 O   0  0  0  0  0  0  0  0  0  0  0  0
    9.7144  -14.9047   25.1977 N   0  0  0  0  0  0  0  0  0  0  0  0
    7.9339  -14.0874   26.3539 C   0  0  0  0  0  0  0  0  0  0  0  0
    6.4840  -13.8767   26.5133 C   0  0  0  0  0  0  0  0  0  0  0  0
    6.3521  -12.5110   27.1434 C   0  0  0  0  0  0  0  0  0  0  0  0
    7.6331  -12.3206   27.9206 C   0  0  1  0  0  0  0  0  0  0  0  0
    8.6556  -13.2263   27.2396 C   0  0  0  0  0  0  0  0  0  0  0  0
    9.3204  -13.9581   28.3584 O   0  0  0  0  0  0  0  0  0  0  0  0
    9.0193  -15.1688   28.5311 O   0  0  0  0  0  0  0  0  0  0  0  0
  2  1  1  0
  3  2  2  0
  4  2  1  0
  5  4  1  0
  6  5  1  0
  7  6  1  0
  8  7  1  0
  8  9  1  6
 10 12  1  0
 10  8  1  0
 11 10  2  0
 13 14  1  6
 13 12  1  0
 14 15  1  0
 15 19  1  0
 15 16  2  0
 16 17  1  0
 18 17  1  0
 19 18  2  0
 20 21  2  0
 20 13  1  0
 22 20  1  0
 23 22  1  0
 24 23  1  0
 24 25  1  0
 25 26  1  0
 26 22  1  0
 26 27  1  1
 28 27  2  0
 29 27  1  0
M  END
$$$$
