PLA.pdb
     RDKit          3D

 21 21  0  0  1  0  0  0  0  0999 V2000
   16.6133  -11.3091  -14.4241 N   0  0  0  0  0  0  0  0  0  0  0  0
   17.5859  -11.8512  -15.3526 C   0  0  0  0  0  0  0  0  0  0  0  0
   18.8931  -11.1426  -15.0600 C   0  0  0  0  0  0  0  0  0  0  0  0
   18.3664   -9.8164  -14.5200 C   0  0  0  0  0  0  0  0  0  0  0  0
   17.2888  -10.3575  -13.5965 C   0  0  1  0  0  0  0  0  0  0  0  0
   16.4076   -9.2912  -13.0829 C   0  0  0  0  0  0  0  0  0  0  0  0
   15.4099   -8.8683  -13.7207 O   0  0  0  0  0  0  0  0  0  0  0  0
   15.3938   -7.0544   -7.4985 C   0  0  0  0  0  0  0  0  0  0  0  0
   15.2558   -6.7381   -8.9939 C   0  0  2  0  0  0  0  0  0  0  0  0
   13.7876   -6.6214   -9.3383 C   0  0  0  0  0  0  0  0  0  0  0  0
   15.9114   -7.8335   -9.7685 C   0  0  0  0  0  0  0  0  0  0  0  0
   15.9075   -7.6056  -11.2626 C   0  0  2  0  0  0  0  0  0  0  0  0
   16.6998   -8.7227  -11.8196 N   0  0  0  0  0  0  0  0  0  0  0  0
   16.5929   -6.3653  -11.6618 C   0  0  0  0  0  0  0  0  0  0  0  0
   17.8373   -6.2587  -11.4314 O   0  0  0  0  0  0  0  0  0  0  0  0
   16.3320   -3.8226  -14.1859 C   0  0  0  0  0  0  0  0  0  0  0  0
   16.7129   -4.1649  -12.7611 C   0  0  2  0  0  0  0  0  0  0  0  0
   15.9347   -5.2807  -12.2918 N   0  0  0  0  0  0  0  0  0  0  0  0
   16.4685   -2.9527  -11.9314 C   0  0  0  0  0  0  0  0  0  0  0  0
   15.4990   -2.9204  -11.1539 O   0  0  0  0  0  0  0  0  0  0  0  0
   17.3457   -1.8853  -12.0578 O   0  0  0  0  0  0  0  0  0  0  0  0
  1  2  1  0
  3  2  1  0
  4  5  1  0
  4  3  1  0
  5  1  1  0
  5  6  1  6
  6 13  1  0
  7  6  2  0
  9  8  1  1
  9 10  1  0
  9 11  1  0
 12 11  1  1
 12 13  1  0
 14 12  1  0
 15 14  2  0
 17 16  1  6
 17 18  1  0
 17 19  1  0
 18 14  1  0
 19 21  1  0
 20 19  2  0
M  END
$$$$
