PLA.pdb
     RDKit          3D

 21 21  0  0  1  0  0  0  0  0999 V2000
   27.0425  -18.3227  -16.1314 N   0  0  0  0  0  0  0  0  0  0  0  0
   28.2577  -17.6129  -16.4804 C   0  0  0  0  0  0  0  0  0  0  0  0
   29.3035  -18.6734  -16.7599 C   0  0  0  0  0  0  0  0  0  0  0  0
   28.7918  -19.7993  -15.8663 C   0  0  0  0  0  0  0  0  0  0  0  0
   27.3178  -19.7235  -16.2246 C   0  0  1  0  0  0  0  0  0  0  0  0
   26.4835  -20.5497  -15.3309 C   0  0  0  0  0  0  0  0  0  0  0  0
   26.5883  -21.8012  -15.2682 O   0  0  0  0  0  0  0  0  0  0  0  0
   25.4101  -22.3539  -11.3718 C   0  0  0  0  0  0  0  0  0  0  0  0
   25.8964  -20.9020  -11.4750 C   0  0  2  0  0  0  0  0  0  0  0  0
   26.0846  -20.3463  -10.0808 C   0  0  0  0  0  0  0  0  0  0  0  0
   24.8810  -20.1194  -12.2406 C   0  0  0  0  0  0  0  0  0  0  0  0
   24.6163  -20.6619  -13.6262 C   0  0  2  0  0  0  0  0  0  0  0  0
   25.5264  -19.9041  -14.5113 N   0  0  0  0  0  0  0  0  0  0  0  0
   23.2492  -20.3944  -14.1023 C   0  0  0  0  0  0  0  0  0  0  0  0
   22.8647  -19.1876  -14.1961 O   0  0  0  0  0  0  0  0  0  0  0  0
   20.6401  -21.7881  -16.1520 C   0  0  0  0  0  0  0  0  0  0  0  0
   21.0077  -21.0550  -14.8792 C   0  0  2  0  0  0  0  0  0  0  0  0
   22.3368  -21.4163  -14.4625 N   0  0  0  0  0  0  0  0  0  0  0  0
   20.0013  -21.4250  -13.8458 C   0  0  0  0  0  0  0  0  0  0  0  0
   20.3435  -22.1106  -12.8668 O   0  0  0  0  0  0  0  0  0  0  0  0
   18.6969  -20.9842  -14.0151 O   0  0  0  0  0  0  0  0  0  0  0  0
  1  2  1  0
  3  2  1  0
  4  5  1  0
  4  3  1  0
  5  1  1  0
  5  6  1  1
  6 13  1  0
  7  6  2  0
  9  8  1  1
  9 10  1  0
  9 11  1  0
 12 11  1  1
 12 13  1  0
 14 12  1  0
 15 14  2  0
 17 16  1  6
 17 18  1  0
 17 19  1  0
 18 14  1  0
 19 21  1  0
 20 19  2  0
M  END
$$$$
