PLA.pdb
     RDKit          3D

 21 21  0  0  1  0  0  0  0  0999 V2000
   27.9047  -21.2200  -14.9112 N   0  0  0  0  0  0  0  0  0  0  0  0
   28.3639  -20.4776  -16.0688 C   0  0  0  0  0  0  0  0  0  0  0  0
   28.0365  -19.0230  -15.7976 C   0  0  0  0  0  0  0  0  0  0  0  0
   26.8243  -19.1847  -14.8853 C   0  0  0  0  0  0  0  0  0  0  0  0
   27.3638  -20.2783  -13.9799 C   0  0  1  0  0  0  0  0  0  0  0  0
   26.3184  -20.8456  -13.1067 C   0  0  0  0  0  0  0  0  0  0  0  0
   25.8376  -21.9944  -13.2806 O   0  0  0  0  0  0  0  0  0  0  0  0
   26.0628  -21.6445   -8.5939 C   0  0  0  0  0  0  0  0  0  0  0  0
   26.2526  -20.1952   -9.0616 C   0  0  2  0  0  0  0  0  0  0  0  0
   26.4772  -19.3140   -7.8529 C   0  0  0  0  0  0  0  0  0  0  0  0
   25.0332  -19.7818   -9.8178 C   0  0  0  0  0  0  0  0  0  0  0  0
   24.8142  -20.5667  -11.0906 C   0  0  2  0  0  0  0  0  0  0  0  0
   25.8387  -20.0619  -12.0295 N   0  0  0  0  0  0  0  0  0  0  0  0
   23.5071  -20.3051  -11.7156 C   0  0  0  0  0  0  0  0  0  0  0  0
   22.4636  -20.3869  -10.9965 O   0  0  0  0  0  0  0  0  0  0  0  0
   22.0874  -18.9579  -14.8867 C   0  0  0  0  0  0  0  0  0  0  0  0
   22.0279  -19.7703  -13.6104 C   0  0  2  0  0  0  0  0  0  0  0  0
   23.3521  -19.9656  -13.0821 N   0  0  0  0  0  0  0  0  0  0  0  0
   21.3837  -21.0717  -13.9405 C   0  0  0  0  0  0  0  0  0  0  0  0
   22.0440  -22.1230  -13.8744 O   0  0  0  0  0  0  0  0  0  0  0  0
   20.0482  -21.0644  -14.3159 O   0  0  0  0  0  0  0  0  0  0  0  0
  1  2  1  0
  3  2  1  0
  4  5  1  0
  4  3  1  0
  5  1  1  0
  5  6  1  6
  6 13  1  0
  7  6  2  0
  9  8  1  1
  9 10  1  0
  9 11  1  0
 12 11  1  1
 12 13  1  0
 14 12  1  0
 15 14  2  0
 17 16  1  6
 17 18  1  0
 17 19  1  0
 18 14  1  0
 19 21  1  0
 20 19  2  0
M  END
$$$$
