PLA.pdb
     RDKit          3D

 21 21  0  0  1  0  0  0  0  0999 V2000
   17.9747  -11.8203  -17.5112 N   0  0  0  0  0  0  0  0  0  0  0  0
   17.0119  -11.9943  -18.5812 C   0  0  0  0  0  0  0  0  0  0  0  0
   17.1433  -10.7762  -19.4731 C   0  0  0  0  0  0  0  0  0  0  0  0
   17.6257   -9.7471  -18.4552 C   0  0  0  0  0  0  0  0  0  0  0  0
   18.6718  -10.5943  -17.7518 C   0  0  1  0  0  0  0  0  0  0  0  0
   19.1761   -9.9512  -16.5232 C   0  0  0  0  0  0  0  0  0  0  0  0
   18.5456   -9.9755  -15.4356 O   0  0  0  0  0  0  0  0  0  0  0  0
   22.0149  -10.5270  -13.2888 C   0  0  0  0  0  0  0  0  0  0  0  0
   22.5120  -10.5825  -14.7397 C   0  0  2  0  0  0  0  0  0  0  0  0
   23.9320  -11.1031  -14.7533 C   0  0  0  0  0  0  0  0  0  0  0  0
   22.4303   -9.2080  -15.3173 C   0  0  0  0  0  0  0  0  0  0  0  0
   21.0240   -8.6575  -15.3757 C   0  0  2  0  0  0  0  0  0  0  0  0
   20.4216   -9.2799  -16.5739 N   0  0  0  0  0  0  0  0  0  0  0  0
   20.9795   -7.2019  -15.5918 C   0  0  0  0  0  0  0  0  0  0  0  0
   21.4539   -6.7344  -16.6731 O   0  0  0  0  0  0  0  0  0  0  0  0
   19.2009   -4.2239  -14.3801 C   0  0  0  0  0  0  0  0  0  0  0  0
   20.4343   -4.8858  -14.9572 C   0  0  2  0  0  0  0  0  0  0  0  0
   20.4332   -6.2924  -14.6533 N   0  0  0  0  0  0  0  0  0  0  0  0
   21.6213   -4.2091  -14.3648 C   0  0  0  0  0  0  0  0  0  0  0  0
   22.3300   -4.8125  -13.5407 O   0  0  0  0  0  0  0  0  0  0  0  0
   21.8982   -2.9085  -14.7600 O   0  0  0  0  0  0  0  0  0  0  0  0
  1  2  1  0
  3  2  1  0
  4  5  1  0
  4  3  1  0
  5  1  1  0
  5  6  1  1
  6 13  1  0
  7  6  2  0
  9  8  1  1
  9 10  1  0
  9 11  1  0
 12 11  1  6
 12 13  1  0
 14 12  1  0
 15 14  2  0
 17 16  1  1
 17 18  1  0
 17 19  1  0
 18 14  1  0
 19 21  1  0
 20 19  2  0
M  END
$$$$
