PLA.pdb
     RDKit          3D

 21 21  0  0  1  0  0  0  0  0999 V2000
   29.7290  -22.0608  -12.3408 N   0  0  0  0  0  0  0  0  0  0  0  0
   29.6957  -21.7307  -13.7522 C   0  0  0  0  0  0  0  0  0  0  0  0
   29.1309  -20.3276  -13.8469 C   0  0  0  0  0  0  0  0  0  0  0  0
   28.2629  -20.3007  -12.5924 C   0  0  0  0  0  0  0  0  0  0  0  0
   29.2489  -20.9228  -11.6189 C   0  0  1  0  0  0  0  0  0  0  0  0
   28.6187  -21.2648  -10.3293 C   0  0  0  0  0  0  0  0  0  0  0  0
   28.1425  -22.4030  -10.0864 O   0  0  0  0  0  0  0  0  0  0  0  0
   28.0311  -18.1862   -5.0341 C   0  0  0  0  0  0  0  0  0  0  0  0
   27.7681  -19.5233   -5.7400 C   0  0  2  0  0  0  0  0  0  0  0  0
   28.3720  -20.6403   -4.9182 C   0  0  0  0  0  0  0  0  0  0  0  0
   28.3734  -19.4619   -7.1036 C   0  0  0  0  0  0  0  0  0  0  0  0
   27.8034  -20.4782   -8.0661 C   0  0  2  0  0  0  0  0  0  0  0  0
   28.5486  -20.2685   -9.3258 N   0  0  0  0  0  0  0  0  0  0  0  0
   26.3825  -20.2499   -8.3764 C   0  0  0  0  0  0  0  0  0  0  0  0
   25.5480  -20.2312   -7.4193 O   0  0  0  0  0  0  0  0  0  0  0  0
   24.2854  -18.7661  -10.9690 C   0  0  0  0  0  0  0  0  0  0  0  0
   24.4909  -19.8083   -9.8902 C   0  0  2  0  0  0  0  0  0  0  0  0
   25.8957  -20.0492   -9.6914 N   0  0  0  0  0  0  0  0  0  0  0  0
   23.7902  -21.0471  -10.3285 C   0  0  0  0  0  0  0  0  0  0  0  0
   24.4397  -22.0889  -10.5240 O   0  0  0  0  0  0  0  0  0  0  0  0
   22.4153  -20.9934  -10.5058 O   0  0  0  0  0  0  0  0  0  0  0  0
  1  2  1  0
  3  2  1  0
  4  5  1  0
  4  3  1  0
  5  1  1  0
  5  6  1  1
  6 13  1  0
  7  6  2  0
  9  8  1  1
  9 10  1  0
  9 11  1  0
 12 11  1  1
 12 13  1  0
 14 12  1  0
 15 14  2  0
 17 16  1  6
 17 18  1  0
 17 19  1  0
 18 14  1  0
 19 21  1  0
 20 19  2  0
M  END
$$$$
