PLA.pdb
     RDKit          3D

 21 21  0  0  1  0  0  0  0  0999 V2000
   25.8396  -21.9402  -17.3475 N   0  0  0  0  0  0  0  0  0  0  0  0
   26.8646  -22.7228  -18.0100 C   0  0  0  0  0  0  0  0  0  0  0  0
   27.7265  -23.3110  -16.9110 C   0  0  0  0  0  0  0  0  0  0  0  0
   27.5449  -22.2508  -15.8289 C   0  0  0  0  0  0  0  0  0  0  0  0
   26.0408  -22.0692  -15.9369 C   0  0  1  0  0  0  0  0  0  0  0  0
   25.5626  -20.9070  -15.1638 C   0  0  0  0  0  0  0  0  0  0  0  0
   25.5592  -20.8820  -13.9066 O   0  0  0  0  0  0  0  0  0  0  0  0
   27.6459  -17.6323  -14.4117 C   0  0  0  0  0  0  0  0  0  0  0  0
   27.0140  -17.8611  -15.7914 C   0  0  2  0  0  0  0  0  0  0  0  0
   27.7666  -17.0446  -16.8183 C   0  0  0  0  0  0  0  0  0  0  0  0
   25.5775  -17.4596  -15.7230 C   0  0  0  0  0  0  0  0  0  0  0  0
   24.6721  -18.5380  -15.1738 C   0  0  2  0  0  0  0  0  0  0  0  0
   25.0886  -19.7745  -15.8690 N   0  0  0  0  0  0  0  0  0  0  0  0
   23.2531  -18.3282  -15.5050 C   0  0  0  0  0  0  0  0  0  0  0  0
   22.6702  -17.2957  -15.0499 O   0  0  0  0  0  0  0  0  0  0  0  0
   20.6824  -19.2723  -17.9079 C   0  0  0  0  0  0  0  0  0  0  0  0
   21.0904  -18.9934  -16.4767 C   0  0  2  0  0  0  0  0  0  0  0  0
   22.5012  -19.2208  -16.3077 N   0  0  0  0  0  0  0  0  0  0  0  0
   20.2920  -19.8964  -15.6021 C   0  0  0  0  0  0  0  0  0  0  0  0
   20.8685  -20.7378  -14.8914 O   0  0  0  0  0  0  0  0  0  0  0  0
   18.9111  -19.7642  -15.6118 O   0  0  0  0  0  0  0  0  0  0  0  0
  1  2  1  0
  3  2  1  0
  4  5  1  0
  4  3  1  0
  5  1  1  0
  5  6  1  1
  6 13  1  0
  7  6  2  0
  9  8  1  1
  9 10  1  0
  9 11  1  0
 12 11  1  6
 12 13  1  0
 14 12  1  0
 15 14  2  0
 17 16  1  6
 17 18  1  0
 17 19  1  0
 18 14  1  0
 19 21  1  0
 20 19  2  0
M  END
$$$$
