PLA.pdb
     RDKit          3D

 21 21  0  0  1  0  0  0  0  0999 V2000
   18.0576  -10.3714  -19.8990 N   0  0  0  0  0  0  0  0  0  0  0  0
   17.6087   -9.9605  -21.2150 C   0  0  0  0  0  0  0  0  0  0  0  0
   18.5938   -8.9123  -21.6916 C   0  0  0  0  0  0  0  0  0  0  0  0
   19.0497   -8.3414  -20.3522 C   0  0  0  0  0  0  0  0  0  0  0  0
   19.2563   -9.6476  -19.6053 C   0  0  1  0  0  0  0  0  0  0  0  0
   19.4792   -9.4356  -18.1622 C   0  0  0  0  0  0  0  0  0  0  0  0
   18.5645   -9.5587  -17.3081 O   0  0  0  0  0  0  0  0  0  0  0  0
   23.8819  -10.6104  -14.3790 C   0  0  0  0  0  0  0  0  0  0  0  0
   22.7525   -9.5926  -14.5875 C   0  0  2  0  0  0  0  0  0  0  0  0
   21.6951   -9.8075  -13.5274 C   0  0  0  0  0  0  0  0  0  0  0  0
   22.1948   -9.7836  -15.9594 C   0  0  0  0  0  0  0  0  0  0  0  0
   21.0788   -8.8228  -16.2993 C   0  0  2  0  0  0  0  0  0  0  0  0
   20.7773   -9.0791  -17.7238 N   0  0  0  0  0  0  0  0  0  0  0  0
   21.4808   -7.4097  -16.2033 C   0  0  0  0  0  0  0  0  0  0  0  0
   22.4413   -7.0017  -16.9271 O   0  0  0  0  0  0  0  0  0  0  0  0
   20.1968   -4.1527  -15.1491 C   0  0  0  0  0  0  0  0  0  0  0  0
   21.3464   -5.1287  -15.2852 C   0  0  2  0  0  0  0  0  0  0  0  0
   20.8499   -6.4781  -15.3427 N   0  0  0  0  0  0  0  0  0  0  0  0
   22.2376   -4.9338  -14.1082 C   0  0  0  0  0  0  0  0  0  0  0  0
   22.1104   -5.6620  -13.1087 O   0  0  0  0  0  0  0  0  0  0  0  0
   23.1936   -3.9304  -14.1701 O   0  0  0  0  0  0  0  0  0  0  0  0
  1  2  1  0
  3  2  1  0
  4  5  1  0
  4  3  1  0
  5  1  1  0
  5  6  1  1
  6 13  1  0
  7  6  2  0
  9  8  1  1
  9 10  1  0
  9 11  1  0
 12 11  1  6
 12 13  1  0
 14 12  1  0
 15 14  2  0
 17 16  1  1
 17 18  1  0
 17 19  1  0
 18 14  1  0
 19 21  1  0
 20 19  2  0
M  END
$$$$
