PLA.pdb
     RDKit          3D

 21 21  0  0  1  0  0  0  0  0999 V2000
   31.2018  -21.0559  -10.2750 N   0  0  0  0  0  0  0  0  0  0  0  0
   32.6190  -21.2297  -10.5267 C   0  0  0  0  0  0  0  0  0  0  0  0
   32.9436  -22.6626  -10.1555 C   0  0  0  0  0  0  0  0  0  0  0  0
   31.8791  -22.9138   -9.0918 C   0  0  0  0  0  0  0  0  0  0  0  0
   30.6875  -22.3086   -9.8134 C   0  0  1  0  0  0  0  0  0  0  0  0
   29.5112  -22.1752   -8.9327 C   0  0  0  0  0  0  0  0  0  0  0  0
   28.8433  -23.1643   -8.5366 O   0  0  0  0  0  0  0  0  0  0  0  0
   27.9074  -18.1711   -4.7207 C   0  0  0  0  0  0  0  0  0  0  0  0
   27.5362  -19.4734   -5.4429 C   0  0  2  0  0  0  0  0  0  0  0  0
   27.6657  -20.6272   -4.4735 C   0  0  0  0  0  0  0  0  0  0  0  0
   28.4500  -19.6394   -6.6121 C   0  0  0  0  0  0  0  0  0  0  0  0
   27.9686  -20.6600   -7.6175 C   0  0  2  0  0  0  0  0  0  0  0  0
   29.1205  -20.8791   -8.5181 N   0  0  0  0  0  0  0  0  0  0  0  0
   26.8653  -20.1690   -8.4595 C   0  0  0  0  0  0  0  0  0  0  0  0
   26.8010  -18.9258   -8.7110 O   0  0  0  0  0  0  0  0  0  0  0  0
   25.1793  -21.1470  -11.3252 C   0  0  0  0  0  0  0  0  0  0  0  0
   24.9565  -20.4812   -9.9838 C   0  0  2  0  0  0  0  0  0  0  0  0
   25.8680  -21.0137   -9.0059 N   0  0  0  0  0  0  0  0  0  0  0  0
   23.5417  -20.7317   -9.5919 C   0  0  0  0  0  0  0  0  0  0  0  0
   23.2907  -21.3576   -8.5476 O   0  0  0  0  0  0  0  0  0  0  0  0
   22.5382  -20.2497  -10.4198 O   0  0  0  0  0  0  0  0  0  0  0  0
  1  2  1  0
  3  2  1  0
  4  5  1  0
  4  3  1  0
  5  1  1  0
  5  6  1  1
  6 13  1  0
  7  6  2  0
  9  8  1  1
  9 10  1  0
  9 11  1  0
 12 11  1  1
 12 13  1  0
 14 12  1  0
 15 14  2  0
 17 16  1  6
 17 18  1  0
 17 19  1  0
 18 14  1  0
 19 21  1  0
 20 19  2  0
M  END
$$$$
