YLA.pdb
     RDKit          3D

 26 26  0  0  1  0  0  0  0  0999 V2000
   17.6641  -37.7045   -3.8219 O   0  0  0  0  0  0  0  0  0  0  0  0
   18.6743  -36.7690   -4.0304 C   0  0  0  0  0  0  0  0  0  0  0  0
   19.9646  -37.1372   -4.3837 C   0  0  0  0  0  0  0  0  0  0  0  0
   20.9412  -36.1665   -4.5816 C   0  0  0  0  0  0  0  0  0  0  0  0
   20.6598  -34.8255   -4.4343 C   0  0  0  0  0  0  0  0  0  0  0  0
   21.7174  -33.8075   -4.6504 C   0  0  0  0  0  0  0  0  0  0  0  0
   22.7122  -33.9423   -3.5186 C   0  0  2  0  0  0  0  0  0  0  0  0
   22.0850  -33.5269   -2.3087 N   0  0  0  0  0  0  0  0  0  0  0  0
   23.9311  -33.1180   -3.7604 C   0  0  0  0  0  0  0  0  0  0  0  0
   23.8755  -31.9027   -3.4837 O   0  0  0  0  0  0  0  0  0  0  0  0
   19.3649  -34.4934   -4.0819 C   0  0  0  0  0  0  0  0  0  0  0  0
   18.3847  -35.4434   -3.8819 C   0  0  0  0  0  0  0  0  0  0  0  0
   28.6277  -35.0043   -2.1098 C   0  0  0  0  0  0  0  0  0  0  0  0
   27.3104  -34.4407   -2.6616 C   0  0  1  0  0  0  0  0  0  0  0  0
   26.8021  -33.5369   -1.5253 C   0  0  0  0  0  0  0  0  0  0  0  0
   27.5703  -33.6677   -3.8971 C   0  0  0  0  0  0  0  0  0  0  0  0
   26.3563  -33.0748   -4.5662 C   0  0  2  0  0  0  0  0  0  0  0  0
   25.1032  -33.7031   -4.2852 N   0  0  0  0  0  0  0  0  0  0  0  0
   26.5070  -32.7847   -5.9916 C   0  0  0  0  0  0  0  0  0  0  0  0
   27.5203  -32.1228   -6.4046 O   0  0  0  0  0  0  0  0  0  0  0  0
   25.6988  -34.2947   -9.1183 C   0  0  0  0  0  0  0  0  0  0  0  0
   25.8358  -32.9541   -8.4112 C   0  0  2  0  0  0  0  0  0  0  0  0
   25.5909  -33.1896   -6.9957 N   0  0  0  0  0  0  0  0  0  0  0  0
   24.8599  -32.0309   -8.9899 C   0  0  0  0  0  0  0  0  0  0  0  0
   25.0007  -31.6566  -10.3161 O   0  0  0  0  0  0  0  0  0  0  0  0
   23.8949  -31.5564   -8.3450 O   0  0  0  0  0  0  0  0  0  0  0  0
  2  1  1  0
  2  3  2  0
  4  3  1  0
  5  4  2  0
  6  5  1  0
  7  6  1  0
  7  9  1  0
  7  8  1  1
  9 18  1  0
  9 10  2  0
 11 12  2  0
 11  5  1  0
 12  2  1  0
 14 13  1  1
 14 15  1  0
 16 14  1  0
 17 16  1  6
 18 17  1  0
 19 23  1  0
 19 17  1  0
 20 19  2  0
 22 21  1  6
 22 23  1  0
 22 24  1  0
 24 25  1  0
 26 24  2  0
M  END
$$$$
