YLA.pdb
     RDKit          3D

 26 26  0  0  1  0  0  0  0  0999 V2000
   10.5580   -7.4987   -7.6495 O   0  0  0  0  0  0  0  0  0  0  0  0
   11.9205   -7.4782   -7.9365 C   0  0  0  0  0  0  0  0  0  0  0  0
   12.7250   -8.5999   -7.7959 C   0  0  0  0  0  0  0  0  0  0  0  0
   14.0818   -8.5313   -8.0950 C   0  0  0  0  0  0  0  0  0  0  0  0
   14.6612   -7.3608   -8.5348 C   0  0  0  0  0  0  0  0  0  0  0  0
   16.1106   -7.3109   -8.8478 C   0  0  0  0  0  0  0  0  0  0  0  0
   16.3061   -7.9802  -10.1904 C   0  0  2  0  0  0  0  0  0  0  0  0
   16.1513   -9.3868  -10.0252 N   0  0  0  0  0  0  0  0  0  0  0  0
   17.6540   -7.6870  -10.7569 C   0  0  0  0  0  0  0  0  0  0  0  0
   18.6220   -8.3449  -10.3247 O   0  0  0  0  0  0  0  0  0  0  0  0
   13.8314   -6.2625   -8.6637 C   0  0  0  0  0  0  0  0  0  0  0  0
   12.4840   -6.3135   -8.3715 C   0  0  0  0  0  0  0  0  0  0  0  0
   22.1130   -6.4224  -12.6432 C   0  0  0  0  0  0  0  0  0  0  0  0
   21.1332   -7.1136  -13.6021 C   0  0  1  0  0  0  0  0  0  0  0  0
   21.9107   -8.3521  -14.0796 C   0  0  0  0  0  0  0  0  0  0  0  0
   19.8993   -7.4919  -12.8768 C   0  0  0  0  0  0  0  0  0  0  0  0
   19.0056   -6.3496  -12.4648 C   0  0  2  0  0  0  0  0  0  0  0  0
   17.8180   -6.6962  -11.7483 N   0  0  0  0  0  0  0  0  0  0  0  0
   18.7380   -5.3581  -13.5059 C   0  0  0  0  0  0  0  0  0  0  0  0
   17.8720   -5.6041  -14.4142 O   0  0  0  0  0  0  0  0  0  0  0  0
   18.5581   -3.8890  -15.8398 C   0  0  0  0  0  0  0  0  0  0  0  0
   19.0222   -3.1163  -14.6136 C   0  0  2  0  0  0  0  0  0  0  0  0
   19.3808   -4.0973  -13.5997 N   0  0  0  0  0  0  0  0  0  0  0  0
   17.9258   -2.2523  -14.1766 C   0  0  0  0  0  0  0  0  0  0  0  0
   17.3263   -2.5026  -12.9532 O   0  0  0  0  0  0  0  0  0  0  0  0
   17.4959   -1.2896  -14.8553 O   0  0  0  0  0  0  0  0  0  0  0  0
  2  1  1  0
  2  3  2  0
  4  3  1  0
  5  4  2  0
  6  5  1  0
  7  6  1  0
  7  9  1  0
  7  8  1  1
  9 18  1  0
  9 10  2  0
 11 12  2  0
 11  5  1  0
 12  2  1  0
 14 13  1  1
 14 15  1  0
 16 14  1  0
 17 16  1  6
 18 17  1  0
 19 23  1  0
 19 17  1  0
 20 19  2  0
 22 21  1  6
 22 23  1  0
 22 24  1  0
 24 25  1  0
 26 24  2  0
M  END
$$$$
