YLA.pdb
     RDKit          3D

 26 26  0  0  1  0  0  0  0  0999 V2000
   21.5916  -17.6835  -16.8631 O   0  0  0  0  0  0  0  0  0  0  0  0
   22.2899  -18.4406  -15.9259 C   0  0  0  0  0  0  0  0  0  0  0  0
   21.7517  -18.7721  -14.6907 C   0  0  0  0  0  0  0  0  0  0  0  0
   22.4876  -19.5308  -13.7863 C   0  0  0  0  0  0  0  0  0  0  0  0
   23.7585  -19.9711  -14.0864 C   0  0  0  0  0  0  0  0  0  0  0  0
   24.5250  -20.7792  -13.1063 C   0  0  0  0  0  0  0  0  0  0  0  0
   24.3405  -20.1373  -11.7488 C   0  0  2  0  0  0  0  0  0  0  0  0
   24.9099  -18.8317  -11.7810 N   0  0  0  0  0  0  0  0  0  0  0  0
   24.9873  -20.9401  -10.6714 C   0  0  0  0  0  0  0  0  0  0  0  0
   25.3142  -22.1143  -10.9379 O   0  0  0  0  0  0  0  0  0  0  0  0
   24.2644  -19.6232  -15.3251 C   0  0  0  0  0  0  0  0  0  0  0  0
   23.5481  -18.8714  -16.2335 C   0  0  0  0  0  0  0  0  0  0  0  0
   27.5538  -18.5685   -6.5876 C   0  0  0  0  0  0  0  0  0  0  0  0
   27.2548  -19.6988   -7.5828 C   0  0  1  0  0  0  0  0  0  0  0  0
   28.5730  -20.4901   -7.6348 C   0  0  0  0  0  0  0  0  0  0  0  0
   26.1392  -20.5320   -7.0801 C   0  0  0  0  0  0  0  0  0  0  0  0
   25.1721  -21.0304   -8.1238 C   0  0  2  0  0  0  0  0  0  0  0  0
   25.2173  -20.3806   -9.3965 N   0  0  0  0  0  0  0  0  0  0  0  0
   23.7972  -21.2195   -7.6628 C   0  0  0  0  0  0  0  0  0  0  0  0
   22.9681  -20.2470   -7.7117 O   0  0  0  0  0  0  0  0  0  0  0  0
   21.6031  -24.0367   -6.5505 C   0  0  0  0  0  0  0  0  0  0  0  0
   21.9223  -22.5514   -6.6407 C   0  0  2  0  0  0  0  0  0  0  0  0
   23.2828  -22.4358   -7.1456 N   0  0  0  0  0  0  0  0  0  0  0  0
   21.7826  -21.9724   -5.3048 C   0  0  0  0  0  0  0  0  0  0  0  0
   20.5127  -21.8223   -4.7723 O   0  0  0  0  0  0  0  0  0  0  0  0
   22.7584  -21.6018   -4.6099 O   0  0  0  0  0  0  0  0  0  0  0  0
  2  1  1  0
  2  3  2  0
  4  3  1  0
  5  4  2  0
  6  5  1  0
  7  6  1  0
  7  9  1  0
  7  8  1  6
  9 18  1  0
  9 10  2  0
 11 12  2  0
 11  5  1  0
 12  2  1  0
 14 13  1  1
 14 15  1  0
 16 14  1  0
 17 16  1  1
 18 17  1  0
 19 23  1  0
 19 17  1  0
 20 19  2  0
 22 21  1  1
 22 23  1  0
 22 24  1  0
 24 25  1  0
 26 24  2  0
M  END
$$$$
