YLA.pdb
     RDKit          3D

 26 26  0  0  1  0  0  0  0  0999 V2000
   16.2054  -16.8866  -17.0587 O   0  0  0  0  0  0  0  0  0  0  0  0
   16.9471  -15.7496  -16.7481 C   0  0  0  0  0  0  0  0  0  0  0  0
   17.8592  -15.7218  -15.7028 C   0  0  0  0  0  0  0  0  0  0  0  0
   18.5777  -14.5623  -15.4302 C   0  0  0  0  0  0  0  0  0  0  0  0
   18.4072  -13.4195  -16.1812 C   0  0  0  0  0  0  0  0  0  0  0  0
   19.1844  -12.1941  -15.8722 C   0  0  0  0  0  0  0  0  0  0  0  0
   20.1065  -11.9364  -17.0437 C   0  0  2  0  0  0  0  0  0  0  0  0
   21.1029  -12.9544  -17.0718 N   0  0  0  0  0  0  0  0  0  0  0  0
   20.7584  -10.5990  -16.9430 C   0  0  0  0  0  0  0  0  0  0  0  0
   21.8389  -10.5240  -16.3239 O   0  0  0  0  0  0  0  0  0  0  0  0
   17.4910  -13.4814  -17.2147 C   0  0  0  0  0  0  0  0  0  0  0  0
   16.7703  -14.6232  -17.4985 C   0  0  0  0  0  0  0  0  0  0  0  0
   20.9957   -7.2308  -21.3060 C   0  0  0  0  0  0  0  0  0  0  0  0
   21.2907   -8.0035  -20.0124 C   0  0  1  0  0  0  0  0  0  0  0  0
   22.8116   -7.8495  -19.8405 C   0  0  0  0  0  0  0  0  0  0  0  0
   20.5510   -7.3973  -18.8825 C   0  0  0  0  0  0  0  0  0  0  0  0
   20.6594   -8.1219  -17.5648 C   0  0  2  0  0  0  0  0  0  0  0  0
   20.1643   -9.4627  -17.5323 N   0  0  0  0  0  0  0  0  0  0  0  0
   20.2284   -7.3587  -16.3942 C   0  0  0  0  0  0  0  0  0  0  0  0
   18.9817   -7.2304  -16.1395 O   0  0  0  0  0  0  0  0  0  0  0  0
   21.8026   -5.8195  -13.3737 C   0  0  0  0  0  0  0  0  0  0  0  0
   20.6237   -5.9872  -14.3214 C   0  0  2  0  0  0  0  0  0  0  0  0
   21.1074   -6.7233  -15.4804 N   0  0  0  0  0  0  0  0  0  0  0  0
   20.1352   -4.6566  -14.6821 C   0  0  0  0  0  0  0  0  0  0  0  0
   19.4178   -3.9324  -13.7443 O   0  0  0  0  0  0  0  0  0  0  0  0
   20.3324   -4.1318  -15.8038 O   0  0  0  0  0  0  0  0  0  0  0  0
  2  1  1  0
  2  3  2  0
  4  3  1  0
  5  4  2  0
  6  5  1  0
  7  6  1  0
  7  9  1  0
  7  8  1  1
  9 18  1  0
  9 10  2  0
 11 12  2  0
 11  5  1  0
 12  2  1  0
 14 13  1  6
 14 15  1  0
 16 14  1  0
 17 16  1  6
 18 17  1  0
 19 23  1  0
 19 17  1  0
 20 19  2  0
 22 21  1  1
 22 23  1  0
 22 24  1  0
 24 25  1  0
 26 24  2  0
M  END
$$$$
