YLA.pdb
     RDKit          3D

 26 26  0  0  1  0  0  0  0  0999 V2000
   18.9154  -15.3814  -18.3698 O   0  0  0  0  0  0  0  0  0  0  0  0
   20.1245  -15.9455  -17.9710 C   0  0  0  0  0  0  0  0  0  0  0  0
   20.4474  -17.2693  -18.2329 C   0  0  0  0  0  0  0  0  0  0  0  0
   21.6681  -17.7889  -17.8145 C   0  0  0  0  0  0  0  0  0  0  0  0
   22.5828  -17.0136  -17.1353 C   0  0  0  0  0  0  0  0  0  0  0  0
   23.8787  -17.5892  -16.6987 C   0  0  0  0  0  0  0  0  0  0  0  0
   23.6253  -19.0290  -16.3095 C   0  0  2  0  0  0  0  0  0  0  0  0
   22.7692  -19.0494  -15.1708 N   0  0  0  0  0  0  0  0  0  0  0  0
   24.8963  -19.7424  -15.9942 C   0  0  0  0  0  0  0  0  0  0  0  0
   25.8220  -19.6770  -16.8281 O   0  0  0  0  0  0  0  0  0  0  0  0
   22.2295  -15.6995  -16.8909 C   0  0  0  0  0  0  0  0  0  0  0  0
   21.0232  -15.1685  -17.2988 C   0  0  0  0  0  0  0  0  0  0  0  0
   26.5401  -20.6996  -10.7112 C   0  0  0  0  0  0  0  0  0  0  0  0
   26.3907  -20.3678  -12.2028 C   0  0  1  0  0  0  0  0  0  0  0  0
   27.6572  -19.5537  -12.5186 C   0  0  0  0  0  0  0  0  0  0  0  0
   26.3354  -21.6173  -12.9947 C   0  0  0  0  0  0  0  0  0  0  0  0
   26.0170  -21.4511  -14.4590 C   0  0  2  0  0  0  0  0  0  0  0  0
   25.0367  -20.4645  -14.7899 N   0  0  0  0  0  0  0  0  0  0  0  0
   25.8015  -22.6950  -15.1972 C   0  0  0  0  0  0  0  0  0  0  0  0
   26.7169  -23.5876  -15.2247 O   0  0  0  0  0  0  0  0  0  0  0  0
   23.0023  -24.4552  -16.9319 C   0  0  0  0  0  0  0  0  0  0  0  0
   24.4893  -24.2268  -16.7022 C   0  0  2  0  0  0  0  0  0  0  0  0
   24.6188  -23.0101  -15.9137 N   0  0  0  0  0  0  0  0  0  0  0  0
   25.1395  -24.1061  -18.0069 C   0  0  0  0  0  0  0  0  0  0  0  0
   25.2656  -25.2371  -18.7965 O   0  0  0  0  0  0  0  0  0  0  0  0
   25.5925  -23.0251  -18.4525 O   0  0  0  0  0  0  0  0  0  0  0  0
  2  1  1  0
  2  3  2  0
  4  3  1  0
  5  4  2  0
  6  5  1  0
  7  6  1  0
  7  9  1  0
  7  8  1  1
  9 18  1  0
  9 10  2  0
 11 12  2  0
 11  5  1  0
 12  2  1  0
 14 13  1  1
 14 15  1  0
 16 14  1  0
 17 16  1  1
 18 17  1  0
 19 23  1  0
 19 17  1  0
 20 19  2  0
 22 21  1  6
 22 23  1  0
 22 24  1  0
 24 25  1  0
 26 24  2  0
M  END
$$$$
