ACH.pdb
     RDKit          3D

 22 22  0  0  1  0  0  0  0  0999 V2000
   30.2748   -9.0133  -19.1128 C   0  0  0  0  0  0  0  0  0  0  0  0
   30.1654  -10.4537  -18.6597 C   0  0  2  0  0  0  0  0  0  0  0  0
   30.4599  -11.3340  -19.7766 N   0  0  0  0  0  0  0  0  0  0  0  0
   28.7849  -10.7679  -18.2101 C   0  0  0  0  0  0  0  0  0  0  0  0
   27.9072  -10.9320  -19.0905 O   0  0  0  0  0  0  0  0  0  0  0  0
   28.4201  -10.8891  -16.8440 N   0  0  0  0  0  0  0  0  0  0  0  0
   27.0745  -11.1798  -16.3954 C   0  0  1  0  0  0  0  0  0  0  0  0
   27.2172  -11.8451  -15.0197 C   0  0  0  0  0  0  0  0  0  0  0  0
   25.6100  -12.1626  -14.2866 S   0  0  0  0  0  0  0  0  0  0  0  0
   26.3012   -9.9310  -16.1627 C   0  0  0  0  0  0  0  0  0  0  0  0
   26.9241   -8.9662  -15.6492 O   0  0  0  0  0  0  0  0  0  0  0  0
   24.9505   -9.7657  -16.4731 N   0  0  0  0  0  0  0  0  0  0  0  0
   24.1983   -8.5072  -16.2106 C   0  0  1  0  0  0  0  0  0  0  0  0
   24.3449   -7.7409  -17.4773 C   0  0  0  0  0  0  0  0  0  0  0  0
   23.6093   -6.4957  -17.6147 C   0  0  0  0  0  0  0  0  0  0  0  0
   22.9601   -5.6395  -16.7890 C   0  0  0  0  0  0  0  0  0  0  0  0
   22.4742   -4.5808  -17.4789 N   0  0  0  0  0  0  0  0  0  0  0  0
   22.8281   -4.7862  -18.7406 C   0  0  0  0  0  0  0  0  0  0  0  0
   23.5028   -5.9130  -18.8558 N   0  0  0  0  0  0  0  0  0  0  0  0
   22.8155   -8.9655  -15.9677 C   0  0  0  0  0  0  0  0  0  0  0  0
   22.4199  -10.0548  -16.3973 O   0  0  0  0  0  0  0  0  0  0  0  0
   21.9306   -8.1884  -15.2549 O   0  0  0  0  0  0  0  0  0  0  0  0
  2  1  1  6
  3  2  1  0
  4  6  1  0
  4  2  1  0
  5  4  2  0
  7  6  1  0
  7 10  1  0
  7  8  1  1
  9  8  1  0
 10 12  1  0
 11 10  2  0
 12 13  1  0
 13 14  1  6
 13 20  1  0
 15 14  1  0
 16 15  2  0
 17 16  1  0
 18 17  1  0
 18 19  2  0
 19 15  1  0
 20 22  1  0
 21 20  2  0
M  END
$$$$
