ACH.pdb
     RDKit          3D

 22 22  0  0  1  0  0  0  0  0999 V2000
    7.3271   45.6460  -68.3193 C   0  0  0  0  0  0  0  0  0  0  0  0
    7.9106   44.2705  -68.5628 C   0  0  2  0  0  0  0  0  0  0  0  0
    8.9512   44.3600  -69.5718 N   0  0  0  0  0  0  0  0  0  0  0  0
    6.8783   43.3379  -69.0836 C   0  0  0  0  0  0  0  0  0  0  0  0
    7.2010   42.1358  -69.2363 O   0  0  0  0  0  0  0  0  0  0  0  0
    5.5584   43.7429  -69.4121 N   0  0  0  0  0  0  0  0  0  0  0  0
    5.0484   43.7945  -70.7662 C   0  0  1  0  0  0  0  0  0  0  0  0
    4.4083   42.4254  -71.0340 C   0  0  0  0  0  0  0  0  0  0  0  0
    3.9516   41.6154  -69.4989 S   0  0  0  0  0  0  0  0  0  0  0  0
    3.9482   44.7870  -70.8916 C   0  0  0  0  0  0  0  0  0  0  0  0
    4.2555   45.9966  -70.7335 O   0  0  0  0  0  0  0  0  0  0  0  0
    2.6185   44.4657  -71.1690 N   0  0  0  0  0  0  0  0  0  0  0  0
    2.2021   43.6422  -72.3381 C   0  0  1  0  0  0  0  0  0  0  0  0
    3.4922   43.2427  -72.9623 C   0  0  0  0  0  0  0  0  0  0  0  0
    4.1935   42.0952  -72.4132 C   0  0  0  0  0  0  0  0  0  0  0  0
    5.3006   41.8858  -71.6602 C   0  0  0  0  0  0  0  0  0  0  0  0
    5.4665   40.5667  -71.4046 N   0  0  0  0  0  0  0  0  0  0  0  0
    4.4521   39.9582  -72.0048 C   0  0  0  0  0  0  0  0  0  0  0  0
    3.6781   40.8359  -72.6120 N   0  0  0  0  0  0  0  0  0  0  0  0
    1.4764   42.5079  -71.7317 C   0  0  0  0  0  0  0  0  0  0  0  0
    0.9068   41.6661  -72.4349 O   0  0  0  0  0  0  0  0  0  0  0  0
    1.4165   42.3600  -70.3644 O   0  0  0  0  0  0  0  0  0  0  0  0
  2  1  1  6
  3  2  1  0
  4  6  1  0
  4  2  1  0
  5  4  2  0
  7  6  1  0
  7 10  1  0
  7  8  1  1
  9  8  1  0
 10 12  1  0
 11 10  2  0
 12 13  1  0
 13 14  1  1
 13 20  1  0
 15 14  1  0
 16 15  2  0
 17 16  1  0
 18 17  1  0
 18 19  2  0
 19 15  1  0
 20 22  1  0
 21 20  2  0
M  END
$$$$
