ACH.pdb
     RDKit          3D

 22 22  0  0  1  0  0  0  0  0999 V2000
   20.5042  -15.0389  -16.8665 C   0  0  0  0  0  0  0  0  0  0  0  0
   20.5164  -13.7144  -17.5996 C   0  0  2  0  0  0  0  0  0  0  0  0
   21.6402  -13.6826  -18.5189 N   0  0  0  0  0  0  0  0  0  0  0  0
   20.6955  -12.5831  -16.6538 C   0  0  0  0  0  0  0  0  0  0  0  0
   19.8625  -12.4614  -15.7245 O   0  0  0  0  0  0  0  0  0  0  0  0
   21.7555  -11.6449  -16.7547 N   0  0  0  0  0  0  0  0  0  0  0  0
   21.9402  -10.5408  -15.8364 C   0  0  1  0  0  0  0  0  0  0  0  0
   23.4566  -10.3745  -15.6679 C   0  0  0  0  0  0  0  0  0  0  0  0
   24.0682  -11.3735  -14.3080 S   0  0  0  0  0  0  0  0  0  0  0  0
   21.4557   -9.2632  -16.4233 C   0  0  0  0  0  0  0  0  0  0  0  0
   21.8015   -9.0165  -17.6074 O   0  0  0  0  0  0  0  0  0  0  0  0
   20.6550   -8.3366  -15.7536 N   0  0  0  0  0  0  0  0  0  0  0  0
   20.0877   -7.1231  -16.4048 C   0  0  1  0  0  0  0  0  0  0  0  0
   18.6311   -7.2204  -16.1179 C   0  0  0  0  0  0  0  0  0  0  0  0
   17.7833   -6.0996  -16.4857 C   0  0  0  0  0  0  0  0  0  0  0  0
   17.8314   -5.0795  -17.3766 C   0  0  0  0  0  0  0  0  0  0  0  0
   16.7073   -4.3280  -17.3090 N   0  0  0  0  0  0  0  0  0  0  0  0
   15.9597   -4.8908  -16.3688 C   0  0  0  0  0  0  0  0  0  0  0  0
   16.5684   -5.9439  -15.8605 N   0  0  0  0  0  0  0  0  0  0  0  0
   20.7434   -6.0035  -15.6993 C   0  0  0  0  0  0  0  0  0  0  0  0
   21.2082   -6.1502  -14.5635 O   0  0  0  0  0  0  0  0  0  0  0  0
   20.8533   -4.7656  -16.2912 O   0  0  0  0  0  0  0  0  0  0  0  0
  2  1  1  1
  3  2  1  0
  4  6  1  0
  4  2  1  0
  5  4  2  0
  7  6  1  0
  7 10  1  0
  7  8  1  6
  9  8  1  0
 10 12  1  0
 11 10  2  0
 12 13  1  0
 13 14  1  1
 13 20  1  0
 15 14  1  0
 16 15  2  0
 17 16  1  0
 18 17  1  0
 18 19  2  0
 19 15  1  0
 20 22  1  0
 21 20  2  0
M  END
$$$$
