ACH.pdb
     RDKit          3D

 22 22  0  0  1  0  0  0  0  0999 V2000
   22.1565  -14.6266  -17.9917 C   0  0  0  0  0  0  0  0  0  0  0  0
   22.6796  -13.2555  -18.3637 C   0  0  2  0  0  0  0  0  0  0  0  0
   24.0756  -13.3606  -18.7498 N   0  0  0  0  0  0  0  0  0  0  0  0
   22.6172  -12.3284  -17.2047 C   0  0  0  0  0  0  0  0  0  0  0  0
   21.4922  -12.0983  -16.7010 O   0  0  0  0  0  0  0  0  0  0  0  0
   23.7615  -11.6991  -16.6492 N   0  0  0  0  0  0  0  0  0  0  0  0
   23.6994  -10.6998  -15.6033 C   0  0  1  0  0  0  0  0  0  0  0  0
   25.0612  -10.7361  -14.8964 C   0  0  0  0  0  0  0  0  0  0  0  0
   26.4039  -10.8032  -16.0855 S   0  0  0  0  0  0  0  0  0  0  0  0
   23.5745   -9.3310  -16.1709 C   0  0  0  0  0  0  0  0  0  0  0  0
   24.1156   -9.1294  -17.2885 O   0  0  0  0  0  0  0  0  0  0  0  0
   22.9058   -8.2739  -15.5513 N   0  0  0  0  0  0  0  0  0  0  0  0
   22.6921   -6.9493  -16.1979 C   0  0  1  0  0  0  0  0  0  0  0  0
   21.8677   -7.2721  -17.3935 C   0  0  0  0  0  0  0  0  0  0  0  0
   21.3184   -6.1709  -18.1655 C   0  0  0  0  0  0  0  0  0  0  0  0
   21.7810   -5.0120  -18.6942 C   0  0  0  0  0  0  0  0  0  0  0  0
   20.8028   -4.3691  -19.3745 N   0  0  0  0  0  0  0  0  0  0  0  0
   19.7284   -5.1393  -19.2646 C   0  0  0  0  0  0  0  0  0  0  0  0
   20.0000   -6.2160  -18.5540 N   0  0  0  0  0  0  0  0  0  0  0  0
   21.9563   -6.1730  -15.1795 C   0  0  0  0  0  0  0  0  0  0  0  0
   21.3448   -6.7379  -14.2659 O   0  0  0  0  0  0  0  0  0  0  0  0
   21.9333   -4.7973  -15.2229 O   0  0  0  0  0  0  0  0  0  0  0  0
  2  1  1  1
  3  2  1  0
  4  6  1  0
  4  2  1  0
  5  4  2  0
  7  6  1  0
  7 10  1  0
  7  8  1  6
  9  8  1  0
 10 12  1  0
 11 10  2  0
 12 13  1  0
 13 14  1  6
 13 20  1  0
 15 14  1  0
 16 15  2  0
 17 16  1  0
 18 17  1  0
 18 19  2  0
 19 15  1  0
 20 22  1  0
 21 20  2  0
M  END
$$$$
