ACH.pdb
     RDKit          3D

 22 22  0  0  1  0  0  0  0  0999 V2000
   19.6186  -15.1585  -16.9887 C   0  0  0  0  0  0  0  0  0  0  0  0
   20.1785  -13.8245  -17.4345 C   0  0  2  0  0  0  0  0  0  0  0  0
   21.4376  -14.0371  -18.1262 N   0  0  0  0  0  0  0  0  0  0  0  0
   20.4647  -12.9498  -16.2685 C   0  0  0  0  0  0  0  0  0  0  0  0
   19.5214  -12.6988  -15.4813 O   0  0  0  0  0  0  0  0  0  0  0  0
   21.7438  -12.3922  -16.0094 N   0  0  0  0  0  0  0  0  0  0  0  0
   22.0001  -11.4231  -14.9646 C   0  0  1  0  0  0  0  0  0  0  0  0
   23.3833  -11.7655  -14.3944 C   0  0  0  0  0  0  0  0  0  0  0  0
   24.6202  -11.8246  -15.6937 S   0  0  0  0  0  0  0  0  0  0  0  0
   22.1202  -10.0490  -15.5201 C   0  0  0  0  0  0  0  0  0  0  0  0
   22.4279   -9.9543  -16.7363 O   0  0  0  0  0  0  0  0  0  0  0  0
   21.9164   -8.8777  -14.7888 N   0  0  0  0  0  0  0  0  0  0  0  0
   21.9033   -7.5209  -15.4031 C   0  0  1  0  0  0  0  0  0  0  0  0
   20.7273   -7.5599  -16.3134 C   0  0  0  0  0  0  0  0  0  0  0  0
   20.2967   -6.3178  -16.9314 C   0  0  0  0  0  0  0  0  0  0  0  0
   20.7639   -5.0487  -17.0204 C   0  0  0  0  0  0  0  0  0  0  0  0
   19.9445   -4.2866  -17.7825 N   0  0  0  0  0  0  0  0  0  0  0  0
   18.9645   -5.0936  -18.1670 C   0  0  0  0  0  0  0  0  0  0  0  0
   19.1431   -6.3055  -17.6798 N   0  0  0  0  0  0  0  0  0  0  0  0
   21.7156   -6.6135  -14.2530 C   0  0  0  0  0  0  0  0  0  0  0  0
   21.2225   -7.0189  -13.1947 O   0  0  0  0  0  0  0  0  0  0  0  0
   22.0863   -5.2901  -14.3319 O   0  0  0  0  0  0  0  0  0  0  0  0
  2  1  1  1
  3  2  1  0
  4  6  1  0
  4  2  1  0
  5  4  2  0
  7  6  1  0
  7 10  1  0
  7  8  1  6
  9  8  1  0
 10 12  1  0
 11 10  2  0
 12 13  1  0
 13 14  1  6
 13 20  1  0
 15 14  1  0
 16 15  2  0
 17 16  1  0
 18 17  1  0
 18 19  2  0
 19 15  1  0
 20 22  1  0
 21 20  2  0
M  END
$$$$
