ACH.pdb
     RDKit          3D

 22 22  0  0  1  0  0  0  0  0999 V2000
   19.6660  -11.7782  -15.3086 C   0  0  0  0  0  0  0  0  0  0  0  0
   19.9888  -10.3328  -15.6225 C   0  0  2  0  0  0  0  0  0  0  0  0
   21.1930  -10.2727  -16.4319 N   0  0  0  0  0  0  0  0  0  0  0  0
   20.2605   -9.5651  -14.3801 C   0  0  0  0  0  0  0  0  0  0  0  0
   21.2608   -9.8924  -13.6985 O   0  0  0  0  0  0  0  0  0  0  0  0
   19.4472   -8.4902  -13.9361 N   0  0  0  0  0  0  0  0  0  0  0  0
   19.9244   -7.4221  -13.0829 C   0  0  1  0  0  0  0  0  0  0  0  0
   21.0132   -6.6921  -13.8810 C   0  0  0  0  0  0  0  0  0  0  0  0
   21.6315   -5.2698  -12.9775 S   0  0  0  0  0  0  0  0  0  0  0  0
   18.8603   -6.4135  -12.8339 C   0  0  0  0  0  0  0  0  0  0  0  0
   18.2391   -5.9849  -13.8403 O   0  0  0  0  0  0  0  0  0  0  0  0
   18.5139   -5.9213  -11.5745 N   0  0  0  0  0  0  0  0  0  0  0  0
   17.3404   -5.0355  -11.3363 C   0  0  1  0  0  0  0  0  0  0  0  0
   16.9750   -5.3114   -9.9207 C   0  0  0  0  0  0  0  0  0  0  0  0
   16.1796   -6.4930   -9.6354 C   0  0  0  0  0  0  0  0  0  0  0  0
   15.6528   -7.5202  -10.3454 C   0  0  0  0  0  0  0  0  0  0  0  0
   15.0133   -8.3910   -9.5295 N   0  0  0  0  0  0  0  0  0  0  0  0
   15.1482   -7.8964   -8.3061 C   0  0  0  0  0  0  0  0  0  0  0  0
   15.8350   -6.7714   -8.3336 N   0  0  0  0  0  0  0  0  0  0  0  0
   17.8766   -3.6748  -11.5413 C   0  0  0  0  0  0  0  0  0  0  0  0
   19.0760   -3.4907  -11.7764 O   0  0  0  0  0  0  0  0  0  0  0  0
   17.0514   -2.5750  -11.4754 O   0  0  0  0  0  0  0  0  0  0  0  0
  2  1  1  1
  3  2  1  0
  4  6  1  0
  4  2  1  0
  5  4  2  0
  7  6  1  0
  7 10  1  0
  7  8  1  6
  9  8  1  0
 10 12  1  0
 11 10  2  0
 12 13  1  0
 13 14  1  1
 13 20  1  0
 15 14  1  0
 16 15  2  0
 17 16  1  0
 18 17  1  0
 18 19  2  0
 19 15  1  0
 20 22  1  0
 21 20  2  0
M  END
$$$$
