ACH.pdb
     RDKit          3D

 22 22  0  0  1  0  0  0  0  0999 V2000
   42.0602  -14.7748   -9.6627 C   0  0  0  0  0  0  0  0  0  0  0  0
   43.2241  -14.2478   -8.8506 C   0  0  2  0  0  0  0  0  0  0  0  0
   43.6942  -13.0035   -9.4334 N   0  0  0  0  0  0  0  0  0  0  0  0
   44.3652  -15.1985   -8.8750 C   0  0  0  0  0  0  0  0  0  0  0  0
   45.1432  -15.1518   -9.8574 O   0  0  0  0  0  0  0  0  0  0  0  0
   44.6107  -16.1461   -7.8475 N   0  0  0  0  0  0  0  0  0  0  0  0
   45.7271  -17.0681   -7.8561 C   0  0  1  0  0  0  0  0  0  0  0  0
   45.8665  -17.5834   -6.4172 C   0  0  0  0  0  0  0  0  0  0  0  0
   47.1348  -18.8484   -6.3049 S   0  0  0  0  0  0  0  0  0  0  0  0
   45.4325  -18.2651   -8.6879 C   0  0  0  0  0  0  0  0  0  0  0  0
   44.2385  -18.6608   -8.7088 O   0  0  0  0  0  0  0  0  0  0  0  0
   46.3821  -18.9650   -9.4340 N   0  0  0  0  0  0  0  0  0  0  0  0
   46.0384  -20.0903  -10.3472 C   0  0  1  0  0  0  0  0  0  0  0  0
   45.2747  -19.4325  -11.4415 C   0  0  0  0  0  0  0  0  0  0  0  0
   45.0028  -20.1991  -12.6451 C   0  0  0  0  0  0  0  0  0  0  0  0
   44.6266  -21.4670  -12.9408 C   0  0  0  0  0  0  0  0  0  0  0  0
   44.4788  -21.6259  -14.2772 N   0  0  0  0  0  0  0  0  0  0  0  0
   44.7656  -20.4452  -14.8092 C   0  0  0  0  0  0  0  0  0  0  0  0
   45.0803  -19.5765  -13.8688 N   0  0  0  0  0  0  0  0  0  0  0  0
   47.3518  -20.6043  -10.7855 C   0  0  0  0  0  0  0  0  0  0  0  0
   48.4028  -20.1354  -10.3347 O   0  0  0  0  0  0  0  0  0  0  0  0
   47.4379  -21.6211  -11.7094 O   0  0  0  0  0  0  0  0  0  0  0  0
  2  1  1  6
  3  2  1  0
  4  6  1  0
  4  2  1  0
  5  4  2  0
  7  6  1  0
  7 10  1  0
  7  8  1  1
  9  8  1  0
 10 12  1  0
 11 10  2  0
 12 13  1  0
 13 14  1  6
 13 20  1  0
 15 14  1  0
 16 15  2  0
 17 16  1  0
 18 17  1  0
 18 19  2  0
 19 15  1  0
 20 22  1  0
 21 20  2  0
M  END
$$$$
