ACH.pdb
     RDKit          3D

 22 22  0  0  1  0  0  0  0  0999 V2000
   22.8896  -12.8385  -19.7935 C   0  0  0  0  0  0  0  0  0  0  0  0
   23.5713  -11.4949  -19.6452 C   0  0  2  0  0  0  0  0  0  0  0  0
   25.0072  -11.6906  -19.5514 N   0  0  0  0  0  0  0  0  0  0  0  0
   23.1422  -10.8141  -18.3965 C   0  0  0  0  0  0  0  0  0  0  0  0
   21.9172  -10.5951  -18.2422 O   0  0  0  0  0  0  0  0  0  0  0  0
   24.0473  -10.4056  -17.3826 N   0  0  0  0  0  0  0  0  0  0  0  0
   23.6330   -9.8096  -16.1298 C   0  0  1  0  0  0  0  0  0  0  0  0
   24.6387  -10.2905  -15.0748 C   0  0  0  0  0  0  0  0  0  0  0  0
   24.2757  -11.9697  -14.5555 S   0  0  0  0  0  0  0  0  0  0  0  0
   23.7629   -8.3286  -16.1671 C   0  0  0  0  0  0  0  0  0  0  0  0
   24.8112   -7.8646  -16.6852 O   0  0  0  0  0  0  0  0  0  0  0  0
   22.8104   -7.4366  -15.6717 N   0  0  0  0  0  0  0  0  0  0  0  0
   22.9238   -5.9580  -15.8096 C   0  0  1  0  0  0  0  0  0  0  0  0
   21.8642   -5.6160  -16.7964 C   0  0  0  0  0  0  0  0  0  0  0  0
   22.1658   -5.7727  -18.2087 C   0  0  0  0  0  0  0  0  0  0  0  0
   23.1178   -6.3904  -18.9496 C   0  0  0  0  0  0  0  0  0  0  0  0
   22.8750   -6.2341  -20.2723 N   0  0  0  0  0  0  0  0  0  0  0  0
   21.7631   -5.5147  -20.3469 C   0  0  0  0  0  0  0  0  0  0  0  0
   21.3164   -5.2244  -19.1409 N   0  0  0  0  0  0  0  0  0  0  0  0
   22.6357   -5.4527  -14.4521 C   0  0  0  0  0  0  0  0  0  0  0  0
   22.2114   -6.2053  -13.5683 O   0  0  0  0  0  0  0  0  0  0  0  0
   22.8334   -4.1273  -14.1369 O   0  0  0  0  0  0  0  0  0  0  0  0
  2  1  1  1
  3  2  1  0
  4  6  1  0
  4  2  1  0
  5  4  2  0
  7  6  1  0
  7 10  1  0
  7  8  1  1
  9  8  1  0
 10 12  1  0
 11 10  2  0
 12 13  1  0
 13 14  1  6
 13 20  1  0
 15 14  1  0
 16 15  2  0
 17 16  1  0
 18 17  1  0
 18 19  2  0
 19 15  1  0
 20 22  1  0
 21 20  2  0
M  END
$$$$
