IRH.pdb
     RDKit          3D

 30 30  0  0  1  0  0  0  0  0999 V2000
   33.1281  -21.9295   -8.9550 C   0  0  0  0  0  0  0  0  0  0  0  0
   31.9347  -22.5123   -9.6982 C   0  0  0  0  0  0  0  0  0  0  0  0
   30.8746  -21.4749   -9.9471 C   0  0  2  0  0  0  0  0  0  0  0  0
   30.4208  -20.8287   -8.6896 C   0  0  0  0  0  0  0  0  0  0  0  0
   29.7772  -22.1061  -10.7768 C   0  0  2  0  0  0  0  0  0  0  0  0
   30.4160  -22.6120  -11.9929 N   0  0  0  0  0  0  0  0  0  0  0  0
   28.7195  -21.1500  -11.1265 C   0  0  0  0  0  0  0  0  0  0  0  0
   27.8501  -20.7402  -10.3015 O   0  0  0  0  0  0  0  0  0  0  0  0
   29.4344  -21.6590  -17.6607 N   0  0  0  0  0  0  0  0  0  0  0  0
   28.4023  -20.8469  -18.2519 C   0  0  0  0  0  0  0  0  0  0  0  0
   27.7676  -21.2622  -19.2893 N   0  0  0  0  0  0  0  0  0  0  0  0
   28.0605  -19.5809  -17.7098 N   0  0  0  0  0  0  0  0  0  0  0  0
   28.6615  -19.0598  -16.4961 C   0  0  0  0  0  0  0  0  0  0  0  0
   28.2145  -19.9020  -15.3065 C   0  0  0  0  0  0  0  0  0  0  0  0
   27.9384  -19.0392  -14.1172 C   0  0  0  0  0  0  0  0  0  0  0  0
   27.5093  -19.8240  -12.8737 C   0  0  2  0  0  0  0  0  0  0  0  0
   28.6528  -20.6449  -12.4522 N   0  0  0  0  0  0  0  0  0  0  0  0
   26.3015  -20.6149  -13.0507 C   0  0  0  0  0  0  0  0  0  0  0  0
   26.3236  -21.8940  -13.1634 O   0  0  0  0  0  0  0  0  0  0  0  0
   27.0001  -20.7675  -19.7503 N   0  0  0  0  0  0  0  0  0  0  0  0
   25.0076  -20.0323  -13.1064 C   0  0  1  0  0  0  0  0  0  0  0  0
   23.8795  -20.6731  -12.4465 C   0  0  0  0  0  0  0  0  0  0  0  0
   24.2159  -20.5859  -10.9450 C   0  0  0  0  0  0  0  0  0  0  0  0
   23.1595  -21.2171  -10.1511 C   0  0  0  0  0  0  0  0  0  0  0  0
   22.0222  -21.7773  -10.7317 N   0  0  0  0  0  0  0  0  0  0  0  0
   21.2954  -22.2441   -9.6931 C   0  0  0  0  0  0  0  0  0  0  0  0
   21.9487  -21.9861   -8.5380 N   0  0  0  0  0  0  0  0  0  0  0  0
   23.1067  -21.3477   -8.8212 C   0  0  0  0  0  0  0  0  0  0  0  0
   22.6076  -20.0135  -12.7706 O   0  0  0  0  0  0  0  0  0  0  0  0
   22.4704  -18.7441  -12.7787 O   0  0  0  0  0  0  0  0  0  0  0  0
  2  3  1  0
  2  1  1  0
  3  4  1  1
  5  7  1  0
  5  3  1  0
  5  6  1  6
  7  8  2  0
 10 12  1  0
 10  9  1  0
 11 10  2  0
 13 14  1  0
 13 12  1  0
 14 15  1  0
 16 15  1  6
 17 16  1  0
 17  7  1  0
 18 16  1  0
 19 18  2  0
 20 18  1  0
 21 20  1  0
 21 22  1  6
 22 23  1  0
 23 27  1  0
 23 24  2  0
 24 25  1  0
 26 25  1  0
 27 26  2  0
 28 21  1  0
 29 28  2  0
 30 28  1  0
M  END
$$$$
