IRH.pdb
     RDKit          3D

 30 30  0  0  1  0  0  0  0  0999 V2000
   27.2851  -15.4533  -16.0172 C   0  0  0  0  0  0  0  0  0  0  0  0
   27.2138  -16.8067  -15.3247 C   0  0  0  0  0  0  0  0  0  0  0  0
   25.9028  -17.4960  -15.5857 C   0  0  2  0  0  0  0  0  0  0  0  0
   24.7424  -16.6213  -15.2801 C   0  0  0  0  0  0  0  0  0  0  0  0
   25.9125  -18.8257  -14.8626 C   0  0  2  0  0  0  0  0  0  0  0  0
   27.1083  -19.5366  -15.3185 N   0  0  0  0  0  0  0  0  0  0  0  0
   24.7149  -19.6259  -15.1462 C   0  0  0  0  0  0  0  0  0  0  0  0
   24.5912  -20.3542  -16.1751 O   0  0  0  0  0  0  0  0  0  0  0  0
   19.1628  -23.6393   -9.4309 N   0  0  0  0  0  0  0  0  0  0  0  0
   18.7901  -24.0108  -10.7714 C   0  0  0  0  0  0  0  0  0  0  0  0
   17.8328  -24.8453  -10.9687 N   0  0  0  0  0  0  0  0  0  0  0  0
   19.4611  -23.4702  -11.8988 N   0  0  0  0  0  0  0  0  0  0  0  0
   20.5146  -22.4790  -11.7830 C   0  0  0  0  0  0  0  0  0  0  0  0
   20.8843  -21.9670  -13.1707 C   0  0  0  0  0  0  0  0  0  0  0  0
   21.9806  -20.9537  -13.0895 C   0  0  0  0  0  0  0  0  0  0  0  0
   22.4502  -20.4443  -14.4556 C   0  0  2  0  0  0  0  0  0  0  0  0
   23.6297  -19.5974  -14.2306 N   0  0  0  0  0  0  0  0  0  0  0  0
   21.4231  -19.7612  -15.2265 C   0  0  0  0  0  0  0  0  0  0  0  0
   20.9367  -18.6256  -14.8758 O   0  0  0  0  0  0  0  0  0  0  0  0
   17.5326  -25.1959  -11.8815 N   0  0  0  0  0  0  0  0  0  0  0  0
   20.8857  -20.2964  -16.4271 C   0  0  1  0  0  0  0  0  0  0  0  0
   19.9208  -19.5364  -17.2082 C   0  0  0  0  0  0  0  0  0  0  0  0
   19.1825  -18.6726  -16.1671 C   0  0  0  0  0  0  0  0  0  0  0  0
   18.0490  -19.4116  -15.6072 C   0  0  0  0  0  0  0  0  0  0  0  0
   17.8871  -20.7842  -15.7923 N   0  0  0  0  0  0  0  0  0  0  0  0
   16.7424  -21.0902  -15.1436 C   0  0  0  0  0  0  0  0  0  0  0  0
   16.2285  -19.9691  -14.5899 N   0  0  0  0  0  0  0  0  0  0  0  0
   17.0390  -18.9256  -14.8776 C   0  0  0  0  0  0  0  0  0  0  0  0
   20.5723  -18.7234  -18.2439 O   0  0  0  0  0  0  0  0  0  0  0  0
   20.7558  -19.1415  -19.4362 O   0  0  0  0  0  0  0  0  0  0  0  0
  2  3  1  0
  2  1  1  0
  3  4  1  1
  5  7  1  0
  5  3  1  0
  5  6  1  6
  7  8  2  0
 10 12  1  0
 10  9  1  0
 11 10  2  0
 13 14  1  0
 13 12  1  0
 14 15  1  0
 16 15  1  1
 17 16  1  0
 17  7  1  0
 18 16  1  0
 19 18  2  0
 20 18  1  0
 21 20  1  0
 21 22  1  6
 22 23  1  0
 23 27  1  0
 23 24  2  0
 24 25  1  0
 26 25  1  0
 27 26  2  0
 28 21  1  0
 29 28  2  0
 30 28  1  0
M  END
$$$$
