IRH.pdb
     RDKit          3D

 30 30  0  0  1  0  0  0  0  0999 V2000
   21.5951  -16.8076  -19.8517 C   0  0  0  0  0  0  0  0  0  0  0  0
   22.6514  -17.6328  -19.1309 C   0  0  0  0  0  0  0  0  0  0  0  0
   23.3376  -16.8384  -18.0539 C   0  0  2  0  0  0  0  0  0  0  0  0
   23.9478  -15.5925  -18.5831 C   0  0  0  0  0  0  0  0  0  0  0  0
   24.2894  -17.7574  -17.3187 C   0  0  2  0  0  0  0  0  0  0  0  0
   25.2760  -18.2057  -18.3030 N   0  0  0  0  0  0  0  0  0  0  0  0
   23.6064  -18.9160  -16.7300 C   0  0  0  0  0  0  0  0  0  0  0  0
   23.4386  -20.0115  -17.3433 O   0  0  0  0  0  0  0  0  0  0  0  0
   25.9178  -23.1979  -13.8086 N   0  0  0  0  0  0  0  0  0  0  0  0
   26.7996  -22.3318  -13.0694 C   0  0  0  0  0  0  0  0  0  0  0  0
   28.0696  -22.3890  -13.2576 N   0  0  0  0  0  0  0  0  0  0  0  0
   26.2957  -21.4004  -12.1249 N   0  0  0  0  0  0  0  0  0  0  0  0
   24.8918  -21.0405  -12.0512 C   0  0  0  0  0  0  0  0  0  0  0  0
   24.3446  -20.8409  -13.4601 C   0  0  0  0  0  0  0  0  0  0  0  0
   22.9914  -20.2064  -13.4206 C   0  0  0  0  0  0  0  0  0  0  0  0
   22.3871  -19.9587  -14.8061 C   0  0  2  0  0  0  0  0  0  0  0  0
   23.1034  -18.8242  -15.4051 N   0  0  0  0  0  0  0  0  0  0  0  0
   20.9463  -19.7593  -14.8051 C   0  0  0  0  0  0  0  0  0  0  0  0
   20.3799  -18.8161  -14.1427 O   0  0  0  0  0  0  0  0  0  0  0  0
   28.7635  -21.7980  -12.7934 N   0  0  0  0  0  0  0  0  0  0  0  0
   20.0592  -20.5890  -15.5409 C   0  0  2  0  0  0  0  0  0  0  0  0
   18.6269  -20.3296  -15.5330 C   0  0  0  0  0  0  0  0  0  0  0  0
   18.0084  -21.6208  -14.9625 C   0  0  0  0  0  0  0  0  0  0  0  0
   18.1794  -22.7259  -15.9081 C   0  0  0  0  0  0  0  0  0  0  0  0
   18.7108  -22.5419  -17.1842 N   0  0  0  0  0  0  0  0  0  0  0  0
   18.7016  -23.7706  -17.7454 C   0  0  0  0  0  0  0  0  0  0  0  0
   18.1935  -24.6611  -16.8643 N   0  0  0  0  0  0  0  0  0  0  0  0
   17.8683  -24.0132  -15.7227 C   0  0  0  0  0  0  0  0  0  0  0  0
   18.2879  -19.1481  -14.7286 O   0  0  0  0  0  0  0  0  0  0  0  0
   18.6318  -19.0236  -13.5054 O   0  0  0  0  0  0  0  0  0  0  0  0
  2  3  1  0
  2  1  1  0
  3  4  1  6
  5  7  1  0
  5  3  1  0
  5  6  1  6
  7  8  2  0
 10 12  1  0
 10  9  1  0
 11 10  2  0
 13 14  1  0
 13 12  1  0
 14 15  1  0
 16 15  1  1
 17 16  1  0
 17  7  1  0
 18 16  1  0
 19 18  2  0
 20 18  1  0
 21 20  1  0
 21 22  1  6
 22 23  1  0
 23 27  1  0
 23 24  2  0
 24 25  1  0
 26 25  1  0
 27 26  2  0
 28 21  1  0
 29 28  2  0
 30 28  1  0
M  END
$$$$
