IRH.pdb
     RDKit          3D

 30 30  0  0  1  0  0  0  0  0999 V2000
   26.5142  -12.4919  -15.9196 C   0  0  0  0  0  0  0  0  0  0  0  0
   26.9125  -13.9562  -16.0359 C   0  0  0  0  0  0  0  0  0  0  0  0
   25.7092  -14.8571  -16.0840 C   0  0  2  0  0  0  0  0  0  0  0  0
   24.8468  -14.7000  -14.8855 C   0  0  0  0  0  0  0  0  0  0  0  0
   26.1830  -16.2692  -16.3533 C   0  0  2  0  0  0  0  0  0  0  0  0
   26.9664  -16.2149  -17.5889 N   0  0  0  0  0  0  0  0  0  0  0  0
   25.0695  -17.2136  -16.5068 C   0  0  0  0  0  0  0  0  0  0  0  0
   24.2595  -17.1834  -17.4800 O   0  0  0  0  0  0  0  0  0  0  0  0
   24.3827  -25.6300  -15.1021 N   0  0  0  0  0  0  0  0  0  0  0  0
   25.1106  -24.5016  -15.6227 C   0  0  0  0  0  0  0  0  0  0  0  0
   26.2607  -24.6711  -16.1706 N   0  0  0  0  0  0  0  0  0  0  0  0
   24.5827  -23.1866  -15.5476 N   0  0  0  0  0  0  0  0  0  0  0  0
   23.4558  -22.8416  -14.7009 C   0  0  0  0  0  0  0  0  0  0  0  0
   22.9562  -21.4478  -15.0643 C   0  0  0  0  0  0  0  0  0  0  0  0
   24.0838  -20.4662  -15.0824 C   0  0  0  0  0  0  0  0  0  0  0  0
   23.6769  -19.0702  -15.5639 C   0  0  2  0  0  0  0  0  0  0  0  0
   24.8759  -18.2218  -15.5255 N   0  0  0  0  0  0  0  0  0  0  0  0
   22.5656  -18.4834  -14.8316 C   0  0  0  0  0  0  0  0  0  0  0  0
   22.6876  -18.0331  -13.6351 O   0  0  0  0  0  0  0  0  0  0  0  0
   26.8504  -23.9265  -16.5503 N   0  0  0  0  0  0  0  0  0  0  0  0
   21.2645  -18.3595  -15.3870 C   0  0  1  0  0  0  0  0  0  0  0  0
   20.1885  -17.7489  -14.6200 C   0  0  0  0  0  0  0  0  0  0  0  0
   20.3505  -16.2371  -14.8720 C   0  0  0  0  0  0  0  0  0  0  0  0
   19.2738  -15.4949  -14.2131 C   0  0  0  0  0  0  0  0  0  0  0  0
   18.8125  -15.8216  -12.9384 N   0  0  0  0  0  0  0  0  0  0  0  0
   17.8298  -14.9300  -12.6848 C   0  0  0  0  0  0  0  0  0  0  0  0
   17.6940  -14.1008  -13.7438 N   0  0  0  0  0  0  0  0  0  0  0  0
   18.5901  -14.4510  -14.6940 C   0  0  0  0  0  0  0  0  0  0  0  0
   18.8694  -18.2438  -15.0356 O   0  0  0  0  0  0  0  0  0  0  0  0
   17.7770  -17.7594  -14.5860 O   0  0  0  0  0  0  0  0  0  0  0  0
  2  3  1  0
  2  1  1  0
  3  4  1  1
  5  7  1  0
  5  3  1  0
  5  6  1  6
  7  8  2  0
 10 12  1  0
 10  9  1  0
 11 10  2  0
 13 14  1  0
 13 12  1  0
 14 15  1  0
 16 15  1  1
 17 16  1  0
 17  7  1  0
 18 16  1  0
 19 18  2  0
 20 18  1  0
 21 20  1  0
 21 22  1  1
 22 23  1  0
 23 27  1  0
 23 24  2  0
 24 25  1  0
 26 25  1  0
 27 26  2  0
 28 21  1  0
 29 28  2  0
 30 28  1  0
M  END
$$$$
