IRH.pdb
     RDKit          3D

 30 30  0  0  1  0  0  0  0  0999 V2000
   28.8007  -17.6262  -19.7168 C   0  0  0  0  0  0  0  0  0  0  0  0
   28.8782  -18.7042  -18.6453 C   0  0  0  0  0  0  0  0  0  0  0  0
   27.7476  -18.5905  -17.6600 C   0  0  2  0  0  0  0  0  0  0  0  0
   27.6354  -17.2217  -17.0955 C   0  0  0  0  0  0  0  0  0  0  0  0
   27.8952  -19.6966  -16.6373 C   0  0  2  0  0  0  0  0  0  0  0  0
   27.9607  -20.9507  -17.3897 N   0  0  0  0  0  0  0  0  0  0  0  0
   26.7735  -19.7375  -15.6911 C   0  0  0  0  0  0  0  0  0  0  0  0
   26.5410  -18.8229  -14.8463 O   0  0  0  0  0  0  0  0  0  0  0  0
   19.3026  -21.9861  -16.1762 N   0  0  0  0  0  0  0  0  0  0  0  0
   20.3914  -22.4627  -16.9895 C   0  0  0  0  0  0  0  0  0  0  0  0
   20.3285  -22.3746  -18.2701 N   0  0  0  0  0  0  0  0  0  0  0  0
   21.5514  -23.0345  -16.4056 N   0  0  0  0  0  0  0  0  0  0  0  0
   21.6834  -23.2530  -14.9771 C   0  0  0  0  0  0  0  0  0  0  0  0
   22.6188  -22.2033  -14.3876 C   0  0  0  0  0  0  0  0  0  0  0  0
   23.7578  -21.9246  -15.3150 C   0  0  0  0  0  0  0  0  0  0  0  0
   24.7761  -20.9259  -14.7564 C   0  0  2  0  0  0  0  0  0  0  0  0
   25.8909  -20.8500  -15.7105 N   0  0  0  0  0  0  0  0  0  0  0  0
   25.2285  -21.2224  -13.4062 C   0  0  0  0  0  0  0  0  0  0  0  0
   26.2513  -21.9613  -13.1670 O   0  0  0  0  0  0  0  0  0  0  0  0
   21.0713  -22.6464  -18.9188 N   0  0  0  0  0  0  0  0  0  0  0  0
   24.5766  -20.7125  -12.2522 C   0  0  1  0  0  0  0  0  0  0  0  0
   25.1000  -20.9928  -10.9232 C   0  0  0  0  0  0  0  0  0  0  0  0
   26.3859  -20.1480  -10.8334 C   0  0  0  0  0  0  0  0  0  0  0  0
   26.9286  -20.1934   -9.4740 C   0  0  0  0  0  0  0  0  0  0  0  0
   26.3281  -20.9305   -8.4539 N   0  0  0  0  0  0  0  0  0  0  0  0
   27.1039  -20.7187   -7.3685 C   0  0  0  0  0  0  0  0  0  0  0  0
   28.1249  -19.8977   -7.7017 N   0  0  0  0  0  0  0  0  0  0  0  0
   28.0168  -19.5703   -9.0093 C   0  0  0  0  0  0  0  0  0  0  0  0
   24.1348  -20.6500   -9.8702 O   0  0  0  0  0  0  0  0  0  0  0  0
   23.0886  -19.9527  -10.0927 O   0  0  0  0  0  0  0  0  0  0  0  0
  2  3  1  0
  2  1  1  0
  3  4  1  1
  5  7  1  0
  5  3  1  0
  5  6  1  6
  7  8  2  0
 10 12  1  0
 10  9  1  0
 11 10  2  0
 13 14  1  0
 13 12  1  0
 14 15  1  0
 16 15  1  6
 17 16  1  0
 17  7  1  0
 18 16  1  0
 19 18  2  0
 20 18  1  0
 21 20  1  0
 21 22  1  1
 22 23  1  0
 23 27  1  0
 23 24  2  0
 24 25  1  0
 26 25  1  0
 27 26  2  0
 28 21  1  0
 29 28  2  0
 30 28  1  0
M  END
$$$$
