IRH.pdb
     RDKit          3D

 30 30  0  0  1  0  0  0  0  0999 V2000
   23.4878  -15.8367  -20.6358 C   0  0  0  0  0  0  0  0  0  0  0  0
   24.6718  -16.4386  -19.8929 C   0  0  0  0  0  0  0  0  0  0  0  0
   24.2327  -17.4718  -18.8921 C   0  0  2  0  0  0  0  0  0  0  0  0
   23.1681  -16.9597  -17.9925 C   0  0  0  0  0  0  0  0  0  0  0  0
   25.4627  -18.0076  -18.1913 C   0  0  2  0  0  0  0  0  0  0  0  0
   26.3198  -18.5747  -19.2338 N   0  0  0  0  0  0  0  0  0  0  0  0
   25.1363  -19.0364  -17.1961 C   0  0  0  0  0  0  0  0  0  0  0  0
   24.7753  -20.2114  -17.5014 O   0  0  0  0  0  0  0  0  0  0  0  0
   28.7623  -21.4072   -9.6070 N   0  0  0  0  0  0  0  0  0  0  0  0
   28.9201  -21.4658  -11.0372 C   0  0  0  0  0  0  0  0  0  0  0  0
   29.9495  -22.0384  -11.5512 N   0  0  0  0  0  0  0  0  0  0  0  0
   27.9532  -20.9007  -11.9086 N   0  0  0  0  0  0  0  0  0  0  0  0
   26.6966  -20.3511  -11.4342 C   0  0  0  0  0  0  0  0  0  0  0  0
   25.6324  -20.5128  -12.5138 C   0  0  0  0  0  0  0  0  0  0  0  0
   25.9321  -19.6416  -13.6912 C   0  0  0  0  0  0  0  0  0  0  0  0
   24.8788  -19.7221  -14.8004 C   0  0  2  0  0  0  0  0  0  0  0  0
   25.2267  -18.7178  -15.8150 N   0  0  0  0  0  0  0  0  0  0  0  0
   23.5074  -19.5815  -14.3367 C   0  0  0  0  0  0  0  0  0  0  0  0
   23.0202  -18.4574  -13.9515 O   0  0  0  0  0  0  0  0  0  0  0  0
   30.1405  -22.1236  -12.5525 N   0  0  0  0  0  0  0  0  0  0  0  0
   22.6034  -20.6752  -14.2806 C   0  0  1  0  0  0  0  0  0  0  0  0
   21.2497  -20.4903  -13.7784 C   0  0  0  0  0  0  0  0  0  0  0  0
   21.3324  -19.2134  -12.9193 C   0  0  0  0  0  0  0  0  0  0  0  0
   21.4850  -19.5624  -11.5053 C   0  0  0  0  0  0  0  0  0  0  0  0
   21.6159  -20.8811  -11.0711 N   0  0  0  0  0  0  0  0  0  0  0  0
   21.7246  -20.7958   -9.7274 C   0  0  0  0  0  0  0  0  0  0  0  0
   21.6643  -19.4976   -9.3552 N   0  0  0  0  0  0  0  0  0  0  0  0
   21.5150  -18.7305  -10.4587 C   0  0  0  0  0  0  0  0  0  0  0  0
   20.2728  -20.3650  -14.8682 O   0  0  0  0  0  0  0  0  0  0  0  0
   20.5788  -19.9090  -16.0209 O   0  0  0  0  0  0  0  0  0  0  0  0
  2  3  1  0
  2  1  1  0
  3  4  1  1
  5  7  1  0
  5  3  1  0
  5  6  1  6
  7  8  2  0
 10 12  1  0
 10  9  1  0
 11 10  2  0
 13 14  1  0
 13 12  1  0
 14 15  1  0
 16 15  1  1
 17 16  1  0
 17  7  1  0
 18 16  1  0
 19 18  2  0
 20 18  1  0
 21 20  1  0
 21 22  1  1
 22 23  1  0
 23 27  1  0
 23 24  2  0
 24 25  1  0
 26 25  1  0
 27 26  2  0
 28 21  1  0
 29 28  2  0
 30 28  1  0
M  END
$$$$
