IRH.pdb
     RDKit          3D

 30 30  0  0  1  0  0  0  0  0999 V2000
   29.0633  -13.5898  -16.0105 C   0  0  0  0  0  0  0  0  0  0  0  0
   27.6652  -13.0756  -15.6987 C   0  0  0  0  0  0  0  0  0  0  0  0
   27.4020  -11.7485  -16.3556 C   0  0  2  0  0  0  0  0  0  0  0  0
   28.3913  -10.7188  -15.9483 C   0  0  0  0  0  0  0  0  0  0  0  0
   25.9541  -11.3781  -16.1156 C   0  0  2  0  0  0  0  0  0  0  0  0
   25.1595  -12.5505  -16.4859 N   0  0  0  0  0  0  0  0  0  0  0  0
   25.5344  -10.2168  -16.9096 C   0  0  0  0  0  0  0  0  0  0  0  0
   26.0265   -9.0588  -16.7642 O   0  0  0  0  0  0  0  0  0  0  0  0
   22.1433   -9.4960  -25.1732 N   0  0  0  0  0  0  0  0  0  0  0  0
   22.2028   -8.1824  -24.5859 C   0  0  0  0  0  0  0  0  0  0  0  0
   21.8999   -7.1473  -25.2847 N   0  0  0  0  0  0  0  0  0  0  0  0
   22.5913   -7.9973  -23.2337 N   0  0  0  0  0  0  0  0  0  0  0  0
   22.9876   -9.0975  -22.3744 C   0  0  0  0  0  0  0  0  0  0  0  0
   23.3183   -8.5628  -20.9855 C   0  0  0  0  0  0  0  0  0  0  0  0
   23.7649   -9.6674  -20.0824 C   0  0  0  0  0  0  0  0  0  0  0  0
   24.0259   -9.2170  -18.6418 C   0  0  2  0  0  0  0  0  0  0  0  0
   24.5282  -10.3807  -17.8984 N   0  0  0  0  0  0  0  0  0  0  0  0
   22.8812   -8.6012  -17.9891 C   0  0  0  0  0  0  0  0  0  0  0  0
   21.7425   -9.1874  -17.8936 O   0  0  0  0  0  0  0  0  0  0  0  0
   21.9146   -6.1814  -24.9481 N   0  0  0  0  0  0  0  0  0  0  0  0
   22.9388   -7.3085  -17.4040 C   0  0  1  0  0  0  0  0  0  0  0  0
   21.7534   -6.7165  -16.8014 C   0  0  0  0  0  0  0  0  0  0  0  0
   22.0364   -6.7529  -15.2869 C   0  0  0  0  0  0  0  0  0  0  0  0
   21.6312   -8.0436  -14.7262 C   0  0  0  0  0  0  0  0  0  0  0  0
   21.1377   -9.0803  -15.5176 N   0  0  0  0  0  0  0  0  0  0  0  0
   20.8732  -10.0832  -14.6522 C   0  0  0  0  0  0  0  0  0  0  0  0
   21.1866   -9.6864  -13.3983 N   0  0  0  0  0  0  0  0  0  0  0  0
   21.6571   -8.4194  -13.4430 C   0  0  0  0  0  0  0  0  0  0  0  0
   21.5133   -5.3520  -17.2896 O   0  0  0  0  0  0  0  0  0  0  0  0
   22.2510   -4.7936  -18.1696 O   0  0  0  0  0  0  0  0  0  0  0  0
  2  3  1  0
  2  1  1  0
  3  4  1  1
  5  7  1  0
  5  3  1  0
  5  6  1  6
  7  8  2  0
 10 12  1  0
 10  9  1  0
 11 10  2  0
 13 14  1  0
 13 12  1  0
 14 15  1  0
 16 15  1  6
 17 16  1  0
 17  7  1  0
 18 16  1  0
 19 18  2  0
 20 18  1  0
 21 20  1  0
 21 22  1  1
 22 23  1  0
 23 27  1  0
 23 24  2  0
 24 25  1  0
 26 25  1  0
 27 26  2  0
 28 21  1  0
 29 28  2  0
 30 28  1  0
M  END
$$$$
