IRH.pdb
     RDKit          3D

 30 30  0  0  1  0  0  0  0  0999 V2000
   16.6900  -25.0609  -16.8516 C   0  0  0  0  0  0  0  0  0  0  0  0
   16.2999  -24.2963  -15.5948 C   0  0  0  0  0  0  0  0  0  0  0  0
   17.2989  -24.4985  -14.4889 C   0  0  2  0  0  0  0  0  0  0  0  0
   17.4945  -25.9355  -14.1701 C   0  0  0  0  0  0  0  0  0  0  0  0
   16.8933  -23.6304  -13.3172 C   0  0  2  0  0  0  0  0  0  0  0  0
   17.1294  -22.2448  -13.7267 N   0  0  0  0  0  0  0  0  0  0  0  0
   17.6624  -23.9327  -12.1038 C   0  0  0  0  0  0  0  0  0  0  0  0
   17.8464  -25.1085  -11.6705 O   0  0  0  0  0  0  0  0  0  0  0  0
   23.0302  -20.5341  -12.2534 N   0  0  0  0  0  0  0  0  0  0  0  0
   22.1654  -19.4221  -12.5532 C   0  0  0  0  0  0  0  0  0  0  0  0
   22.2237  -18.8491  -13.7020 N   0  0  0  0  0  0  0  0  0  0  0  0
   21.2343  -18.9355  -11.5994 N   0  0  0  0  0  0  0  0  0  0  0  0
   20.8127  -19.7124  -10.4484 C   0  0  0  0  0  0  0  0  0  0  0  0
   20.1695  -21.0113  -10.9211 C   0  0  0  0  0  0  0  0  0  0  0  0
   19.7337  -21.8434   -9.7580 C   0  0  0  0  0  0  0  0  0  0  0  0
   19.0326  -23.1445  -10.1604 C   0  0  2  0  0  0  0  0  0  0  0  0
   18.2399  -22.8656  -11.3658 N   0  0  0  0  0  0  0  0  0  0  0  0
   18.2332  -23.7464   -9.1049 C   0  0  0  0  0  0  0  0  0  0  0  0
   17.0901  -23.2792   -8.7523 O   0  0  0  0  0  0  0  0  0  0  0  0
   21.6601  -18.0460  -13.9915 N   0  0  0  0  0  0  0  0  0  0  0  0
   18.6544  -24.8985   -8.3895 C   0  0  2  0  0  0  0  0  0  0  0  0
   17.8750  -25.3965   -7.2654 C   0  0  0  0  0  0  0  0  0  0  0  0
   18.3976  -26.8293   -7.0436 C   0  0  0  0  0  0  0  0  0  0  0  0
   17.6468  -27.4823   -5.9691 C   0  0  0  0  0  0  0  0  0  0  0  0
   16.5731  -26.8666   -5.3269 N   0  0  0  0  0  0  0  0  0  0  0  0
   16.1550  -27.7651   -4.4090 C   0  0  0  0  0  0  0  0  0  0  0  0
   16.9277  -28.8720   -4.4822 N   0  0  0  0  0  0  0  0  0  0  0  0
   17.8552  -28.6973   -5.4507 C   0  0  0  0  0  0  0  0  0  0  0  0
   18.0347  -24.5553   -6.0718 O   0  0  0  0  0  0  0  0  0  0  0  0
   19.1255  -23.9537   -5.7919 O   0  0  0  0  0  0  0  0  0  0  0  0
  2  3  1  0
  2  1  1  0
  3  4  1  1
  5  7  1  0
  5  3  1  0
  5  6  1  6
  7  8  2  0
 10 12  1  0
 10  9  1  0
 11 10  2  0
 13 14  1  0
 13 12  1  0
 14 15  1  0
 16 15  1  1
 17 16  1  0
 17  7  1  0
 18 16  1  0
 19 18  2  0
 20 18  1  0
 21 20  1  0
 21 22  1  6
 22 23  1  0
 23 27  1  0
 23 24  2  0
 24 25  1  0
 26 25  1  0
 27 26  2  0
 28 21  1  0
 29 28  2  0
 30 28  1  0
M  END
$$$$
