IRH.pdb
     RDKit          3D

 30 30  0  0  1  0  0  0  0  0999 V2000
   29.5993  -20.6947  -10.9320 C   0  0  0  0  0  0  0  0  0  0  0  0
   28.3142  -21.4439  -11.2539 C   0  0  0  0  0  0  0  0  0  0  0  0
   27.1325  -20.5161  -11.3224 C   0  0  2  0  0  0  0  0  0  0  0  0
   26.9560  -19.7443  -10.0661 C   0  0  0  0  0  0  0  0  0  0  0  0
   25.9244  -21.3164  -11.7593 C   0  0  2  0  0  0  0  0  0  0  0  0
   26.3583  -22.1373  -12.8911 N   0  0  0  0  0  0  0  0  0  0  0  0
   24.8016  -20.4605  -12.1620 C   0  0  0  0  0  0  0  0  0  0  0  0
   24.1176  -19.7776  -11.3434 O   0  0  0  0  0  0  0  0  0  0  0  0
   27.9813  -18.7546  -16.8329 N   0  0  0  0  0  0  0  0  0  0  0  0
   26.8333  -19.0414  -17.6539 C   0  0  0  0  0  0  0  0  0  0  0  0
   26.9002  -19.9437  -18.5666 N   0  0  0  0  0  0  0  0  0  0  0  0
   25.6098  -18.3445  -17.4781 N   0  0  0  0  0  0  0  0  0  0  0  0
   25.3631  -17.4662  -16.3496 C   0  0  0  0  0  0  0  0  0  0  0  0
   25.0439  -18.3029  -15.1158 C   0  0  0  0  0  0  0  0  0  0  0  0
   23.6223  -18.7650  -15.1392 C   0  0  0  0  0  0  0  0  0  0  0  0
   23.2431  -19.6503  -13.9481 C   0  0  2  0  0  0  0  0  0  0  0  0
   24.4508  -20.3785  -13.5357 N   0  0  0  0  0  0  0  0  0  0  0  0
   22.1221  -20.5430  -14.1971 C   0  0  0  0  0  0  0  0  0  0  0  0
   22.2582  -21.6743  -14.7894 O   0  0  0  0  0  0  0  0  0  0  0  0
   26.1342  -20.2139  -19.1883 N   0  0  0  0  0  0  0  0  0  0  0  0
   20.7947  -20.2328  -13.7989 C   0  0  1  0  0  0  0  0  0  0  0  0
   20.0024  -21.1986  -13.0517 C   0  0  0  0  0  0  0  0  0  0  0  0
   20.8393  -21.4839  -11.7894 C   0  0  0  0  0  0  0  0  0  0  0  0
   20.1981  -22.5221  -10.9798 C   0  0  0  0  0  0  0  0  0  0  0  0
   18.9657  -23.0795  -11.3191 N   0  0  0  0  0  0  0  0  0  0  0  0
   18.7100  -23.9784  -10.3436 C   0  0  0  0  0  0  0  0  0  0  0  0
   19.7279  -23.9748   -9.4540 N   0  0  0  0  0  0  0  0  0  0  0  0
   20.6527  -23.0703   -9.8478 C   0  0  0  0  0  0  0  0  0  0  0  0
   18.6670  -20.6792  -12.7280 O   0  0  0  0  0  0  0  0  0  0  0  0
   18.4863  -19.5846  -12.0960 O   0  0  0  0  0  0  0  0  0  0  0  0
  2  3  1  0
  2  1  1  0
  3  4  1  1
  5  7  1  0
  5  3  1  0
  5  6  1  6
  7  8  2  0
 10 12  1  0
 10  9  1  0
 11 10  2  0
 13 14  1  0
 13 12  1  0
 14 15  1  0
 16 15  1  6
 17 16  1  0
 17  7  1  0
 18 16  1  0
 19 18  2  0
 20 18  1  0
 21 20  1  0
 21 22  1  6
 22 23  1  0
 23 27  1  0
 23 24  2  0
 24 25  1  0
 26 25  1  0
 27 26  2  0
 28 21  1  0
 29 28  2  0
 30 28  1  0
M  END
$$$$
