IRH.pdb
     RDKit          3D

 30 30  0  0  1  0  0  0  0  0999 V2000
   29.7266  -20.6691  -10.2494 C   0  0  0  0  0  0  0  0  0  0  0  0
   28.8679  -21.0038  -11.4606 C   0  0  0  0  0  0  0  0  0  0  0  0
   27.4249  -20.6453  -11.2346 C   0  0  2  0  0  0  0  0  0  0  0  0
   26.8491  -21.3592  -10.0668 C   0  0  0  0  0  0  0  0  0  0  0  0
   26.6777  -20.8376  -12.5369 C   0  0  2  0  0  0  0  0  0  0  0  0
   27.4387  -20.1202  -13.5612 N   0  0  0  0  0  0  0  0  0  0  0  0
   25.3054  -20.3193  -12.4768 C   0  0  0  0  0  0  0  0  0  0  0  0
   25.0062  -19.1968  -11.9722 O   0  0  0  0  0  0  0  0  0  0  0  0
   22.7218  -16.7017  -16.9075 N   0  0  0  0  0  0  0  0  0  0  0  0
   21.9160  -17.8557  -17.2128 C   0  0  0  0  0  0  0  0  0  0  0  0
   22.1396  -18.5365  -18.2797 N   0  0  0  0  0  0  0  0  0  0  0  0
   20.8660  -18.2691  -16.3526 N   0  0  0  0  0  0  0  0  0  0  0  0
   20.9659  -18.2038  -14.9063 C   0  0  0  0  0  0  0  0  0  0  0  0
   21.0307  -19.6170  -14.3380 C   0  0  0  0  0  0  0  0  0  0  0  0
   22.4432  -20.1034  -14.2810 C   0  0  0  0  0  0  0  0  0  0  0  0
   22.8570  -20.6322  -12.9042 C   0  0  2  0  0  0  0  0  0  0  0  0
   24.2457  -21.1007  -13.0090 N   0  0  0  0  0  0  0  0  0  0  0  0
   21.9729  -21.6526  -12.3631 C   0  0  0  0  0  0  0  0  0  0  0  0
   21.8901  -22.8318  -12.8650 O   0  0  0  0  0  0  0  0  0  0  0  0
   21.6054  -19.3548  -18.5818 N   0  0  0  0  0  0  0  0  0  0  0  0
   21.1398  -21.4229  -11.2362 C   0  0  2  0  0  0  0  0  0  0  0  0
   20.2785  -22.4797  -10.7261 C   0  0  0  0  0  0  0  0  0  0  0  0
   20.2171  -22.2226   -9.2078 C   0  0  0  0  0  0  0  0  0  0  0  0
   19.3184  -23.1847   -8.5665 C   0  0  0  0  0  0  0  0  0  0  0  0
   18.6084  -24.1416   -9.2907 N   0  0  0  0  0  0  0  0  0  0  0  0
   17.8988  -24.8228   -8.3649 C   0  0  0  0  0  0  0  0  0  0  0  0
   18.1577  -24.3142   -7.1394 N   0  0  0  0  0  0  0  0  0  0  0  0
   19.0391  -23.2962   -7.2634 C   0  0  0  0  0  0  0  0  0  0  0  0
   18.9484  -22.4517  -11.3491 O   0  0  0  0  0  0  0  0  0  0  0  0
   18.3151  -23.5120  -11.6730 O   0  0  0  0  0  0  0  0  0  0  0  0
  2  3  1  0
  2  1  1  0
  3  4  1  1
  5  7  1  0
  5  3  1  0
  5  6  1  6
  7  8  2  0
 10 12  1  0
 10  9  1  0
 11 10  2  0
 13 14  1  0
 13 12  1  0
 14 15  1  0
 16 15  1  6
 17 16  1  0
 17  7  1  0
 18 16  1  0
 19 18  2  0
 20 18  1  0
 21 20  1  0
 21 22  1  1
 22 23  1  0
 23 27  1  0
 23 24  2  0
 24 25  1  0
 26 25  1  0
 27 26  2  0
 28 21  1  0
 29 28  2  0
 30 28  1  0
M  END
$$$$
