IRH.pdb
     RDKit          3D

 30 30  0  0  1  0  0  0  0  0999 V2000
   23.5587  -21.0127  -10.5359 C   0  0  0  0  0  0  0  0  0  0  0  0
   24.8305  -20.3228  -11.0078 C   0  0  0  0  0  0  0  0  0  0  0  0
   25.8027  -21.3004  -11.6088 C   0  0  2  0  0  0  0  0  0  0  0  0
   26.1454  -22.3962  -10.6671 C   0  0  0  0  0  0  0  0  0  0  0  0
   26.9849  -20.5243  -12.1484 C   0  0  2  0  0  0  0  0  0  0  0  0
   27.6030  -19.8591  -11.0000 N   0  0  0  0  0  0  0  0  0  0  0  0
   26.5898  -19.5283  -13.1519 C   0  0  0  0  0  0  0  0  0  0  0  0
   26.1744  -18.3687  -12.8566 O   0  0  0  0  0  0  0  0  0  0  0  0
   28.4581  -16.9794  -20.4511 N   0  0  0  0  0  0  0  0  0  0  0  0
   27.4251  -16.0429  -20.0907 C   0  0  0  0  0  0  0  0  0  0  0  0
   26.8442  -15.3406  -20.9968 N   0  0  0  0  0  0  0  0  0  0  0  0
   27.0234  -15.8733  -18.7404 N   0  0  0  0  0  0  0  0  0  0  0  0
   27.4525  -16.7632  -17.6773 C   0  0  0  0  0  0  0  0  0  0  0  0
   26.8437  -18.1439  -17.8947 C   0  0  0  0  0  0  0  0  0  0  0  0
   27.1736  -19.0561  -16.7571 C   0  0  0  0  0  0  0  0  0  0  0  0
   26.2422  -18.8980  -15.5514 C   0  0  2  0  0  0  0  0  0  0  0  0
   26.6733  -19.8621  -14.5297 N   0  0  0  0  0  0  0  0  0  0  0  0
   24.8278  -19.0264  -15.8651 C   0  0  0  0  0  0  0  0  0  0  0  0
   24.1454  -20.0718  -15.5636 O   0  0  0  0  0  0  0  0  0  0  0  0
   26.1667  -14.5943  -20.8227 N   0  0  0  0  0  0  0  0  0  0  0  0
   24.0947  -18.0034  -16.5229 C   0  0  2  0  0  0  0  0  0  0  0  0
   22.6827  -18.1847  -16.8268 C   0  0  0  0  0  0  0  0  0  0  0  0
   21.9683  -17.9359  -15.4841 C   0  0  0  0  0  0  0  0  0  0  0  0
   21.6365  -19.2098  -14.8425 C   0  0  0  0  0  0  0  0  0  0  0  0
   22.0469  -20.4371  -15.3617 N   0  0  0  0  0  0  0  0  0  0  0  0
   21.5491  -21.3595  -14.5096 C   0  0  0  0  0  0  0  0  0  0  0  0
   20.8705  -20.7350  -13.5210 N   0  0  0  0  0  0  0  0  0  0  0  0
   20.9236  -19.3996  -13.7270 C   0  0  0  0  0  0  0  0  0  0  0  0
   22.2258  -17.2663  -17.8784 O   0  0  0  0  0  0  0  0  0  0  0  0
   22.8995  -16.2452  -18.2440 O   0  0  0  0  0  0  0  0  0  0  0  0
  2  3  1  0
  2  1  1  0
  3  4  1  1
  5  7  1  0
  5  3  1  0
  5  6  1  1
  7  8  2  0
 10 12  1  0
 10  9  1  0
 11 10  2  0
 13 14  1  0
 13 12  1  0
 14 15  1  0
 16 15  1  6
 17 16  1  0
 17  7  1  0
 18 16  1  0
 19 18  2  0
 20 18  1  0
 21 20  1  0
 21 22  1  1
 22 23  1  0
 23 27  1  0
 23 24  2  0
 24 25  1  0
 26 25  1  0
 27 26  2  0
 28 21  1  0
 29 28  2  0
 30 28  1  0
M  END
$$$$
