IRH.pdb
     RDKit          3D

 30 30  0  0  1  0  0  0  0  0999 V2000
   23.4375  -18.4496  -17.7593 C   0  0  0  0  0  0  0  0  0  0  0  0
   24.4423  -19.5729  -17.5478 C   0  0  0  0  0  0  0  0  0  0  0  0
   25.6437  -19.1051  -16.7734 C   0  0  2  0  0  0  0  0  0  0  0  0
   26.6330  -18.4171  -17.6410 C   0  0  0  0  0  0  0  0  0  0  0  0
   26.1870  -20.2774  -15.9848 C   0  0  2  0  0  0  0  0  0  0  0  0
   26.4982  -21.3241  -16.9598 N   0  0  0  0  0  0  0  0  0  0  0  0
   25.2248  -20.7819  -14.9975 C   0  0  0  0  0  0  0  0  0  0  0  0
   24.3987  -21.7107  -15.2412 O   0  0  0  0  0  0  0  0  0  0  0  0
   28.8458  -20.7793  -11.9613 N   0  0  0  0  0  0  0  0  0  0  0  0
   29.1393  -21.3588  -10.6759 C   0  0  0  0  0  0  0  0  0  0  0  0
   30.3495  -21.6563  -10.3619 N   0  0  0  0  0  0  0  0  0  0  0  0
   28.1119  -21.6125   -9.7307 N   0  0  0  0  0  0  0  0  0  0  0  0
   26.8074  -20.9808   -9.8024 C   0  0  0  0  0  0  0  0  0  0  0  0
   26.1897  -21.2461  -11.1707 C   0  0  0  0  0  0  0  0  0  0  0  0
   24.8881  -20.5252  -11.3160 C   0  0  0  0  0  0  0  0  0  0  0  0
   24.2423  -20.6927  -12.6948 C   0  0  2  0  0  0  0  0  0  0  0  0
   25.2056  -20.2143  -13.6958 N   0  0  0  0  0  0  0  0  0  0  0  0
   22.9444  -20.0505  -12.8313 C   0  0  0  0  0  0  0  0  0  0  0  0
   22.8149  -18.8226  -13.1845 O   0  0  0  0  0  0  0  0  0  0  0  0
   30.6357  -22.1514   -9.5139 N   0  0  0  0  0  0  0  0  0  0  0  0
   21.7237  -20.7347  -12.5897 C   0  0  1  0  0  0  0  0  0  0  0  0
   20.5000  -20.3231  -13.2622 C   0  0  0  0  0  0  0  0  0  0  0  0
   20.8345  -20.4305  -14.7627 C   0  0  0  0  0  0  0  0  0  0  0  0
   19.6860  -20.0128  -15.5695 C   0  0  0  0  0  0  0  0  0  0  0  0
   18.9972  -18.8243  -15.3299 N   0  0  0  0  0  0  0  0  0  0  0  0
   18.0176  -18.7963  -16.2595 C   0  0  0  0  0  0  0  0  0  0  0  0
   18.0988  -19.9051  -17.0286 N   0  0  0  0  0  0  0  0  0  0  0  0
   19.1346  -20.6619  -16.6006 C   0  0  0  0  0  0  0  0  0  0  0  0
   19.3572  -21.1657  -12.8855 O   0  0  0  0  0  0  0  0  0  0  0  0
   19.4401  -22.4355  -12.7813 O   0  0  0  0  0  0  0  0  0  0  0  0
  2  3  1  0
  2  1  1  0
  3  4  1  6
  5  7  1  0
  5  3  1  0
  5  6  1  6
  7  8  2  0
 10 12  1  0
 10  9  1  0
 11 10  2  0
 13 14  1  0
 13 12  1  0
 14 15  1  0
 16 15  1  1
 17 16  1  0
 17  7  1  0
 18 16  1  0
 19 18  2  0
 20 18  1  0
 21 20  1  0
 21 22  1  6
 22 23  1  0
 23 27  1  0
 23 24  2  0
 24 25  1  0
 26 25  1  0
 27 26  2  0
 28 21  1  0
 29 28  2  0
 30 28  1  0
M  END
$$$$
