IRH.pdb
     RDKit          3D

 30 30  0  0  1  0  0  0  0  0999 V2000
   29.6272  -21.4778  -10.7731 C   0  0  0  0  0  0  0  0  0  0  0  0
   28.1345  -21.5985  -10.5021 C   0  0  0  0  0  0  0  0  0  0  0  0
   27.3184  -20.9687  -11.5972 C   0  0  2  0  0  0  0  0  0  0  0  0
   27.7836  -19.5961  -11.9203 C   0  0  0  0  0  0  0  0  0  0  0  0
   25.8557  -21.0795  -11.2237 C   0  0  2  0  0  0  0  0  0  0  0  0
   25.6243  -22.4800  -10.8660 N   0  0  0  0  0  0  0  0  0  0  0  0
   24.9658  -20.6895  -12.3243 C   0  0  0  0  0  0  0  0  0  0  0  0
   24.7409  -19.4850  -12.6449 O   0  0  0  0  0  0  0  0  0  0  0  0
   26.4218  -25.2598  -18.8356 N   0  0  0  0  0  0  0  0  0  0  0  0
   26.3775  -25.7822  -17.4943 C   0  0  0  0  0  0  0  0  0  0  0  0
   26.8537  -26.9481  -17.2384 N   0  0  0  0  0  0  0  0  0  0  0  0
   25.8148  -25.0313  -16.4298 N   0  0  0  0  0  0  0  0  0  0  0  0
   25.1527  -23.7563  -16.6344 C   0  0  0  0  0  0  0  0  0  0  0  0
   24.6079  -23.2484  -15.3042 C   0  0  0  0  0  0  0  0  0  0  0  0
   23.9671  -21.9076  -15.4686 C   0  0  0  0  0  0  0  0  0  0  0  0
   23.3968  -21.3344  -14.1676 C   0  0  2  0  0  0  0  0  0  0  0  0
   24.3168  -21.7003  -13.0819 N   0  0  0  0  0  0  0  0  0  0  0  0
   22.0275  -21.7352  -13.8850 C   0  0  0  0  0  0  0  0  0  0  0  0
   21.6786  -22.9652  -13.7638 O   0  0  0  0  0  0  0  0  0  0  0  0
   26.8333  -27.4078  -16.3249 N   0  0  0  0  0  0  0  0  0  0  0  0
   20.9754  -20.7963  -13.7165 C   0  0  1  0  0  0  0  0  0  0  0  0
   19.6132  -21.2482  -13.4740 C   0  0  0  0  0  0  0  0  0  0  0  0
   19.1986  -20.5305  -12.1747 C   0  0  0  0  0  0  0  0  0  0  0  0
   19.5518  -21.3454  -11.0103 C   0  0  0  0  0  0  0  0  0  0  0  0
   20.2050  -22.5718  -11.1270 N   0  0  0  0  0  0  0  0  0  0  0  0
   20.3464  -23.0129   -9.8581 C   0  0  0  0  0  0  0  0  0  0  0  0
   19.8106  -22.1087   -9.0078 N   0  0  0  0  0  0  0  0  0  0  0  0
   19.3162  -21.0726   -9.7224 C   0  0  0  0  0  0  0  0  0  0  0  0
   18.7209  -20.9270  -14.5958 O   0  0  0  0  0  0  0  0  0  0  0  0
   17.6291  -21.5531  -14.8109 O   0  0  0  0  0  0  0  0  0  0  0  0
  2  3  1  0
  2  1  1  0
  3  4  1  1
  5  7  1  0
  5  3  1  0
  5  6  1  6
  7  8  2  0
 10 12  1  0
 10  9  1  0
 11 10  2  0
 13 14  1  0
 13 12  1  0
 14 15  1  0
 16 15  1  6
 17 16  1  0
 17  7  1  0
 18 16  1  0
 19 18  2  0
 20 18  1  0
 21 20  1  0
 21 22  1  6
 22 23  1  0
 23 27  1  0
 23 24  2  0
 24 25  1  0
 26 25  1  0
 27 26  2  0
 28 21  1  0
 29 28  2  0
 30 28  1  0
M  END
$$$$
