IRH.pdb
     RDKit          3D

 30 30  0  0  1  0  0  0  0  0999 V2000
   18.6526  -21.1028  -15.2985 C   0  0  0  0  0  0  0  0  0  0  0  0
   19.5126  -21.9499  -14.3716 C   0  0  0  0  0  0  0  0  0  0  0  0
   18.6748  -22.8421  -13.4975 C   0  0  2  0  0  0  0  0  0  0  0  0
   17.7018  -22.0706  -12.6833 C   0  0  0  0  0  0  0  0  0  0  0  0
   19.6022  -23.7410  -12.7083 C   0  0  2  0  0  0  0  0  0  0  0  0
   20.4576  -24.4152  -13.6865 N   0  0  0  0  0  0  0  0  0  0  0  0
   18.8736  -24.7347  -11.9102 C   0  0  0  0  0  0  0  0  0  0  0  0
   17.6098  -24.7783  -11.8368 O   0  0  0  0  0  0  0  0  0  0  0  0
   21.8900  -32.4055   -9.9533 N   0  0  0  0  0  0  0  0  0  0  0  0
   21.7020  -31.2988  -10.8554 C   0  0  0  0  0  0  0  0  0  0  0  0
   22.3359  -31.2604  -11.9727 N   0  0  0  0  0  0  0  0  0  0  0  0
   20.8199  -30.2331  -10.5397 N   0  0  0  0  0  0  0  0  0  0  0  0
   19.9378  -30.2608   -9.3877 C   0  0  0  0  0  0  0  0  0  0  0  0
   19.1083  -28.9821   -9.3529 C   0  0  0  0  0  0  0  0  0  0  0  0
   19.6924  -27.9441  -10.2566 C   0  0  0  0  0  0  0  0  0  0  0  0
   18.9078  -26.6286  -10.2709 C   0  0  2  0  0  0  0  0  0  0  0  0
   19.6053  -25.7071  -11.1782 N   0  0  0  0  0  0  0  0  0  0  0  0
   18.6910  -26.0452   -8.9563 C   0  0  0  0  0  0  0  0  0  0  0  0
   19.6380  -25.5112   -8.2727 O   0  0  0  0  0  0  0  0  0  0  0  0
   22.2555  -30.5193  -12.6731 N   0  0  0  0  0  0  0  0  0  0  0  0
   17.4152  -26.0177   -8.3331 C   0  0  2  0  0  0  0  0  0  0  0  0
   17.2499  -25.4262   -7.0134 C   0  0  0  0  0  0  0  0  0  0  0  0
   15.7258  -25.4230   -6.7848 C   0  0  0  0  0  0  0  0  0  0  0  0
   15.4097  -24.8350   -5.4814 C   0  0  0  0  0  0  0  0  0  0  0  0
   15.8523  -23.5669   -5.1067 N   0  0  0  0  0  0  0  0  0  0  0  0
   15.3722  -23.3859   -3.8571 C   0  0  0  0  0  0  0  0  0  0  0  0
   14.6730  -24.4810   -3.4835 N   0  0  0  0  0  0  0  0  0  0  0  0
   14.6959  -25.3820   -4.4916 C   0  0  0  0  0  0  0  0  0  0  0  0
   17.9657  -26.1847   -5.9789 O   0  0  0  0  0  0  0  0  0  0  0  0
   18.4595  -25.6356   -4.9374 O   0  0  0  0  0  0  0  0  0  0  0  0
  2  3  1  0
  2  1  1  0
  3  4  1  1
  5  7  1  0
  5  3  1  0
  5  6  1  6
  7  8  2  0
 10 12  1  0
 10  9  1  0
 11 10  2  0
 13 14  1  0
 13 12  1  0
 14 15  1  0
 16 15  1  1
 17 16  1  0
 17  7  1  0
 18 16  1  0
 19 18  2  0
 20 18  1  0
 21 20  1  0
 21 22  1  6
 22 23  1  0
 23 27  1  0
 23 24  2  0
 24 25  1  0
 26 25  1  0
 27 26  2  0
 28 21  1  0
 29 28  2  0
 30 28  1  0
M  END
$$$$
