CEK.pdb
     RDKit          3D

 25 24  0  0  1  0  0  0  0  0999 V2000
    5.3028  -13.4521   25.6498 N   0  0  0  0  0  0  0  0  0  0  0  0
    6.5985  -13.1323   25.1112 C   0  0  1  0  0  0  0  0  0  0  0  0
    7.3649  -12.3991   26.2183 C   0  0  0  0  0  0  0  0  0  0  0  0
    6.6579  -10.7511   26.4163 S   0  0  0  0  0  0  0  0  0  0  0  0
    7.2806  -14.4124   24.7723 C   0  0  0  0  0  0  0  0  0  0  0  0
    7.1730  -15.4440   25.5187 O   0  0  0  0  0  0  0  0  0  0  0  0
    8.0799  -14.5654   23.6185 N   0  0  0  0  0  0  0  0  0  0  0  0
    8.7220  -15.8449   23.2755 C   0  0  1  0  0  0  0  0  0  0  0  0
    9.2237  -15.7741   21.8637 C   0  0  0  0  0  0  0  0  0  0  0  0
    9.9370  -17.0256   21.4679 C   0  0  0  0  0  0  0  0  0  0  0  0
   10.3908  -16.9224   20.0171 C   0  0  0  0  0  0  0  0  0  0  0  0
    9.5659  -17.1991   19.1074 O   0  0  0  0  0  0  0  0  0  0  0  0
    9.7490  -16.0791   24.3074 C   0  0  0  0  0  0  0  0  0  0  0  0
   10.4610  -15.1000   24.7047 O   0  0  0  0  0  0  0  0  0  0  0  0
   11.6745  -16.5343   19.7413 O   0  0  0  0  0  0  0  0  0  0  0  0
   10.0327  -17.3243   24.9295 N   0  0  0  0  0  0  0  0  0  0  0  0
   11.1267  -17.4729   25.9073 C   0  0  1  0  0  0  0  0  0  0  0  0
   10.8052  -18.5170   26.9039 C   0  0  0  0  0  0  0  0  0  0  0  0
   11.9443  -18.7598   27.8481 C   0  0  0  0  0  0  0  0  0  0  0  0
   11.5325  -19.8715   28.8219 C   0  0  0  0  0  0  0  0  0  0  0  0
   12.6744  -20.1851   29.7656 C   0  0  0  0  0  0  0  0  0  0  0  0
   12.2960  -21.1204   30.7904 N   0  0  0  0  0  0  0  0  0  0  0  0
   12.3995  -17.7039   25.2337 C   0  0  0  0  0  0  0  0  0  0  0  0
   13.4868  -17.1456   25.6093 O   0  0  0  0  0  0  0  0  0  0  0  0
   12.5393  -18.5415   24.1452 O   0  0  0  0  0  0  0  0  0  0  0  0
  2  1  1  1
  3  2  1  0
  4  3  1  0
  5  2  1  0
  5  6  2  0
  7  5  1  0
  8  7  1  0
  9 10  1  0
  8  9  1  6
 10 11  1  0
 11 12  2  0
 11 15  1  0
 13  8  1  0
 14 13  2  0
 16 13  1  0
 17 16  1  0
 17 23  1  0
 17 18  1  1
 19 18  1  0
 20 19  1  0
 20 21  1  0
 22 21  1  0
 23 25  1  0
 24 23  2  0
M  END
$$$$
