CEK.pdb
     RDKit          3D

 25 24  0  0  1  0  0  0  0  0999 V2000
    8.9715  -12.7547   17.9054 N   0  0  0  0  0  0  0  0  0  0  0  0
    8.3052  -13.3337   19.0420 C   0  0  1  0  0  0  0  0  0  0  0  0
    6.8602  -13.6091   18.6101 C   0  0  0  0  0  0  0  0  0  0  0  0
    5.9662  -14.3225   20.0053 S   0  0  0  0  0  0  0  0  0  0  0  0
    8.9965  -14.6105   19.3749 C   0  0  0  0  0  0  0  0  0  0  0  0
    8.5408  -15.4031   20.2676 O   0  0  0  0  0  0  0  0  0  0  0  0
   10.1850  -15.0212   18.7328 N   0  0  0  0  0  0  0  0  0  0  0  0
   10.8544  -16.2900   19.0629 C   0  0  1  0  0  0  0  0  0  0  0  0
   11.8301  -16.6228   17.9733 C   0  0  0  0  0  0  0  0  0  0  0  0
   11.1546  -17.2604   16.8033 C   0  0  0  0  0  0  0  0  0  0  0  0
   12.1306  -17.3607   15.6375 C   0  0  0  0  0  0  0  0  0  0  0  0
   11.9637  -16.6031   14.6461 O   0  0  0  0  0  0  0  0  0  0  0  0
   11.4341  -16.1115   20.4070 C   0  0  0  0  0  0  0  0  0  0  0  0
   11.9404  -14.9841   20.7173 O   0  0  0  0  0  0  0  0  0  0  0  0
   13.1566  -18.2653   15.6970 O   0  0  0  0  0  0  0  0  0  0  0  0
   11.4834  -17.0978   21.4281 N   0  0  0  0  0  0  0  0  0  0  0  0
   12.0584  -16.8133   22.7560 C   0  0  1  0  0  0  0  0  0  0  0  0
   11.4905  -17.7154   23.7809 C   0  0  0  0  0  0  0  0  0  0  0  0
   12.0559  -17.4423   25.1425 C   0  0  0  0  0  0  0  0  0  0  0  0
   11.4264  -18.4322   26.1314 C   0  0  0  0  0  0  0  0  0  0  0  0
   12.0453  -18.2612   27.5028 C   0  0  0  0  0  0  0  0  0  0  0  0
   11.5787  -19.2470   28.4403 N   0  0  0  0  0  0  0  0  0  0  0  0
   13.5157  -16.8508   22.7115 C   0  0  0  0  0  0  0  0  0  0  0  0
   14.1596  -17.6871   21.9898 O   0  0  0  0  0  0  0  0  0  0  0  0
   14.3180  -15.9910   23.4348 O   0  0  0  0  0  0  0  0  0  0  0  0
  2  1  1  6
  3  2  1  0
  4  3  1  0
  5  2  1  0
  5  6  2  0
  7  5  1  0
  8  7  1  0
  9 10  1  0
  8  9  1  6
 10 11  1  0
 11 12  2  0
 11 15  1  0
 13  8  1  0
 14 13  2  0
 16 13  1  0
 17 16  1  0
 17 23  1  0
 17 18  1  1
 19 18  1  0
 20 19  1  0
 20 21  1  0
 22 21  1  0
 23 25  1  0
 24 23  2  0
M  END
$$$$
