CEK.pdb
     RDKit          3D

 25 24  0  0  1  0  0  0  0  0999 V2000
    6.7531  -20.3690   20.3914 N   0  0  0  0  0  0  0  0  0  0  0  0
    6.1029  -19.4822   21.3198 C   0  0  1  0  0  0  0  0  0  0  0  0
    5.6806  -20.3371   22.5204 C   0  0  0  0  0  0  0  0  0  0  0  0
    4.9111  -19.2651   23.7507 S   0  0  0  0  0  0  0  0  0  0  0  0
    7.0956  -18.4549   21.7416 C   0  0  0  0  0  0  0  0  0  0  0  0
    8.2952  -18.7719   22.0471 O   0  0  0  0  0  0  0  0  0  0  0  0
    6.7780  -17.0820   21.8297 N   0  0  0  0  0  0  0  0  0  0  0  0
    7.7833  -16.0676   22.1864 C   0  0  1  0  0  0  0  0  0  0  0  0
    7.4520  -14.7857   21.4816 C   0  0  0  0  0  0  0  0  0  0  0  0
    7.9751  -14.7738   20.0824 C   0  0  0  0  0  0  0  0  0  0  0  0
    7.6620  -13.4343   19.4273 C   0  0  0  0  0  0  0  0  0  0  0  0
    7.1438  -12.5273   20.1299 O   0  0  0  0  0  0  0  0  0  0  0  0
    7.7963  -16.0020   23.6595 C   0  0  0  0  0  0  0  0  0  0  0  0
    6.6897  -16.0413   24.2900 O   0  0  0  0  0  0  0  0  0  0  0  0
    7.9499  -13.2520   18.1013 O   0  0  0  0  0  0  0  0  0  0  0  0
    8.9541  -15.9014   24.4764 N   0  0  0  0  0  0  0  0  0  0  0  0
    8.8696  -15.9132   25.9487 C   0  0  1  0  0  0  0  0  0  0  0  0
    9.4682  -17.1472   26.5015 C   0  0  0  0  0  0  0  0  0  0  0  0
    9.4388  -17.1610   28.0005 C   0  0  0  0  0  0  0  0  0  0  0  0
   10.1471  -18.4335   28.4832 C   0  0  0  0  0  0  0  0  0  0  0  0
   10.0788  -18.5255   29.9931 C   0  0  0  0  0  0  0  0  0  0  0  0
   10.7995  -19.6597   30.5052 N   0  0  0  0  0  0  0  0  0  0  0  0
    9.4483  -14.6993   26.5133 C   0  0  0  0  0  0  0  0  0  0  0  0
   10.4809  -14.1342   26.0142 O   0  0  0  0  0  0  0  0  0  0  0  0
    8.9326  -14.0593   27.6226 O   0  0  0  0  0  0  0  0  0  0  0  0
  2  1  1  6
  3  2  1  0
  4  3  1  0
  5  2  1  0
  5  6  2  0
  7  5  1  0
  8  7  1  0
  9 10  1  0
  8  9  1  6
 10 11  1  0
 11 12  2  0
 11 15  1  0
 13  8  1  0
 14 13  2  0
 16 13  1  0
 17 16  1  0
 17 23  1  0
 17 18  1  1
 19 18  1  0
 20 19  1  0
 20 21  1  0
 22 21  1  0
 23 25  1  0
 24 23  2  0
M  END
$$$$
