CEK.pdb
     RDKit          3D

 25 24  0  0  1  0  0  0  0  0999 V2000
    6.8450  -15.2862   19.6992 N   0  0  0  0  0  0  0  0  0  0  0  0
    8.2345  -14.9971   19.9368 C   0  0  1  0  0  0  0  0  0  0  0  0
    8.3220  -13.5013   20.2615 C   0  0  0  0  0  0  0  0  0  0  0  0
    7.4534  -13.1951   21.8128 S   0  0  0  0  0  0  0  0  0  0  0  0
    8.6755  -15.8058   21.1075 C   0  0  0  0  0  0  0  0  0  0  0  0
    7.8404  -16.2374   21.9730 O   0  0  0  0  0  0  0  0  0  0  0  0
   10.0280  -16.1428   21.3324 N   0  0  0  0  0  0  0  0  0  0  0  0
   10.4315  -17.1136   22.3628 C   0  0  1  0  0  0  0  0  0  0  0  0
   11.8184  -17.5973   22.0586 C   0  0  0  0  0  0  0  0  0  0  0  0
   11.8627  -18.3839   20.7893 C   0  0  0  0  0  0  0  0  0  0  0  0
   13.2958  -18.8126   20.4994 C   0  0  0  0  0  0  0  0  0  0  0  0
   14.0530  -18.0101   19.8934 O   0  0  0  0  0  0  0  0  0  0  0  0
   10.2628  -16.4312   23.6590 C   0  0  0  0  0  0  0  0  0  0  0  0
   10.9180  -15.3620   23.8849 O   0  0  0  0  0  0  0  0  0  0  0  0
   13.7206  -20.0503   20.9021 O   0  0  0  0  0  0  0  0  0  0  0  0
    9.4128  -16.8538   24.7158 N   0  0  0  0  0  0  0  0  0  0  0  0
    9.4209  -16.1893   26.0324 C   0  0  1  0  0  0  0  0  0  0  0  0
    8.1140  -15.5565   26.3119 C   0  0  0  0  0  0  0  0  0  0  0  0
    8.0564  -14.1449   25.8097 C   0  0  0  0  0  0  0  0  0  0  0  0
    6.7274  -13.5272   26.2640 C   0  0  0  0  0  0  0  0  0  0  0  0
    6.6216  -12.1001   25.7691 C   0  0  0  0  0  0  0  0  0  0  0  0
    5.3818  -11.4792   26.1509 N   0  0  0  0  0  0  0  0  0  0  0  0
    9.8393  -17.1139   27.0799 C   0  0  0  0  0  0  0  0  0  0  0  0
   10.0105  -18.3628   26.8656 O   0  0  0  0  0  0  0  0  0  0  0  0
   10.0889  -16.7228   28.3801 O   0  0  0  0  0  0  0  0  0  0  0  0
  2  1  1  1
  3  2  1  0
  4  3  1  0
  5  2  1  0
  5  6  2  0
  7  5  1  0
  8  7  1  0
  9 10  1  0
  8  9  1  6
 10 11  1  0
 11 12  2  0
 11 15  1  0
 13  8  1  0
 14 13  2  0
 16 13  1  0
 17 16  1  0
 17 23  1  0
 17 18  1  1
 19 18  1  0
 20 19  1  0
 20 21  1  0
 22 21  1  0
 23 25  1  0
 24 23  2  0
M  END
$$$$
