CEK.pdb
     RDKit          3D

 25 24  0  0  1  0  0  0  0  0999 V2000
    5.2474  -13.3183   26.5766 N   0  0  0  0  0  0  0  0  0  0  0  0
    6.3170  -12.8348   25.7440 C   0  0  1  0  0  0  0  0  0  0  0  0
    7.3098  -12.1262   26.6728 C   0  0  0  0  0  0  0  0  0  0  0  0
    6.6687  -10.4846   27.0592 S   0  0  0  0  0  0  0  0  0  0  0  0
    6.9629  -14.0128   25.1006 C   0  0  0  0  0  0  0  0  0  0  0  0
    7.0896  -15.1244   25.7180 O   0  0  0  0  0  0  0  0  0  0  0  0
    7.4702  -13.9764   23.7835 N   0  0  0  0  0  0  0  0  0  0  0  0
    7.9578  -15.1851   23.0991 C   0  0  1  0  0  0  0  0  0  0  0  0
    8.0569  -14.9048   21.6289 C   0  0  0  0  0  0  0  0  0  0  0  0
    8.6281  -16.0662   20.8828 C   0  0  0  0  0  0  0  0  0  0  0  0
    8.6762  -15.7478   19.3936 C   0  0  0  0  0  0  0  0  0  0  0  0
    8.3387  -14.5962   19.0133 O   0  0  0  0  0  0  0  0  0  0  0  0
    9.2203  -15.5539   23.7658 C   0  0  0  0  0  0  0  0  0  0  0  0
   10.0295  -14.6323   24.1110 O   0  0  0  0  0  0  0  0  0  0  0  0
    9.0820  -16.7147   18.5132 O   0  0  0  0  0  0  0  0  0  0  0  0
    9.6395  -16.8747   24.0784 N   0  0  0  0  0  0  0  0  0  0  0  0
   10.8820  -17.1385   24.8278 C   0  0  1  0  0  0  0  0  0  0  0  0
   10.7750  -18.3943   25.6012 C   0  0  0  0  0  0  0  0  0  0  0  0
   12.0492  -18.7186   26.3217 C   0  0  0  0  0  0  0  0  0  0  0  0
   11.8594  -20.0517   27.0571 C   0  0  0  0  0  0  0  0  0  0  0  0
   13.0486  -20.3245   27.9539 C   0  0  0  0  0  0  0  0  0  0  0  0
   12.9391  -21.5838   28.6397 N   0  0  0  0  0  0  0  0  0  0  0  0
   12.0399  -17.1149   23.9412 C   0  0  0  0  0  0  0  0  0  0  0  0
   13.2093  -16.7944   24.3469 O   0  0  0  0  0  0  0  0  0  0  0  0
   11.9741  -17.4382   22.6006 O   0  0  0  0  0  0  0  0  0  0  0  0
  2  1  1  1
  3  2  1  0
  4  3  1  0
  5  2  1  0
  5  6  2  0
  7  5  1  0
  8  7  1  0
  9 10  1  0
  8  9  1  6
 10 11  1  0
 11 12  2  0
 11 15  1  0
 13  8  1  0
 14 13  2  0
 16 13  1  0
 17 16  1  0
 17 23  1  0
 17 18  1  6
 19 18  1  0
 20 19  1  0
 20 21  1  0
 22 21  1  0
 23 25  1  0
 24 23  2  0
M  END
$$$$
