CEK.pdb
     RDKit          3D

 25 24  0  0  1  0  0  0  0  0999 V2000
    8.2578  -14.3521   17.9938 N   0  0  0  0  0  0  0  0  0  0  0  0
    9.3237  -13.7016   18.7091 C   0  0  1  0  0  0  0  0  0  0  0  0
    8.7176  -13.1734   20.0146 C   0  0  0  0  0  0  0  0  0  0  0  0
    7.5286  -11.8763   19.6162 S   0  0  0  0  0  0  0  0  0  0  0  0
   10.3677  -14.7232   19.0012 C   0  0  0  0  0  0  0  0  0  0  0  0
   10.0693  -15.9553   19.1616 O   0  0  0  0  0  0  0  0  0  0  0  0
   11.7369  -14.3989   19.1181 N   0  0  0  0  0  0  0  0  0  0  0  0
   12.7658  -15.4236   19.3600 C   0  0  1  0  0  0  0  0  0  0  0  0
   13.9814  -15.0937   18.5455 C   0  0  0  0  0  0  0  0  0  0  0  0
   13.7765  -15.4019   17.0982 C   0  0  0  0  0  0  0  0  0  0  0  0
   15.0957  -15.2576   16.3495 C   0  0  0  0  0  0  0  0  0  0  0  0
   15.6236  -16.2886   15.8565 O   0  0  0  0  0  0  0  0  0  0  0  0
   12.9674  -15.4670   20.8200 C   0  0  0  0  0  0  0  0  0  0  0  0
   13.1895  -14.3797   21.4462 O   0  0  0  0  0  0  0  0  0  0  0  0
   15.6693  -14.0200   16.2327 O   0  0  0  0  0  0  0  0  0  0  0  0
   12.9334  -16.6342   21.6290 N   0  0  0  0  0  0  0  0  0  0  0  0
   13.0920  -16.5692   23.0938 C   0  0  1  0  0  0  0  0  0  0  0  0
   12.4937  -17.7558   23.7423 C   0  0  0  0  0  0  0  0  0  0  0  0
   12.6061  -17.6940   25.2361 C   0  0  0  0  0  0  0  0  0  0  0  0
   12.0860  -19.0175   25.8122 C   0  0  0  0  0  0  0  0  0  0  0  0
   12.0069  -18.9318   27.3219 C   0  0  0  0  0  0  0  0  0  0  0  0
   11.5759  -20.1675   27.9181 N   0  0  0  0  0  0  0  0  0  0  0  0
   14.4899  -16.3678   23.4579 C   0  0  0  0  0  0  0  0  0  0  0  0
   15.4547  -16.8567   22.7759 O   0  0  0  0  0  0  0  0  0  0  0  0
   14.8880  -15.6344   24.5577 O   0  0  0  0  0  0  0  0  0  0  0  0
  2  1  1  6
  3  2  1  0
  4  3  1  0
  5  2  1  0
  5  6  2  0
  7  5  1  0
  8  7  1  0
  9 10  1  0
  8  9  1  6
 10 11  1  0
 11 12  2  0
 11 15  1  0
 13  8  1  0
 14 13  2  0
 16 13  1  0
 17 16  1  0
 17 23  1  0
 17 18  1  1
 19 18  1  0
 20 19  1  0
 20 21  1  0
 22 21  1  0
 23 25  1  0
 24 23  2  0
M  END
$$$$
