CEK.pdb
     RDKit          3D

 25 24  0  0  1  0  0  0  0  0999 V2000
    7.5582  -14.2920   17.3410 N   0  0  0  0  0  0  0  0  0  0  0  0
    8.5484  -13.7478   18.2322 C   0  0  1  0  0  0  0  0  0  0  0  0
    7.8376  -12.6894   19.0838 C   0  0  0  0  0  0  0  0  0  0  0  0
    8.9683  -12.1314   20.3741 S   0  0  0  0  0  0  0  0  0  0  0  0
    9.0447  -14.8561   19.0949 C   0  0  0  0  0  0  0  0  0  0  0  0
    8.2688  -15.7892   19.4948 O   0  0  0  0  0  0  0  0  0  0  0  0
   10.3880  -14.9448   19.5204 N   0  0  0  0  0  0  0  0  0  0  0  0
   10.8726  -16.0566   20.3548 C   0  0  1  0  0  0  0  0  0  0  0  0
   12.2196  -16.4881   19.8554 C   0  0  0  0  0  0  0  0  0  0  0  0
   12.7796  -17.6056   20.6734 C   0  0  0  0  0  0  0  0  0  0  0  0
   14.1237  -18.0388   20.1012 C   0  0  0  0  0  0  0  0  0  0  0  0
   14.4864  -17.5655   18.9926 O   0  0  0  0  0  0  0  0  0  0  0  0
   10.8323  -15.5733   21.7473 C   0  0  0  0  0  0  0  0  0  0  0  0
   10.9925  -14.3300   21.9753 O   0  0  0  0  0  0  0  0  0  0  0  0
   14.8973  -18.9249   20.8018 O   0  0  0  0  0  0  0  0  0  0  0  0
   10.6209  -16.3768   22.8996 N   0  0  0  0  0  0  0  0  0  0  0  0
   10.1506  -15.8004   24.1731 C   0  0  1  0  0  0  0  0  0  0  0  0
    8.9042  -15.0300   23.9749 C   0  0  0  0  0  0  0  0  0  0  0  0
    8.4136  -14.4199   25.2536 C   0  0  0  0  0  0  0  0  0  0  0  0
    7.1719  -13.5758   24.9379 C   0  0  0  0  0  0  0  0  0  0  0  0
    6.6867  -12.8764   26.1902 C   0  0  0  0  0  0  0  0  0  0  0  0
    5.5273  -12.0610   25.9470 N   0  0  0  0  0  0  0  0  0  0  0  0
   10.0237  -16.8321   25.1962 C   0  0  0  0  0  0  0  0  0  0  0  0
    9.6838  -16.5674   26.4001 O   0  0  0  0  0  0  0  0  0  0  0  0
   10.2529  -18.1717   24.9537 O   0  0  0  0  0  0  0  0  0  0  0  0
  2  1  1  6
  3  2  1  0
  4  3  1  0
  5  2  1  0
  5  6  2  0
  7  5  1  0
  8  7  1  0
  9 10  1  0
  8  9  1  6
 10 11  1  0
 11 12  2  0
 11 15  1  0
 13  8  1  0
 14 13  2  0
 16 13  1  0
 17 16  1  0
 17 23  1  0
 17 18  1  6
 19 18  1  0
 20 19  1  0
 20 21  1  0
 22 21  1  0
 23 25  1  0
 24 23  2  0
M  END
$$$$
