CEK.pdb
     RDKit          3D

 25 24  0  0  1  0  0  0  0  0999 V2000
    6.9940  -14.5470   17.8889 N   0  0  0  0  0  0  0  0  0  0  0  0
    8.0203  -14.1417   18.8128 C   0  0  1  0  0  0  0  0  0  0  0  0
    7.3322  -13.2921   19.8876 C   0  0  0  0  0  0  0  0  0  0  0  0
    8.5956  -12.6022   20.9752 S   0  0  0  0  0  0  0  0  0  0  0  0
    8.5996  -15.3722   19.4203 C   0  0  0  0  0  0  0  0  0  0  0  0
    7.8552  -16.3017   19.8837 O   0  0  0  0  0  0  0  0  0  0  0  0
    9.9913  -15.5872   19.5215 N   0  0  0  0  0  0  0  0  0  0  0  0
   10.5530  -16.7914   20.1550 C   0  0  1  0  0  0  0  0  0  0  0  0
   11.4501  -17.4842   19.1726 C   0  0  0  0  0  0  0  0  0  0  0  0
   12.5741  -16.6030   18.7347 C   0  0  0  0  0  0  0  0  0  0  0  0
   13.3546  -17.2821   17.6161 C   0  0  0  0  0  0  0  0  0  0  0  0
   13.5362  -18.5262   17.6784 O   0  0  0  0  0  0  0  0  0  0  0  0
   11.1992  -16.3374   21.4003 C   0  0  0  0  0  0  0  0  0  0  0  0
   10.5389  -15.6066   22.2087 O   0  0  0  0  0  0  0  0  0  0  0  0
   13.8351  -16.5280   16.5793 O   0  0  0  0  0  0  0  0  0  0  0  0
   12.5246  -16.6451   21.8084 N   0  0  0  0  0  0  0  0  0  0  0  0
   12.8634  -16.8990   23.2211 C   0  0  1  0  0  0  0  0  0  0  0  0
   11.9283  -17.8750   23.8207 C   0  0  0  0  0  0  0  0  0  0  0  0
   12.3040  -18.2170   25.2313 C   0  0  0  0  0  0  0  0  0  0  0  0
   11.0299  -18.1979   26.0859 C   0  0  0  0  0  0  0  0  0  0  0  0
   11.3771  -18.4277   27.5417 C   0  0  0  0  0  0  0  0  0  0  0  0
   10.2425  -18.2556   28.4085 N   0  0  0  0  0  0  0  0  0  0  0  0
   14.2608  -17.2934   23.3588 C   0  0  0  0  0  0  0  0  0  0  0  0
   14.6825  -18.4545   23.0289 O   0  0  0  0  0  0  0  0  0  0  0  0
   15.2404  -16.4528   23.8484 O   0  0  0  0  0  0  0  0  0  0  0  0
  2  1  1  6
  3  2  1  0
  4  3  1  0
  5  2  1  0
  5  6  2  0
  7  5  1  0
  8  7  1  0
  9 10  1  0
  8  9  1  6
 10 11  1  0
 11 12  2  0
 11 15  1  0
 13  8  1  0
 14 13  2  0
 16 13  1  0
 17 16  1  0
 17 23  1  0
 17 18  1  6
 19 18  1  0
 20 19  1  0
 20 21  1  0
 22 21  1  0
 23 25  1  0
 24 23  2  0
M  END
$$$$
