GRA.pdb
     RDKit          3D

 21 20  0  0  1  0  0  0  0  0999 V2000
   11.0571  -19.0171   16.3084 N   0  0  0  0  0  0  0  0  0  0  0  0
    9.9143  -19.5685   16.9778 C   0  0  0  0  0  0  0  0  0  0  0  0
   10.0633  -19.2831   18.4455 C   0  0  0  0  0  0  0  0  0  0  0  0
   11.0828  -18.7378   18.9096 O   0  0  0  0  0  0  0  0  0  0  0  0
    6.9855  -16.6785   24.7643 N   0  0  0  0  0  0  0  0  0  0  0  0
    6.7091  -17.9764   25.2719 C   0  0  0  0  0  0  0  0  0  0  0  0
    7.2005  -18.3389   26.4186 N   0  0  0  0  0  0  0  0  0  0  0  0
    5.9051  -18.8821   24.5459 N   0  0  0  0  0  0  0  0  0  0  0  0
    6.0334  -18.9359   23.1117 C   0  0  0  0  0  0  0  0  0  0  0  0
    7.4814  -19.1071   22.7220 C   0  0  0  0  0  0  0  0  0  0  0  0
    7.6564  -19.2588   21.2500 C   0  0  0  0  0  0  0  0  0  0  0  0
    9.0639  -19.3466   20.7552 C   0  0  2  0  0  0  0  0  0  0  0  0
    9.0024  -19.6541   19.2992 N   0  0  0  0  0  0  0  0  0  0  0  0
    9.9177  -20.3497   21.3919 C   0  0  0  0  0  0  0  0  0  0  0  0
    9.7392  -21.5754   21.0430 O   0  0  0  0  0  0  0  0  0  0  0  0
    6.9991  -19.2847   26.8078 C   0  0  0  0  0  0  0  0  0  0  0  0
   13.2177  -21.0111   22.1752 C   0  0  1  0  0  0  0  0  0  0  0  0
   11.8525  -21.1661   22.7831 N   0  0  0  0  0  0  0  0  0  0  0  0
   10.9241  -20.1482   22.3461 C   0  0  0  0  0  0  0  0  0  0  0  0
   12.0035  -21.0657   24.2550 O   0  0  0  0  0  0  0  0  0  0  0  0
   12.6709  -21.9335   24.8533 O   0  0  0  0  0  0  0  0  0  0  0  0
  1  2  1  0
  2  3  1  0
  3  4  2  0
  6  8  1  0
  6  5  1  0
  7  6  2  0
  9 10  1  0
  9  8  1  0
 10 11  1  0
 12 11  1  1
 12 14  1  0
 13  3  1  0
 13 12  1  0
 14 18  1  0
 14 15  2  0
 17 16  1  6
 17 19  1  0
 18 17  1  0
 19 21  1  0
 20 19  2  0
M  END
$$$$
