GRA.pdb
     RDKit          3D

 21 20  0  0  1  0  0  0  0  0999 V2000
    3.9731  -21.1921   23.0312 N   0  0  0  0  0  0  0  0  0  0  0  0
    4.2922  -19.7992   23.1586 C   0  0  0  0  0  0  0  0  0  0  0  0
    5.6706  -19.5934   22.5970 C   0  0  0  0  0  0  0  0  0  0  0  0
    6.3216  -20.5280   22.0921 O   0  0  0  0  0  0  0  0  0  0  0  0
    7.2794  -12.1409   19.5665 N   0  0  0  0  0  0  0  0  0  0  0  0
    8.2147  -13.2105   19.5526 C   0  0  0  0  0  0  0  0  0  0  0  0
    9.1504  -13.2378   18.6519 N   0  0  0  0  0  0  0  0  0  0  0  0
    8.1421  -14.2485   20.5071 N   0  0  0  0  0  0  0  0  0  0  0  0
    7.0715  -14.2377   21.4715 C   0  0  0  0  0  0  0  0  0  0  0  0
    7.0385  -15.5414   22.2311 C   0  0  0  0  0  0  0  0  0  0  0  0
    7.4936  -16.6915   21.4000 C   0  0  0  0  0  0  0  0  0  0  0  0
    7.5659  -18.0174   22.0855 C   0  0  2  0  0  0  0  0  0  0  0  0
    6.2184  -18.2941   22.6565 N   0  0  0  0  0  0  0  0  0  0  0  0
    8.5466  -18.1415   23.1643 C   0  0  0  0  0  0  0  0  0  0  0  0
    8.1937  -17.7163   24.3264 O   0  0  0  0  0  0  0  0  0  0  0  0
    9.8350  -14.0233   18.6206 C   0  0  0  0  0  0  0  0  0  0  0  0
   11.6858  -19.9461   24.1055 C   0  0  1  0  0  0  0  0  0  0  0  0
   10.7371  -18.7873   24.2269 N   0  0  0  0  0  0  0  0  0  0  0  0
    9.8410  -18.6744   23.0986 C   0  0  0  0  0  0  0  0  0  0  0  0
   11.5500  -17.5496   24.3090 O   0  0  0  0  0  0  0  0  0  0  0  0
   11.4193  -16.6823   23.4218 O   0  0  0  0  0  0  0  0  0  0  0  0
  1  2  1  0
  2  3  1  0
  3  4  2  0
  6  8  1  0
  6  5  1  0
  7  6  2  0
  9 10  1  0
  9  8  1  0
 10 11  1  0
 12 11  1  1
 12 14  1  0
 13  3  1  0
 13 12  1  0
 14 18  1  0
 14 15  2  0
 17 16  1  1
 17 19  1  0
 18 17  1  0
 19 21  1  0
 20 19  2  0
M  END
$$$$
