GRA.pdb
     RDKit          3D

 21 20  0  0  1  0  0  0  0  0999 V2000
    7.2156  -12.3534   18.2052 N   0  0  0  0  0  0  0  0  0  0  0  0
    8.3718  -13.0545   18.6845 C   0  0  0  0  0  0  0  0  0  0  0  0
    7.9353  -13.9276   19.8268 C   0  0  0  0  0  0  0  0  0  0  0  0
    6.7927  -13.8474   20.3169 O   0  0  0  0  0  0  0  0  0  0  0  0
   11.6378  -19.7089   23.9605 N   0  0  0  0  0  0  0  0  0  0  0  0
   10.4712  -20.5197   23.9797 C   0  0  0  0  0  0  0  0  0  0  0  0
   10.3257  -21.4192   24.9057 N   0  0  0  0  0  0  0  0  0  0  0  0
    9.4634  -20.3619   23.0034 N   0  0  0  0  0  0  0  0  0  0  0  0
    9.6576  -19.4008   21.9474 C   0  0  0  0  0  0  0  0  0  0  0  0
    9.0276  -18.0807   22.3192 C   0  0  0  0  0  0  0  0  0  0  0  0
    9.1950  -17.0541   21.2522 C   0  0  0  0  0  0  0  0  0  0  0  0
    8.4945  -15.7520   21.4690 C   0  0  2  0  0  0  0  0  0  0  0  0
    8.8669  -14.8559   20.3391 N   0  0  0  0  0  0  0  0  0  0  0  0
    8.7932  -15.0505   22.7177 C   0  0  0  0  0  0  0  0  0  0  0  0
    9.9858  -14.5875   22.8569 O   0  0  0  0  0  0  0  0  0  0  0  0
    9.4733  -22.0186   24.9348 C   0  0  0  0  0  0  0  0  0  0  0  0
    7.1570  -13.4050   25.6589 C   0  0  1  0  0  0  0  0  0  0  0  0
    8.3153  -14.1002   25.0010 N   0  0  0  0  0  0  0  0  0  0  0  0
    7.9363  -14.8093   23.8000 C   0  0  0  0  0  0  0  0  0  0  0  0
    8.8616  -15.0779   25.9731 O   0  0  0  0  0  0  0  0  0  0  0  0
    8.8320  -16.2923   25.6885 O   0  0  0  0  0  0  0  0  0  0  0  0
  1  2  1  0
  2  3  1  0
  3  4  2  0
  6  8  1  0
  6  5  1  0
  7  6  2  0
  9 10  1  0
  9  8  1  0
 10 11  1  0
 12 11  1  6
 12 14  1  0
 13  3  1  0
 13 12  1  0
 14 18  1  0
 14 15  2  0
 17 16  1  6
 17 19  1  0
 18 17  1  0
 19 21  1  0
 20 19  2  0
M  END
$$$$
