GRA.pdb
     RDKit          3D

 21 20  0  0  1  0  0  0  0  0999 V2000
    7.2196  -12.9807   18.7778 N   0  0  0  0  0  0  0  0  0  0  0  0
    8.3007  -13.5258   19.5474 C   0  0  0  0  0  0  0  0  0  0  0  0
    7.7314  -14.0233   20.8459 C   0  0  0  0  0  0  0  0  0  0  0  0
    6.5420  -13.8276   21.1607 O   0  0  0  0  0  0  0  0  0  0  0  0
    8.3643  -20.8476   25.0056 N   0  0  0  0  0  0  0  0  0  0  0  0
    7.3011  -20.2380   25.7245 C   0  0  0  0  0  0  0  0  0  0  0  0
    6.5009  -20.9714   26.4384 N   0  0  0  0  0  0  0  0  0  0  0  0
    7.1002  -18.8413   25.6747 N   0  0  0  0  0  0  0  0  0  0  0  0
    7.2979  -18.1508   24.4254 C   0  0  0  0  0  0  0  0  0  0  0  0
    8.5481  -17.3075   24.4860 C   0  0  0  0  0  0  0  0  0  0  0  0
    8.8178  -16.6035   23.2007 C   0  0  0  0  0  0  0  0  0  0  0  0
    8.0649  -15.3334   22.9696 C   0  0  2  0  0  0  0  0  0  0  0  0
    8.5914  -14.7294   21.7141 N   0  0  0  0  0  0  0  0  0  0  0  0
    8.1491  -14.3239   24.0252 C   0  0  0  0  0  0  0  0  0  0  0  0
    9.3076  -13.8123   24.2534 O   0  0  0  0  0  0  0  0  0  0  0  0
    5.7362  -20.5351   26.9964 C   0  0  0  0  0  0  0  0  0  0  0  0
    6.0061  -12.3654   26.4634 C   0  0  1  0  0  0  0  0  0  0  0  0
    7.3028  -12.8924   25.9172 N   0  0  0  0  0  0  0  0  0  0  0  0
    7.1160  -13.8295   24.8328 C   0  0  0  0  0  0  0  0  0  0  0  0
    8.0060  -13.5858   27.0236 O   0  0  0  0  0  0  0  0  0  0  0  0
    8.1096  -14.8286   26.9873 O   0  0  0  0  0  0  0  0  0  0  0  0
  1  2  1  0
  2  3  1  0
  3  4  2  0
  6  8  1  0
  6  5  1  0
  7  6  2  0
  9 10  1  0
  9  8  1  0
 10 11  1  0
 12 11  1  1
 12 14  1  0
 13  3  1  0
 13 12  1  0
 14 18  1  0
 14 15  2  0
 17 16  1  6
 17 19  1  0
 18 17  1  0
 19 21  1  0
 20 19  2  0
M  END
$$$$
