GRA.pdb
     RDKit          3D

 21 20  0  0  1  0  0  0  0  0999 V2000
    7.4281  -12.7538   19.0089 N   0  0  0  0  0  0  0  0  0  0  0  0
    8.3133  -13.6541   19.6902 C   0  0  0  0  0  0  0  0  0  0  0  0
    7.6677  -14.0296   20.9940 C   0  0  0  0  0  0  0  0  0  0  0  0
    6.6291  -13.4728   21.3984 O   0  0  0  0  0  0  0  0  0  0  0  0
    8.2196  -20.2345   25.7675 N   0  0  0  0  0  0  0  0  0  0  0  0
    7.2752  -19.4772   26.5114 C   0  0  0  0  0  0  0  0  0  0  0  0
    7.4178  -19.3509   27.7965 N   0  0  0  0  0  0  0  0  0  0  0  0
    6.1794  -18.8571   25.8723 N   0  0  0  0  0  0  0  0  0  0  0  0
    6.3538  -18.3259   24.5442 C   0  0  0  0  0  0  0  0  0  0  0  0
    7.6932  -17.6404   24.4268 C   0  0  0  0  0  0  0  0  0  0  0  0
    7.8897  -17.0088   23.0915 C   0  0  0  0  0  0  0  0  0  0  0  0
    7.6281  -15.5398   23.0078 C   0  0  2  0  0  0  0  0  0  0  0  0
    8.2768  -15.0453   21.7616 N   0  0  0  0  0  0  0  0  0  0  0  0
    8.1142  -14.7261   24.1223 C   0  0  0  0  0  0  0  0  0  0  0  0
    9.3885  -14.5819   24.2282 O   0  0  0  0  0  0  0  0  0  0  0  0
    6.7382  -18.7907   28.3540 C   0  0  0  0  0  0  0  0  0  0  0  0
    6.9317  -12.3000   26.7546 C   0  0  1  0  0  0  0  0  0  0  0  0
    7.9258  -13.2566   26.1595 N   0  0  0  0  0  0  0  0  0  0  0  0
    7.3621  -14.0689   25.1052 C   0  0  0  0  0  0  0  0  0  0  0  0
    8.3918  -14.1518   27.2462 O   0  0  0  0  0  0  0  0  0  0  0  0
    8.0809  -15.3594   27.2079 O   0  0  0  0  0  0  0  0  0  0  0  0
  1  2  1  0
  2  3  1  0
  3  4  2  0
  6  8  1  0
  6  5  1  0
  7  6  2  0
  9 10  1  0
  9  8  1  0
 10 11  1  0
 12 11  1  1
 12 14  1  0
 13  3  1  0
 13 12  1  0
 14 18  1  0
 14 15  2  0
 17 16  1  6
 17 19  1  0
 18 17  1  0
 19 21  1  0
 20 19  2  0
M  END
$$$$
