GRA.pdb
     RDKit          3D

 21 20  0  0  1  0  0  0  0  0999 V2000
    5.0087  -22.3457   23.0706 N   0  0  0  0  0  0  0  0  0  0  0  0
    4.5670  -20.9820   23.1300 C   0  0  0  0  0  0  0  0  0  0  0  0
    5.7854  -20.1130   23.2643 C   0  0  0  0  0  0  0  0  0  0  0  0
    6.9215  -20.5948   23.4355 O   0  0  0  0  0  0  0  0  0  0  0  0
    9.3139  -11.8916   20.3463 N   0  0  0  0  0  0  0  0  0  0  0  0
    8.4159  -12.9760   20.1551 C   0  0  0  0  0  0  0  0  0  0  0  0
    7.3538  -12.8132   19.4248 N   0  0  0  0  0  0  0  0  0  0  0  0
    8.6613  -14.2331   20.7493 N   0  0  0  0  0  0  0  0  0  0  0  0
    7.5584  -15.1386   20.9501 C   0  0  0  0  0  0  0  0  0  0  0  0
    7.4345  -15.4961   22.4111 C   0  0  0  0  0  0  0  0  0  0  0  0
    6.3559  -16.4940   22.6593 C   0  0  0  0  0  0  0  0  0  0  0  0
    6.7840  -17.8022   23.2413 C   0  0  2  0  0  0  0  0  0  0  0  0
    5.6081  -18.7148   23.1904 N   0  0  0  0  0  0  0  0  0  0  0  0
    7.2733  -17.7740   24.6199 C   0  0  0  0  0  0  0  0  0  0  0  0
    6.4284  -17.4449   25.5330 O   0  0  0  0  0  0  0  0  0  0  0  0
    6.7311  -13.6199   19.2055 C   0  0  0  0  0  0  0  0  0  0  0  0
    9.4210  -19.3436   27.0003 C   0  0  1  0  0  0  0  0  0  0  0  0
    8.9616  -18.0134   26.4738 N   0  0  0  0  0  0  0  0  0  0  0  0
    8.5622  -18.0662   25.0858 C   0  0  0  0  0  0  0  0  0  0  0  0
   10.0946  -17.0652   26.6026 O   0  0  0  0  0  0  0  0  0  0  0  0
   10.5429  -16.5180   25.5749 O   0  0  0  0  0  0  0  0  0  0  0  0
  1  2  1  0
  2  3  1  0
  3  4  2  0
  6  8  1  0
  6  5  1  0
  7  6  2  0
  9 10  1  0
  9  8  1  0
 10 11  1  0
 12 11  1  1
 12 14  1  0
 13  3  1  0
 13 12  1  0
 14 18  1  0
 14 15  2  0
 17 16  1  1
 17 19  1  0
 18 17  1  0
 19 21  1  0
 20 19  2  0
M  END
$$$$
