GRA.pdb
     RDKit          3D

 21 20  0  0  1  0  0  0  0  0999 V2000
    7.4734  -13.3824   19.2119 N   0  0  0  0  0  0  0  0  0  0  0  0
    8.3702  -14.2137   19.9624 C   0  0  0  0  0  0  0  0  0  0  0  0
    7.7282  -14.4940   21.2917 C   0  0  0  0  0  0  0  0  0  0  0  0
    6.6722  -13.9343   21.6434 O   0  0  0  0  0  0  0  0  0  0  0  0
    7.2046  -21.8400   26.0578 N   0  0  0  0  0  0  0  0  0  0  0  0
    6.2818  -21.4780   25.0398 C   0  0  0  0  0  0  0  0  0  0  0  0
    5.0631  -21.9256   25.0847 N   0  0  0  0  0  0  0  0  0  0  0  0
    6.6711  -20.6356   23.9755 N   0  0  0  0  0  0  0  0  0  0  0  0
    7.6319  -19.5914   24.2261 C   0  0  0  0  0  0  0  0  0  0  0  0
    7.2084  -18.3153   23.5405 C   0  0  0  0  0  0  0  0  0  0  0  0
    8.1931  -17.2143   23.7373 C   0  0  0  0  0  0  0  0  0  0  0  0
    7.7154  -15.8336   23.4232 C   0  0  2  0  0  0  0  0  0  0  0  0
    8.3616  -15.4220   22.1459 N   0  0  0  0  0  0  0  0  0  0  0  0
    7.9963  -14.8029   24.4229 C   0  0  0  0  0  0  0  0  0  0  0  0
    9.2257  -14.4534   24.5722 O   0  0  0  0  0  0  0  0  0  0  0  0
    4.3500  -21.5948   24.4001 C   0  0  0  0  0  0  0  0  0  0  0  0
    6.2827  -12.3439   26.7317 C   0  0  1  0  0  0  0  0  0  0  0  0
    7.4560  -13.1421   26.2381 N   0  0  0  0  0  0  0  0  0  0  0  0
    7.0870  -14.1320   25.2517 C   0  0  0  0  0  0  0  0  0  0  0  0
    8.0474  -13.8385   27.4063 O   0  0  0  0  0  0  0  0  0  0  0  0
    7.9981  -15.0842   27.4544 O   0  0  0  0  0  0  0  0  0  0  0  0
  1  2  1  0
  2  3  1  0
  3  4  2  0
  6  8  1  0
  6  5  1  0
  7  6  2  0
  9 10  1  0
  9  8  1  0
 10 11  1  0
 12 11  1  1
 12 14  1  0
 13  3  1  0
 13 12  1  0
 14 18  1  0
 14 15  2  0
 17 16  1  6
 17 19  1  0
 18 17  1  0
 19 21  1  0
 20 19  2  0
M  END
$$$$
