GRA.pdb
     RDKit          3D

 21 20  0  0  1  0  0  0  0  0999 V2000
    2.7222  -20.1353   21.2814 N   0  0  0  0  0  0  0  0  0  0  0  0
    2.9158  -18.8287   21.8413 C   0  0  0  0  0  0  0  0  0  0  0  0
    4.3938  -18.5595   21.8719 C   0  0  0  0  0  0  0  0  0  0  0  0
    5.2268  -19.4220   21.5337 O   0  0  0  0  0  0  0  0  0  0  0  0
    8.2920  -12.3349   18.4401 N   0  0  0  0  0  0  0  0  0  0  0  0
    8.5373  -13.7344   18.4553 C   0  0  0  0  0  0  0  0  0  0  0  0
    8.9144  -14.3353   17.3670 N   0  0  0  0  0  0  0  0  0  0  0  0
    8.3768  -14.4850   19.6404 N   0  0  0  0  0  0  0  0  0  0  0  0
    7.7733  -13.8577   20.7888 C   0  0  0  0  0  0  0  0  0  0  0  0
    7.6889  -14.8357   21.9352 C   0  0  0  0  0  0  0  0  0  0  0  0
    6.3279  -15.4259   22.0755 C   0  0  0  0  0  0  0  0  0  0  0  0
    6.2620  -16.9108   22.2314 C   0  0  2  0  0  0  0  0  0  0  0  0
    4.8219  -17.2847   22.3003 N   0  0  0  0  0  0  0  0  0  0  0  0
    6.9304  -17.4738   23.4049 C   0  0  0  0  0  0  0  0  0  0  0  0
    6.4283  -17.1904   24.5553 O   0  0  0  0  0  0  0  0  0  0  0  0
    9.0954  -15.3618   17.3623 C   0  0  0  0  0  0  0  0  0  0  0  0
    8.2244  -20.1986   24.9899 C   0  0  1  0  0  0  0  0  0  0  0  0
    8.6679  -18.8029   24.6536 N   0  0  0  0  0  0  0  0  0  0  0  0
    8.0632  -18.2979   23.4419 C   0  0  0  0  0  0  0  0  0  0  0  0
   10.1391  -18.8326   24.4693 O   0  0  0  0  0  0  0  0  0  0  0  0
   10.6165  -18.4827   23.3711 O   0  0  0  0  0  0  0  0  0  0  0  0
  1  2  1  0
  2  3  1  0
  3  4  2  0
  6  8  1  0
  6  5  1  0
  7  6  2  0
  9 10  1  0
  9  8  1  0
 10 11  1  0
 12 11  1  1
 12 14  1  0
 13  3  1  0
 13 12  1  0
 14 18  1  0
 14 15  2  0
 17 16  1  1
 17 19  1  0
 18 17  1  0
 19 21  1  0
 20 19  2  0
M  END
$$$$
