GRA.pdb
     RDKit          3D

 21 20  0  0  1  0  0  0  0  0999 V2000
    8.7264  -12.1214   18.7476 N   0  0  0  0  0  0  0  0  0  0  0  0
    8.8296  -13.5456   18.8864 C   0  0  0  0  0  0  0  0  0  0  0  0
    8.0443  -13.9437   20.1040 C   0  0  0  0  0  0  0  0  0  0  0  0
    7.5371  -13.0980   20.8653 O   0  0  0  0  0  0  0  0  0  0  0  0
    1.5151  -19.7648   22.7577 N   0  0  0  0  0  0  0  0  0  0  0  0
    2.5760  -19.5477   21.8378 C   0  0  0  0  0  0  0  0  0  0  0  0
    2.3079  -19.2841   20.5943 N   0  0  0  0  0  0  0  0  0  0  0  0
    3.9228  -19.6143   22.2566 N   0  0  0  0  0  0  0  0  0  0  0  0
    4.9493  -19.0824   21.3964 C   0  0  0  0  0  0  0  0  0  0  0  0
    5.3617  -17.7075   21.8625 C   0  0  0  0  0  0  0  0  0  0  0  0
    6.4274  -17.1161   21.0050 C   0  0  0  0  0  0  0  0  0  0  0  0
    6.9613  -15.7874   21.4327 C   0  0  2  0  0  0  0  0  0  0  0  0
    7.8931  -15.3219   20.3681 N   0  0  0  0  0  0  0  0  0  0  0  0
    7.6794  -15.7524   22.7070 C   0  0  0  0  0  0  0  0  0  0  0  0
    8.8998  -16.1604   22.7013 O   0  0  0  0  0  0  0  0  0  0  0  0
    3.0739  -19.0786   19.9177 C   0  0  0  0  0  0  0  0  0  0  0  0
    7.5087  -14.2373   26.1370 C   0  0  1  0  0  0  0  0  0  0  0  0
    8.0078  -15.2593   25.1552 N   0  0  0  0  0  0  0  0  0  0  0  0
    7.2063  -15.3228   23.9541 C   0  0  0  0  0  0  0  0  0  0  0  0
    7.9613  -16.5824   25.8234 O   0  0  0  0  0  0  0  0  0  0  0  0
    7.1425  -17.4332   25.4205 O   0  0  0  0  0  0  0  0  0  0  0  0
  1  2  1  0
  2  3  1  0
  3  4  2  0
  6  8  1  0
  6  5  1  0
  7  6  2  0
  9 10  1  0
  9  8  1  0
 10 11  1  0
 12 11  1  6
 12 14  1  0
 13  3  1  0
 13 12  1  0
 14 18  1  0
 14 15  2  0
 17 16  1  6
 17 19  1  0
 18 17  1  0
 19 21  1  0
 20 19  2  0
M  END
$$$$
