IFE.pdb
     RDKit          3D

 29 29  0  0  1  0  0  0  0  0999 V2000
   21.1625  -38.6975  -12.1321 C   0  0  0  0  0  0  0  0  0  0  0  0
   21.1232  -37.2105  -12.0882 C   0  0  0  0  0  0  0  0  0  0  0  0
   22.2673  -36.5669  -11.3488 C   0  0  2  0  0  0  0  0  0  0  0  0
   22.4539  -37.0760   -9.9599 C   0  0  0  0  0  0  0  0  0  0  0  0
   22.0008  -35.0786  -11.2845 C   0  0  2  0  0  0  0  0  0  0  0  0
   22.4266  -34.5245  -12.5551 N   0  0  0  0  0  0  0  0  0  0  0  0
   22.7030  -34.4197  -10.1446 C   0  0  0  0  0  0  0  0  0  0  0  0
   23.9097  -34.0987  -10.2728 O   0  0  0  0  0  0  0  0  0  0  0  0
   22.0564  -34.1436   -8.9232 N   0  0  0  0  0  0  0  0  0  0  0  0
   22.5932  -33.4620   -7.8004 C   0  0  1  0  0  0  0  0  0  0  0  0
   21.8976  -32.2065   -7.4264 C   0  0  0  0  0  0  0  0  0  0  0  0
   21.9877  -31.1366   -8.4182 C   0  0  0  0  0  0  0  0  0  0  0  0
   23.1607  -30.4524   -8.6499 C   0  0  0  0  0  0  0  0  0  0  0  0
   23.2315  -29.4348   -9.5986 C   0  0  0  0  0  0  0  0  0  0  0  0
   22.1232  -29.0829  -10.3355 C   0  0  0  0  0  0  0  0  0  0  0  0
   20.9441  -29.7605  -10.1122 C   0  0  0  0  0  0  0  0  0  0  0  0
   20.8855  -30.7785   -9.1587 C   0  0  0  0  0  0  0  0  0  0  0  0
   22.6545  -34.3529   -6.5835 C   0  0  0  0  0  0  0  0  0  0  0  0
   21.7603  -35.1842   -6.2947 O   0  0  0  0  0  0  0  0  0  0  0  0
   23.7494  -34.2975   -5.6832 N   0  0  0  0  0  0  0  0  0  0  0  0
   23.8851  -35.2624   -4.5756 C   0  0  1  0  0  0  0  0  0  0  0  0
   25.2440  -35.1750   -3.9676 C   0  0  0  0  0  0  0  0  0  0  0  0
   25.5455  -36.1535   -2.8908 C   0  0  0  0  0  0  0  0  0  0  0  0
   26.8457  -35.9099   -2.2280 C   0  0  0  0  0  0  0  0  0  0  0  0
   27.9376  -35.7445   -2.8266 O   0  0  0  0  0  0  0  0  0  0  0  0
   22.8756  -34.8779   -3.5614 C   0  0  0  0  0  0  0  0  0  0  0  0
   22.4406  -35.7187   -2.5383 O   0  0  0  0  0  0  0  0  0  0  0  0
   26.9116  -35.8515   -0.8386 O   0  0  0  0  0  0  0  0  0  0  0  0
   22.3568  -33.7345   -3.5919 O   0  0  0  0  0  0  0  0  0  0  0  0
  2  1  1  0
  3  2  1  0
  3  4  1  1
  5  3  1  0
  5  6  1  6
  7  5  1  0
  7  8  2  0
  9  7  1  0
 10  9  1  0
 10 11  1  1
 12 11  1  0
 12 17  2  0
 13 12  1  0
 14 13  2  0
 14 15  1  0
 15 16  2  0
 16 17  1  0
 18 10  1  0
 19 18  2  0
 20 18  1  0
 21 20  1  0
 21 26  1  0
 21 22  1  1
 23 22  1  0
 23 24  1  0
 24 25  2  0
 26 27  1  0
 28 24  1  0
 29 26  2  0
M  END
$$$$
