IFE.pdb
     RDKit          3D

 29 29  0  0  1  0  0  0  0  0999 V2000
   15.1021  -13.5528  -18.2600 C   0  0  0  0  0  0  0  0  0  0  0  0
   16.5258  -13.9274  -18.4778 C   0  0  0  0  0  0  0  0  0  0  0  0
   17.5243  -13.0986  -17.7125 C   0  0  2  0  0  0  0  0  0  0  0  0
   17.5401  -11.6588  -18.0996 C   0  0  0  0  0  0  0  0  0  0  0  0
   18.8993  -13.6795  -17.9620 C   0  0  2  0  0  0  0  0  0  0  0  0
   18.8015  -15.1038  -17.7081 N   0  0  0  0  0  0  0  0  0  0  0  0
   19.9505  -13.0493  -17.1109 C   0  0  0  0  0  0  0  0  0  0  0  0
   19.7591  -12.9523  -15.8740 O   0  0  0  0  0  0  0  0  0  0  0  0
   21.1564  -12.5567  -17.6487 N   0  0  0  0  0  0  0  0  0  0  0  0
   22.1275  -11.7565  -16.9930 C   0  0  1  0  0  0  0  0  0  0  0  0
   23.5380  -12.0556  -17.3410 C   0  0  0  0  0  0  0  0  0  0  0  0
   24.5281  -11.2322  -16.6497 C   0  0  0  0  0  0  0  0  0  0  0  0
   25.0774  -10.1096  -17.2294 C   0  0  0  0  0  0  0  0  0  0  0  0
   26.0203   -9.3343  -16.5583 C   0  0  0  0  0  0  0  0  0  0  0  0
   26.4315   -9.6714  -15.2885 C   0  0  0  0  0  0  0  0  0  0  0  0
   25.8889  -10.7924  -14.6984 C   0  0  0  0  0  0  0  0  0  0  0  0
   24.9447  -11.5615  -15.3810 C   0  0  0  0  0  0  0  0  0  0  0  0
   21.8832  -10.2844  -17.2196 C   0  0  0  0  0  0  0  0  0  0  0  0
   21.8111   -9.7674  -18.3604 O   0  0  0  0  0  0  0  0  0  0  0  0
   21.7177   -9.3882  -16.1324 N   0  0  0  0  0  0  0  0  0  0  0  0
   21.4757   -7.9494  -16.3506 C   0  0  1  0  0  0  0  0  0  0  0  0
   20.0175   -7.6459  -16.2768 C   0  0  0  0  0  0  0  0  0  0  0  0
   19.6347   -6.2198  -16.4424 C   0  0  0  0  0  0  0  0  0  0  0  0
   18.1748   -5.9937  -16.3588 C   0  0  0  0  0  0  0  0  0  0  0  0
   17.3178   -6.8935  -16.1744 O   0  0  0  0  0  0  0  0  0  0  0  0
   22.1741   -7.2380  -15.2544 C   0  0  0  0  0  0  0  0  0  0  0  0
   22.6332   -5.9252  -15.3466 O   0  0  0  0  0  0  0  0  0  0  0  0
   17.6678   -4.7037  -16.4884 O   0  0  0  0  0  0  0  0  0  0  0  0
   22.3847   -7.8190  -14.1610 O   0  0  0  0  0  0  0  0  0  0  0  0
  2  1  1  0
  3  2  1  0
  3  4  1  6
  5  3  1  0
  5  6  1  1
  7  5  1  0
  7  8  2  0
  9  7  1  0
 10  9  1  0
 10 11  1  6
 12 11  1  0
 12 17  2  0
 13 12  1  0
 14 13  2  0
 14 15  1  0
 15 16  2  0
 16 17  1  0
 18 10  1  0
 19 18  2  0
 20 18  1  0
 21 20  1  0
 21 26  1  0
 21 22  1  1
 23 22  1  0
 23 24  1  0
 24 25  2  0
 26 27  1  0
 28 24  1  0
 29 26  2  0
M  END
$$$$
