IFE.pdb
     RDKit          3D

 29 29  0  0  1  0  0  0  0  0999 V2000
   28.3257  -17.0084  -17.1162 C   0  0  0  0  0  0  0  0  0  0  0  0
   28.5866  -18.1646  -16.2164 C   0  0  0  0  0  0  0  0  0  0  0  0
   27.3608  -18.7535  -15.5680 C   0  0  2  0  0  0  0  0  0  0  0  0
   26.7263  -17.8649  -14.5526 C   0  0  0  0  0  0  0  0  0  0  0  0
   27.7675  -20.0446  -14.8913 C   0  0  2  0  0  0  0  0  0  0  0  0
   28.4561  -20.8388  -15.8901 N   0  0  0  0  0  0  0  0  0  0  0  0
   26.6035  -20.7838  -14.3208 C   0  0  0  0  0  0  0  0  0  0  0  0
   25.7662  -21.3011  -15.0999 O   0  0  0  0  0  0  0  0  0  0  0  0
   26.4098  -20.9223  -12.9319 N   0  0  0  0  0  0  0  0  0  0  0  0
   25.3154  -21.5402  -12.2731 C   0  0  1  0  0  0  0  0  0  0  0  0
   25.6291  -22.1583  -10.9618 C   0  0  0  0  0  0  0  0  0  0  0  0
   26.2286  -21.2519   -9.9843 C   0  0  0  0  0  0  0  0  0  0  0  0
   27.5918  -21.1727   -9.8018 C   0  0  0  0  0  0  0  0  0  0  0  0
   28.1491  -20.3040   -8.8662 C   0  0  0  0  0  0  0  0  0  0  0  0
   27.3467  -19.4954   -8.0932 C   0  0  0  0  0  0  0  0  0  0  0  0
   25.9814  -19.5661   -8.2670 C   0  0  0  0  0  0  0  0  0  0  0  0
   25.4347  -20.4407   -9.2078 C   0  0  0  0  0  0  0  0  0  0  0  0
   24.1642  -20.5823  -12.0847 C   0  0  0  0  0  0  0  0  0  0  0  0
   24.2811  -19.4714  -11.5135 O   0  0  0  0  0  0  0  0  0  0  0  0
   22.8619  -20.8927  -12.5539 N   0  0  0  0  0  0  0  0  0  0  0  0
   21.7418  -19.9452  -12.3995 C   0  0  1  0  0  0  0  0  0  0  0  0
   21.6694  -19.0239  -13.5700 C   0  0  0  0  0  0  0  0  0  0  0  0
   21.7834  -19.6553  -14.9102 C   0  0  0  0  0  0  0  0  0  0  0  0
   21.0432  -18.9263  -15.9638 C   0  0  0  0  0  0  0  0  0  0  0  0
   20.3466  -17.8986  -15.7724 O   0  0  0  0  0  0  0  0  0  0  0  0
   20.5073  -20.7632  -12.3505 C   0  0  0  0  0  0  0  0  0  0  0  0
   19.2447  -20.2504  -12.0574 O   0  0  0  0  0  0  0  0  0  0  0  0
   21.0937  -19.3769  -17.2801 O   0  0  0  0  0  0  0  0  0  0  0  0
   20.5602  -21.9968  -12.5803 O   0  0  0  0  0  0  0  0  0  0  0  0
  2  1  1  0
  3  2  1  0
  3  4  1  1
  5  3  1  0
  5  6  1  6
  7  5  1  0
  7  8  2  0
  9  7  1  0
 10  9  1  0
 10 11  1  1
 12 11  1  0
 12 17  2  0
 13 12  1  0
 14 13  2  0
 14 15  1  0
 15 16  2  0
 16 17  1  0
 18 10  1  0
 19 18  2  0
 20 18  1  0
 21 20  1  0
 21 26  1  0
 21 22  1  6
 23 22  1  0
 23 24  1  0
 24 25  2  0
 26 27  1  0
 28 24  1  0
 29 26  2  0
M  END
$$$$
