IFE.pdb
     RDKit          3D

 29 29  0  0  1  0  0  0  0  0999 V2000
   10.7051  -22.6736    2.0360 C   0  0  0  0  0  0  0  0  0  0  0  0
   11.6588  -21.8544    1.2398 C   0  0  0  0  0  0  0  0  0  0  0  0
   13.0614  -21.8022    1.7873 C   0  0  2  0  0  0  0  0  0  0  0  0
   13.1610  -21.1841    3.1406 C   0  0  0  0  0  0  0  0  0  0  0  0
   13.9062  -20.9949    0.8257 C   0  0  2  0  0  0  0  0  0  0  0  0
   13.8268  -21.6623   -0.4591 N   0  0  0  0  0  0  0  0  0  0  0  0
   15.3215  -20.8616    1.2794 C   0  0  0  0  0  0  0  0  0  0  0  0
   16.1123  -21.8210    1.1060 O   0  0  0  0  0  0  0  0  0  0  0  0
   15.8043  -19.6914    1.8987 N   0  0  0  0  0  0  0  0  0  0  0  0
   17.1281  -19.4355    2.3411 C   0  0  1  0  0  0  0  0  0  0  0  0
   17.6022  -18.0423    2.1563 C   0  0  0  0  0  0  0  0  0  0  0  0
   19.0169  -17.8309    2.4567 C   0  0  0  0  0  0  0  0  0  0  0  0
   20.0055  -18.0812    1.5305 C   0  0  0  0  0  0  0  0  0  0  0  0
   21.3500  -17.8749    1.8311 C   0  0  0  0  0  0  0  0  0  0  0  0
   21.7297  -17.4120    3.0707 C   0  0  0  0  0  0  0  0  0  0  0  0
   20.7492  -17.1582    4.0054 C   0  0  0  0  0  0  0  0  0  0  0  0
   19.4052  -17.3688    3.6924 C   0  0  0  0  0  0  0  0  0  0  0  0
   17.3153  -19.8138    3.7903 C   0  0  0  0  0  0  0  0  0  0  0  0
   16.5333  -19.4509    4.7018 O   0  0  0  0  0  0  0  0  0  0  0  0
   18.4074  -20.6172    4.2078 N   0  0  0  0  0  0  0  0  0  0  0  0
   18.5775  -21.0121    5.6189 C   0  0  1  0  0  0  0  0  0  0  0  0
   19.1221  -22.3972    5.7137 C   0  0  0  0  0  0  0  0  0  0  0  0
   19.3944  -22.9031    7.0840 C   0  0  0  0  0  0  0  0  0  0  0  0
   19.8531  -24.3096    7.1066 C   0  0  0  0  0  0  0  0  0  0  0  0
   20.0546  -25.0161    6.0877 O   0  0  0  0  0  0  0  0  0  0  0  0
   19.5576  -20.0659    6.2016 C   0  0  0  0  0  0  0  0  0  0  0  0
   19.3561  -19.3722    7.3937 O   0  0  0  0  0  0  0  0  0  0  0  0
   20.0920  -24.9380    8.3257 O   0  0  0  0  0  0  0  0  0  0  0  0
   20.6471  -19.8483    5.6158 O   0  0  0  0  0  0  0  0  0  0  0  0
  2  1  1  0
  3  2  1  0
  3  4  1  1
  5  3  1  0
  5  6  1  6
  7  5  1  0
  7  8  2  0
  9  7  1  0
 10  9  1  0
 10 11  1  1
 12 11  1  0
 12 17  2  0
 13 12  1  0
 14 13  2  0
 14 15  1  0
 15 16  2  0
 16 17  1  0
 18 10  1  0
 19 18  2  0
 20 18  1  0
 21 20  1  0
 21 26  1  0
 21 22  1  6
 23 22  1  0
 23 24  1  0
 24 25  2  0
 26 27  1  0
 28 24  1  0
 29 26  2  0
M  END
$$$$
