IFE.pdb
     RDKit          3D

 29 29  0  0  1  0  0  0  0  0999 V2000
   18.7557  -10.3484  -21.6465 C   0  0  0  0  0  0  0  0  0  0  0  0
   19.9149  -10.2706  -20.7165 C   0  0  0  0  0  0  0  0  0  0  0  0
   19.7296   -9.3381  -19.5479 C   0  0  2  0  0  0  0  0  0  0  0  0
   19.6274   -7.9005  -19.9301 C   0  0  0  0  0  0  0  0  0  0  0  0
   20.9167   -9.5078  -18.6247 C   0  0  2  0  0  0  0  0  0  0  0  0
   20.9889  -10.9179  -18.2948 N   0  0  0  0  0  0  0  0  0  0  0  0
   20.8105   -8.6693  -17.3950 C   0  0  0  0  0  0  0  0  0  0  0  0
   20.0899   -9.0640  -16.4459 O   0  0  0  0  0  0  0  0  0  0  0  0
   21.4938   -7.4441  -17.2604 N   0  0  0  0  0  0  0  0  0  0  0  0
   21.4586   -6.5564  -16.1540 C   0  0  1  0  0  0  0  0  0  0  0  0
   22.6712   -6.5565  -15.2999 C   0  0  0  0  0  0  0  0  0  0  0  0
   22.9340   -7.8168  -14.6080 C   0  0  0  0  0  0  0  0  0  0  0  0
   23.9215   -8.6844  -15.0206 C   0  0  0  0  0  0  0  0  0  0  0  0
   24.1606   -9.8823  -14.3511 C   0  0  0  0  0  0  0  0  0  0  0  0
   23.4112  -10.2341  -13.2512 C   0  0  0  0  0  0  0  0  0  0  0  0
   22.4205   -9.3740  -12.8293 C   0  0  0  0  0  0  0  0  0  0  0  0
   22.1902   -8.1763  -13.5084 C   0  0  0  0  0  0  0  0  0  0  0  0
   21.1805   -5.1370  -16.5858 C   0  0  0  0  0  0  0  0  0  0  0  0
   21.9199   -4.5017  -17.3756 O   0  0  0  0  0  0  0  0  0  0  0  0
   20.0446   -4.4312  -16.1127 N   0  0  0  0  0  0  0  0  0  0  0  0
   19.7036   -3.0900  -16.6237 C   0  0  1  0  0  0  0  0  0  0  0  0
   19.3768   -3.1504  -18.0776 C   0  0  0  0  0  0  0  0  0  0  0  0
   18.2882   -4.0837  -18.4673 C   0  0  0  0  0  0  0  0  0  0  0  0
   17.9620   -4.0304  -19.9095 C   0  0  0  0  0  0  0  0  0  0  0  0
   18.5875   -4.6423  -20.8107 O   0  0  0  0  0  0  0  0  0  0  0  0
   18.5022   -2.6515  -15.8755 C   0  0  0  0  0  0  0  0  0  0  0  0
   17.8970   -1.4061  -16.0354 O   0  0  0  0  0  0  0  0  0  0  0  0
   16.8900   -3.2570  -20.3464 O   0  0  0  0  0  0  0  0  0  0  0  0
   17.9679   -3.4193  -15.0374 O   0  0  0  0  0  0  0  0  0  0  0  0
  2  1  1  0
  3  2  1  0
  3  4  1  6
  5  3  1  0
  5  6  1  1
  7  5  1  0
  7  8  2  0
  9  7  1  0
 10  9  1  0
 10 11  1  6
 12 11  1  0
 12 17  2  0
 13 12  1  0
 14 13  2  0
 14 15  1  0
 15 16  2  0
 16 17  1  0
 18 10  1  0
 19 18  2  0
 20 18  1  0
 21 20  1  0
 21 26  1  0
 21 22  1  6
 23 22  1  0
 23 24  1  0
 24 25  2  0
 26 27  1  0
 28 24  1  0
 29 26  2  0
M  END
$$$$
