IFE.pdb
     RDKit          3D

 29 29  0  0  1  0  0  0  0  0999 V2000
   28.2725  -18.5409  -17.0603 C   0  0  0  0  0  0  0  0  0  0  0  0
   28.3755  -19.3725  -15.8306 C   0  0  0  0  0  0  0  0  0  0  0  0
   27.0625  -19.6720  -15.1551 C   0  0  2  0  0  0  0  0  0  0  0  0
   26.2945  -18.4573  -14.7579 C   0  0  0  0  0  0  0  0  0  0  0  0
   27.3537  -20.4854  -13.9125 C   0  0  2  0  0  0  0  0  0  0  0  0
   28.0664  -21.6705  -14.3487 N   0  0  0  0  0  0  0  0  0  0  0  0
   26.1163  -20.8447  -13.1600 C   0  0  0  0  0  0  0  0  0  0  0  0
   25.5365  -21.9278  -13.4178 O   0  0  0  0  0  0  0  0  0  0  0  0
   25.5726  -20.0072  -12.1655 N   0  0  0  0  0  0  0  0  0  0  0  0
   24.4445  -20.2664  -11.3448 C   0  0  1  0  0  0  0  0  0  0  0  0
   24.4226  -19.5464  -10.0482 C   0  0  0  0  0  0  0  0  0  0  0  0
   25.4417  -19.9744   -9.0917 C   0  0  0  0  0  0  0  0  0  0  0  0
   25.5486  -21.2831   -8.6751 C   0  0  0  0  0  0  0  0  0  0  0  0
   26.5251  -21.6764   -7.7628 C   0  0  0  0  0  0  0  0  0  0  0  0
   27.4161  -20.7612   -7.2493 C   0  0  0  0  0  0  0  0  0  0  0  0
   27.3187  -19.4489   -7.6589 C   0  0  0  0  0  0  0  0  0  0  0  0
   26.3358  -19.0669   -8.5736 C   0  0  0  0  0  0  0  0  0  0  0  0
   23.1506  -19.9829  -12.0685 C   0  0  0  0  0  0  0  0  0  0  0  0
   22.8847  -18.8741  -12.5919 O   0  0  0  0  0  0  0  0  0  0  0  0
   22.1458  -20.9757  -12.1993 N   0  0  0  0  0  0  0  0  0  0  0  0
   20.9553  -20.7597  -13.0434 C   0  0  1  0  0  0  0  0  0  0  0  0
   20.5232  -22.0385  -13.6773 C   0  0  0  0  0  0  0  0  0  0  0  0
   21.6024  -22.8859  -14.2475 C   0  0  0  0  0  0  0  0  0  0  0  0
   21.1041  -24.1498  -14.8336 C   0  0  0  0  0  0  0  0  0  0  0  0
   19.9106  -24.5395  -14.7924 O   0  0  0  0  0  0  0  0  0  0  0  0
   19.8836  -20.2818  -12.1386 C   0  0  0  0  0  0  0  0  0  0  0  0
   18.6680  -19.7608  -12.5788 O   0  0  0  0  0  0  0  0  0  0  0  0
   21.9882  -25.0022  -15.4892 O   0  0  0  0  0  0  0  0  0  0  0  0
   20.0421  -20.3320  -10.8937 O   0  0  0  0  0  0  0  0  0  0  0  0
  2  1  1  0
  3  2  1  0
  3  4  1  1
  5  3  1  0
  5  6  1  6
  7  5  1  0
  7  8  2  0
  9  7  1  0
 10  9  1  0
 10 11  1  1
 12 11  1  0
 12 17  2  0
 13 12  1  0
 14 13  2  0
 14 15  1  0
 15 16  2  0
 16 17  1  0
 18 10  1  0
 19 18  2  0
 20 18  1  0
 21 20  1  0
 21 26  1  0
 21 22  1  1
 23 22  1  0
 23 24  1  0
 24 25  2  0
 26 27  1  0
 28 24  1  0
 29 26  2  0
M  END
$$$$
