IFE.pdb
     RDKit          3D

 29 29  0  0  1  0  0  0  0  0999 V2000
   28.5555  -18.0027  -18.0509 C   0  0  0  0  0  0  0  0  0  0  0  0
   28.5563  -18.0462  -16.5634 C   0  0  0  0  0  0  0  0  0  0  0  0
   27.5190  -18.9532  -15.9544 C   0  0  2  0  0  0  0  0  0  0  0  0
   26.3365  -18.2344  -15.3992 C   0  0  0  0  0  0  0  0  0  0  0  0
   28.1793  -19.7299  -14.8359 C   0  0  2  0  0  0  0  0  0  0  0  0
   29.2160  -20.5389  -15.4469 N   0  0  0  0  0  0  0  0  0  0  0  0
   27.2118  -20.5742  -14.0759 C   0  0  0  0  0  0  0  0  0  0  0  0
   26.8663  -21.6846  -14.5485 O   0  0  0  0  0  0  0  0  0  0  0  0
   26.6695  -20.1674  -12.8404 N   0  0  0  0  0  0  0  0  0  0  0  0
   25.7565  -20.8837  -12.0238 C   0  0  1  0  0  0  0  0  0  0  0  0
   25.8086  -20.5606  -10.5772 C   0  0  0  0  0  0  0  0  0  0  0  0
   27.1142  -20.7592   -9.9509 C   0  0  0  0  0  0  0  0  0  0  0  0
   28.1737  -21.3171  -10.6322 C   0  0  0  0  0  0  0  0  0  0  0  0
   29.4126  -21.5003  -10.0222 C   0  0  0  0  0  0  0  0  0  0  0  0
   29.6130  -21.1260   -8.7126 C   0  0  0  0  0  0  0  0  0  0  0  0
   28.5602  -20.5668   -8.0211 C   0  0  0  0  0  0  0  0  0  0  0  0
   27.3233  -20.3883   -8.6432 C   0  0  0  0  0  0  0  0  0  0  0  0
   24.3334  -20.7163  -12.4981 C   0  0  0  0  0  0  0  0  0  0  0  0
   23.8678  -19.6237  -12.9024 O   0  0  0  0  0  0  0  0  0  0  0  0
   23.4277  -21.8080  -12.5133 N   0  0  0  0  0  0  0  0  0  0  0  0
   22.0697  -21.6740  -13.0738 C   0  0  1  0  0  0  0  0  0  0  0  0
   21.4533  -20.3833  -12.6517 C   0  0  0  0  0  0  0  0  0  0  0  0
   20.1228  -20.0699  -13.2341 C   0  0  0  0  0  0  0  0  0  0  0  0
   19.0216  -20.1461  -12.2487 C   0  0  0  0  0  0  0  0  0  0  0  0
   19.1645  -20.0615  -11.0036 O   0  0  0  0  0  0  0  0  0  0  0  0
   22.2245  -21.6772  -14.5474 C   0  0  0  0  0  0  0  0  0  0  0  0
   21.1605  -21.5757  -15.4422 O   0  0  0  0  0  0  0  0  0  0  0  0
   17.7130  -20.3245  -12.6889 O   0  0  0  0  0  0  0  0  0  0  0  0
   23.3668  -21.7763  -15.0600 O   0  0  0  0  0  0  0  0  0  0  0  0
  2  1  1  0
  3  2  1  0
  3  4  1  1
  5  3  1  0
  5  6  1  6
  7  5  1  0
  7  8  2  0
  9  7  1  0
 10  9  1  0
 10 11  1  1
 12 11  1  0
 12 17  2  0
 13 12  1  0
 14 13  2  0
 14 15  1  0
 15 16  2  0
 16 17  1  0
 18 10  1  0
 19 18  2  0
 20 18  1  0
 21 20  1  0
 21 26  1  0
 21 22  1  1
 23 22  1  0
 23 24  1  0
 24 25  2  0
 26 27  1  0
 28 24  1  0
 29 26  2  0
M  END
$$$$
