IFE.pdb
     RDKit          3D

 29 29  0  0  1  0  0  0  0  0999 V2000
   22.1335  -10.3737  -23.0148 C   0  0  0  0  0  0  0  0  0  0  0  0
   22.5561  -11.1041  -21.7890 C   0  0  0  0  0  0  0  0  0  0  0  0
   22.1622  -10.4476  -20.4915 C   0  0  2  0  0  0  0  0  0  0  0  0
   22.7441   -9.0883  -20.2990 C   0  0  0  0  0  0  0  0  0  0  0  0
   22.6302  -11.3366  -19.3597 C   0  0  2  0  0  0  0  0  0  0  0  0
   22.1446  -12.6714  -19.6511 N   0  0  0  0  0  0  0  0  0  0  0  0
   22.1522  -10.8662  -18.0267 C   0  0  0  0  0  0  0  0  0  0  0  0
   20.9228  -10.6885  -17.8456 O   0  0  0  0  0  0  0  0  0  0  0  0
   23.0361  -10.6132  -16.9586 N   0  0  0  0  0  0  0  0  0  0  0  0
   22.7023  -10.1754  -15.6508 C   0  0  1  0  0  0  0  0  0  0  0  0
   23.2381  -11.0070  -14.5457 C   0  0  0  0  0  0  0  0  0  0  0  0
   23.0043  -12.4426  -14.6894 C   0  0  0  0  0  0  0  0  0  0  0  0
   21.7357  -12.9687  -14.7981 C   0  0  0  0  0  0  0  0  0  0  0  0
   21.5282  -14.3394  -14.9346 C   0  0  0  0  0  0  0  0  0  0  0  0
   22.5930  -15.2115  -14.9649 C   0  0  0  0  0  0  0  0  0  0  0  0
   23.8668  -14.6965  -14.8570 C   0  0  0  0  0  0  0  0  0  0  0  0
   24.0621  -13.3210  -14.7206 C   0  0  0  0  0  0  0  0  0  0  0  0
   23.1224   -8.7446  -15.4169 C   0  0  0  0  0  0  0  0  0  0  0  0
   24.2039   -8.2684  -15.8383 O   0  0  0  0  0  0  0  0  0  0  0  0
   22.2997   -7.8430  -14.6939 N   0  0  0  0  0  0  0  0  0  0  0  0
   22.6955   -6.4372  -14.4859 C   0  0  1  0  0  0  0  0  0  0  0  0
   22.1259   -5.5685  -15.5560 C   0  0  0  0  0  0  0  0  0  0  0  0
   20.6445   -5.4601  -15.5942 C   0  0  0  0  0  0  0  0  0  0  0  0
   20.1559   -4.4904  -16.5993 C   0  0  0  0  0  0  0  0  0  0  0  0
   20.8908   -3.8052  -17.3532 O   0  0  0  0  0  0  0  0  0  0  0  0
   22.1256   -6.0323  -13.1795 C   0  0  0  0  0  0  0  0  0  0  0  0
   22.4541   -4.8491  -12.5199 O   0  0  0  0  0  0  0  0  0  0  0  0
   18.7872   -4.2897  -16.7561 O   0  0  0  0  0  0  0  0  0  0  0  0
   21.2938   -6.7730  -12.5991 O   0  0  0  0  0  0  0  0  0  0  0  0
  2  1  1  0
  3  2  1  0
  3  4  1  1
  5  3  1  0
  5  6  1  6
  7  5  1  0
  7  8  2  0
  9  7  1  0
 10  9  1  0
 10 11  1  1
 12 11  1  0
 12 17  2  0
 13 12  1  0
 14 13  2  0
 14 15  1  0
 15 16  2  0
 16 17  1  0
 18 10  1  0
 19 18  2  0
 20 18  1  0
 21 20  1  0
 21 26  1  0
 21 22  1  6
 23 22  1  0
 23 24  1  0
 24 25  2  0
 26 27  1  0
 28 24  1  0
 29 26  2  0
M  END
$$$$
