NII.pdb
     RDKit          3D

 25 24  0  0  1  0  0  0  0  0999 V2000
   27.3555  -16.9506  -16.4715 N   0  0  0  0  0  0  0  0  0  0  0  0
   27.7849  -17.7043  -15.3590 C   0  0  0  0  0  0  0  0  0  0  0  0
   28.9423  -17.5758  -14.8478 O   0  0  0  0  0  0  0  0  0  0  0  0
   26.8921  -18.6865  -14.7360 C   0  0  0  0  0  0  0  0  0  0  0  0
   27.6350  -19.8201  -14.0722 C   0  0  2  0  0  0  0  0  0  0  0  0
   28.4463  -20.5214  -15.0577 N   0  0  0  0  0  0  0  0  0  0  0  0
   26.7468  -20.7373  -13.3385 C   0  0  0  0  0  0  0  0  0  0  0  0
   26.3001  -21.8211  -13.7883 O   0  0  0  0  0  0  0  0  0  0  0  0
   26.8486  -20.3431   -7.9033 C   0  0  0  0  0  0  0  0  0  0  0  0
   26.7353  -20.9759   -9.2895 C   0  0  0  0  0  0  0  0  0  0  0  0
   25.4072  -20.5098   -9.8529 C   0  0  2  0  0  0  0  0  0  0  0  0
   24.3163  -21.2096   -9.0663 C   0  0  0  0  0  0  0  0  0  0  0  0
   25.2578  -20.9767  -11.3123 C   0  0  2  0  0  0  0  0  0  0  0  0
   26.3573  -20.3815  -12.0189 N   0  0  0  0  0  0  0  0  0  0  0  0
   23.9425  -20.5995  -11.8181 C   0  0  0  0  0  0  0  0  0  0  0  0
   23.6193  -19.3867  -11.8357 O   0  0  0  0  0  0  0  0  0  0  0  0
   22.7471  -21.0295  -16.6571 C   0  0  0  0  0  0  0  0  0  0  0  0
   22.6922  -20.5706  -15.2080 C   0  0  0  0  0  0  0  0  0  0  0  0
   21.7462  -21.4353  -14.4157 C   0  0  2  0  0  0  0  0  0  0  0  0
   20.3639  -21.2778  -15.0517 C   0  0  0  0  0  0  0  0  0  0  0  0
   21.7252  -21.0708  -12.9651 C   0  0  2  0  0  0  0  0  0  0  0  0
   22.9722  -21.5146  -12.3041 N   0  0  0  0  0  0  0  0  0  0  0  0
   20.6355  -21.6765  -12.1809 C   0  0  0  0  0  0  0  0  0  0  0  0
   20.6539  -23.0029  -11.7771 O   0  0  0  0  0  0  0  0  0  0  0  0
   19.6242  -21.0215  -11.8323 O   0  0  0  0  0  0  0  0  0  0  0  0
  1  2  1  0
  2  3  2  0
  4  5  1  0
  4  2  1  0
  5  6  1  6
  7  5  1  0
  7  8  2  0
 10 11  1  0
 10  9  1  0
 11 13  1  0
 11 12  1  1
 13 14  1  6
 14  7  1  0
 15 22  1  0
 15 13  1  0
 16 15  2  0
 17 18  1  0
 18 19  1  0
 19 21  1  0
 19 20  1  6
 21 22  1  1
 21 23  1  0
 23 24  1  0
 25 23  2  0
M  END
$$$$
