NII.pdb
     RDKit          3D

 25 24  0  0  1  0  0  0  0  0999 V2000
   19.2114  -17.2440  -15.8432 N   0  0  0  0  0  0  0  0  0  0  0  0
   20.6024  -17.0088  -15.8428 C   0  0  0  0  0  0  0  0  0  0  0  0
   21.1093  -15.8875  -16.1638 O   0  0  0  0  0  0  0  0  0  0  0  0
   21.5371  -18.0728  -15.4633 C   0  0  0  0  0  0  0  0  0  0  0  0
   22.4888  -18.4446  -16.5739 C   0  0  2  0  0  0  0  0  0  0  0  0
   21.7630  -19.1256  -17.6374 N   0  0  0  0  0  0  0  0  0  0  0  0
   23.6410  -19.2319  -16.1036 C   0  0  0  0  0  0  0  0  0  0  0  0
   23.6195  -20.4623  -15.8548 O   0  0  0  0  0  0  0  0  0  0  0  0
   28.5601  -17.7334  -17.8794 C   0  0  0  0  0  0  0  0  0  0  0  0
   27.3365  -18.5363  -17.4401 C   0  0  0  0  0  0  0  0  0  0  0  0
   27.2389  -18.3585  -15.9377 C   0  0  2  0  0  0  0  0  0  0  0  0
   28.4965  -18.9518  -15.3336 C   0  0  0  0  0  0  0  0  0  0  0  0
   26.0612  -19.1801  -15.3824 C   0  0  2  0  0  0  0  0  0  0  0  0
   24.8790  -18.5605  -15.9126 N   0  0  0  0  0  0  0  0  0  0  0  0
   26.1239  -19.2085  -13.9252 C   0  0  0  0  0  0  0  0  0  0  0  0
   26.1395  -18.1242  -13.2929 O   0  0  0  0  0  0  0  0  0  0  0  0
   22.6038  -20.9241  -10.8495 C   0  0  0  0  0  0  0  0  0  0  0  0
   23.8301  -20.1981  -11.3812 C   0  0  0  0  0  0  0  0  0  0  0  0
   25.0854  -20.9526  -11.0272 C   0  0  2  0  0  0  0  0  0  0  0  0
   25.1961  -20.9373   -9.5015 C   0  0  0  0  0  0  0  0  0  0  0  0
   26.3010  -20.3632  -11.6693 C   0  0  2  0  0  0  0  0  0  0  0  0
   26.1708  -20.3920  -13.1428 N   0  0  0  0  0  0  0  0  0  0  0  0
   27.5654  -21.0609  -11.3795 C   0  0  0  0  0  0  0  0  0  0  0  0
   28.3253  -20.7917  -10.2512 O   0  0  0  0  0  0  0  0  0  0  0  0
   28.0275  -21.9431  -12.1419 O   0  0  0  0  0  0  0  0  0  0  0  0
  1  2  1  0
  2  3  2  0
  4  5  1  0
  4  2  1  0
  5  6  1  6
  7  5  1  0
  7  8  2  0
 10 11  1  0
 10  9  1  0
 11 13  1  0
 11 12  1  1
 13 14  1  1
 14  7  1  0
 15 22  1  0
 15 13  1  0
 16 15  2  0
 17 18  1  0
 18 19  1  0
 19 21  1  0
 19 20  1  1
 21 22  1  6
 21 23  1  0
 23 24  1  0
 25 23  2  0
M  END
$$$$
