NII.pdb
     RDKit          3D

 25 24  0  0  1  0  0  0  0  0999 V2000
   29.7922  -22.5243  -17.2580 N   0  0  0  0  0  0  0  0  0  0  0  0
   29.1086  -21.3304  -17.5701 C   0  0  0  0  0  0  0  0  0  0  0  0
   29.2895  -20.7002  -18.6598 O   0  0  0  0  0  0  0  0  0  0  0  0
   28.1414  -20.7585  -16.6281 C   0  0  0  0  0  0  0  0  0  0  0  0
   28.0251  -21.5512  -15.3492 C   0  0  2  0  0  0  0  0  0  0  0  0
   27.3026  -22.7905  -15.6018 N   0  0  0  0  0  0  0  0  0  0  0  0
   27.4247  -20.7799  -14.2478 C   0  0  0  0  0  0  0  0  0  0  0  0
   27.7631  -19.6178  -13.9140 O   0  0  0  0  0  0  0  0  0  0  0  0
   22.4376  -20.3321  -14.7172 C   0  0  0  0  0  0  0  0  0  0  0  0
   23.8889  -20.0776  -14.3126 C   0  0  0  0  0  0  0  0  0  0  0  0
   24.1130  -20.8739  -13.0421 C   0  0  2  0  0  0  0  0  0  0  0  0
   23.2159  -20.2774  -11.9753 C   0  0  0  0  0  0  0  0  0  0  0  0
   25.5589  -20.6869  -12.5477 C   0  0  2  0  0  0  0  0  0  0  0  0
   26.3808  -21.3846  -13.4965 N   0  0  0  0  0  0  0  0  0  0  0  0
   25.6777  -21.1720  -11.1771 C   0  0  0  0  0  0  0  0  0  0  0  0
   25.5833  -22.4038  -10.9545 O   0  0  0  0  0  0  0  0  0  0  0  0
   28.6726  -18.8345   -7.1409 C   0  0  0  0  0  0  0  0  0  0  0  0
   28.0045  -19.9067   -7.9880 C   0  0  0  0  0  0  0  0  0  0  0  0
   26.5228  -19.9467   -7.7171 C   0  0  2  0  0  0  0  0  0  0  0  0
   26.3501  -20.3951   -6.2647 C   0  0  0  0  0  0  0  0  0  0  0  0
   25.7987  -20.8550   -8.6594 C   0  0  2  0  0  0  0  0  0  0  0  0
   25.8964  -20.3446  -10.0446 N   0  0  0  0  0  0  0  0  0  0  0  0
   24.3559  -21.0048   -8.4036 C   0  0  0  0  0  0  0  0  0  0  0  0
   23.8311  -22.0701   -7.6876 O   0  0  0  0  0  0  0  0  0  0  0  0
   23.5170  -20.1715   -8.8216 O   0  0  0  0  0  0  0  0  0  0  0  0
  1  2  1  0
  2  3  2  0
  4  5  1  0
  4  2  1  0
  5  6  1  6
  7  5  1  0
  7  8  2  0
 10 11  1  0
 10  9  1  0
 11 13  1  0
 11 12  1  1
 13 14  1  6
 14  7  1  0
 15 22  1  0
 15 13  1  0
 16 15  2  0
 17 18  1  0
 18 19  1  0
 19 21  1  0
 19 20  1  1
 21 22  1  6
 21 23  1  0
 23 24  1  0
 25 23  2  0
M  END
$$$$
