NII.pdb
     RDKit          3D

 25 24  0  0  1  0  0  0  0  0999 V2000
   29.4397  -19.2472  -16.2364 N   0  0  0  0  0  0  0  0  0  0  0  0
   28.1324  -18.8960  -16.6336 C   0  0  0  0  0  0  0  0  0  0  0  0
   27.8968  -18.0020  -17.5069 O   0  0  0  0  0  0  0  0  0  0  0  0
   26.9696  -19.5642  -16.0409 C   0  0  0  0  0  0  0  0  0  0  0  0
   27.3485  -20.6813  -15.0997 C   0  0  2  0  0  0  0  0  0  0  0  0
   28.1006  -21.6992  -15.8206 N   0  0  0  0  0  0  0  0  0  0  0  0
   26.1911  -21.2525  -14.3906 C   0  0  0  0  0  0  0  0  0  0  0  0
   25.4772  -22.1930  -14.8173 O   0  0  0  0  0  0  0  0  0  0  0  0
   26.3143  -20.8147   -8.9538 C   0  0  0  0  0  0  0  0  0  0  0  0
   26.0853  -21.3917  -10.3501 C   0  0  0  0  0  0  0  0  0  0  0  0
   24.9314  -20.6060  -10.9414 C   0  0  2  0  0  0  0  0  0  0  0  0
   23.6918  -20.9622  -10.1446 C   0  0  0  0  0  0  0  0  0  0  0  0
   24.6647  -21.0635  -12.3870 C   0  0  2  0  0  0  0  0  0  0  0  0
   25.8442  -20.7073  -13.1248 N   0  0  0  0  0  0  0  0  0  0  0  0
   23.4375  -20.4481  -12.8801 C   0  0  0  0  0  0  0  0  0  0  0  0
   23.3547  -19.1961  -12.9195 O   0  0  0  0  0  0  0  0  0  0  0  0
   21.8885  -20.7970  -17.6167 C   0  0  0  0  0  0  0  0  0  0  0  0
   22.0750  -20.3621  -16.1711 C   0  0  0  0  0  0  0  0  0  0  0  0
   20.9246  -20.8396  -15.3233 C   0  0  2  0  0  0  0  0  0  0  0  0
   19.6570  -20.2056  -15.8990 C   0  0  0  0  0  0  0  0  0  0  0  0
   21.1022  -20.4922  -13.8793 C   0  0  2  0  0  0  0  0  0  0  0  0
   22.2991  -21.1667  -13.3304 N   0  0  0  0  0  0  0  0  0  0  0  0
   19.9937  -20.8926  -12.9959 C   0  0  0  0  0  0  0  0  0  0  0  0
   19.0329  -19.9974  -12.5506 O   0  0  0  0  0  0  0  0  0  0  0  0
   19.8565  -22.0732  -12.5952 O   0  0  0  0  0  0  0  0  0  0  0  0
  1  2  1  0
  2  3  2  0
  4  5  1  0
  4  2  1  0
  5  6  1  6
  7  5  1  0
  7  8  2  0
 10 11  1  0
 10  9  1  0
 11 13  1  0
 11 12  1  1
 13 14  1  6
 14  7  1  0
 15 22  1  0
 15 13  1  0
 16 15  2  0
 17 18  1  0
 18 19  1  0
 19 21  1  0
 19 20  1  6
 21 22  1  1
 21 23  1  0
 23 24  1  0
 25 23  2  0
M  END
$$$$
