NII.pdb
     RDKit          3D

 25 24  0  0  1  0  0  0  0  0999 V2000
   13.9353  -10.7571  -17.2090 N   0  0  0  0  0  0  0  0  0  0  0  0
   15.2894  -10.5415  -16.8774 C   0  0  0  0  0  0  0  0  0  0  0  0
   16.1830  -10.3133  -17.7530 O   0  0  0  0  0  0  0  0  0  0  0  0
   15.7273  -10.5730  -15.4783 C   0  0  0  0  0  0  0  0  0  0  0  0
   17.2031  -10.3023  -15.3167 C   0  0  2  0  0  0  0  0  0  0  0  0
   17.9686  -11.4483  -15.7881 N   0  0  0  0  0  0  0  0  0  0  0  0
   17.5705   -9.9240  -13.9417 C   0  0  0  0  0  0  0  0  0  0  0  0
   17.0664  -10.4130  -12.9010 O   0  0  0  0  0  0  0  0  0  0  0  0
   22.7678   -8.9927  -12.9549 C   0  0  0  0  0  0  0  0  0  0  0  0
   21.2977   -9.4066  -12.9065 C   0  0  0  0  0  0  0  0  0  0  0  0
   20.5134   -8.1311  -12.6690 C   0  0  2  0  0  0  0  0  0  0  0  0
   20.9901   -7.5506  -11.3520 C   0  0  0  0  0  0  0  0  0  0  0  0
   19.0194   -8.4542  -12.4856 C   0  0  2  0  0  0  0  0  0  0  0  0
   18.5714   -8.9308  -13.7641 N   0  0  0  0  0  0  0  0  0  0  0  0
   18.3149   -7.2712  -12.0036 C   0  0  0  0  0  0  0  0  0  0  0  0
   18.2617   -6.2517  -12.7341 O   0  0  0  0  0  0  0  0  0  0  0  0
   13.5703   -7.4958   -9.3515 C   0  0  0  0  0  0  0  0  0  0  0  0
   15.0795   -7.3062   -9.3574 C   0  0  0  0  0  0  0  0  0  0  0  0
   15.4695   -6.2036  -10.3075 C   0  0  2  0  0  0  0  0  0  0  0  0
   14.9638   -6.6126  -11.6922 C   0  0  0  0  0  0  0  0  0  0  0  0
   16.9448   -5.9575  -10.3151 C   0  0  2  0  0  0  0  0  0  0  0  0
   17.6682   -7.1748  -10.7436 N   0  0  0  0  0  0  0  0  0  0  0  0
   17.5288   -5.5998   -9.0111 C   0  0  0  0  0  0  0  0  0  0  0  0
   17.2829   -4.3843   -8.3908 O   0  0  0  0  0  0  0  0  0  0  0  0
   18.2855   -6.3803   -8.3854 O   0  0  0  0  0  0  0  0  0  0  0  0
  1  2  1  0
  2  3  2  0
  4  5  1  0
  4  2  1  0
  5  6  1  1
  7  5  1  0
  7  8  2  0
 10 11  1  0
 10  9  1  0
 11 13  1  0
 11 12  1  1
 13 14  1  6
 14  7  1  0
 15 22  1  0
 15 13  1  0
 16 15  2  0
 17 18  1  0
 18 19  1  0
 19 21  1  0
 19 20  1  6
 21 22  1  1
 21 23  1  0
 23 24  1  0
 25 23  2  0
M  END
$$$$
