NII.pdb
     RDKit          3D

 25 24  0  0  1  0  0  0  0  0999 V2000
   19.5668  -19.8722  -12.2893 N   0  0  0  0  0  0  0  0  0  0  0  0
   20.8677  -19.3857  -12.0417 C   0  0  0  0  0  0  0  0  0  0  0  0
   21.2750  -18.2622  -12.4764 O   0  0  0  0  0  0  0  0  0  0  0  0
   21.8207  -20.1756  -11.2557 C   0  0  0  0  0  0  0  0  0  0  0  0
   23.0516  -20.5629  -12.0382 C   0  0  2  0  0  0  0  0  0  0  0  0
   22.6821  -21.4572  -13.1269 N   0  0  0  0  0  0  0  0  0  0  0  0
   24.1130  -21.1353  -11.1931 C   0  0  0  0  0  0  0  0  0  0  0  0
   24.0657  -22.2623  -10.6418 O   0  0  0  0  0  0  0  0  0  0  0  0
   28.9209  -21.1775  -13.0102 C   0  0  0  0  0  0  0  0  0  0  0  0
   27.5872  -21.3909  -12.2958 C   0  0  0  0  0  0  0  0  0  0  0  0
   27.6478  -20.5453  -11.0389 C   0  0  2  0  0  0  0  0  0  0  0  0
   28.8324  -21.0326  -10.2278 C   0  0  0  0  0  0  0  0  0  0  0  0
   26.3984  -20.7918  -10.1738 C   0  0  2  0  0  0  0  0  0  0  0  0
   25.2870  -20.3641  -10.9765 N   0  0  0  0  0  0  0  0  0  0  0  0
   26.5310  -20.0856   -8.9043 C   0  0  0  0  0  0  0  0  0  0  0  0
   26.1591  -18.8890   -8.8289 O   0  0  0  0  0  0  0  0  0  0  0  0
   28.2048  -20.9829   -2.9333 C   0  0  0  0  0  0  0  0  0  0  0  0
   27.6267  -20.0761   -4.0089 C   0  0  0  0  0  0  0  0  0  0  0  0
   27.5598  -20.7990   -5.3293 C   0  0  2  0  0  0  0  0  0  0  0  0
   28.9385  -21.4184   -5.5654 C   0  0  0  0  0  0  0  0  0  0  0  0
   27.1683  -19.8923   -6.4527 C   0  0  2  0  0  0  0  0  0  0  0  0
   27.0602  -20.6544   -7.7162 N   0  0  0  0  0  0  0  0  0  0  0  0
   28.1158  -18.8016   -6.7391 C   0  0  0  0  0  0  0  0  0  0  0  0
   29.0873  -18.8958   -7.7241 O   0  0  0  0  0  0  0  0  0  0  0  0
   28.0959  -17.7202   -6.1041 O   0  0  0  0  0  0  0  0  0  0  0  0
  1  2  1  0
  2  3  2  0
  4  5  1  0
  4  2  1  0
  5  6  1  6
  7  5  1  0
  7  8  2  0
 10 11  1  0
 10  9  1  0
 11 13  1  0
 11 12  1  1
 13 14  1  6
 14  7  1  0
 15 22  1  0
 15 13  1  0
 16 15  2  0
 17 18  1  0
 18 19  1  0
 19 21  1  0
 19 20  1  6
 21 22  1  6
 21 23  1  0
 23 24  1  0
 25 23  2  0
M  END
$$$$
