NII.pdb
     RDKit          3D

 25 24  0  0  1  0  0  0  0  0999 V2000
   28.7371  -19.9550  -20.1493 N   0  0  0  0  0  0  0  0  0  0  0  0
   27.6897  -19.4427  -19.3552 C   0  0  0  0  0  0  0  0  0  0  0  0
   27.2502  -18.2560  -19.4805 O   0  0  0  0  0  0  0  0  0  0  0  0
   27.0537  -20.2789  -18.3323 C   0  0  0  0  0  0  0  0  0  0  0  0
   26.6202  -19.4958  -17.1172 C   0  0  2  0  0  0  0  0  0  0  0  0
   27.7608  -18.7833  -16.5577 N   0  0  0  0  0  0  0  0  0  0  0  0
   25.9437  -20.3285  -16.1085 C   0  0  0  0  0  0  0  0  0  0  0  0
   25.1115  -21.2337  -16.3622 O   0  0  0  0  0  0  0  0  0  0  0  0
   28.7793  -20.7279  -11.5073 C   0  0  0  0  0  0  0  0  0  0  0  0
   27.9154  -21.1344  -12.7003 C   0  0  0  0  0  0  0  0  0  0  0  0
   26.5387  -20.5587  -12.4330 C   0  0  2  0  0  0  0  0  0  0  0  0
   25.9387  -21.3462  -11.2848 C   0  0  0  0  0  0  0  0  0  0  0  0
   25.6214  -20.7938  -13.6469 C   0  0  2  0  0  0  0  0  0  0  0  0
   26.2466  -20.1013  -14.7387 N   0  0  0  0  0  0  0  0  0  0  0  0
   24.2704  -20.3373  -13.3394 C   0  0  0  0  0  0  0  0  0  0  0  0
   24.1113  -19.2068  -12.8174 O   0  0  0  0  0  0  0  0  0  0  0  0
   20.9164  -19.2576  -16.7843 C   0  0  0  0  0  0  0  0  0  0  0  0
   21.6395  -19.3349  -15.4485 C   0  0  0  0  0  0  0  0  0  0  0  0
   20.9702  -20.3359  -14.5427 C   0  0  2  0  0  0  0  0  0  0  0  0
   19.5665  -19.8016  -14.2526 C   0  0  0  0  0  0  0  0  0  0  0  0
   21.7406  -20.5623  -13.2807 C   0  0  2  0  0  0  0  0  0  0  0  0
   23.0899  -21.0857  -13.5875 N   0  0  0  0  0  0  0  0  0  0  0  0
   21.1494  -21.5393  -12.3505 C   0  0  0  0  0  0  0  0  0  0  0  0
   20.3898  -21.1612  -11.2536 O   0  0  0  0  0  0  0  0  0  0  0  0
   21.3010  -22.7753  -12.5002 O   0  0  0  0  0  0  0  0  0  0  0  0
  1  2  1  0
  2  3  2  0
  4  5  1  0
  4  2  1  0
  5  6  1  1
  7  5  1  0
  7  8  2  0
 10 11  1  0
 10  9  1  0
 11 13  1  0
 11 12  1  1
 13 14  1  6
 14  7  1  0
 15 22  1  0
 15 13  1  0
 16 15  2  0
 17 18  1  0
 18 19  1  0
 19 21  1  0
 19 20  1  1
 21 22  1  6
 21 23  1  0
 23 24  1  0
 25 23  2  0
M  END
$$$$
