WND.pdb
     RDKit          3D

 31 32  0  0  1  0  0  0  0  0999 V2000
    6.4799  -16.8449   24.5382 N   0  0  0  0  0  0  0  0  0  0  0  0
    7.0911  -15.6631   23.9482 C   0  0  1  0  0  0  0  0  0  0  0  0
    8.4244  -15.4890   24.6878 C   0  0  0  0  0  0  0  0  0  0  0  0
    8.0947  -14.7745   25.9447 C   0  0  0  0  0  0  0  0  0  0  0  0
    8.0382  -15.2708   27.2284 C   0  0  0  0  0  0  0  0  0  0  0  0
    7.6968  -14.3006   28.0919 N   0  0  0  0  0  0  0  0  0  0  0  0
    7.5261  -13.1632   27.3923 C   0  0  0  0  0  0  0  0  0  0  0  0
    7.1837  -11.8789   27.7420 C   0  0  0  0  0  0  0  0  0  0  0  0
    7.0802  -10.8817   26.8103 C   0  0  0  0  0  0  0  0  0  0  0  0
    7.3236  -11.1623   25.4801 C   0  0  0  0  0  0  0  0  0  0  0  0
    7.6688  -12.4447   25.1062 C   0  0  0  0  0  0  0  0  0  0  0  0
    7.7705  -13.4376   26.0452 C   0  0  0  0  0  0  0  0  0  0  0  0
    7.2710  -15.7846   22.5036 C   0  0  0  0  0  0  0  0  0  0  0  0
    7.2486  -16.9252   21.9772 O   0  0  0  0  0  0  0  0  0  0  0  0
    6.8160  -14.2910   17.2585 N   0  0  0  0  0  0  0  0  0  0  0  0
    7.7746  -13.5996   18.0496 C   0  0  0  0  0  0  0  0  0  0  0  0
    8.7903  -13.1101   17.4775 O   0  0  0  0  0  0  0  0  0  0  0  0
    7.5052  -13.5066   19.4936 C   0  0  0  0  0  0  0  0  0  0  0  0
    7.7286  -14.8104   20.2294 C   0  0  2  0  0  0  0  0  0  0  0  0
    7.4731  -14.6662   21.6516 N   0  0  0  0  0  0  0  0  0  0  0  0
    9.1412  -15.2692   20.0562 C   0  0  0  0  0  0  0  0  0  0  0  0
    9.5372  -15.7065   18.9361 O   0  0  0  0  0  0  0  0  0  0  0  0
   10.0780  -15.2341   21.1140 N   0  0  0  0  0  0  0  0  0  0  0  0
   11.4662  -15.6732   20.8595 C   0  0  1  0  0  0  0  0  0  0  0  0
   12.3362  -14.4704   20.6815 C   0  0  0  0  0  0  0  0  0  0  0  0
   13.7297  -14.8316   20.4663 C   0  0  0  0  0  0  0  0  0  0  0  0
   14.1306  -15.9962   20.4742 O   0  0  0  0  0  0  0  0  0  0  0  0
   11.8737  -16.5043   22.0251 C   0  0  0  0  0  0  0  0  0  0  0  0
   12.9980  -17.0338   22.1419 O   0  0  0  0  0  0  0  0  0  0  0  0
   14.7176  -13.8519   20.2324 O   0  0  0  0  0  0  0  0  0  0  0  0
   10.9503  -16.7087   23.0537 O   0  0  0  0  0  0  0  0  0  0  0  0
  2 13  1  0
  2  1  1  1
  3  2  1  0
  4  3  1  0
  4  5  2  0
  6  5  1  0
  7 12  2  0
  7  6  1  0
  8  7  1  0
  9 10  1  0
  9  8  2  0
 10 11  2  0
 11 12  1  0
 12  4  1  0
 13 14  2  0
 15 16  1  0
 16 17  2  0
 18 16  1  0
 19 18  1  6
 19 21  1  0
 20 19  1  0
 20 13  1  0
 21 22  2  0
 23 24  1  0
 23 21  1  0
 24 28  1  0
 24 25  1  1
 26 25  1  0
 26 30  1  0
 27 26  2  0
 28 29  2  0
 28 31  1  0
M  END
$$$$
