WND.pdb
     RDKit          3D

 31 32  0  0  1  0  0  0  0  0999 V2000
    7.6958  -16.4017   24.1342 N   0  0  0  0  0  0  0  0  0  0  0  0
    7.7179  -15.7053   22.8563 C   0  0  1  0  0  0  0  0  0  0  0  0
    7.7978  -14.2148   23.2128 C   0  0  0  0  0  0  0  0  0  0  0  0
    7.2436  -14.1007   24.5836 C   0  0  0  0  0  0  0  0  0  0  0  0
    6.4996  -15.0190   25.2911 C   0  0  0  0  0  0  0  0  0  0  0  0
    6.1839  -14.5333   26.5027 N   0  0  0  0  0  0  0  0  0  0  0  0
    6.7122  -13.2994   26.6060 C   0  0  0  0  0  0  0  0  0  0  0  0
    6.7133  -12.3502   27.6001 C   0  0  0  0  0  0  0  0  0  0  0  0
    7.3465  -11.1466   27.4463 C   0  0  0  0  0  0  0  0  0  0  0  0
    8.0048  -10.8676   26.2646 C   0  0  0  0  0  0  0  0  0  0  0  0
    8.0166  -11.8059   25.2532 C   0  0  0  0  0  0  0  0  0  0  0  0
    7.3804  -13.0087   25.4150 C   0  0  0  0  0  0  0  0  0  0  0  0
    8.8247  -16.1306   22.0030 C   0  0  0  0  0  0  0  0  0  0  0  0
   10.0045  -15.9694   22.4040 O   0  0  0  0  0  0  0  0  0  0  0  0
    7.5035  -13.0831   18.0127 N   0  0  0  0  0  0  0  0  0  0  0  0
    8.6879  -13.6326   18.5765 C   0  0  0  0  0  0  0  0  0  0  0  0
    9.7956  -13.3773   18.0230 O   0  0  0  0  0  0  0  0  0  0  0  0
    8.5292  -14.4679   19.7779 C   0  0  0  0  0  0  0  0  0  0  0  0
    8.6625  -15.9497   19.4987 C   0  0  2  0  0  0  0  0  0  0  0  0
    8.6347  -16.7243   20.7267 N   0  0  0  0  0  0  0  0  0  0  0  0
    9.9545  -16.2326   18.8012 C   0  0  0  0  0  0  0  0  0  0  0  0
   10.1674  -15.7726   17.6411 O   0  0  0  0  0  0  0  0  0  0  0  0
   10.9751  -17.0093   19.3952 N   0  0  0  0  0  0  0  0  0  0  0  0
   12.3213  -16.4217   19.5608 C   0  0  1  0  0  0  0  0  0  0  0  0
   12.2268  -14.9353   19.4318 C   0  0  0  0  0  0  0  0  0  0  0  0
   13.5317  -14.2959   19.5168 C   0  0  0  0  0  0  0  0  0  0  0  0
   13.9964  -13.8550   20.5688 O   0  0  0  0  0  0  0  0  0  0  0  0
   12.8137  -16.8479   20.8992 C   0  0  0  0  0  0  0  0  0  0  0  0
   12.1036  -17.4218   21.7503 O   0  0  0  0  0  0  0  0  0  0  0  0
   14.3528  -14.1420   18.3797 O   0  0  0  0  0  0  0  0  0  0  0  0
   14.1474  -16.5954   21.2306 O   0  0  0  0  0  0  0  0  0  0  0  0
  2 13  1  0
  2  1  1  1
  3  2  1  0
  4  3  1  0
  4  5  2  0
  6  5  1  0
  7 12  2  0
  7  6  1  0
  8  7  1  0
  9 10  1  0
  9  8  2  0
 10 11  2  0
 11 12  1  0
 12  4  1  0
 13 14  2  0
 15 16  1  0
 16 17  2  0
 18 16  1  0
 19 18  1  1
 19 21  1  0
 20 19  1  0
 20 13  1  0
 21 22  2  0
 23 24  1  0
 23 21  1  0
 24 28  1  0
 24 25  1  1
 26 25  1  0
 26 30  1  0
 27 26  2  0
 28 29  2  0
 28 31  1  0
M  END
$$$$
