WND.pdb
     RDKit          3D

 31 32  0  0  1  0  0  0  0  0999 V2000
    7.3210  -16.3182   22.9855 N   0  0  0  0  0  0  0  0  0  0  0  0
    8.6961  -15.8510   23.0810 C   0  0  1  0  0  0  0  0  0  0  0  0
    8.9651  -15.6993   24.5842 C   0  0  0  0  0  0  0  0  0  0  0  0
    7.7482  -15.0653   25.1468 C   0  0  0  0  0  0  0  0  0  0  0  0
    6.5561  -15.6556   25.5042 C   0  0  0  0  0  0  0  0  0  0  0  0
    5.6978  -14.7343   25.9711 N   0  0  0  0  0  0  0  0  0  0  0  0
    6.3101  -13.5362   25.9269 C   0  0  0  0  0  0  0  0  0  0  0  0
    5.9254  -12.2630   26.2734 C   0  0  0  0  0  0  0  0  0  0  0  0
    6.7648  -11.1919   26.1275 C   0  0  0  0  0  0  0  0  0  0  0  0
    8.0345  -11.3838   25.6190 C   0  0  0  0  0  0  0  0  0  0  0  0
    8.4419  -12.6534   25.2645 C   0  0  0  0  0  0  0  0  0  0  0  0
    7.5956  -13.7207   25.4138 C   0  0  0  0  0  0  0  0  0  0  0  0
    9.6441  -16.7574   22.4376 C   0  0  0  0  0  0  0  0  0  0  0  0
    9.2075  -17.6994   21.7302 O   0  0  0  0  0  0  0  0  0  0  0  0
   12.4389  -15.9177   18.4630 N   0  0  0  0  0  0  0  0  0  0  0  0
   12.3824  -14.9280   19.4828 C   0  0  0  0  0  0  0  0  0  0  0  0
   13.0802  -13.8821   19.3492 O   0  0  0  0  0  0  0  0  0  0  0  0
   11.5033  -15.2027   20.6308 C   0  0  0  0  0  0  0  0  0  0  0  0
   11.9244  -16.4173   21.4301 C   0  0  2  0  0  0  0  0  0  0  0  0
   11.0522  -16.6280   22.5719 N   0  0  0  0  0  0  0  0  0  0  0  0
   13.3203  -16.2463   21.9381 C   0  0  0  0  0  0  0  0  0  0  0  0
   14.2903  -16.1774   21.1276 O   0  0  0  0  0  0  0  0  0  0  0  0
   13.6120  -16.1545   23.3181 N   0  0  0  0  0  0  0  0  0  0  0  0
   14.9203  -16.6356   23.8097 C   0  0  1  0  0  0  0  0  0  0  0  0
   15.0075  -18.1140   23.6053 C   0  0  0  0  0  0  0  0  0  0  0  0
   14.3808  -18.8533   24.6913 C   0  0  0  0  0  0  0  0  0  0  0  0
   14.5127  -18.5462   25.8767 O   0  0  0  0  0  0  0  0  0  0  0  0
   15.9632  -15.8925   23.0512 C   0  0  0  0  0  0  0  0  0  0  0  0
   15.7874  -15.4198   21.9093 O   0  0  0  0  0  0  0  0  0  0  0  0
   13.5727  -19.9832   24.4440 O   0  0  0  0  0  0  0  0  0  0  0  0
   17.2149  -15.7080   23.6441 O   0  0  0  0  0  0  0  0  0  0  0  0
  2 13  1  0
  2  1  1  1
  3  2  1  0
  4  3  1  0
  4  5  2  0
  6  5  1  0
  7 12  2  0
  7  6  1  0
  8  7  1  0
  9 10  1  0
  9  8  2  0
 10 11  2  0
 11 12  1  0
 12  4  1  0
 13 14  2  0
 15 16  1  0
 16 17  2  0
 18 16  1  0
 19 18  1  1
 19 21  1  0
 20 19  1  0
 20 13  1  0
 21 22  2  0
 23 24  1  0
 23 21  1  0
 24 28  1  0
 24 25  1  6
 26 25  1  0
 26 30  1  0
 27 26  2  0
 28 29  2  0
 28 31  1  0
M  END
$$$$
