WND.pdb
     RDKit          3D

 31 32  0  0  1  0  0  0  0  0999 V2000
    9.7088  -15.2267   22.5995 N   0  0  0  0  0  0  0  0  0  0  0  0
    9.2337  -15.9521   23.7684 C   0  0  1  0  0  0  0  0  0  0  0  0
    7.7053  -15.9762   23.6321 C   0  0  0  0  0  0  0  0  0  0  0  0
    7.2894  -14.5560   23.5363 C   0  0  0  0  0  0  0  0  0  0  0  0
    6.8846  -13.8500   22.4249 C   0  0  0  0  0  0  0  0  0  0  0  0
    6.5958  -12.5808   22.7550 N   0  0  0  0  0  0  0  0  0  0  0  0
    6.8054  -12.4375   24.0771 C   0  0  0  0  0  0  0  0  0  0  0  0
    6.6743  -11.3819   24.9476 C   0  0  0  0  0  0  0  0  0  0  0  0
    6.9570  -11.5081   26.2808 C   0  0  0  0  0  0  0  0  0  0  0  0
    7.3867  -12.7238   26.7755 C   0  0  0  0  0  0  0  0  0  0  0  0
    7.5254  -13.7972   25.9197 C   0  0  0  0  0  0  0  0  0  0  0  0
    7.2402  -13.6628   24.5862 C   0  0  0  0  0  0  0  0  0  0  0  0
    9.8021  -17.2942   23.8670 C   0  0  0  0  0  0  0  0  0  0  0  0
    9.0654  -18.2467   24.2258 O   0  0  0  0  0  0  0  0  0  0  0  0
   11.7820  -19.3788   20.6025 N   0  0  0  0  0  0  0  0  0  0  0  0
   12.6775  -18.6232   21.4086 C   0  0  0  0  0  0  0  0  0  0  0  0
   13.2176  -17.5943   20.9104 O   0  0  0  0  0  0  0  0  0  0  0  0
   12.9090  -19.1053   22.7798 C   0  0  0  0  0  0  0  0  0  0  0  0
   11.7127  -18.9215   23.6889 C   0  0  2  0  0  0  0  0  0  0  0  0
   11.1619  -17.5827   23.5749 N   0  0  0  0  0  0  0  0  0  0  0  0
   12.1053  -19.1415   25.1149 C   0  0  0  0  0  0  0  0  0  0  0  0
   12.6664  -20.2217   25.4628 O   0  0  0  0  0  0  0  0  0  0  0  0
   11.8732  -18.1718   26.1166 N   0  0  0  0  0  0  0  0  0  0  0  0
   11.3720  -18.6081   27.4370 C   0  0  1  0  0  0  0  0  0  0  0  0
   10.1915  -19.5044   27.2417 C   0  0  0  0  0  0  0  0  0  0  0  0
    9.6937  -20.0341   28.5027 C   0  0  0  0  0  0  0  0  0  0  0  0
    9.6344  -19.3655   29.5354 O   0  0  0  0  0  0  0  0  0  0  0  0
   12.5026  -19.2946   28.1194 C   0  0  0  0  0  0  0  0  0  0  0  0
   12.7384  -19.1981   29.3413 O   0  0  0  0  0  0  0  0  0  0  0  0
    9.2429  -21.3663   28.6162 O   0  0  0  0  0  0  0  0  0  0  0  0
   13.3548  -20.0963   27.3556 O   0  0  0  0  0  0  0  0  0  0  0  0
  2 13  1  0
  2  1  1  6
  3  2  1  0
  4  3  1  0
  4  5  2  0
  6  5  1  0
  7 12  2  0
  7  6  1  0
  8  7  1  0
  9 10  1  0
  9  8  2  0
 10 11  2  0
 11 12  1  0
 12  4  1  0
 13 14  2  0
 15 16  1  0
 16 17  2  0
 18 16  1  0
 19 18  1  6
 19 21  1  0
 20 19  1  0
 20 13  1  0
 21 22  2  0
 23 24  1  0
 23 21  1  0
 24 28  1  0
 24 25  1  6
 26 25  1  0
 26 30  1  0
 27 26  2  0
 28 29  2  0
 28 31  1  0
M  END
$$$$
