WND.pdb
     RDKit          3D

 31 32  0  0  1  0  0  0  0  0999 V2000
    6.8007  -17.3966   23.9799 N   0  0  0  0  0  0  0  0  0  0  0  0
    7.8077  -16.3718   23.7473 C   0  0  1  0  0  0  0  0  0  0  0  0
    8.3267  -15.9953   25.1415 C   0  0  0  0  0  0  0  0  0  0  0  0
    7.2684  -15.1522   25.7486 C   0  0  0  0  0  0  0  0  0  0  0  0
    6.0616  -15.5400   26.2876 C   0  0  0  0  0  0  0  0  0  0  0  0
    5.3811  -14.4710   26.7319 N   0  0  0  0  0  0  0  0  0  0  0  0
    6.1262  -13.3756   26.4926 C   0  0  0  0  0  0  0  0  0  0  0  0
    5.9420  -12.0346   26.7311 C   0  0  0  0  0  0  0  0  0  0  0  0
    6.8839  -11.1047   26.3827 C   0  0  0  0  0  0  0  0  0  0  0  0
    8.0544  -11.5135   25.7742 C   0  0  0  0  0  0  0  0  0  0  0  0
    8.2606  -12.8548   25.5252 C   0  0  0  0  0  0  0  0  0  0  0  0
    7.3127  -13.7796   25.8772 C   0  0  0  0  0  0  0  0  0  0  0  0
    8.8776  -16.8252   22.8620 C   0  0  0  0  0  0  0  0  0  0  0  0
    9.1433  -18.0516   22.8002 O   0  0  0  0  0  0  0  0  0  0  0  0
   12.2459  -16.6041   18.4048 N   0  0  0  0  0  0  0  0  0  0  0  0
   12.4248  -15.7423   19.5220 C   0  0  0  0  0  0  0  0  0  0  0  0
   13.5950  -15.3574   19.8070 O   0  0  0  0  0  0  0  0  0  0  0  0
   11.2161  -15.3604   20.2699 C   0  0  0  0  0  0  0  0  0  0  0  0
   10.8061  -16.3832   21.3077 C   0  0  2  0  0  0  0  0  0  0  0  0
    9.6436  -15.9405   22.0569 N   0  0  0  0  0  0  0  0  0  0  0  0
   11.9211  -16.6160   22.2764 C   0  0  0  0  0  0  0  0  0  0  0  0
   12.2745  -15.6994   23.0748 O   0  0  0  0  0  0  0  0  0  0  0  0
   12.6145  -17.8459   22.3429 N   0  0  0  0  0  0  0  0  0  0  0  0
   13.6437  -18.0352   23.3869 C   0  0  1  0  0  0  0  0  0  0  0  0
   13.6441  -19.4656   23.8216 C   0  0  0  0  0  0  0  0  0  0  0  0
   14.2050  -19.6309   25.1545 C   0  0  0  0  0  0  0  0  0  0  0  0
   15.2068  -19.0277   25.5412 O   0  0  0  0  0  0  0  0  0  0  0  0
   14.9422  -17.6204   22.7891 C   0  0  0  0  0  0  0  0  0  0  0  0
   15.8440  -17.0355   23.4238 O   0  0  0  0  0  0  0  0  0  0  0  0
   13.6235  -20.5065   26.0958 O   0  0  0  0  0  0  0  0  0  0  0  0
   15.1741  -17.8982   21.4396 O   0  0  0  0  0  0  0  0  0  0  0  0
  2 13  1  0
  2  1  1  1
  3  2  1  0
  4  3  1  0
  4  5  2  0
  6  5  1  0
  7 12  2  0
  7  6  1  0
  8  7  1  0
  9 10  1  0
  9  8  2  0
 10 11  2  0
 11 12  1  0
 12  4  1  0
 13 14  2  0
 15 16  1  0
 16 17  2  0
 18 16  1  0
 19 18  1  6
 19 21  1  0
 20 19  1  0
 20 13  1  0
 21 22  2  0
 23 24  1  0
 23 21  1  0
 24 28  1  0
 24 25  1  6
 26 25  1  0
 26 30  1  0
 27 26  2  0
 28 29  2  0
 28 31  1  0
M  END
$$$$
