WND.pdb
     RDKit          3D

 31 32  0  0  1  0  0  0  0  0999 V2000
    7.0017  -16.8848   23.2914 N   0  0  0  0  0  0  0  0  0  0  0  0
    8.1020  -15.9347   23.3607 C   0  0  1  0  0  0  0  0  0  0  0  0
    8.4255  -15.8035   24.8551 C   0  0  0  0  0  0  0  0  0  0  0  0
    7.3679  -14.9299   25.4186 C   0  0  0  0  0  0  0  0  0  0  0  0
    6.1287  -15.2823   25.9060 C   0  0  0  0  0  0  0  0  0  0  0  0
    5.4618  -14.1939   26.3231 N   0  0  0  0  0  0  0  0  0  0  0  0
    6.2480  -13.1207   26.1168 C   0  0  0  0  0  0  0  0  0  0  0  0
    6.0932  -11.7750   26.3493 C   0  0  0  0  0  0  0  0  0  0  0  0
    7.0757  -10.8730   26.0420 C   0  0  0  0  0  0  0  0  0  0  0  0
    8.2582  -11.3158   25.4824 C   0  0  0  0  0  0  0  0  0  0  0  0
    8.4353  -12.6625   25.2402 C   0  0  0  0  0  0  0  0  0  0  0  0
    7.4468  -13.5593   25.5510 C   0  0  0  0  0  0  0  0  0  0  0  0
    9.2609  -16.3579   22.5784 C   0  0  0  0  0  0  0  0  0  0  0  0
    9.3860  -17.5709   22.2759 O   0  0  0  0  0  0  0  0  0  0  0  0
   12.8430  -15.9951   18.4547 N   0  0  0  0  0  0  0  0  0  0  0  0
   13.0127  -15.1390   19.5777 C   0  0  0  0  0  0  0  0  0  0  0  0
   14.1751  -14.7233   19.8505 O   0  0  0  0  0  0  0  0  0  0  0  0
   11.8040  -14.7991   20.3457 C   0  0  0  0  0  0  0  0  0  0  0  0
   11.3824  -15.8864   21.3107 C   0  0  2  0  0  0  0  0  0  0  0  0
   10.2672  -15.4582   22.1363 N   0  0  0  0  0  0  0  0  0  0  0  0
   12.5173  -16.2470   22.2150 C   0  0  0  0  0  0  0  0  0  0  0  0
   13.4544  -16.9890   21.7981 O   0  0  0  0  0  0  0  0  0  0  0  0
   12.5928  -15.7832   23.5481 N   0  0  0  0  0  0  0  0  0  0  0  0
   12.7811  -16.7617   24.6399 C   0  0  1  0  0  0  0  0  0  0  0  0
   11.7686  -17.8528   24.5007 C   0  0  0  0  0  0  0  0  0  0  0  0
   11.9509  -18.8972   25.4979 C   0  0  0  0  0  0  0  0  0  0  0  0
   11.7533  -18.7195   26.7006 O   0  0  0  0  0  0  0  0  0  0  0  0
   14.1783  -17.2628   24.5303 C   0  0  0  0  0  0  0  0  0  0  0  0
   14.6325  -17.8396   23.5208 O   0  0  0  0  0  0  0  0  0  0  0  0
   12.3716  -20.1950   25.1379 O   0  0  0  0  0  0  0  0  0  0  0  0
   15.0391  -17.0810   25.6158 O   0  0  0  0  0  0  0  0  0  0  0  0
  2 13  1  0
  2  1  1  1
  3  2  1  0
  4  3  1  0
  4  5  2  0
  6  5  1  0
  7 12  2  0
  7  6  1  0
  8  7  1  0
  9 10  1  0
  9  8  2  0
 10 11  2  0
 11 12  1  0
 12  4  1  0
 13 14  2  0
 15 16  1  0
 16 17  2  0
 18 16  1  0
 19 18  1  6
 19 21  1  0
 20 19  1  0
 20 13  1  0
 21 22  2  0
 23 24  1  0
 23 21  1  0
 24 28  1  0
 24 25  1  6
 26 25  1  0
 26 30  1  0
 27 26  2  0
 28 29  2  0
 28 31  1  0
M  END
$$$$
