WND.pdb
     RDKit          3D

 31 32  0  0  1  0  0  0  0  0999 V2000
    9.1682  -14.9801   24.0812 N   0  0  0  0  0  0  0  0  0  0  0  0
    8.1766  -15.8146   23.4189 C   0  0  1  0  0  0  0  0  0  0  0  0
    6.8223  -15.1834   23.7693 C   0  0  0  0  0  0  0  0  0  0  0  0
    6.9160  -14.8026   25.1994 C   0  0  0  0  0  0  0  0  0  0  0  0
    6.9422  -15.6193   26.3084 C   0  0  0  0  0  0  0  0  0  0  0  0
    7.0287  -14.8852   27.4296 N   0  0  0  0  0  0  0  0  0  0  0  0
    7.0604  -13.5870   27.0746 C   0  0  0  0  0  0  0  0  0  0  0  0
    7.1456  -12.4132   27.7845 C   0  0  0  0  0  0  0  0  0  0  0  0
    7.1638  -11.1944   27.1620 C   0  0  0  0  0  0  0  0  0  0  0  0
    7.0946  -11.1305   25.7841 C   0  0  0  0  0  0  0  0  0  0  0  0
    7.0085  -12.2963   25.0513 C   0  0  0  0  0  0  0  0  0  0  0  0
    6.9911  -13.5127   25.6820 C   0  0  0  0  0  0  0  0  0  0  0  0
    8.3893  -15.9037   21.9764 C   0  0  0  0  0  0  0  0  0  0  0  0
    7.6164  -16.6137   21.2858 O   0  0  0  0  0  0  0  0  0  0  0  0
    7.9029  -12.6018   19.6673 N   0  0  0  0  0  0  0  0  0  0  0  0
    8.1664  -13.8478   19.0343 C   0  0  0  0  0  0  0  0  0  0  0  0
    7.2010  -14.4782   18.5155 O   0  0  0  0  0  0  0  0  0  0  0  0
    9.5628  -14.3127   19.0326 C   0  0  0  0  0  0  0  0  0  0  0  0
    9.7959  -15.5111   19.9275 C   0  0  2  0  0  0  0  0  0  0  0  0
    9.4383  -15.2210   21.3047 N   0  0  0  0  0  0  0  0  0  0  0  0
   11.2366  -15.9101   19.8966 C   0  0  0  0  0  0  0  0  0  0  0  0
   11.7232  -16.4647   18.8679 O   0  0  0  0  0  0  0  0  0  0  0  0
   12.1016  -15.6886   20.9924 N   0  0  0  0  0  0  0  0  0  0  0  0
   13.4609  -16.2684   20.9637 C   0  0  1  0  0  0  0  0  0  0  0  0
   14.4547  -15.1771   20.7255 C   0  0  0  0  0  0  0  0  0  0  0  0
   14.6124  -14.8820   19.3090 C   0  0  0  0  0  0  0  0  0  0  0  0
   14.0367  -15.5148   18.4229 O   0  0  0  0  0  0  0  0  0  0  0  0
   13.6643  -16.9495   22.2714 C   0  0  0  0  0  0  0  0  0  0  0  0
   13.6727  -16.3566   23.3698 O   0  0  0  0  0  0  0  0  0  0  0  0
   15.4478  -13.8364   18.8623 O   0  0  0  0  0  0  0  0  0  0  0  0
   13.8575  -18.3334   22.2796 O   0  0  0  0  0  0  0  0  0  0  0  0
  2 13  1  0
  2  1  1  1
  3  2  1  0
  4  3  1  0
  4  5  2  0
  6  5  1  0
  7 12  2  0
  7  6  1  0
  8  7  1  0
  9 10  1  0
  9  8  2  0
 10 11  2  0
 11 12  1  0
 12  4  1  0
 13 14  2  0
 15 16  1  0
 16 17  2  0
 18 16  1  0
 19 18  1  6
 19 21  1  0
 20 19  1  0
 20 13  1  0
 21 22  2  0
 23 24  1  0
 23 21  1  0
 24 28  1  0
 24 25  1  1
 26 25  1  0
 26 30  1  0
 27 26  2  0
 28 29  2  0
 28 31  1  0
M  END
$$$$
