WND.pdb
     RDKit          3D

 31 32  0  0  1  0  0  0  0  0999 V2000
    6.4778  -17.4503   24.4210 N   0  0  0  0  0  0  0  0  0  0  0  0
    6.9445  -16.1606   23.9338 C   0  0  1  0  0  0  0  0  0  0  0  0
    8.1142  -15.7836   24.8530 C   0  0  0  0  0  0  0  0  0  0  0  0
    7.5192  -14.9831   25.9504 C   0  0  0  0  0  0  0  0  0  0  0  0
    6.9184  -15.4227   27.1094 C   0  0  0  0  0  0  0  0  0  0  0  0
    6.5020  -14.3803   27.8465 N   0  0  0  0  0  0  0  0  0  0  0  0
    6.8213  -13.2512   27.1866 C   0  0  0  0  0  0  0  0  0  0  0  0
    6.6472  -11.9149   27.4572 C   0  0  0  0  0  0  0  0  0  0  0  0
    7.0805  -10.9430   26.5965 C   0  0  0  0  0  0  0  0  0  0  0  0
    7.7104  -11.3032   25.4213 C   0  0  0  0  0  0  0  0  0  0  0  0
    7.8959  -12.6388   25.1292 C   0  0  0  0  0  0  0  0  0  0  0  0
    7.4594  -13.6059   25.9963 C   0  0  0  0  0  0  0  0  0  0  0  0
    7.3359  -16.1988   22.5270 C   0  0  0  0  0  0  0  0  0  0  0  0
    7.6540  -17.2985   22.0091 O   0  0  0  0  0  0  0  0  0  0  0  0
    8.7187  -12.7128   17.7360 N   0  0  0  0  0  0  0  0  0  0  0  0
    7.9443  -13.8183   18.1842 C   0  0  0  0  0  0  0  0  0  0  0  0
    7.6696  -14.7374   17.3605 O   0  0  0  0  0  0  0  0  0  0  0  0
    7.5168  -13.8058   19.5925 C   0  0  0  0  0  0  0  0  0  0  0  0
    7.8513  -15.0841   20.3310 C   0  0  2  0  0  0  0  0  0  0  0  0
    7.3768  -15.0426   21.7028 N   0  0  0  0  0  0  0  0  0  0  0  0
    9.3313  -15.2960   20.3585 C   0  0  0  0  0  0  0  0  0  0  0  0
   10.1023  -14.3649   20.7341 O   0  0  0  0  0  0  0  0  0  0  0  0
    9.9224  -16.5214   19.9755 N   0  0  0  0  0  0  0  0  0  0  0  0
   11.3896  -16.5912   19.8106 C   0  0  1  0  0  0  0  0  0  0  0  0
   11.8980  -17.8358   20.4645 C   0  0  0  0  0  0  0  0  0  0  0  0
   12.0054  -17.6890   21.9086 C   0  0  0  0  0  0  0  0  0  0  0  0
   12.7277  -16.8488   22.4465 O   0  0  0  0  0  0  0  0  0  0  0  0
   11.6584  -16.5652   18.3469 C   0  0  0  0  0  0  0  0  0  0  0  0
   10.7877  -16.7720   17.4768 O   0  0  0  0  0  0  0  0  0  0  0  0
   11.2759  -18.5149   22.7899 O   0  0  0  0  0  0  0  0  0  0  0  0
   12.9584  -16.2940   17.9123 O   0  0  0  0  0  0  0  0  0  0  0  0
  2 13  1  0
  2  1  1  1
  3  2  1  0
  4  3  1  0
  4  5  2  0
  6  5  1  0
  7 12  2  0
  7  6  1  0
  8  7  1  0
  9 10  1  0
  9  8  2  0
 10 11  2  0
 11 12  1  0
 12  4  1  0
 13 14  2  0
 15 16  1  0
 16 17  2  0
 18 16  1  0
 19 18  1  1
 19 21  1  0
 20 19  1  0
 20 13  1  0
 21 22  2  0
 23 24  1  0
 23 21  1  0
 24 28  1  0
 24 25  1  6
 26 25  1  0
 26 30  1  0
 27 26  2  0
 28 29  2  0
 28 31  1  0
M  END
$$$$
