IWS.pdb
     RDKit          3D

 29 30  0  0  1  0  0  0  0  0999 V2000
    6.7828  -12.5269   19.2856 C   0  0  0  0  0  0  0  0  0  0  0  0
    7.2426  -13.9594   19.5585 C   0  0  0  0  0  0  0  0  0  0  0  0
    8.0529  -14.0230   20.8383 C   0  0  2  0  0  0  0  0  0  0  0  0
    9.1266  -12.9948   20.7703 C   0  0  0  0  0  0  0  0  0  0  0  0
    8.4853  -15.3917   21.1946 C   0  0  2  0  0  0  0  0  0  0  0  0
    7.3254  -16.2757   21.0634 N   0  0  0  0  0  0  0  0  0  0  0  0
    9.1208  -15.5303   22.5184 C   0  0  0  0  0  0  0  0  0  0  0  0
   10.1091  -14.8123   22.8150 O   0  0  0  0  0  0  0  0  0  0  0  0
    8.6964  -16.4327   23.5117 N   0  0  0  0  0  0  0  0  0  0  0  0
    9.2864  -16.6578   24.7838 C   0  0  1  0  0  0  0  0  0  0  0  0
    8.1393  -16.7388   25.8022 C   0  0  0  0  0  0  0  0  0  0  0  0
    7.2592  -15.5414   25.6564 C   0  0  0  0  0  0  0  0  0  0  0  0
    6.0167  -15.4511   25.0736 C   0  0  0  0  0  0  0  0  0  0  0  0
    5.6375  -14.1667   25.1954 N   0  0  0  0  0  0  0  0  0  0  0  0
    6.5698  -13.4480   25.8201 C   0  0  0  0  0  0  0  0  0  0  0  0
    6.6831  -12.1227   26.1909 C   0  0  0  0  0  0  0  0  0  0  0  0
    7.7933  -11.6307   26.8477 C   0  0  0  0  0  0  0  0  0  0  0  0
    8.8443  -12.4670   27.1592 C   0  0  0  0  0  0  0  0  0  0  0  0
    8.7282  -13.7952   26.7865 C   0  0  0  0  0  0  0  0  0  0  0  0
    7.6160  -14.2891   26.1284 C   0  0  0  0  0  0  0  0  0  0  0  0
   10.2097  -17.7659   24.8894 C   0  0  0  0  0  0  0  0  0  0  0  0
    9.7923  -18.9312   24.6917 O   0  0  0  0  0  0  0  0  0  0  0  0
   13.7514  -17.7349   23.5660 O   0  0  0  0  0  0  0  0  0  0  0  0
   13.8564  -18.3601   24.8173 C   0  0  0  0  0  0  0  0  0  0  0  0
   12.5033  -18.7375   25.3593 C   0  0  2  0  0  0  0  0  0  0  0  0
   11.5859  -17.6255   25.2080 N   0  0  0  0  0  0  0  0  0  0  0  0
   12.6646  -19.1236   26.7853 C   0  0  0  0  0  0  0  0  0  0  0  0
   13.4661  -20.0405   27.0844 O   0  0  0  0  0  0  0  0  0  0  0  0
   11.9298  -18.4659   27.7515 O   0  0  0  0  0  0  0  0  0  0  0  0
  2  1  1  0
  3  2  1  0
  3  4  1  6
  5  3  1  0
  5  6  1  1
  7  5  1  0
  8  7  2  0
  9  7  1  0
 10  9  1  0
 11 12  1  0
 10 11  1  1
 12 20  1  0
 12 13  2  0
 13 14  1  0
 15 14  1  0
 15 16  2  0
 17 16  1  0
 18 17  2  0
 19 18  1  0
 19 20  2  0
 20 15  1  0
 21 22  2  0
 21 10  1  0
 25 24  1  1
 24 23  1  0
 25 26  1  0
 26 21  1  0
 27 25  1  0
 28 27  2  0
 29 27  1  0
M  END
$$$$
