IWS.pdb
     RDKit          3D

 29 30  0  0  1  0  0  0  0  0999 V2000
    8.2435  -12.2375   19.3010 C   0  0  0  0  0  0  0  0  0  0  0  0
    7.6159  -13.1324   20.3703 C   0  0  0  0  0  0  0  0  0  0  0  0
    7.8507  -14.5945   20.0447 C   0  0  2  0  0  0  0  0  0  0  0  0
    7.2603  -14.8827   18.7093 C   0  0  0  0  0  0  0  0  0  0  0  0
    7.4630  -15.5113   21.1384 C   0  0  2  0  0  0  0  0  0  0  0  0
    6.0064  -15.4531   21.2758 N   0  0  0  0  0  0  0  0  0  0  0  0
    8.1354  -15.2759   22.4300 C   0  0  0  0  0  0  0  0  0  0  0  0
    8.1391  -14.1230   22.9311 O   0  0  0  0  0  0  0  0  0  0  0  0
    8.7966  -16.2714   23.1733 N   0  0  0  0  0  0  0  0  0  0  0  0
    9.7095  -16.0863   24.2454 C   0  0  1  0  0  0  0  0  0  0  0  0
    8.9893  -16.5266   25.5288 C   0  0  0  0  0  0  0  0  0  0  0  0
    7.7860  -15.6690   25.7431 C   0  0  0  0  0  0  0  0  0  0  0  0
    6.4569  -16.0110   25.6526 C   0  0  0  0  0  0  0  0  0  0  0  0
    5.7621  -14.8955   25.9370 N   0  0  0  0  0  0  0  0  0  0  0  0
    6.5783  -13.8754   26.2002 C   0  0  0  0  0  0  0  0  0  0  0  0
    6.3924  -12.5498   26.5392 C   0  0  0  0  0  0  0  0  0  0  0  0
    7.4480  -11.6883   26.7618 C   0  0  0  0  0  0  0  0  0  0  0  0
    8.7471  -12.1366   26.6494 C   0  0  0  0  0  0  0  0  0  0  0  0
    8.9306  -13.4660   26.3095 C   0  0  0  0  0  0  0  0  0  0  0  0
    7.8735  -14.3300   26.0863 C   0  0  0  0  0  0  0  0  0  0  0  0
   11.0173  -16.6869   24.1016 C   0  0  0  0  0  0  0  0  0  0  0  0
   11.1109  -17.9329   24.0018 O   0  0  0  0  0  0  0  0  0  0  0  0
   15.8662  -16.0227   23.6228 O   0  0  0  0  0  0  0  0  0  0  0  0
   14.5741  -15.4820   23.6985 C   0  0  0  0  0  0  0  0  0  0  0  0
   13.5438  -16.5512   23.9492 C   0  0  2  0  0  0  0  0  0  0  0  0
   12.2300  -15.9499   24.0646 N   0  0  0  0  0  0  0  0  0  0  0  0
   13.9225  -17.2807   25.1873 C   0  0  0  0  0  0  0  0  0  0  0  0
   13.1755  -17.2103   26.1922 O   0  0  0  0  0  0  0  0  0  0  0  0
   15.0878  -18.0207   25.2069 O   0  0  0  0  0  0  0  0  0  0  0  0
  2  1  1  0
  3  2  1  0
  3  4  1  6
  5  3  1  0
  5  6  1  1
  7  5  1  0
  8  7  2  0
  9  7  1  0
 10  9  1  0
 11 12  1  0
 10 11  1  1
 12 20  1  0
 12 13  2  0
 13 14  1  0
 15 14  1  0
 15 16  2  0
 17 16  1  0
 18 17  2  0
 19 18  1  0
 19 20  2  0
 20 15  1  0
 21 22  2  0
 21 10  1  0
 25 24  1  1
 24 23  1  0
 25 26  1  0
 26 21  1  0
 27 25  1  0
 28 27  2  0
 29 27  1  0
M  END
$$$$
