IWS.pdb
     RDKit          3D

 29 30  0  0  1  0  0  0  0  0999 V2000
    6.7276  -12.5338   18.9825 C   0  0  0  0  0  0  0  0  0  0  0  0
    7.1447  -13.9578   19.3516 C   0  0  0  0  0  0  0  0  0  0  0  0
    7.9566  -13.9590   20.6320 C   0  0  2  0  0  0  0  0  0  0  0  0
    9.0147  -12.9181   20.5225 C   0  0  0  0  0  0  0  0  0  0  0  0
    8.4097  -15.3060   21.0412 C   0  0  2  0  0  0  0  0  0  0  0  0
    7.2337  -16.1767   21.0938 N   0  0  0  0  0  0  0  0  0  0  0  0
    9.1768  -15.3606   22.2998 C   0  0  0  0  0  0  0  0  0  0  0  0
   10.2410  -14.7008   22.4117 O   0  0  0  0  0  0  0  0  0  0  0  0
    8.8017  -16.1177   23.4254 N   0  0  0  0  0  0  0  0  0  0  0  0
    9.5349  -16.2994   24.6281 C   0  0  1  0  0  0  0  0  0  0  0  0
    8.5114  -16.5755   25.7399 C   0  0  0  0  0  0  0  0  0  0  0  0
    7.4392  -15.5371   25.6979 C   0  0  0  0  0  0  0  0  0  0  0  0
    6.1506  -15.6475   25.2299 C   0  0  0  0  0  0  0  0  0  0  0  0
    5.5809  -14.4431   25.4117 N   0  0  0  0  0  0  0  0  0  0  0  0
    6.4372  -13.5856   25.9660 C   0  0  0  0  0  0  0  0  0  0  0  0
    6.3674  -12.2618   26.3528 C   0  0  0  0  0  0  0  0  0  0  0  0
    7.4382  -11.5990   26.9185 C   0  0  0  0  0  0  0  0  0  0  0  0
    8.6349  -12.2543   27.1178 C   0  0  0  0  0  0  0  0  0  0  0  0
    8.7023  -13.5812   26.7292 C   0  0  0  0  0  0  0  0  0  0  0  0
    7.6297  -14.2463   26.1624 C   0  0  0  0  0  0  0  0  0  0  0  0
   10.6077  -17.2688   24.5998 C   0  0  0  0  0  0  0  0  0  0  0  0
   10.3442  -18.4657   24.3364 O   0  0  0  0  0  0  0  0  0  0  0  0
   14.3426  -16.5743   23.4758 O   0  0  0  0  0  0  0  0  0  0  0  0
   14.3570  -17.2910   24.6816 C   0  0  0  0  0  0  0  0  0  0  0  0
   13.0262  -17.9416   24.9513 C   0  0  2  0  0  0  0  0  0  0  0  0
   11.9685  -16.9552   24.8546 N   0  0  0  0  0  0  0  0  0  0  0  0
   13.0759  -18.5600   26.3017 C   0  0  0  0  0  0  0  0  0  0  0  0
   12.2485  -18.1980   27.1717 O   0  0  0  0  0  0  0  0  0  0  0  0
   14.0309  -19.5198   26.5714 O   0  0  0  0  0  0  0  0  0  0  0  0
  2  1  1  0
  3  2  1  0
  3  4  1  6
  5  3  1  0
  5  6  1  1
  7  5  1  0
  8  7  2  0
  9  7  1  0
 10  9  1  0
 11 12  1  0
 10 11  1  1
 12 20  1  0
 12 13  2  0
 13 14  1  0
 15 14  1  0
 15 16  2  0
 17 16  1  0
 18 17  2  0
 19 18  1  0
 19 20  2  0
 20 15  1  0
 21 22  2  0
 21 10  1  0
 25 24  1  1
 24 23  1  0
 25 26  1  0
 26 21  1  0
 27 25  1  0
 28 27  2  0
 29 27  1  0
M  END
$$$$
