IWS.pdb
     RDKit          3D

 29 30  0  0  1  0  0  0  0  0999 V2000
    7.1162  -12.2737   17.3020 C   0  0  0  0  0  0  0  0  0  0  0  0
    7.6158  -13.6602   17.7099 C   0  0  0  0  0  0  0  0  0  0  0  0
    8.1163  -13.6452   19.1410 C   0  0  2  0  0  0  0  0  0  0  0  0
    9.0597  -12.5054   19.3005 C   0  0  0  0  0  0  0  0  0  0  0  0
    8.6018  -14.9614   19.6091 C   0  0  2  0  0  0  0  0  0  0  0  0
    7.5917  -15.9615   19.2582 N   0  0  0  0  0  0  0  0  0  0  0  0
    8.9564  -15.0331   21.0391 C   0  0  0  0  0  0  0  0  0  0  0  0
   10.0567  -14.5706   21.4337 O   0  0  0  0  0  0  0  0  0  0  0  0
    8.1347  -15.5971   22.0330 N   0  0  0  0  0  0  0  0  0  0  0  0
    8.3834  -15.6540   23.4301 C   0  0  1  0  0  0  0  0  0  0  0  0
    7.0156  -15.6995   24.1276 C   0  0  0  0  0  0  0  0  0  0  0  0
    7.1827  -15.3631   25.5727 C   0  0  0  0  0  0  0  0  0  0  0  0
    7.3516  -16.2123   26.6413 C   0  0  0  0  0  0  0  0  0  0  0  0
    7.4588  -15.4297   27.7294 N   0  0  0  0  0  0  0  0  0  0  0  0
    7.3669  -14.1405   27.4046 C   0  0  0  0  0  0  0  0  0  0  0  0
    7.4103  -12.9577   28.1159 C   0  0  0  0  0  0  0  0  0  0  0  0
    7.2844  -11.7243   27.5086 C   0  0  0  0  0  0  0  0  0  0  0  0
    7.1077  -11.6360   26.1440 C   0  0  0  0  0  0  0  0  0  0  0  0
    7.0646  -12.8232   25.4332 C   0  0  0  0  0  0  0  0  0  0  0  0
    7.1908  -14.0596   26.0410 C   0  0  0  0  0  0  0  0  0  0  0  0
    9.2837  -16.6872   23.8923 C   0  0  0  0  0  0  0  0  0  0  0  0
    9.0123  -17.8873   23.6529 O   0  0  0  0  0  0  0  0  0  0  0  0
   13.0984  -15.8033   25.2963 O   0  0  0  0  0  0  0  0  0  0  0  0
   12.8023  -17.0808   24.7983 C   0  0  0  0  0  0  0  0  0  0  0  0
   11.3768  -17.4684   25.0897 C   0  0  2  0  0  0  0  0  0  0  0  0
   10.4795  -16.4341   24.6141 N   0  0  0  0  0  0  0  0  0  0  0  0
   11.2421  -17.6786   26.5546 C   0  0  0  0  0  0  0  0  0  0  0  0
   10.4113  -16.9937   27.1976 O   0  0  0  0  0  0  0  0  0  0  0  0
   12.0333  -18.6226   27.1781 O   0  0  0  0  0  0  0  0  0  0  0  0
  2  1  1  0
  3  2  1  0
  3  4  1  6
  5  3  1  0
  5  6  1  1
  7  5  1  0
  8  7  2  0
  9  7  1  0
 10  9  1  0
 11 12  1  0
 10 11  1  1
 12 20  1  0
 12 13  2  0
 13 14  1  0
 15 14  1  0
 15 16  2  0
 17 16  1  0
 18 17  2  0
 19 18  1  0
 19 20  2  0
 20 15  1  0
 21 22  2  0
 21 10  1  0
 25 24  1  1
 24 23  1  0
 25 26  1  0
 26 21  1  0
 27 25  1  0
 28 27  2  0
 29 27  1  0
M  END
$$$$
