RPT.pdb
     RDKit          3D

 26 26  0  0  1  0  0  0  0  0999 V2000
    7.1656  -13.5201   17.4320 N   0  0  0  0  0  0  0  0  0  0  0  0
    7.8140  -14.7376   17.0241 C   0  0  0  0  0  0  0  0  0  0  0  0
    8.2270  -14.8168   15.8234 N   0  0  0  0  0  0  0  0  0  0  0  0
    8.0069  -15.8343   17.8957 N   0  0  0  0  0  0  0  0  0  0  0  0
    7.5682  -15.7594   19.2470 C   0  0  0  0  0  0  0  0  0  0  0  0
    7.9553  -14.4688   19.9341 C   0  0  0  0  0  0  0  0  0  0  0  0
    7.4329  -14.4121   21.3451 C   0  0  0  0  0  0  0  0  0  0  0  0
    7.8813  -13.1536   22.0659 C   0  0  2  0  0  0  0  0  0  0  0  0
    8.7347  -12.3359   21.2935 N   0  0  0  0  0  0  0  0  0  0  0  0
    8.3525  -13.4306   23.4203 C   0  0  0  0  0  0  0  0  0  0  0  0
    9.4165  -14.1468   23.4971 O   0  0  0  0  0  0  0  0  0  0  0  0
    8.6981  -15.6366   15.3945 N   0  0  0  0  0  0  0  0  0  0  0  0
    7.7811  -13.0050   24.6633 C   0  0  0  0  0  0  0  0  0  0  0  0
    6.6490  -12.1407   24.7592 C   0  0  0  0  0  0  0  0  0  0  0  0
    5.9805  -12.5649   26.0763 C   0  0  0  0  0  0  0  0  0  0  0  0
    7.1871  -12.8745   26.9244 C   0  0  2  0  0  0  0  0  0  0  0  0
    8.2371  -13.3638   25.9753 C   0  0  0  0  0  0  0  0  0  0  0  0
    8.3813  -14.8128   26.1852 O   0  0  0  0  0  0  0  0  0  0  0  0
    7.4364  -15.5949   25.9808 C   0  0  0  0  0  0  0  0  0  0  0  0
   10.5998  -17.2403   24.5975 C   0  0  2  0  0  0  0  0  0  0  0  0
   10.9673  -17.2080   26.0451 O   0  0  0  0  0  0  0  0  0  0  0  0
   12.1087  -16.4313   26.2450 C   0  0  2  0  0  0  0  0  0  0  0  0
    9.8563  -16.7230   26.9495 N   0  0  0  0  0  0  0  0  0  0  0  0
    9.6265  -15.3184   26.6293 C   0  0  0  0  0  0  0  0  0  0  0  0
   10.3078  -16.8151   28.3412 O   0  0  0  0  0  0  0  0  0  0  0  0
   10.5347  -15.6569   29.0916 O   0  0  0  0  0  0  0  0  0  0  0  0
  2  4  1  0
  2  1  1  0
  3  2  2  0
  4  5  1  0
  6  5  1  0
  6  7  1  0
  7  8  1  0
  8  9  1  6
  8 10  1  0
 10 12  1  0
 11 10  2  0
 12 16  1  0
 12 13  1  0
 13 14  1  0
 14 15  1  0
 16 15  1  0
 17 23  1  0
 16 17  1  1
 18 17  2  0
 20 19  1  6
 20 22  1  0
 21 20  1  0
 22 24  1  0
 22 23  1  1
 24 25  1  0
 26 24  2  0
M  END
$$$$
