RPT.pdb
     RDKit          3D

 26 26  0  0  1  0  0  0  0  0999 V2000
    5.8901  -19.3861   20.1418 N   0  0  0  0  0  0  0  0  0  0  0  0
    6.7727  -18.6619   19.2666 C   0  0  0  0  0  0  0  0  0  0  0  0
    6.4028  -18.4879   18.0618 N   0  0  0  0  0  0  0  0  0  0  0  0
    8.0185  -18.1436   19.6895 N   0  0  0  0  0  0  0  0  0  0  0  0
    8.0965  -17.3312   20.8549 C   0  0  0  0  0  0  0  0  0  0  0  0
    6.9013  -16.4221   21.0351 C   0  0  0  0  0  0  0  0  0  0  0  0
    6.9407  -15.7086   22.3605 C   0  0  0  0  0  0  0  0  0  0  0  0
    7.8999  -14.5322   22.3432 C   0  0  2  0  0  0  0  0  0  0  0  0
    8.7845  -14.5428   21.2427 N   0  0  0  0  0  0  0  0  0  0  0  0
    8.5335  -14.3166   23.6413 C   0  0  0  0  0  0  0  0  0  0  0  0
    9.6722  -14.8904   23.8000 O   0  0  0  0  0  0  0  0  0  0  0  0
    6.9702  -18.0559   17.3073 N   0  0  0  0  0  0  0  0  0  0  0  0
    8.0476  -13.5499   24.7498 C   0  0  0  0  0  0  0  0  0  0  0  0
    6.9550  -12.6354   24.6613 C   0  0  0  0  0  0  0  0  0  0  0  0
    6.3450  -12.6629   26.0715 C   0  0  0  0  0  0  0  0  0  0  0  0
    7.5844  -12.7975   26.9182 C   0  0  2  0  0  0  0  0  0  0  0  0
    8.5617  -13.5719   26.0889 C   0  0  0  0  0  0  0  0  0  0  0  0
    8.6640  -14.9194   26.6705 O   0  0  0  0  0  0  0  0  0  0  0  0
    7.6611  -15.6393   26.8196 C   0  0  0  0  0  0  0  0  0  0  0  0
   10.8521  -17.6546   25.4640 C   0  0  2  0  0  0  0  0  0  0  0  0
   11.2219  -17.4048   26.8897 O   0  0  0  0  0  0  0  0  0  0  0  0
   12.4138  -16.6843   26.9690 C   0  0  2  0  0  0  0  0  0  0  0  0
   10.1472  -16.7009   27.6879 N   0  0  0  0  0  0  0  0  0  0  0  0
    9.9359  -15.3984   27.0656 C   0  0  0  0  0  0  0  0  0  0  0  0
   10.6368  -16.4901   29.0536 O   0  0  0  0  0  0  0  0  0  0  0  0
   10.8190  -17.5748   29.9175 O   0  0  0  0  0  0  0  0  0  0  0  0
  2  4  1  0
  2  1  1  0
  3  2  2  0
  4  5  1  0
  6  5  1  0
  6  7  1  0
  7  8  1  0
  8  9  1  6
  8 10  1  0
 10 12  1  0
 11 10  2  0
 12 16  1  0
 12 13  1  0
 13 14  1  0
 14 15  1  0
 16 15  1  0
 17 23  1  0
 16 17  1  1
 18 17  2  0
 20 19  1  1
 20 22  1  0
 21 20  1  0
 22 24  1  0
 22 23  1  1
 24 25  1  0
 26 24  2  0
M  END
$$$$
