RPT.pdb
     RDKit          3D

 26 26  0  0  1  0  0  0  0  0999 V2000
    8.8448  -17.7562   18.3200 N   0  0  0  0  0  0  0  0  0  0  0  0
    8.4622  -18.5109   19.4833 C   0  0  0  0  0  0  0  0  0  0  0  0
    9.2016  -19.4876   19.8269 N   0  0  0  0  0  0  0  0  0  0  0  0
    7.3112  -18.2119   20.2485 N   0  0  0  0  0  0  0  0  0  0  0  0
    6.9696  -16.8593   20.5274 C   0  0  0  0  0  0  0  0  0  0  0  0
    7.0058  -16.5217   22.0012 C   0  0  0  0  0  0  0  0  0  0  0  0
    6.4660  -15.1417   22.2687 C   0  0  0  0  0  0  0  0  0  0  0  0
    7.5751  -14.1121   22.3878 C   0  0  2  0  0  0  0  0  0  0  0  0
    8.4600  -14.1074   21.2875 N   0  0  0  0  0  0  0  0  0  0  0  0
    8.2203  -14.1438   23.6976 C   0  0  0  0  0  0  0  0  0  0  0  0
    9.2543  -14.9016   23.7835 O   0  0  0  0  0  0  0  0  0  0  0  0
    9.0272  -20.1330   20.6212 N   0  0  0  0  0  0  0  0  0  0  0  0
    7.8473  -13.4394   24.8881 C   0  0  0  0  0  0  0  0  0  0  0  0
    6.8127  -12.4569   24.9352 C   0  0  0  0  0  0  0  0  0  0  0  0
    6.2816  -12.5592   26.3736 C   0  0  0  0  0  0  0  0  0  0  0  0
    7.5549  -12.8345   27.1312 C   0  0  2  0  0  0  0  0  0  0  0  0
    8.4326  -13.5981   26.1882 C   0  0  0  0  0  0  0  0  0  0  0  0
    8.4799  -14.9911   26.6592 O   0  0  0  0  0  0  0  0  0  0  0  0
    7.4436  -15.6639   26.7992 C   0  0  0  0  0  0  0  0  0  0  0  0
   10.6489  -17.7109   25.1829 C   0  0  2  0  0  0  0  0  0  0  0  0
   10.9848  -17.5816   26.6328 O   0  0  0  0  0  0  0  0  0  0  0  0
   12.1824  -16.8860   26.7995 C   0  0  2  0  0  0  0  0  0  0  0  0
    9.8980  -16.9299   27.4585 N   0  0  0  0  0  0  0  0  0  0  0  0
    9.7370  -15.5695   26.9565 C   0  0  0  0  0  0  0  0  0  0  0  0
   10.3435  -16.8613   28.8535 O   0  0  0  0  0  0  0  0  0  0  0  0
   10.4514  -18.0249   29.6219 O   0  0  0  0  0  0  0  0  0  0  0  0
  2  4  1  0
  2  1  1  0
  3  2  2  0
  4  5  1  0
  6  5  1  0
  6  7  1  0
  7  8  1  0
  8  9  1  6
  8 10  1  0
 10 12  1  0
 11 10  2  0
 12 16  1  0
 12 13  1  0
 13 14  1  0
 14 15  1  0
 16 15  1  0
 17 23  1  0
 16 17  1  1
 18 17  2  0
 20 19  1  6
 20 22  1  0
 21 20  1  0
 22 24  1  0
 22 23  1  1
 24 25  1  0
 26 24  2  0
M  END
$$$$
