RPT.pdb
     RDKit          3D

 26 26  0  0  1  0  0  0  0  0999 V2000
    8.4961  -12.1699   18.2967 N   0  0  0  0  0  0  0  0  0  0  0  0
    7.6941  -13.1271   17.5828 C   0  0  0  0  0  0  0  0  0  0  0  0
    7.8578  -13.2179   16.3244 N   0  0  0  0  0  0  0  0  0  0  0  0
    6.7440  -13.9594   18.2186 N   0  0  0  0  0  0  0  0  0  0  0  0
    6.7183  -14.0609   19.6375 C   0  0  0  0  0  0  0  0  0  0  0  0
    7.3005  -15.3559   20.1583 C   0  0  0  0  0  0  0  0  0  0  0  0
    7.3491  -15.3779   21.6631 C   0  0  0  0  0  0  0  0  0  0  0  0
    8.6325  -14.7686   22.1982 C   0  0  2  0  0  0  0  0  0  0  0  0
    9.7810  -15.1414   21.4663 N   0  0  0  0  0  0  0  0  0  0  0  0
    8.7508  -14.9129   23.6466 C   0  0  0  0  0  0  0  0  0  0  0  0
    9.5801  -15.8102   24.0443 O   0  0  0  0  0  0  0  0  0  0  0  0
    7.3702  -13.8829   15.6936 N   0  0  0  0  0  0  0  0  0  0  0  0
    8.0638  -14.1832   24.6705 C   0  0  0  0  0  0  0  0  0  0  0  0
    7.0760  -13.1874   24.4054 C   0  0  0  0  0  0  0  0  0  0  0  0
    6.1529  -13.2579   25.6320 C   0  0  0  0  0  0  0  0  0  0  0  0
    7.1504  -13.5356   26.7269 C   0  0  1  0  0  0  0  0  0  0  0  0
    8.2487  -14.3264   26.0859 C   0  0  0  0  0  0  0  0  0  0  0  0
    8.1354  -15.7114   26.5690 O   0  0  0  0  0  0  0  0  0  0  0  0
    7.0401  -16.2992   26.6020 C   0  0  0  0  0  0  0  0  0  0  0  0
    9.3482  -18.8760   25.3479 C   0  0  2  0  0  0  0  0  0  0  0  0
   10.0548  -18.6206   26.6391 O   0  0  0  0  0  0  0  0  0  0  0  0
   11.3260  -18.0948   26.4078 C   0  0  2  0  0  0  0  0  0  0  0  0
    9.2950  -17.7187   27.5862 N   0  0  0  0  0  0  0  0  0  0  0  0
    9.3042  -16.3814   27.0032 C   0  0  0  0  0  0  0  0  0  0  0  0
   10.0077  -17.6730   28.8665 O   0  0  0  0  0  0  0  0  0  0  0  0
   10.0404  -18.7948   29.7009 O   0  0  0  0  0  0  0  0  0  0  0  0
  2  4  1  0
  2  1  1  0
  3  2  2  0
  4  5  1  0
  6  5  1  0
  6  7  1  0
  7  8  1  0
  8  9  1  6
  8 10  1  0
 10 12  1  0
 11 10  2  0
 12 16  1  0
 12 13  1  0
 13 14  1  0
 14 15  1  0
 16 15  1  0
 17 23  1  0
 16 17  1  1
 18 17  2  0
 20 19  1  6
 20 22  1  0
 21 20  1  0
 22 24  1  0
 22 23  1  1
 24 25  1  0
 26 24  2  0
M  END
$$$$
