RPT.pdb
     RDKit          3D

 26 26  0  0  1  0  0  0  0  0999 V2000
    7.8049  -18.7584   12.3059 N   0  0  0  0  0  0  0  0  0  0  0  0
    6.6452  -18.0155   12.7211 C   0  0  0  0  0  0  0  0  0  0  0  0
    6.1873  -17.1355   11.9245 N   0  0  0  0  0  0  0  0  0  0  0  0
    6.0041  -18.2239   13.9642 N   0  0  0  0  0  0  0  0  0  0  0  0
    6.7413  -18.1145   15.1761 C   0  0  0  0  0  0  0  0  0  0  0  0
    7.6447  -16.9024   15.2229 C   0  0  0  0  0  0  0  0  0  0  0  0
    8.3958  -16.8192   16.5253 C   0  0  0  0  0  0  0  0  0  0  0  0
    9.3261  -15.6204   16.5680 C   0  0  2  0  0  0  0  0  0  0  0  0
   10.4455  -15.7454   15.7164 N   0  0  0  0  0  0  0  0  0  0  0  0
    9.6343  -15.2084   17.9348 C   0  0  0  0  0  0  0  0  0  0  0  0
   10.6787  -15.7508   18.4508 O   0  0  0  0  0  0  0  0  0  0  0  0
    5.4177  -16.4697   12.1302 N   0  0  0  0  0  0  0  0  0  0  0  0
    8.9235  -14.2813   18.7642 C   0  0  0  0  0  0  0  0  0  0  0  0
    7.8634  -13.4495   18.2929 C   0  0  0  0  0  0  0  0  0  0  0  0
    6.9771  -13.2554   19.5332 C   0  0  0  0  0  0  0  0  0  0  0  0
    8.0174  -13.1794   20.6209 C   0  0  1  0  0  0  0  0  0  0  0  0
    9.1518  -14.0415   20.1600 C   0  0  0  0  0  0  0  0  0  0  0  0
    9.1458  -15.2584   20.9869 O   0  0  0  0  0  0  0  0  0  0  0  0
    8.1735  -16.0335   20.9929 C   0  0  0  0  0  0  0  0  0  0  0  0
   12.0747  -17.6164   20.7608 C   0  0  2  0  0  0  0  0  0  0  0  0
   11.8495  -17.2951   22.2023 O   0  0  0  0  0  0  0  0  0  0  0  0
   12.7866  -16.3639   22.6502 C   0  0  2  0  0  0  0  0  0  0  0  0
   10.4534  -16.8010   22.5097 N   0  0  0  0  0  0  0  0  0  0  0  0
   10.2759  -15.5448   21.7895 C   0  0  0  0  0  0  0  0  0  0  0  0
   10.3554  -16.5309   23.9473 O   0  0  0  0  0  0  0  0  0  0  0  0
   10.2050  -15.2213   24.4146 O   0  0  0  0  0  0  0  0  0  0  0  0
  2  4  1  0
  2  1  1  0
  3  2  2  0
  4  5  1  0
  6  5  1  0
  6  7  1  0
  7  8  1  0
  8  9  1  1
  8 10  1  0
 10 12  1  0
 11 10  2  0
 12 16  1  0
 12 13  1  0
 13 14  1  0
 14 15  1  0
 16 15  1  0
 17 23  1  0
 16 17  1  1
 18 17  2  0
 20 19  1  1
 20 22  1  0
 21 20  1  0
 22 24  1  0
 22 23  1  1
 24 25  1  0
 26 24  2  0
M  END
$$$$
