RPT.pdb
     RDKit          3D

 26 26  0  0  1  0  0  0  0  0999 V2000
    6.9806  -12.6903   18.0774 N   0  0  0  0  0  0  0  0  0  0  0  0
    7.3908  -13.7682   17.2177 C   0  0  0  0  0  0  0  0  0  0  0  0
    7.6286  -13.4969   15.9977 N   0  0  0  0  0  0  0  0  0  0  0  0
    7.5376  -15.0994   17.6716 N   0  0  0  0  0  0  0  0  0  0  0  0
    7.3260  -15.4146   19.0428 C   0  0  0  0  0  0  0  0  0  0  0  0
    7.6740  -14.2807   19.9811 C   0  0  0  0  0  0  0  0  0  0  0  0
    7.6051  -14.7109   21.4224 C   0  0  0  0  0  0  0  0  0  0  0  0
    8.9135  -14.4639   22.1513 C   0  0  2  0  0  0  0  0  0  0  0  0
   10.0295  -15.0581   21.5227 N   0  0  0  0  0  0  0  0  0  0  0  0
    8.8044  -14.7205   23.5849 C   0  0  0  0  0  0  0  0  0  0  0  0
    9.5267  -15.6867   24.0276 O   0  0  0  0  0  0  0  0  0  0  0  0
    7.9286  -14.1747   15.2707 N   0  0  0  0  0  0  0  0  0  0  0  0
    7.9999  -14.0335   24.5510 C   0  0  0  0  0  0  0  0  0  0  0  0
    7.0632  -13.0095   24.2165 C   0  0  0  0  0  0  0  0  0  0  0  0
    5.9912  -13.1280   25.3111 C   0  0  0  0  0  0  0  0  0  0  0  0
    6.8390  -13.4777   26.5070 C   0  0  1  0  0  0  0  0  0  0  0  0
    8.0023  -14.2521   25.9689 C   0  0  0  0  0  0  0  0  0  0  0  0
    7.8155  -15.6581   26.3597 O   0  0  0  0  0  0  0  0  0  0  0  0
    6.7264  -16.2364   26.1997 C   0  0  0  0  0  0  0  0  0  0  0  0
    8.9266  -18.7718   25.1489 C   0  0  2  0  0  0  0  0  0  0  0  0
    9.5765  -18.6093   26.4842 O   0  0  0  0  0  0  0  0  0  0  0  0
   10.8776  -18.1267   26.3419 C   0  0  2  0  0  0  0  0  0  0  0  0
    8.8060  -17.7234   27.4377 N   0  0  0  0  0  0  0  0  0  0  0  0
    8.9050  -16.3596   26.9291 C   0  0  0  0  0  0  0  0  0  0  0  0
    9.4491  -17.7767   28.7540 O   0  0  0  0  0  0  0  0  0  0  0  0
    9.3279  -18.9151   29.5574 O   0  0  0  0  0  0  0  0  0  0  0  0
  2  4  1  0
  2  1  1  0
  3  2  2  0
  4  5  1  0
  6  5  1  0
  6  7  1  0
  7  8  1  0
  8  9  1  6
  8 10  1  0
 10 12  1  0
 11 10  2  0
 12 16  1  0
 12 13  1  0
 13 14  1  0
 14 15  1  0
 16 15  1  0
 17 23  1  0
 16 17  1  1
 18 17  2  0
 20 19  1  6
 20 22  1  0
 21 20  1  0
 22 24  1  0
 22 23  1  1
 24 25  1  0
 26 24  2  0
M  END
$$$$
