RPT.pdb
     RDKit          3D

 26 26  0  0  1  0  0  0  0  0999 V2000
    5.2021  -18.8880   18.1491 N   0  0  0  0  0  0  0  0  0  0  0  0
    6.5250  -18.6013   18.6358 C   0  0  0  0  0  0  0  0  0  0  0  0
    7.3945  -18.2071   17.7948 N   0  0  0  0  0  0  0  0  0  0  0  0
    6.8901  -18.7394   19.9949 N   0  0  0  0  0  0  0  0  0  0  0  0
    6.2699  -17.9305   20.9876 C   0  0  0  0  0  0  0  0  0  0  0  0
    6.7740  -16.5046   21.0023 C   0  0  0  0  0  0  0  0  0  0  0  0
    7.5441  -16.2004   22.2599 C   0  0  0  0  0  0  0  0  0  0  0  0
    7.9916  -14.7509   22.3145 C   0  0  2  0  0  0  0  0  0  0  0  0
    8.7611  -14.3565   21.1983 N   0  0  0  0  0  0  0  0  0  0  0  0
    8.5609  -14.3967   23.6119 C   0  0  0  0  0  0  0  0  0  0  0  0
    9.7384  -14.8574   23.8405 O   0  0  0  0  0  0  0  0  0  0  0  0
    8.4078  -18.0797   17.9814 N   0  0  0  0  0  0  0  0  0  0  0  0
    7.9749  -13.6047   24.6521 C   0  0  0  0  0  0  0  0  0  0  0  0
    6.8665  -12.7280   24.4502 C   0  0  0  0  0  0  0  0  0  0  0  0
    6.1570  -12.7218   25.8134 C   0  0  0  0  0  0  0  0  0  0  0  0
    7.3352  -12.7870   26.7509 C   0  0  2  0  0  0  0  0  0  0  0  0
    8.3911  -13.5614   26.0243 C   0  0  0  0  0  0  0  0  0  0  0  0
    8.4886  -14.8826   26.6640 O   0  0  0  0  0  0  0  0  0  0  0  0
    7.4940  -15.6189   26.7861 C   0  0  0  0  0  0  0  0  0  0  0  0
   10.5159  -17.6968   25.5584 C   0  0  2  0  0  0  0  0  0  0  0  0
   10.9918  -17.3442   26.9299 O   0  0  0  0  0  0  0  0  0  0  0  0
   12.1623  -16.5882   26.8644 C   0  0  2  0  0  0  0  0  0  0  0  0
    9.9631  -16.6189   27.7685 N   0  0  0  0  0  0  0  0  0  0  0  0
    9.7460  -15.3167   27.1475 C   0  0  0  0  0  0  0  0  0  0  0  0
   10.5135  -16.4081   29.1108 O   0  0  0  0  0  0  0  0  0  0  0  0
   10.7413  -17.4936   29.9628 O   0  0  0  0  0  0  0  0  0  0  0  0
  2  4  1  0
  2  1  1  0
  3  2  2  0
  4  5  1  0
  6  5  1  0
  6  7  1  0
  7  8  1  0
  8  9  1  6
  8 10  1  0
 10 12  1  0
 11 10  2  0
 12 16  1  0
 12 13  1  0
 13 14  1  0
 14 15  1  0
 16 15  1  0
 17 23  1  0
 16 17  1  1
 18 17  2  0
 20 19  1  1
 20 22  1  0
 21 20  1  0
 22 24  1  0
 22 23  1  1
 24 25  1  0
 26 24  2  0
M  END
$$$$
