RPT.pdb
     RDKit          3D

 26 26  0  0  1  0  0  0  0  0999 V2000
    7.8302  -13.1052   15.6982 N   0  0  0  0  0  0  0  0  0  0  0  0
    7.7103  -13.9580   16.8504 C   0  0  0  0  0  0  0  0  0  0  0  0
    8.4889  -14.9610   16.9303 N   0  0  0  0  0  0  0  0  0  0  0  0
    6.7724  -13.7265   17.8831 N   0  0  0  0  0  0  0  0  0  0  0  0
    6.7867  -14.5321   19.0557 C   0  0  0  0  0  0  0  0  0  0  0  0
    8.0701  -14.4184   19.8476 C   0  0  0  0  0  0  0  0  0  0  0  0
    7.8016  -14.2420   21.3187 C   0  0  0  0  0  0  0  0  0  0  0  0
    9.0844  -14.2115   22.1298 C   0  0  2  0  0  0  0  0  0  0  0  0
   10.1761  -14.8282   21.4807 N   0  0  0  0  0  0  0  0  0  0  0  0
    8.8735  -14.6295   23.5132 C   0  0  0  0  0  0  0  0  0  0  0  0
    9.5301  -15.6715   23.8794 O   0  0  0  0  0  0  0  0  0  0  0  0
    8.5030  -15.6611   17.6968 N   0  0  0  0  0  0  0  0  0  0  0  0
    8.0336  -14.0260   24.5047 C   0  0  0  0  0  0  0  0  0  0  0  0
    7.1783  -12.9127   24.2462 C   0  0  0  0  0  0  0  0  0  0  0  0
    6.0213  -13.1070   25.2387 C   0  0  0  0  0  0  0  0  0  0  0  0
    6.7566  -13.6591   26.4327 C   0  0  2  0  0  0  0  0  0  0  0  0
    7.9167  -14.4262   25.8774 C   0  0  0  0  0  0  0  0  0  0  0  0
    7.6295  -15.8571   26.0631 O   0  0  0  0  0  0  0  0  0  0  0  0
    6.4897  -16.3189   25.8796 C   0  0  0  0  0  0  0  0  0  0  0  0
    8.6979  -19.0267   24.5382 C   0  0  2  0  0  0  0  0  0  0  0  0
    9.2625  -18.9730   25.9202 O   0  0  0  0  0  0  0  0  0  0  0  0
   10.5920  -18.5516   25.8917 C   0  0  2  0  0  0  0  0  0  0  0  0
    8.4726  -18.1028   26.8722 N   0  0  0  0  0  0  0  0  0  0  0  0
    8.6800  -16.7191   26.4591 C   0  0  0  0  0  0  0  0  0  0  0  0
    9.0146  -18.2709   28.2239 O   0  0  0  0  0  0  0  0  0  0  0  0
    8.8403  -19.4751   28.9136 O   0  0  0  0  0  0  0  0  0  0  0  0
  2  4  1  0
  2  1  1  0
  3  2  2  0
  4  5  1  0
  6  5  1  0
  6  7  1  0
  7  8  1  0
  8  9  1  6
  8 10  1  0
 10 12  1  0
 11 10  2  0
 12 16  1  0
 12 13  1  0
 13 14  1  0
 14 15  1  0
 16 15  1  0
 17 23  1  0
 16 17  1  1
 18 17  2  0
 20 19  1  6
 20 22  1  0
 21 20  1  0
 22 24  1  0
 22 23  1  1
 24 25  1  0
 26 24  2  0
M  END
$$$$
