DQT.pdb
     RDKit          3D

 25 24  0  0  1  0  0  0  0  0999 V2000
   24.2876  -19.8393  -15.0216 N   0  0  0  0  0  0  0  0  0  0  0  0
   23.8753  -21.1047  -15.5476 C   0  0  1  0  0  0  0  0  0  0  0  0
   24.8828  -22.1438  -15.0942 C   0  0  0  0  0  0  0  0  0  0  0  0
   26.1919  -21.7883  -15.7107 C   0  0  0  0  0  0  0  0  0  0  0  0
   26.3220  -20.7051  -16.3190 O   0  0  0  0  0  0  0  0  0  0  0  0
   22.4997  -21.4833  -15.1112 C   0  0  0  0  0  0  0  0  0  0  0  0
   22.0683  -22.6183  -15.3789 O   0  0  0  0  0  0  0  0  0  0  0  0
   27.3030  -22.6355  -15.6342 O   0  0  0  0  0  0  0  0  0  0  0  0
   18.2372  -22.6770  -12.5149 N   0  0  0  0  0  0  0  0  0  0  0  0
   19.2611  -22.6969  -11.5328 C   0  0  0  0  0  0  0  0  0  0  0  0
   19.2827  -23.6332  -10.7100 O   0  0  0  0  0  0  0  0  0  0  0  0
   20.2714  -21.6430  -11.4850 C   0  0  0  0  0  0  0  0  0  0  0  0
   20.1146  -20.5423  -12.4792 C   0  0  0  0  0  0  0  0  0  0  0  0
   20.3444  -20.9075  -13.9010 C   0  0  2  0  0  0  0  0  0  0  0  0
   21.6534  -20.5941  -14.3960 N   0  0  0  0  0  0  0  0  0  0  0  0
   19.3610  -20.1629  -14.7352 C   0  0  0  0  0  0  0  0  0  0  0  0
   19.4798  -18.9025  -14.8255 O   0  0  0  0  0  0  0  0  0  0  0  0
   15.8190  -21.9002  -16.4264 C   0  0  0  0  0  0  0  0  0  0  0  0
   16.6492  -20.9214  -17.2356 C   0  0  1  0  0  0  0  0  0  0  0  0
   15.8234  -20.1003  -18.0115 O   0  0  0  0  0  0  0  0  0  0  0  0
   17.3903  -20.0358  -16.2549 C   0  0  2  0  0  0  0  0  0  0  0  0
   18.3008  -20.8021  -15.4303 N   0  0  0  0  0  0  0  0  0  0  0  0
   16.3996  -19.3729  -15.3902 C   0  0  0  0  0  0  0  0  0  0  0  0
   16.2291  -19.7404  -14.2145 O   0  0  0  0  0  0  0  0  0  0  0  0
   15.6285  -18.3213  -15.8594 O   0  0  0  0  0  0  0  0  0  0  0  0
  2  1  1  1
  3  4  1  0
  3  2  1  0
  4  8  1  0
  5  4  2  0
  6  2  1  0
  6  7  2  0
  9 10  1  0
 10 12  1  0
 11 10  2  0
 12 13  1  0
 14 13  1  1
 15 14  1  0
 15  6  1  0
 16 17  2  0
 16 14  1  0
 19 18  1  1
 19 21  1  0
 20 19  1  0
 21 23  1  0
 21 22  1  1
 22 16  1  0
 23 25  1  0
 24 23  2  0
M  END
$$$$
