DQT.pdb
     RDKit          3D

 25 24  0  0  1  0  0  0  0  0999 V2000
   16.1627  -11.4587  -15.6547 N   0  0  0  0  0  0  0  0  0  0  0  0
   17.3328  -11.1754  -14.8811 C   0  0  1  0  0  0  0  0  0  0  0  0
   18.5407  -11.5681  -15.7099 C   0  0  0  0  0  0  0  0  0  0  0  0
   18.5178  -13.0514  -15.8486 C   0  0  0  0  0  0  0  0  0  0  0  0
   18.3266  -13.7696  -14.8448 O   0  0  0  0  0  0  0  0  0  0  0  0
   17.4173   -9.7411  -14.4787 C   0  0  0  0  0  0  0  0  0  0  0  0
   17.2829   -8.8585  -15.3441 O   0  0  0  0  0  0  0  0  0  0  0  0
   18.7057  -13.6847  -17.0824 O   0  0  0  0  0  0  0  0  0  0  0  0
   15.9839   -7.3718   -8.7074 N   0  0  0  0  0  0  0  0  0  0  0  0
   16.5978   -6.2817   -9.3766 C   0  0  0  0  0  0  0  0  0  0  0  0
   16.6872   -5.1890   -8.7831 O   0  0  0  0  0  0  0  0  0  0  0  0
   17.1166   -6.4341  -10.7336 C   0  0  0  0  0  0  0  0  0  0  0  0
   17.0248   -7.8033  -11.3179 C   0  0  0  0  0  0  0  0  0  0  0  0
   17.6351   -7.9838  -12.6605 C   0  0  2  0  0  0  0  0  0  0  0  0
   17.6470   -9.3367  -13.1363 N   0  0  0  0  0  0  0  0  0  0  0  0
   19.0490   -7.5215  -12.5924 C   0  0  0  0  0  0  0  0  0  0  0  0
   19.8536   -8.1527  -11.8406 O   0  0  0  0  0  0  0  0  0  0  0  0
   20.9150   -5.5504  -15.6929 C   0  0  0  0  0  0  0  0  0  0  0  0
   21.6137   -6.3655  -14.6207 C   0  0  1  0  0  0  0  0  0  0  0  0
   22.9555   -5.9845  -14.5098 O   0  0  0  0  0  0  0  0  0  0  0  0
   20.9356   -6.0562  -13.3017 C   0  0  2  0  0  0  0  0  0  0  0  0
   19.5317   -6.4089  -13.3305 N   0  0  0  0  0  0  0  0  0  0  0  0
   21.0641   -4.6123  -13.0428 C   0  0  0  0  0  0  0  0  0  0  0  0
   20.0654   -3.8713  -13.0417 O   0  0  0  0  0  0  0  0  0  0  0  0
   22.2995   -4.0362  -12.7930 O   0  0  0  0  0  0  0  0  0  0  0  0
  2  1  1  6
  3  4  1  0
  3  2  1  0
  4  8  1  0
  5  4  2  0
  6  2  1  0
  6  7  2  0
  9 10  1  0
 10 12  1  0
 11 10  2  0
 12 13  1  0
 14 13  1  1
 15 14  1  0
 15  6  1  0
 16 17  2  0
 16 14  1  0
 19 18  1  6
 19 21  1  0
 20 19  1  0
 21 23  1  0
 21 22  1  6
 22 16  1  0
 23 25  1  0
 24 23  2  0
M  END
$$$$
