DQT.pdb
     RDKit          3D

 25 24  0  0  1  0  0  0  0  0999 V2000
   14.5064  -10.6796  -13.8005 N   0  0  0  0  0  0  0  0  0  0  0  0
   15.8597  -10.4520  -13.3948 C   0  0  1  0  0  0  0  0  0  0  0  0
   16.7646  -10.9437  -14.5083 C   0  0  0  0  0  0  0  0  0  0  0  0
   16.6616  -12.4298  -14.5373 C   0  0  0  0  0  0  0  0  0  0  0  0
   17.4242  -13.1226  -13.8310 O   0  0  0  0  0  0  0  0  0  0  0  0
   16.1314   -9.0160  -13.0943 C   0  0  0  0  0  0  0  0  0  0  0  0
   15.7746   -8.1469  -13.9088 O   0  0  0  0  0  0  0  0  0  0  0  0
   15.7267  -13.0937  -15.3397 O   0  0  0  0  0  0  0  0  0  0  0  0
   15.3787   -6.1260   -7.6396 N   0  0  0  0  0  0  0  0  0  0  0  0
   16.2080   -5.2061   -8.3319 C   0  0  0  0  0  0  0  0  0  0  0  0
   16.4605   -4.1086   -7.7972 O   0  0  0  0  0  0  0  0  0  0  0  0
   16.7570   -5.5362   -9.6447 C   0  0  0  0  0  0  0  0  0  0  0  0
   16.4291   -6.8943  -10.1670 C   0  0  0  0  0  0  0  0  0  0  0  0
   16.9852   -7.2333  -11.5025 C   0  0  2  0  0  0  0  0  0  0  0  0
   16.7865   -8.5950  -11.9061 N   0  0  0  0  0  0  0  0  0  0  0  0
   18.4534   -6.9866  -11.4690 C   0  0  0  0  0  0  0  0  0  0  0  0
   19.1165   -7.4311  -10.4823 O   0  0  0  0  0  0  0  0  0  0  0  0
   21.0318   -8.4054  -13.4578 C   0  0  0  0  0  0  0  0  0  0  0  0
   21.1735   -6.9139  -13.6973 C   0  0  1  0  0  0  0  0  0  0  0  0
   20.4405   -6.5250  -14.8241 O   0  0  0  0  0  0  0  0  0  0  0  0
   20.5844   -6.2034  -12.4959 C   0  0  2  0  0  0  0  0  0  0  0  0
   19.1386   -6.2779  -12.4908 N   0  0  0  0  0  0  0  0  0  0  0  0
   20.9935   -4.7897  -12.5479 C   0  0  0  0  0  0  0  0  0  0  0  0
   20.1516   -3.8850  -12.6870 O   0  0  0  0  0  0  0  0  0  0  0  0
   22.3263   -4.4250  -12.4438 O   0  0  0  0  0  0  0  0  0  0  0  0
  2  1  1  6
  3  4  1  0
  3  2  1  0
  4  8  1  0
  5  4  2  0
  6  2  1  0
  6  7  2  0
  9 10  1  0
 10 12  1  0
 11 10  2  0
 12 13  1  0
 14 13  1  1
 15 14  1  0
 15  6  1  0
 16 17  2  0
 16 14  1  0
 19 18  1  1
 19 21  1  0
 20 19  1  0
 21 23  1  0
 21 22  1  6
 22 16  1  0
 23 25  1  0
 24 23  2  0
M  END
$$$$
