DQT.pdb
     RDKit          3D

 25 24  0  0  1  0  0  0  0  0999 V2000
   17.7316  -11.8522  -14.2768 N   0  0  0  0  0  0  0  0  0  0  0  0
   17.9034  -10.9019  -15.3329 C   0  0  1  0  0  0  0  0  0  0  0  0
   16.7782  -11.1092  -16.3285 C   0  0  0  0  0  0  0  0  0  0  0  0
   16.8234  -12.5361  -16.7553 C   0  0  0  0  0  0  0  0  0  0  0  0
   17.9206  -13.0794  -17.0026 O   0  0  0  0  0  0  0  0  0  0  0  0
   17.9125   -9.4944  -14.8380 C   0  0  0  0  0  0  0  0  0  0  0  0
   17.9509   -8.5619  -15.6596 O   0  0  0  0  0  0  0  0  0  0  0  0
   15.6636  -13.3069  -16.8930 O   0  0  0  0  0  0  0  0  0  0  0  0
   15.9195   -7.4091   -9.0554 N   0  0  0  0  0  0  0  0  0  0  0  0
   16.5660   -6.2877   -9.6365 C   0  0  0  0  0  0  0  0  0  0  0  0
   16.5229   -5.1953   -9.0373 O   0  0  0  0  0  0  0  0  0  0  0  0
   17.2694   -6.4081  -10.9111 C   0  0  0  0  0  0  0  0  0  0  0  0
   17.2002   -7.7436  -11.5716 C   0  0  0  0  0  0  0  0  0  0  0  0
   17.8353   -7.8445  -12.9111 C   0  0  2  0  0  0  0  0  0  0  0  0
   17.8787   -9.1707  -13.4551 N   0  0  0  0  0  0  0  0  0  0  0  0
   19.2395   -7.3626  -12.7953 C   0  0  0  0  0  0  0  0  0  0  0  0
   20.0001   -7.9213  -11.9466 O   0  0  0  0  0  0  0  0  0  0  0  0
   22.1127   -7.5709  -14.9817 C   0  0  0  0  0  0  0  0  0  0  0  0
   21.8896   -6.0835  -14.7813 C   0  0  1  0  0  0  0  0  0  0  0  0
   21.0843   -5.5653  -15.8017 O   0  0  0  0  0  0  0  0  0  0  0  0
   21.1463   -5.9084  -13.4729 C   0  0  2  0  0  0  0  0  0  0  0  0
   19.7600   -6.3087  -13.5917 N   0  0  0  0  0  0  0  0  0  0  0  0
   21.2061   -4.4868  -13.0935 C   0  0  0  0  0  0  0  0  0  0  0  0
   22.2856   -3.9522  -12.7844 O   0  0  0  0  0  0  0  0  0  0  0  0
   20.0637   -3.7028  -13.0693 O   0  0  0  0  0  0  0  0  0  0  0  0
  2  1  1  1
  3  4  1  0
  3  2  1  0
  4  8  1  0
  5  4  2  0
  6  2  1  0
  6  7  2  0
  9 10  1  0
 10 12  1  0
 11 10  2  0
 12 13  1  0
 14 13  1  1
 15 14  1  0
 15  6  1  0
 16 17  2  0
 16 14  1  0
 19 18  1  6
 19 21  1  0
 20 19  1  0
 21 23  1  0
 21 22  1  6
 22 16  1  0
 23 25  1  0
 24 23  2  0
M  END
$$$$
