DQT.pdb
     RDKit          3D

 25 24  0  0  1  0  0  0  0  0999 V2000
   24.5710  -11.9637  -19.1062 N   0  0  0  0  0  0  0  0  0  0  0  0
   24.8376  -10.5614  -19.0043 C   0  0  1  0  0  0  0  0  0  0  0  0
   25.1584  -10.0499  -20.3957 C   0  0  0  0  0  0  0  0  0  0  0  0
   26.3867  -10.7579  -20.8541 C   0  0  0  0  0  0  0  0  0  0  0  0
   27.2083  -11.1884  -20.0176 O   0  0  0  0  0  0  0  0  0  0  0  0
   23.6932   -9.8041  -18.4186 C   0  0  0  0  0  0  0  0  0  0  0  0
   22.5359  -10.2275  -18.5850 O   0  0  0  0  0  0  0  0  0  0  0  0
   26.6621  -10.9639  -22.2106 O   0  0  0  0  0  0  0  0  0  0  0  0
   21.4416   -9.2791  -13.2077 N   0  0  0  0  0  0  0  0  0  0  0  0
   20.8837   -8.0897  -13.7438 C   0  0  0  0  0  0  0  0  0  0  0  0
   19.9873   -7.5073  -13.1022 O   0  0  0  0  0  0  0  0  0  0  0  0
   21.3491   -7.5555  -15.0212 C   0  0  0  0  0  0  0  0  0  0  0  0
   22.3891   -8.3598  -15.7255 C   0  0  0  0  0  0  0  0  0  0  0  0
   22.8226   -7.8505  -17.0523 C   0  0  2  0  0  0  0  0  0  0  0  0
   23.8705   -8.6087  -17.6718 N   0  0  0  0  0  0  0  0  0  0  0  0
   23.3229   -6.4595  -16.8734 C   0  0  0  0  0  0  0  0  0  0  0  0
   24.4770   -6.2942  -16.3716 O   0  0  0  0  0  0  0  0  0  0  0  0
   23.5569   -3.6462  -19.4955 C   0  0  0  0  0  0  0  0  0  0  0  0
   22.7758   -3.1203  -18.3058 C   0  0  1  0  0  0  0  0  0  0  0  0
   21.3996   -3.2398  -18.5295 O   0  0  0  0  0  0  0  0  0  0  0  0
   23.1265   -3.9870  -17.1137 C   0  0  2  0  0  0  0  0  0  0  0  0
   22.5655   -5.3157  -17.2396 N   0  0  0  0  0  0  0  0  0  0  0  0
   22.5851   -3.3485  -15.9023 C   0  0  0  0  0  0  0  0  0  0  0  0
   21.7178   -3.9148  -15.2140 O   0  0  0  0  0  0  0  0  0  0  0  0
   23.0244   -2.0996  -15.4930 O   0  0  0  0  0  0  0  0  0  0  0  0
  2  1  1  6
  3  4  1  0
  3  2  1  0
  4  8  1  0
  5  4  2  0
  6  2  1  0
  6  7  2  0
  9 10  1  0
 10 12  1  0
 11 10  2  0
 12 13  1  0
 14 13  1  1
 15 14  1  0
 15  6  1  0
 16 17  2  0
 16 14  1  0
 19 18  1  6
 19 21  1  0
 20 19  1  0
 21 23  1  0
 21 22  1  6
 22 16  1  0
 23 25  1  0
 24 23  2  0
M  END
$$$$
