DQT.pdb
     RDKit          3D

 25 24  0  0  1  0  0  0  0  0999 V2000
   20.8018  -11.1876  -20.2704 N   0  0  0  0  0  0  0  0  0  0  0  0
   21.6770  -10.3654  -19.4921 C   0  0  1  0  0  0  0  0  0  0  0  0
   22.6570   -9.7049  -20.4427 C   0  0  0  0  0  0  0  0  0  0  0  0
   23.8327  -10.6120  -20.5656 C   0  0  0  0  0  0  0  0  0  0  0  0
   23.6620  -11.8279  -20.7950 O   0  0  0  0  0  0  0  0  0  0  0  0
   20.9403   -9.3369  -18.7011 C   0  0  0  0  0  0  0  0  0  0  0  0
   20.1735   -8.5535  -19.2880 O   0  0  0  0  0  0  0  0  0  0  0  0
   25.1460  -10.1475  -20.4317 O   0  0  0  0  0  0  0  0  0  0  0  0
   17.8421  -10.3556  -13.5765 N   0  0  0  0  0  0  0  0  0  0  0  0
   17.5179  -10.4360  -14.9554 C   0  0  0  0  0  0  0  0  0  0  0  0
   16.5603  -11.1542  -15.3040 O   0  0  0  0  0  0  0  0  0  0  0  0
   18.2885   -9.6925  -15.9490 C   0  0  0  0  0  0  0  0  0  0  0  0
   19.4855   -8.9651  -15.4364 C   0  0  0  0  0  0  0  0  0  0  0  0
   20.3400   -8.3090  -16.4597 C   0  0  2  0  0  0  0  0  0  0  0  0
   21.0785   -9.2131  -17.2926 N   0  0  0  0  0  0  0  0  0  0  0  0
   21.3260   -7.4443  -15.7543 C   0  0  0  0  0  0  0  0  0  0  0  0
   22.3553   -7.9909  -15.2515 O   0  0  0  0  0  0  0  0  0  0  0  0
   20.6325   -3.3406  -15.2007 C   0  0  0  0  0  0  0  0  0  0  0  0
   22.0783   -3.7940  -15.2789 C   0  0  1  0  0  0  0  0  0  0  0  0
   22.8682   -3.0769  -14.3734 O   0  0  0  0  0  0  0  0  0  0  0  0
   22.1190   -5.2529  -14.8723 C   0  0  2  0  0  0  0  0  0  0  0  0
   21.1628   -6.0402  -15.6218 N   0  0  0  0  0  0  0  0  0  0  0  0
   21.7976   -5.3425  -13.4380 C   0  0  0  0  0  0  0  0  0  0  0  0
   20.7369   -5.8642  -13.0517 O   0  0  0  0  0  0  0  0  0  0  0  0
   22.6654   -4.8491  -12.4769 O   0  0  0  0  0  0  0  0  0  0  0  0
  2  1  1  6
  3  4  1  0
  3  2  1  0
  4  8  1  0
  5  4  2  0
  6  2  1  0
  6  7  2  0
  9 10  1  0
 10 12  1  0
 11 10  2  0
 12 13  1  0
 14 13  1  1
 15 14  1  0
 15  6  1  0
 16 17  2  0
 16 14  1  0
 19 18  1  1
 19 21  1  0
 20 19  1  0
 21 23  1  0
 21 22  1  6
 22 16  1  0
 23 25  1  0
 24 23  2  0
M  END
$$$$
