DQT.pdb
     RDKit          3D

 25 24  0  0  1  0  0  0  0  0999 V2000
   16.9794  -10.8706  -13.2430 N   0  0  0  0  0  0  0  0  0  0  0  0
   16.5466  -10.0254  -14.3136 C   0  0  1  0  0  0  0  0  0  0  0  0
   15.0650  -10.2705  -14.5257 C   0  0  0  0  0  0  0  0  0  0  0  0
   14.9032  -11.7047  -14.8961 C   0  0  0  0  0  0  0  0  0  0  0  0
   15.7386  -12.2544  -15.6445 O   0  0  0  0  0  0  0  0  0  0  0  0
   16.8050   -8.5814  -14.0407 C   0  0  0  0  0  0  0  0  0  0  0  0
   16.4261   -7.7303  -14.8642 O   0  0  0  0  0  0  0  0  0  0  0  0
   13.8322  -12.4755  -14.4301 O   0  0  0  0  0  0  0  0  0  0  0  0
   16.1061   -5.8062   -8.6376 N   0  0  0  0  0  0  0  0  0  0  0  0
   15.2223   -5.9731   -9.7349 C   0  0  0  0  0  0  0  0  0  0  0  0
   13.9941   -5.9259   -9.5264 O   0  0  0  0  0  0  0  0  0  0  0  0
   15.7384   -6.1951  -11.0833 C   0  0  0  0  0  0  0  0  0  0  0  0
   17.2177   -6.3459  -11.1998 C   0  0  0  0  0  0  0  0  0  0  0  0
   17.7299   -6.7634  -12.5306 C   0  0  2  0  0  0  0  0  0  0  0  0
   17.4717   -8.1329  -12.8692 N   0  0  0  0  0  0  0  0  0  0  0  0
   19.2065   -6.5714  -12.5396 C   0  0  0  0  0  0  0  0  0  0  0  0
   19.8987   -7.1820  -11.6684 O   0  0  0  0  0  0  0  0  0  0  0  0
   21.7429   -7.6147  -14.8752 C   0  0  0  0  0  0  0  0  0  0  0  0
   21.8859   -6.1052  -14.8188 C   0  0  1  0  0  0  0  0  0  0  0  0
   21.1403   -5.5023  -15.8379 O   0  0  0  0  0  0  0  0  0  0  0  0
   21.3135   -5.6445  -13.4939 C   0  0  2  0  0  0  0  0  0  0  0  0
   19.8688   -5.7371  -13.4783 N   0  0  0  0  0  0  0  0  0  0  0  0
   21.7083   -4.2417  -13.2821 C   0  0  0  0  0  0  0  0  0  0  0  0
   20.8599   -3.3326  -13.2749 O   0  0  0  0  0  0  0  0  0  0  0  0
   23.0348   -3.8925  -13.0848 O   0  0  0  0  0  0  0  0  0  0  0  0
  2  1  1  1
  3  4  1  0
  3  2  1  0
  4  8  1  0
  5  4  2  0
  6  2  1  0
  6  7  2  0
  9 10  1  0
 10 12  1  0
 11 10  2  0
 12 13  1  0
 14 13  1  1
 15 14  1  0
 15  6  1  0
 16 17  2  0
 16 14  1  0
 19 18  1  6
 19 21  1  0
 20 19  1  0
 21 23  1  0
 21 22  1  6
 22 16  1  0
 23 25  1  0
 24 23  2  0
M  END
$$$$
