DQT.pdb
     RDKit          3D

 25 24  0  0  1  0  0  0  0  0999 V2000
   27.5313  -18.4062  -18.4395 N   0  0  0  0  0  0  0  0  0  0  0  0
   26.8009  -19.3581  -17.6595 C   0  0  1  0  0  0  0  0  0  0  0  0
   27.8030  -20.1560  -16.8473 C   0  0  0  0  0  0  0  0  0  0  0  0
   27.1207  -21.4058  -16.4086 C   0  0  0  0  0  0  0  0  0  0  0  0
   25.9019  -21.5634  -16.6321 O   0  0  0  0  0  0  0  0  0  0  0  0
   25.7969  -18.7121  -16.7645 C   0  0  0  0  0  0  0  0  0  0  0  0
   26.1809  -17.8892  -15.9151 O   0  0  0  0  0  0  0  0  0  0  0  0
   27.8037  -22.4301  -15.7433 O   0  0  0  0  0  0  0  0  0  0  0  0
   20.6305  -15.9201  -18.4273 N   0  0  0  0  0  0  0  0  0  0  0  0
   20.5247  -15.9156  -17.0124 C   0  0  0  0  0  0  0  0  0  0  0  0
   19.6364  -15.2209  -16.4810 O   0  0  0  0  0  0  0  0  0  0  0  0
   21.4366  -16.7091  -16.1922 C   0  0  0  0  0  0  0  0  0  0  0  0
   22.4995  -17.4519  -16.9293 C   0  0  0  0  0  0  0  0  0  0  0  0
   23.3759  -18.3264  -16.1079 C   0  0  2  0  0  0  0  0  0  0  0  0
   24.4078  -18.9995  -16.8420 N   0  0  0  0  0  0  0  0  0  0  0  0
   22.5246  -19.3706  -15.4737 C   0  0  0  0  0  0  0  0  0  0  0  0
   22.2060  -20.3881  -16.1622 O   0  0  0  0  0  0  0  0  0  0  0  0
   20.4047  -21.3271  -11.4761 C   0  0  0  0  0  0  0  0  0  0  0  0
   21.3401  -20.2587  -12.0105 C   0  0  1  0  0  0  0  0  0  0  0  0
   22.6459  -20.4769  -11.5573 O   0  0  0  0  0  0  0  0  0  0  0  0
   21.3498  -20.3782  -13.5208 C   0  0  2  0  0  0  0  0  0  0  0  0
   22.0570  -19.2751  -14.1365 N   0  0  0  0  0  0  0  0  0  0  0  0
   19.9552  -20.3800  -13.9937 C   0  0  0  0  0  0  0  0  0  0  0  0
   19.4340  -19.3483  -14.4523 O   0  0  0  0  0  0  0  0  0  0  0  0
   19.1825  -21.5292  -13.9421 O   0  0  0  0  0  0  0  0  0  0  0  0
  2  1  1  1
  3  4  1  0
  3  2  1  0
  4  8  1  0
  5  4  2  0
  6  2  1  0
  6  7  2  0
  9 10  1  0
 10 12  1  0
 11 10  2  0
 12 13  1  0
 14 13  1  6
 15 14  1  0
 15  6  1  0
 16 17  2  0
 16 14  1  0
 19 18  1  1
 19 21  1  0
 20 19  1  0
 21 23  1  0
 21 22  1  6
 22 16  1  0
 23 25  1  0
 24 23  2  0
M  END
$$$$
