QTQ.pdb
     RDKit          3D

 26 25  0  0  1  0  0  0  0  0999 V2000
   18.2905  -15.3731  -15.3552 N   0  0  0  0  0  0  0  0  0  0  0  0
   16.9129  -15.6190  -15.5955 C   0  0  0  0  0  0  0  0  0  0  0  0
   16.4765  -16.7357  -15.9229 O   0  0  0  0  0  0  0  0  0  0  0  0
   15.9799  -14.4559  -15.4367 C   0  0  0  0  0  0  0  0  0  0  0  0
   16.7902  -13.2764  -15.0198 C   0  0  0  0  0  0  0  0  0  0  0  0
   16.0108  -11.9871  -14.8793 C   0  0  2  0  0  0  0  0  0  0  0  0
   15.9943  -11.4269  -16.2500 N   0  0  0  0  0  0  0  0  0  0  0  0
   16.6767  -10.9799  -14.0261 C   0  0  0  0  0  0  0  0  0  0  0  0
   17.0159  -11.3016  -12.8596 O   0  0  0  0  0  0  0  0  0  0  0  0
   19.6348   -8.7536  -14.9478 C   0  0  0  0  0  0  0  0  0  0  0  0
   18.5108   -7.8465  -14.4962 C   0  0  1  0  0  0  0  0  0  0  0  0
   17.8020   -7.3163  -15.5451 O   0  0  0  0  0  0  0  0  0  0  0  0
   17.6368   -8.6851  -13.5530 C   0  0  2  0  0  0  0  0  0  0  0  0
   16.9774   -9.6538  -14.4108 N   0  0  0  0  0  0  0  0  0  0  0  0
   16.6570   -7.7575  -12.9347 C   0  0  0  0  0  0  0  0  0  0  0  0
   15.5109   -7.5618  -13.4434 O   0  0  0  0  0  0  0  0  0  0  0  0
   15.0816   -6.9927   -7.1988 N   0  0  0  0  0  0  0  0  0  0  0  0
   14.5357   -5.8122   -7.7127 C   0  0  0  0  0  0  0  0  0  0  0  0
   13.8069   -5.0854   -7.0140 O   0  0  0  0  0  0  0  0  0  0  0  0
   14.8355   -5.4202   -9.1273 C   0  0  0  0  0  0  0  0  0  0  0  0
   15.7317   -6.4467   -9.7681 C   0  0  0  0  0  0  0  0  0  0  0  0
   16.0301   -6.0663  -11.1837 C   0  0  2  0  0  0  0  0  0  0  0  0
   16.9719   -7.0647  -11.7606 N   0  0  0  0  0  0  0  0  0  0  0  0
   16.6228   -4.7291  -11.3597 C   0  0  0  0  0  0  0  0  0  0  0  0
   17.8400   -4.5180  -11.4116 O   0  0  0  0  0  0  0  0  0  0  0  0
   15.7837   -3.6209  -11.4771 O   0  0  0  0  0  0  0  0  0  0  0  0
  1  2  1  0
  2  3  2  0
  2  4  1  0
  4  5  1  0
  5  6  1  0
  6  8  1  0
  6  7  1  6
  8 14  1  0
  9  8  2  0
 11 10  1  6
 11 12  1  0
 13 11  1  0
 13 14  1  6
 15 16  2  0
 15 13  1  0
 17 18  1  0
 18 19  2  0
 20 18  1  0
 20 21  1  0
 22 21  1  1
 22 23  1  0
 23 15  1  0
 24 22  1  0
 25 24  2  0
 26 24  1  0
M  END
$$$$
