QTQ.pdb
     RDKit          3D

 26 25  0  0  1  0  0  0  0  0999 V2000
   28.0778  -18.7647  -16.2433 N   0  0  0  0  0  0  0  0  0  0  0  0
   28.6220  -19.2637  -17.4561 C   0  0  0  0  0  0  0  0  0  0  0  0
   29.5468  -18.6958  -18.0618 O   0  0  0  0  0  0  0  0  0  0  0  0
   28.0276  -20.5309  -17.9940 C   0  0  0  0  0  0  0  0  0  0  0  0
   27.0475  -21.0353  -16.9908 C   0  0  0  0  0  0  0  0  0  0  0  0
   27.6627  -21.5998  -15.7289 C   0  0  2  0  0  0  0  0  0  0  0  0
   28.2596  -22.8832  -16.1641 N   0  0  0  0  0  0  0  0  0  0  0  0
   26.6725  -21.9348  -14.6834 C   0  0  0  0  0  0  0  0  0  0  0  0
   25.9084  -22.9162  -14.8633 O   0  0  0  0  0  0  0  0  0  0  0  0
   24.6021  -20.9374  -10.3189 C   0  0  0  0  0  0  0  0  0  0  0  0
   25.7834  -20.7831  -11.2522 C   0  0  1  0  0  0  0  0  0  0  0  0
   26.9286  -21.3564  -10.7590 O   0  0  0  0  0  0  0  0  0  0  0  0
   25.3490  -21.3858  -12.5956 C   0  0  2  0  0  0  0  0  0  0  0  0
   26.5014  -21.2367  -13.4666 N   0  0  0  0  0  0  0  0  0  0  0  0
   24.2004  -20.5794  -13.0785 C   0  0  0  0  0  0  0  0  0  0  0  0
   24.2510  -19.9330  -14.1695 O   0  0  0  0  0  0  0  0  0  0  0  0
   20.6466  -24.1680  -14.9358 N   0  0  0  0  0  0  0  0  0  0  0  0
   20.0947  -22.9650  -15.3871 C   0  0  0  0  0  0  0  0  0  0  0  0
   19.5082  -22.8994  -16.4823 O   0  0  0  0  0  0  0  0  0  0  0  0
   20.2137  -21.7381  -14.5357 C   0  0  0  0  0  0  0  0  0  0  0  0
   21.5778  -21.6814  -13.9005 C   0  0  0  0  0  0  0  0  0  0  0  0
   21.6893  -20.4830  -13.0122 C   0  0  2  0  0  0  0  0  0  0  0  0
   23.0160  -20.5078  -12.3370 N   0  0  0  0  0  0  0  0  0  0  0  0
   20.6523  -20.3785  -11.9710 C   0  0  0  0  0  0  0  0  0  0  0  0
   20.7320  -20.9238  -10.8641 O   0  0  0  0  0  0  0  0  0  0  0  0
   19.5049  -19.6266  -12.2238 O   0  0  0  0  0  0  0  0  0  0  0  0
  1  2  1  0
  2  3  2  0
  2  4  1  0
  4  5  1  0
  5  6  1  0
  6  8  1  0
  6  7  1  6
  8 14  1  0
  9  8  2  0
 11 10  1  1
 11 12  1  0
 13 11  1  0
 13 14  1  6
 15 16  2  0
 15 13  1  0
 17 18  1  0
 18 19  2  0
 20 18  1  0
 20 21  1  0
 22 21  1  1
 22 23  1  0
 23 15  1  0
 24 22  1  0
 25 24  2  0
 26 24  1  0
M  END
$$$$
