QTQ.pdb
     RDKit          3D

 26 25  0  0  1  0  0  0  0  0999 V2000
   25.8071  -16.7632  -18.0098 N   0  0  0  0  0  0  0  0  0  0  0  0
   27.0624  -17.3919  -18.2216 C   0  0  0  0  0  0  0  0  0  0  0  0
   27.5818  -17.4941  -19.3461 O   0  0  0  0  0  0  0  0  0  0  0  0
   27.7569  -17.9418  -17.0117 C   0  0  0  0  0  0  0  0  0  0  0  0
   26.8564  -18.9547  -16.3915 C   0  0  0  0  0  0  0  0  0  0  0  0
   27.3686  -19.5554  -15.1007 C   0  0  2  0  0  0  0  0  0  0  0  0
   28.6148  -20.2497  -15.4980 N   0  0  0  0  0  0  0  0  0  0  0  0
   26.4788  -20.5904  -14.5325 C   0  0  0  0  0  0  0  0  0  0  0  0
   26.8672  -21.7855  -14.5221 O   0  0  0  0  0  0  0  0  0  0  0  0
   26.7035  -21.9059  -12.5332 C   0  0  0  0  0  0  0  0  0  0  0  0
   25.3050  -21.6635  -12.0083 C   0  0  1  0  0  0  0  0  0  0  0  0
   25.2596  -20.6809  -11.0513 O   0  0  0  0  0  0  0  0  0  0  0  0
   24.4384  -21.3392  -13.2334 C   0  0  2  0  0  0  0  0  0  0  0  0
   25.1981  -20.3548  -13.9834 N   0  0  0  0  0  0  0  0  0  0  0  0
   23.1683  -20.7654  -12.7231 C   0  0  0  0  0  0  0  0  0  0  0  0
   23.0639  -19.5361  -12.4253 O   0  0  0  0  0  0  0  0  0  0  0  0
   20.3092  -17.9257  -15.4880 N   0  0  0  0  0  0  0  0  0  0  0  0
   19.3463  -18.3730  -14.5779 C   0  0  0  0  0  0  0  0  0  0  0  0
   18.6134  -17.5700  -13.9732 O   0  0  0  0  0  0  0  0  0  0  0  0
   19.1980  -19.8431  -14.3298 C   0  0  0  0  0  0  0  0  0  0  0  0
   20.5514  -20.4708  -14.1256 C   0  0  0  0  0  0  0  0  0  0  0  0
   20.6673  -21.0189  -12.7387 C   0  0  2  0  0  0  0  0  0  0  0  0
   22.0373  -21.5717  -12.5539 N   0  0  0  0  0  0  0  0  0  0  0  0
   19.7013  -22.0794  -12.4032 C   0  0  0  0  0  0  0  0  0  0  0  0
   19.8555  -23.2694  -12.7015 O   0  0  0  0  0  0  0  0  0  0  0  0
   18.5376  -21.7476  -11.7091 O   0  0  0  0  0  0  0  0  0  0  0  0
  1  2  1  0
  2  3  2  0
  2  4  1  0
  4  5  1  0
  5  6  1  0
  6  8  1  0
  6  7  1  6
  8 14  1  0
  9  8  2  0
 11 10  1  6
 11 12  1  0
 13 11  1  0
 13 14  1  6
 15 16  2  0
 15 13  1  0
 17 18  1  0
 18 19  2  0
 20 18  1  0
 20 21  1  0
 22 21  1  6
 22 23  1  0
 23 15  1  0
 24 22  1  0
 25 24  2  0
 26 24  1  0
M  END
$$$$
