QTQ.pdb
     RDKit          3D

 26 25  0  0  1  0  0  0  0  0999 V2000
   15.4888  -13.6844  -14.2037 N   0  0  0  0  0  0  0  0  0  0  0  0
   15.1695  -14.7196  -13.2858 C   0  0  0  0  0  0  0  0  0  0  0  0
   15.4485  -15.9126  -13.4945 O   0  0  0  0  0  0  0  0  0  0  0  0
   14.4668  -14.3134  -12.0250 C   0  0  0  0  0  0  0  0  0  0  0  0
   14.4305  -12.8240  -11.9840 C   0  0  0  0  0  0  0  0  0  0  0  0
   13.7343  -12.2379  -10.7752 C   0  0  2  0  0  0  0  0  0  0  0  0
   12.3179  -12.6332  -10.9505 N   0  0  0  0  0  0  0  0  0  0  0  0
   13.7521  -10.7601  -10.7374 C   0  0  0  0  0  0  0  0  0  0  0  0
   12.7148  -10.1320  -11.0670 O   0  0  0  0  0  0  0  0  0  0  0  0
   14.0824   -9.0607   -8.0655 C   0  0  0  0  0  0  0  0  0  0  0  0
   13.8066   -8.1516   -9.2435 C   0  0  1  0  0  0  0  0  0  0  0  0
   13.8353   -6.8216   -8.9062 O   0  0  0  0  0  0  0  0  0  0  0  0
   14.8435   -8.5143  -10.3160 C   0  0  2  0  0  0  0  0  0  0  0  0
   14.8562   -9.9660  -10.3530 N   0  0  0  0  0  0  0  0  0  0  0  0
   16.1471   -7.9755   -9.8547 C   0  0  0  0  0  0  0  0  0  0  0  0
   16.7478   -8.4557   -8.8451 O   0  0  0  0  0  0  0  0  0  0  0  0
   20.8239   -7.0482  -13.3206 N   0  0  0  0  0  0  0  0  0  0  0  0
   21.3277   -6.4135  -12.1809 C   0  0  0  0  0  0  0  0  0  0  0  0
   22.5127   -6.0385  -12.1268 O   0  0  0  0  0  0  0  0  0  0  0  0
   20.4233   -6.1834  -11.0089 C   0  0  0  0  0  0  0  0  0  0  0  0
   19.0514   -6.7314  -11.3007 C   0  0  0  0  0  0  0  0  0  0  0  0
   18.1268   -6.4561  -10.1576 C   0  0  2  0  0  0  0  0  0  0  0  0
   16.7582   -6.9113  -10.5269 N   0  0  0  0  0  0  0  0  0  0  0  0
   18.0403   -5.0429   -9.7503 C   0  0  0  0  0  0  0  0  0  0  0  0
   17.1996   -4.2506  -10.1911 O   0  0  0  0  0  0  0  0  0  0  0  0
   18.9476   -4.5457   -8.8147 O   0  0  0  0  0  0  0  0  0  0  0  0
  1  2  1  0
  2  3  2  0
  2  4  1  0
  4  5  1  0
  5  6  1  0
  6  8  1  0
  6  7  1  6
  8 14  1  0
  9  8  2  0
 11 10  1  1
 11 12  1  0
 13 11  1  0
 13 14  1  1
 15 16  2  0
 15 13  1  0
 17 18  1  0
 18 19  2  0
 20 18  1  0
 20 21  1  0
 22 21  1  6
 22 23  1  0
 23 15  1  0
 24 22  1  0
 25 24  2  0
 26 24  1  0
M  END
$$$$
