QTQ.pdb
     RDKit          3D

 26 25  0  0  1  0  0  0  0  0999 V2000
   22.7257  -22.8868  -22.8541 N   0  0  0  0  0  0  0  0  0  0  0  0
   22.0180  -21.6966  -22.5402 C   0  0  0  0  0  0  0  0  0  0  0  0
   20.7807  -21.6096  -22.6189 O   0  0  0  0  0  0  0  0  0  0  0  0
   22.8354  -20.5192  -22.0995 C   0  0  0  0  0  0  0  0  0  0  0  0
   23.6871  -20.9585  -20.9579 C   0  0  0  0  0  0  0  0  0  0  0  0
   22.9863  -20.9905  -19.6172 C   0  0  2  0  0  0  0  0  0  0  0  0
   21.8163  -20.1020  -19.8029 N   0  0  0  0  0  0  0  0  0  0  0  0
   23.7819  -20.4063  -18.5165 C   0  0  0  0  0  0  0  0  0  0  0  0
   24.5678  -19.4596  -18.7720 O   0  0  0  0  0  0  0  0  0  0  0  0
   23.9515  -17.9776  -17.1211 C   0  0  0  0  0  0  0  0  0  0  0  0
   23.6343  -18.8187  -15.9036 C   0  0  1  0  0  0  0  0  0  0  0  0
   22.2871  -19.0149  -15.7298 O   0  0  0  0  0  0  0  0  0  0  0  0
   24.4079  -20.1332  -16.0782 C   0  0  2  0  0  0  0  0  0  0  0  0
   23.7389  -20.8232  -17.1669 N   0  0  0  0  0  0  0  0  0  0  0  0
   24.2772  -20.8826  -14.8039 C   0  0  0  0  0  0  0  0  0  0  0  0
   23.3695  -21.7529  -14.6319 O   0  0  0  0  0  0  0  0  0  0  0  0
   24.5809  -20.7368   -8.3353 N   0  0  0  0  0  0  0  0  0  0  0  0
   25.8289  -20.6955   -8.9649 C   0  0  0  0  0  0  0  0  0  0  0  0
   26.7679  -20.0355   -8.4849 O   0  0  0  0  0  0  0  0  0  0  0  0
   26.0344  -21.4592  -10.2373 C   0  0  0  0  0  0  0  0  0  0  0  0
   25.8566  -20.5460  -11.4214 C   0  0  0  0  0  0  0  0  0  0  0  0
   24.8403  -21.1078  -12.3643 C   0  0  2  0  0  0  0  0  0  0  0  0
   25.1604  -20.6491  -13.7441 N   0  0  0  0  0  0  0  0  0  0  0  0
   23.4451  -20.7340  -12.0744 C   0  0  0  0  0  0  0  0  0  0  0  0
   22.6644  -21.4408  -11.4265 O   0  0  0  0  0  0  0  0  0  0  0  0
   22.9523  -19.5175  -12.5469 O   0  0  0  0  0  0  0  0  0  0  0  0
  1  2  1  0
  2  3  2  0
  2  4  1  0
  4  5  1  0
  5  6  1  0
  6  8  1  0
  6  7  1  6
  8 14  1  0
  9  8  2  0
 11 10  1  6
 11 12  1  0
 13 11  1  0
 13 14  1  6
 15 16  2  0
 15 13  1  0
 17 18  1  0
 18 19  2  0
 20 18  1  0
 20 21  1  0
 22 21  1  1
 22 23  1  0
 23 15  1  0
 24 22  1  0
 25 24  2  0
 26 24  1  0
M  END
$$$$
