QTQ.pdb
     RDKit          3D

 26 25  0  0  1  0  0  0  0  0999 V2000
   15.6763  -14.4514  -11.7164 N   0  0  0  0  0  0  0  0  0  0  0  0
   15.3404  -13.0768  -11.8337 C   0  0  0  0  0  0  0  0  0  0  0  0
   15.5743  -12.4126  -12.8578 O   0  0  0  0  0  0  0  0  0  0  0  0
   14.6771  -12.4386  -10.6499 C   0  0  0  0  0  0  0  0  0  0  0  0
   14.7481  -10.9609  -10.8305 C   0  0  0  0  0  0  0  0  0  0  0  0
   14.3143  -10.1516   -9.6278 C   0  0  2  0  0  0  0  0  0  0  0  0
   12.8557  -10.3923   -9.5409 N   0  0  0  0  0  0  0  0  0  0  0  0
   14.4859   -8.6932   -9.7994 C   0  0  0  0  0  0  0  0  0  0  0  0
   13.5728   -8.0366  -10.3601 O   0  0  0  0  0  0  0  0  0  0  0  0
   14.1107   -6.0311   -7.9017 C   0  0  0  0  0  0  0  0  0  0  0  0
   15.5781   -5.8705   -8.2353 C   0  0  1  0  0  0  0  0  0  0  0  0
   16.4025   -6.3965   -7.2724 O   0  0  0  0  0  0  0  0  0  0  0  0
   15.7785   -6.5241   -9.6098 C   0  0  2  0  0  0  0  0  0  0  0  0
   15.6106   -7.9480   -9.3789 N   0  0  0  0  0  0  0  0  0  0  0  0
   17.1632   -6.2074  -10.0398 C   0  0  0  0  0  0  0  0  0  0  0  0
   18.1693   -6.7911   -9.5321 O   0  0  0  0  0  0  0  0  0  0  0  0
   20.0157   -8.6940  -13.4040 N   0  0  0  0  0  0  0  0  0  0  0  0
   20.9197   -7.6276  -13.4398 C   0  0  0  0  0  0  0  0  0  0  0  0
   22.0531   -7.7640  -13.9342 O   0  0  0  0  0  0  0  0  0  0  0  0
   20.5132   -6.3018  -12.8730 C   0  0  0  0  0  0  0  0  0  0  0  0
   19.1978   -6.4308  -12.1513 C   0  0  0  0  0  0  0  0  0  0  0  0
   18.7498   -5.0973  -11.6428 C   0  0  2  0  0  0  0  0  0  0  0  0
   17.4021   -5.2460  -11.0280 N   0  0  0  0  0  0  0  0  0  0  0  0
   18.6692   -4.0353  -12.6608 C   0  0  0  0  0  0  0  0  0  0  0  0
   19.6508   -3.4173  -13.0890 O   0  0  0  0  0  0  0  0  0  0  0  0
   17.4250   -3.6885  -13.1879 O   0  0  0  0  0  0  0  0  0  0  0  0
  1  2  1  0
  2  3  2  0
  2  4  1  0
  4  5  1  0
  5  6  1  0
  6  8  1  0
  6  7  1  6
  8 14  1  0
  9  8  2  0
 11 10  1  1
 11 12  1  0
 13 11  1  0
 13 14  1  1
 15 16  2  0
 15 13  1  0
 17 18  1  0
 18 19  2  0
 20 18  1  0
 20 21  1  0
 22 21  1  6
 22 23  1  0
 23 15  1  0
 24 22  1  0
 25 24  2  0
 26 24  1  0
M  END
$$$$
