QTQ.pdb
     RDKit          3D

 26 25  0  0  1  0  0  0  0  0999 V2000
   25.6459  -20.8123   -8.3006 N   0  0  0  0  0  0  0  0  0  0  0  0
   24.4877  -21.2327   -9.0062 C   0  0  0  0  0  0  0  0  0  0  0  0
   23.5604  -21.8582   -8.4642 O   0  0  0  0  0  0  0  0  0  0  0  0
   24.4204  -20.8873  -10.4638 C   0  0  0  0  0  0  0  0  0  0  0  0
   25.7065  -20.2324  -10.8359 C   0  0  0  0  0  0  0  0  0  0  0  0
   26.4141  -20.8491  -12.0226 C   0  0  2  0  0  0  0  0  0  0  0  0
   27.7506  -21.2089  -11.4959 N   0  0  0  0  0  0  0  0  0  0  0  0
   26.6461  -19.9023  -13.1342 C   0  0  0  0  0  0  0  0  0  0  0  0
   27.2753  -18.8390  -12.9043 O   0  0  0  0  0  0  0  0  0  0  0  0
   28.4014  -20.2515  -16.1403 C   0  0  0  0  0  0  0  0  0  0  0  0
   27.0524  -19.8166  -16.6707 C   0  0  1  0  0  0  0  0  0  0  0  0
   26.3136  -20.8624  -17.1647 O   0  0  0  0  0  0  0  0  0  0  0  0
   26.3521  -19.0893  -15.5142 C   0  0  2  0  0  0  0  0  0  0  0  0
   26.2164  -20.0870  -14.4677 N   0  0  0  0  0  0  0  0  0  0  0  0
   25.0261  -18.6538  -16.0190 C   0  0  0  0  0  0  0  0  0  0  0  0
   23.9470  -19.0133  -15.4557 O   0  0  0  0  0  0  0  0  0  0  0  0
   20.8861  -17.5089  -15.1742 N   0  0  0  0  0  0  0  0  0  0  0  0
   20.5698  -16.5639  -16.1553 C   0  0  0  0  0  0  0  0  0  0  0  0
   19.3891  -16.2415  -16.3783 O   0  0  0  0  0  0  0  0  0  0  0  0
   21.6727  -15.9322  -16.9483 C   0  0  0  0  0  0  0  0  0  0  0  0
   23.0037  -16.4852  -16.5120 C   0  0  0  0  0  0  0  0  0  0  0  0
   23.6060  -17.3136  -17.6021 C   0  0  2  0  0  0  0  0  0  0  0  0
   24.9262  -17.8255  -17.1422 N   0  0  0  0  0  0  0  0  0  0  0  0
   23.8125  -16.6101  -18.8800 C   0  0  0  0  0  0  0  0  0  0  0  0
   24.8469  -15.9969  -19.1679 O   0  0  0  0  0  0  0  0  0  0  0  0
   22.7976  -16.6216  -19.8370 O   0  0  0  0  0  0  0  0  0  0  0  0
  1  2  1  0
  2  3  2  0
  2  4  1  0
  4  5  1  0
  5  6  1  0
  6  8  1  0
  6  7  1  1
  8 14  1  0
  9  8  2  0
 11 10  1  1
 11 12  1  0
 13 11  1  0
 13 14  1  1
 15 16  2  0
 15 13  1  0
 17 18  1  0
 18 19  2  0
 20 18  1  0
 20 21  1  0
 22 21  1  1
 22 23  1  0
 23 15  1  0
 24 22  1  0
 25 24  2  0
 26 24  1  0
M  END
$$$$
