QTQ.pdb
     RDKit          3D

 26 25  0  0  1  0  0  0  0  0999 V2000
   17.2951  -13.1128  -15.4026 N   0  0  0  0  0  0  0  0  0  0  0  0
   15.9111  -12.9634  -15.1229 C   0  0  0  0  0  0  0  0  0  0  0  0
   15.2201  -13.8775  -14.6416 O   0  0  0  0  0  0  0  0  0  0  0  0
   15.2970  -11.6318  -15.4362 C   0  0  0  0  0  0  0  0  0  0  0  0
   16.3775  -10.7417  -15.9478 C   0  0  0  0  0  0  0  0  0  0  0  0
   15.9096   -9.3857  -16.4296 C   0  0  2  0  0  0  0  0  0  0  0  0
   15.1318   -9.6886  -17.6528 N   0  0  0  0  0  0  0  0  0  0  0  0
   17.0100   -8.4910  -16.8471 C   0  0  0  0  0  0  0  0  0  0  0  0
   17.5307   -8.6568  -17.9788 O   0  0  0  0  0  0  0  0  0  0  0  0
   17.3149   -4.9656  -17.5282 C   0  0  0  0  0  0  0  0  0  0  0  0
   18.2492   -5.1906  -16.3591 C   0  0  1  0  0  0  0  0  0  0  0  0
   17.6702   -4.8916  -15.1512 O   0  0  0  0  0  0  0  0  0  0  0  0
   18.7065   -6.6532  -16.4521 C   0  0  2  0  0  0  0  0  0  0  0  0
   17.5445   -7.4370  -16.0722 N   0  0  0  0  0  0  0  0  0  0  0  0
   19.8126   -6.8217  -15.4770 C   0  0  0  0  0  0  0  0  0  0  0  0
   19.5915   -7.1069  -14.2603 O   0  0  0  0  0  0  0  0  0  0  0  0
   25.1298   -9.4750  -16.6431 N   0  0  0  0  0  0  0  0  0  0  0  0
   25.4471   -8.9279  -15.3958 C   0  0  0  0  0  0  0  0  0  0  0  0
   26.5308   -9.1829  -14.8406 O   0  0  0  0  0  0  0  0  0  0  0  0
   24.4640   -8.0210  -14.7209 C   0  0  0  0  0  0  0  0  0  0  0  0
   23.2287   -7.8762  -15.5699 C   0  0  0  0  0  0  0  0  0  0  0  0
   22.2632   -6.9314  -14.9275 C   0  0  2  0  0  0  0  0  0  0  0  0
   21.1453   -6.6695  -15.8753 N   0  0  0  0  0  0  0  0  0  0  0  0
   22.8322   -5.6327  -14.5274 C   0  0  0  0  0  0  0  0  0  0  0  0
   23.5191   -5.4663  -13.5129 O   0  0  0  0  0  0  0  0  0  0  0  0
   22.5969   -4.5108  -15.3222 O   0  0  0  0  0  0  0  0  0  0  0  0
  1  2  1  0
  2  3  2  0
  2  4  1  0
  4  5  1  0
  5  6  1  0
  6  8  1  0
  6  7  1  6
  8 14  1  0
  9  8  2  0
 11 10  1  6
 11 12  1  0
 13 11  1  0
 13 14  1  1
 15 16  2  0
 15 13  1  0
 17 18  1  0
 18 19  2  0
 20 18  1  0
 20 21  1  0
 22 21  1  6
 22 23  1  0
 23 15  1  0
 24 22  1  0
 25 24  2  0
 26 24  1  0
M  END
$$$$
