STD.pdb
     RDKit          3D

 22 21  0  0  1  0  0  0  0  0999 V2000
   15.8635  -10.9257  -17.5081 O   0  0  0  0  0  0  0  0  0  0  0  0
   16.6043  -10.4659  -16.4005 C   0  0  0  0  0  0  0  0  0  0  0  0
   17.9008  -11.2484  -16.3662 C   0  0  2  0  0  0  0  0  0  0  0  0
   17.6070  -12.5486  -15.7678 N   0  0  0  0  0  0  0  0  0  0  0  0
   18.8776  -10.5273  -15.5054 C   0  0  0  0  0  0  0  0  0  0  0  0
   18.7566  -10.5833  -14.2446 O   0  0  0  0  0  0  0  0  0  0  0  0
   22.4322  -11.0373  -14.8614 C   0  0  0  0  0  0  0  0  0  0  0  0
   22.2836   -9.6046  -15.2826 C   0  0  1  0  0  0  0  0  0  0  0  0
   22.7009   -9.4715  -16.6041 O   0  0  0  0  0  0  0  0  0  0  0  0
   20.8539   -9.1110  -15.1278 C   0  0  2  0  0  0  0  0  0  0  0  0
   19.9549   -9.7683  -16.0209 N   0  0  0  0  0  0  0  0  0  0  0  0
   20.8339   -7.6409  -15.2479 C   0  0  0  0  0  0  0  0  0  0  0  0
   20.2371   -7.1364  -16.2275 O   0  0  0  0  0  0  0  0  0  0  0  0
   21.4473   -6.7645  -14.3240 N   0  0  0  0  0  0  0  0  0  0  0  0
   21.4154   -5.2878  -14.5156 C   0  0  1  0  0  0  0  0  0  0  0  0
   19.9900   -4.8234  -14.5284 C   0  0  0  0  0  0  0  0  0  0  0  0
   19.8746   -3.3627  -14.5884 C   0  0  0  0  0  0  0  0  0  0  0  0
   20.5898   -2.6131  -15.2875 O   0  0  0  0  0  0  0  0  0  0  0  0
   22.1986   -4.6968  -13.4046 C   0  0  0  0  0  0  0  0  0  0  0  0
   22.6994   -5.3955  -12.3541 O   0  0  0  0  0  0  0  0  0  0  0  0
   18.9015   -2.6784  -13.8240 O   0  0  0  0  0  0  0  0  0  0  0  0
   22.4236   -3.4497  -13.4240 O   0  0  0  0  0  0  0  0  0  0  0  0
  2  1  1  0
  3  2  1  0
  3  4  1  1
  5 11  1  0
  5  3  1  0
  6  5  2  0
  8  7  1  6
  8 10  1  0
  8  9  1  0
 10 11  1  6
 12 10  1  0
 12 14  1  0
 13 12  2  0
 15 14  1  0
 15 16  1  1
 16 17  1  0
 17 18  2  0
 19 20  1  0
 19 15  1  0
 21 17  1  0
 22 19  2  0
M  END
$$$$
