STD.pdb
     RDKit          3D

 22 21  0  0  1  0  0  0  0  0999 V2000
   13.8812  -12.0581  -14.2647 O   0  0  0  0  0  0  0  0  0  0  0  0
   15.2202  -11.6863  -14.0290 C   0  0  0  0  0  0  0  0  0  0  0  0
   16.0582  -12.2808  -15.1422 C   0  0  2  0  0  0  0  0  0  0  0  0
   16.1150  -13.7236  -14.9191 N   0  0  0  0  0  0  0  0  0  0  0  0
   17.4353  -11.7222  -15.0611 C   0  0  0  0  0  0  0  0  0  0  0  0
   18.2336  -12.1594  -14.1784 O   0  0  0  0  0  0  0  0  0  0  0  0
   20.1272  -11.8883  -17.6129 C   0  0  0  0  0  0  0  0  0  0  0  0
   19.9928  -10.4521  -17.1988 C   0  0  1  0  0  0  0  0  0  0  0  0
   19.3050   -9.7542  -18.1878 O   0  0  0  0  0  0  0  0  0  0  0  0
   19.2839  -10.3092  -15.8614 C   0  0  2  0  0  0  0  0  0  0  0  0
   17.9161  -10.7125  -15.9281 N   0  0  0  0  0  0  0  0  0  0  0  0
   19.4689   -8.9343  -15.3602 C   0  0  0  0  0  0  0  0  0  0  0  0
   18.4822   -8.1618  -15.3766 O   0  0  0  0  0  0  0  0  0  0  0  0
   20.6929   -8.4334  -14.8612 N   0  0  0  0  0  0  0  0  0  0  0  0
   20.8373   -7.0110  -14.4435 C   0  0  1  0  0  0  0  0  0  0  0  0
   22.0400   -6.8773  -13.5584 C   0  0  0  0  0  0  0  0  0  0  0  0
   22.2999   -5.4878  -13.1685 C   0  0  0  0  0  0  0  0  0  0  0  0
   21.7283   -4.8840  -12.2352 O   0  0  0  0  0  0  0  0  0  0  0  0
   20.9512   -6.2113  -15.6863 C   0  0  0  0  0  0  0  0  0  0  0  0
   20.5681   -4.9149  -15.8096 O   0  0  0  0  0  0  0  0  0  0  0  0
   23.2583   -4.7071  -13.8551 O   0  0  0  0  0  0  0  0  0  0  0  0
   21.4392   -6.7660  -16.7160 O   0  0  0  0  0  0  0  0  0  0  0  0
  2  1  1  0
  3  2  1  0
  3  4  1  1
  5 11  1  0
  5  3  1  0
  6  5  2  0
  8  7  1  6
  8 10  1  0
  8  9  1  0
 10 11  1  6
 12 10  1  0
 12 14  1  0
 13 12  2  0
 15 14  1  0
 15 16  1  1
 16 17  1  0
 17 18  2  0
 19 20  1  0
 19 15  1  0
 21 17  1  0
 22 19  2  0
M  END
$$$$
