STD.pdb
     RDKit          3D

 22 21  0  0  1  0  0  0  0  0999 V2000
   26.2025  -14.2596  -15.9893 O   0  0  0  0  0  0  0  0  0  0  0  0
   25.6678  -13.0049  -16.3450 C   0  0  0  0  0  0  0  0  0  0  0  0
   24.4365  -13.2600  -17.1896 C   0  0  2  0  0  0  0  0  0  0  0  0
   24.8915  -13.8079  -18.4654 N   0  0  0  0  0  0  0  0  0  0  0  0
   23.7434  -11.9662  -17.4363 C   0  0  0  0  0  0  0  0  0  0  0  0
   24.1506  -11.2096  -18.3687 O   0  0  0  0  0  0  0  0  0  0  0  0
   20.2591  -11.4367  -18.5409 C   0  0  0  0  0  0  0  0  0  0  0  0
   20.4700  -10.5804  -17.3267 C   0  0  1  0  0  0  0  0  0  0  0  0
   19.8727  -11.1915  -16.2276 O   0  0  0  0  0  0  0  0  0  0  0  0
   21.9450  -10.3306  -17.0554 C   0  0  2  0  0  0  0  0  0  0  0  0
   22.6349  -11.5219  -16.6773 N   0  0  0  0  0  0  0  0  0  0  0  0
   22.0783   -9.2364  -16.0753 C   0  0  0  0  0  0  0  0  0  0  0  0
   22.3670   -9.5344  -14.8928 O   0  0  0  0  0  0  0  0  0  0  0  0
   21.9002   -7.8695  -16.3884 N   0  0  0  0  0  0  0  0  0  0  0  0
   22.1186   -6.8047  -15.3700 C   0  0  1  0  0  0  0  0  0  0  0  0
   22.2840   -5.4860  -16.0638 C   0  0  0  0  0  0  0  0  0  0  0  0
   22.4193   -4.3687  -15.1237 C   0  0  0  0  0  0  0  0  0  0  0  0
   23.1192   -4.3811  -14.0882 O   0  0  0  0  0  0  0  0  0  0  0  0
   20.9438   -6.8314  -14.4667 C   0  0  0  0  0  0  0  0  0  0  0  0
   20.9971   -6.6483  -13.1228 O   0  0  0  0  0  0  0  0  0  0  0  0
   21.7353   -3.1501  -15.3395 O   0  0  0  0  0  0  0  0  0  0  0  0
   19.8006   -7.0399  -14.9727 O   0  0  0  0  0  0  0  0  0  0  0  0
  2  1  1  0
  3  2  1  0
  3  4  1  6
  5 11  1  0
  5  3  1  0
  6  5  2  0
  8  7  1  6
  8 10  1  0
  8  9  1  0
 10 11  1  1
 12 10  1  0
 12 14  1  0
 13 12  2  0
 15 14  1  0
 15 16  1  6
 16 17  1  0
 17 18  2  0
 19 20  1  0
 19 15  1  0
 21 17  1  0
 22 19  2  0
M  END
$$$$
