STD.pdb
     RDKit          3D

 22 21  0  0  1  0  0  0  0  0999 V2000
   14.7416  -12.9778  -10.5802 O   0  0  0  0  0  0  0  0  0  0  0  0
   15.0296  -11.6842  -11.0603 C   0  0  0  0  0  0  0  0  0  0  0  0
   14.5306  -10.6958  -10.0264 C   0  0  2  0  0  0  0  0  0  0  0  0
   13.0722  -10.7832  -10.0113 N   0  0  0  0  0  0  0  0  0  0  0  0
   14.9306   -9.3227  -10.4384 C   0  0  0  0  0  0  0  0  0  0  0  0
   14.2971   -8.7432  -11.3713 O   0  0  0  0  0  0  0  0  0  0  0  0
   14.8379   -6.0445   -8.8128 C   0  0  0  0  0  0  0  0  0  0  0  0
   16.2534   -6.2440   -9.2695 C   0  0  1  0  0  0  0  0  0  0  0  0
   17.0462   -6.5668   -8.1715 O   0  0  0  0  0  0  0  0  0  0  0  0
   16.3613   -7.3235  -10.3347 C   0  0  2  0  0  0  0  0  0  0  0  0
   15.9967   -8.6115   -9.8384 N   0  0  0  0  0  0  0  0  0  0  0  0
   17.7098   -7.2820  -10.9309 C   0  0  0  0  0  0  0  0  0  0  0  0
   18.5377   -8.1551  -10.5806 O   0  0  0  0  0  0  0  0  0  0  0  0
   18.1265   -6.3163  -11.8752 N   0  0  0  0  0  0  0  0  0  0  0  0
   19.4986   -6.3380  -12.4544 C   0  0  1  0  0  0  0  0  0  0  0  0
   19.6813   -7.6012  -13.2409 C   0  0  0  0  0  0  0  0  0  0  0  0
   20.9173   -7.5989  -14.0301 C   0  0  0  0  0  0  0  0  0  0  0  0
   22.0728   -7.6518  -13.5566 O   0  0  0  0  0  0  0  0  0  0  0  0
   19.6277   -5.1210  -13.2905 C   0  0  0  0  0  0  0  0  0  0  0  0
   20.8057   -4.5451  -13.6415 O   0  0  0  0  0  0  0  0  0  0  0  0
   20.8781   -7.5341  -15.4421 O   0  0  0  0  0  0  0  0  0  0  0  0
   18.5694   -4.5676  -13.7147 O   0  0  0  0  0  0  0  0  0  0  0  0
  2  1  1  0
  3  2  1  0
  3  4  1  6
  5 11  1  0
  5  3  1  0
  6  5  2  0
  8  7  1  1
  8 10  1  0
  8  9  1  0
 10 11  1  1
 12 10  1  0
 12 14  1  0
 13 12  2  0
 15 14  1  0
 15 16  1  6
 16 17  1  0
 17 18  2  0
 19 20  1  0
 19 15  1  0
 21 17  1  0
 22 19  2  0
M  END
$$$$
