STD.pdb
     RDKit          3D

 22 21  0  0  1  0  0  0  0  0999 V2000
   13.4461   -5.8834   -6.4046 O   0  0  0  0  0  0  0  0  0  0  0  0
   14.5331   -6.6058   -6.9370 C   0  0  0  0  0  0  0  0  0  0  0  0
   14.0372   -7.3228   -8.1759 C   0  0  2  0  0  0  0  0  0  0  0  0
   13.2847   -8.4924   -7.7281 N   0  0  0  0  0  0  0  0  0  0  0  0
   15.2094   -7.7757   -8.9735 C   0  0  0  0  0  0  0  0  0  0  0  0
   15.9061   -8.7502   -8.5583 O   0  0  0  0  0  0  0  0  0  0  0  0
   15.1556   -9.5635  -11.9580 C   0  0  0  0  0  0  0  0  0  0  0  0
   16.0587   -8.4030  -12.2579 C   0  0  1  0  0  0  0  0  0  0  0  0
   15.3554   -7.4565  -12.9982 O   0  0  0  0  0  0  0  0  0  0  0  0
   16.6174   -7.7742  -10.9914 C   0  0  2  0  0  0  0  0  0  0  0  0
   15.5997   -7.1714  -10.1921 N   0  0  0  0  0  0  0  0  0  0  0  0
   17.7089   -6.8495  -11.3511 C   0  0  0  0  0  0  0  0  0  0  0  0
   17.5344   -5.6244  -11.1536 O   0  0  0  0  0  0  0  0  0  0  0  0
   18.9422   -7.2611  -11.9057 N   0  0  0  0  0  0  0  0  0  0  0  0
   20.0059   -6.2769  -12.2501 C   0  0  1  0  0  0  0  0  0  0  0  0
   21.2870   -7.0089  -12.5156 C   0  0  0  0  0  0  0  0  0  0  0  0
   22.3463   -6.1262  -13.0150 C   0  0  0  0  0  0  0  0  0  0  0  0
   22.8074   -5.1387  -12.4029 O   0  0  0  0  0  0  0  0  0  0  0  0
   19.5231   -5.5237  -13.4319 C   0  0  0  0  0  0  0  0  0  0  0  0
   18.5746   -5.9659  -14.2963 O   0  0  0  0  0  0  0  0  0  0  0  0
   22.9408   -6.3469  -14.2788 O   0  0  0  0  0  0  0  0  0  0  0  0
   20.0243   -4.3830  -13.6642 O   0  0  0  0  0  0  0  0  0  0  0  0
  2  1  1  0
  3  2  1  0
  3  4  1  1
  5 11  1  0
  5  3  1  0
  6  5  2  0
  8  7  1  1
  8 10  1  0
  8  9  1  0
 10 11  1  6
 12 10  1  0
 12 14  1  0
 13 12  2  0
 15 14  1  0
 15 16  1  6
 16 17  1  0
 17 18  2  0
 19 20  1  0
 19 15  1  0
 21 17  1  0
 22 19  2  0
M  END
$$$$
