STD.pdb
     RDKit          3D

 22 21  0  0  1  0  0  0  0  0999 V2000
   15.1011   -8.8454  -15.5400 O   0  0  0  0  0  0  0  0  0  0  0  0
   15.1492   -9.7262  -16.6394 C   0  0  0  0  0  0  0  0  0  0  0  0
   15.7754  -11.0186  -16.1574 C   0  0  2  0  0  0  0  0  0  0  0  0
   14.8807  -11.5850  -15.1507 N   0  0  0  0  0  0  0  0  0  0  0  0
   17.0873  -10.7130  -15.5244 C   0  0  0  0  0  0  0  0  0  0  0  0
   17.1796  -10.6963  -14.2600 O   0  0  0  0  0  0  0  0  0  0  0  0
   20.4696  -12.4237  -15.7636 C   0  0  0  0  0  0  0  0  0  0  0  0
   20.6437  -10.9679  -16.0837 C   0  0  1  0  0  0  0  0  0  0  0  0
   20.7906  -10.8174  -17.4599 O   0  0  0  0  0  0  0  0  0  0  0  0
   19.4774  -10.1313  -15.5823 C   0  0  2  0  0  0  0  0  0  0  0  0
   18.2608  -10.4350  -16.2647 N   0  0  0  0  0  0  0  0  0  0  0  0
   19.8452   -8.7040  -15.6410 C   0  0  0  0  0  0  0  0  0  0  0  0
   19.2429   -7.9720  -16.4607 O   0  0  0  0  0  0  0  0  0  0  0  0
   20.8369   -8.1098  -14.8277 N   0  0  0  0  0  0  0  0  0  0  0  0
   21.1825   -6.6665  -14.9539 C   0  0  1  0  0  0  0  0  0  0  0  0
   21.2453   -6.0536  -13.5871 C   0  0  0  0  0  0  0  0  0  0  0  0
   21.6718   -4.6509  -13.6185 C   0  0  0  0  0  0  0  0  0  0  0  0
   21.1140   -3.7443  -14.2737 O   0  0  0  0  0  0  0  0  0  0  0  0
   22.4787   -6.5996  -15.6698 C   0  0  0  0  0  0  0  0  0  0  0  0
   22.9323   -5.5153  -16.3487 O   0  0  0  0  0  0  0  0  0  0  0  0
   22.7926   -4.2150  -12.8747 O   0  0  0  0  0  0  0  0  0  0  0  0
   23.2272   -7.6222  -15.6555 O   0  0  0  0  0  0  0  0  0  0  0  0
  2  1  1  0
  3  2  1  0
  3  4  1  1
  5 11  1  0
  5  3  1  0
  6  5  2  0
  8  7  1  6
  8 10  1  0
  8  9  1  0
 10 11  1  6
 12 10  1  0
 12 14  1  0
 13 12  2  0
 15 14  1  0
 15 16  1  1
 16 17  1  0
 17 18  2  0
 19 20  1  0
 19 15  1  0
 21 17  1  0
 22 19  2  0
M  END
$$$$
