NRC.pdb
     RDKit          3D

 26 25  0  0  1  0  0  0  0  0999 V2000
   13.6697  -14.6559   17.3214 N   0  0  0  0  0  0  0  0  0  0  0  0
   13.7251  -14.9807   18.7027 C   0  0  0  0  0  0  0  0  0  0  0  0
   14.7553  -15.5955   19.1256 O   0  0  0  0  0  0  0  0  0  0  0  0
   12.6259  -14.6207   19.6270 C   0  0  0  0  0  0  0  0  0  0  0  0
   12.2401  -15.7341   20.5524 C   0  0  2  0  0  0  0  0  0  0  0  0
   11.4190  -16.6678   19.7749 N   0  0  0  0  0  0  0  0  0  0  0  0
   11.3605  -15.1453   21.6176 C   0  0  0  0  0  0  0  0  0  0  0  0
   11.8327  -14.2478   22.3543 O   0  0  0  0  0  0  0  0  0  0  0  0
    8.3225  -12.1397   18.0376 N   0  0  0  0  0  0  0  0  0  0  0  0
    8.5161  -13.5280   17.8330 C   0  0  0  0  0  0  0  0  0  0  0  0
    8.8254  -14.0307   16.6835 N   0  0  0  0  0  0  0  0  0  0  0  0
    8.3669  -14.4011   18.9274 N   0  0  0  0  0  0  0  0  0  0  0  0
    7.5050  -14.0239   20.0352 C   0  0  0  0  0  0  0  0  0  0  0  0
    7.3188  -15.1076   21.0078 C   0  0  0  0  0  0  0  0  0  0  0  0
    7.7320  -15.0250   22.3980 C   0  0  0  0  0  0  0  0  0  0  0  0
    9.1285  -14.9731   22.8311 C   0  0  2  0  0  0  0  0  0  0  0  0
   10.0248  -15.5643   21.8188 N   0  0  0  0  0  0  0  0  0  0  0  0
    9.5153  -15.4340   24.1659 C   0  0  0  0  0  0  0  0  0  0  0  0
    9.6058  -16.5882   24.5500 O   0  0  0  0  0  0  0  0  0  0  0  0
    8.9466  -15.0617   16.6322 N   0  0  0  0  0  0  0  0  0  0  0  0
    9.8433  -14.4547   25.2053 C   0  0  2  0  0  0  0  0  0  0  0  0
    9.4248  -14.5921   26.5624 C   0  0  0  0  0  0  0  0  0  0  0  0
    8.0464  -14.0178   26.8176 S   0  0  0  0  0  0  0  0  0  0  0  0
    8.2808  -12.6702   28.0418 C   0  0  0  0  0  0  0  0  0  0  0  0
    9.4086  -16.0189   26.9236 O   0  0  0  0  0  0  0  0  0  0  0  0
    9.3458  -16.8884   26.0429 O   0  0  0  0  0  0  0  0  0  0  0  0
  2  1  1  0
  2  3  2  0
  4  5  1  0
  4  2  1  0
  5  7  1  0
  5  6  1  6
  7  8  2  0
  9 10  1  0
 10 11  2  0
 12 13  1  0
 12 10  1  0
 13 14  1  0
 15 14  1  0
 16 18  1  0
 16 15  1  6
 17  7  1  0
 17 16  1  0
 18 19  2  0
 20 21  1  0
 20 18  1  0
 22 23  1  0
 21 22  1  6
 24 21  1  0
 24 26  1  0
 25 24  2  0
M  END
$$$$
