NRC.pdb
     RDKit          3D

 26 25  0  0  1  0  0  0  0  0999 V2000
   16.9040  -18.9076   19.6408 N   0  0  0  0  0  0  0  0  0  0  0  0
   15.4840  -18.9068   19.6336 C   0  0  0  0  0  0  0  0  0  0  0  0
   14.8940  -19.8942   19.0904 O   0  0  0  0  0  0  0  0  0  0  0  0
   14.7077  -17.7988   20.2349 C   0  0  0  0  0  0  0  0  0  0  0  0
   13.8399  -17.0785   19.2485 C   0  0  2  0  0  0  0  0  0  0  0  0
   14.7377  -16.4102   18.3009 N   0  0  0  0  0  0  0  0  0  0  0  0
   13.1043  -16.0063   19.9997 C   0  0  0  0  0  0  0  0  0  0  0  0
   13.6774  -14.9074   20.1875 O   0  0  0  0  0  0  0  0  0  0  0  0
    6.0883  -12.5111   17.6054 N   0  0  0  0  0  0  0  0  0  0  0  0
    6.8123  -13.7197   17.4574 C   0  0  0  0  0  0  0  0  0  0  0  0
    6.6627  -14.5067   16.4435 N   0  0  0  0  0  0  0  0  0  0  0  0
    7.7368  -14.0821   18.4555 N   0  0  0  0  0  0  0  0  0  0  0  0
    7.7968  -13.3183   19.6907 C   0  0  0  0  0  0  0  0  0  0  0  0
    8.7998  -13.8325   20.6311 C   0  0  0  0  0  0  0  0  0  0  0  0
    9.8029  -14.8230   20.2805 C   0  0  0  0  0  0  0  0  0  0  0  0
   10.9877  -15.1049   21.0912 C   0  0  2  0  0  0  0  0  0  0  0  0
   11.7945  -16.1900   20.5002 N   0  0  0  0  0  0  0  0  0  0  0  0
   10.8748  -15.3020   22.5376 C   0  0  0  0  0  0  0  0  0  0  0  0
   10.2004  -14.6528   23.3198 O   0  0  0  0  0  0  0  0  0  0  0  0
    7.2457  -15.3669   16.4187 N   0  0  0  0  0  0  0  0  0  0  0  0
   11.6278  -16.3797   23.1844 C   0  0  2  0  0  0  0  0  0  0  0  0
   11.3302  -16.8575   24.4955 C   0  0  0  0  0  0  0  0  0  0  0  0
    9.8649  -16.7231   24.8557 S   0  0  0  0  0  0  0  0  0  0  0  0
    9.7264  -17.2517   26.6082 C   0  0  0  0  0  0  0  0  0  0  0  0
   11.7047  -18.2777   24.5915 O   0  0  0  0  0  0  0  0  0  0  0  0
   11.7515  -18.9844   23.5747 O   0  0  0  0  0  0  0  0  0  0  0  0
  2  1  1  0
  2  3  2  0
  4  5  1  0
  4  2  1  0
  5  7  1  0
  5  6  1  6
  7  8  2  0
  9 10  1  0
 10 11  2  0
 12 13  1  0
 12 10  1  0
 13 14  1  0
 15 14  1  0
 16 18  1  0
 16 15  1  6
 17  7  1  0
 17 16  1  0
 18 19  2  0
 20 21  1  0
 20 18  1  0
 22 23  1  0
 21 22  1  1
 24 21  1  0
 24 26  1  0
 25 24  2  0
M  END
$$$$
