NRC.pdb
     RDKit          3D

 26 25  0  0  1  0  0  0  0  0999 V2000
    7.3701  -12.8109   17.0580 N   0  0  0  0  0  0  0  0  0  0  0  0
    7.6144  -14.0332   17.7384 C   0  0  0  0  0  0  0  0  0  0  0  0
    8.0610  -15.0107   17.0578 O   0  0  0  0  0  0  0  0  0  0  0  0
    7.3609  -14.1749   19.1901 C   0  0  0  0  0  0  0  0  0  0  0  0
    8.5440  -13.8174   20.0369 C   0  0  2  0  0  0  0  0  0  0  0  0
    9.6782  -14.5996   19.5346 N   0  0  0  0  0  0  0  0  0  0  0  0
    8.2555  -14.2931   21.4317 C   0  0  0  0  0  0  0  0  0  0  0  0
    7.2010  -13.9074   21.9888 O   0  0  0  0  0  0  0  0  0  0  0  0
   11.8666  -20.1903   20.8903 N   0  0  0  0  0  0  0  0  0  0  0  0
   10.5191  -20.6080   20.7621 C   0  0  0  0  0  0  0  0  0  0  0  0
   10.0780  -21.2450   19.7280 N   0  0  0  0  0  0  0  0  0  0  0  0
    9.6183  -20.3193   21.8050 N   0  0  0  0  0  0  0  0  0  0  0  0
    9.9964  -19.3700   22.8387 C   0  0  0  0  0  0  0  0  0  0  0  0
    9.2869  -18.0900   22.7248 C   0  0  0  0  0  0  0  0  0  0  0  0
    9.4217  -17.0040   23.6802 C   0  0  0  0  0  0  0  0  0  0  0  0
    8.8426  -15.6742   23.4889 C   0  0  2  0  0  0  0  0  0  0  0  0
    9.1260  -15.1568   22.1363 N   0  0  0  0  0  0  0  0  0  0  0  0
    9.0545  -14.6165   24.4790 C   0  0  0  0  0  0  0  0  0  0  0  0
   10.1036  -14.0528   24.7427 O   0  0  0  0  0  0  0  0  0  0  0  0
    9.0548  -21.4207   19.6780 N   0  0  0  0  0  0  0  0  0  0  0  0
    7.9253  -14.1331   25.2778 C   0  0  2  0  0  0  0  0  0  0  0  0
    8.0886  -13.3738   26.4747 C   0  0  0  0  0  0  0  0  0  0  0  0
    6.8557  -12.5729   26.8403 S   0  0  0  0  0  0  0  0  0  0  0  0
    6.5043  -11.5001   25.3928 C   0  0  0  0  0  0  0  0  0  0  0  0
    8.3994  -14.2840   27.5888 O   0  0  0  0  0  0  0  0  0  0  0  0
    8.3493  -15.5118   27.4286 O   0  0  0  0  0  0  0  0  0  0  0  0
  2  1  1  0
  2  3  2  0
  4  5  1  0
  4  2  1  0
  5  7  1  0
  5  6  1  6
  7  8  2  0
  9 10  1  0
 10 11  2  0
 12 13  1  0
 12 10  1  0
 13 14  1  0
 15 14  1  0
 16 18  1  0
 16 15  1  1
 17  7  1  0
 17 16  1  0
 18 19  2  0
 20 21  1  0
 20 18  1  0
 22 23  1  0
 21 22  1  6
 24 21  1  0
 24 26  1  0
 25 24  2  0
M  END
$$$$
