NRC.pdb
     RDKit          3D

 26 25  0  0  1  0  0  0  0  0999 V2000
    6.6793  -12.5162   19.6447 N   0  0  0  0  0  0  0  0  0  0  0  0
    7.7372  -13.0151   18.8395 C   0  0  0  0  0  0  0  0  0  0  0  0
    8.3697  -12.1853   18.1119 O   0  0  0  0  0  0  0  0  0  0  0  0
    8.0991  -14.4508   18.8398 C   0  0  0  0  0  0  0  0  0  0  0  0
    9.0692  -14.8181   19.9209 C   0  0  2  0  0  0  0  0  0  0  0  0
    9.5566  -16.1668   19.6143 N   0  0  0  0  0  0  0  0  0  0  0  0
    8.2959  -14.9034   21.2053 C   0  0  0  0  0  0  0  0  0  0  0  0
    7.6539  -13.8959   21.5846 O   0  0  0  0  0  0  0  0  0  0  0  0
    5.5480  -22.0942   24.9339 N   0  0  0  0  0  0  0  0  0  0  0  0
    6.9082  -21.7159   24.8175 C   0  0  0  0  0  0  0  0  0  0  0  0
    7.8728  -22.5744   24.7683 N   0  0  0  0  0  0  0  0  0  0  0  0
    7.2270  -20.3462   24.7512 N   0  0  0  0  0  0  0  0  0  0  0  0
    6.2443  -19.3588   25.1660 C   0  0  0  0  0  0  0  0  0  0  0  0
    6.6627  -17.9816   24.8777 C   0  0  0  0  0  0  0  0  0  0  0  0
    7.1866  -17.5486   23.5939 C   0  0  0  0  0  0  0  0  0  0  0  0
    7.5549  -16.1659   23.2887 C   0  0  2  0  0  0  0  0  0  0  0  0
    8.2652  -16.0738   21.9986 N   0  0  0  0  0  0  0  0  0  0  0  0
    8.2294  -15.3338   24.2869 C   0  0  0  0  0  0  0  0  0  0  0  0
    9.4308  -15.1692   24.4195 O   0  0  0  0  0  0  0  0  0  0  0  0
    8.8388  -22.2003   24.6840 N   0  0  0  0  0  0  0  0  0  0  0  0
    7.4352  -14.5881   25.2668 C   0  0  2  0  0  0  0  0  0  0  0  0
    8.0095  -13.9372   26.3991 C   0  0  0  0  0  0  0  0  0  0  0  0
    7.0308  -13.0355   27.1229 S   0  0  0  0  0  0  0  0  0  0  0  0
    6.3975  -11.8629   25.8605 C   0  0  0  0  0  0  0  0  0  0  0  0
    8.4963  -14.9520   27.3477 O   0  0  0  0  0  0  0  0  0  0  0  0
    8.3339  -16.1581   27.1142 O   0  0  0  0  0  0  0  0  0  0  0  0
  2  1  1  0
  2  3  2  0
  4  5  1  0
  4  2  1  0
  5  7  1  0
  5  6  1  6
  7  8  2  0
  9 10  1  0
 10 11  2  0
 12 13  1  0
 12 10  1  0
 13 14  1  0
 15 14  1  0
 16 18  1  0
 16 15  1  1
 17  7  1  0
 17 16  1  0
 18 19  2  0
 20 21  1  0
 20 18  1  0
 22 23  1  0
 21 22  1  6
 24 21  1  0
 24 26  1  0
 25 24  2  0
M  END
$$$$
