NRC.pdb
     RDKit          3D

 26 25  0  0  1  0  0  0  0  0999 V2000
   12.4212  -15.0821   17.9646 N   0  0  0  0  0  0  0  0  0  0  0  0
   12.2938  -13.9294   18.7842 C   0  0  0  0  0  0  0  0  0  0  0  0
   13.3579  -13.4222   19.2622 O   0  0  0  0  0  0  0  0  0  0  0  0
   10.9718  -13.3313   19.0784 C   0  0  0  0  0  0  0  0  0  0  0  0
    9.8240  -14.1489   18.5696 C   0  0  2  0  0  0  0  0  0  0  0  0
    8.8946  -13.2188   17.9202 N   0  0  0  0  0  0  0  0  0  0  0  0
    9.1196  -14.7231   19.7651 C   0  0  0  0  0  0  0  0  0  0  0  0
    8.3138  -13.9950   20.3910 O   0  0  0  0  0  0  0  0  0  0  0  0
    8.4676  -19.0209   17.0421 N   0  0  0  0  0  0  0  0  0  0  0  0
    7.1464  -19.5319   17.0506 C   0  0  0  0  0  0  0  0  0  0  0  0
    6.3695  -19.4835   16.0191 N   0  0  0  0  0  0  0  0  0  0  0  0
    6.6550  -20.1197   18.2318 N   0  0  0  0  0  0  0  0  0  0  0  0
    7.3795  -19.9401   19.4789 C   0  0  0  0  0  0  0  0  0  0  0  0
    7.6441  -18.5294   19.7869 C   0  0  0  0  0  0  0  0  0  0  0  0
    8.2689  -18.0746   21.0169 C   0  0  0  0  0  0  0  0  0  0  0  0
    8.5696  -16.6727   21.3079 C   0  0  2  0  0  0  0  0  0  0  0  0
    9.3309  -16.0494   20.2081 N   0  0  0  0  0  0  0  0  0  0  0  0
    9.1489  -16.2835   22.5951 C   0  0  0  0  0  0  0  0  0  0  0  0
   10.3118  -16.3978   22.9450 O   0  0  0  0  0  0  0  0  0  0  0  0
    5.4357  -19.9316   16.1054 N   0  0  0  0  0  0  0  0  0  0  0  0
    8.2949  -15.6844   23.6240 C   0  0  2  0  0  0  0  0  0  0  0  0
    8.7432  -15.4293   24.9543 C   0  0  0  0  0  0  0  0  0  0  0  0
    7.7140  -14.7041   25.7968 S   0  0  0  0  0  0  0  0  0  0  0  0
    7.5036  -13.0524   25.0240 C   0  0  0  0  0  0  0  0  0  0  0  0
    9.0661  -16.7063   25.6113 O   0  0  0  0  0  0  0  0  0  0  0  0
    8.3161  -17.6845   25.4843 O   0  0  0  0  0  0  0  0  0  0  0  0
  2  1  1  0
  2  3  2  0
  4  5  1  0
  4  2  1  0
  5  7  1  0
  5  6  1  1
  7  8  2  0
  9 10  1  0
 10 11  2  0
 12 13  1  0
 12 10  1  0
 13 14  1  0
 15 14  1  0
 16 18  1  0
 16 15  1  6
 17  7  1  0
 17 16  1  0
 18 19  2  0
 20 21  1  0
 20 18  1  0
 22 23  1  0
 21 22  1  6
 24 21  1  0
 24 26  1  0
 25 24  2  0
M  END
$$$$
