NRC.pdb
     RDKit          3D

 26 25  0  0  1  0  0  0  0  0999 V2000
   13.5649  -16.7826   15.4658 N   0  0  0  0  0  0  0  0  0  0  0  0
   13.4161  -17.8275   16.4158 C   0  0  0  0  0  0  0  0  0  0  0  0
   13.5129  -19.0253   15.9986 O   0  0  0  0  0  0  0  0  0  0  0  0
   13.1565  -17.5427   17.8453 C   0  0  0  0  0  0  0  0  0  0  0  0
   12.1871  -18.4964   18.4740 C   0  0  2  0  0  0  0  0  0  0  0  0
   10.9849  -18.4958   17.6342 N   0  0  0  0  0  0  0  0  0  0  0  0
   11.8006  -17.9262   19.8083 C   0  0  0  0  0  0  0  0  0  0  0  0
   12.7101  -17.6378   20.6213 O   0  0  0  0  0  0  0  0  0  0  0  0
    7.6761  -12.5635   17.2373 N   0  0  0  0  0  0  0  0  0  0  0  0
    7.5901  -13.6573   18.1333 C   0  0  0  0  0  0  0  0  0  0  0  0
    7.5752  -14.8875   17.7381 N   0  0  0  0  0  0  0  0  0  0  0  0
    7.5186  -13.3970   19.5150 N   0  0  0  0  0  0  0  0  0  0  0  0
    7.4110  -14.5045   20.4502 C   0  0  0  0  0  0  0  0  0  0  0  0
    8.6779  -15.2238   20.6308 C   0  0  0  0  0  0  0  0  0  0  0  0
    8.8164  -16.4269   21.4330 C   0  0  0  0  0  0  0  0  0  0  0  0
   10.0454  -17.2168   21.5112 C   0  0  2  0  0  0  0  0  0  0  0  0
   10.4543  -17.7032   20.1794 N   0  0  0  0  0  0  0  0  0  0  0  0
   10.1820  -18.2921   22.4955 C   0  0  0  0  0  0  0  0  0  0  0  0
   10.0360  -19.4882   22.3060 O   0  0  0  0  0  0  0  0  0  0  0  0
    7.5032  -15.6216   18.4704 N   0  0  0  0  0  0  0  0  0  0  0  0
   10.5308  -17.9678   23.8812 C   0  0  1  0  0  0  0  0  0  0  0  0
   10.6986  -18.9597   24.8929 C   0  0  0  0  0  0  0  0  0  0  0  0
   12.1175  -19.4837   24.9783 S   0  0  0  0  0  0  0  0  0  0  0  0
   13.1834  -18.0120   25.2377 C   0  0  0  0  0  0  0  0  0  0  0  0
   10.3345  -18.3876   26.1993 O   0  0  0  0  0  0  0  0  0  0  0  0
   10.0767  -17.1802   26.3056 O   0  0  0  0  0  0  0  0  0  0  0  0
  2  1  1  0
  2  3  2  0
  4  5  1  0
  4  2  1  0
  5  7  1  0
  5  6  1  6
  7  8  2  0
  9 10  1  0
 10 11  2  0
 12 13  1  0
 12 10  1  0
 13 14  1  0
 15 14  1  0
 16 18  1  0
 16 15  1  6
 17  7  1  0
 17 16  1  0
 18 19  2  0
 20 21  1  0
 20 18  1  0
 22 23  1  0
 21 22  1  6
 24 21  1  0
 24 26  1  0
 25 24  2  0
M  END
$$$$
