NRC.pdb
     RDKit          3D

 26 25  0  0  1  0  0  0  0  0999 V2000
    8.8930  -22.7099   21.4558 N   0  0  0  0  0  0  0  0  0  0  0  0
    8.4564  -21.5667   20.7353 C   0  0  0  0  0  0  0  0  0  0  0  0
    7.8100  -21.7579   19.6565 O   0  0  0  0  0  0  0  0  0  0  0  0
    8.7392  -20.1950   21.2152 C   0  0  0  0  0  0  0  0  0  0  0  0
    9.0128  -19.2235   20.1079 C   0  0  2  0  0  0  0  0  0  0  0  0
   10.2143  -19.6978   19.4135 N   0  0  0  0  0  0  0  0  0  0  0  0
    9.3541  -17.9063   20.7430 C   0  0  0  0  0  0  0  0  0  0  0  0
   10.4494  -17.7977   21.3427 O   0  0  0  0  0  0  0  0  0  0  0  0
    7.8958  -13.4444   15.1077 N   0  0  0  0  0  0  0  0  0  0  0  0
    7.5871  -13.7066   16.4651 C   0  0  0  0  0  0  0  0  0  0  0  0
    7.1523  -14.8518   16.8765 N   0  0  0  0  0  0  0  0  0  0  0  0
    7.7610  -12.6777   17.4103 N   0  0  0  0  0  0  0  0  0  0  0  0
    7.3968  -12.9081   18.7984 C   0  0  0  0  0  0  0  0  0  0  0  0
    8.2114  -13.9494   19.4366 C   0  0  0  0  0  0  0  0  0  0  0  0
    8.0065  -14.4142   20.7975 C   0  0  0  0  0  0  0  0  0  0  0  0
    8.7480  -15.5220   21.4003 C   0  0  2  0  0  0  0  0  0  0  0  0
    8.4890  -16.7888   20.6891 N   0  0  0  0  0  0  0  0  0  0  0  0
    8.7104  -15.7483   22.8463 C   0  0  0  0  0  0  0  0  0  0  0  0
    7.7209  -15.8178   23.5563 O   0  0  0  0  0  0  0  0  0  0  0  0
    6.9299  -14.9409   17.8880 N   0  0  0  0  0  0  0  0  0  0  0  0
    9.9629  -15.9184   23.5874 C   0  0  1  0  0  0  0  0  0  0  0  0
   10.0082  -16.1492   24.9946 C   0  0  0  0  0  0  0  0  0  0  0  0
    9.3335  -17.4423   25.4042 S   0  0  0  0  0  0  0  0  0  0  0  0
   10.2383  -18.7807   24.5325 C   0  0  0  0  0  0  0  0  0  0  0  0
   11.4121  -16.1973   25.4341 O   0  0  0  0  0  0  0  0  0  0  0  0
   11.6896  -16.3265   26.6349 O   0  0  0  0  0  0  0  0  0  0  0  0
  2  1  1  0
  2  3  2  0
  4  5  1  0
  4  2  1  0
  5  7  1  0
  5  6  1  1
  7  8  2  0
  9 10  1  0
 10 11  2  0
 12 13  1  0
 12 10  1  0
 13 14  1  0
 15 14  1  0
 16 18  1  0
 16 15  1  1
 17  7  1  0
 17 16  1  0
 18 19  2  0
 20 21  1  0
 20 18  1  0
 22 23  1  0
 21 22  1  1
 24 21  1  0
 24 26  1  0
 25 24  2  0
M  END
$$$$
