NRC.pdb
     RDKit          3D

 26 25  0  0  1  0  0  0  0  0999 V2000
    9.2593  -13.7032   16.5261 N   0  0  0  0  0  0  0  0  0  0  0  0
    8.0299  -13.4531   17.1915 C   0  0  0  0  0  0  0  0  0  0  0  0
    7.1846  -12.7006   16.6107 O   0  0  0  0  0  0  0  0  0  0  0  0
    7.7331  -14.0433   18.5165 C   0  0  0  0  0  0  0  0  0  0  0  0
    8.8202  -14.9411   19.0233 C   0  0  2  0  0  0  0  0  0  0  0  0
    8.8137  -16.1373   18.1750 N   0  0  0  0  0  0  0  0  0  0  0  0
    8.4336  -15.3732   20.4085 C   0  0  0  0  0  0  0  0  0  0  0  0
    7.6453  -16.3395   20.5351 O   0  0  0  0  0  0  0  0  0  0  0  0
   13.9178  -14.3956   21.2757 N   0  0  0  0  0  0  0  0  0  0  0  0
   14.1036  -15.7971   21.3650 C   0  0  0  0  0  0  0  0  0  0  0  0
   14.5719  -16.5056   20.3911 N   0  0  0  0  0  0  0  0  0  0  0  0
   13.7655  -16.4500   22.5657 N   0  0  0  0  0  0  0  0  0  0  0  0
   12.4403  -17.0264   22.7217 C   0  0  0  0  0  0  0  0  0  0  0  0
   11.3905  -16.0111   22.8704 C   0  0  0  0  0  0  0  0  0  0  0  0
    9.9851  -16.3245   23.0619 C   0  0  0  0  0  0  0  0  0  0  0  0
    8.9050  -15.3493   22.9107 C   0  0  2  0  0  0  0  0  0  0  0  0
    8.9245  -14.7330   21.5701 N   0  0  0  0  0  0  0  0  0  0  0  0
    8.6794  -14.3195   23.9268 C   0  0  0  0  0  0  0  0  0  0  0  0
    9.4320  -13.4104   24.2351 O   0  0  0  0  0  0  0  0  0  0  0  0
   14.6554  -17.5301   20.5453 N   0  0  0  0  0  0  0  0  0  0  0  0
    7.4330  -14.3207   24.6973 C   0  0  1  0  0  0  0  0  0  0  0  0
    7.1592  -13.3792   25.7337 C   0  0  0  0  0  0  0  0  0  0  0  0
    5.6940  -13.0043   25.8207 S   0  0  0  0  0  0  0  0  0  0  0  0
    5.5508  -11.8588   27.2479 C   0  0  0  0  0  0  0  0  0  0  0  0
    7.5717  -13.9472   27.0274 O   0  0  0  0  0  0  0  0  0  0  0  0
    7.5192  -15.1701   27.2211 O   0  0  0  0  0  0  0  0  0  0  0  0
  2  1  1  0
  2  3  2  0
  4  5  1  0
  4  2  1  0
  5  7  1  0
  5  6  1  6
  7  8  2  0
  9 10  1  0
 10 11  2  0
 12 13  1  0
 12 10  1  0
 13 14  1  0
 15 14  1  0
 16 18  1  0
 16 15  1  1
 17  7  1  0
 17 16  1  0
 18 19  2  0
 20 21  1  0
 20 18  1  0
 22 23  1  0
 21 22  1  1
 24 21  1  0
 24 26  1  0
 25 24  2  0
M  END
$$$$
