NRC.pdb
     RDKit          3D

 26 25  0  0  1  0  0  0  0  0999 V2000
    7.0158  -12.3751   17.0809 N   0  0  0  0  0  0  0  0  0  0  0  0
    7.7675  -13.5608   16.8671 C   0  0  0  0  0  0  0  0  0  0  0  0
    7.9767  -13.9205   15.6650 O   0  0  0  0  0  0  0  0  0  0  0  0
    8.2936  -14.3581   17.9982 C   0  0  0  0  0  0  0  0  0  0  0  0
    8.6619  -15.7592   17.6161 C   0  0  2  0  0  0  0  0  0  0  0  0
    7.4153  -16.4439   17.2586 N   0  0  0  0  0  0  0  0  0  0  0  0
    9.2037  -16.4300   18.8454 C   0  0  0  0  0  0  0  0  0  0  0  0
    8.3925  -16.8581   19.6997 O   0  0  0  0  0  0  0  0  0  0  0  0
   16.9962  -19.1924   21.5591 N   0  0  0  0  0  0  0  0  0  0  0  0
   16.1754  -20.2503   22.0214 C   0  0  0  0  0  0  0  0  0  0  0  0
   16.5608  -21.0954   22.9197 N   0  0  0  0  0  0  0  0  0  0  0  0
   14.8824  -20.3897   21.4819 N   0  0  0  0  0  0  0  0  0  0  0  0
   14.4270  -19.4634   20.4586 C   0  0  0  0  0  0  0  0  0  0  0  0
   13.1721  -18.7907   20.8157 C   0  0  0  0  0  0  0  0  0  0  0  0
   12.4474  -17.9051   19.9209 C   0  0  0  0  0  0  0  0  0  0  0  0
   11.1442  -17.3187   20.2343 C   0  0  2  0  0  0  0  0  0  0  0  0
   10.5896  -16.5962   19.0733 N   0  0  0  0  0  0  0  0  0  0  0  0
   10.9540  -16.5248   21.4497 C   0  0  0  0  0  0  0  0  0  0  0  0
   11.1554  -15.3298   21.5890 O   0  0  0  0  0  0  0  0  0  0  0  0
   15.8833  -21.8311   23.2027 N   0  0  0  0  0  0  0  0  0  0  0  0
   10.4707  -17.1727   22.6719 C   0  0  2  0  0  0  0  0  0  0  0  0
   10.2626  -16.4681   23.8949 C   0  0  0  0  0  0  0  0  0  0  0  0
    8.9287  -15.7518   23.9455 S   0  0  0  0  0  0  0  0  0  0  0  0
    8.8341  -14.9799   25.6083 C   0  0  0  0  0  0  0  0  0  0  0  0
   10.3242  -17.4168   25.0186 O   0  0  0  0  0  0  0  0  0  0  0  0
   10.3805  -18.6366   24.8075 O   0  0  0  0  0  0  0  0  0  0  0  0
  2  1  1  0
  2  3  2  0
  4  5  1  0
  4  2  1  0
  5  7  1  0
  5  6  1  1
  7  8  2  0
  9 10  1  0
 10 11  2  0
 12 13  1  0
 12 10  1  0
 13 14  1  0
 15 14  1  0
 16 18  1  0
 16 15  1  6
 17  7  1  0
 17 16  1  0
 18 19  2  0
 20 21  1  0
 20 18  1  0
 22 23  1  0
 21 22  1  1
 24 21  1  0
 24 26  1  0
 25 24  2  0
M  END
$$$$
