NRC.pdb
     RDKit          3D

 26 25  0  0  1  0  0  0  0  0999 V2000
    9.1509  -14.6509   16.1689 N   0  0  0  0  0  0  0  0  0  0  0  0
    8.2270  -13.8539   16.8953 C   0  0  0  0  0  0  0  0  0  0  0  0
    7.7146  -12.8521   16.3019 O   0  0  0  0  0  0  0  0  0  0  0  0
    7.8663  -14.1697   18.2960 C   0  0  0  0  0  0  0  0  0  0  0  0
    8.5195  -15.4161   18.8105 C   0  0  2  0  0  0  0  0  0  0  0  0
    7.8394  -16.5473   18.1716 N   0  0  0  0  0  0  0  0  0  0  0  0
    8.2333  -15.4958   20.2825 C   0  0  0  0  0  0  0  0  0  0  0  0
    7.0391  -15.5683   20.6563 O   0  0  0  0  0  0  0  0  0  0  0  0
    7.6678  -18.7380   26.2778 N   0  0  0  0  0  0  0  0  0  0  0  0
    8.8796  -18.8498   27.0029 C   0  0  0  0  0  0  0  0  0  0  0  0
    8.9280  -18.8319   28.2941 N   0  0  0  0  0  0  0  0  0  0  0  0
   10.0856  -18.9876   26.2896 N   0  0  0  0  0  0  0  0  0  0  0  0
   10.1026  -18.7539   24.8551 C   0  0  0  0  0  0  0  0  0  0  0  0
   10.0345  -17.3290   24.5085 C   0  0  0  0  0  0  0  0  0  0  0  0
    9.9865  -16.8310   23.1447 C   0  0  0  0  0  0  0  0  0  0  0  0
    9.0320  -15.8253   22.6778 C   0  0  2  0  0  0  0  0  0  0  0  0
    9.2573  -15.4924   21.2580 N   0  0  0  0  0  0  0  0  0  0  0  0
    8.8024  -14.5992   23.4444 C   0  0  0  0  0  0  0  0  0  0  0  0
    9.3552  -13.5221   23.2955 O   0  0  0  0  0  0  0  0  0  0  0  0
    9.8636  -18.9284   28.7366 N   0  0  0  0  0  0  0  0  0  0  0  0
    7.8133  -14.5934   24.5255 C   0  0  2  0  0  0  0  0  0  0  0  0
    7.5831  -13.4609   25.3621 C   0  0  0  0  0  0  0  0  0  0  0  0
    6.2020  -12.8645   25.1839 S   0  0  0  0  0  0  0  0  0  0  0  0
    6.0681  -11.5227   26.4294 C   0  0  0  0  0  0  0  0  0  0  0  0
    7.7404  -13.8577   26.7708 O   0  0  0  0  0  0  0  0  0  0  0  0
    7.5978  -15.0413   27.1089 O   0  0  0  0  0  0  0  0  0  0  0  0
  2  1  1  0
  2  3  2  0
  4  5  1  0
  4  2  1  0
  5  7  1  0
  5  6  1  6
  7  8  2  0
  9 10  1  0
 10 11  2  0
 12 13  1  0
 12 10  1  0
 13 14  1  0
 15 14  1  0
 16 18  1  0
 16 15  1  1
 17  7  1  0
 17 16  1  0
 18 19  2  0
 20 21  1  0
 20 18  1  0
 22 23  1  0
 21 22  1  6
 24 21  1  0
 24 26  1  0
 25 24  2  0
M  END
$$$$
