EQL.pdb
     RDKit          3D

 27 26  0  0  1  0  0  0  0  0999 V2000
   11.4081  -17.3687   20.3029 N   0  0  0  0  0  0  0  0  0  0  0  0
   10.1474  -16.6426   19.9693 C   0  0  1  0  0  0  0  0  0  0  0  0
    9.4495  -17.4776   18.9215 C   0  0  0  0  0  0  0  0  0  0  0  0
   10.3273  -18.1509   17.9324 C   0  0  0  0  0  0  0  0  0  0  0  0
    9.5926  -18.9089   16.9040 C   0  0  0  0  0  0  0  0  0  0  0  0
   10.1259  -19.5049   15.9409 O   0  0  0  0  0  0  0  0  0  0  0  0
    9.3106  -16.6731   21.2184 C   0  0  0  0  0  0  0  0  0  0  0  0
    8.1658  -16.1400   21.1429 O   0  0  0  0  0  0  0  0  0  0  0  0
    8.1831  -18.9678   17.0137 O   0  0  0  0  0  0  0  0  0  0  0  0
    5.7139  -18.8010   23.5186 N   0  0  0  0  0  0  0  0  0  0  0  0
    6.6392  -19.6160   22.8005 C   0  0  0  0  0  0  0  0  0  0  0  0
    6.1816  -20.3767   21.9447 O   0  0  0  0  0  0  0  0  0  0  0  0
    8.1111  -19.5242   23.0993 C   0  0  0  0  0  0  0  0  0  0  0  0
    8.4038  -18.5216   24.1547 C   0  0  0  0  0  0  0  0  0  0  0  0
    8.9515  -17.2038   23.6765 C   0  0  2  0  0  0  0  0  0  0  0  0
    9.6771  -17.2331   22.4440 N   0  0  0  0  0  0  0  0  0  0  0  0
    9.5707  -16.4787   24.7849 C   0  0  0  0  0  0  0  0  0  0  0  0
    9.9661  -17.1934   25.7605 O   0  0  0  0  0  0  0  0  0  0  0  0
    5.7158  -12.5701   25.9641 C   0  0  0  0  0  0  0  0  0  0  0  0
    7.0672  -12.9890   26.4803 C   0  0  2  0  0  0  0  0  0  0  0  0
    7.7797  -11.9301   27.2778 C   0  0  0  0  0  0  0  0  0  0  0  0
    7.9110  -13.7115   25.5122 C   0  0  0  0  0  0  0  0  0  0  0  0
    9.2233  -14.2273   25.9110 C   0  0  2  0  0  0  0  0  0  0  0  0
    9.7422  -15.0649   24.8159 N   0  0  0  0  0  0  0  0  0  0  0  0
    9.3781  -14.9321   27.1667 C   0  0  0  0  0  0  0  0  0  0  0  0
    8.8448  -16.2295   27.2931 O   0  0  0  0  0  0  0  0  0  0  0  0
    9.9480  -14.5366   28.2130 O   0  0  0  0  0  0  0  0  0  0  0  0
  2  1  1  1
  3  2  1  0
  3  4  1  0
  5  6  2  0
  5  4  1  0
  7  8  2  0
  7  2  1  0
  9  5  1  0
 10 11  1  0
 11 12  2  0
 11 13  1  0
 13 14  1  0
 15 14  1  1
 15 16  1  0
 16  7  1  0
 17 18  2  0
 17 15  1  0
 20 22  1  0
 20 19  1  6
 21 20  1  0
 23 24  1  0
 23 22  1  6
 24 17  1  0
 25 23  1  0
 26 25  1  0
 27 25  2  0
M  END
$$$$
