EQL.pdb
     RDKit          3D

 27 26  0  0  1  0  0  0  0  0999 V2000
    9.3531  -12.9625   19.4559 N   0  0  0  0  0  0  0  0  0  0  0  0
    7.9824  -13.5528   19.4279 C   0  0  1  0  0  0  0  0  0  0  0  0
    7.8070  -14.1358   18.0454 C   0  0  0  0  0  0  0  0  0  0  0  0
    8.4490  -13.3884   16.9357 C   0  0  0  0  0  0  0  0  0  0  0  0
    8.2133  -13.9789   15.6061 C   0  0  0  0  0  0  0  0  0  0  0  0
    8.6618  -13.5182   14.5320 O   0  0  0  0  0  0  0  0  0  0  0  0
    8.0029  -14.6906   20.4109 C   0  0  0  0  0  0  0  0  0  0  0  0
    6.8795  -15.1674   20.7447 O   0  0  0  0  0  0  0  0  0  0  0  0
    7.4241  -15.1515   15.5393 O   0  0  0  0  0  0  0  0  0  0  0  0
    9.7775  -19.8530   21.0713 N   0  0  0  0  0  0  0  0  0  0  0  0
   10.0726  -19.6652   22.4547 C   0  0  0  0  0  0  0  0  0  0  0  0
   10.0752  -20.6651   23.1762 O   0  0  0  0  0  0  0  0  0  0  0  0
   10.3674  -18.2863   22.9800 C   0  0  0  0  0  0  0  0  0  0  0  0
   10.3140  -17.2590   21.9091 C   0  0  0  0  0  0  0  0  0  0  0  0
    9.1988  -16.2540   22.0167 C   0  0  2  0  0  0  0  0  0  0  0  0
    9.1390  -15.2664   20.9834 N   0  0  0  0  0  0  0  0  0  0  0  0
    9.0801  -15.7722   23.3920 C   0  0  0  0  0  0  0  0  0  0  0  0
    8.8915  -16.6670   24.2766 O   0  0  0  0  0  0  0  0  0  0  0  0
    5.6094  -13.0876   26.5174 C   0  0  0  0  0  0  0  0  0  0  0  0
    7.0259  -12.6180   26.3142 C   0  0  2  0  0  0  0  0  0  0  0  0
    7.2473  -11.1644   26.6350 C   0  0  0  0  0  0  0  0  0  0  0  0
    7.6690  -13.0858   25.0736 C   0  0  0  0  0  0  0  0  0  0  0  0
    8.8646  -13.9311   25.1303 C   0  0  2  0  0  0  0  0  0  0  0  0
    9.1633  -14.4002   23.7662 N   0  0  0  0  0  0  0  0  0  0  0  0
    8.9210  -15.0528   26.0448 C   0  0  0  0  0  0  0  0  0  0  0  0
    8.1619  -16.2049   25.7616 O   0  0  0  0  0  0  0  0  0  0  0  0
    9.5818  -15.1548   27.1072 O   0  0  0  0  0  0  0  0  0  0  0  0
  2  1  1  6
  3  2  1  0
  3  4  1  0
  5  6  2  0
  5  4  1  0
  7  8  2  0
  7  2  1  0
  9  5  1  0
 10 11  1  0
 11 12  2  0
 11 13  1  0
 13 14  1  0
 15 14  1  1
 15 16  1  0
 16  7  1  0
 17 18  2  0
 17 15  1  0
 20 22  1  0
 20 19  1  6
 21 20  1  0
 23 24  1  0
 23 22  1  6
 24 17  1  0
 25 23  1  0
 26 25  1  0
 27 25  2  0
M  END
$$$$
