EQL.pdb
     RDKit          3D

 27 26  0  0  1  0  0  0  0  0999 V2000
    9.6936  -17.6535   20.3695 N   0  0  0  0  0  0  0  0  0  0  0  0
    8.7525  -16.5017   20.2437 C   0  0  1  0  0  0  0  0  0  0  0  0
    7.6554  -16.9590   19.3113 C   0  0  0  0  0  0  0  0  0  0  0  0
    7.2504  -18.3819   19.4282 C   0  0  0  0  0  0  0  0  0  0  0  0
    6.6708  -18.9388   18.1930 C   0  0  0  0  0  0  0  0  0  0  0  0
    6.6173  -18.3372   17.0964 O   0  0  0  0  0  0  0  0  0  0  0  0
    8.1503  -16.3098   21.6082 C   0  0  0  0  0  0  0  0  0  0  0  0
    7.2880  -15.3908   21.7194 O   0  0  0  0  0  0  0  0  0  0  0  0
    6.1372  -20.2481   18.2506 O   0  0  0  0  0  0  0  0  0  0  0  0
    6.9740  -21.6079   23.9807 N   0  0  0  0  0  0  0  0  0  0  0  0
    6.7434  -20.4824   24.8270 C   0  0  0  0  0  0  0  0  0  0  0  0
    6.6270  -20.6946   26.0360 O   0  0  0  0  0  0  0  0  0  0  0  0
    6.6536  -19.1022   24.2343 C   0  0  0  0  0  0  0  0  0  0  0  0
    7.6507  -18.1754   24.8272 C   0  0  0  0  0  0  0  0  0  0  0  0
    7.8987  -16.9010   24.0658 C   0  0  2  0  0  0  0  0  0  0  0  0
    8.4515  -17.0480   22.7546 N   0  0  0  0  0  0  0  0  0  0  0  0
    8.5244  -15.9044   24.9334 C   0  0  0  0  0  0  0  0  0  0  0  0
    9.7948  -15.8512   24.8872 O   0  0  0  0  0  0  0  0  0  0  0  0
    7.5633  -11.7030   24.9489 C   0  0  0  0  0  0  0  0  0  0  0  0
    6.7331  -12.3220   26.0424 C   0  0  2  0  0  0  0  0  0  0  0  0
    5.6398  -11.4312   26.5679 C   0  0  0  0  0  0  0  0  0  0  0  0
    7.4961  -13.0451   27.0750 C   0  0  0  0  0  0  0  0  0  0  0  0
    8.4674  -14.0746   26.6958 C   0  0  2  0  0  0  0  0  0  0  0  0
    7.8008  -15.0276   25.7917 N   0  0  0  0  0  0  0  0  0  0  0  0
    9.1878  -14.8075   27.7164 C   0  0  0  0  0  0  0  0  0  0  0  0
    8.8748  -16.1635   27.9341 O   0  0  0  0  0  0  0  0  0  0  0  0
   10.0977  -14.3908   28.4741 O   0  0  0  0  0  0  0  0  0  0  0  0
  2  1  1  1
  3  2  1  0
  3  4  1  0
  5  6  2  0
  5  4  1  0
  7  8  2  0
  7  2  1  0
  9  5  1  0
 10 11  1  0
 11 12  2  0
 11 13  1  0
 13 14  1  0
 15 14  1  1
 15 16  1  0
 16  7  1  0
 17 18  2  0
 17 15  1  0
 20 22  1  0
 20 19  1  1
 21 20  1  0
 23 24  1  0
 23 22  1  1
 24 17  1  0
 25 23  1  0
 26 25  1  0
 27 25  2  0
M  END
$$$$
