EQL.pdb
     RDKit          3D

 27 26  0  0  1  0  0  0  0  0999 V2000
    8.0098  -14.4680   18.3098 N   0  0  0  0  0  0  0  0  0  0  0  0
    9.2397  -14.6250   19.1410 C   0  0  1  0  0  0  0  0  0  0  0  0
    9.7252  -13.2254   19.4367 C   0  0  0  0  0  0  0  0  0  0  0  0
   10.7669  -12.6898   18.5254 C   0  0  0  0  0  0  0  0  0  0  0  0
   12.0486  -13.4136   18.5964 C   0  0  0  0  0  0  0  0  0  0  0  0
   12.7023  -13.6043   19.6469 O   0  0  0  0  0  0  0  0  0  0  0  0
    8.7869  -15.2412   20.4358 C   0  0  0  0  0  0  0  0  0  0  0  0
    7.6580  -14.8717   20.8713 O   0  0  0  0  0  0  0  0  0  0  0  0
   12.5779  -13.9310   17.3904 O   0  0  0  0  0  0  0  0  0  0  0  0
   10.6718  -20.6437   23.2771 N   0  0  0  0  0  0  0  0  0  0  0  0
    9.9426  -20.0104   24.3274 C   0  0  0  0  0  0  0  0  0  0  0  0
    9.7931  -20.6413   25.3762 O   0  0  0  0  0  0  0  0  0  0  0  0
    9.3927  -18.6236   24.1307 C   0  0  0  0  0  0  0  0  0  0  0  0
    9.7132  -18.0829   22.7855 C   0  0  0  0  0  0  0  0  0  0  0  0
    9.1296  -16.7337   22.4626 C   0  0  2  0  0  0  0  0  0  0  0  0
    9.4913  -16.1778   21.1950 N   0  0  0  0  0  0  0  0  0  0  0  0
    9.2298  -15.8465   23.6203 C   0  0  0  0  0  0  0  0  0  0  0  0
   10.3897  -15.3830   23.8625 O   0  0  0  0  0  0  0  0  0  0  0  0
    5.4764  -12.2487   26.9293 C   0  0  0  0  0  0  0  0  0  0  0  0
    6.8826  -12.7501   26.7303 C   0  0  2  0  0  0  0  0  0  0  0  0
    7.9319  -11.6715   26.7483 C   0  0  0  0  0  0  0  0  0  0  0  0
    7.0439  -13.7568   25.6664 C   0  0  0  0  0  0  0  0  0  0  0  0
    8.2602  -14.5706   25.5925 C   0  0  2  0  0  0  0  0  0  0  0  0
    8.1288  -15.4947   24.4529 N   0  0  0  0  0  0  0  0  0  0  0  0
    8.7166  -15.3055   26.7540 C   0  0  0  0  0  0  0  0  0  0  0  0
    9.6173  -14.6881   27.6436 O   0  0  0  0  0  0  0  0  0  0  0  0
    8.4110  -16.4720   27.1032 O   0  0  0  0  0  0  0  0  0  0  0  0
  2  1  1  6
  3  2  1  0
  3  4  1  0
  5  6  2  0
  5  4  1  0
  7  8  2  0
  7  2  1  0
  9  5  1  0
 10 11  1  0
 11 12  2  0
 11 13  1  0
 13 14  1  0
 15 14  1  1
 15 16  1  0
 16  7  1  0
 17 18  2  0
 17 15  1  0
 20 22  1  0
 20 19  1  6
 21 20  1  0
 23 24  1  0
 23 22  1  1
 24 17  1  0
 25 23  1  0
 26 25  1  0
 27 25  2  0
M  END
$$$$
