EQL.pdb
     RDKit          3D

 27 26  0  0  1  0  0  0  0  0999 V2000
    5.2905  -18.4618   19.9692 N   0  0  0  0  0  0  0  0  0  0  0  0
    6.6626  -18.4765   20.5569 C   0  0  1  0  0  0  0  0  0  0  0  0
    7.4329  -17.3886   19.8461 C   0  0  0  0  0  0  0  0  0  0  0  0
    7.5520  -17.5287   18.3736 C   0  0  0  0  0  0  0  0  0  0  0  0
    8.4098  -16.5077   17.7464 C   0  0  0  0  0  0  0  0  0  0  0  0
    8.0365  -15.7140   16.8531 O   0  0  0  0  0  0  0  0  0  0  0  0
    6.5003  -18.0653   21.9943 C   0  0  0  0  0  0  0  0  0  0  0  0
    5.6039  -17.2062   22.2369 O   0  0  0  0  0  0  0  0  0  0  0  0
    9.7517  -16.4175   18.1862 O   0  0  0  0  0  0  0  0  0  0  0  0
    7.5736  -21.3423   27.2965 N   0  0  0  0  0  0  0  0  0  0  0  0
    7.2287  -20.0568   27.8109 C   0  0  0  0  0  0  0  0  0  0  0  0
    7.0062  -19.9696   29.0206 O   0  0  0  0  0  0  0  0  0  0  0  0
    7.1506  -18.8730   26.8853 C   0  0  0  0  0  0  0  0  0  0  0  0
    7.2747  -19.2710   25.4602 C   0  0  0  0  0  0  0  0  0  0  0  0
    7.1326  -18.1620   24.4526 C   0  0  2  0  0  0  0  0  0  0  0  0
    7.2409  -18.5422   23.0778 N   0  0  0  0  0  0  0  0  0  0  0  0
    7.9033  -16.9926   24.8722 C   0  0  0  0  0  0  0  0  0  0  0  0
    9.1254  -16.9802   24.5185 O   0  0  0  0  0  0  0  0  0  0  0  0
    6.0815  -11.6070   26.8647 C   0  0  0  0  0  0  0  0  0  0  0  0
    7.0480  -12.4874   26.1170 C   0  0  2  0  0  0  0  0  0  0  0  0
    6.8359  -12.5124   24.6273 C   0  0  0  0  0  0  0  0  0  0  0  0
    7.3011  -13.8026   26.7312 C   0  0  0  0  0  0  0  0  0  0  0  0
    8.1830  -14.7714   26.0746 C   0  0  2  0  0  0  0  0  0  0  0  0
    7.3648  -15.9123   25.6287 N   0  0  0  0  0  0  0  0  0  0  0  0
    9.3599  -15.2655   26.7589 C   0  0  0  0  0  0  0  0  0  0  0  0
   10.5735  -14.5628   26.6266 O   0  0  0  0  0  0  0  0  0  0  0  0
    9.4628  -16.2799   27.4912 O   0  0  0  0  0  0  0  0  0  0  0  0
  2  1  1  6
  3  2  1  0
  3  4  1  0
  5  6  2  0
  5  4  1  0
  7  8  2  0
  7  2  1  0
  9  5  1  0
 10 11  1  0
 11 12  2  0
 11 13  1  0
 13 14  1  0
 15 14  1  1
 15 16  1  0
 16  7  1  0
 17 18  2  0
 17 15  1  0
 20 22  1  0
 20 19  1  1
 21 20  1  0
 23 24  1  0
 23 22  1  1
 24 17  1  0
 25 23  1  0
 26 25  1  0
 27 25  2  0
M  END
$$$$
