EQL.pdb
     RDKit          3D

 27 26  0  0  1  0  0  0  0  0999 V2000
    5.5844  -19.1677   22.4918 N   0  0  0  0  0  0  0  0  0  0  0  0
    6.2399  -18.4114   23.5993 C   0  0  1  0  0  0  0  0  0  0  0  0
    6.8087  -19.4515   24.5356 C   0  0  0  0  0  0  0  0  0  0  0  0
    7.4978  -18.9347   25.7440 C   0  0  0  0  0  0  0  0  0  0  0  0
    8.1720  -19.9785   26.5364 C   0  0  0  0  0  0  0  0  0  0  0  0
    8.8628  -19.7631   27.5580 O   0  0  0  0  0  0  0  0  0  0  0  0
    7.3909  -17.6749   22.9713 C   0  0  0  0  0  0  0  0  0  0  0  0
    8.5253  -17.8411   23.5062 O   0  0  0  0  0  0  0  0  0  0  0  0
    8.0273  -21.3207   26.1123 O   0  0  0  0  0  0  0  0  0  0  0  0
    7.4125  -13.4621   18.2128 N   0  0  0  0  0  0  0  0  0  0  0  0
    8.1959  -13.0403   19.3283 C   0  0  0  0  0  0  0  0  0  0  0  0
    9.3031  -12.5514   19.0929 O   0  0  0  0  0  0  0  0  0  0  0  0
    7.6604  -13.1980   20.7256 C   0  0  0  0  0  0  0  0  0  0  0  0
    7.0476  -14.5334   20.9399 C   0  0  0  0  0  0  0  0  0  0  0  0
    7.8772  -15.5213   21.7151 C   0  0  2  0  0  0  0  0  0  0  0  0
    7.3237  -16.8325   21.8597 N   0  0  0  0  0  0  0  0  0  0  0  0
    8.4108  -14.8976   22.9250 C   0  0  0  0  0  0  0  0  0  0  0  0
    9.3635  -14.0732   22.7477 O   0  0  0  0  0  0  0  0  0  0  0  0
    5.9322  -12.1950   27.5343 C   0  0  0  0  0  0  0  0  0  0  0  0
    7.2532  -12.6189   26.9480 C   0  0  2  0  0  0  0  0  0  0  0  0
    8.2485  -11.5006   26.7941 C   0  0  0  0  0  0  0  0  0  0  0  0
    7.1626  -13.5336   25.7962 C   0  0  0  0  0  0  0  0  0  0  0  0
    8.3141  -14.3509   25.4048 C   0  0  2  0  0  0  0  0  0  0  0  0
    7.9281  -15.1638   24.2386 N   0  0  0  0  0  0  0  0  0  0  0  0
    8.9727  -15.1957   26.3796 C   0  0  0  0  0  0  0  0  0  0  0  0
    9.8822  -14.6147   27.2847 O   0  0  0  0  0  0  0  0  0  0  0  0
    8.8451  -16.4334   26.5458 O   0  0  0  0  0  0  0  0  0  0  0  0
  2  1  1  6
  3  2  1  0
  3  4  1  0
  5  6  2  0
  5  4  1  0
  7  8  2  0
  7  2  1  0
  9  5  1  0
 10 11  1  0
 11 12  2  0
 11 13  1  0
 13 14  1  0
 15 14  1  1
 15 16  1  0
 16  7  1  0
 17 18  2  0
 17 15  1  0
 20 22  1  0
 20 19  1  6
 21 20  1  0
 23 24  1  0
 23 22  1  1
 24 17  1  0
 25 23  1  0
 26 25  1  0
 27 25  2  0
M  END
$$$$
