EQL.pdb
     RDKit          3D

 27 26  0  0  1  0  0  0  0  0999 V2000
   10.0219  -13.5905   18.6910 N   0  0  0  0  0  0  0  0  0  0  0  0
    8.6172  -13.3684   19.1444 C   0  0  1  0  0  0  0  0  0  0  0  0
    7.7335  -13.8680   18.0256 C   0  0  0  0  0  0  0  0  0  0  0  0
    8.0868  -13.4077   16.6598 C   0  0  0  0  0  0  0  0  0  0  0  0
    7.8980  -14.4337   15.6189 C   0  0  0  0  0  0  0  0  0  0  0  0
    6.9422  -15.2411   15.5789 O   0  0  0  0  0  0  0  0  0  0  0  0
    8.4184  -14.2718   20.3299 C   0  0  0  0  0  0  0  0  0  0  0  0
    7.2645  -14.2751   20.8487 O   0  0  0  0  0  0  0  0  0  0  0  0
    8.8666  -14.5111   14.5902 O   0  0  0  0  0  0  0  0  0  0  0  0
   11.0543  -19.7981   21.7554 N   0  0  0  0  0  0  0  0  0  0  0  0
   11.3727  -18.8675   20.7216 C   0  0  0  0  0  0  0  0  0  0  0  0
   12.0497  -19.2778   19.7763 O   0  0  0  0  0  0  0  0  0  0  0  0
   10.8828  -17.4476   20.8114 C   0  0  0  0  0  0  0  0  0  0  0  0
   10.0725  -17.2141   22.0336 C   0  0  0  0  0  0  0  0  0  0  0  0
    9.2383  -15.9614   22.0405 C   0  0  2  0  0  0  0  0  0  0  0  0
    9.3820  -15.1026   20.9054 N   0  0  0  0  0  0  0  0  0  0  0  0
    9.2892  -15.3243   23.3554 C   0  0  0  0  0  0  0  0  0  0  0  0
   10.2514  -14.5123   23.5392 O   0  0  0  0  0  0  0  0  0  0  0  0
    5.8875  -12.5281   27.2976 C   0  0  0  0  0  0  0  0  0  0  0  0
    7.2370  -13.1647   27.0936 C   0  0  2  0  0  0  0  0  0  0  0  0
    8.4000  -12.2606   27.4018 C   0  0  0  0  0  0  0  0  0  0  0  0
    7.3756  -13.9570   25.8589 C   0  0  0  0  0  0  0  0  0  0  0  0
    8.4541  -14.9398   25.7245 C   0  0  2  0  0  0  0  0  0  0  0  0
    8.3457  -15.5652   24.3951 N   0  0  0  0  0  0  0  0  0  0  0  0
    8.6281  -15.9718   26.7257 C   0  0  0  0  0  0  0  0  0  0  0  0
    9.3811  -15.6841   27.8807 O   0  0  0  0  0  0  0  0  0  0  0  0
    8.1828  -17.1454   26.7154 O   0  0  0  0  0  0  0  0  0  0  0  0
  2  1  1  6
  3  2  1  0
  3  4  1  0
  5  6  2  0
  5  4  1  0
  7  8  2  0
  7  2  1  0
  9  5  1  0
 10 11  1  0
 11 12  2  0
 11 13  1  0
 13 14  1  0
 15 14  1  1
 15 16  1  0
 16  7  1  0
 17 18  2  0
 17 15  1  0
 20 22  1  0
 20 19  1  6
 21 20  1  0
 23 24  1  0
 23 22  1  1
 24 17  1  0
 25 23  1  0
 26 25  1  0
 27 25  2  0
M  END
$$$$
