FIG.pdb
     RDKit          3D

 24 24  0  0  1  0  0  0  0  0999 V2000
    6.5942  -17.1110   26.2494 N   0  0  0  0  0  0  0  0  0  0  0  0
    7.5140  -16.1308   25.6457 C   0  0  1  0  0  0  0  0  0  0  0  0
    8.8843  -16.3007   26.2059 C   0  0  0  0  0  0  0  0  0  0  0  0
    9.2651  -15.3871   27.2640 C   0  0  0  0  0  0  0  0  0  0  0  0
   10.1109  -15.7987   28.2672 C   0  0  0  0  0  0  0  0  0  0  0  0
   10.5006  -14.9603   29.2990 C   0  0  0  0  0  0  0  0  0  0  0  0
   10.0315  -13.6790   29.3261 C   0  0  0  0  0  0  0  0  0  0  0  0
    9.1905  -13.2309   28.3500 C   0  0  0  0  0  0  0  0  0  0  0  0
    8.8102  -14.0897   27.3206 C   0  0  0  0  0  0  0  0  0  0  0  0
    7.3924  -16.2201   24.1935 C   0  0  0  0  0  0  0  0  0  0  0  0
    6.6374  -17.0863   23.6478 O   0  0  0  0  0  0  0  0  0  0  0  0
    7.2191  -12.4453   19.4559 C   0  0  0  0  0  0  0  0  0  0  0  0
    7.3769  -13.8560   19.9192 C   0  0  0  0  0  0  0  0  0  0  0  0
    7.6893  -13.9354   21.4080 C   0  0  2  0  0  0  0  0  0  0  0  0
    9.0001  -13.2391   21.6345 C   0  0  0  0  0  0  0  0  0  0  0  0
    7.7973  -15.3938   21.8484 C   0  0  2  0  0  0  0  0  0  0  0  0
    8.0856  -15.3705   23.2660 N   0  0  0  0  0  0  0  0  0  0  0  0
    8.7916  -16.1336   21.0692 C   0  0  0  0  0  0  0  0  0  0  0  0
    8.5842  -16.4180   19.8569 O   0  0  0  0  0  0  0  0  0  0  0  0
   10.0384  -16.5797   21.6015 N   0  0  0  0  0  0  0  0  0  0  0  0
   11.0177  -17.2866   20.8346 C   0  0  0  0  0  0  0  0  0  0  0  0
   11.9436  -16.4247   20.1041 C   0  0  0  0  0  0  0  0  0  0  0  0
   12.7316  -15.6785   20.7223 O   0  0  0  0  0  0  0  0  0  0  0  0
   11.9662  -16.4175   18.7255 O   0  0  0  0  0  0  0  0  0  0  0  0
  2 10  1  0
  2  1  1  1
  3  2  1  0
  4  5  2  0
  4  3  1  0
  6  5  1  0
  7  6  2  0
  8  7  1  0
  8  9  2  0
  9  4  1  0
 10 11  2  0
 12 13  1  0
 14 15  1  6
 14 13  1  0
 16 14  1  0
 16 17  1  1
 17 10  1  0
 18 16  1  0
 19 18  2  0
 20 18  1  0
 21 20  1  0
 22 24  1  0
 22 21  1  0
 23 22  2  0
M  END
$$$$
