FIG.pdb
     RDKit          3D

 24 24  0  0  1  0  0  0  0  0999 V2000
    6.0712  -16.6466   21.3695 N   0  0  0  0  0  0  0  0  0  0  0  0
    5.7725  -16.7102   22.8109 C   0  0  1  0  0  0  0  0  0  0  0  0
    5.3583  -18.0909   23.1885 C   0  0  0  0  0  0  0  0  0  0  0  0
    4.1572  -18.5982   22.5567 C   0  0  0  0  0  0  0  0  0  0  0  0
    4.2303  -19.6330   21.6539 C   0  0  0  0  0  0  0  0  0  0  0  0
    3.1089  -20.1489   21.0250 C   0  0  0  0  0  0  0  0  0  0  0  0
    1.8850  -19.6151   21.3076 C   0  0  0  0  0  0  0  0  0  0  0  0
    1.7687  -18.5876   22.1973 C   0  0  0  0  0  0  0  0  0  0  0  0
    2.9088  -18.0826   22.8194 C   0  0  0  0  0  0  0  0  0  0  0  0
    6.9074  -16.1523   23.5406 C   0  0  0  0  0  0  0  0  0  0  0  0
    8.0917  -16.2416   23.0849 O   0  0  0  0  0  0  0  0  0  0  0  0
    6.3173  -11.8970   26.5186 C   0  0  0  0  0  0  0  0  0  0  0  0
    7.1011  -12.8680   25.6985 C   0  0  0  0  0  0  0  0  0  0  0  0
    7.6042  -14.0408   26.5302 C   0  0  2  0  0  0  0  0  0  0  0  0
    8.8222  -13.5786   27.2767 C   0  0  0  0  0  0  0  0  0  0  0  0
    7.9698  -15.2139   25.6231 C   0  0  2  0  0  0  0  0  0  0  0  0
    6.8076  -15.4695   24.8002 N   0  0  0  0  0  0  0  0  0  0  0  0
    8.4069  -16.3853   26.3847 C   0  0  0  0  0  0  0  0  0  0  0  0
    7.6522  -16.9176   27.2451 O   0  0  0  0  0  0  0  0  0  0  0  0
    9.6838  -17.0014   26.2205 N   0  0  0  0  0  0  0  0  0  0  0  0
   10.0658  -18.2150   26.8748 C   0  0  0  0  0  0  0  0  0  0  0  0
   11.0075  -18.0313   27.9762 C   0  0  0  0  0  0  0  0  0  0  0  0
   11.4202  -16.8895   28.2694 O   0  0  0  0  0  0  0  0  0  0  0  0
   11.4573  -19.1084   28.7102 O   0  0  0  0  0  0  0  0  0  0  0  0
  2 10  1  0
  2  1  1  6
  3  2  1  0
  4  5  2  0
  4  3  1  0
  6  5  1  0
  7  6  2  0
  8  7  1  0
  8  9  2  0
  9  4  1  0
 10 11  2  0
 12 13  1  0
 14 15  1  6
 14 13  1  0
 16 14  1  0
 16 17  1  1
 17 10  1  0
 18 16  1  0
 19 18  2  0
 20 18  1  0
 21 20  1  0
 22 24  1  0
 22 21  1  0
 23 22  2  0
M  END
$$$$
