FIG.pdb
     RDKit          3D

 24 24  0  0  1  0  0  0  0  0999 V2000
    6.3005  -16.6682   25.7944 N   0  0  0  0  0  0  0  0  0  0  0  0
    6.8484  -15.5201   25.0510 C   0  0  1  0  0  0  0  0  0  0  0  0
    7.7551  -14.7267   25.9279 C   0  0  0  0  0  0  0  0  0  0  0  0
    7.1752  -13.5646   26.5700 C   0  0  0  0  0  0  0  0  0  0  0  0
    7.7741  -13.0105   27.6771 C   0  0  0  0  0  0  0  0  0  0  0  0
    7.2547  -11.9008   28.3237 C   0  0  0  0  0  0  0  0  0  0  0  0
    6.1078  -11.3328   27.8496 C   0  0  0  0  0  0  0  0  0  0  0  0
    5.4823  -11.8515   26.7538 C   0  0  0  0  0  0  0  0  0  0  0  0
    6.0207  -12.9682   26.1175 C   0  0  0  0  0  0  0  0  0  0  0  0
    7.4228  -16.0128   23.8024 C   0  0  0  0  0  0  0  0  0  0  0  0
    7.3931  -17.2496   23.5066 O   0  0  0  0  0  0  0  0  0  0  0  0
    7.2889  -12.4860   19.8457 C   0  0  0  0  0  0  0  0  0  0  0  0
    7.1970  -13.8153   20.5195 C   0  0  0  0  0  0  0  0  0  0  0  0
    8.5478  -14.5165   20.5836 C   0  0  2  0  0  0  0  0  0  0  0  0
    8.8782  -14.9927   19.1985 C   0  0  0  0  0  0  0  0  0  0  0  0
    8.4801  -15.7083   21.5362 C   0  0  2  0  0  0  0  0  0  0  0  0
    8.0558  -15.1830   22.8157 N   0  0  0  0  0  0  0  0  0  0  0  0
    9.7493  -16.4348   21.6025 C   0  0  0  0  0  0  0  0  0  0  0  0
   10.0115  -17.3576   20.7820 O   0  0  0  0  0  0  0  0  0  0  0  0
   10.7624  -16.1662   22.5712 N   0  0  0  0  0  0  0  0  0  0  0  0
   12.0103  -16.8639   22.6242 C   0  0  0  0  0  0  0  0  0  0  0  0
   13.0691  -16.2603   21.8189 C   0  0  0  0  0  0  0  0  0  0  0  0
   12.8384  -15.8911   20.6483 O   0  0  0  0  0  0  0  0  0  0  0  0
   14.3371  -16.0870   22.3319 O   0  0  0  0  0  0  0  0  0  0  0  0
  2 10  1  0
  2  1  1  1
  3  2  1  0
  4  5  2  0
  4  3  1  0
  6  5  1  0
  7  6  2  0
  8  7  1  0
  8  9  2  0
  9  4  1  0
 10 11  2  0
 12 13  1  0
 14 15  1  6
 14 13  1  0
 16 14  1  0
 16 17  1  1
 17 10  1  0
 18 16  1  0
 19 18  2  0
 20 18  1  0
 21 20  1  0
 22 24  1  0
 22 21  1  0
 23 22  2  0
M  END
$$$$
