FIG.pdb
     RDKit          3D

 24 24  0  0  1  0  0  0  0  0999 V2000
    6.2929  -17.9982   25.5581 N   0  0  0  0  0  0  0  0  0  0  0  0
    6.7138  -16.6150   25.2745 C   0  0  1  0  0  0  0  0  0  0  0  0
    7.3285  -16.0069   26.4881 C   0  0  0  0  0  0  0  0  0  0  0  0
    7.2735  -14.5622   26.5827 C   0  0  0  0  0  0  0  0  0  0  0  0
    8.4302  -13.8288   26.7061 C   0  0  0  0  0  0  0  0  0  0  0  0
    8.4253  -12.4466   26.8008 C   0  0  0  0  0  0  0  0  0  0  0  0
    7.2327  -11.7837   26.7712 C   0  0  0  0  0  0  0  0  0  0  0  0
    6.0621  -12.4735   26.6499 C   0  0  0  0  0  0  0  0  0  0  0  0
    6.0883  -13.8637   26.5559 C   0  0  0  0  0  0  0  0  0  0  0  0
    7.5350  -16.6228   24.0674 C   0  0  0  0  0  0  0  0  0  0  0  0
    7.9992  -17.7082   23.5935 O   0  0  0  0  0  0  0  0  0  0  0  0
    6.5119  -12.5541   20.5064 C   0  0  0  0  0  0  0  0  0  0  0  0
    6.7698  -13.9415   20.9945 C   0  0  0  0  0  0  0  0  0  0  0  0
    8.2355  -14.1581   21.3480 C   0  0  2  0  0  0  0  0  0  0  0  0
    9.0276  -14.0667   20.0757 C   0  0  0  0  0  0  0  0  0  0  0  0
    8.4294  -15.5357   21.9782 C   0  0  2  0  0  0  0  0  0  0  0  0
    7.8891  -15.4501   23.3176 N   0  0  0  0  0  0  0  0  0  0  0  0
    9.8285  -15.9654   21.9463 C   0  0  0  0  0  0  0  0  0  0  0  0
   10.3621  -16.3564   20.8713 O   0  0  0  0  0  0  0  0  0  0  0  0
   10.6767  -15.9765   23.0942 N   0  0  0  0  0  0  0  0  0  0  0  0
   12.0421  -16.4024   23.0639 C   0  0  0  0  0  0  0  0  0  0  0  0
   12.6996  -16.4006   24.3683 C   0  0  0  0  0  0  0  0  0  0  0  0
   12.3359  -17.1971   25.2590 O   0  0  0  0  0  0  0  0  0  0  0  0
   13.7289  -15.5247   24.6412 O   0  0  0  0  0  0  0  0  0  0  0  0
  2 10  1  0
  2  1  1  1
  3  2  1  0
  4  5  2  0
  4  3  1  0
  6  5  1  0
  7  6  2  0
  8  7  1  0
  8  9  2  0
  9  4  1  0
 10 11  2  0
 12 13  1  0
 14 15  1  6
 14 13  1  0
 16 14  1  0
 16 17  1  1
 17 10  1  0
 18 16  1  0
 19 18  2  0
 20 18  1  0
 21 20  1  0
 22 24  1  0
 22 21  1  0
 23 22  2  0
M  END
$$$$
