FIG.pdb
     RDKit          3D

 24 24  0  0  1  0  0  0  0  0999 V2000
    8.6583  -19.1035   26.9495 N   0  0  0  0  0  0  0  0  0  0  0  0
    8.8581  -17.6471   27.0494 C   0  0  1  0  0  0  0  0  0  0  0  0
   10.2270  -17.3510   27.5585 C   0  0  0  0  0  0  0  0  0  0  0  0
   10.3473  -16.2287   28.4668 C   0  0  0  0  0  0  0  0  0  0  0  0
   10.4487  -16.4388   29.8221 C   0  0  0  0  0  0  0  0  0  0  0  0
   10.5642  -15.3964   30.7273 C   0  0  0  0  0  0  0  0  0  0  0  0
   10.5785  -14.1130   30.2634 C   0  0  0  0  0  0  0  0  0  0  0  0
   10.4803  -13.8611   28.9262 C   0  0  0  0  0  0  0  0  0  0  0  0
   10.3649  -14.9234   28.0318 C   0  0  0  0  0  0  0  0  0  0  0  0
    8.4991  -17.0449   25.7688 C   0  0  0  0  0  0  0  0  0  0  0  0
    8.3416  -17.7575   24.7269 O   0  0  0  0  0  0  0  0  0  0  0  0
    6.1201  -12.3959   26.0711 C   0  0  0  0  0  0  0  0  0  0  0  0
    6.2561  -13.6284   25.2392 C   0  0  0  0  0  0  0  0  0  0  0  0
    7.5686  -13.6525   24.4664 C   0  0  2  0  0  0  0  0  0  0  0  0
    7.3268  -12.9909   23.1404 C   0  0  0  0  0  0  0  0  0  0  0  0
    8.0270  -15.0929   24.2479 C   0  0  2  0  0  0  0  0  0  0  0  0
    8.2933  -15.6388   25.5611 N   0  0  0  0  0  0  0  0  0  0  0  0
    9.1761  -15.1755   23.3445 C   0  0  0  0  0  0  0  0  0  0  0  0
   10.3457  -14.9477   23.7610 O   0  0  0  0  0  0  0  0  0  0  0  0
    9.0695  -15.5103   21.9612 N   0  0  0  0  0  0  0  0  0  0  0  0
    9.8810  -16.5006   21.3229 C   0  0  0  0  0  0  0  0  0  0  0  0
   11.3177  -16.2989   21.4930 C   0  0  0  0  0  0  0  0  0  0  0  0
   12.0038  -15.8314   20.5599 O   0  0  0  0  0  0  0  0  0  0  0  0
   11.9418  -16.6187   22.6802 O   0  0  0  0  0  0  0  0  0  0  0  0
  2 10  1  0
  2  1  1  6
  3  2  1  0
  4  5  2  0
  4  3  1  0
  6  5  1  0
  7  6  2  0
  8  7  1  0
  8  9  2  0
  9  4  1  0
 10 11  2  0
 12 13  1  0
 14 15  1  6
 14 13  1  0
 16 14  1  0
 16 17  1  1
 17 10  1  0
 18 16  1  0
 19 18  2  0
 20 18  1  0
 21 20  1  0
 22 24  1  0
 22 21  1  0
 23 22  2  0
M  END
$$$$
