FIG.pdb
     RDKit          3D

 24 24  0  0  1  0  0  0  0  0999 V2000
    8.2858  -19.2262   27.0843 N   0  0  0  0  0  0  0  0  0  0  0  0
    8.4639  -17.7818   27.3146 C   0  0  1  0  0  0  0  0  0  0  0  0
    9.8224  -17.5139   27.8653 C   0  0  0  0  0  0  0  0  0  0  0  0
   10.0149  -16.2297   28.5077 C   0  0  0  0  0  0  0  0  0  0  0  0
   10.2607  -15.1054   27.7549 C   0  0  0  0  0  0  0  0  0  0  0  0
   10.4522  -13.8578   28.3261 C   0  0  0  0  0  0  0  0  0  0  0  0
   10.3959  -13.7340   29.6841 C   0  0  0  0  0  0  0  0  0  0  0  0
   10.1543  -14.8244   30.4674 C   0  0  0  0  0  0  0  0  0  0  0  0
    9.9645  -16.0707   29.8736 C   0  0  0  0  0  0  0  0  0  0  0  0
    8.1114  -17.0738   26.0874 C   0  0  0  0  0  0  0  0  0  0  0  0
    8.1005  -17.6692   24.9634 O   0  0  0  0  0  0  0  0  0  0  0  0
    7.4596  -11.4223   25.9896 C   0  0  0  0  0  0  0  0  0  0  0  0
    7.9102  -12.8163   25.7009 C   0  0  0  0  0  0  0  0  0  0  0  0
    6.7739  -13.6860   25.1785 C   0  0  2  0  0  0  0  0  0  0  0  0
    5.7587  -13.8145   26.2772 C   0  0  0  0  0  0  0  0  0  0  0  0
    7.2988  -15.0686   24.7971 C   0  0  2  0  0  0  0  0  0  0  0  0
    7.7528  -15.6845   26.0249 N   0  0  0  0  0  0  0  0  0  0  0  0
    8.3371  -15.0001   23.7672 C   0  0  0  0  0  0  0  0  0  0  0  0
    8.0832  -14.5369   22.6208 O   0  0  0  0  0  0  0  0  0  0  0  0
    9.6800  -15.4385   23.9705 N   0  0  0  0  0  0  0  0  0  0  0  0
   10.7187  -15.2800   22.9996 C   0  0  0  0  0  0  0  0  0  0  0  0
   11.0148  -16.4895   22.2357 C   0  0  0  0  0  0  0  0  0  0  0  0
   10.3346  -17.5235   22.4032 O   0  0  0  0  0  0  0  0  0  0  0  0
   12.0451  -16.5139   21.3198 O   0  0  0  0  0  0  0  0  0  0  0  0
  2 10  1  0
  2  1  1  6
  3  2  1  0
  4  5  2  0
  4  3  1  0
  6  5  1  0
  7  6  2  0
  8  7  1  0
  8  9  2  0
  9  4  1  0
 10 11  2  0
 12 13  1  0
 14 15  1  1
 14 13  1  0
 16 14  1  0
 16 17  1  1
 17 10  1  0
 18 16  1  0
 19 18  2  0
 20 18  1  0
 21 20  1  0
 22 24  1  0
 22 21  1  0
 23 22  2  0
M  END
$$$$
