FIG.pdb
     RDKit          3D

 24 24  0  0  1  0  0  0  0  0999 V2000
    5.9453  -18.1509   25.7112 N   0  0  0  0  0  0  0  0  0  0  0  0
    6.3715  -16.7503   25.5445 C   0  0  1  0  0  0  0  0  0  0  0  0
    6.7682  -16.1749   26.8606 C   0  0  0  0  0  0  0  0  0  0  0  0
    7.0321  -14.7505   26.8872 C   0  0  0  0  0  0  0  0  0  0  0  0
    8.3209  -14.2841   26.9999 C   0  0  0  0  0  0  0  0  0  0  0  0
    8.6200  -12.9317   27.0306 C   0  0  0  0  0  0  0  0  0  0  0  0
    7.6033  -12.0251   26.9465 C   0  0  0  0  0  0  0  0  0  0  0  0
    6.3105  -12.4460   26.8336 C   0  0  0  0  0  0  0  0  0  0  0  0
    6.0304  -13.8108   26.8045 C   0  0  0  0  0  0  0  0  0  0  0  0
    7.3755  -16.6982   24.4859 C   0  0  0  0  0  0  0  0  0  0  0  0
    8.1841  -17.6618   24.2970 O   0  0  0  0  0  0  0  0  0  0  0  0
    6.4796  -13.7411   19.9974 C   0  0  0  0  0  0  0  0  0  0  0  0
    6.9083  -14.8046   20.9539 C   0  0  0  0  0  0  0  0  0  0  0  0
    8.2516  -14.4848   21.5971 C   0  0  2  0  0  0  0  0  0  0  0  0
    9.2801  -14.4443   20.5041 C   0  0  0  0  0  0  0  0  0  0  0  0
    8.6212  -15.5634   22.6133 C   0  0  2  0  0  0  0  0  0  0  0  0
    7.5467  -15.5957   23.5816 N   0  0  0  0  0  0  0  0  0  0  0  0
    9.9344  -15.3274   23.2158 C   0  0  0  0  0  0  0  0  0  0  0  0
   10.0880  -14.4535   24.1136 O   0  0  0  0  0  0  0  0  0  0  0  0
   11.1118  -16.0450   22.8475 N   0  0  0  0  0  0  0  0  0  0  0  0
   12.4094  -15.7609   23.3789 C   0  0  0  0  0  0  0  0  0  0  0  0
   13.4775  -16.5916   22.8287 C   0  0  0  0  0  0  0  0  0  0  0  0
   14.6664  -16.3855   23.1511 O   0  0  0  0  0  0  0  0  0  0  0  0
   13.1965  -17.6141   21.9473 O   0  0  0  0  0  0  0  0  0  0  0  0
  2 10  1  0
  2  1  1  1
  3  2  1  0
  4  5  2  0
  4  3  1  0
  6  5  1  0
  7  6  2  0
  8  7  1  0
  8  9  2  0
  9  4  1  0
 10 11  2  0
 12 13  1  0
 14 15  1  6
 14 13  1  0
 16 14  1  0
 16 17  1  1
 17 10  1  0
 18 16  1  0
 19 18  2  0
 20 18  1  0
 21 20  1  0
 22 24  1  0
 22 21  1  0
 23 22  2  0
M  END
$$$$
