FIG.pdb
     RDKit          3D

 24 24  0  0  1  0  0  0  0  0999 V2000
    5.9099  -17.7649   25.6374 N   0  0  0  0  0  0  0  0  0  0  0  0
    6.4987  -16.4384   25.3831 C   0  0  1  0  0  0  0  0  0  0  0  0
    7.1469  -15.9193   26.6204 C   0  0  0  0  0  0  0  0  0  0  0  0
    7.1920  -14.4787   26.7678 C   0  0  0  0  0  0  0  0  0  0  0  0
    6.0343  -13.7380   26.7191 C   0  0  0  0  0  0  0  0  0  0  0  0
    6.0299  -12.3592   26.8538 C   0  0  0  0  0  0  0  0  0  0  0  0
    7.2140  -11.7070   27.0419 C   0  0  0  0  0  0  0  0  0  0  0  0
    8.3852  -12.4043   27.0962 C   0  0  0  0  0  0  0  0  0  0  0  0
    8.3685  -13.7909   26.9585 C   0  0  0  0  0  0  0  0  0  0  0  0
    7.3465  -16.5313   24.1982 C   0  0  0  0  0  0  0  0  0  0  0  0
    7.7323  -17.6579   23.7510 O   0  0  0  0  0  0  0  0  0  0  0  0
    7.0732  -12.3356   20.6760 C   0  0  0  0  0  0  0  0  0  0  0  0
    7.1168  -13.7508   21.1503 C   0  0  0  0  0  0  0  0  0  0  0  0
    8.5283  -14.1824   21.5271 C   0  0  2  0  0  0  0  0  0  0  0  0
    9.3395  -14.2340   20.2647 C   0  0  0  0  0  0  0  0  0  0  0  0
    8.5024  -15.5628   22.1802 C   0  0  2  0  0  0  0  0  0  0  0  0
    7.8139  -15.4029   23.4426 N   0  0  0  0  0  0  0  0  0  0  0  0
    9.8438  -16.1316   22.3221 C   0  0  0  0  0  0  0  0  0  0  0  0
   10.3898  -16.7504   21.3670 O   0  0  0  0  0  0  0  0  0  0  0  0
   10.6193  -16.0350   23.5164 N   0  0  0  0  0  0  0  0  0  0  0  0
   11.9606  -16.5197   23.6292 C   0  0  0  0  0  0  0  0  0  0  0  0
   12.9578  -15.6838   22.9655 C   0  0  0  0  0  0  0  0  0  0  0  0
   12.9187  -15.5174   21.7282 O   0  0  0  0  0  0  0  0  0  0  0  0
   13.9567  -15.0651   23.6871 O   0  0  0  0  0  0  0  0  0  0  0  0
  2 10  1  0
  2  1  1  1
  3  2  1  0
  4  5  2  0
  4  3  1  0
  6  5  1  0
  7  6  2  0
  8  7  1  0
  8  9  2  0
  9  4  1  0
 10 11  2  0
 12 13  1  0
 14 15  1  6
 14 13  1  0
 16 14  1  0
 16 17  1  1
 17 10  1  0
 18 16  1  0
 19 18  2  0
 20 18  1  0
 21 20  1  0
 22 24  1  0
 22 21  1  0
 23 22  2  0
M  END
$$$$
