FIG.pdb
     RDKit          3D

 24 24  0  0  1  0  0  0  0  0999 V2000
    5.9229  -17.3672   25.6585 N   0  0  0  0  0  0  0  0  0  0  0  0
    6.6029  -16.1199   25.2675 C   0  0  1  0  0  0  0  0  0  0  0  0
    7.3254  -15.5419   26.4356 C   0  0  0  0  0  0  0  0  0  0  0  0
    7.0860  -14.1398   26.7112 C   0  0  0  0  0  0  0  0  0  0  0  0
    6.0479  -13.4780   26.0983 C   0  0  0  0  0  0  0  0  0  0  0  0
    5.7827  -12.1382   26.3307 C   0  0  0  0  0  0  0  0  0  0  0  0
    6.5766  -11.4451   27.1978 C   0  0  0  0  0  0  0  0  0  0  0  0
    7.6169  -12.0641   27.8267 C   0  0  0  0  0  0  0  0  0  0  0  0
    7.8673  -13.4125   27.5795 C   0  0  0  0  0  0  0  0  0  0  0  0
    7.4053  -16.3873   24.0775 C   0  0  0  0  0  0  0  0  0  0  0  0
    7.7685  -17.5695   23.7800 O   0  0  0  0  0  0  0  0  0  0  0  0
    6.8754  -12.8652   20.2778 C   0  0  0  0  0  0  0  0  0  0  0  0
    7.0886  -14.2550   20.7805 C   0  0  0  0  0  0  0  0  0  0  0  0
    8.5608  -14.5476   21.0400 C   0  0  2  0  0  0  0  0  0  0  0  0
    9.1867  -14.9252   19.7285 C   0  0  0  0  0  0  0  0  0  0  0  0
    8.7038  -15.7011   22.0307 C   0  0  2  0  0  0  0  0  0  0  0  0
    7.8496  -15.3813   23.1538 N   0  0  0  0  0  0  0  0  0  0  0  0
   10.0982  -15.9308   22.4130 C   0  0  0  0  0  0  0  0  0  0  0  0
   10.7329  -15.0775   23.0929 O   0  0  0  0  0  0  0  0  0  0  0  0
   10.8306  -17.1033   22.0581 N   0  0  0  0  0  0  0  0  0  0  0  0
   12.1613  -17.3711   22.5101 C   0  0  0  0  0  0  0  0  0  0  0  0
   13.2079  -16.8370   21.6423 C   0  0  0  0  0  0  0  0  0  0  0  0
   14.4111  -16.9678   21.9512 O   0  0  0  0  0  0  0  0  0  0  0  0
   12.8908  -16.1815   20.4714 O   0  0  0  0  0  0  0  0  0  0  0  0
  2 10  1  0
  2  1  1  1
  3  2  1  0
  4  5  2  0
  4  3  1  0
  6  5  1  0
  7  6  2  0
  8  7  1  0
  8  9  2  0
  9  4  1  0
 10 11  2  0
 12 13  1  0
 14 15  1  6
 14 13  1  0
 16 14  1  0
 16 17  1  1
 17 10  1  0
 18 16  1  0
 19 18  2  0
 20 18  1  0
 21 20  1  0
 22 24  1  0
 22 21  1  0
 23 22  2  0
M  END
$$$$
