VNH.pdb
     RDKit          3D

 26 26  0  0  1  0  0  0  0  0999 V2000
   28.3083  -18.9181  -14.4903 C   0  0  0  0  0  0  0  0  0  0  0  0
   27.3405  -18.3271  -15.4967 C   0  0  1  0  0  0  0  0  0  0  0  0
   27.9850  -18.3636  -16.8642 C   0  0  0  0  0  0  0  0  0  0  0  0
   26.0513  -19.0684  -15.5634 C   0  0  2  0  0  0  0  0  0  0  0  0
   25.2779  -18.5875  -16.6714 N   0  0  0  0  0  0  0  0  0  0  0  0
   25.3113  -19.1047  -14.2891 C   0  0  0  0  0  0  0  0  0  0  0  0
   24.8640  -18.0183  -13.8432 O   0  0  0  0  0  0  0  0  0  0  0  0
   21.9289  -21.5187  -14.4085 N   0  0  0  0  0  0  0  0  0  0  0  0
   22.1197  -20.9119  -13.1360 C   0  0  0  0  0  0  0  0  0  0  0  0
   21.3270  -20.0435  -12.7591 O   0  0  0  0  0  0  0  0  0  0  0  0
   23.2541  -21.3380  -12.3108 C   0  0  0  0  0  0  0  0  0  0  0  0
   24.3813  -20.3348  -12.2644 C   0  0  2  0  0  0  0  0  0  0  0  0
   25.0683  -20.2671  -13.5343 N   0  0  0  0  0  0  0  0  0  0  0  0
   25.3003  -20.6386  -11.1476 C   0  0  0  0  0  0  0  0  0  0  0  0
   26.0012  -21.6737  -11.1852 O   0  0  0  0  0  0  0  0  0  0  0  0
   25.4225  -19.7929  -10.0185 N   0  0  0  0  0  0  0  0  0  0  0  0
   26.2589  -20.1598   -8.8581 C   0  0  1  0  0  0  0  0  0  0  0  0
   26.6036  -18.9258   -8.0887 C   0  0  0  0  0  0  0  0  0  0  0  0
   27.3644  -19.2740   -6.8817 C   0  0  0  0  0  0  0  0  0  0  0  0
   27.7873  -20.5469   -6.5524 C   0  0  0  0  0  0  0  0  0  0  0  0
   28.4541  -20.5301   -5.3917 N   0  0  0  0  0  0  0  0  0  0  0  0
   28.4469  -19.2401   -4.9952 C   0  0  0  0  0  0  0  0  0  0  0  0
   27.7931  -18.4870   -5.8892 N   0  0  0  0  0  0  0  0  0  0  0  0
   25.4145  -21.0475   -8.0204 C   0  0  0  0  0  0  0  0  0  0  0  0
   25.9498  -22.0740   -7.2300 O   0  0  0  0  0  0  0  0  0  0  0  0
   24.1574  -20.8883   -8.0044 O   0  0  0  0  0  0  0  0  0  0  0  0
  2  1  1  1
  3  2  1  0
  4  2  1  0
  4  6  1  0
  4  5  1  6
  6 13  1  0
  6  7  2  0
  9 10  2  0
  9  8  1  0
 11  9  1  0
 12 11  1  6
 13 12  1  0
 14 12  1  0
 14 15  2  0
 16 14  1  0
 17 16  1  0
 17 18  1  1
 19 18  1  0
 19 23  1  0
 20 21  1  0
 20 19  2  0
 21 22  1  0
 22 23  2  0
 24 17  1  0
 25 24  1  0
 26 24  2  0
M  END
$$$$
