VNH.pdb
     RDKit          3D

 26 26  0  0  1  0  0  0  0  0999 V2000
   22.8753   -9.8453  -12.8329 C   0  0  0  0  0  0  0  0  0  0  0  0
   22.9405   -9.4029  -14.2817 C   0  0  1  0  0  0  0  0  0  0  0  0
   23.7212  -10.4336  -15.0659 C   0  0  0  0  0  0  0  0  0  0  0  0
   21.5956   -9.2576  -14.9029 C   0  0  2  0  0  0  0  0  0  0  0  0
   20.9337  -10.5300  -14.9176 N   0  0  0  0  0  0  0  0  0  0  0  0
   21.6065   -8.5746  -16.2091 C   0  0  0  0  0  0  0  0  0  0  0  0
   22.7042   -8.4925  -16.8152 O   0  0  0  0  0  0  0  0  0  0  0  0
   20.8296   -9.8926  -18.9568 N   0  0  0  0  0  0  0  0  0  0  0  0
   19.6778   -9.2238  -19.4568 C   0  0  0  0  0  0  0  0  0  0  0  0
   18.9396   -9.8116  -20.2532 O   0  0  0  0  0  0  0  0  0  0  0  0
   19.4033   -7.8548  -19.0095 C   0  0  0  0  0  0  0  0  0  0  0  0
   20.4583   -7.2953  -18.0860 C   0  0  2  0  0  0  0  0  0  0  0  0
   20.4774   -8.0074  -16.8282 N   0  0  0  0  0  0  0  0  0  0  0  0
   20.2683   -5.8413  -17.9019 C   0  0  0  0  0  0  0  0  0  0  0  0
   19.3844   -5.4254  -17.1210 O   0  0  0  0  0  0  0  0  0  0  0  0
   21.0578   -4.8840  -18.5839 N   0  0  0  0  0  0  0  0  0  0  0  0
   20.9578   -3.4405  -18.2893 C   0  0  1  0  0  0  0  0  0  0  0  0
   22.1309   -3.0233  -17.4625 C   0  0  0  0  0  0  0  0  0  0  0  0
   22.0146   -3.5661  -16.1029 C   0  0  0  0  0  0  0  0  0  0  0  0
   22.7825   -4.5946  -15.5929 C   0  0  0  0  0  0  0  0  0  0  0  0
   22.4316   -4.8541  -14.3273 N   0  0  0  0  0  0  0  0  0  0  0  0
   21.4397   -3.9829  -14.0468 C   0  0  0  0  0  0  0  0  0  0  0  0
   21.1899   -3.2106  -15.1120 N   0  0  0  0  0  0  0  0  0  0  0  0
   21.0110   -2.7583  -19.6063 C   0  0  0  0  0  0  0  0  0  0  0  0
   20.8715   -1.3703  -19.7444 O   0  0  0  0  0  0  0  0  0  0  0  0
   21.1886   -3.4388  -20.6604 O   0  0  0  0  0  0  0  0  0  0  0  0
  2  1  1  1
  3  2  1  0
  4  2  1  0
  4  6  1  0
  4  5  1  6
  6 13  1  0
  6  7  2  0
  9 10  2  0
  9  8  1  0
 11  9  1  0
 12 11  1  6
 13 12  1  0
 14 12  1  0
 14 15  2  0
 16 14  1  0
 17 16  1  0
 17 18  1  1
 19 18  1  0
 19 23  1  0
 20 21  1  0
 20 19  2  0
 21 22  1  0
 22 23  2  0
 24 17  1  0
 25 24  1  0
 26 24  2  0
M  END
$$$$
