VNH.pdb
     RDKit          3D

 26 26  0  0  1  0  0  0  0  0999 V2000
   17.4351  -11.6849  -17.6431 C   0  0  0  0  0  0  0  0  0  0  0  0
   18.6959  -11.1136  -17.0243 C   0  0  1  0  0  0  0  0  0  0  0  0
   18.3008  -10.1407  -15.9361 C   0  0  0  0  0  0  0  0  0  0  0  0
   19.5715  -12.1588  -16.4268 C   0  0  2  0  0  0  0  0  0  0  0  0
   18.8072  -12.9627  -15.5175 N   0  0  0  0  0  0  0  0  0  0  0  0
   20.8259  -11.6378  -15.8543 C   0  0  0  0  0  0  0  0  0  0  0  0
   20.8366  -11.3600  -14.6288 O   0  0  0  0  0  0  0  0  0  0  0  0
   25.7269  -10.1456  -15.1079 N   0  0  0  0  0  0  0  0  0  0  0  0
   25.7030  -10.7887  -16.3767 C   0  0  0  0  0  0  0  0  0  0  0  0
   26.7665  -10.9789  -16.9745 O   0  0  0  0  0  0  0  0  0  0  0  0
   24.4133  -11.2062  -16.9352 C   0  0  0  0  0  0  0  0  0  0  0  0
   23.2302  -10.8327  -16.0752 C   0  0  2  0  0  0  0  0  0  0  0  0
   22.0136  -11.4285  -16.5793 N   0  0  0  0  0  0  0  0  0  0  0  0
   23.1228   -9.3640  -15.9502 C   0  0  0  0  0  0  0  0  0  0  0  0
   24.1090   -8.7010  -15.5604 O   0  0  0  0  0  0  0  0  0  0  0  0
   21.9307   -8.6648  -16.2584 N   0  0  0  0  0  0  0  0  0  0  0  0
   21.8259   -7.1999  -16.1051 C   0  0  1  0  0  0  0  0  0  0  0  0
   20.8838   -6.6625  -17.1335 C   0  0  0  0  0  0  0  0  0  0  0  0
   21.5792   -6.4767  -18.4136 C   0  0  0  0  0  0  0  0  0  0  0  0
   22.7078   -5.7019  -18.5961 C   0  0  0  0  0  0  0  0  0  0  0  0
   23.0958   -5.7389  -19.8768 N   0  0  0  0  0  0  0  0  0  0  0  0
   22.2044   -6.5410  -20.4961 C   0  0  0  0  0  0  0  0  0  0  0  0
   21.2949   -6.9833  -19.6181 N   0  0  0  0  0  0  0  0  0  0  0  0
   21.2612   -6.9782  -14.7506 C   0  0  0  0  0  0  0  0  0  0  0  0
   21.0858   -5.6989  -14.2052 O   0  0  0  0  0  0  0  0  0  0  0  0
   20.9176   -7.9712  -14.0422 O   0  0  0  0  0  0  0  0  0  0  0  0
  2  1  1  1
  3  2  1  0
  4  2  1  0
  4  6  1  0
  4  5  1  1
  6 13  1  0
  6  7  2  0
  9 10  2  0
  9  8  1  0
 11  9  1  0
 12 11  1  6
 13 12  1  0
 14 12  1  0
 14 15  2  0
 16 14  1  0
 17 16  1  0
 17 18  1  6
 19 18  1  0
 19 23  1  0
 20 21  1  0
 20 19  2  0
 21 22  1  0
 22 23  2  0
 24 17  1  0
 25 24  1  0
 26 24  2  0
M  END
$$$$
