VNH.pdb
     RDKit          3D

 26 26  0  0  1  0  0  0  0  0999 V2000
   20.8361  -17.7596  -20.4271 C   0  0  0  0  0  0  0  0  0  0  0  0
   21.5009  -18.7466  -19.4876 C   0  0  1  0  0  0  0  0  0  0  0  0
   22.9487  -18.9007  -19.8961 C   0  0  0  0  0  0  0  0  0  0  0  0
   21.4566  -18.3105  -18.0650 C   0  0  2  0  0  0  0  0  0  0  0  0
   22.0002  -16.9880  -17.9513 N   0  0  0  0  0  0  0  0  0  0  0  0
   22.0401  -19.2796  -17.1199 C   0  0  0  0  0  0  0  0  0  0  0  0
   21.8640  -20.5015  -17.3544 O   0  0  0  0  0  0  0  0  0  0  0  0
   25.1177  -20.6359  -16.7728 N   0  0  0  0  0  0  0  0  0  0  0  0
   25.6116  -20.0293  -15.5845 C   0  0  0  0  0  0  0  0  0  0  0  0
   26.8301  -19.8873  -15.4437 O   0  0  0  0  0  0  0  0  0  0  0  0
   24.6560  -19.5911  -14.5627 C   0  0  0  0  0  0  0  0  0  0  0  0
   23.2142  -19.8421  -14.9329 C   0  0  2  0  0  0  0  0  0  0  0  0
   22.7804  -18.9372  -15.9733 N   0  0  0  0  0  0  0  0  0  0  0  0
   22.3512  -19.7711  -13.7353 C   0  0  0  0  0  0  0  0  0  0  0  0
   21.9352  -18.6615  -13.3356 O   0  0  0  0  0  0  0  0  0  0  0  0
   21.9695  -20.9256  -13.0098 N   0  0  0  0  0  0  0  0  0  0  0  0
   21.1847  -20.8365  -11.7620 C   0  0  1  0  0  0  0  0  0  0  0  0
   21.8297  -19.8502  -10.8429 C   0  0  0  0  0  0  0  0  0  0  0  0
   23.1891  -20.2873  -10.4997 C   0  0  0  0  0  0  0  0  0  0  0  0
   23.5029  -21.1824   -9.4958 C   0  0  0  0  0  0  0  0  0  0  0  0
   24.8271  -21.3706   -9.4371 N   0  0  0  0  0  0  0  0  0  0  0  0
   25.3416  -20.5887  -10.4094 C   0  0  0  0  0  0  0  0  0  0  0  0
   24.3588  -19.9390  -11.0465 N   0  0  0  0  0  0  0  0  0  0  0  0
   19.8463  -20.3377  -12.1653 C   0  0  0  0  0  0  0  0  0  0  0  0
   18.8214  -20.0925  -11.2410 O   0  0  0  0  0  0  0  0  0  0  0  0
   19.5994  -20.1182  -13.3887 O   0  0  0  0  0  0  0  0  0  0  0  0
  2  1  1  6
  3  2  1  0
  4  2  1  0
  4  6  1  0
  4  5  1  6
  6 13  1  0
  6  7  2  0
  9 10  2  0
  9  8  1  0
 11  9  1  0
 12 11  1  1
 13 12  1  0
 14 12  1  0
 14 15  2  0
 16 14  1  0
 17 16  1  0
 17 18  1  1
 19 18  1  0
 19 23  1  0
 20 21  1  0
 20 19  2  0
 21 22  1  0
 22 23  2  0
 24 17  1  0
 25 24  1  0
 26 24  2  0
M  END
$$$$
