VNH.pdb
     RDKit          3D

 26 26  0  0  1  0  0  0  0  0999 V2000
   11.5386   -7.5462  -10.1877 C   0  0  0  0  0  0  0  0  0  0  0  0
   11.3433   -8.9681   -9.6991 C   0  0  1  0  0  0  0  0  0  0  0  0
   10.0294   -9.4871  -10.2389 C   0  0  0  0  0  0  0  0  0  0  0  0
   12.4293   -9.8855  -10.1405 C   0  0  2  0  0  0  0  0  0  0  0  0
   12.1936  -11.1978   -9.6117 N   0  0  0  0  0  0  0  0  0  0  0  0
   13.7886   -9.3746   -9.8875 C   0  0  0  0  0  0  0  0  0  0  0  0
   14.1842   -9.3346   -8.6954 O   0  0  0  0  0  0  0  0  0  0  0  0
   16.8016  -11.0027  -10.5638 N   0  0  0  0  0  0  0  0  0  0  0  0
   17.3250  -10.2291  -11.6370 C   0  0  0  0  0  0  0  0  0  0  0  0
   18.0751  -10.7680  -12.4566 O   0  0  0  0  0  0  0  0  0  0  0  0
   16.9562   -8.8137  -11.7359 C   0  0  0  0  0  0  0  0  0  0  0  0
   15.9897   -8.3625  -10.6676 C   0  0  2  0  0  0  0  0  0  0  0  0
   14.6770   -8.9280  -10.8831 N   0  0  0  0  0  0  0  0  0  0  0  0
   15.9561   -6.8871  -10.5882 C   0  0  0  0  0  0  0  0  0  0  0  0
   15.3557   -6.2321  -11.4683 O   0  0  0  0  0  0  0  0  0  0  0  0
   16.5856   -6.1726   -9.5403 N   0  0  0  0  0  0  0  0  0  0  0  0
   16.5160   -4.7002   -9.4507 C   0  0  1  0  0  0  0  0  0  0  0  0
   17.0992   -4.2572   -8.1479 C   0  0  0  0  0  0  0  0  0  0  0  0
   17.0557   -2.7931   -8.0420 C   0  0  0  0  0  0  0  0  0  0  0  0
   16.4168   -1.9536   -8.9336 C   0  0  0  0  0  0  0  0  0  0  0  0
   16.5626   -0.6772   -8.5573 N   0  0  0  0  0  0  0  0  0  0  0  0
   17.2961   -0.7209   -7.4253 C   0  0  0  0  0  0  0  0  0  0  0  0
   17.5917   -1.9902   -7.1166 N   0  0  0  0  0  0  0  0  0  0  0  0
   17.3509   -4.1910  -10.5671 C   0  0  0  0  0  0  0  0  0  0  0  0
   17.0033   -3.0571  -11.3143 O   0  0  0  0  0  0  0  0  0  0  0  0
   18.4246   -4.7903  -10.8736 O   0  0  0  0  0  0  0  0  0  0  0  0
  2  1  1  6
  3  2  1  0
  4  2  1  0
  4  6  1  0
  4  5  1  1
  6 13  1  0
  6  7  2  0
  9 10  2  0
  9  8  1  0
 11  9  1  0
 12 11  1  6
 13 12  1  0
 14 12  1  0
 14 15  2  0
 16 14  1  0
 17 16  1  0
 17 18  1  1
 19 18  1  0
 19 23  1  0
 20 21  1  0
 20 19  2  0
 21 22  1  0
 22 23  2  0
 24 17  1  0
 25 24  1  0
 26 24  2  0
M  END
$$$$
