VNH.pdb
     RDKit          3D

 26 26  0  0  1  0  0  0  0  0999 V2000
   24.0120  -33.9588  -10.2534 C   0  0  0  0  0  0  0  0  0  0  0  0
   24.6680  -33.9264   -8.8869 C   0  0  1  0  0  0  0  0  0  0  0  0
   26.1533  -34.1523   -9.0597 C   0  0  0  0  0  0  0  0  0  0  0  0
   24.4674  -32.6319   -8.1798 C   0  0  2  0  0  0  0  0  0  0  0  0
   24.8424  -31.5501   -9.0437 N   0  0  0  0  0  0  0  0  0  0  0  0
   25.0887  -32.5730   -6.8444 C   0  0  0  0  0  0  0  0  0  0  0  0
   26.2233  -32.0410   -6.7518 O   0  0  0  0  0  0  0  0  0  0  0  0
   22.4783  -33.9760   -2.1499 N   0  0  0  0  0  0  0  0  0  0  0  0
   22.7756  -33.2398   -3.3304 C   0  0  0  0  0  0  0  0  0  0  0  0
   22.0012  -33.3038   -4.2900 O   0  0  0  0  0  0  0  0  0  0  0  0
   23.9949  -32.4267   -3.3701 C   0  0  0  0  0  0  0  0  0  0  0  0
   25.0400  -32.9466   -4.3273 C   0  0  2  0  0  0  0  0  0  0  0  0
   24.5044  -33.0688   -5.6642 N   0  0  0  0  0  0  0  0  0  0  0  0
   25.6076  -34.2191   -3.8344 C   0  0  0  0  0  0  0  0  0  0  0  0
   25.0572  -35.3012   -4.1348 O   0  0  0  0  0  0  0  0  0  0  0  0
   26.7672  -34.2650   -3.0232 N   0  0  0  0  0  0  0  0  0  0  0  0
   27.2931  -35.5371   -2.4885 C   0  0  1  0  0  0  0  0  0  0  0  0
   28.7624  -35.4022   -2.2505 C   0  0  0  0  0  0  0  0  0  0  0  0
   29.4976  -35.5365   -3.5147 C   0  0  0  0  0  0  0  0  0  0  0  0
   28.9150  -35.6192   -4.7642 C   0  0  0  0  0  0  0  0  0  0  0  0
   29.8557  -35.7351   -5.7097 N   0  0  0  0  0  0  0  0  0  0  0  0
   31.0309  -35.7246   -5.0462 C   0  0  0  0  0  0  0  0  0  0  0  0
   30.8157  -35.6055   -3.7297 N   0  0  0  0  0  0  0  0  0  0  0  0
   26.5976  -35.7455   -1.1940 C   0  0  0  0  0  0  0  0  0  0  0  0
   25.6536  -34.8405   -0.6893 O   0  0  0  0  0  0  0  0  0  0  0  0
   26.8527  -36.7758   -0.5018 O   0  0  0  0  0  0  0  0  0  0  0  0
  2  1  1  6
  3  2  1  0
  4  2  1  0
  4  6  1  0
  4  5  1  6
  6 13  1  0
  6  7  2  0
  9 10  2  0
  9  8  1  0
 11  9  1  0
 12 11  1  1
 13 12  1  0
 14 12  1  0
 14 15  2  0
 16 14  1  0
 17 16  1  0
 17 18  1  1
 19 18  1  0
 19 23  1  0
 20 21  1  0
 20 19  2  0
 21 22  1  0
 22 23  2  0
 24 17  1  0
 25 24  1  0
 26 24  2  0
M  END
$$$$
