VNH.pdb
     RDKit          3D

 26 26  0  0  1  0  0  0  0  0999 V2000
   12.9262  -11.0099  -15.5834 C   0  0  0  0  0  0  0  0  0  0  0  0
   14.0940  -10.2315  -15.0097 C   0  0  1  0  0  0  0  0  0  0  0  0
   13.8284   -9.9749  -13.5433 C   0  0  0  0  0  0  0  0  0  0  0  0
   15.3886  -10.9557  -15.1344 C   0  0  2  0  0  0  0  0  0  0  0  0
   15.2467  -12.2853  -14.6153 N   0  0  0  0  0  0  0  0  0  0  0  0
   16.5441  -10.2213  -14.5883 C   0  0  0  0  0  0  0  0  0  0  0  0
   17.2345  -10.7920  -13.7070 O   0  0  0  0  0  0  0  0  0  0  0  0
   20.5473   -7.1565  -13.7574 N   0  0  0  0  0  0  0  0  0  0  0  0
   20.6144   -8.3394  -14.5450 C   0  0  0  0  0  0  0  0  0  0  0  0
   21.7195   -8.7773  -14.8792 O   0  0  0  0  0  0  0  0  0  0  0  0
   19.3664   -9.0022  -14.9358 C   0  0  0  0  0  0  0  0  0  0  0  0
   18.1255   -8.2272  -14.5636 C   0  0  2  0  0  0  0  0  0  0  0  0
   16.9318   -8.9270  -14.9815 N   0  0  0  0  0  0  0  0  0  0  0  0
   18.1881   -6.8549  -15.1086 C   0  0  0  0  0  0  0  0  0  0  0  0
   18.2878   -6.6818  -16.3432 O   0  0  0  0  0  0  0  0  0  0  0  0
   18.1392   -5.7093  -14.2779 N   0  0  0  0  0  0  0  0  0  0  0  0
   17.8680   -4.3638  -14.8227 C   0  0  1  0  0  0  0  0  0  0  0  0
   17.2840   -3.5050  -13.7481 C   0  0  0  0  0  0  0  0  0  0  0  0
   16.9157   -2.1907  -14.2902 C   0  0  0  0  0  0  0  0  0  0  0  0
   16.4424   -1.9660  -15.5681 C   0  0  0  0  0  0  0  0  0  0  0  0
   16.2001   -0.6623  -15.7522 N   0  0  0  0  0  0  0  0  0  0  0  0
   16.5241   -0.0711  -14.5830 C   0  0  0  0  0  0  0  0  0  0  0  0
   16.9533   -0.9882  -13.7064 N   0  0  0  0  0  0  0  0  0  0  0  0
   19.1891   -3.8221  -15.2280 C   0  0  0  0  0  0  0  0  0  0  0  0
   19.3257   -2.6421  -15.9722 O   0  0  0  0  0  0  0  0  0  0  0  0
   20.2481   -4.4351  -14.8986 O   0  0  0  0  0  0  0  0  0  0  0  0
  2  1  1  1
  3  2  1  0
  4  2  1  0
  4  6  1  0
  4  5  1  1
  6 13  1  0
  6  7  2  0
  9 10  2  0
  9  8  1  0
 11  9  1  0
 12 11  1  6
 13 12  1  0
 14 12  1  0
 14 15  2  0
 16 14  1  0
 17 16  1  0
 17 18  1  1
 19 18  1  0
 19 23  1  0
 20 21  1  0
 20 19  2  0
 21 22  1  0
 22 23  2  0
 24 17  1  0
 25 24  1  0
 26 24  2  0
M  END
$$$$
