VNH.pdb
     RDKit          3D

 26 26  0  0  1  0  0  0  0  0999 V2000
   25.9497  -34.3873   -5.7770 C   0  0  0  0  0  0  0  0  0  0  0  0
   25.1375  -33.5169   -4.8380 C   0  0  1  0  0  0  0  0  0  0  0  0
   24.1813  -32.6824   -5.6601 C   0  0  0  0  0  0  0  0  0  0  0  0
   24.3474  -34.3077   -3.8549 C   0  0  2  0  0  0  0  0  0  0  0  0
   23.6770  -35.3809   -4.5303 N   0  0  0  0  0  0  0  0  0  0  0  0
   23.4634  -33.4949   -3.0002 C   0  0  0  0  0  0  0  0  0  0  0  0
   24.0042  -32.7217   -2.1702 O   0  0  0  0  0  0  0  0  0  0  0  0
   19.0915  -29.8691   -2.7168 N   0  0  0  0  0  0  0  0  0  0  0  0
   19.1260  -31.2596   -2.4181 C   0  0  0  0  0  0  0  0  0  0  0  0
   18.3631  -31.7088   -1.5574 O   0  0  0  0  0  0  0  0  0  0  0  0
   20.0685  -32.1169   -3.1434 C   0  0  0  0  0  0  0  0  0  0  0  0
   21.1610  -32.6897   -2.2732 C   0  0  2  0  0  0  0  0  0  0  0  0
   22.0573  -33.5206   -3.0450 N   0  0  0  0  0  0  0  0  0  0  0  0
   20.5816  -33.4125   -1.1217 C   0  0  0  0  0  0  0  0  0  0  0  0
   20.1390  -34.5719   -1.2763 O   0  0  0  0  0  0  0  0  0  0  0  0
   20.5054  -32.8379    0.1702 N   0  0  0  0  0  0  0  0  0  0  0  0
   19.9788  -33.5900    1.3267 C   0  0  1  0  0  0  0  0  0  0  0  0
   20.4289  -32.9306    2.5902 C   0  0  0  0  0  0  0  0  0  0  0  0
   21.8309  -33.2672    2.8690 C   0  0  0  0  0  0  0  0  0  0  0  0
   22.4296  -34.4752    2.5692 C   0  0  0  0  0  0  0  0  0  0  0  0
   23.7130  -34.4658    2.9499 N   0  0  0  0  0  0  0  0  0  0  0  0
   23.9156  -33.2457    3.4899 C   0  0  0  0  0  0  0  0  0  0  0  0
   22.7864  -32.5271    3.4412 N   0  0  0  0  0  0  0  0  0  0  0  0
   18.5009  -33.5042    1.2212 C   0  0  0  0  0  0  0  0  0  0  0  0
   17.6410  -34.0949    2.1574 O   0  0  0  0  0  0  0  0  0  0  0  0
   17.9749  -32.8768    0.2540 O   0  0  0  0  0  0  0  0  0  0  0  0
  2  1  1  6
  3  2  1  0
  4  2  1  0
  4  6  1  0
  4  5  1  6
  6 13  1  0
  6  7  2  0
  9 10  2  0
  9  8  1  0
 11  9  1  0
 12 11  1  6
 13 12  1  0
 14 12  1  0
 14 15  2  0
 16 14  1  0
 17 16  1  0
 17 18  1  1
 19 18  1  0
 19 23  1  0
 20 21  1  0
 20 19  2  0
 21 22  1  0
 22 23  2  0
 24 17  1  0
 25 24  1  0
 26 24  2  0
M  END
$$$$
