DSD.pdb
     RDKit          3D

 23 22  0  0  1  0  0  0  0  0999 V2000
    7.2641  -17.7123   17.8003 N   0  0  0  0  0  0  0  0  0  0  0  0
    8.5641  -17.1585   17.6152 C   0  0  1  0  0  0  0  0  0  0  0  0
    8.5364  -16.3647   16.3075 C   0  0  0  0  0  0  0  0  0  0  0  0
    8.2533  -17.3383   15.2103 C   0  0  0  0  0  0  0  0  0  0  0  0
    8.7455  -18.4873   15.1942 O   0  0  0  0  0  0  0  0  0  0  0  0
    9.0498  -16.3389   18.7428 C   0  0  0  0  0  0  0  0  0  0  0  0
   10.2558  -15.9825   18.7065 O   0  0  0  0  0  0  0  0  0  0  0  0
    7.4186  -17.0047   14.1447 O   0  0  0  0  0  0  0  0  0  0  0  0
    7.0358  -15.7871   22.2696 O   0  0  0  0  0  0  0  0  0  0  0  0
    7.7496  -14.6841   21.8122 C   0  0  0  0  0  0  0  0  0  0  0  0
    8.8816  -15.1559   20.8879 C   0  0  2  0  0  0  0  0  0  0  0  0
    8.2637  -15.9321   19.8460 N   0  0  0  0  0  0  0  0  0  0  0  0
    9.7821  -15.9744   21.7442 C   0  0  0  0  0  0  0  0  0  0  0  0
    9.5965  -17.2173   21.7954 O   0  0  0  0  0  0  0  0  0  0  0  0
   10.8424  -15.4447   22.5118 N   0  0  0  0  0  0  0  0  0  0  0  0
   11.7090  -16.2570   23.3059 C   0  0  1  0  0  0  0  0  0  0  0  0
   13.0799  -15.6965   23.5038 C   0  0  0  0  0  0  0  0  0  0  0  0
   14.0275  -16.6411   24.1021 C   0  0  0  0  0  0  0  0  0  0  0  0
   14.0457  -17.8490   23.7661 O   0  0  0  0  0  0  0  0  0  0  0  0
   11.1447  -16.5644   24.6449 C   0  0  0  0  0  0  0  0  0  0  0  0
   11.6625  -17.5004   25.2985 O   0  0  0  0  0  0  0  0  0  0  0  0
   14.9218  -16.1983   25.0565 O   0  0  0  0  0  0  0  0  0  0  0  0
   10.0822  -15.8594   25.1823 O   0  0  0  0  0  0  0  0  0  0  0  0
  2  3  1  0
  2  1  1  1
  4  3  1  0
  4  8  1  0
  5  4  2  0
  6  2  1  0
  7  6  2  0
  9 10  1  0
 11 10  1  1
 11 12  1  0
 12  6  1  0
 13 11  1  0
 13 15  1  0
 14 13  2  0
 16 15  1  0
 16 17  1  1
 16 20  1  0
 18 22  1  0
 18 17  1  0
 19 18  2  0
 20 21  2  0
 20 23  1  0
M  END
$$$$
