DSD.pdb
     RDKit          3D

 23 22  0  0  1  0  0  0  0  0999 V2000
    8.6861  -18.4417   18.1430 N   0  0  0  0  0  0  0  0  0  0  0  0
    9.6805  -17.4797   17.8010 C   0  0  1  0  0  0  0  0  0  0  0  0
    9.1313  -16.6556   16.6347 C   0  0  0  0  0  0  0  0  0  0  0  0
    8.9621  -17.5890   15.4806 C   0  0  0  0  0  0  0  0  0  0  0  0
    7.8394  -17.9943   15.1091 O   0  0  0  0  0  0  0  0  0  0  0  0
   10.1166  -16.6214   18.9200 C   0  0  0  0  0  0  0  0  0  0  0  0
   11.0671  -15.8299   18.6903 O   0  0  0  0  0  0  0  0  0  0  0  0
   10.0607  -18.0541   14.7592 O   0  0  0  0  0  0  0  0  0  0  0  0
    8.6316  -16.8609   22.7541 O   0  0  0  0  0  0  0  0  0  0  0  0
    9.0499  -15.6095   22.3134 C   0  0  0  0  0  0  0  0  0  0  0  0
   10.1222  -15.7826   21.2277 C   0  0  2  0  0  0  0  0  0  0  0  0
    9.5475  -16.6274   20.2148 N   0  0  0  0  0  0  0  0  0  0  0  0
   11.2801  -16.4231   21.9079 C   0  0  0  0  0  0  0  0  0  0  0  0
   11.4034  -17.6727   21.8357 O   0  0  0  0  0  0  0  0  0  0  0  0
   12.2609  -15.7157   22.6372 N   0  0  0  0  0  0  0  0  0  0  0  0
   13.3781  -16.3532   23.2591 C   0  0  1  0  0  0  0  0  0  0  0  0
   14.5414  -15.4533   23.5228 C   0  0  0  0  0  0  0  0  0  0  0  0
   15.7598  -16.1601   23.9277 C   0  0  0  0  0  0  0  0  0  0  0  0
   16.3000  -15.9465   25.0389 O   0  0  0  0  0  0  0  0  0  0  0  0
   13.0224  -17.0240   24.5356 C   0  0  0  0  0  0  0  0  0  0  0  0
   13.7484  -17.9695   24.9231 O   0  0  0  0  0  0  0  0  0  0  0  0
   16.3301  -17.0821   23.0724 O   0  0  0  0  0  0  0  0  0  0  0  0
   11.9314  -16.6418   25.2960 O   0  0  0  0  0  0  0  0  0  0  0  0
  2  3  1  0
  2  1  1  1
  4  3  1  0
  4  8  1  0
  5  4  2  0
  6  2  1  0
  7  6  2  0
  9 10  1  0
 11 10  1  1
 11 12  1  0
 12  6  1  0
 13 11  1  0
 13 15  1  0
 14 13  2  0
 16 15  1  0
 16 17  1  1
 16 20  1  0
 18 22  1  0
 18 17  1  0
 19 18  2  0
 20 21  2  0
 20 23  1  0
M  END
$$$$
