DSD.pdb
     RDKit          3D

 23 22  0  0  1  0  0  0  0  0999 V2000
    9.1856  -17.9557   18.3391 N   0  0  0  0  0  0  0  0  0  0  0  0
   10.5609  -17.5820   18.3403 C   0  0  1  0  0  0  0  0  0  0  0  0
   10.8351  -16.8593   17.0199 C   0  0  0  0  0  0  0  0  0  0  0  0
   10.7920  -17.8902   15.9395 C   0  0  0  0  0  0  0  0  0  0  0  0
   11.1574  -19.0706   16.1284 O   0  0  0  0  0  0  0  0  0  0  0  0
   10.9776  -16.7739   19.5033 C   0  0  0  0  0  0  0  0  0  0  0  0
   12.1763  -16.3928   19.5285 O   0  0  0  0  0  0  0  0  0  0  0  0
   10.3371  -17.5776   14.6592 O   0  0  0  0  0  0  0  0  0  0  0  0
    8.5276  -15.9534   22.6468 O   0  0  0  0  0  0  0  0  0  0  0  0
    9.5296  -15.0157   22.4193 C   0  0  0  0  0  0  0  0  0  0  0  0
   10.7010  -15.6873   21.6877 C   0  0  2  0  0  0  0  0  0  0  0  0
   10.1339  -16.4036   20.5763 N   0  0  0  0  0  0  0  0  0  0  0  0
   11.3272  -16.5961   22.6857 C   0  0  0  0  0  0  0  0  0  0  0  0
   11.0425  -17.8205   22.6451 O   0  0  0  0  0  0  0  0  0  0  0  0
   12.2293  -16.1727   23.6863 N   0  0  0  0  0  0  0  0  0  0  0  0
   12.7411  -17.0481   24.6928 C   0  0  1  0  0  0  0  0  0  0  0  0
   14.0976  -16.6847   25.2032 C   0  0  0  0  0  0  0  0  0  0  0  0
   15.1162  -16.5718   24.1554 C   0  0  0  0  0  0  0  0  0  0  0  0
   15.1705  -15.5706   23.4025 O   0  0  0  0  0  0  0  0  0  0  0  0
   11.8337  -17.1760   25.8616 C   0  0  0  0  0  0  0  0  0  0  0  0
   10.8696  -16.3792   25.9453 O   0  0  0  0  0  0  0  0  0  0  0  0
   16.0387  -17.5856   23.9883 O   0  0  0  0  0  0  0  0  0  0  0  0
   12.0189  -18.1329   26.8438 O   0  0  0  0  0  0  0  0  0  0  0  0
  2  3  1  0
  2  1  1  1
  4  3  1  0
  4  8  1  0
  5  4  2  0
  6  2  1  0
  7  6  2  0
  9 10  1  0
 11 10  1  1
 11 12  1  0
 12  6  1  0
 13 11  1  0
 13 15  1  0
 14 13  2  0
 16 15  1  0
 16 17  1  1
 16 20  1  0
 18 22  1  0
 18 17  1  0
 19 18  2  0
 20 21  2  0
 20 23  1  0
M  END
$$$$
