DSD.pdb
     RDKit          3D

 23 22  0  0  1  0  0  0  0  0999 V2000
    9.4718  -16.5273   18.0091 N   0  0  0  0  0  0  0  0  0  0  0  0
    8.6068  -16.6126   19.1385 C   0  0  1  0  0  0  0  0  0  0  0  0
    8.1976  -18.0795   19.2860 C   0  0  0  0  0  0  0  0  0  0  0  0
    7.4414  -18.4492   18.0517 C   0  0  0  0  0  0  0  0  0  0  0  0
    6.5201  -17.7380   17.5953 O   0  0  0  0  0  0  0  0  0  0  0  0
    9.1747  -16.0743   20.3903 C   0  0  0  0  0  0  0  0  0  0  0  0
   10.4182  -16.1878   20.5434 O   0  0  0  0  0  0  0  0  0  0  0  0
    7.7332  -19.6162   17.3470 O   0  0  0  0  0  0  0  0  0  0  0  0
    6.9966  -14.9613   23.6945 O   0  0  0  0  0  0  0  0  0  0  0  0
    8.1000  -14.1670   23.3997 C   0  0  0  0  0  0  0  0  0  0  0  0
    9.1166  -14.9852   22.5901 C   0  0  2  0  0  0  0  0  0  0  0  0
    8.4276  -15.4485   21.4152 N   0  0  0  0  0  0  0  0  0  0  0  0
    9.5301  -16.1031   23.4807 C   0  0  0  0  0  0  0  0  0  0  0  0
    8.9604  -17.2169   23.3509 O   0  0  0  0  0  0  0  0  0  0  0  0
   10.5294  -15.9973   24.4729 N   0  0  0  0  0  0  0  0  0  0  0  0
   10.8772  -17.0750   25.3442 C   0  0  1  0  0  0  0  0  0  0  0  0
   12.3451  -17.3219   25.4741 C   0  0  0  0  0  0  0  0  0  0  0  0
   12.6828  -18.4549   26.3403 C   0  0  0  0  0  0  0  0  0  0  0  0
   12.8770  -18.3020   27.5696 O   0  0  0  0  0  0  0  0  0  0  0  0
   10.3195  -16.9142   26.7114 C   0  0  0  0  0  0  0  0  0  0  0  0
   10.4509  -17.8681   27.5140 O   0  0  0  0  0  0  0  0  0  0  0  0
   12.7909  -19.7202   25.7980 O   0  0  0  0  0  0  0  0  0  0  0  0
    9.6702  -15.7617   27.1174 O   0  0  0  0  0  0  0  0  0  0  0  0
  2  3  1  0
  2  1  1  6
  4  3  1  0
  4  8  1  0
  5  4  2  0
  6  2  1  0
  7  6  2  0
  9 10  1  0
 11 10  1  1
 11 12  1  0
 12  6  1  0
 13 11  1  0
 13 15  1  0
 14 13  2  0
 16 15  1  0
 16 17  1  1
 16 20  1  0
 18 22  1  0
 18 17  1  0
 19 18  2  0
 20 21  2  0
 20 23  1  0
M  END
$$$$
