DSD.pdb
     RDKit          3D

 23 22  0  0  1  0  0  0  0  0999 V2000
    7.6746  -18.6080   17.7016 N   0  0  0  0  0  0  0  0  0  0  0  0
    7.3393  -19.4691   18.7866 C   0  0  1  0  0  0  0  0  0  0  0  0
    8.0534  -20.8006   18.5456 C   0  0  0  0  0  0  0  0  0  0  0  0
    7.6303  -21.2866   17.1978 C   0  0  0  0  0  0  0  0  0  0  0  0
    6.4275  -21.4158   16.8823 O   0  0  0  0  0  0  0  0  0  0  0  0
    7.6410  -18.9203   20.1233 C   0  0  0  0  0  0  0  0  0  0  0  0
    8.4679  -17.9736   20.1741 O   0  0  0  0  0  0  0  0  0  0  0  0
    8.5682  -21.6210   16.2221 O   0  0  0  0  0  0  0  0  0  0  0  0
    5.2862  -19.3983   23.2783 O   0  0  0  0  0  0  0  0  0  0  0  0
    6.1894  -18.3403   23.2912 C   0  0  0  0  0  0  0  0  0  0  0  0
    7.4777  -18.7597   22.5680 C   0  0  2  0  0  0  0  0  0  0  0  0
    7.0724  -19.3791   21.3344 N   0  0  0  0  0  0  0  0  0  0  0  0
    8.1572  -19.7154   23.4839 C   0  0  0  0  0  0  0  0  0  0  0  0
    7.8951  -20.9408   23.3759 O   0  0  0  0  0  0  0  0  0  0  0  0
    9.0864  -19.3359   24.4773 N   0  0  0  0  0  0  0  0  0  0  0  0
    9.7164  -20.2739   25.3518 C   0  0  1  0  0  0  0  0  0  0  0  0
   11.0905  -19.8877   25.7938 C   0  0  0  0  0  0  0  0  0  0  0  0
   12.1092  -20.0163   24.7480 C   0  0  0  0  0  0  0  0  0  0  0  0
   11.8072  -20.3613   23.5810 O   0  0  0  0  0  0  0  0  0  0  0  0
    8.9110  -20.5611   26.5663 C   0  0  0  0  0  0  0  0  0  0  0  0
    7.9451  -19.8040   26.8217 O   0  0  0  0  0  0  0  0  0  0  0  0
   13.4314  -19.7536   25.0473 O   0  0  0  0  0  0  0  0  0  0  0  0
    9.1914  -21.6220   27.4091 O   0  0  0  0  0  0  0  0  0  0  0  0
  2  3  1  0
  2  1  1  6
  4  3  1  0
  4  8  1  0
  5  4  2  0
  6  2  1  0
  7  6  2  0
  9 10  1  0
 11 10  1  1
 11 12  1  0
 12  6  1  0
 13 11  1  0
 13 15  1  0
 14 13  2  0
 16 15  1  0
 16 17  1  1
 16 20  1  0
 18 22  1  0
 18 17  1  0
 19 18  2  0
 20 21  2  0
 20 23  1  0
M  END
$$$$
