DSD.pdb
     RDKit          3D

 23 22  0  0  1  0  0  0  0  0999 V2000
    9.5529  -17.1941   16.9049 N   0  0  0  0  0  0  0  0  0  0  0  0
   10.0599  -17.8634   18.0564 C   0  0  1  0  0  0  0  0  0  0  0  0
   11.1443  -18.8307   17.5774 C   0  0  0  0  0  0  0  0  0  0  0  0
   10.4505  -19.9571   16.8832 C   0  0  0  0  0  0  0  0  0  0  0  0
    9.3314  -20.3779   17.2483 O   0  0  0  0  0  0  0  0  0  0  0  0
   10.5564  -16.9677   19.1196 C   0  0  0  0  0  0  0  0  0  0  0  0
   11.3904  -16.0900   18.7779 O   0  0  0  0  0  0  0  0  0  0  0  0
   11.0269  -20.5952   15.7858 O   0  0  0  0  0  0  0  0  0  0  0  0
    8.7189  -16.3883   22.6066 O   0  0  0  0  0  0  0  0  0  0  0  0
    9.6257  -15.4303   22.1646 C   0  0  0  0  0  0  0  0  0  0  0  0
   10.7737  -16.1214   21.4143 C   0  0  2  0  0  0  0  0  0  0  0  0
   10.1645  -17.0273   20.4773 N   0  0  0  0  0  0  0  0  0  0  0  0
   11.5620  -16.8322   22.4570 C   0  0  0  0  0  0  0  0  0  0  0  0
   11.2814  -18.0321   22.7086 O   0  0  0  0  0  0  0  0  0  0  0  0
   12.6153  -16.2446   23.1915 N   0  0  0  0  0  0  0  0  0  0  0  0
   13.3801  -16.9608   24.1629 C   0  0  1  0  0  0  0  0  0  0  0  0
   14.7240  -16.3755   24.4525 C   0  0  0  0  0  0  0  0  0  0  0  0
   15.4355  -15.9027   23.2615 C   0  0  0  0  0  0  0  0  0  0  0  0
   15.3758  -16.5257   22.1749 O   0  0  0  0  0  0  0  0  0  0  0  0
   12.6654  -17.1223   25.4548 C   0  0  0  0  0  0  0  0  0  0  0  0
   13.2250  -17.7922   26.3545 O   0  0  0  0  0  0  0  0  0  0  0  0
   16.1891  -14.7478   23.3303 O   0  0  0  0  0  0  0  0  0  0  0  0
   11.4211  -16.5643   25.6896 O   0  0  0  0  0  0  0  0  0  0  0  0
  2  3  1  0
  2  1  1  6
  4  3  1  0
  4  8  1  0
  5  4  2  0
  6  2  1  0
  7  6  2  0
  9 10  1  0
 11 10  1  1
 11 12  1  0
 12  6  1  0
 13 11  1  0
 13 15  1  0
 14 13  2  0
 16 15  1  0
 16 17  1  1
 16 20  1  0
 18 22  1  0
 18 17  1  0
 19 18  2  0
 20 21  2  0
 20 23  1  0
M  END
$$$$
