DSD.pdb
     RDKit          3D

 23 22  0  0  1  0  0  0  0  0999 V2000
   12.3034  -16.6852   19.6848 N   0  0  0  0  0  0  0  0  0  0  0  0
   11.5396  -17.5182   20.5530 C   0  0  1  0  0  0  0  0  0  0  0  0
   11.8516  -18.9687   20.1793 C   0  0  0  0  0  0  0  0  0  0  0  0
   11.2075  -19.2283   18.8565 C   0  0  0  0  0  0  0  0  0  0  0  0
   10.7784  -18.3054   18.1306 O   0  0  0  0  0  0  0  0  0  0  0  0
   11.7521  -17.2659   21.9918 C   0  0  0  0  0  0  0  0  0  0  0  0
   12.9294  -17.3820   22.4199 O   0  0  0  0  0  0  0  0  0  0  0  0
   11.0552  -20.5252   18.3682 O   0  0  0  0  0  0  0  0  0  0  0  0
    8.8034  -16.0416   24.4602 O   0  0  0  0  0  0  0  0  0  0  0  0
   10.0910  -15.7061   24.8659 C   0  0  0  0  0  0  0  0  0  0  0  0
   11.0885  -16.7234   24.2927 C   0  0  2  0  0  0  0  0  0  0  0  0
   10.7376  -16.9074   22.9097 N   0  0  0  0  0  0  0  0  0  0  0  0
   10.8998  -17.9632   25.0936 C   0  0  0  0  0  0  0  0  0  0  0  0
   10.0338  -18.7946   24.7187 O   0  0  0  0  0  0  0  0  0  0  0  0
   11.6349  -18.2729   26.2589 N   0  0  0  0  0  0  0  0  0  0  0  0
   11.4143  -19.4585   27.0252 C   0  0  1  0  0  0  0  0  0  0  0  0
   12.5819  -20.3890   27.0829 C   0  0  0  0  0  0  0  0  0  0  0  0
   13.8536  -19.7286   27.3906 C   0  0  0  0  0  0  0  0  0  0  0  0
   14.2996  -19.6837   28.5616 O   0  0  0  0  0  0  0  0  0  0  0  0
   10.9896  -19.1733   28.4196 C   0  0  0  0  0  0  0  0  0  0  0  0
   10.9812  -17.9779   28.7969 O   0  0  0  0  0  0  0  0  0  0  0  0
   14.5812  -19.1415   26.3744 O   0  0  0  0  0  0  0  0  0  0  0  0
   10.6096  -20.1719   29.2988 O   0  0  0  0  0  0  0  0  0  0  0  0
  2  3  1  0
  2  1  1  6
  4  3  1  0
  4  8  1  0
  5  4  2  0
  6  2  1  0
  7  6  2  0
  9 10  1  0
 11 10  1  1
 11 12  1  0
 12  6  1  0
 13 11  1  0
 13 15  1  0
 14 13  2  0
 16 15  1  0
 16 17  1  1
 16 20  1  0
 18 22  1  0
 18 17  1  0
 19 18  2  0
 20 21  2  0
 20 23  1  0
M  END
$$$$
