DSD.pdb
     RDKit          3D

 23 22  0  0  1  0  0  0  0  0999 V2000
    9.2308  -18.0385   18.4760 N   0  0  0  0  0  0  0  0  0  0  0  0
   10.6159  -17.7156   18.5665 C   0  0  1  0  0  0  0  0  0  0  0  0
   11.0132  -17.0502   17.2473 C   0  0  0  0  0  0  0  0  0  0  0  0
   10.7060  -18.0234   16.1562 C   0  0  0  0  0  0  0  0  0  0  0  0
   10.9986  -19.2358   16.2414 O   0  0  0  0  0  0  0  0  0  0  0  0
   10.9787  -16.8832   19.7304 C   0  0  0  0  0  0  0  0  0  0  0  0
   12.1437  -16.4087   19.7469 O   0  0  0  0  0  0  0  0  0  0  0  0
   10.0725  -17.6178   14.9824 O   0  0  0  0  0  0  0  0  0  0  0  0
    8.6098  -16.3630   23.0402 O   0  0  0  0  0  0  0  0  0  0  0  0
    9.3800  -15.2690   22.6590 C   0  0  0  0  0  0  0  0  0  0  0  0
   10.6108  -15.7571   21.8811 C   0  0  2  0  0  0  0  0  0  0  0  0
   10.1189  -16.5864   20.8134 N   0  0  0  0  0  0  0  0  0  0  0  0
   11.4259  -16.5232   22.8622 C   0  0  0  0  0  0  0  0  0  0  0  0
   11.3980  -17.7798   22.8154 O   0  0  0  0  0  0  0  0  0  0  0  0
   12.2374  -15.9288   23.8534 N   0  0  0  0  0  0  0  0  0  0  0  0
   13.0149  -16.6887   24.7805 C   0  0  1  0  0  0  0  0  0  0  0  0
   14.3668  -16.1224   25.0708 C   0  0  0  0  0  0  0  0  0  0  0  0
   15.3837  -16.4713   24.0747 C   0  0  0  0  0  0  0  0  0  0  0  0
   15.6926  -15.6803   23.1521 O   0  0  0  0  0  0  0  0  0  0  0  0
   12.3217  -16.9007   26.0769 C   0  0  0  0  0  0  0  0  0  0  0  0
   11.3456  -16.1620   26.3473 O   0  0  0  0  0  0  0  0  0  0  0  0
   16.0190  -17.6951   24.1477 O   0  0  0  0  0  0  0  0  0  0  0  0
   12.7155  -17.8732   26.9789 O   0  0  0  0  0  0  0  0  0  0  0  0
  2  3  1  0
  2  1  1  6
  4  3  1  0
  4  8  1  0
  5  4  2  0
  6  2  1  0
  7  6  2  0
  9 10  1  0
 11 10  1  1
 11 12  1  0
 12  6  1  0
 13 11  1  0
 13 15  1  0
 14 13  2  0
 16 15  1  0
 16 17  1  1
 16 20  1  0
 18 22  1  0
 18 17  1  0
 19 18  2  0
 20 21  2  0
 20 23  1  0
M  END
$$$$
