FGF.pdb
     RDKit          3D

 27 28  0  0  1  0  0  0  0  0999 V2000
    5.7954  -18.1784   22.0622 N   0  0  0  0  0  0  0  0  0  0  0  0
    6.9113  -17.2754   21.8883 C   0  0  1  0  0  0  0  0  0  0  0  0
    6.6213  -15.9210   22.5051 C   0  0  0  0  0  0  0  0  0  0  0  0
    7.1864  -14.8863   21.5824 C   0  0  0  0  0  0  0  0  0  0  0  0
    7.4833  -15.1672   20.2649 C   0  0  0  0  0  0  0  0  0  0  0  0
    8.0029  -14.1847   19.4474 C   0  0  0  0  0  0  0  0  0  0  0  0
    8.2336  -12.9125   19.9283 C   0  0  0  0  0  0  0  0  0  0  0  0
    7.9381  -12.6140   21.2583 C   0  0  0  0  0  0  0  0  0  0  0  0
    7.4205  -13.6104   22.0547 C   0  0  0  0  0  0  0  0  0  0  0  0
    8.1108  -17.9032   22.4781 C   0  0  0  0  0  0  0  0  0  0  0  0
    8.3634  -19.0992   22.2087 O   0  0  0  0  0  0  0  0  0  0  0  0
    9.0127  -17.2233   23.3475 N   0  0  0  0  0  0  0  0  0  0  0  0
   10.4317  -17.3509   23.2886 C   0  0  0  0  0  0  0  0  0  0  0  0
   11.0997  -16.7309   24.4885 C   0  0  0  0  0  0  0  0  0  0  0  0
   12.3467  -16.7746   24.6477 O   0  0  0  0  0  0  0  0  0  0  0  0
   10.3322  -16.0727   25.4842 N   0  0  0  0  0  0  0  0  0  0  0  0
   10.9107  -15.4898   26.6899 C   0  0  1  0  0  0  0  0  0  0  0  0
   10.5120  -14.0699   26.8606 C   0  0  0  0  0  0  0  0  0  0  0  0
    9.0468  -13.9394   26.9684 C   0  0  0  0  0  0  0  0  0  0  0  0
    8.1567  -14.4780   26.0442 C   0  0  0  0  0  0  0  0  0  0  0  0
    6.7981  -14.3263   26.2075 C   0  0  0  0  0  0  0  0  0  0  0  0
    6.2712  -13.6376   27.2884 C   0  0  0  0  0  0  0  0  0  0  0  0
    7.1500  -13.1029   28.2049 C   0  0  0  0  0  0  0  0  0  0  0  0
    8.4992  -13.2466   28.0542 C   0  0  0  0  0  0  0  0  0  0  0  0
   10.4911  -16.2960   27.8451 C   0  0  0  0  0  0  0  0  0  0  0  0
   11.0736  -16.0190   29.0987 O   0  0  0  0  0  0  0  0  0  0  0  0
    9.6300  -17.2238   27.7500 O   0  0  0  0  0  0  0  0  0  0  0  0
  2  1  1  1
  2 10  1  0
  3  2  1  0
  4  9  1  0
  4  3  1  0
  5  4  2  0
  6  7  2  0
  6  5  1  0
  7  8  1  0
  8  9  2  0
 10 12  1  0
 10 11  2  0
 12 13  1  0
 14 15  2  0
 14 13  1  0
 16 14  1  0
 17 25  1  0
 17 16  1  0
 17 18  1  1
 19 18  1  0
 20 19  2  0
 21 20  1  0
 22 21  2  0
 23 22  1  0
 23 24  2  0
 24 19  1  0
 25 26  1  0
 27 25  2  0
M  END
$$$$
