FGF.pdb
     RDKit          3D

 27 28  0  0  1  0  0  0  0  0999 V2000
    6.3292  -18.6634   22.6265 N   0  0  0  0  0  0  0  0  0  0  0  0
    7.0251  -17.4351   22.3135 C   0  0  1  0  0  0  0  0  0  0  0  0
    6.2694  -16.2289   22.8362 C   0  0  0  0  0  0  0  0  0  0  0  0
    6.8742  -15.0184   22.1957 C   0  0  0  0  0  0  0  0  0  0  0  0
    6.9947  -14.9002   20.8266 C   0  0  0  0  0  0  0  0  0  0  0  0
    7.5582  -13.7674   20.2763 C   0  0  0  0  0  0  0  0  0  0  0  0
    8.0085  -12.7394   21.0785 C   0  0  0  0  0  0  0  0  0  0  0  0
    7.8931  -12.8451   22.4645 C   0  0  0  0  0  0  0  0  0  0  0  0
    7.3275  -13.9846   22.9905 C   0  0  0  0  0  0  0  0  0  0  0  0
    8.3871  -17.5181   22.8781 C   0  0  0  0  0  0  0  0  0  0  0  0
    8.5577  -18.1177   23.9635 O   0  0  0  0  0  0  0  0  0  0  0  0
    9.5370  -16.9504   22.2560 N   0  0  0  0  0  0  0  0  0  0  0  0
   10.8784  -17.3358   22.5482 C   0  0  0  0  0  0  0  0  0  0  0  0
   11.3434  -16.7853   23.8715 C   0  0  0  0  0  0  0  0  0  0  0  0
   12.5320  -16.9166   24.2618 O   0  0  0  0  0  0  0  0  0  0  0  0
   10.4434  -16.0954   24.7244 N   0  0  0  0  0  0  0  0  0  0  0  0
   10.8147  -15.5842   26.0393 C   0  0  1  0  0  0  0  0  0  0  0  0
   10.5805  -14.1220   26.1476 C   0  0  0  0  0  0  0  0  0  0  0  0
    9.1695  -13.8326   26.4644 C   0  0  0  0  0  0  0  0  0  0  0  0
    8.7349  -13.3993   27.7134 C   0  0  0  0  0  0  0  0  0  0  0  0
    7.4023  -13.1393   27.9416 C   0  0  0  0  0  0  0  0  0  0  0  0
    6.4526  -13.2981   26.9450 C   0  0  0  0  0  0  0  0  0  0  0  0
    6.8798  -13.7272   25.7074 C   0  0  0  0  0  0  0  0  0  0  0  0
    8.1983  -13.9882   25.4686 C   0  0  0  0  0  0  0  0  0  0  0  0
   10.0478  -16.3160   27.0576 C   0  0  0  0  0  0  0  0  0  0  0  0
    9.0640  -17.2281   26.6242 O   0  0  0  0  0  0  0  0  0  0  0  0
   10.2417  -16.1539   28.3016 O   0  0  0  0  0  0  0  0  0  0  0  0
  2  1  1  1
  2 10  1  0
  3  2  1  0
  4  9  1  0
  4  3  1  0
  5  4  2  0
  6  7  2  0
  6  5  1  0
  7  8  1  0
  8  9  2  0
 10 12  1  0
 10 11  2  0
 12 13  1  0
 14 15  2  0
 14 13  1  0
 16 14  1  0
 17 25  1  0
 17 16  1  0
 17 18  1  6
 19 18  1  0
 20 19  2  0
 21 20  1  0
 22 21  2  0
 23 22  1  0
 23 24  2  0
 24 19  1  0
 25 26  1  0
 27 25  2  0
M  END
$$$$
