FGF.pdb
     RDKit          3D

 27 28  0  0  1  0  0  0  0  0999 V2000
    7.2756  -18.2457   20.0988 N   0  0  0  0  0  0  0  0  0  0  0  0
    7.6639  -17.1639   20.9762 C   0  0  1  0  0  0  0  0  0  0  0  0
    6.6208  -16.0635   20.9839 C   0  0  0  0  0  0  0  0  0  0  0  0
    7.3386  -14.7739   20.7329 C   0  0  0  0  0  0  0  0  0  0  0  0
    8.7130  -14.7112   20.6320 C   0  0  0  0  0  0  0  0  0  0  0  0
    9.3357  -13.5021   20.3999 C   0  0  0  0  0  0  0  0  0  0  0  0
    8.6017  -12.3419   20.2655 C   0  0  0  0  0  0  0  0  0  0  0  0
    7.2113  -12.3902   20.3652 C   0  0  0  0  0  0  0  0  0  0  0  0
    6.6123  -13.6078   20.5970 C   0  0  0  0  0  0  0  0  0  0  0  0
    7.8869  -17.7202   22.3259 C   0  0  0  0  0  0  0  0  0  0  0  0
    7.2797  -18.7625   22.6597 O   0  0  0  0  0  0  0  0  0  0  0  0
    8.7629  -17.1366   23.2869 N   0  0  0  0  0  0  0  0  0  0  0  0
    9.0611  -17.7161   24.5551 C   0  0  0  0  0  0  0  0  0  0  0  0
    9.9196  -16.8083   25.3975 C   0  0  0  0  0  0  0  0  0  0  0  0
   11.1338  -16.6132   25.1332 O   0  0  0  0  0  0  0  0  0  0  0  0
    9.3763  -16.1404   26.5254 N   0  0  0  0  0  0  0  0  0  0  0  0
   10.1792  -15.3612   27.4615 C   0  0  1  0  0  0  0  0  0  0  0  0
    9.3357  -14.4868   28.3149 C   0  0  0  0  0  0  0  0  0  0  0  0
    8.3231  -13.7776   27.5106 C   0  0  0  0  0  0  0  0  0  0  0  0
    7.0357  -14.2604   27.2955 C   0  0  0  0  0  0  0  0  0  0  0  0
    6.1348  -13.5445   26.5396 C   0  0  0  0  0  0  0  0  0  0  0  0
    6.4735  -12.3277   25.9696 C   0  0  0  0  0  0  0  0  0  0  0  0
    7.7475  -11.8473   26.1806 C   0  0  0  0  0  0  0  0  0  0  0  0
    8.6497  -12.5476   26.9282 C   0  0  0  0  0  0  0  0  0  0  0  0
   10.9714  -16.2892   28.2812 C   0  0  0  0  0  0  0  0  0  0  0  0
   10.7374  -17.6721   28.1379 O   0  0  0  0  0  0  0  0  0  0  0  0
   11.8500  -15.8885   29.1051 O   0  0  0  0  0  0  0  0  0  0  0  0
  2  1  1  6
  2 10  1  0
  3  2  1  0
  4  9  1  0
  4  3  1  0
  5  4  2  0
  6  7  2  0
  6  5  1  0
  7  8  1  0
  8  9  2  0
 10 12  1  0
 10 11  2  0
 12 13  1  0
 14 15  2  0
 14 13  1  0
 16 14  1  0
 17 25  1  0
 17 16  1  0
 17 18  1  1
 19 18  1  0
 20 19  2  0
 21 20  1  0
 22 21  2  0
 23 22  1  0
 23 24  2  0
 24 19  1  0
 25 26  1  0
 27 25  2  0
M  END
$$$$
