FGF.pdb
     RDKit          3D

 27 28  0  0  1  0  0  0  0  0999 V2000
    7.1634  -15.6238   23.9411 N   0  0  0  0  0  0  0  0  0  0  0  0
    8.0771  -14.8128   23.1675 C   0  0  1  0  0  0  0  0  0  0  0  0
    8.5719  -13.6264   23.9717 C   0  0  0  0  0  0  0  0  0  0  0  0
    7.5697  -13.3803   25.0563 C   0  0  0  0  0  0  0  0  0  0  0  0
    6.6327  -14.3278   25.4130 C   0  0  0  0  0  0  0  0  0  0  0  0
    5.7265  -14.0611   26.4186 C   0  0  0  0  0  0  0  0  0  0  0  0
    5.7400  -12.8513   27.0813 C   0  0  0  0  0  0  0  0  0  0  0  0
    6.6818  -11.8839   26.7313 C   0  0  0  0  0  0  0  0  0  0  0  0
    7.5757  -12.1726   25.7250 C   0  0  0  0  0  0  0  0  0  0  0  0
    9.1890  -15.6727   22.7145 C   0  0  0  0  0  0  0  0  0  0  0  0
   10.1029  -15.1680   22.0240 O   0  0  0  0  0  0  0  0  0  0  0  0
    9.2888  -17.0617   23.0182 N   0  0  0  0  0  0  0  0  0  0  0  0
   10.3426  -17.9075   22.5629 C   0  0  0  0  0  0  0  0  0  0  0  0
   11.4081  -18.0890   23.6130 C   0  0  0  0  0  0  0  0  0  0  0  0
   12.3976  -18.8432   23.4280 O   0  0  0  0  0  0  0  0  0  0  0  0
   11.3241  -17.4066   24.8542 N   0  0  0  0  0  0  0  0  0  0  0  0
   12.1746  -17.7135   25.9990 C   0  0  1  0  0  0  0  0  0  0  0  0
   12.8200  -16.4941   26.5477 C   0  0  0  0  0  0  0  0  0  0  0  0
   11.8116  -15.5027   26.9665 C   0  0  0  0  0  0  0  0  0  0  0  0
   11.1348  -14.6719   26.0785 C   0  0  0  0  0  0  0  0  0  0  0  0
   10.1984  -13.7716   26.5344 C   0  0  0  0  0  0  0  0  0  0  0  0
    9.8977  -13.6599   27.8825 C   0  0  0  0  0  0  0  0  0  0  0  0
   10.5663  -14.4809   28.7642 C   0  0  0  0  0  0  0  0  0  0  0  0
   11.4968  -15.3777   28.3245 C   0  0  0  0  0  0  0  0  0  0  0  0
   11.3567  -18.3808   27.0219 C   0  0  0  0  0  0  0  0  0  0  0  0
   12.0123  -18.9542   28.1305 O   0  0  0  0  0  0  0  0  0  0  0  0
   10.0923  -18.4560   26.9389 O   0  0  0  0  0  0  0  0  0  0  0  0
  2  1  1  1
  2 10  1  0
  3  2  1  0
  4  9  1  0
  4  3  1  0
  5  4  2  0
  6  7  2  0
  6  5  1  0
  7  8  1  0
  8  9  2  0
 10 12  1  0
 10 11  2  0
 12 13  1  0
 14 15  2  0
 14 13  1  0
 16 14  1  0
 17 25  1  0
 17 16  1  0
 17 18  1  1
 19 18  1  0
 20 19  2  0
 21 20  1  0
 22 21  2  0
 23 22  1  0
 23 24  2  0
 24 19  1  0
 25 26  1  0
 27 25  2  0
M  END
$$$$
