FGF.pdb
     RDKit          3D

 27 28  0  0  1  0  0  0  0  0999 V2000
    3.7277  -21.1537   22.0878 N   0  0  0  0  0  0  0  0  0  0  0  0
    3.5729  -19.7201   22.1976 C   0  0  1  0  0  0  0  0  0  0  0  0
    2.1196  -19.3403   22.4041 C   0  0  0  0  0  0  0  0  0  0  0  0
    1.4046  -19.6169   21.1181 C   0  0  0  0  0  0  0  0  0  0  0  0
    1.8205  -19.0736   19.9203 C   0  0  0  0  0  0  0  0  0  0  0  0
    1.1334  -19.3539   18.7572 C   0  0  0  0  0  0  0  0  0  0  0  0
    0.0260  -20.1765   18.7698 C   0  0  0  0  0  0  0  0  0  0  0  0
   -0.4059  -20.7329   19.9737 C   0  0  0  0  0  0  0  0  0  0  0  0
    0.2955  -20.4389   21.1210 C   0  0  0  0  0  0  0  0  0  0  0  0
    4.4282  -19.2458   23.3041 C   0  0  0  0  0  0  0  0  0  0  0  0
    4.8613  -20.0765   24.1341 O   0  0  0  0  0  0  0  0  0  0  0  0
    4.7972  -17.8816   23.4894 N   0  0  0  0  0  0  0  0  0  0  0  0
    5.5542  -17.4000   24.5976 C   0  0  0  0  0  0  0  0  0  0  0  0
    6.8701  -16.8089   24.1622 C   0  0  0  0  0  0  0  0  0  0  0  0
    7.3401  -17.0148   23.0137 O   0  0  0  0  0  0  0  0  0  0  0  0
    7.6247  -15.9941   25.0454 N   0  0  0  0  0  0  0  0  0  0  0  0
    8.8626  -15.3248   24.6611 C   0  0  1  0  0  0  0  0  0  0  0  0
    8.6924  -13.8516   24.5892 C   0  0  0  0  0  0  0  0  0  0  0  0
    7.9557  -13.3447   25.7621 C   0  0  0  0  0  0  0  0  0  0  0  0
    8.5594  -13.0494   26.9807 C   0  0  0  0  0  0  0  0  0  0  0  0
    7.8146  -12.5716   28.0354 C   0  0  0  0  0  0  0  0  0  0  0  0
    6.4483  -12.3690   27.9239 C   0  0  0  0  0  0  0  0  0  0  0  0
    5.8478  -12.6607   26.7187 C   0  0  0  0  0  0  0  0  0  0  0  0
    6.5753  -13.1349   25.6655 C   0  0  0  0  0  0  0  0  0  0  0  0
    9.9081  -15.6863   25.6290 C   0  0  0  0  0  0  0  0  0  0  0  0
    9.5369  -16.4394   26.7616 O   0  0  0  0  0  0  0  0  0  0  0  0
   11.1215  -15.3452   25.4785 O   0  0  0  0  0  0  0  0  0  0  0  0
  2  1  1  1
  2 10  1  0
  3  2  1  0
  4  9  1  0
  4  3  1  0
  5  4  2  0
  6  7  2  0
  6  5  1  0
  7  8  1  0
  8  9  2  0
 10 12  1  0
 10 11  2  0
 12 13  1  0
 14 15  2  0
 14 13  1  0
 16 14  1  0
 17 25  1  0
 17 16  1  0
 17 18  1  1
 19 18  1  0
 20 19  2  0
 21 20  1  0
 22 21  2  0
 23 22  1  0
 23 24  2  0
 24 19  1  0
 25 26  1  0
 27 25  2  0
M  END
$$$$
