FGF.pdb
     RDKit          3D

 27 28  0  0  1  0  0  0  0  0999 V2000
    5.9171  -16.6380   23.6073 N   0  0  0  0  0  0  0  0  0  0  0  0
    7.2979  -16.5425   24.0259 C   0  0  1  0  0  0  0  0  0  0  0  0
    7.4043  -16.0413   25.4530 C   0  0  0  0  0  0  0  0  0  0  0  0
    7.0962  -14.5764   25.4299 C   0  0  0  0  0  0  0  0  0  0  0  0
    7.9394  -13.6625   24.8325 C   0  0  0  0  0  0  0  0  0  0  0  0
    7.6183  -12.3208   24.8332 C   0  0  0  0  0  0  0  0  0  0  0  0
    6.4570  -11.8709   25.4265 C   0  0  0  0  0  0  0  0  0  0  0  0
    5.5950  -12.7836   26.0343 C   0  0  0  0  0  0  0  0  0  0  0  0
    5.9364  -14.1171   26.0212 C   0  0  0  0  0  0  0  0  0  0  0  0
    7.9244  -17.8695   23.8606 C   0  0  0  0  0  0  0  0  0  0  0  0
    7.2041  -18.8453   23.5512 O   0  0  0  0  0  0  0  0  0  0  0  0
    9.3180  -18.1132   24.0336 N   0  0  0  0  0  0  0  0  0  0  0  0
    9.8559  -19.2682   24.6736 C   0  0  0  0  0  0  0  0  0  0  0  0
   10.7806  -18.9015   25.8055 C   0  0  0  0  0  0  0  0  0  0  0  0
   11.9592  -19.3369   25.8645 O   0  0  0  0  0  0  0  0  0  0  0  0
   10.3428  -18.0449   26.8486 N   0  0  0  0  0  0  0  0  0  0  0  0
   11.2464  -17.4239   27.8108 C   0  0  1  0  0  0  0  0  0  0  0  0
   10.7212  -16.1240   28.2995 C   0  0  0  0  0  0  0  0  0  0  0  0
   10.3507  -15.2447   27.1749 C   0  0  0  0  0  0  0  0  0  0  0  0
   11.2082  -14.9399   26.1221 C   0  0  0  0  0  0  0  0  0  0  0  0
   10.7972  -14.1170   25.0978 C   0  0  0  0  0  0  0  0  0  0  0  0
    9.5258  -13.5662   25.0773 C   0  0  0  0  0  0  0  0  0  0  0  0
    8.6746  -13.8659   26.1184 C   0  0  0  0  0  0  0  0  0  0  0  0
    9.0702  -14.6807   27.1398 C   0  0  0  0  0  0  0  0  0  0  0  0
   11.4547  -18.3590   28.9256 C   0  0  0  0  0  0  0  0  0  0  0  0
   10.3401  -19.0671   29.4194 O   0  0  0  0  0  0  0  0  0  0  0  0
   12.5946  -18.5467   29.4517 O   0  0  0  0  0  0  0  0  0  0  0  0
  2  1  1  1
  2 10  1  0
  3  2  1  0
  4  9  1  0
  4  3  1  0
  5  4  2  0
  6  7  2  0
  6  5  1  0
  7  8  1  0
  8  9  2  0
 10 12  1  0
 10 11  2  0
 12 13  1  0
 14 15  2  0
 14 13  1  0
 16 14  1  0
 17 25  1  0
 17 16  1  0
 17 18  1  1
 19 18  1  0
 20 19  2  0
 21 20  1  0
 22 21  2  0
 23 22  1  0
 23 24  2  0
 24 19  1  0
 25 26  1  0
 27 25  2  0
M  END
$$$$
