FGF.pdb
     RDKit          3D

 27 28  0  0  1  0  0  0  0  0999 V2000
    7.7111  -18.9663   21.3173 N   0  0  0  0  0  0  0  0  0  0  0  0
    6.7524  -17.8843   21.2817 C   0  0  1  0  0  0  0  0  0  0  0  0
    5.6003  -18.1417   22.2332 C   0  0  0  0  0  0  0  0  0  0  0  0
    6.1920  -18.3805   23.5875 C   0  0  0  0  0  0  0  0  0  0  0  0
    6.7298  -19.5996   23.9445 C   0  0  0  0  0  0  0  0  0  0  0  0
    7.2656  -19.7782   25.2033 C   0  0  0  0  0  0  0  0  0  0  0  0
    7.2737  -18.7490   26.1218 C   0  0  0  0  0  0  0  0  0  0  0  0
    6.7334  -17.5108   25.7747 C   0  0  0  0  0  0  0  0  0  0  0  0
    6.2045  -17.3564   24.5132 C   0  0  0  0  0  0  0  0  0  0  0  0
    7.4602  -16.6283   21.6016 C   0  0  0  0  0  0  0  0  0  0  0  0
    6.8155  -15.5555   21.6130 O   0  0  0  0  0  0  0  0  0  0  0  0
    8.8516  -16.5593   21.9025 N   0  0  0  0  0  0  0  0  0  0  0  0
    9.5304  -15.3648   22.2841 C   0  0  0  0  0  0  0  0  0  0  0  0
   10.0109  -15.4254   23.7110 C   0  0  0  0  0  0  0  0  0  0  0  0
   11.2358  -15.4277   23.9971 O   0  0  0  0  0  0  0  0  0  0  0  0
    9.0846  -15.4823   24.7844 N   0  0  0  0  0  0  0  0  0  0  0  0
    9.4824  -15.5500   26.1863 C   0  0  1  0  0  0  0  0  0  0  0  0
    8.3728  -15.1608   27.0927 C   0  0  0  0  0  0  0  0  0  0  0  0
    7.8691  -13.8134   26.7668 C   0  0  0  0  0  0  0  0  0  0  0  0
    8.6128  -12.6506   26.9442 C   0  0  0  0  0  0  0  0  0  0  0  0
    8.0856  -11.4228   26.6125 C   0  0  0  0  0  0  0  0  0  0  0  0
    6.8061  -11.3003   26.0945 C   0  0  0  0  0  0  0  0  0  0  0  0
    6.0673  -12.4498   25.9180 C   0  0  0  0  0  0  0  0  0  0  0  0
    6.5789  -13.6730   26.2429 C   0  0  0  0  0  0  0  0  0  0  0  0
    9.9422  -16.9159   26.4750 C   0  0  0  0  0  0  0  0  0  0  0  0
    9.9294  -17.8595   25.4276 O   0  0  0  0  0  0  0  0  0  0  0  0
   10.3460  -17.2685   27.6257 O   0  0  0  0  0  0  0  0  0  0  0  0
  2  1  1  1
  2 10  1  0
  3  2  1  0
  4  9  1  0
  4  3  1  0
  5  4  2  0
  6  7  2  0
  6  5  1  0
  7  8  1  0
  8  9  2  0
 10 12  1  0
 10 11  2  0
 12 13  1  0
 14 15  2  0
 14 13  1  0
 16 14  1  0
 17 25  1  0
 17 16  1  0
 17 18  1  1
 19 18  1  0
 20 19  2  0
 21 20  1  0
 22 21  2  0
 23 22  1  0
 23 24  2  0
 24 19  1  0
 25 26  1  0
 27 25  2  0
M  END
$$$$
