FGF.pdb
     RDKit          3D

 27 28  0  0  1  0  0  0  0  0999 V2000
    7.3297  -16.8920   20.5467 N   0  0  0  0  0  0  0  0  0  0  0  0
    8.7299  -17.1029   20.8397 C   0  0  1  0  0  0  0  0  0  0  0  0
    9.5534  -15.8791   20.4888 C   0  0  0  0  0  0  0  0  0  0  0  0
    8.6211  -14.7077   20.4814 C   0  0  0  0  0  0  0  0  0  0  0  0
    8.2313  -14.0777   21.6450 C   0  0  0  0  0  0  0  0  0  0  0  0
    7.3702  -13.0009   21.5944 C   0  0  0  0  0  0  0  0  0  0  0  0
    6.8863  -12.5374   20.3885 C   0  0  0  0  0  0  0  0  0  0  0  0
    7.2719  -13.1646   19.2039 C   0  0  0  0  0  0  0  0  0  0  0  0
    8.1319  -14.2369   19.2794 C   0  0  0  0  0  0  0  0  0  0  0  0
    8.8553  -17.4596   22.2673 C   0  0  0  0  0  0  0  0  0  0  0  0
    9.9420  -17.9204   22.6836 O   0  0  0  0  0  0  0  0  0  0  0  0
    7.8014  -17.3102   23.2152 N   0  0  0  0  0  0  0  0  0  0  0  0
    7.9176  -17.6313   24.5996 C   0  0  0  0  0  0  0  0  0  0  0  0
    8.9146  -16.7435   25.2984 C   0  0  0  0  0  0  0  0  0  0  0  0
    9.8230  -16.1443   24.6677 O   0  0  0  0  0  0  0  0  0  0  0  0
    8.8561  -16.5563   26.7038 N   0  0  0  0  0  0  0  0  0  0  0  0
    9.7950  -15.7193   27.4427 C   0  0  1  0  0  0  0  0  0  0  0  0
    9.1035  -14.6214   28.1644 C   0  0  0  0  0  0  0  0  0  0  0  0
    8.3670  -13.7520   27.2278 C   0  0  0  0  0  0  0  0  0  0  0  0
    8.9143  -12.6143   26.6424 C   0  0  0  0  0  0  0  0  0  0  0  0
    8.1743  -11.8490   25.7694 C   0  0  0  0  0  0  0  0  0  0  0  0
    6.8686  -12.1800   25.4442 C   0  0  0  0  0  0  0  0  0  0  0  0
    6.3239  -13.3058   26.0225 C   0  0  0  0  0  0  0  0  0  0  0  0
    7.0474  -14.0728   26.8894 C   0  0  0  0  0  0  0  0  0  0  0  0
   10.5444  -16.5718   28.3766 C   0  0  0  0  0  0  0  0  0  0  0  0
   10.1429  -17.9154   28.5222 O   0  0  0  0  0  0  0  0  0  0  0  0
   11.5310  -16.1404   29.0488 O   0  0  0  0  0  0  0  0  0  0  0  0
  2  1  1  1
  2 10  1  0
  3  2  1  0
  4  9  1  0
  4  3  1  0
  5  4  2  0
  6  7  2  0
  6  5  1  0
  7  8  1  0
  8  9  2  0
 10 12  1  0
 10 11  2  0
 12 13  1  0
 14 15  2  0
 14 13  1  0
 16 14  1  0
 17 25  1  0
 17 16  1  0
 17 18  1  1
 19 18  1  0
 20 19  2  0
 21 20  1  0
 22 21  2  0
 23 22  1  0
 23 24  2  0
 24 19  1  0
 25 26  1  0
 27 25  2  0
M  END
$$$$
