FGF.pdb
     RDKit          3D

 27 28  0  0  1  0  0  0  0  0999 V2000
    8.9699  -16.7877   20.5669 N   0  0  0  0  0  0  0  0  0  0  0  0
    8.0471  -16.6058   21.6652 C   0  0  1  0  0  0  0  0  0  0  0  0
    6.7715  -15.9292   21.2026 C   0  0  0  0  0  0  0  0  0  0  0  0
    7.1375  -14.5405   20.7798 C   0  0  0  0  0  0  0  0  0  0  0  0
    8.4007  -14.0246   20.9830 C   0  0  0  0  0  0  0  0  0  0  0  0
    8.6972  -12.7395   20.5781 C   0  0  0  0  0  0  0  0  0  0  0  0
    7.7435  -11.9519   19.9671 C   0  0  0  0  0  0  0  0  0  0  0  0
    6.4621  -12.4603   19.7552 C   0  0  0  0  0  0  0  0  0  0  0  0
    6.1897  -13.7450   20.1676 C   0  0  0  0  0  0  0  0  0  0  0  0
    7.7813  -17.9267   22.2698 C   0  0  0  0  0  0  0  0  0  0  0  0
    8.3682  -18.9325   21.8107 O   0  0  0  0  0  0  0  0  0  0  0  0
    6.8854  -18.1320   23.3591 N   0  0  0  0  0  0  0  0  0  0  0  0
    6.7904  -17.2705   24.4914 C   0  0  0  0  0  0  0  0  0  0  0  0
    8.0607  -17.2691   25.3019 C   0  0  0  0  0  0  0  0  0  0  0  0
    9.1387  -17.7272   24.8432 O   0  0  0  0  0  0  0  0  0  0  0  0
    8.0769  -16.7449   26.6204 N   0  0  0  0  0  0  0  0  0  0  0  0
    9.2808  -16.2350   27.2676 C   0  0  1  0  0  0  0  0  0  0  0  0
    9.0389  -14.9276   27.9282 C   0  0  0  0  0  0  0  0  0  0  0  0
    8.4466  -13.9589   26.9869 C   0  0  0  0  0  0  0  0  0  0  0  0
    7.0780  -13.7319   26.8766 C   0  0  0  0  0  0  0  0  0  0  0  0
    6.5899  -12.8068   25.9814 C   0  0  0  0  0  0  0  0  0  0  0  0
    7.4355  -12.0740   25.1641 C   0  0  0  0  0  0  0  0  0  0  0  0
    8.7910  -12.2967   25.2708 C   0  0  0  0  0  0  0  0  0  0  0  0
    9.2874  -13.2111   26.1546 C   0  0  0  0  0  0  0  0  0  0  0  0
    9.7479  -17.2355   28.2378 C   0  0  0  0  0  0  0  0  0  0  0  0
   10.9930  -17.0259   28.8651 O   0  0  0  0  0  0  0  0  0  0  0  0
    9.0726  -18.2712   28.5252 O   0  0  0  0  0  0  0  0  0  0  0  0
  2  1  1  6
  2 10  1  0
  3  2  1  0
  4  9  1  0
  4  3  1  0
  5  4  2  0
  6  7  2  0
  6  5  1  0
  7  8  1  0
  8  9  2  0
 10 12  1  0
 10 11  2  0
 12 13  1  0
 14 15  2  0
 14 13  1  0
 16 14  1  0
 17 25  1  0
 17 16  1  0
 17 18  1  1
 19 18  1  0
 20 19  2  0
 21 20  1  0
 22 21  2  0
 23 22  1  0
 23 24  2  0
 24 19  1  0
 25 26  1  0
 27 25  2  0
M  END
$$$$
