FGF.pdb
     RDKit          3D

 27 28  0  0  1  0  0  0  0  0999 V2000
    6.9691  -17.6351   21.0109 N   0  0  0  0  0  0  0  0  0  0  0  0
    7.3873  -17.2154   19.6918 C   0  0  1  0  0  0  0  0  0  0  0  0
    6.6105  -15.9969   19.2326 C   0  0  0  0  0  0  0  0  0  0  0  0
    7.0590  -14.8445   20.0764 C   0  0  0  0  0  0  0  0  0  0  0  0
    6.6808  -14.7159   21.3968 C   0  0  0  0  0  0  0  0  0  0  0  0
    7.1164  -13.6382   22.1400 C   0  0  0  0  0  0  0  0  0  0  0  0
    7.9320  -12.6761   21.5812 C   0  0  0  0  0  0  0  0  0  0  0  0
    8.3223  -12.7931   20.2473 C   0  0  0  0  0  0  0  0  0  0  0  0
    7.8753  -13.8769   19.5258 C   0  0  0  0  0  0  0  0  0  0  0  0
    8.8414  -16.9599   19.7269 C   0  0  0  0  0  0  0  0  0  0  0  0
    9.4661  -16.8639   18.6465 O   0  0  0  0  0  0  0  0  0  0  0  0
    9.5897  -16.8134   20.9311 N   0  0  0  0  0  0  0  0  0  0  0  0
   10.9977  -16.5933   20.9775 C   0  0  0  0  0  0  0  0  0  0  0  0
   11.5003  -16.4802   22.3936 C   0  0  0  0  0  0  0  0  0  0  0  0
   12.7019  -16.2106   22.6496 O   0  0  0  0  0  0  0  0  0  0  0  0
   10.6221  -16.6768   23.4907 N   0  0  0  0  0  0  0  0  0  0  0  0
   10.8205  -16.0625   24.7989 C   0  0  1  0  0  0  0  0  0  0  0  0
    9.5299  -15.7887   25.4799 C   0  0  0  0  0  0  0  0  0  0  0  0
    9.7455  -15.1191   26.7761 C   0  0  0  0  0  0  0  0  0  0  0  0
    9.7538  -13.7366   26.9356 C   0  0  0  0  0  0  0  0  0  0  0  0
    9.9535  -13.1744   28.1763 C   0  0  0  0  0  0  0  0  0  0  0  0
   10.1522  -13.9571   29.3024 C   0  0  0  0  0  0  0  0  0  0  0  0
   10.1448  -15.3261   29.1476 C   0  0  0  0  0  0  0  0  0  0  0  0
    9.9477  -15.8957   27.9228 C   0  0  0  0  0  0  0  0  0  0  0  0
   11.6637  -16.9531   25.6091 C   0  0  0  0  0  0  0  0  0  0  0  0
   12.6656  -16.3733   26.4139 O   0  0  0  0  0  0  0  0  0  0  0  0
   11.5194  -18.2142   25.6067 O   0  0  0  0  0  0  0  0  0  0  0  0
  2  1  1  1
  2 10  1  0
  3  2  1  0
  4  9  1  0
  4  3  1  0
  5  4  2  0
  6  7  2  0
  6  5  1  0
  7  8  1  0
  8  9  2  0
 10 12  1  0
 10 11  2  0
 12 13  1  0
 14 15  2  0
 14 13  1  0
 16 14  1  0
 17 25  1  0
 17 16  1  0
 17 18  1  1
 19 18  1  0
 20 19  2  0
 21 20  1  0
 22 21  2  0
 23 22  1  0
 23 24  2  0
 24 19  1  0
 25 26  1  0
 27 25  2  0
M  END
$$$$
