FGF.pdb
     RDKit          3D

 27 28  0  0  1  0  0  0  0  0999 V2000
    7.6471  -16.6360   18.5889 N   0  0  0  0  0  0  0  0  0  0  0  0
    8.8037  -16.8057   19.4402 C   0  0  1  0  0  0  0  0  0  0  0  0
    9.5875  -15.5136   19.5633 C   0  0  0  0  0  0  0  0  0  0  0  0
    8.7476  -14.5625   20.3578 C   0  0  0  0  0  0  0  0  0  0  0  0
    9.0199  -14.2774   21.6797 C   0  0  0  0  0  0  0  0  0  0  0  0
    8.2207  -13.3945   22.3764 C   0  0  0  0  0  0  0  0  0  0  0  0
    7.1426  -12.7847   21.7691 C   0  0  0  0  0  0  0  0  0  0  0  0
    6.8554  -13.0635   20.4330 C   0  0  0  0  0  0  0  0  0  0  0  0
    7.6667  -13.9475   19.7584 C   0  0  0  0  0  0  0  0  0  0  0  0
    8.3428  -17.2971   20.7544 C   0  0  0  0  0  0  0  0  0  0  0  0
    7.3535  -18.0623   20.8023 O   0  0  0  0  0  0  0  0  0  0  0  0
    8.9625  -16.9499   21.9900 N   0  0  0  0  0  0  0  0  0  0  0  0
    8.7997  -17.6837   23.2018 C   0  0  0  0  0  0  0  0  0  0  0  0
    9.4755  -17.0026   24.3637 C   0  0  0  0  0  0  0  0  0  0  0  0
   10.7221  -16.8388   24.4006 O   0  0  0  0  0  0  0  0  0  0  0  0
    8.7161  -16.5216   25.4616 N   0  0  0  0  0  0  0  0  0  0  0  0
    9.3043  -16.1470   26.7429 C   0  0  1  0  0  0  0  0  0  0  0  0
    8.3211  -15.4645   27.6214 C   0  0  0  0  0  0  0  0  0  0  0  0
    7.7746  -14.2593   26.9703 C   0  0  0  0  0  0  0  0  0  0  0  0
    8.4529  -13.0459   26.9050 C   0  0  0  0  0  0  0  0  0  0  0  0
    7.8888  -11.9595   26.2750 C   0  0  0  0  0  0  0  0  0  0  0  0
    6.6356  -12.0330   25.6881 C   0  0  0  0  0  0  0  0  0  0  0  0
    5.9615  -13.2329   25.7514 C   0  0  0  0  0  0  0  0  0  0  0  0
    6.5102  -14.3174   26.3730 C   0  0  0  0  0  0  0  0  0  0  0  0
    9.8312  -17.3591   27.3861 C   0  0  0  0  0  0  0  0  0  0  0  0
   10.7511  -17.2070   28.4436 O   0  0  0  0  0  0  0  0  0  0  0  0
    9.4875  -18.5259   27.0230 O   0  0  0  0  0  0  0  0  0  0  0  0
  2  1  1  6
  2 10  1  0
  3  2  1  0
  4  9  1  0
  4  3  1  0
  5  4  2  0
  6  7  2  0
  6  5  1  0
  7  8  1  0
  8  9  2  0
 10 12  1  0
 10 11  2  0
 12 13  1  0
 14 15  2  0
 14 13  1  0
 16 14  1  0
 17 25  1  0
 17 16  1  0
 17 18  1  1
 19 18  1  0
 20 19  2  0
 21 20  1  0
 22 21  2  0
 23 22  1  0
 23 24  2  0
 24 19  1  0
 25 26  1  0
 27 25  2  0
M  END
$$$$
