SQF.pdb
     RDKit          3D

 27 27  0  0  1  0  0  0  0  0999 V2000
    6.9899  -16.1969   17.4552 O   0  0  0  0  0  0  0  0  0  0  0  0
    7.5096  -16.1994   18.7489 C   0  0  0  0  0  0  0  0  0  0  0  0
    7.8608  -17.6279   19.1212 C   0  0  2  0  0  0  0  0  0  0  0  0
    6.6738  -18.4503   19.2478 N   0  0  0  0  0  0  0  0  0  0  0  0
    8.5907  -17.6550   20.3969 C   0  0  0  0  0  0  0  0  0  0  0  0
    8.0381  -18.1499   21.4392 O   0  0  0  0  0  0  0  0  0  0  0  0
   14.4245  -18.2488   22.9188 N   0  0  0  0  0  0  0  0  0  0  0  0
   13.7685  -19.0636   21.9716 C   0  0  0  0  0  0  0  0  0  0  0  0
   14.2084  -20.2062   21.7336 O   0  0  0  0  0  0  0  0  0  0  0  0
   12.5393  -18.6282   21.2112 C   0  0  0  0  0  0  0  0  0  0  0  0
   12.0702  -17.2843   21.6892 C   0  0  0  0  0  0  0  0  0  0  0  0
   10.6037  -17.2608   21.8670 C   0  0  2  0  0  0  0  0  0  0  0  0
    9.8912  -17.1703   20.5938 N   0  0  0  0  0  0  0  0  0  0  0  0
   10.1382  -16.1308   22.6943 C   0  0  0  0  0  0  0  0  0  0  0  0
    9.9122  -14.9626   22.2794 O   0  0  0  0  0  0  0  0  0  0  0  0
    9.8965  -16.2954   24.1145 N   0  0  0  0  0  0  0  0  0  0  0  0
    9.4029  -15.2335   24.9370 C   0  0  1  0  0  0  0  0  0  0  0  0
    8.0971  -14.6943   24.3558 C   0  0  0  0  0  0  0  0  0  0  0  0
    7.5127  -13.6311   25.2012 C   0  0  0  0  0  0  0  0  0  0  0  0
    8.0374  -12.3582   25.1744 C   0  0  0  0  0  0  0  0  0  0  0  0
    7.4844  -11.3648   25.9702 C   0  0  0  0  0  0  0  0  0  0  0  0
    6.4225  -11.6419   26.7802 C   0  0  0  0  0  0  0  0  0  0  0  0
    5.9021  -12.9175   26.8025 C   0  0  0  0  0  0  0  0  0  0  0  0
    6.4335  -13.9131   26.0243 C   0  0  0  0  0  0  0  0  0  0  0  0
    9.2029  -15.6802   26.3530 C   0  0  0  0  0  0  0  0  0  0  0  0
    9.2468  -17.0218   26.6998 O   0  0  0  0  0  0  0  0  0  0  0  0
    8.9883  -14.8557   27.2768 O   0  0  0  0  0  0  0  0  0  0  0  0
  2  1  1  0
  3  2  1  0
  3  4  1  1
  5 13  1  0
  5  3  1  0
  6  5  2  0
  7  8  1  0
  8 10  1  0
  9  8  2  0
 10 11  1  0
 12 11  1  6
 12 14  1  0
 12 13  1  0
 14 16  1  0
 15 14  2  0
 16 17  1  0
 17 25  1  0
 17 18  1  6
 19 24  2  0
 19 18  1  0
 20 19  1  0
 21 22  1  0
 21 20  2  0
 22 23  2  0
 23 24  1  0
 25 26  1  0
 27 25  2  0
M  END
$$$$
