SQF.pdb
     RDKit          3D

 27 27  0  0  1  0  0  0  0  0999 V2000
    8.8220  -14.7889   20.7821 O   0  0  0  0  0  0  0  0  0  0  0  0
    8.2650  -15.8727   20.1046 C   0  0  0  0  0  0  0  0  0  0  0  0
    6.8106  -15.9999   20.5181 C   0  0  2  0  0  0  0  0  0  0  0  0
    6.0573  -14.8078   20.1823 N   0  0  0  0  0  0  0  0  0  0  0  0
    6.7131  -16.2259   21.9674 C   0  0  0  0  0  0  0  0  0  0  0  0
    6.1423  -15.3568   22.7129 O   0  0  0  0  0  0  0  0  0  0  0  0
    6.7247  -21.7258   25.2007 N   0  0  0  0  0  0  0  0  0  0  0  0
    6.5296  -20.7142   26.1650 C   0  0  0  0  0  0  0  0  0  0  0  0
    6.2661  -21.0297   27.3426 O   0  0  0  0  0  0  0  0  0  0  0  0
    6.6222  -19.2402   25.8526 C   0  0  0  0  0  0  0  0  0  0  0  0
    6.9244  -19.0260   24.3975 C   0  0  0  0  0  0  0  0  0  0  0  0
    7.0031  -17.5868   24.0728 C   0  0  2  0  0  0  0  0  0  0  0  0
    7.2058  -17.3500   22.6446 N   0  0  0  0  0  0  0  0  0  0  0  0
    8.0986  -16.8927   24.7771 C   0  0  0  0  0  0  0  0  0  0  0  0
    9.2789  -16.7674   24.3539 O   0  0  0  0  0  0  0  0  0  0  0  0
    7.8810  -16.2756   26.0711 N   0  0  0  0  0  0  0  0  0  0  0  0
    8.9122  -15.5682   26.7668 C   0  0  1  0  0  0  0  0  0  0  0  0
    8.2902  -14.5059   27.6714 C   0  0  0  0  0  0  0  0  0  0  0  0
    7.5785  -13.4671   26.8964 C   0  0  0  0  0  0  0  0  0  0  0  0
    8.2315  -12.3144   26.5205 C   0  0  0  0  0  0  0  0  0  0  0  0
    7.5580  -11.3431   25.7931 C   0  0  0  0  0  0  0  0  0  0  0  0
    6.2509  -11.5236   25.4476 C   0  0  0  0  0  0  0  0  0  0  0  0
    5.6031  -12.6790   25.8266 C   0  0  0  0  0  0  0  0  0  0  0  0
    6.2501  -13.6507   26.5453 C   0  0  0  0  0  0  0  0  0  0  0  0
    9.7763  -16.4968   27.5641 C   0  0  0  0  0  0  0  0  0  0  0  0
   10.9103  -16.0430   28.2202 O   0  0  0  0  0  0  0  0  0  0  0  0
    9.5049  -17.7194   27.6670 O   0  0  0  0  0  0  0  0  0  0  0  0
  2  1  1  0
  3  2  1  0
  3  4  1  1
  5 13  1  0
  5  3  1  0
  6  5  2  0
  7  8  1  0
  8 10  1  0
  9  8  2  0
 10 11  1  0
 12 11  1  6
 12 14  1  0
 12 13  1  0
 14 16  1  0
 15 14  2  0
 16 17  1  0
 17 25  1  0
 17 18  1  1
 19 24  2  0
 19 18  1  0
 20 19  1  0
 21 22  1  0
 21 20  2  0
 22 23  2  0
 23 24  1  0
 25 26  1  0
 27 25  2  0
M  END
$$$$
