SQF.pdb
     RDKit          3D

 27 27  0  0  1  0  0  0  0  0999 V2000
    7.7185  -19.8264   23.0912 O   0  0  0  0  0  0  0  0  0  0  0  0
    6.6788  -19.2667   22.3499 C   0  0  0  0  0  0  0  0  0  0  0  0
    7.2434  -18.7708   21.0316 C   0  0  2  0  0  0  0  0  0  0  0  0
    7.9220  -19.8310   20.3128 N   0  0  0  0  0  0  0  0  0  0  0  0
    8.1965  -17.6767   21.2674 C   0  0  0  0  0  0  0  0  0  0  0  0
    9.4503  -17.8758   21.1085 O   0  0  0  0  0  0  0  0  0  0  0  0
    7.5256  -11.8847   19.5572 N   0  0  0  0  0  0  0  0  0  0  0  0
    7.7787  -13.1127   18.9097 C   0  0  0  0  0  0  0  0  0  0  0  0
    7.5684  -13.2167   17.6846 O   0  0  0  0  0  0  0  0  0  0  0  0
    8.3002  -14.3361   19.6238 C   0  0  0  0  0  0  0  0  0  0  0  0
    8.4273  -14.0746   21.0969 C   0  0  0  0  0  0  0  0  0  0  0  0
    8.8237  -15.2970   21.8260 C   0  0  2  0  0  0  0  0  0  0  0  0
    7.8525  -16.3779   21.6670 N   0  0  0  0  0  0  0  0  0  0  0  0
    8.9830  -15.0804   23.2770 C   0  0  0  0  0  0  0  0  0  0  0  0
    8.8850  -13.9717   23.8680 O   0  0  0  0  0  0  0  0  0  0  0  0
    9.2784  -16.1853   24.1685 N   0  0  0  0  0  0  0  0  0  0  0  0
    9.0533  -16.1136   25.5799 C   0  0  1  0  0  0  0  0  0  0  0  0
    7.5834  -15.7999   25.8534 C   0  0  0  0  0  0  0  0  0  0  0  0
    7.3716  -14.3702   26.1654 C   0  0  0  0  0  0  0  0  0  0  0  0
    6.6720  -13.5671   25.2925 C   0  0  0  0  0  0  0  0  0  0  0  0
    6.4766  -12.2259   25.5911 C   0  0  0  0  0  0  0  0  0  0  0  0
    6.9741  -11.6974   26.7459 C   0  0  0  0  0  0  0  0  0  0  0  0
    7.6732  -12.5061   27.6152 C   0  0  0  0  0  0  0  0  0  0  0  0
    7.8774  -13.8333   27.3391 C   0  0  0  0  0  0  0  0  0  0  0  0
    9.4567  -17.3820   26.2676 C   0  0  0  0  0  0  0  0  0  0  0  0
    9.7126  -17.4148   27.6298 O   0  0  0  0  0  0  0  0  0  0  0  0
    9.5776  -18.4612   25.6353 O   0  0  0  0  0  0  0  0  0  0  0  0
  2  1  1  0
  3  2  1  0
  3  4  1  1
  5 13  1  0
  5  3  1  0
  6  5  2  0
  7  8  1  0
  8 10  1  0
  9  8  2  0
 10 11  1  0
 12 11  1  6
 12 14  1  0
 12 13  1  0
 14 16  1  0
 15 14  2  0
 16 17  1  0
 17 25  1  0
 17 18  1  6
 19 24  2  0
 19 18  1  0
 20 19  1  0
 21 22  1  0
 21 20  2  0
 22 23  2  0
 23 24  1  0
 25 26  1  0
 27 25  2  0
M  END
$$$$
