SQF.pdb
     RDKit          3D

 27 27  0  0  1  0  0  0  0  0999 V2000
    7.3986  -12.6630   20.7985 O   0  0  0  0  0  0  0  0  0  0  0  0
    8.3579  -12.9370   19.8246 C   0  0  0  0  0  0  0  0  0  0  0  0
    8.1329  -14.3482   19.3143 C   0  0  2  0  0  0  0  0  0  0  0  0
    6.8102  -14.5006   18.7411 N   0  0  0  0  0  0  0  0  0  0  0  0
    8.2849  -15.3147   20.4115 C   0  0  0  0  0  0  0  0  0  0  0  0
    7.2582  -15.9192   20.8777 O   0  0  0  0  0  0  0  0  0  0  0  0
   13.1461  -19.0800   21.0705 N   0  0  0  0  0  0  0  0  0  0  0  0
   12.1159  -18.9508   20.1148 C   0  0  0  0  0  0  0  0  0  0  0  0
   12.2242  -19.5243   19.0125 O   0  0  0  0  0  0  0  0  0  0  0  0
   10.8623  -18.1431   20.3491 C   0  0  0  0  0  0  0  0  0  0  0  0
   10.8640  -17.5525   21.7296 C   0  0  0  0  0  0  0  0  0  0  0  0
    9.6425  -16.7582   21.9742 C   0  0  2  0  0  0  0  0  0  0  0  0
    9.4980  -15.6553   21.0256 N   0  0  0  0  0  0  0  0  0  0  0  0
    9.5979  -16.1643   23.3245 C   0  0  0  0  0  0  0  0  0  0  0  0
   10.4040  -15.3071   23.7754 O   0  0  0  0  0  0  0  0  0  0  0  0
    8.5708  -16.5461   24.2741 N   0  0  0  0  0  0  0  0  0  0  0  0
    8.5221  -16.0204   25.6042 C   0  0  1  0  0  0  0  0  0  0  0  0
    7.1097  -15.5274   25.9134 C   0  0  0  0  0  0  0  0  0  0  0  0
    7.0554  -14.0564   26.0533 C   0  0  0  0  0  0  0  0  0  0  0  0
    8.2168  -13.3165   26.0442 C   0  0  0  0  0  0  0  0  0  0  0  0
    8.1592  -11.9362   26.1759 C   0  0  0  0  0  0  0  0  0  0  0  0
    6.9572  -11.3067   26.3146 C   0  0  0  0  0  0  0  0  0  0  0  0
    5.7987  -12.0525   26.3230 C   0  0  0  0  0  0  0  0  0  0  0  0
    5.8336  -13.4169   26.1943 C   0  0  0  0  0  0  0  0  0  0  0  0
    8.9568  -17.0372   26.6151 C   0  0  0  0  0  0  0  0  0  0  0  0
    9.4497  -16.6582   27.8543 O   0  0  0  0  0  0  0  0  0  0  0  0
    8.8905  -18.2692   26.3767 O   0  0  0  0  0  0  0  0  0  0  0  0
  2  1  1  0
  3  2  1  0
  3  4  1  1
  5 13  1  0
  5  3  1  0
  6  5  2  0
  7  8  1  0
  8 10  1  0
  9  8  2  0
 10 11  1  0
 12 11  1  6
 12 14  1  0
 12 13  1  0
 14 16  1  0
 15 14  2  0
 16 17  1  0
 17 25  1  0
 17 18  1  1
 19 24  2  0
 19 18  1  0
 20 19  1  0
 21 22  1  0
 21 20  2  0
 22 23  2  0
 23 24  1  0
 25 26  1  0
 27 25  2  0
M  END
$$$$
