SQF.pdb
     RDKit          3D

 27 27  0  0  1  0  0  0  0  0999 V2000
    7.2734  -12.6468   21.3103 O   0  0  0  0  0  0  0  0  0  0  0  0
    8.3721  -12.9252   20.4985 C   0  0  0  0  0  0  0  0  0  0  0  0
    8.2092  -14.3249   19.9356 C   0  0  2  0  0  0  0  0  0  0  0  0
    6.9873  -14.4482   19.1655 N   0  0  0  0  0  0  0  0  0  0  0  0
    8.1799  -15.3101   21.0263 C   0  0  0  0  0  0  0  0  0  0  0  0
    7.0852  -15.9012   21.3245 O   0  0  0  0  0  0  0  0  0  0  0  0
   12.9790  -18.5309   20.1268 N   0  0  0  0  0  0  0  0  0  0  0  0
   12.4572  -18.4550   21.4358 C   0  0  0  0  0  0  0  0  0  0  0  0
   12.7549  -19.3346   22.2684 O   0  0  0  0  0  0  0  0  0  0  0  0
   11.5403  -17.3500   21.9014 C   0  0  0  0  0  0  0  0  0  0  0  0
   10.1929  -17.9009   22.2699 C   0  0  0  0  0  0  0  0  0  0  0  0
    9.2792  -16.8288   22.7156 C   0  0  2  0  0  0  0  0  0  0  0  0
    9.2823  -15.6832   21.8075 N   0  0  0  0  0  0  0  0  0  0  0  0
    9.6078  -16.3074   24.0565 C   0  0  0  0  0  0  0  0  0  0  0  0
   10.5292  -15.4889   24.3194 O   0  0  0  0  0  0  0  0  0  0  0  0
    8.8545  -16.7225   25.2239 N   0  0  0  0  0  0  0  0  0  0  0  0
    9.1403  -16.2298   26.5366 C   0  0  1  0  0  0  0  0  0  0  0  0
    7.8554  -15.7238   27.1897 C   0  0  0  0  0  0  0  0  0  0  0  0
    7.4206  -14.4284   26.6245 C   0  0  0  0  0  0  0  0  0  0  0  0
    8.0736  -13.2669   26.9722 C   0  0  0  0  0  0  0  0  0  0  0  0
    7.6607  -12.0543   26.4384 C   0  0  0  0  0  0  0  0  0  0  0  0
    6.6102  -12.0057   25.5697 C   0  0  0  0  0  0  0  0  0  0  0  0
    5.9609  -13.1713   25.2257 C   0  0  0  0  0  0  0  0  0  0  0  0
    6.3529  -14.3793   25.7417 C   0  0  0  0  0  0  0  0  0  0  0  0
    9.7862  -17.2779   27.3904 C   0  0  0  0  0  0  0  0  0  0  0  0
    9.9543  -18.5767   26.9355 O   0  0  0  0  0  0  0  0  0  0  0  0
   10.1984  -17.0180   28.5487 O   0  0  0  0  0  0  0  0  0  0  0  0
  2  1  1  0
  3  2  1  0
  3  4  1  1
  5 13  1  0
  5  3  1  0
  6  5  2  0
  7  8  1  0
  8 10  1  0
  9  8  2  0
 10 11  1  0
 12 11  1  6
 12 14  1  0
 12 13  1  0
 14 16  1  0
 15 14  2  0
 16 17  1  0
 17 25  1  0
 17 18  1  1
 19 24  2  0
 19 18  1  0
 20 19  1  0
 21 22  1  0
 21 20  2  0
 22 23  2  0
 23 24  1  0
 25 26  1  0
 27 25  2  0
M  END
$$$$
