SQF.pdb
     RDKit          3D

 27 27  0  0  1  0  0  0  0  0999 V2000
   10.1812  -12.7376   19.9242 O   0  0  0  0  0  0  0  0  0  0  0  0
    9.8118  -13.6602   18.9464 C   0  0  0  0  0  0  0  0  0  0  0  0
    8.3118  -13.8735   19.0314 C   0  0  2  0  0  0  0  0  0  0  0  0
    7.5966  -12.6127   19.0446 N   0  0  0  0  0  0  0  0  0  0  0  0
    7.9738  -14.6195   20.2521 C   0  0  0  0  0  0  0  0  0  0  0  0
    7.3003  -14.0538   21.1811 O   0  0  0  0  0  0  0  0  0  0  0  0
    8.5702  -20.3921   20.0114 N   0  0  0  0  0  0  0  0  0  0  0  0
    7.2939  -19.7996   19.9041 C   0  0  0  0  0  0  0  0  0  0  0  0
    6.4306  -20.3268   19.1744 O   0  0  0  0  0  0  0  0  0  0  0  0
    6.8997  -18.5385   20.6342 C   0  0  0  0  0  0  0  0  0  0  0  0
    7.9842  -18.1156   21.5827 C   0  0  0  0  0  0  0  0  0  0  0  0
    8.0051  -16.6481   21.7529 C   0  0  2  0  0  0  0  0  0  0  0  0
    8.3323  -15.9496   20.5111 N   0  0  0  0  0  0  0  0  0  0  0  0
    8.9807  -16.1957   22.7634 C   0  0  0  0  0  0  0  0  0  0  0  0
   10.0701  -15.6107   22.5205 O   0  0  0  0  0  0  0  0  0  0  0  0
    8.7406  -16.4038   24.1782 N   0  0  0  0  0  0  0  0  0  0  0  0
    9.6435  -15.9383   25.1862 C   0  0  1  0  0  0  0  0  0  0  0  0
    9.7438  -14.4152   25.1264 C   0  0  0  0  0  0  0  0  0  0  0  0
    8.4906  -13.7608   25.5596 C   0  0  0  0  0  0  0  0  0  0  0  0
    8.0780  -13.8535   26.8701 C   0  0  0  0  0  0  0  0  0  0  0  0
    6.9008  -13.2371   27.2704 C   0  0  0  0  0  0  0  0  0  0  0  0
    6.1486  -12.5387   26.3722 C   0  0  0  0  0  0  0  0  0  0  0  0
    6.5668  -12.4495   25.0623 C   0  0  0  0  0  0  0  0  0  0  0  0
    7.7263  -13.0510   24.6465 C   0  0  0  0  0  0  0  0  0  0  0  0
    9.2211  -16.3838   26.5529 C   0  0  0  0  0  0  0  0  0  0  0  0
   10.0343  -16.1898   27.6589 O   0  0  0  0  0  0  0  0  0  0  0  0
    8.1155  -16.9490   26.7461 O   0  0  0  0  0  0  0  0  0  0  0  0
  2  1  1  0
  3  2  1  0
  3  4  1  1
  5 13  1  0
  5  3  1  0
  6  5  2  0
  7  8  1  0
  8 10  1  0
  9  8  2  0
 10 11  1  0
 12 11  1  6
 12 14  1  0
 12 13  1  0
 14 16  1  0
 15 14  2  0
 16 17  1  0
 17 25  1  0
 17 18  1  1
 19 24  2  0
 19 18  1  0
 20 19  1  0
 21 22  1  0
 21 20  2  0
 22 23  2  0
 23 24  1  0
 25 26  1  0
 27 25  2  0
M  END
$$$$
