SQF.pdb
     RDKit          3D

 27 27  0  0  1  0  0  0  0  0999 V2000
    8.9989  -12.4398   18.1747 O   0  0  0  0  0  0  0  0  0  0  0  0
    8.9796  -13.0702   19.4181 C   0  0  0  0  0  0  0  0  0  0  0  0
    8.4515  -14.4805   19.2319 C   0  0  2  0  0  0  0  0  0  0  0  0
    7.6640  -14.5966   18.0205 N   0  0  0  0  0  0  0  0  0  0  0  0
    7.6131  -14.8637   20.3771 C   0  0  0  0  0  0  0  0  0  0  0  0
    6.3473  -14.9795   20.2322 O   0  0  0  0  0  0  0  0  0  0  0  0
    7.8109  -20.0783   20.5207 N   0  0  0  0  0  0  0  0  0  0  0  0
    7.2300  -19.9633   21.8016 C   0  0  0  0  0  0  0  0  0  0  0  0
    6.7120  -20.9652   22.3341 O   0  0  0  0  0  0  0  0  0  0  0  0
    7.1961  -18.6735   22.5852 C   0  0  0  0  0  0  0  0  0  0  0  0
    7.7544  -17.5438   21.7688 C   0  0  0  0  0  0  0  0  0  0  0  0
    7.6322  -16.2557   22.4820 C   0  0  2  0  0  0  0  0  0  0  0  0
    8.0842  -15.1267   21.6708 N   0  0  0  0  0  0  0  0  0  0  0  0
    8.4066  -16.2124   23.7374 C   0  0  0  0  0  0  0  0  0  0  0  0
    9.6633  -16.2456   23.8252 O   0  0  0  0  0  0  0  0  0  0  0  0
    7.7406  -16.1244   25.0225 N   0  0  0  0  0  0  0  0  0  0  0  0
    8.4604  -16.0878   26.2588 C   0  0  1  0  0  0  0  0  0  0  0  0
    7.6929  -15.2488   27.2788 C   0  0  0  0  0  0  0  0  0  0  0  0
    7.3765  -13.9006   26.7604 C   0  0  0  0  0  0  0  0  0  0  0  0
    8.3903  -13.0159   26.4673 C   0  0  0  0  0  0  0  0  0  0  0  0
    8.0869  -11.7520   25.9810 C   0  0  0  0  0  0  0  0  0  0  0  0
    6.7884  -11.3800   25.7912 C   0  0  0  0  0  0  0  0  0  0  0  0
    5.7786  -12.2697   26.0864 C   0  0  0  0  0  0  0  0  0  0  0  0
    6.0568  -13.5228   26.5676 C   0  0  0  0  0  0  0  0  0  0  0  0
    8.7098  -17.4653   26.7925 C   0  0  0  0  0  0  0  0  0  0  0  0
    9.5429  -17.6782   27.8801 O   0  0  0  0  0  0  0  0  0  0  0  0
    8.1735  -18.4767   26.2743 O   0  0  0  0  0  0  0  0  0  0  0  0
  2  1  1  0
  3  2  1  0
  3  4  1  6
  5 13  1  0
  5  3  1  0
  6  5  2  0
  7  8  1  0
  8 10  1  0
  9  8  2  0
 10 11  1  0
 12 11  1  6
 12 14  1  0
 12 13  1  0
 14 16  1  0
 15 14  2  0
 16 17  1  0
 17 25  1  0
 17 18  1  1
 19 24  2  0
 19 18  1  0
 20 19  1  0
 21 22  1  0
 21 20  2  0
 22 23  2  0
 23 24  1  0
 25 26  1  0
 27 25  2  0
M  END
$$$$
