SKM.pdb
     RDKit          3D

 24 23  0  0  1  0  0  0  0  0999 V2000
   19.9422  -11.5835    4.5957 O   0  0  0  0  0  0  0  0  0  0  0  0
   19.7099  -12.7137    5.3699 C   0  0  0  0  0  0  0  0  0  0  0  0
   18.2486  -13.0821    5.2352 C   0  0  2  0  0  0  0  0  0  0  0  0
   17.3826  -12.1719    5.9158 N   0  0  0  0  0  0  0  0  0  0  0  0
   18.0654  -14.4400    5.7478 C   0  0  0  0  0  0  0  0  0  0  0  0
   18.0401  -14.6475    6.9865 O   0  0  0  0  0  0  0  0  0  0  0  0
   17.9079  -15.5852    4.8789 N   0  0  0  0  0  0  0  0  0  0  0  0
   17.9178  -16.9289    5.3865 C   0  0  1  0  0  0  0  0  0  0  0  0
   17.5413  -18.0051    4.4422 C   0  0  0  0  0  0  0  0  0  0  0  0
   16.1050  -18.0885    4.0344 C   0  0  0  0  0  0  0  0  0  0  0  0
   15.7631  -19.1409    3.0373 C   0  0  0  0  0  0  0  0  0  0  0  0
   16.1476  -20.4863    3.6571 C   0  0  0  0  0  0  0  0  0  0  0  0
   15.7943  -21.5557    2.7609 N   0  0  0  0  0  0  0  0  0  0  0  0
   19.2860  -17.2561    5.9503 C   0  0  0  0  0  0  0  0  0  0  0  0
   20.3266  -16.7793    5.4596 O   0  0  0  0  0  0  0  0  0  0  0  0
   20.9738  -14.4650    9.9181 C   0  0  0  0  0  0  0  0  0  0  0  0
   22.5782  -15.2788    9.7468 S   0  0  0  0  0  0  0  0  0  0  0  0
   22.2681  -17.0016    9.2008 C   0  0  0  0  0  0  0  0  0  0  0  0
   21.0778  -16.9853    8.3011 C   0  0  0  0  0  0  0  0  0  0  0  0
   20.6722  -18.3244    7.7855 C   0  0  2  0  0  0  0  0  0  0  0  0
   19.4052  -18.1247    7.0642 N   0  0  0  0  0  0  0  0  0  0  0  0
   20.5563  -19.3839    8.7836 C   0  0  0  0  0  0  0  0  0  0  0  0
   21.6264  -20.1990    9.1002 O   0  0  0  0  0  0  0  0  0  0  0  0
   19.4746  -19.6070    9.4031 O   0  0  0  0  0  0  0  0  0  0  0  0
  2  1  1  0
  3  2  1  0
  3  4  1  1
  5  6  2  0
  5  3  1  0
  7  5  1  0
  8  7  1  0
  8  9  1  6
 10 11  1  0
 10  9  1  0
 11 12  1  0
 12 13  1  0
 14  8  1  0
 14 21  1  0
 15 14  2  0
 17 16  1  0
 18 17  1  0
 20 19  1  1
 19 18  1  0
 20 21  1  0
 20 22  1  0
 22 23  1  0
 24 22  2  0
M  END
$$$$
