SKM.pdb
     RDKit          3D

 24 23  0  0  1  0  0  0  0  0999 V2000
   29.1128  -21.2717  -13.8376 O   0  0  0  0  0  0  0  0  0  0  0  0
   28.7319  -21.2139  -15.1726 C   0  0  0  0  0  0  0  0  0  0  0  0
   27.9258  -19.9497  -15.3759 C   0  0  2  0  0  0  0  0  0  0  0  0
   28.7444  -18.7864  -15.5123 N   0  0  0  0  0  0  0  0  0  0  0  0
   27.0099  -19.7988  -14.2452 C   0  0  0  0  0  0  0  0  0  0  0  0
   27.1971  -18.8882  -13.4002 O   0  0  0  0  0  0  0  0  0  0  0  0
   25.8708  -20.6669  -14.0452 N   0  0  0  0  0  0  0  0  0  0  0  0
   24.8995  -20.4180  -13.0167 C   0  0  1  0  0  0  0  0  0  0  0  0
   23.5102  -20.8519  -13.2875 C   0  0  0  0  0  0  0  0  0  0  0  0
   22.4885  -20.5816  -12.2295 C   0  0  0  0  0  0  0  0  0  0  0  0
   21.0937  -21.0042  -12.5370 C   0  0  0  0  0  0  0  0  0  0  0  0
   20.2028  -20.4520  -11.4218 C   0  0  0  0  0  0  0  0  0  0  0  0
   18.8284  -20.7924  -11.6809 N   0  0  0  0  0  0  0  0  0  0  0  0
   25.3476  -21.0602  -11.7191 C   0  0  0  0  0  0  0  0  0  0  0  0
   25.6768  -22.2599  -11.6628 O   0  0  0  0  0  0  0  0  0  0  0  0
   29.3521  -19.4187   -5.8503 C   0  0  0  0  0  0  0  0  0  0  0  0
   27.7240  -18.7886   -6.3169 S   0  0  0  0  0  0  0  0  0  0  0  0
   26.7815  -20.1812   -7.0479 C   0  0  0  0  0  0  0  0  0  0  0  0
   26.4529  -19.8168   -8.4570 C   0  0  0  0  0  0  0  0  0  0  0  0
   25.7319  -20.8764   -9.2192 C   0  0  2  0  0  0  0  0  0  0  0  0
   25.4004  -20.2925  -10.5287 N   0  0  0  0  0  0  0  0  0  0  0  0
   24.5498  -21.4365   -8.5704 C   0  0  0  0  0  0  0  0  0  0  0  0
   23.2733  -21.0827   -8.9641 O   0  0  0  0  0  0  0  0  0  0  0  0
   24.6367  -22.2682   -7.6194 O   0  0  0  0  0  0  0  0  0  0  0  0
  2  1  1  0
  3  2  1  0
  3  4  1  1
  5  6  2  0
  5  3  1  0
  7  5  1  0
  8  7  1  0
  8  9  1  6
 10 11  1  0
 10  9  1  0
 11 12  1  0
 12 13  1  0
 14  8  1  0
 14 21  1  0
 15 14  2  0
 17 16  1  0
 18 17  1  0
 20 19  1  1
 19 18  1  0
 20 21  1  0
 20 22  1  0
 22 23  1  0
 24 22  2  0
M  END
$$$$
