SKM.pdb
     RDKit          3D

 24 23  0  0  1  0  0  0  0  0999 V2000
   22.0055  -16.8960  -15.0561 O   0  0  0  0  0  0  0  0  0  0  0  0
   22.6064  -16.4370  -16.2218 C   0  0  0  0  0  0  0  0  0  0  0  0
   22.6638  -17.5866  -17.2039 C   0  0  2  0  0  0  0  0  0  0  0  0
   21.3703  -18.0028  -17.6459 N   0  0  0  0  0  0  0  0  0  0  0  0
   23.3690  -18.7007  -16.5702 C   0  0  0  0  0  0  0  0  0  0  0  0
   22.7207  -19.6185  -16.0085 O   0  0  0  0  0  0  0  0  0  0  0  0
   24.8115  -18.8021  -16.5571 N   0  0  0  0  0  0  0  0  0  0  0  0
   25.4856  -19.9525  -16.0230 C   0  0  1  0  0  0  0  0  0  0  0  0
   26.7990  -20.2945  -16.6145 C   0  0  0  0  0  0  0  0  0  0  0  0
   27.4547  -21.5546  -16.1471 C   0  0  0  0  0  0  0  0  0  0  0  0
   28.6784  -21.9739  -16.8857 C   0  0  0  0  0  0  0  0  0  0  0  0
   29.0270  -23.3857  -16.4088 C   0  0  0  0  0  0  0  0  0  0  0  0
   30.1310  -23.9013  -17.1750 N   0  0  0  0  0  0  0  0  0  0  0  0
   25.6714  -19.7921  -14.5275 C   0  0  0  0  0  0  0  0  0  0  0  0
   25.7439  -18.6690  -13.9943 O   0  0  0  0  0  0  0  0  0  0  0  0
   21.1426  -19.9559   -9.1045 C   0  0  0  0  0  0  0  0  0  0  0  0
   21.7556  -20.0397  -10.8023 S   0  0  0  0  0  0  0  0  0  0  0  0
   23.5425  -20.4438  -10.7250 C   0  0  0  0  0  0  0  0  0  0  0  0
   24.0738  -20.4207  -12.1191 C   0  0  0  0  0  0  0  0  0  0  0  0
   25.4790  -20.9009  -12.2549 C   0  0  2  0  0  0  0  0  0  0  0  0
   25.7672  -20.9373  -13.6975 N   0  0  0  0  0  0  0  0  0  0  0  0
   25.7804  -22.1801  -11.6185 C   0  0  0  0  0  0  0  0  0  0  0  0
   26.3209  -22.2458  -10.3483 O   0  0  0  0  0  0  0  0  0  0  0  0
   25.5636  -23.2853  -12.1973 O   0  0  0  0  0  0  0  0  0  0  0  0
  2  1  1  0
  3  2  1  0
  3  4  1  1
  5  6  2  0
  5  3  1  0
  7  5  1  0
  8  7  1  0
  8  9  1  6
 10 11  1  0
 10  9  1  0
 11 12  1  0
 12 13  1  0
 14  8  1  0
 14 21  1  0
 15 14  2  0
 17 16  1  0
 18 17  1  0
 20 19  1  6
 19 18  1  0
 20 21  1  0
 20 22  1  0
 22 23  1  0
 24 22  2  0
M  END
$$$$
