SKM.pdb
     RDKit          3D

 24 23  0  0  1  0  0  0  0  0999 V2000
   16.8939   -8.3581  -15.7949 O   0  0  0  0  0  0  0  0  0  0  0  0
   17.1093   -9.4192  -16.6657 C   0  0  0  0  0  0  0  0  0  0  0  0
   17.7093  -10.5609  -15.8746 C   0  0  2  0  0  0  0  0  0  0  0  0
   16.9065  -10.9417  -14.7555 N   0  0  0  0  0  0  0  0  0  0  0  0
   19.0458  -10.1638  -15.4316 C   0  0  0  0  0  0  0  0  0  0  0  0
   19.2139   -9.6970  -14.2774 O   0  0  0  0  0  0  0  0  0  0  0  0
   20.2134  -10.2840  -16.2763 N   0  0  0  0  0  0  0  0  0  0  0  0
   21.5323   -9.9826  -15.7938 C   0  0  1  0  0  0  0  0  0  0  0  0
   22.6588  -10.7068  -16.4249 C   0  0  0  0  0  0  0  0  0  0  0  0
   24.0177  -10.5123  -15.8318 C   0  0  0  0  0  0  0  0  0  0  0  0
   25.1491  -11.1639  -16.5489 C   0  0  0  0  0  0  0  0  0  0  0  0
   26.4257  -10.8161  -15.7798 C   0  0  0  0  0  0  0  0  0  0  0  0
   27.5503  -11.4954  -16.3675 N   0  0  0  0  0  0  0  0  0  0  0  0
   21.7996   -8.4962  -15.9205 C   0  0  0  0  0  0  0  0  0  0  0  0
   21.8699   -7.9368  -17.0310 O   0  0  0  0  0  0  0  0  0  0  0  0
   19.1875   -1.9858  -16.4598 C   0  0  0  0  0  0  0  0  0  0  0  0
   19.3534   -3.7844  -16.5130 S   0  0  0  0  0  0  0  0  0  0  0  0
   20.8808   -4.2254  -15.5992 C   0  0  0  0  0  0  0  0  0  0  0  0
   20.9821   -5.7139  -15.5763 C   0  0  0  0  0  0  0  0  0  0  0  0
   22.1440   -6.2442  -14.8066 C   0  0  2  0  0  0  0  0  0  0  0  0
   21.9767   -7.7055  -14.7575 N   0  0  0  0  0  0  0  0  0  0  0  0
   22.3340   -5.6841  -13.4716 C   0  0  0  0  0  0  0  0  0  0  0  0
   22.7216   -4.3705  -13.2874 O   0  0  0  0  0  0  0  0  0  0  0  0
   22.1552   -6.3718  -12.4235 O   0  0  0  0  0  0  0  0  0  0  0  0
  2  1  1  0
  3  2  1  0
  3  4  1  1
  5  6  2  0
  5  3  1  0
  7  5  1  0
  8  7  1  0
  8  9  1  6
 10 11  1  0
 10  9  1  0
 11 12  1  0
 12 13  1  0
 14  8  1  0
 14 21  1  0
 15 14  2  0
 17 16  1  0
 18 17  1  0
 20 19  1  1
 19 18  1  0
 20 21  1  0
 20 22  1  0
 22 23  1  0
 24 22  2  0
M  END
$$$$
