SKM.pdb
     RDKit          3D

 24 23  0  0  1  0  0  0  0  0999 V2000
   15.0373   -9.2501  -14.2979 O   0  0  0  0  0  0  0  0  0  0  0  0
   15.2011   -9.3402  -15.6748 C   0  0  0  0  0  0  0  0  0  0  0  0
   16.0657  -10.5472  -15.9662 C   0  0  2  0  0  0  0  0  0  0  0  0
   15.6023  -11.7312  -15.3141 N   0  0  0  0  0  0  0  0  0  0  0  0
   17.4368  -10.2430  -15.5567 C   0  0  0  0  0  0  0  0  0  0  0  0
   17.8814  -10.6842  -14.4677 O   0  0  0  0  0  0  0  0  0  0  0  0
   18.3295   -9.4397  -16.3622 N   0  0  0  0  0  0  0  0  0  0  0  0
   19.6918   -9.2006  -15.9749 C   0  0  1  0  0  0  0  0  0  0  0  0
   20.6574   -8.9157  -17.0604 C   0  0  0  0  0  0  0  0  0  0  0  0
   21.5648  -10.0275  -17.4807 C   0  0  0  0  0  0  0  0  0  0  0  0
   21.3680  -10.5529  -18.8605 C   0  0  0  0  0  0  0  0  0  0  0  0
   22.4013  -11.6625  -19.0683 C   0  0  0  0  0  0  0  0  0  0  0  0
   22.1594  -12.3266  -20.3222 N   0  0  0  0  0  0  0  0  0  0  0  0
   19.7516   -8.0579  -14.9812 C   0  0  0  0  0  0  0  0  0  0  0  0
   18.9516   -7.1048  -15.0319 O   0  0  0  0  0  0  0  0  0  0  0  0
   22.3113   -6.3991   -7.7758 C   0  0  0  0  0  0  0  0  0  0  0  0
   22.2329   -7.5371   -9.1774 S   0  0  0  0  0  0  0  0  0  0  0  0
   21.5932   -6.5977  -10.6164 C   0  0  0  0  0  0  0  0  0  0  0  0
   21.4171   -7.5590  -11.7439 C   0  0  0  0  0  0  0  0  0  0  0  0
   20.8788   -6.9538  -12.9959 C   0  0  2  0  0  0  0  0  0  0  0  0
   20.7355   -8.0556  -13.9608 N   0  0  0  0  0  0  0  0  0  0  0  0
   21.6551   -5.8515  -13.5567 C   0  0  0  0  0  0  0  0  0  0  0  0
   22.6903   -6.0748  -14.4445 O   0  0  0  0  0  0  0  0  0  0  0  0
   21.4195   -4.6439  -13.2570 O   0  0  0  0  0  0  0  0  0  0  0  0
  2  1  1  0
  3  2  1  0
  3  4  1  1
  5  6  2  0
  5  3  1  0
  7  5  1  0
  8  7  1  0
  8  9  1  6
 10 11  1  0
 10  9  1  0
 11 12  1  0
 12 13  1  0
 14  8  1  0
 14 21  1  0
 15 14  2  0
 17 16  1  0
 18 17  1  0
 20 19  1  1
 19 18  1  0
 20 21  1  0
 20 22  1  0
 22 23  1  0
 24 22  2  0
M  END
$$$$
