SKM.pdb
     RDKit          3D

 24 23  0  0  1  0  0  0  0  0999 V2000
   26.3164  -30.5216  -18.5460 O   0  0  0  0  0  0  0  0  0  0  0  0
   26.3365  -29.7993  -17.3592 C   0  0  0  0  0  0  0  0  0  0  0  0
   27.7792  -29.4940  -17.0204 C   0  0  2  0  0  0  0  0  0  0  0  0
   28.3077  -30.3609  -16.0150 N   0  0  0  0  0  0  0  0  0  0  0  0
   27.8670  -28.0991  -16.5883 C   0  0  0  0  0  0  0  0  0  0  0  0
   27.7130  -27.8041  -15.3769 O   0  0  0  0  0  0  0  0  0  0  0  0
   28.1286  -27.0144  -17.5082 N   0  0  0  0  0  0  0  0  0  0  0  0
   28.1730  -25.6460  -17.0738 C   0  0  1  0  0  0  0  0  0  0  0  0
   29.1073  -24.7461  -17.7872 C   0  0  0  0  0  0  0  0  0  0  0  0
   30.5700  -25.0214  -17.6428 C   0  0  0  0  0  0  0  0  0  0  0  0
   31.4878  -24.1153  -18.3878 C   0  0  0  0  0  0  0  0  0  0  0  0
   32.9162  -24.5405  -18.0396 C   0  0  0  0  0  0  0  0  0  0  0  0
   33.8575  -23.7455  -18.7837 N   0  0  0  0  0  0  0  0  0  0  0  0
   26.7869  -25.0375  -17.1466 C   0  0  0  0  0  0  0  0  0  0  0  0
   26.0347  -25.2387  -18.1185 O   0  0  0  0  0  0  0  0  0  0  0  0
   21.3685  -26.4388  -15.4116 C   0  0  0  0  0  0  0  0  0  0  0  0
   21.6729  -25.0347  -14.3156 S   0  0  0  0  0  0  0  0  0  0  0  0
   22.6873  -23.8204  -15.2424 C   0  0  0  0  0  0  0  0  0  0  0  0
   24.0771  -24.3573  -15.3227 C   0  0  0  0  0  0  0  0  0  0  0  0
   25.0146  -23.5311  -16.1363 C   0  0  2  0  0  0  0  0  0  0  0  0
   26.3164  -24.2159  -16.0916 N   0  0  0  0  0  0  0  0  0  0  0  0
   25.1354  -22.1300  -15.7434 C   0  0  0  0  0  0  0  0  0  0  0  0
   24.0754  -21.2516  -15.8638 O   0  0  0  0  0  0  0  0  0  0  0  0
   26.2123  -21.6541  -15.2772 O   0  0  0  0  0  0  0  0  0  0  0  0
  2  1  1  0
  3  2  1  0
  3  4  1  1
  5  6  2  0
  5  3  1  0
  7  5  1  0
  8  7  1  0
  8  9  1  6
 10 11  1  0
 10  9  1  0
 11 12  1  0
 12 13  1  0
 14  8  1  0
 14 21  1  0
 15 14  2  0
 17 16  1  0
 18 17  1  0
 20 19  1  1
 19 18  1  0
 20 21  1  0
 20 22  1  0
 22 23  1  0
 24 22  2  0
M  END
$$$$
