FSK.pdb
     RDKit          3D

 27 27  0  0  1  0  0  0  0  0999 V2000
   15.6807  -15.3079    5.5220 N   0  0  0  0  0  0  0  0  0  0  0  0
   16.9564  -15.9071    5.7638 C   0  0  1  0  0  0  0  0  0  0  0  0
   18.0368  -14.8709    5.8571 C   0  0  0  0  0  0  0  0  0  0  0  0
   18.3127  -14.3629    4.4910 C   0  0  0  0  0  0  0  0  0  0  0  0
   18.4284  -15.2306    3.4303 C   0  0  0  0  0  0  0  0  0  0  0  0
   18.6869  -14.7469    2.1547 C   0  0  0  0  0  0  0  0  0  0  0  0
   18.8328  -13.3973    1.9221 C   0  0  0  0  0  0  0  0  0  0  0  0
   18.7187  -12.5240    2.9767 C   0  0  0  0  0  0  0  0  0  0  0  0
   18.4617  -13.0174    4.2388 C   0  0  0  0  0  0  0  0  0  0  0  0
   16.9604  -16.8398    6.9219 C   0  0  0  0  0  0  0  0  0  0  0  0
   16.2809  -16.5429    7.9185 O   0  0  0  0  0  0  0  0  0  0  0  0
   17.6523  -20.9323    6.7147 O   0  0  0  0  0  0  0  0  0  0  0  0
   17.0977  -20.2721    7.7981 C   0  0  0  0  0  0  0  0  0  0  0  0
   17.7556  -18.9442    8.0600 C   0  0  2  0  0  0  0  0  0  0  0  0
   17.6966  -18.0492    6.9519 N   0  0  0  0  0  0  0  0  0  0  0  0
   19.1664  -19.0915    8.4915 C   0  0  0  0  0  0  0  0  0  0  0  0
   20.0870  -19.0420    7.6489 O   0  0  0  0  0  0  0  0  0  0  0  0
   19.5431  -19.2906    9.8414 N   0  0  0  0  0  0  0  0  0  0  0  0
   20.9534  -19.5223   10.2176 C   0  0  1  0  0  0  0  0  0  0  0  0
   21.2654  -18.8670   11.5168 C   0  0  0  0  0  0  0  0  0  0  0  0
   22.6864  -19.0486   11.8952 C   0  0  0  0  0  0  0  0  0  0  0  0
   23.0364  -18.4476   13.2354 C   0  0  0  0  0  0  0  0  0  0  0  0
   24.5351  -18.5668   13.4515 C   0  0  0  0  0  0  0  0  0  0  0  0
   24.9149  -18.1011   14.7708 N   0  0  0  0  0  0  0  0  0  0  0  0
   21.2200  -20.9565   10.1629 C   0  0  0  0  0  0  0  0  0  0  0  0
   22.3754  -21.3875    9.8800 O   0  0  0  0  0  0  0  0  0  0  0  0
   20.2395  -21.9028   10.4153 O   0  0  0  0  0  0  0  0  0  0  0  0
  2  1  1  1
  2  3  1  0
  4  3  1  0
  4  9  2  0
  5  4  1  0
  6  5  2  0
  6  7  1  0
  7  8  2  0
  8  9  1  0
 10  2  1  0
 11 10  2  0
 12 13  1  0
 14 13  1  6
 14 15  1  0
 15 10  1  0
 16 14  1  0
 16 18  1  0
 17 16  2  0
 19 18  1  0
 19 25  1  0
 19 20  1  1
 21 20  1  0
 22 21  1  0
 23 22  1  0
 24 23  1  0
 25 27  1  0
 26 25  2  0
M  END
$$$$
