FSK.pdb
     RDKit          3D

 27 27  0  0  1  0  0  0  0  0999 V2000
   17.8676  -22.8185    3.3787 N   0  0  0  0  0  0  0  0  0  0  0  0
   18.5768  -22.6761    4.6123 C   0  0  1  0  0  0  0  0  0  0  0  0
   20.0352  -22.4173    4.3762 C   0  0  0  0  0  0  0  0  0  0  0  0
   20.6142  -23.6037    3.6998 C   0  0  0  0  0  0  0  0  0  0  0  0
   20.7232  -24.8045    4.3614 C   0  0  0  0  0  0  0  0  0  0  0  0
   21.2666  -25.9102    3.7211 C   0  0  0  0  0  0  0  0  0  0  0  0
   21.7063  -25.8324    2.4182 C   0  0  0  0  0  0  0  0  0  0  0  0
   21.6008  -24.6362    1.7505 C   0  0  0  0  0  0  0  0  0  0  0  0
   21.0592  -23.5455    2.3980 C   0  0  0  0  0  0  0  0  0  0  0  0
   17.9642  -21.6831    5.5342 C   0  0  0  0  0  0  0  0  0  0  0  0
   17.1958  -20.8324    5.0558 O   0  0  0  0  0  0  0  0  0  0  0  0
   19.0872  -21.2384    9.6736 O   0  0  0  0  0  0  0  0  0  0  0  0
   17.7613  -21.1445    9.2862 C   0  0  0  0  0  0  0  0  0  0  0  0
   17.6112  -20.7387    7.8449 C   0  0  2  0  0  0  0  0  0  0  0  0
   18.2083  -21.6533    6.9288 N   0  0  0  0  0  0  0  0  0  0  0  0
   18.1392  -19.3775    7.5865 C   0  0  0  0  0  0  0  0  0  0  0  0
   19.0290  -19.2040    6.7275 O   0  0  0  0  0  0  0  0  0  0  0  0
   17.6811  -18.2290    8.2758 N   0  0  0  0  0  0  0  0  0  0  0  0
   18.2463  -16.8920    7.9982 C   0  0  1  0  0  0  0  0  0  0  0  0
   17.5765  -16.2719    6.8228 C   0  0  0  0  0  0  0  0  0  0  0  0
   18.1242  -14.9276    6.5257 C   0  0  0  0  0  0  0  0  0  0  0  0
   17.3884  -14.2057    5.4224 C   0  0  0  0  0  0  0  0  0  0  0  0
   18.1078  -12.9019    5.1228 C   0  0  0  0  0  0  0  0  0  0  0  0
   17.4195  -12.1456    4.0952 N   0  0  0  0  0  0  0  0  0  0  0  0
   18.2042  -16.1047    9.2268 C   0  0  0  0  0  0  0  0  0  0  0  0
   18.6195  -14.9098    9.2417 O   0  0  0  0  0  0  0  0  0  0  0  0
   17.7141  -16.6158   10.4181 O   0  0  0  0  0  0  0  0  0  0  0  0
  2  1  1  6
  2  3  1  0
  4  3  1  0
  4  9  2  0
  5  4  1  0
  6  5  2  0
  6  7  1  0
  7  8  2  0
  8  9  1  0
 10  2  1  0
 11 10  2  0
 12 13  1  0
 14 13  1  1
 14 15  1  0
 15 10  1  0
 16 14  1  0
 16 18  1  0
 17 16  2  0
 19 18  1  0
 19 25  1  0
 19 20  1  6
 21 20  1  0
 22 21  1  0
 23 22  1  0
 24 23  1  0
 25 27  1  0
 26 25  2  0
M  END
$$$$
