FSK.pdb
     RDKit          3D

 27 27  0  0  1  0  0  0  0  0999 V2000
   18.0072  -21.1525    7.8312 N   0  0  0  0  0  0  0  0  0  0  0  0
   19.0285  -21.8682    7.1314 C   0  0  1  0  0  0  0  0  0  0  0  0
   20.2872  -21.9549    7.9425 C   0  0  0  0  0  0  0  0  0  0  0  0
   20.9305  -20.6184    7.9466 C   0  0  0  0  0  0  0  0  0  0  0  0
   20.8873  -19.8228    9.0676 C   0  0  0  0  0  0  0  0  0  0  0  0
   21.4919  -18.5728    9.0631 C   0  0  0  0  0  0  0  0  0  0  0  0
   22.1444  -18.1027    7.9450 C   0  0  0  0  0  0  0  0  0  0  0  0
   22.1919  -18.8917    6.8212 C   0  0  0  0  0  0  0  0  0  0  0  0
   21.5873  -20.1312    6.8387 C   0  0  0  0  0  0  0  0  0  0  0  0
   18.5816  -23.1948    6.6299 C   0  0  0  0  0  0  0  0  0  0  0  0
   17.9076  -23.9131    7.3868 O   0  0  0  0  0  0  0  0  0  0  0  0
   18.0663  -26.2788    2.8755 O   0  0  0  0  0  0  0  0  0  0  0  0
   18.5842  -25.0823    3.3418 C   0  0  0  0  0  0  0  0  0  0  0  0
   18.5098  -24.9694    4.8406 C   0  0  2  0  0  0  0  0  0  0  0  0
   18.8820  -23.6855    5.3359 N   0  0  0  0  0  0  0  0  0  0  0  0
   19.3193  -26.0073    5.5231 C   0  0  0  0  0  0  0  0  0  0  0  0
   20.5271  -25.8005    5.7645 O   0  0  0  0  0  0  0  0  0  0  0  0
   18.7890  -27.2553    5.9294 N   0  0  0  0  0  0  0  0  0  0  0  0
   19.6422  -28.2798    6.5669 C   0  0  1  0  0  0  0  0  0  0  0  0
   19.1028  -28.6568    7.9017 C   0  0  0  0  0  0  0  0  0  0  0  0
   19.9976  -28.2187    8.9984 C   0  0  0  0  0  0  0  0  0  0  0  0
   19.4947  -28.5891   10.3731 C   0  0  0  0  0  0  0  0  0  0  0  0
   20.4551  -28.0383   11.4129 C   0  0  0  0  0  0  0  0  0  0  0  0
   19.9348  -28.2140   12.7546 N   0  0  0  0  0  0  0  0  0  0  0  0
   19.8192  -29.3861    5.6310 C   0  0  0  0  0  0  0  0  0  0  0  0
   18.9505  -29.6247    4.7427 O   0  0  0  0  0  0  0  0  0  0  0  0
   20.9286  -30.2158    5.6655 O   0  0  0  0  0  0  0  0  0  0  0  0
  2  1  1  1
  2  3  1  0
  4  3  1  0
  4  9  2  0
  5  4  1  0
  6  5  2  0
  6  7  1  0
  7  8  2  0
  8  9  1  0
 10  2  1  0
 11 10  2  0
 12 13  1  0
 14 13  1  6
 14 15  1  0
 15 10  1  0
 16 14  1  0
 16 18  1  0
 17 16  2  0
 19 18  1  0
 19 25  1  0
 19 20  1  1
 21 20  1  0
 22 21  1  0
 23 22  1  0
 24 23  1  0
 25 27  1  0
 26 25  2  0
M  END
$$$$
