FSK.pdb
     RDKit          3D

 27 27  0  0  1  0  0  0  0  0999 V2000
   24.0561  -21.5759  -17.3183 N   0  0  0  0  0  0  0  0  0  0  0  0
   22.9481  -20.8458  -16.7851 C   0  0  1  0  0  0  0  0  0  0  0  0
   21.7625  -20.9074  -17.7019 C   0  0  0  0  0  0  0  0  0  0  0  0
   22.0917  -20.1571  -18.9384 C   0  0  0  0  0  0  0  0  0  0  0  0
   22.2329  -20.8120  -20.1395 C   0  0  0  0  0  0  0  0  0  0  0  0
   22.5413  -20.1022  -21.2923 C   0  0  0  0  0  0  0  0  0  0  0  0
   22.7121  -18.7360  -21.2617 C   0  0  0  0  0  0  0  0  0  0  0  0
   22.5728  -18.0744  -20.0655 C   0  0  0  0  0  0  0  0  0  0  0  0
   22.2662  -18.7912  -18.9277 C   0  0  0  0  0  0  0  0  0  0  0  0
   22.6081  -21.2257  -15.3882 C   0  0  0  0  0  0  0  0  0  0  0  0
   23.0436  -22.3030  -14.9492 O   0  0  0  0  0  0  0  0  0  0  0  0
   19.8679  -18.9911  -12.8716 O   0  0  0  0  0  0  0  0  0  0  0  0
   21.0045  -19.6001  -12.3671 C   0  0  0  0  0  0  0  0  0  0  0  0
   21.4436  -20.7754  -13.1980 C   0  0  2  0  0  0  0  0  0  0  0  0
   21.8143  -20.4267  -14.5296 N   0  0  0  0  0  0  0  0  0  0  0  0
   20.4187  -21.8458  -13.2431 C   0  0  0  0  0  0  0  0  0  0  0  0
   19.6488  -21.9342  -14.2226 O   0  0  0  0  0  0  0  0  0  0  0  0
   20.2561  -22.8017  -12.2117 N   0  0  0  0  0  0  0  0  0  0  0  0
   19.1414  -23.7717  -12.2342 C   0  0  1  0  0  0  0  0  0  0  0  0
   19.3465  -24.8321  -11.2105 C   0  0  0  0  0  0  0  0  0  0  0  0
   18.3173  -25.8937  -11.3068 C   0  0  0  0  0  0  0  0  0  0  0  0
   18.5074  -27.0118  -10.3100 C   0  0  0  0  0  0  0  0  0  0  0  0
   17.8357  -28.2654  -10.8433 C   0  0  0  0  0  0  0  0  0  0  0  0
   18.0583  -29.3960   -9.9636 N   0  0  0  0  0  0  0  0  0  0  0  0
   17.8838  -23.0379  -12.1283 C   0  0  0  0  0  0  0  0  0  0  0  0
   16.8686  -23.3987  -12.7916 O   0  0  0  0  0  0  0  0  0  0  0  0
   17.7392  -21.9295  -11.3091 O   0  0  0  0  0  0  0  0  0  0  0  0
  2  1  1  6
  2  3  1  0
  4  3  1  0
  4  9  2  0
  5  4  1  0
  6  5  2  0
  6  7  1  0
  7  8  2  0
  8  9  1  0
 10  2  1  0
 11 10  2  0
 12 13  1  0
 14 13  1  6
 14 15  1  0
 15 10  1  0
 16 14  1  0
 16 18  1  0
 17 16  2  0
 19 18  1  0
 19 25  1  0
 19 20  1  1
 21 20  1  0
 22 21  1  0
 23 22  1  0
 24 23  1  0
 25 27  1  0
 26 25  2  0
M  END
$$$$
