FSK.pdb
     RDKit          3D

 27 27  0  0  1  0  0  0  0  0999 V2000
   26.2051  -21.3746   -7.1013 N   0  0  0  0  0  0  0  0  0  0  0  0
   26.7794  -20.4860   -8.0633 C   0  0  1  0  0  0  0  0  0  0  0  0
   28.2241  -20.2168   -7.7629 C   0  0  0  0  0  0  0  0  0  0  0  0
   28.3211  -19.6921   -6.3789 C   0  0  0  0  0  0  0  0  0  0  0  0
   28.2250  -18.3425   -6.1322 C   0  0  0  0  0  0  0  0  0  0  0  0
   28.3170  -17.8595   -4.8337 C   0  0  0  0  0  0  0  0  0  0  0  0
   28.5052  -18.7130   -3.7694 C   0  0  0  0  0  0  0  0  0  0  0  0
   28.6021  -20.0627   -4.0076 C   0  0  0  0  0  0  0  0  0  0  0  0
   28.5091  -20.5296   -5.3021 C   0  0  0  0  0  0  0  0  0  0  0  0
   26.5610  -20.9174   -9.4695 C   0  0  0  0  0  0  0  0  0  0  0  0
   27.3440  -21.7487   -9.9580 O   0  0  0  0  0  0  0  0  0  0  0  0
   23.2792  -21.9765  -11.3898 O   0  0  0  0  0  0  0  0  0  0  0  0
   24.5689  -22.0292  -11.8909 C   0  0  0  0  0  0  0  0  0  0  0  0
   25.3271  -20.7497  -11.6616 C   0  0  2  0  0  0  0  0  0  0  0  0
   25.5086  -20.4324  -10.2837 N   0  0  0  0  0  0  0  0  0  0  0  0
   24.7006  -19.5945  -12.3482 C   0  0  0  0  0  0  0  0  0  0  0  0
   23.7962  -18.9454  -11.7820 O   0  0  0  0  0  0  0  0  0  0  0  0
   25.0776  -19.1712  -13.6453 N   0  0  0  0  0  0  0  0  0  0  0  0
   24.3098  -18.1349  -14.3668 C   0  0  1  0  0  0  0  0  0  0  0  0
   25.0146  -17.7314  -15.6139 C   0  0  0  0  0  0  0  0  0  0  0  0
   24.2375  -16.7323  -16.3842 C   0  0  0  0  0  0  0  0  0  0  0  0
   24.9029  -16.3120  -17.6728 C   0  0  0  0  0  0  0  0  0  0  0  0
   24.0422  -15.2595  -18.3501 C   0  0  0  0  0  0  0  0  0  0  0  0
   24.6666  -14.7713  -19.5639 N   0  0  0  0  0  0  0  0  0  0  0  0
   22.9424  -18.6120  -14.5501 C   0  0  0  0  0  0  0  0  0  0  0  0
   21.9591  -17.8363  -14.3711 O   0  0  0  0  0  0  0  0  0  0  0  0
   22.6561  -19.9151  -14.9248 O   0  0  0  0  0  0  0  0  0  0  0  0
  2  1  1  1
  2  3  1  0
  4  3  1  0
  4  9  2  0
  5  4  1  0
  6  5  2  0
  6  7  1  0
  7  8  2  0
  8  9  1  0
 10  2  1  0
 11 10  2  0
 12 13  1  0
 14 13  1  1
 14 15  1  0
 15 10  1  0
 16 14  1  0
 16 18  1  0
 17 16  2  0
 19 18  1  0
 19 25  1  0
 19 20  1  6
 21 20  1  0
 22 21  1  0
 23 22  1  0
 24 23  1  0
 25 27  1  0
 26 25  2  0
M  END
$$$$
