FSK.pdb
     RDKit          3D

 27 27  0  0  1  0  0  0  0  0999 V2000
   28.1206  -19.7268  -15.5426 N   0  0  0  0  0  0  0  0  0  0  0  0
   27.1883  -19.2127  -14.5879 C   0  0  1  0  0  0  0  0  0  0  0  0
   26.2278  -18.2533  -15.2257 C   0  0  0  0  0  0  0  0  0  0  0  0
   26.9821  -17.0431  -15.6341 C   0  0  0  0  0  0  0  0  0  0  0  0
   27.2321  -16.0351  -14.7325 C   0  0  0  0  0  0  0  0  0  0  0  0
   27.9387  -14.9055  -15.1230 C   0  0  0  0  0  0  0  0  0  0  0  0
   28.4029  -14.7676  -16.4123 C   0  0  0  0  0  0  0  0  0  0  0  0
   28.1572  -15.7704  -17.3189 C   0  0  0  0  0  0  0  0  0  0  0  0
   27.4541  -16.8873  -16.9182 C   0  0  0  0  0  0  0  0  0  0  0  0
   26.4991  -20.2731  -13.8058 C   0  0  0  0  0  0  0  0  0  0  0  0
   26.0267  -21.2439  -14.4201 O   0  0  0  0  0  0  0  0  0  0  0  0
   25.7521  -19.6345   -9.7160 O   0  0  0  0  0  0  0  0  0  0  0  0
   25.6192  -20.9379  -10.1640 C   0  0  0  0  0  0  0  0  0  0  0  0
   25.4172  -21.0159  -11.6532 C   0  0  2  0  0  0  0  0  0  0  0  0
   26.3511  -20.2377  -12.3978 N   0  0  0  0  0  0  0  0  0  0  0  0
   24.0406  -20.6381  -12.0540 C   0  0  0  0  0  0  0  0  0  0  0  0
   23.8068  -19.4883  -12.4821 O   0  0  0  0  0  0  0  0  0  0  0  0
   22.9434  -21.5292  -11.9781 N   0  0  0  0  0  0  0  0  0  0  0  0
   21.5733  -21.0886  -12.3141 C   0  0  1  0  0  0  0  0  0  0  0  0
   21.2533  -21.4026  -13.7331 C   0  0  0  0  0  0  0  0  0  0  0  0
   19.8941  -20.9432  -14.1033 C   0  0  0  0  0  0  0  0  0  0  0  0
   19.4949  -21.3108  -15.5123 C   0  0  0  0  0  0  0  0  0  0  0  0
   18.1510  -20.6754  -15.8242 C   0  0  0  0  0  0  0  0  0  0  0  0
   17.7924  -20.8605  -17.2166 N   0  0  0  0  0  0  0  0  0  0  0  0
   20.6508  -21.6453  -11.3291 C   0  0  0  0  0  0  0  0  0  0  0  0
   20.7951  -22.8291  -10.9070 O   0  0  0  0  0  0  0  0  0  0  0  0
   19.5896  -20.9181  -10.8137 O   0  0  0  0  0  0  0  0  0  0  0  0
  2  1  1  6
  2  3  1  0
  4  3  1  0
  4  9  2  0
  5  4  1  0
  6  5  2  0
  6  7  1  0
  7  8  2  0
  8  9  1  0
 10  2  1  0
 11 10  2  0
 12 13  1  0
 14 13  1  1
 14 15  1  0
 15 10  1  0
 16 14  1  0
 16 18  1  0
 17 16  2  0
 19 18  1  0
 19 25  1  0
 19 20  1  6
 21 20  1  0
 22 21  1  0
 23 22  1  0
 24 23  1  0
 25 27  1  0
 26 25  2  0
M  END
$$$$
