FSK.pdb
     RDKit          3D

 27 27  0  0  1  0  0  0  0  0999 V2000
   28.0432  -22.1724  -11.2021 N   0  0  0  0  0  0  0  0  0  0  0  0
   26.9762  -21.3380  -10.7437 C   0  0  1  0  0  0  0  0  0  0  0  0
   27.4566  -19.9460  -10.4583 C   0  0  0  0  0  0  0  0  0  0  0  0
   27.7885  -19.8557   -9.0154 C   0  0  0  0  0  0  0  0  0  0  0  0
   29.0507  -20.1650   -8.5655 C   0  0  0  0  0  0  0  0  0  0  0  0
   29.3532  -20.0781   -7.2131 C   0  0  0  0  0  0  0  0  0  0  0  0
   28.4043  -19.6830   -6.2964 C   0  0  0  0  0  0  0  0  0  0  0  0
   27.1410  -19.3723   -6.7381 C   0  0  0  0  0  0  0  0  0  0  0  0
   26.8535  -19.4628   -8.0840 C   0  0  0  0  0  0  0  0  0  0  0  0
   25.7863  -21.3581  -11.6353 C   0  0  0  0  0  0  0  0  0  0  0  0
   25.9681  -21.5035  -12.8555 O   0  0  0  0  0  0  0  0  0  0  0  0
   21.8108  -20.3395  -10.3695 O   0  0  0  0  0  0  0  0  0  0  0  0
   22.0125  -21.4350  -11.1919 C   0  0  0  0  0  0  0  0  0  0  0  0
   23.2893  -21.3330  -11.9819 C   0  0  2  0  0  0  0  0  0  0  0  0
   24.4558  -21.2207  -11.1702 N   0  0  0  0  0  0  0  0  0  0  0  0
   23.2619  -20.2118  -12.9517 C   0  0  0  0  0  0  0  0  0  0  0  0
   23.6470  -19.0754  -12.6054 O   0  0  0  0  0  0  0  0  0  0  0  0
   22.8121  -20.3572  -14.2860 N   0  0  0  0  0  0  0  0  0  0  0  0
   22.6970  -19.1918  -15.1875 C   0  0  1  0  0  0  0  0  0  0  0  0
   23.2854  -19.4977  -16.5198 C   0  0  0  0  0  0  0  0  0  0  0  0
   23.2673  -18.3148  -17.4118 C   0  0  0  0  0  0  0  0  0  0  0  0
   23.8548  -18.5787  -18.7775 C   0  0  0  0  0  0  0  0  0  0  0  0
   23.9281  -17.2687  -19.5428 C   0  0  0  0  0  0  0  0  0  0  0  0
   24.6118  -17.4377  -20.8100 N   0  0  0  0  0  0  0  0  0  0  0  0
   21.3045  -18.7541  -15.2067 C   0  0  0  0  0  0  0  0  0  0  0  0
   20.3696  -19.5655  -14.9458 O   0  0  0  0  0  0  0  0  0  0  0  0
   20.9416  -17.4502  -15.5044 O   0  0  0  0  0  0  0  0  0  0  0  0
  2  1  1  6
  2  3  1  0
  4  3  1  0
  4  9  2  0
  5  4  1  0
  6  5  2  0
  6  7  1  0
  7  8  2  0
  8  9  1  0
 10  2  1  0
 11 10  2  0
 12 13  1  0
 14 13  1  1
 14 15  1  0
 15 10  1  0
 16 14  1  0
 16 18  1  0
 17 16  2  0
 19 18  1  0
 19 25  1  0
 19 20  1  6
 21 20  1  0
 22 21  1  0
 23 22  1  0
 24 23  1  0
 25 27  1  0
 26 25  2  0
M  END
$$$$
