FSK.pdb
     RDKit          3D

 27 27  0  0  1  0  0  0  0  0999 V2000
   23.9549  -26.6540  -17.3584 N   0  0  0  0  0  0  0  0  0  0  0  0
   24.0347  -27.1626  -16.0243 C   0  0  1  0  0  0  0  0  0  0  0  0
   25.0068  -26.3744  -15.1975 C   0  0  0  0  0  0  0  0  0  0  0  0
   26.3520  -26.5088  -15.8078 C   0  0  0  0  0  0  0  0  0  0  0  0
   26.9308  -25.4511  -16.4694 C   0  0  0  0  0  0  0  0  0  0  0  0
   28.1903  -25.5853  -17.0380 C   0  0  0  0  0  0  0  0  0  0  0  0
   28.8855  -26.7712  -16.9543 C   0  0  0  0  0  0  0  0  0  0  0  0
   28.3140  -27.8326  -16.2950 C   0  0  0  0  0  0  0  0  0  0  0  0
   27.0623  -27.6862  -15.7345 C   0  0  0  0  0  0  0  0  0  0  0  0
   22.7089  -27.3022  -15.3655 C   0  0  0  0  0  0  0  0  0  0  0  0
   21.8499  -26.4315  -15.5821 O   0  0  0  0  0  0  0  0  0  0  0  0
   21.9265  -29.9248  -12.0564 O   0  0  0  0  0  0  0  0  0  0  0  0
   20.9942  -29.8153  -13.0742 C   0  0  0  0  0  0  0  0  0  0  0  0
   21.1215  -28.5222  -13.8333 C   0  0  2  0  0  0  0  0  0  0  0  0
   22.3707  -28.3740  -14.5039 N   0  0  0  0  0  0  0  0  0  0  0  0
   20.8895  -27.3390  -12.9703 C   0  0  0  0  0  0  0  0  0  0  0  0
   21.7386  -26.4244  -12.9209 O   0  0  0  0  0  0  0  0  0  0  0  0
   19.7288  -27.1796  -12.1759 N   0  0  0  0  0  0  0  0  0  0  0  0
   19.5557  -26.0028  -11.2989 C   0  0  1  0  0  0  0  0  0  0  0  0
   19.5927  -24.7451  -12.0936 C   0  0  0  0  0  0  0  0  0  0  0  0
   18.3990  -24.6093  -12.9610 C   0  0  0  0  0  0  0  0  0  0  0  0
   18.3894  -23.3419  -13.7817 C   0  0  0  0  0  0  0  0  0  0  0  0
   17.0632  -23.2412  -14.5153 C   0  0  0  0  0  0  0  0  0  0  0  0
   16.9475  -21.9805  -15.2217 N   0  0  0  0  0  0  0  0  0  0  0  0
   18.3540  -26.1957  -10.4929 C   0  0  0  0  0  0  0  0  0  0  0  0
   18.0121  -25.3371   -9.6289 O   0  0  0  0  0  0  0  0  0  0  0  0
   17.5395  -27.3083  -10.6314 O   0  0  0  0  0  0  0  0  0  0  0  0
  2  1  1  6
  2  3  1  0
  4  3  1  0
  4  9  2  0
  5  4  1  0
  6  5  2  0
  6  7  1  0
  7  8  2  0
  8  9  1  0
 10  2  1  0
 11 10  2  0
 12 13  1  0
 14 13  1  1
 14 15  1  0
 15 10  1  0
 16 14  1  0
 16 18  1  0
 17 16  2  0
 19 18  1  0
 19 25  1  0
 19 20  1  6
 21 20  1  0
 22 21  1  0
 23 22  1  0
 24 23  1  0
 25 27  1  0
 26 25  2  0
M  END
$$$$
