FSK.pdb
     RDKit          3D

 27 27  0  0  1  0  0  0  0  0999 V2000
   15.8787  -20.3570    0.9920 N   0  0  0  0  0  0  0  0  0  0  0  0
   15.2090  -20.4182    2.2540 C   0  0  1  0  0  0  0  0  0  0  0  0
   14.8311  -21.8271    2.6031 C   0  0  0  0  0  0  0  0  0  0  0  0
   13.9403  -22.3471    1.5370 C   0  0  0  0  0  0  0  0  0  0  0  0
   12.6882  -21.8111    1.3460 C   0  0  0  0  0  0  0  0  0  0  0  0
   11.8606  -22.3038    0.3459 C   0  0  0  0  0  0  0  0  0  0  0  0
   12.2697  -23.3329   -0.4728 C   0  0  0  0  0  0  0  0  0  0  0  0
   13.5192  -23.8736   -0.2882 C   0  0  0  0  0  0  0  0  0  0  0  0
   14.3316  -23.3752    0.7087 C   0  0  0  0  0  0  0  0  0  0  0  0
   15.9510  -19.7396    3.3495 C   0  0  0  0  0  0  0  0  0  0  0  0
   17.1760  -19.9272    3.4343 O   0  0  0  0  0  0  0  0  0  0  0  0
   16.2301  -16.3732    6.8196 O   0  0  0  0  0  0  0  0  0  0  0  0
   15.5324  -16.9266    5.7594 C   0  0  0  0  0  0  0  0  0  0  0  0
   15.9937  -18.3214    5.4335 C   0  0  2  0  0  0  0  0  0  0  0  0
   15.3380  -18.8903    4.3027 N   0  0  0  0  0  0  0  0  0  0  0  0
   15.8585  -19.2420    6.5879 C   0  0  0  0  0  0  0  0  0  0  0  0
   14.9404  -20.0884    6.6091 O   0  0  0  0  0  0  0  0  0  0  0  0
   16.7341  -19.2179    7.7000 N   0  0  0  0  0  0  0  0  0  0  0  0
   16.5439  -20.1324    8.8452 C   0  0  1  0  0  0  0  0  0  0  0  0
   16.5151  -21.5483    8.3882 C   0  0  0  0  0  0  0  0  0  0  0  0
   16.2949  -22.4841    9.5157 C   0  0  0  0  0  0  0  0  0  0  0  0
   16.2935  -23.9368    9.1039 C   0  0  0  0  0  0  0  0  0  0  0  0
   16.0416  -24.7956   10.3311 C   0  0  0  0  0  0  0  0  0  0  0  0
   16.2194  -26.2032   10.0334 N   0  0  0  0  0  0  0  0  0  0  0  0
   17.5490  -19.8247    9.8583 C   0  0  0  0  0  0  0  0  0  0  0  0
   18.6461  -19.2840    9.5350 O   0  0  0  0  0  0  0  0  0  0  0  0
   17.3559  -20.1024   11.2022 O   0  0  0  0  0  0  0  0  0  0  0  0
  2  1  1  6
  2  3  1  0
  4  3  1  0
  4  9  2  0
  5  4  1  0
  6  5  2  0
  6  7  1  0
  7  8  2  0
  8  9  1  0
 10  2  1  0
 11 10  2  0
 12 13  1  0
 14 13  1  1
 14 15  1  0
 15 10  1  0
 16 14  1  0
 16 18  1  0
 17 16  2  0
 19 18  1  0
 19 25  1  0
 19 20  1  6
 21 20  1  0
 22 21  1  0
 23 22  1  0
 24 23  1  0
 25 27  1  0
 26 25  2  0
M  END
$$$$
