FSK.pdb
     RDKit          3D

 27 27  0  0  1  0  0  0  0  0999 V2000
   22.7810  -19.3187  -12.6768 N   0  0  0  0  0  0  0  0  0  0  0  0
   24.0757  -19.9105  -12.5407 C   0  0  1  0  0  0  0  0  0  0  0  0
   23.9765  -21.3577  -12.1594 C   0  0  0  0  0  0  0  0  0  0  0  0
   23.5259  -21.4367  -10.7484 C   0  0  0  0  0  0  0  0  0  0  0  0
   24.3689  -21.0797   -9.7220 C   0  0  0  0  0  0  0  0  0  0  0  0
   23.9394  -21.1567   -8.4039 C   0  0  0  0  0  0  0  0  0  0  0  0
   22.6691  -21.5891   -8.0942 C   0  0  0  0  0  0  0  0  0  0  0  0
   21.8209  -21.9476   -9.1140 C   0  0  0  0  0  0  0  0  0  0  0  0
   22.2599  -21.8665  -10.4190 C   0  0  0  0  0  0  0  0  0  0  0  0
   24.9519  -19.6916  -13.7221 C   0  0  0  0  0  0  0  0  0  0  0  0
   24.4370  -19.2489  -14.7622 O   0  0  0  0  0  0  0  0  0  0  0  0
   29.0748  -20.9768  -14.1273 O   0  0  0  0  0  0  0  0  0  0  0  0
   28.7000  -19.6599  -14.3336 C   0  0  0  0  0  0  0  0  0  0  0  0
   27.2553  -19.5297  -14.7341 C   0  0  2  0  0  0  0  0  0  0  0  0
   26.3424  -19.9601  -13.7273 N   0  0  0  0  0  0  0  0  0  0  0  0
   26.9563  -20.2436  -15.9988 C   0  0  0  0  0  0  0  0  0  0  0  0
   26.6035  -21.4414  -15.9729 O   0  0  0  0  0  0  0  0  0  0  0  0
   27.0495  -19.6302  -17.2712 N   0  0  0  0  0  0  0  0  0  0  0  0
   26.6994  -20.3657  -18.5042 C   0  0  1  0  0  0  0  0  0  0  0  0
   25.7332  -19.5861  -19.3249 C   0  0  0  0  0  0  0  0  0  0  0  0
   24.5318  -19.2072  -18.5449 C   0  0  0  0  0  0  0  0  0  0  0  0
   23.5735  -18.3207  -19.3036 C   0  0  0  0  0  0  0  0  0  0  0  0
   22.4484  -17.9027  -18.3727 C   0  0  0  0  0  0  0  0  0  0  0  0
   21.5413  -16.9794  -19.0257 N   0  0  0  0  0  0  0  0  0  0  0  0
   27.9332  -20.7446  -19.1864 C   0  0  0  0  0  0  0  0  0  0  0  0
   28.9966  -20.0821  -19.0112 O   0  0  0  0  0  0  0  0  0  0  0  0
   28.0023  -21.8310  -20.0440 O   0  0  0  0  0  0  0  0  0  0  0  0
  2  1  1  6
  2  3  1  0
  4  3  1  0
  4  9  2  0
  5  4  1  0
  6  5  2  0
  6  7  1  0
  7  8  2  0
  8  9  1  0
 10  2  1  0
 11 10  2  0
 12 13  1  0
 14 13  1  1
 14 15  1  0
 15 10  1  0
 16 14  1  0
 16 18  1  0
 17 16  2  0
 19 18  1  0
 19 25  1  0
 19 20  1  6
 21 20  1  0
 22 21  1  0
 23 22  1  0
 24 23  1  0
 25 27  1  0
 26 25  2  0
M  END
$$$$
