FSK.pdb
     RDKit          3D

 27 27  0  0  1  0  0  0  0  0999 V2000
   25.1667  -20.4502  -15.6213 N   0  0  0  0  0  0  0  0  0  0  0  0
   24.0078  -19.6912  -15.2666 C   0  0  1  0  0  0  0  0  0  0  0  0
   23.3455  -19.1082  -16.4796 C   0  0  0  0  0  0  0  0  0  0  0  0
   24.3172  -18.2141  -17.1552 C   0  0  0  0  0  0  0  0  0  0  0  0
   24.9511  -18.6116  -18.3092 C   0  0  0  0  0  0  0  0  0  0  0  0
   25.8595  -17.7687  -18.9353 C   0  0  0  0  0  0  0  0  0  0  0  0
   26.1460  -16.5238  -18.4204 C   0  0  0  0  0  0  0  0  0  0  0  0
   25.5168  -16.1194  -17.2679 C   0  0  0  0  0  0  0  0  0  0  0  0
   24.6165  -16.9663  -16.6557 C   0  0  0  0  0  0  0  0  0  0  0  0
   23.0560  -20.4368  -14.4010 C   0  0  0  0  0  0  0  0  0  0  0  0
   22.9410  -21.6617  -14.5724 O   0  0  0  0  0  0  0  0  0  0  0  0
   20.1154  -18.5125  -11.8878 O   0  0  0  0  0  0  0  0  0  0  0  0
   20.7542  -19.6682  -11.4713 C   0  0  0  0  0  0  0  0  0  0  0  0
   21.2686  -20.4877  -12.6239 C   0  0  2  0  0  0  0  0  0  0  0  0
   22.2725  -19.8274  -13.3909 N   0  0  0  0  0  0  0  0  0  0  0  0
   20.1801  -20.9321  -13.5273 C   0  0  0  0  0  0  0  0  0  0  0  0
   20.0106  -20.3670  -14.6281 O   0  0  0  0  0  0  0  0  0  0  0  0
   19.2957  -21.9899  -13.2069 N   0  0  0  0  0  0  0  0  0  0  0  0
   18.1176  -22.2857  -14.0486 C   0  0  1  0  0  0  0  0  0  0  0  0
   18.1644  -23.6882  -14.5441 C   0  0  0  0  0  0  0  0  0  0  0  0
   17.0354  -23.9854  -15.4565 C   0  0  0  0  0  0  0  0  0  0  0  0
   16.9592  -25.4352  -15.8714 C   0  0  0  0  0  0  0  0  0  0  0  0
   15.8502  -25.5956  -16.8969 C   0  0  0  0  0  0  0  0  0  0  0  0
   15.5518  -26.9942  -17.1342 N   0  0  0  0  0  0  0  0  0  0  0  0
   16.9131  -21.9269  -13.3060 C   0  0  0  0  0  0  0  0  0  0  0  0
   15.7745  -21.9911  -13.8537 O   0  0  0  0  0  0  0  0  0  0  0  0
   16.9539  -21.5068  -11.9860 O   0  0  0  0  0  0  0  0  0  0  0  0
  2  1  1  6
  2  3  1  0
  4  3  1  0
  4  9  2  0
  5  4  1  0
  6  5  2  0
  6  7  1  0
  7  8  2  0
  8  9  1  0
 10  2  1  0
 11 10  2  0
 12 13  1  0
 14 13  1  1
 14 15  1  0
 15 10  1  0
 16 14  1  0
 16 18  1  0
 17 16  2  0
 19 18  1  0
 19 25  1  0
 19 20  1  1
 21 20  1  0
 22 21  1  0
 23 22  1  0
 24 23  1  0
 25 27  1  0
 26 25  2  0
M  END
$$$$
