YAC.pdb
     RDKit          3D

 24 24  0  0  1  0  0  0  0  0999 V2000
   21.4427  -17.5485  -14.9371 O   0  0  0  0  0  0  0  0  0  0  0  0
   21.5503  -16.1613  -14.8646 C   0  0  0  0  0  0  0  0  0  0  0  0
   22.5686  -15.5378  -14.1625 C   0  0  0  0  0  0  0  0  0  0  0  0
   22.6166  -14.1606  -14.1312 C   0  0  0  0  0  0  0  0  0  0  0  0
   21.6991  -13.3565  -14.7656 C   0  0  0  0  0  0  0  0  0  0  0  0
   21.7708  -11.8642  -14.7183 C   0  0  0  0  0  0  0  0  0  0  0  0
   22.3531  -11.3923  -16.0237 C   0  0  2  0  0  0  0  0  0  0  0  0
   23.7502  -11.7643  -16.1387 N   0  0  0  0  0  0  0  0  0  0  0  0
   22.1876   -9.9566  -16.2578 C   0  0  0  0  0  0  0  0  0  0  0  0
   22.9373   -9.1318  -15.6548 O   0  0  0  0  0  0  0  0  0  0  0  0
   20.6891  -13.9833  -15.4620 C   0  0  0  0  0  0  0  0  0  0  0  0
   20.6249  -15.3609  -15.5045 C   0  0  0  0  0  0  0  0  0  0  0  0
   20.2516   -7.6639  -18.6016 C   0  0  0  0  0  0  0  0  0  0  0  0
   21.0624   -7.9910  -17.3700 C   0  0  2  0  0  0  0  0  0  0  0  0
   21.2122   -9.3924  -17.1446 N   0  0  0  0  0  0  0  0  0  0  0  0
   20.5257   -7.2771  -16.1663 C   0  0  0  0  0  0  0  0  0  0  0  0
   19.4771   -7.6745  -15.5951 O   0  0  0  0  0  0  0  0  0  0  0  0
   21.1691   -6.1353  -15.6246 N   0  0  0  0  0  0  0  0  0  0  0  0
   20.7219   -5.4501  -14.4405 C   0  0  1  0  0  0  0  0  0  0  0  0
   21.8321   -5.2556  -13.4326 C   0  0  0  0  0  0  0  0  0  0  0  0
   22.2181   -6.9067  -12.7561 S   0  0  0  0  0  0  0  0  0  0  0  0
   20.1716   -4.1222  -14.8043 C   0  0  0  0  0  0  0  0  0  0  0  0
   19.0482   -3.5976  -14.1818 O   0  0  0  0  0  0  0  0  0  0  0  0
   20.7376   -3.4512  -15.7017 O   0  0  0  0  0  0  0  0  0  0  0  0
  1  2  1  0
  2 12  2  0
  3  4  2  0
  3  2  1  0
  4  5  1  0
  5  6  1  0
  5 11  2  0
  6  7  1  0
  7  9  1  0
  7  8  1  1
  9 10  2  0
  9 15  1  0
 12 11  1  0
 14 16  1  0
 14 13  1  6
 15 14  1  0
 16 17  2  0
 18 16  1  0
 18 19  1  0
 19 20  1  1
 20 21  1  0
 22 23  1  0
 22 19  1  0
 24 22  2  0
M  END
$$$$
