YAC.pdb
     RDKit          3D

 24 24  0  0  1  0  0  0  0  0999 V2000
   18.4379  -18.0667  -18.0345 O   0  0  0  0  0  0  0  0  0  0  0  0
   18.9876  -16.8099  -17.7905 C   0  0  0  0  0  0  0  0  0  0  0  0
   20.3559  -16.6062  -17.7199 C   0  0  0  0  0  0  0  0  0  0  0  0
   20.8336  -15.3366  -17.4753 C   0  0  0  0  0  0  0  0  0  0  0  0
   20.0196  -14.2432  -17.2944 C   0  0  0  0  0  0  0  0  0  0  0  0
   20.5598  -12.8748  -17.0303 C   0  0  0  0  0  0  0  0  0  0  0  0
   20.6014  -12.1380  -18.3422 C   0  0  2  0  0  0  0  0  0  0  0  0
   21.6195  -12.6854  -19.2181 N   0  0  0  0  0  0  0  0  0  0  0  0
   20.7762  -10.6913  -18.2001 C   0  0  0  0  0  0  0  0  0  0  0  0
   21.9393  -10.2115  -18.0492 O   0  0  0  0  0  0  0  0  0  0  0  0
   18.6599  -14.4531  -17.3659 C   0  0  0  0  0  0  0  0  0  0  0  0
   18.1633  -15.7171  -17.6100 C   0  0  0  0  0  0  0  0  0  0  0  0
   18.6981   -7.5145  -18.4599 C   0  0  0  0  0  0  0  0  0  0  0  0
   19.8705   -8.3453  -17.9945 C   0  0  2  0  0  0  0  0  0  0  0  0
   19.6996   -9.7444  -18.2190 N   0  0  0  0  0  0  0  0  0  0  0  0
   20.2167   -8.0378  -16.5689 C   0  0  0  0  0  0  0  0  0  0  0  0
   19.7094   -8.6980  -15.6253 O   0  0  0  0  0  0  0  0  0  0  0  0
   21.1210   -7.0009  -16.2252 N   0  0  0  0  0  0  0  0  0  0  0  0
   21.4368   -6.6295  -14.8710 C   0  0  1  0  0  0  0  0  0  0  0  0
   22.7056   -5.8124  -14.7778 C   0  0  0  0  0  0  0  0  0  0  0  0
   23.0560   -5.5934  -12.9997 S   0  0  0  0  0  0  0  0  0  0  0  0
   20.3212   -5.8437  -14.2908 C   0  0  0  0  0  0  0  0  0  0  0  0
   19.7723   -6.1510  -13.0543 O   0  0  0  0  0  0  0  0  0  0  0  0
   19.8585   -4.8713  -14.9360 O   0  0  0  0  0  0  0  0  0  0  0  0
  1  2  1  0
  2 12  2  0
  3  4  2  0
  3  2  1  0
  4  5  1  0
  5  6  1  0
  5 11  2  0
  6  7  1  0
  7  9  1  0
  7  8  1  6
  9 10  2  0
  9 15  1  0
 12 11  1  0
 14 16  1  0
 14 13  1  1
 15 14  1  0
 16 17  2  0
 18 16  1  0
 18 19  1  0
 19 20  1  6
 20 21  1  0
 22 23  1  0
 22 19  1  0
 24 22  2  0
M  END
$$$$
