YAC.pdb
     RDKit          3D

 24 24  0  0  1  0  0  0  0  0999 V2000
   18.5191  -17.6130  -17.6307 O   0  0  0  0  0  0  0  0  0  0  0  0
   19.5906  -18.3229  -17.0929 C   0  0  0  0  0  0  0  0  0  0  0  0
   20.7546  -17.6966  -16.6789 C   0  0  0  0  0  0  0  0  0  0  0  0
   21.7770  -18.4587  -16.1554 C   0  0  0  0  0  0  0  0  0  0  0  0
   21.7086  -19.8252  -16.0177 C   0  0  0  0  0  0  0  0  0  0  0  0
   22.8300  -20.6318  -15.4469 C   0  0  0  0  0  0  0  0  0  0  0  0
   24.0300  -20.4405  -16.3352 C   0  0  2  0  0  0  0  0  0  0  0  0
   23.8614  -21.1317  -17.5990 N   0  0  0  0  0  0  0  0  0  0  0  0
   25.2950  -20.8278  -15.7080 C   0  0  0  0  0  0  0  0  0  0  0  0
   25.6660  -22.0391  -15.7390 O   0  0  0  0  0  0  0  0  0  0  0  0
   20.5480  -20.4414  -16.4315 C   0  0  0  0  0  0  0  0  0  0  0  0
   19.5140  -19.6948  -16.9580 C   0  0  0  0  0  0  0  0  0  0  0  0
   28.2129  -19.1812  -13.8802 C   0  0  0  0  0  0  0  0  0  0  0  0
   27.3015  -20.3230  -14.2638 C   0  0  2  0  0  0  0  0  0  0  0  0
   26.1754  -19.9144  -15.0398 N   0  0  0  0  0  0  0  0  0  0  0  0
   26.9012  -21.1208  -13.0597 C   0  0  0  0  0  0  0  0  0  0  0  0
   26.3578  -22.2490  -13.1852 O   0  0  0  0  0  0  0  0  0  0  0  0
   27.1149  -20.6445  -11.7413 N   0  0  0  0  0  0  0  0  0  0  0  0
   26.2957  -21.0086  -10.6153 C   0  0  1  0  0  0  0  0  0  0  0  0
   26.7233  -20.3138   -9.3422 C   0  0  0  0  0  0  0  0  0  0  0  0
   25.5418  -20.8236   -8.0473 S   0  0  0  0  0  0  0  0  0  0  0  0
   24.8795  -20.6669  -10.8910 C   0  0  0  0  0  0  0  0  0  0  0  0
   23.8419  -21.5356  -10.5850 O   0  0  0  0  0  0  0  0  0  0  0  0
   24.6093  -19.5595  -11.4168 O   0  0  0  0  0  0  0  0  0  0  0  0
  1  2  1  0
  2 12  2  0
  3  4  2  0
  3  2  1  0
  4  5  1  0
  5  6  1  0
  5 11  2  0
  6  7  1  0
  7  9  1  0
  7  8  1  6
  9 10  2  0
  9 15  1  0
 12 11  1  0
 14 16  1  0
 14 13  1  1
 15 14  1  0
 16 17  2  0
 18 16  1  0
 18 19  1  0
 19 20  1  1
 20 21  1  0
 22 23  1  0
 22 19  1  0
 24 22  2  0
M  END
$$$$
