YAC.pdb
     RDKit          3D

 24 24  0  0  1  0  0  0  0  0999 V2000
   25.5040  -21.1078   -7.4973 O   0  0  0  0  0  0  0  0  0  0  0  0
   25.2604  -20.8232   -8.8392 C   0  0  0  0  0  0  0  0  0  0  0  0
   23.9814  -20.8225   -9.3710 C   0  0  0  0  0  0  0  0  0  0  0  0
   23.8105  -20.5323  -10.7076 C   0  0  0  0  0  0  0  0  0  0  0  0
   24.8508  -20.2389  -11.5576 C   0  0  0  0  0  0  0  0  0  0  0  0
   24.6421  -19.9269  -13.0044 C   0  0  0  0  0  0  0  0  0  0  0  0
   24.1274  -21.1739  -13.6721 C   0  0  2  0  0  0  0  0  0  0  0  0
   25.1930  -22.1362  -13.8765 N   0  0  0  0  0  0  0  0  0  0  0  0
   23.4221  -20.9205  -14.9298 C   0  0  0  0  0  0  0  0  0  0  0  0
   24.0832  -20.7634  -15.9995 O   0  0  0  0  0  0  0  0  0  0  0  0
   26.1201  -20.2415  -11.0220 C   0  0  0  0  0  0  0  0  0  0  0  0
   26.3105  -20.5297   -9.6862 C   0  0  0  0  0  0  0  0  0  0  0  0
   20.2237  -21.6417  -16.5463 C   0  0  0  0  0  0  0  0  0  0  0  0
   21.3156  -20.6305  -16.2882 C   0  0  2  0  0  0  0  0  0  0  0  0
   21.9959  -20.8333  -15.0499 N   0  0  0  0  0  0  0  0  0  0  0  0
   20.7979  -19.2309  -16.4283 C   0  0  0  0  0  0  0  0  0  0  0  0
   20.2033  -18.6647  -15.4745 O   0  0  0  0  0  0  0  0  0  0  0  0
   20.9538  -18.4918  -17.6285 N   0  0  0  0  0  0  0  0  0  0  0  0
   20.4837  -17.1430  -17.8056 C   0  0  1  0  0  0  0  0  0  0  0  0
   21.5822  -16.2025  -18.2468 C   0  0  0  0  0  0  0  0  0  0  0  0
   23.0135  -16.5255  -17.1606 S   0  0  0  0  0  0  0  0  0  0  0  0
   19.3996  -17.1159  -18.8168 C   0  0  0  0  0  0  0  0  0  0  0  0
   19.0748  -18.2316  -19.5747 O   0  0  0  0  0  0  0  0  0  0  0  0
   18.7555  -16.0530  -18.9938 O   0  0  0  0  0  0  0  0  0  0  0  0
  1  2  1  0
  2 12  2  0
  3  4  2  0
  3  2  1  0
  4  5  1  0
  5  6  1  0
  5 11  2  0
  6  7  1  0
  7  9  1  0
  7  8  1  6
  9 10  2  0
  9 15  1  0
 12 11  1  0
 14 16  1  0
 14 13  1  1
 15 14  1  0
 16 17  2  0
 18 16  1  0
 18 19  1  0
 19 20  1  6
 20 21  1  0
 22 23  1  0
 22 19  1  0
 24 22  2  0
M  END
$$$$
