YAC.pdb
     RDKit          3D

 24 24  0  0  1  0  0  0  0  0999 V2000
   24.0687  -21.6913   -7.1733 O   0  0  0  0  0  0  0  0  0  0  0  0
   24.2897  -21.2607   -8.4797 C   0  0  0  0  0  0  0  0  0  0  0  0
   23.3078  -21.3315   -9.4541 C   0  0  0  0  0  0  0  0  0  0  0  0
   23.5928  -20.8879  -10.7276 C   0  0  0  0  0  0  0  0  0  0  0  0
   24.8134  -20.3712  -11.0938 C   0  0  0  0  0  0  0  0  0  0  0  0
   25.1003  -19.8957  -12.4815 C   0  0  0  0  0  0  0  0  0  0  0  0
   25.1505  -21.1037  -13.3782 C   0  0  2  0  0  0  0  0  0  0  0  0
   26.4728  -21.6994  -13.3806 N   0  0  0  0  0  0  0  0  0  0  0  0
   24.7090  -20.8388  -14.7488 C   0  0  0  0  0  0  0  0  0  0  0  0
   25.4733  -20.2162  -15.5451 O   0  0  0  0  0  0  0  0  0  0  0  0
   25.7853  -20.3037  -10.1198 C   0  0  0  0  0  0  0  0  0  0  0  0
   25.5182  -20.7431   -8.8394 C   0  0  0  0  0  0  0  0  0  0  0  0
   22.5362  -22.2885  -17.3082 C   0  0  0  0  0  0  0  0  0  0  0  0
   23.0430  -21.0357  -16.6335 C   0  0  2  0  0  0  0  0  0  0  0  0
   23.4385  -21.2415  -15.2776 N   0  0  0  0  0  0  0  0  0  0  0  0
   22.0599  -19.9130  -16.7733 C   0  0  0  0  0  0  0  0  0  0  0  0
   21.1341  -19.7584  -15.9350 O   0  0  0  0  0  0  0  0  0  0  0  0
   22.1293  -18.9864  -17.8445 N   0  0  0  0  0  0  0  0  0  0  0  0
   21.2387  -17.8656  -17.9933 C   0  0  1  0  0  0  0  0  0  0  0  0
   21.7465  -16.8544  -18.9962 C   0  0  0  0  0  0  0  0  0  0  0  0
   23.2101  -16.0635  -18.2446 S   0  0  0  0  0  0  0  0  0  0  0  0
   19.9025  -18.3381  -18.4291 C   0  0  0  0  0  0  0  0  0  0  0  0
   18.7373  -17.6744  -18.0732 O   0  0  0  0  0  0  0  0  0  0  0  0
   19.8212  -19.3687  -19.1411 O   0  0  0  0  0  0  0  0  0  0  0  0
  1  2  1  0
  2 12  2  0
  3  4  2  0
  3  2  1  0
  4  5  1  0
  5  6  1  0
  5 11  2  0
  6  7  1  0
  7  9  1  0
  7  8  1  6
  9 10  2  0
  9 15  1  0
 12 11  1  0
 14 16  1  0
 14 13  1  1
 15 14  1  0
 16 17  2  0
 18 16  1  0
 18 19  1  0
 19 20  1  6
 20 21  1  0
 22 23  1  0
 22 19  1  0
 24 22  2  0
M  END
$$$$
