YAC.pdb
     RDKit          3D

 24 24  0  0  1  0  0  0  0  0999 V2000
   19.6152  -17.3581  -17.9784 O   0  0  0  0  0  0  0  0  0  0  0  0
   19.6951  -15.9753  -17.8281 C   0  0  0  0  0  0  0  0  0  0  0  0
   19.5884  -15.1106  -18.9049 C   0  0  0  0  0  0  0  0  0  0  0  0
   19.6765  -13.7525  -18.6862 C   0  0  0  0  0  0  0  0  0  0  0  0
   19.8669  -13.1967  -17.4430 C   0  0  0  0  0  0  0  0  0  0  0  0
   19.9592  -11.7202  -17.2291 C   0  0  0  0  0  0  0  0  0  0  0  0
   18.6437  -11.2565  -16.6633 C   0  0  2  0  0  0  0  0  0  0  0  0
   17.5658  -11.4567  -17.6127 N   0  0  0  0  0  0  0  0  0  0  0  0
   18.6596   -9.8689  -16.1963 C   0  0  0  0  0  0  0  0  0  0  0  0
   18.7919   -8.9265  -17.0332 O   0  0  0  0  0  0  0  0  0  0  0  0
   19.9722  -14.0625  -16.3766 C   0  0  0  0  0  0  0  0  0  0  0  0
   19.8865  -15.4251  -16.5763 C   0  0  0  0  0  0  0  0  0  0  0  0
   18.0221   -7.9331  -12.9839 C   0  0  0  0  0  0  0  0  0  0  0  0
   18.5825   -8.1263  -14.3732 C   0  0  2  0  0  0  0  0  0  0  0  0
   18.5331   -9.4804  -14.8219 N   0  0  0  0  0  0  0  0  0  0  0  0
   19.9578   -7.5413  -14.4857 C   0  0  0  0  0  0  0  0  0  0  0  0
   20.9715   -8.2080  -14.1514 O   0  0  0  0  0  0  0  0  0  0  0  0
   20.1744   -6.2257  -14.9684 N   0  0  0  0  0  0  0  0  0  0  0  0
   21.4769   -5.6321  -15.1199 C   0  0  1  0  0  0  0  0  0  0  0  0
   21.5490   -4.6936  -16.3032 C   0  0  0  0  0  0  0  0  0  0  0  0
   20.9983   -5.6467  -17.7596 S   0  0  0  0  0  0  0  0  0  0  0  0
   21.8333   -4.8792  -13.8932 C   0  0  0  0  0  0  0  0  0  0  0  0
   23.1428   -4.5229  -13.6053 O   0  0  0  0  0  0  0  0  0  0  0  0
   20.9248   -4.5538  -13.0904 O   0  0  0  0  0  0  0  0  0  0  0  0
  1  2  1  0
  2 12  2  0
  3  4  2  0
  3  2  1  0
  4  5  1  0
  5  6  1  0
  5 11  2  0
  6  7  1  0
  7  9  1  0
  7  8  1  6
  9 10  2  0
  9 15  1  0
 12 11  1  0
 14 16  1  0
 14 13  1  1
 15 14  1  0
 16 17  2  0
 18 16  1  0
 18 19  1  0
 19 20  1  6
 20 21  1  0
 22 23  1  0
 22 19  1  0
 24 22  2  0
M  END
$$$$
