YAC.pdb
     RDKit          3D

 24 24  0  0  1  0  0  0  0  0999 V2000
   15.8936  -16.5755  -15.0946 O   0  0  0  0  0  0  0  0  0  0  0  0
   16.5942  -15.3712  -15.0934 C   0  0  0  0  0  0  0  0  0  0  0  0
   17.9689  -15.3193  -15.2547 C   0  0  0  0  0  0  0  0  0  0  0  0
   18.6001  -14.0940  -15.2438 C   0  0  0  0  0  0  0  0  0  0  0  0
   17.9354  -12.9014  -15.0796 C   0  0  0  0  0  0  0  0  0  0  0  0
   18.6407  -11.5836  -15.0712 C   0  0  0  0  0  0  0  0  0  0  0  0
   18.2240  -10.8334  -16.3078 C   0  0  2  0  0  0  0  0  0  0  0  0
   18.6321  -11.5363  -17.5090 N   0  0  0  0  0  0  0  0  0  0  0  0
   18.6959   -9.4479  -16.3435 C   0  0  0  0  0  0  0  0  0  0  0  0
   19.8768   -9.1968  -16.7285 O   0  0  0  0  0  0  0  0  0  0  0  0
   16.5684  -12.9605  -14.9197 C   0  0  0  0  0  0  0  0  0  0  0  0
   15.9193  -14.1780  -14.9280 C   0  0  0  0  0  0  0  0  0  0  0  0
   17.2815   -5.9431  -15.8338 C   0  0  0  0  0  0  0  0  0  0  0  0
   18.3782   -6.9714  -15.9798 C   0  0  2  0  0  0  0  0  0  0  0  0
   17.9008   -8.3164  -15.9646 N   0  0  0  0  0  0  0  0  0  0  0  0
   19.4669   -6.7445  -14.9749 C   0  0  0  0  0  0  0  0  0  0  0  0
   19.3299   -7.1169  -13.7806 O   0  0  0  0  0  0  0  0  0  0  0  0
   20.6852   -6.1075  -15.3223 N   0  0  0  0  0  0  0  0  0  0  0  0
   21.8329   -6.0465  -14.4558 C   0  0  1  0  0  0  0  0  0  0  0  0
   23.1357   -6.1561  -15.2154 C   0  0  0  0  0  0  0  0  0  0  0  0
   23.1557   -7.8134  -15.9807 S   0  0  0  0  0  0  0  0  0  0  0  0
   21.8278   -4.7697  -13.7019 C   0  0  0  0  0  0  0  0  0  0  0  0
   22.4912   -4.6294  -12.4916 O   0  0  0  0  0  0  0  0  0  0  0  0
   21.2055   -3.7855  -14.1710 O   0  0  0  0  0  0  0  0  0  0  0  0
  1  2  1  0
  2 12  2  0
  3  4  2  0
  3  2  1  0
  4  5  1  0
  5  6  1  0
  5 11  2  0
  6  7  1  0
  7  9  1  0
  7  8  1  6
  9 10  2  0
  9 15  1  0
 12 11  1  0
 14 16  1  0
 14 13  1  1
 15 14  1  0
 16 17  2  0
 18 16  1  0
 18 19  1  0
 19 20  1  6
 20 21  1  0
 22 23  1  0
 22 19  1  0
 24 22  2  0
M  END
$$$$
