YAC.pdb
     RDKit          3D

 24 24  0  0  1  0  0  0  0  0999 V2000
   23.5715  -27.5073  -17.2115 O   0  0  0  0  0  0  0  0  0  0  0  0
   23.8037  -26.2844  -16.5856 C   0  0  0  0  0  0  0  0  0  0  0  0
   23.4789  -25.0781  -17.1839 C   0  0  0  0  0  0  0  0  0  0  0  0
   23.7354  -23.9038  -16.5091 C   0  0  0  0  0  0  0  0  0  0  0  0
   24.3035  -23.8584  -15.2577 C   0  0  0  0  0  0  0  0  0  0  0  0
   24.5726  -22.5728  -14.5442 C   0  0  0  0  0  0  0  0  0  0  0  0
   23.6188  -22.4853  -13.3830 C   0  0  2  0  0  0  0  0  0  0  0  0
   22.2510  -22.3298  -13.8395 N   0  0  0  0  0  0  0  0  0  0  0  0
   23.9569  -21.4349  -12.4208 C   0  0  0  0  0  0  0  0  0  0  0  0
   23.4845  -20.2689  -12.5727 O   0  0  0  0  0  0  0  0  0  0  0  0
   24.6239  -25.0618  -14.6686 C   0  0  0  0  0  0  0  0  0  0  0  0
   24.3745  -26.2474  -15.3289 C   0  0  0  0  0  0  0  0  0  0  0  0
   25.6848  -20.9515   -9.0909 C   0  0  0  0  0  0  0  0  0  0  0  0
   25.3559  -20.5597  -10.5121 C   0  0  2  0  0  0  0  0  0  0  0  0
   24.8081  -21.6285  -11.2833 N   0  0  0  0  0  0  0  0  0  0  0  0
   26.5359  -19.9235  -11.1824 C   0  0  0  0  0  0  0  0  0  0  0  0
   27.0549  -18.8759  -10.7164 O   0  0  0  0  0  0  0  0  0  0  0  0
   27.1126  -20.4681  -12.3578 N   0  0  0  0  0  0  0  0  0  0  0  0
   28.2913  -19.9384  -12.9915 C   0  0  1  0  0  0  0  0  0  0  0  0
   29.4620  -20.8929  -12.9219 C   0  0  0  0  0  0  0  0  0  0  0  0
   29.7596  -21.2257  -11.1518 S   0  0  0  0  0  0  0  0  0  0  0  0
   28.0063  -19.6383  -14.4153 C   0  0  0  0  0  0  0  0  0  0  0  0
   28.9710  -19.1111  -15.2616 O   0  0  0  0  0  0  0  0  0  0  0  0
   26.8589  -19.8673  -14.8703 O   0  0  0  0  0  0  0  0  0  0  0  0
  1  2  1  0
  2 12  2  0
  3  4  2  0
  3  2  1  0
  4  5  1  0
  5  6  1  0
  5 11  2  0
  6  7  1  0
  7  9  1  0
  7  8  1  6
  9 10  2  0
  9 15  1  0
 12 11  1  0
 14 16  1  0
 14 13  1  1
 15 14  1  0
 16 17  2  0
 18 16  1  0
 18 19  1  0
 19 20  1  6
 20 21  1  0
 22 23  1  0
 22 19  1  0
 24 22  2  0
M  END
$$$$
