YCI.pdb
     RDKit          3D

 27 27  0  0  1  0  0  0  0  0999 V2000
    8.0746  -12.1068   16.4671 O   0  0  0  0  0  0  0  0  0  0  0  0
    7.7258  -12.8472   17.5885 C   0  0  0  0  0  0  0  0  0  0  0  0
    6.7667  -13.8381   17.5410 C   0  0  0  0  0  0  0  0  0  0  0  0
    6.4483  -14.5527   18.6810 C   0  0  0  0  0  0  0  0  0  0  0  0
    7.0593  -14.3175   19.8984 C   0  0  0  0  0  0  0  0  0  0  0  0
    6.7214  -15.0816   21.1251 C   0  0  0  0  0  0  0  0  0  0  0  0
    7.5792  -16.3248   21.1645 C   0  0  2  0  0  0  0  0  0  0  0  0
    7.0267  -17.2622   20.2052 N   0  0  0  0  0  0  0  0  0  0  0  0
    7.6022  -16.9548   22.4932 C   0  0  0  0  0  0  0  0  0  0  0  0
    6.6112  -17.6237   22.9136 O   0  0  0  0  0  0  0  0  0  0  0  0
    8.0192  -13.3241   19.9410 C   0  0  0  0  0  0  0  0  0  0  0  0
    8.3474  -12.6011   18.8067 C   0  0  0  0  0  0  0  0  0  0  0  0
    8.7092  -16.8640   23.3849 N   0  0  0  0  0  0  0  0  0  0  0  0
    8.7221  -17.5044   24.6859 C   0  0  1  0  0  0  0  0  0  0  0  0
    8.8138  -18.9982   24.4436 C   0  0  0  0  0  0  0  0  0  0  0  0
   10.0943  -19.3809   23.2097 S   0  0  0  0  0  0  0  0  0  0  0  0
    9.9271  -17.1213   25.4712 C   0  0  0  0  0  0  0  0  0  0  0  0
   11.0095  -16.9896   24.8457 O   0  0  0  0  0  0  0  0  0  0  0  0
    9.4653  -13.6403   29.9361 C   0  0  0  0  0  0  0  0  0  0  0  0
    9.7350  -14.9777   29.3128 C   0  0  0  0  0  0  0  0  0  0  0  0
   10.7159  -15.0294   28.2124 C   0  0  2  0  0  0  0  0  0  0  0  0
   10.3583  -13.9782   27.1569 C   0  0  0  0  0  0  0  0  0  0  0  0
   11.0492  -16.3336   27.6037 C   0  0  2  0  0  0  0  0  0  0  0  0
    9.9167  -16.9023   26.8568 N   0  0  0  0  0  0  0  0  0  0  0  0
   11.4691  -17.3303   28.5965 C   0  0  0  0  0  0  0  0  0  0  0  0
   12.6970  -17.3139   29.2532 O   0  0  0  0  0  0  0  0  0  0  0  0
   10.7051  -18.2795   28.9044 O   0  0  0  0  0  0  0  0  0  0  0  0
  1  2  1  0
  2 12  2  0
  3  4  2  0
  3  2  1  0
  4  5  1  0
  5  6  1  0
  5 11  2  0
  6  7  1  0
  7  8  1  6
  7  9  1  0
  9 13  1  0
  9 10  2  0
 12 11  1  0
 13 14  1  0
 14 17  1  0
 14 15  1  6
 16 15  1  0
 17 18  2  0
 19 20  1  0
 20 21  1  0
 21 23  1  0
 21 22  1  6
 23 25  1  0
 24 17  1  0
 23 24  1  1
 25 26  1  0
 27 25  2  0
M  END
$$$$
