YCI.pdb
     RDKit          3D

 27 27  0  0  1  0  0  0  0  0999 V2000
    8.5461  -12.1757   16.9044 O   0  0  0  0  0  0  0  0  0  0  0  0
    8.2190  -13.0228   17.9546 C   0  0  0  0  0  0  0  0  0  0  0  0
    8.7528  -14.2904   18.0648 C   0  0  0  0  0  0  0  0  0  0  0  0
    8.4009  -15.1030   19.1266 C   0  0  0  0  0  0  0  0  0  0  0  0
    7.5173  -14.6978   20.1094 C   0  0  0  0  0  0  0  0  0  0  0  0
    7.1362  -15.5660   21.2512 C   0  0  0  0  0  0  0  0  0  0  0  0
    7.6279  -16.9669   20.9706 C   0  0  2  0  0  0  0  0  0  0  0  0
    6.5660  -17.6664   20.2727 N   0  0  0  0  0  0  0  0  0  0  0  0
    7.9642  -17.7052   22.1973 C   0  0  0  0  0  0  0  0  0  0  0  0
    7.1202  -18.4757   22.7452 O   0  0  0  0  0  0  0  0  0  0  0  0
    6.9853  -13.4275   19.9947 C   0  0  0  0  0  0  0  0  0  0  0  0
    7.3294  -12.6037   18.9364 C   0  0  0  0  0  0  0  0  0  0  0  0
    9.2291  -17.6135   22.8457 N   0  0  0  0  0  0  0  0  0  0  0  0
    9.5007  -18.2384   24.1258 C   0  0  1  0  0  0  0  0  0  0  0  0
   10.3558  -19.4596   23.8501 C   0  0  0  0  0  0  0  0  0  0  0  0
   11.4181  -19.1969   22.3972 S   0  0  0  0  0  0  0  0  0  0  0  0
   10.2979  -17.3460   25.0109 C   0  0  0  0  0  0  0  0  0  0  0  0
   11.2301  -16.6879   24.4836 O   0  0  0  0  0  0  0  0  0  0  0  0
    9.5436  -12.7434   28.5479 C   0  0  0  0  0  0  0  0  0  0  0  0
   10.4324  -13.9302   28.3211 C   0  0  0  0  0  0  0  0  0  0  0  0
    9.9256  -15.0009   27.4423 C   0  0  2  0  0  0  0  0  0  0  0  0
    8.4842  -15.3444   27.8314 C   0  0  0  0  0  0  0  0  0  0  0  0
   10.7458  -16.2118   27.2336 C   0  0  2  0  0  0  0  0  0  0  0  0
   10.0649  -17.2034   26.3869 N   0  0  0  0  0  0  0  0  0  0  0  0
   11.1034  -16.8766   28.4928 C   0  0  0  0  0  0  0  0  0  0  0  0
   12.1850  -16.5140   29.2914 O   0  0  0  0  0  0  0  0  0  0  0  0
   10.4194  -17.8421   28.9165 O   0  0  0  0  0  0  0  0  0  0  0  0
  1  2  1  0
  2 12  2  0
  3  4  2  0
  3  2  1  0
  4  5  1  0
  5  6  1  0
  5 11  2  0
  6  7  1  0
  7  8  1  1
  7  9  1  0
  9 13  1  0
  9 10  2  0
 12 11  1  0
 13 14  1  0
 14 17  1  0
 14 15  1  6
 16 15  1  0
 17 18  2  0
 19 20  1  0
 20 21  1  0
 21 23  1  0
 21 22  1  1
 23 25  1  0
 24 17  1  0
 23 24  1  6
 25 26  1  0
 27 25  2  0
M  END
$$$$
