YCI.pdb
     RDKit          3D

 27 27  0  0  1  0  0  0  0  0999 V2000
   11.7294  -18.9341   28.1219 O   0  0  0  0  0  0  0  0  0  0  0  0
   11.8802  -18.8925   26.7425 C   0  0  0  0  0  0  0  0  0  0  0  0
   12.3342  -19.9792   26.0236 C   0  0  0  0  0  0  0  0  0  0  0  0
   12.4704  -19.8967   24.6503 C   0  0  0  0  0  0  0  0  0  0  0  0
   12.1661  -18.7489   23.9426 C   0  0  0  0  0  0  0  0  0  0  0  0
   12.3104  -18.6548   22.4685 C   0  0  0  0  0  0  0  0  0  0  0  0
   10.9576  -18.8957   21.8402 C   0  0  2  0  0  0  0  0  0  0  0  0
   11.1531  -18.9618   20.4044 N   0  0  0  0  0  0  0  0  0  0  0  0
    9.9936  -17.8277   22.1451 C   0  0  0  0  0  0  0  0  0  0  0  0
   10.1621  -16.6527   21.7012 O   0  0  0  0  0  0  0  0  0  0  0  0
   11.7118  -17.6631   24.6669 C   0  0  0  0  0  0  0  0  0  0  0  0
   11.5709  -17.7326   26.0425 C   0  0  0  0  0  0  0  0  0  0  0  0
    8.8289  -18.0264   22.9405 N   0  0  0  0  0  0  0  0  0  0  0  0
    7.9274  -16.9468   23.2936 C   0  0  1  0  0  0  0  0  0  0  0  0
    6.5868  -17.5768   23.6169 C   0  0  0  0  0  0  0  0  0  0  0  0
    5.9080  -18.4436   22.1691 S   0  0  0  0  0  0  0  0  0  0  0  0
    8.3779  -16.2392   24.5230 C   0  0  0  0  0  0  0  0  0  0  0  0
    8.8340  -16.9400   25.4617 O   0  0  0  0  0  0  0  0  0  0  0  0
    5.6996  -11.6305   25.9659 C   0  0  0  0  0  0  0  0  0  0  0  0
    6.9106  -12.3688   25.4776 C   0  0  0  0  0  0  0  0  0  0  0  0
    7.5686  -13.2935   26.4196 C   0  0  2  0  0  0  0  0  0  0  0  0
    7.9503  -12.5387   27.6969 C   0  0  0  0  0  0  0  0  0  0  0  0
    8.6676  -14.1545   25.9364 C   0  0  2  0  0  0  0  0  0  0  0  0
    8.3204  -14.8470   24.6859 N   0  0  0  0  0  0  0  0  0  0  0  0
    9.0566  -15.1775   26.9149 C   0  0  0  0  0  0  0  0  0  0  0  0
    8.3737  -16.3752   27.1109 O   0  0  0  0  0  0  0  0  0  0  0  0
   10.0632  -15.0043   27.6472 O   0  0  0  0  0  0  0  0  0  0  0  0
  1  2  1  0
  2 12  2  0
  3  4  2  0
  3  2  1  0
  4  5  1  0
  5  6  1  0
  5 11  2  0
  6  7  1  0
  7  8  1  6
  7  9  1  0
  9 13  1  0
  9 10  2  0
 12 11  1  0
 13 14  1  0
 14 17  1  0
 14 15  1  1
 16 15  1  0
 17 18  2  0
 19 20  1  0
 20 21  1  0
 21 23  1  0
 21 22  1  1
 23 25  1  0
 24 17  1  0
 23 24  1  6
 25 26  1  0
 27 25  2  0
M  END
$$$$
