YCI.pdb
     RDKit          3D

 27 27  0  0  1  0  0  0  0  0999 V2000
   15.3762  -21.0073   17.8756 O   0  0  0  0  0  0  0  0  0  0  0  0
   14.6243  -20.0811   18.5858 C   0  0  0  0  0  0  0  0  0  0  0  0
   14.8076  -18.7217   18.4361 C   0  0  0  0  0  0  0  0  0  0  0  0
   14.0377  -17.8322   19.1625 C   0  0  0  0  0  0  0  0  0  0  0  0
   13.0675  -18.2482   20.0549 C   0  0  0  0  0  0  0  0  0  0  0  0
   12.2383  -17.2978   20.8371 C   0  0  0  0  0  0  0  0  0  0  0  0
   10.7837  -17.5719   20.5337 C   0  0  2  0  0  0  0  0  0  0  0  0
   10.5045  -17.0218   19.2210 N   0  0  0  0  0  0  0  0  0  0  0  0
    9.8756  -16.9586   21.5146 C   0  0  0  0  0  0  0  0  0  0  0  0
    8.8228  -16.3599   21.1414 O   0  0  0  0  0  0  0  0  0  0  0  0
   12.8876  -19.6106   20.2014 C   0  0  0  0  0  0  0  0  0  0  0  0
   13.6520  -20.5120   19.4801 C   0  0  0  0  0  0  0  0  0  0  0  0
   10.1033  -16.9895   22.9203 N   0  0  0  0  0  0  0  0  0  0  0  0
    9.0365  -16.8364   23.8906 C   0  0  1  0  0  0  0  0  0  0  0  0
    8.0091  -17.9106   23.5928 C   0  0  0  0  0  0  0  0  0  0  0  0
    6.6902  -17.9161   24.8455 S   0  0  0  0  0  0  0  0  0  0  0  0
    9.5209  -17.0770   25.2773 C   0  0  0  0  0  0  0  0  0  0  0  0
   10.1800  -18.1265   25.4877 O   0  0  0  0  0  0  0  0  0  0  0  0
    8.7638  -12.5578   28.5455 C   0  0  0  0  0  0  0  0  0  0  0  0
    9.4400  -13.5795   27.6801 C   0  0  0  0  0  0  0  0  0  0  0  0
    9.8331  -14.8527   28.3125 C   0  0  2  0  0  0  0  0  0  0  0  0
   10.8619  -14.5817   29.4148 C   0  0  0  0  0  0  0  0  0  0  0  0
   10.2254  -15.9920   27.4576 C   0  0  2  0  0  0  0  0  0  0  0  0
    9.2825  -16.2030   26.3484 N   0  0  0  0  0  0  0  0  0  0  0  0
   10.3194  -17.2528   28.2038 C   0  0  0  0  0  0  0  0  0  0  0  0
   11.5008  -17.7625   28.7365 O   0  0  0  0  0  0  0  0  0  0  0  0
    9.2939  -17.9530   28.3975 O   0  0  0  0  0  0  0  0  0  0  0  0
  1  2  1  0
  2 12  2  0
  3  4  2  0
  3  2  1  0
  4  5  1  0
  5  6  1  0
  5 11  2  0
  6  7  1  0
  7  8  1  6
  7  9  1  0
  9 13  1  0
  9 10  2  0
 12 11  1  0
 13 14  1  0
 14 17  1  0
 14 15  1  6
 16 15  1  0
 17 18  2  0
 19 20  1  0
 20 21  1  0
 21 23  1  0
 21 22  1  1
 23 25  1  0
 24 17  1  0
 23 24  1  6
 25 26  1  0
 27 25  2  0
M  END
$$$$
