YCI.pdb
     RDKit          3D

 27 27  0  0  1  0  0  0  0  0999 V2000
    9.3685  -13.1854   17.0138 O   0  0  0  0  0  0  0  0  0  0  0  0
    8.4542  -13.8007   17.8581 C   0  0  0  0  0  0  0  0  0  0  0  0
    8.3830  -13.4992   19.2027 C   0  0  0  0  0  0  0  0  0  0  0  0
    7.4577  -14.1348   20.0097 C   0  0  0  0  0  0  0  0  0  0  0  0
    6.5769  -15.0827   19.5235 C   0  0  0  0  0  0  0  0  0  0  0  0
    5.5817  -15.7680   20.3853 C   0  0  0  0  0  0  0  0  0  0  0  0
    6.1229  -17.1312   20.7482 C   0  0  2  0  0  0  0  0  0  0  0  0
    5.3180  -18.1159   20.0508 N   0  0  0  0  0  0  0  0  0  0  0  0
    6.0626  -17.3978   22.1933 C   0  0  0  0  0  0  0  0  0  0  0  0
    5.1221  -18.0876   22.6892 O   0  0  0  0  0  0  0  0  0  0  0  0
    6.6520  -15.3813   18.1762 C   0  0  0  0  0  0  0  0  0  0  0  0
    7.5740  -14.7520   17.3571 C   0  0  0  0  0  0  0  0  0  0  0  0
    7.0297  -16.9147   23.1207 N   0  0  0  0  0  0  0  0  0  0  0  0
    7.0298  -17.2921   24.5209 C   0  0  1  0  0  0  0  0  0  0  0  0
    7.5002  -18.7316   24.5918 C   0  0  0  0  0  0  0  0  0  0  0  0
    7.8368  -19.2233   26.3104 S   0  0  0  0  0  0  0  0  0  0  0  0
    8.0023  -16.4826   25.3046 C   0  0  0  0  0  0  0  0  0  0  0  0
    9.1858  -16.4306   24.8841 O   0  0  0  0  0  0  0  0  0  0  0  0
    5.3239  -12.4077   27.8190 C   0  0  0  0  0  0  0  0  0  0  0  0
    6.3055  -13.1868   26.9947 C   0  0  0  0  0  0  0  0  0  0  0  0
    7.5376  -13.6483   27.6614 C   0  0  2  0  0  0  0  0  0  0  0  0
    8.3188  -12.4405   28.1886 C   0  0  0  0  0  0  0  0  0  0  0  0
    8.4143  -14.6146   26.9685 C   0  0  2  0  0  0  0  0  0  0  0  0
    7.6698  -15.7831   26.4743 N   0  0  0  0  0  0  0  0  0  0  0  0
    9.4978  -15.1111   27.8257 C   0  0  0  0  0  0  0  0  0  0  0  0
    9.5740  -16.4108   28.3198 O   0  0  0  0  0  0  0  0  0  0  0  0
   10.4385  -14.3493   28.1639 O   0  0  0  0  0  0  0  0  0  0  0  0
  1  2  1  0
  2 12  2  0
  3  4  2  0
  3  2  1  0
  4  5  1  0
  5  6  1  0
  5 11  2  0
  6  7  1  0
  7  8  1  6
  7  9  1  0
  9 13  1  0
  9 10  2  0
 12 11  1  0
 13 14  1  0
 14 17  1  0
 14 15  1  6
 16 15  1  0
 17 18  2  0
 19 20  1  0
 20 21  1  0
 21 23  1  0
 21 22  1  6
 23 25  1  0
 24 17  1  0
 23 24  1  1
 25 26  1  0
 27 25  2  0
M  END
$$$$
