YCI.pdb
     RDKit          3D

 27 27  0  0  1  0  0  0  0  0999 V2000
   17.8068  -20.9573   20.3138 O   0  0  0  0  0  0  0  0  0  0  0  0
   16.7734  -20.0654   20.5668 C   0  0  0  0  0  0  0  0  0  0  0  0
   15.5724  -20.4732   21.1102 C   0  0  0  0  0  0  0  0  0  0  0  0
   14.5682  -19.5529   21.3468 C   0  0  0  0  0  0  0  0  0  0  0  0
   14.7113  -18.2086   21.0584 C   0  0  0  0  0  0  0  0  0  0  0  0
   13.6366  -17.2165   21.3103 C   0  0  0  0  0  0  0  0  0  0  0  0
   12.4042  -17.6437   20.5477 C   0  0  2  0  0  0  0  0  0  0  0  0
   12.6572  -17.3934   19.1415 N   0  0  0  0  0  0  0  0  0  0  0  0
   11.2003  -16.9053   20.9580 C   0  0  0  0  0  0  0  0  0  0  0  0
   10.8759  -15.8211   20.3877 O   0  0  0  0  0  0  0  0  0  0  0  0
   15.9159  -17.8049   20.5142 C   0  0  0  0  0  0  0  0  0  0  0  0
   16.9297  -18.7164   20.2723 C   0  0  0  0  0  0  0  0  0  0  0  0
   10.3307  -17.3399   21.9990 N   0  0  0  0  0  0  0  0  0  0  0  0
    9.1106  -16.6370   22.3457 C   0  0  1  0  0  0  0  0  0  0  0  0
    8.0357  -17.6872   22.5454 C   0  0  0  0  0  0  0  0  0  0  0  0
    8.5355  -18.9000   23.8055 S   0  0  0  0  0  0  0  0  0  0  0  0
    9.2473  -15.9103   23.6374 C   0  0  0  0  0  0  0  0  0  0  0  0
   10.2526  -16.1704   24.3460 O   0  0  0  0  0  0  0  0  0  0  0  0
    6.6392  -11.1324   26.8070 C   0  0  0  0  0  0  0  0  0  0  0  0
    7.5433  -12.3281   26.7517 C   0  0  0  0  0  0  0  0  0  0  0  0
    7.5083  -13.1505   25.5278 C   0  0  2  0  0  0  0  0  0  0  0  0
    6.0556  -13.4897   25.1791 C   0  0  0  0  0  0  0  0  0  0  0  0
    8.3917  -14.3303   25.4260 C   0  0  2  0  0  0  0  0  0  0  0  0
    8.3229  -14.9614   24.0990 N   0  0  0  0  0  0  0  0  0  0  0  0
    8.0758  -15.3611   26.4226 C   0  0  0  0  0  0  0  0  0  0  0  0
    8.6364  -15.4187   27.6960 O   0  0  0  0  0  0  0  0  0  0  0  0
    7.2533  -16.2725   26.1533 O   0  0  0  0  0  0  0  0  0  0  0  0
  1  2  1  0
  2 12  2  0
  3  4  2  0
  3  2  1  0
  4  5  1  0
  5  6  1  0
  5 11  2  0
  6  7  1  0
  7  8  1  6
  7  9  1  0
  9 13  1  0
  9 10  2  0
 12 11  1  0
 13 14  1  0
 14 17  1  0
 14 15  1  1
 16 15  1  0
 17 18  2  0
 19 20  1  0
 20 21  1  0
 21 23  1  0
 21 22  1  1
 23 25  1  0
 24 17  1  0
 23 24  1  6
 25 26  1  0
 27 25  2  0
M  END
$$$$
