YCI.pdb
     RDKit          3D

 27 27  0  0  1  0  0  0  0  0999 V2000
    8.0130  -13.0964   15.9870 O   0  0  0  0  0  0  0  0  0  0  0  0
    7.7140  -13.4197   17.3036 C   0  0  0  0  0  0  0  0  0  0  0  0
    8.3430  -12.8068   18.3678 C   0  0  0  0  0  0  0  0  0  0  0  0
    8.0162  -13.1576   19.6645 C   0  0  0  0  0  0  0  0  0  0  0  0
    7.0651  -14.1176   19.9557 C   0  0  0  0  0  0  0  0  0  0  0  0
    6.7104  -14.4980   21.3457 C   0  0  0  0  0  0  0  0  0  0  0  0
    7.8315  -15.3385   21.9114 C   0  0  2  0  0  0  0  0  0  0  0  0
    7.9494  -16.5197   21.0779 N   0  0  0  0  0  0  0  0  0  0  0  0
    7.5825  -15.7534   23.3002 C   0  0  0  0  0  0  0  0  0  0  0  0
    7.3739  -14.8946   24.2085 O   0  0  0  0  0  0  0  0  0  0  0  0
    6.4378  -14.7287   18.8865 C   0  0  0  0  0  0  0  0  0  0  0  0
    6.7558  -14.3865   17.5831 C   0  0  0  0  0  0  0  0  0  0  0  0
    7.5576  -17.1144   23.7194 N   0  0  0  0  0  0  0  0  0  0  0  0
    7.4621  -17.5036   25.1130 C   0  0  1  0  0  0  0  0  0  0  0  0
    7.1016  -18.9759   25.1382 C   0  0  0  0  0  0  0  0  0  0  0  0
    7.0467  -19.6043   26.8443 S   0  0  0  0  0  0  0  0  0  0  0  0
    8.7713  -17.3694   25.8084 C   0  0  0  0  0  0  0  0  0  0  0  0
    9.7855  -17.8363   25.2310 O   0  0  0  0  0  0  0  0  0  0  0  0
    9.8461  -13.2255   29.6945 C   0  0  0  0  0  0  0  0  0  0  0  0
    9.6362  -14.6566   29.2973 C   0  0  0  0  0  0  0  0  0  0  0  0
   10.4297  -15.1713   28.1655 C   0  0  2  0  0  0  0  0  0  0  0  0
   10.3619  -14.1805   26.9990 C   0  0  0  0  0  0  0  0  0  0  0  0
   10.2303  -16.5655   27.7195 C   0  0  2  0  0  0  0  0  0  0  0  0
    8.9292  -16.7558   27.0600 N   0  0  0  0  0  0  0  0  0  0  0  0
   10.3113  -17.5296   28.8238 C   0  0  0  0  0  0  0  0  0  0  0  0
   11.4910  -17.8757   29.4776 O   0  0  0  0  0  0  0  0  0  0  0  0
    9.2749  -18.1069   29.2389 O   0  0  0  0  0  0  0  0  0  0  0  0
  1  2  1  0
  2 12  2  0
  3  4  2  0
  3  2  1  0
  4  5  1  0
  5  6  1  0
  5 11  2  0
  6  7  1  0
  7  8  1  6
  7  9  1  0
  9 13  1  0
  9 10  2  0
 12 11  1  0
 13 14  1  0
 14 17  1  0
 14 15  1  6
 16 15  1  0
 17 18  2  0
 19 20  1  0
 20 21  1  0
 21 23  1  0
 21 22  1  6
 23 25  1  0
 24 17  1  0
 23 24  1  1
 25 26  1  0
 27 25  2  0
M  END
$$$$
