YCI.pdb
     RDKit          3D

 27 27  0  0  1  0  0  0  0  0999 V2000
    9.0171  -11.9656   17.3619 O   0  0  0  0  0  0  0  0  0  0  0  0
    8.2868  -12.7628   18.2329 C   0  0  0  0  0  0  0  0  0  0  0  0
    7.3268  -13.6465   17.7843 C   0  0  0  0  0  0  0  0  0  0  0  0
    6.6212  -14.4227   18.6849 C   0  0  0  0  0  0  0  0  0  0  0  0
    6.8355  -14.3557   20.0488 C   0  0  0  0  0  0  0  0  0  0  0  0
    6.0810  -15.1866   21.0200 C   0  0  0  0  0  0  0  0  0  0  0  0
    6.8673  -16.4507   21.2787 C   0  0  2  0  0  0  0  0  0  0  0  0
    6.3255  -17.4817   20.4141 N   0  0  0  0  0  0  0  0  0  0  0  0
    6.7750  -16.8986   22.6765 C   0  0  0  0  0  0  0  0  0  0  0  0
    5.7201  -17.4462   23.1162 O   0  0  0  0  0  0  0  0  0  0  0  0
    7.7980  -13.4691   20.4934 C   0  0  0  0  0  0  0  0  0  0  0  0
    8.5117  -12.6860   19.6020 C   0  0  0  0  0  0  0  0  0  0  0  0
    7.8348  -16.7554   23.6173 N   0  0  0  0  0  0  0  0  0  0  0  0
    7.7227  -17.1896   24.9963 C   0  0  1  0  0  0  0  0  0  0  0  0
    7.5786  -18.6986   24.9754 C   0  0  0  0  0  0  0  0  0  0  0  0
    8.9882  -19.4761   24.1286 S   0  0  0  0  0  0  0  0  0  0  0  0
    8.9595  -16.8861   25.7667 C   0  0  0  0  0  0  0  0  0  0  0  0
   10.0531  -16.9279   25.1483 O   0  0  0  0  0  0  0  0  0  0  0  0
    7.7737  -12.3208   27.4088 C   0  0  0  0  0  0  0  0  0  0  0  0
    8.5363  -13.5477   27.0048 C   0  0  0  0  0  0  0  0  0  0  0  0
    9.2054  -14.3144   28.0725 C   0  0  2  0  0  0  0  0  0  0  0  0
   10.1053  -13.3804   28.8878 C   0  0  0  0  0  0  0  0  0  0  0  0
    9.8857  -15.5812   27.7331 C   0  0  2  0  0  0  0  0  0  0  0  0
    8.9671  -16.5597   27.1310 N   0  0  0  0  0  0  0  0  0  0  0  0
   10.5083  -16.2189   28.8997 C   0  0  0  0  0  0  0  0  0  0  0  0
   10.0669  -17.4096   29.4713 O   0  0  0  0  0  0  0  0  0  0  0  0
   11.5056  -15.6917   29.4537 O   0  0  0  0  0  0  0  0  0  0  0  0
  1  2  1  0
  2 12  2  0
  3  4  2  0
  3  2  1  0
  4  5  1  0
  5  6  1  0
  5 11  2  0
  6  7  1  0
  7  8  1  6
  7  9  1  0
  9 13  1  0
  9 10  2  0
 12 11  1  0
 13 14  1  0
 14 17  1  0
 14 15  1  6
 16 15  1  0
 17 18  2  0
 19 20  1  0
 20 21  1  0
 21 23  1  0
 21 22  1  6
 23 25  1  0
 24 17  1  0
 23 24  1  1
 25 26  1  0
 27 25  2  0
M  END
$$$$
