KMR.pdb
     RDKit          3D

 29 28  0  0  1  0  0  0  0  0999 V2000
    7.2022  -15.4808   20.0289 N   0  0  0  0  0  0  0  0  0  0  0  0
    8.2658  -14.5847   20.1920 C   0  0  1  0  0  0  0  0  0  0  0  0
    8.0827  -13.2958   19.4569 C   0  0  0  0  0  0  0  0  0  0  0  0
    7.5757  -13.4676   18.0694 C   0  0  0  0  0  0  0  0  0  0  0  0
    8.6589  -13.5479   17.0603 C   0  0  0  0  0  0  0  0  0  0  0  0
    8.0641  -13.6793   15.6357 C   0  0  0  0  0  0  0  0  0  0  0  0
    9.1876  -13.7832   14.7433 N   0  0  0  0  0  0  0  0  0  0  0  0
    8.5729  -14.2407   21.6082 C   0  0  0  0  0  0  0  0  0  0  0  0
    9.6247  -13.5726   21.8029 O   0  0  0  0  0  0  0  0  0  0  0  0
    4.7017  -12.3971   27.0369 C   0  0  0  0  0  0  0  0  0  0  0  0
    6.5037  -12.2540   26.8094 S   0  0  0  0  0  0  0  0  0  0  0  0
    7.0746  -13.9310   26.2971 C   0  0  0  0  0  0  0  0  0  0  0  0
    6.9621  -13.9629   24.8122 C   0  0  0  0  0  0  0  0  0  0  0  0
    8.2332  -14.2864   24.0670 C   0  0  2  0  0  0  0  0  0  0  0  0
    7.7911  -14.6016   22.6989 N   0  0  0  0  0  0  0  0  0  0  0  0
    8.9503  -15.4737   24.5635 C   0  0  0  0  0  0  0  0  0  0  0  0
    8.3263  -16.5892   24.6449 O   0  0  0  0  0  0  0  0  0  0  0  0
   13.9574  -15.4563   19.2267 N   0  0  0  0  0  0  0  0  0  0  0  0
   14.1656  -15.6807   20.6193 C   0  0  0  0  0  0  0  0  0  0  0  0
   14.9248  -14.9234   21.2996 N   0  0  0  0  0  0  0  0  0  0  0  0
   13.5050  -16.7726   21.2373 N   0  0  0  0  0  0  0  0  0  0  0  0
   13.5964  -16.9641   22.6935 C   0  0  0  0  0  0  0  0  0  0  0  0
   12.2464  -16.6732   23.2856 C   0  0  0  0  0  0  0  0  0  0  0  0
   12.2167  -16.8957   24.7394 C   0  0  0  0  0  0  0  0  0  0  0  0
   10.9600  -16.7285   25.4869 C   0  0  2  0  0  0  0  0  0  0  0  0
   10.2984  -15.5152   24.9704 N   0  0  0  0  0  0  0  0  0  0  0  0
   10.9851  -16.6482   26.9346 C   0  0  0  0  0  0  0  0  0  0  0  0
   10.7927  -15.5730   27.5507 O   0  0  0  0  0  0  0  0  0  0  0  0
   11.2253  -17.7779   27.6919 O   0  0  0  0  0  0  0  0  0  0  0  0
  2  1  1  1
  2  3  1  0
  4  5  1  0
  4  3  1  0
  6  7  1  0
  6  5  1  0
  8  2  1  0
  8  9  2  0
 10 11  1  0
 11 12  1  0
 12 13  1  0
 14 13  1  1
 14 15  1  0
 15  8  1  0
 16 14  1  0
 16 26  1  0
 17 16  2  0
 18 19  1  0
 19 21  1  0
 20 19  2  0
 21 22  1  0
 23 22  1  0
 24 23  1  0
 25 24  1  6
 25 26  1  0
 25 27  1  0
 27 28  2  0
 27 29  1  0
M  END
$$$$
