KMR.pdb
     RDKit          3D

 29 28  0  0  1  0  0  0  0  0999 V2000
    8.3828  -15.4739   19.8077 N   0  0  0  0  0  0  0  0  0  0  0  0
    7.6048  -15.6268   20.9619 C   0  0  1  0  0  0  0  0  0  0  0  0
    7.0707  -17.0108   21.1467 C   0  0  0  0  0  0  0  0  0  0  0  0
    6.6831  -17.6752   19.8739 C   0  0  0  0  0  0  0  0  0  0  0  0
    5.9592  -18.9522   20.0816 C   0  0  0  0  0  0  0  0  0  0  0  0
    5.6492  -19.6272   18.7218 C   0  0  0  0  0  0  0  0  0  0  0  0
    4.8843  -20.8064   19.0279 N   0  0  0  0  0  0  0  0  0  0  0  0
    8.2952  -15.2519   22.2272 C   0  0  0  0  0  0  0  0  0  0  0  0
    9.5511  -15.1530   22.1675 O   0  0  0  0  0  0  0  0  0  0  0  0
    5.5249  -11.4222   25.8133 C   0  0  0  0  0  0  0  0  0  0  0  0
    6.3619  -12.1060   27.2800 S   0  0  0  0  0  0  0  0  0  0  0  0
    7.7989  -13.0625   26.6312 C   0  0  0  0  0  0  0  0  0  0  0  0
    7.3345  -13.6808   25.3581 C   0  0  0  0  0  0  0  0  0  0  0  0
    8.3910  -14.4009   24.5575 C   0  0  2  0  0  0  0  0  0  0  0  0
    7.6561  -15.0107   23.4374 N   0  0  0  0  0  0  0  0  0  0  0  0
    9.0597  -15.5013   25.2733 C   0  0  0  0  0  0  0  0  0  0  0  0
    9.7218  -15.2400   26.3381 O   0  0  0  0  0  0  0  0  0  0  0  0
   15.1084  -22.6318   24.0554 N   0  0  0  0  0  0  0  0  0  0  0  0
   14.6762  -21.2874   23.8585 C   0  0  0  0  0  0  0  0  0  0  0  0
   15.2239  -20.5429   22.9875 N   0  0  0  0  0  0  0  0  0  0  0  0
   13.6155  -20.7911   24.6581 N   0  0  0  0  0  0  0  0  0  0  0  0
   13.0518  -19.4577   24.3942 C   0  0  0  0  0  0  0  0  0  0  0  0
   11.9248  -19.2304   25.3615 C   0  0  0  0  0  0  0  0  0  0  0  0
   10.8680  -18.3785   24.7947 C   0  0  0  0  0  0  0  0  0  0  0  0
    9.7555  -17.9192   25.6416 C   0  0  2  0  0  0  0  0  0  0  0  0
    9.0458  -16.8596   24.8999 N   0  0  0  0  0  0  0  0  0  0  0  0
   10.0202  -17.4329   26.9819 C   0  0  0  0  0  0  0  0  0  0  0  0
   10.1667  -16.2139   27.2371 O   0  0  0  0  0  0  0  0  0  0  0  0
   10.1191  -18.3174   28.0381 O   0  0  0  0  0  0  0  0  0  0  0  0
  2  1  1  6
  2  3  1  0
  4  5  1  0
  4  3  1  0
  6  7  1  0
  6  5  1  0
  8  2  1  0
  8  9  2  0
 10 11  1  0
 11 12  1  0
 12 13  1  0
 14 13  1  1
 14 15  1  0
 15  8  1  0
 16 14  1  0
 16 26  1  0
 17 16  2  0
 18 19  1  0
 19 21  1  0
 20 19  2  0
 21 22  1  0
 23 22  1  0
 24 23  1  0
 25 24  1  6
 25 26  1  0
 25 27  1  0
 27 28  2  0
 27 29  1  0
M  END
$$$$
