KMR.pdb
     RDKit          3D

 29 28  0  0  1  0  0  0  0  0999 V2000
    8.4918  -13.5590   19.2260 N   0  0  0  0  0  0  0  0  0  0  0  0
    7.6626  -14.1108   20.2103 C   0  0  1  0  0  0  0  0  0  0  0  0
    7.2527  -15.5205   19.9284 C   0  0  0  0  0  0  0  0  0  0  0  0
    8.3955  -16.4277   19.6411 C   0  0  0  0  0  0  0  0  0  0  0  0
    7.9773  -17.8270   19.3861 C   0  0  0  0  0  0  0  0  0  0  0  0
    9.2080  -18.7101   19.0605 C   0  0  0  0  0  0  0  0  0  0  0  0
    8.6916  -20.0205   18.7681 N   0  0  0  0  0  0  0  0  0  0  0  0
    8.2352  -14.0883   21.5850 C   0  0  0  0  0  0  0  0  0  0  0  0
    9.4916  -14.0107   21.6632 O   0  0  0  0  0  0  0  0  0  0  0  0
    7.0699  -10.2567   27.0935 C   0  0  0  0  0  0  0  0  0  0  0  0
    6.3206  -11.9171   27.0611 S   0  0  0  0  0  0  0  0  0  0  0  0
    7.5989  -13.0249   26.3265 C   0  0  0  0  0  0  0  0  0  0  0  0
    7.2069  -13.2093   24.9014 C   0  0  0  0  0  0  0  0  0  0  0  0
    8.1507  -14.0379   24.0657 C   0  0  2  0  0  0  0  0  0  0  0  0
    7.4885  -14.1460   22.7556 N   0  0  0  0  0  0  0  0  0  0  0  0
    8.3538  -15.4138   24.5515 C   0  0  0  0  0  0  0  0  0  0  0  0
    7.3826  -16.2463   24.4879 O   0  0  0  0  0  0  0  0  0  0  0  0
   14.5147  -17.6894   21.3597 N   0  0  0  0  0  0  0  0  0  0  0  0
   13.3307  -18.0736   20.6643 C   0  0  0  0  0  0  0  0  0  0  0  0
   13.2874  -18.0779   19.3951 N   0  0  0  0  0  0  0  0  0  0  0  0
   12.1928  -18.4543   21.4198 N   0  0  0  0  0  0  0  0  0  0  0  0
   12.2453  -18.4473   22.8905 C   0  0  0  0  0  0  0  0  0  0  0  0
   10.9193  -17.9578   23.3999 C   0  0  0  0  0  0  0  0  0  0  0  0
   10.8811  -17.8814   24.8685 C   0  0  0  0  0  0  0  0  0  0  0  0
    9.7002  -17.3263   25.5490 C   0  0  2  0  0  0  0  0  0  0  0  0
    9.5459  -15.9309   25.0956 N   0  0  0  0  0  0  0  0  0  0  0  0
    9.6267  -17.3417   26.9973 C   0  0  0  0  0  0  0  0  0  0  0  0
    9.6776  -16.2931   27.6832 O   0  0  0  0  0  0  0  0  0  0  0  0
    9.4940  -18.5369   27.6764 O   0  0  0  0  0  0  0  0  0  0  0  0
  2  1  1  6
  2  3  1  0
  4  5  1  0
  4  3  1  0
  6  7  1  0
  6  5  1  0
  8  2  1  0
  8  9  2  0
 10 11  1  0
 11 12  1  0
 12 13  1  0
 14 13  1  1
 14 15  1  0
 15  8  1  0
 16 14  1  0
 16 26  1  0
 17 16  2  0
 18 19  1  0
 19 21  1  0
 20 19  2  0
 21 22  1  0
 23 22  1  0
 24 23  1  0
 25 24  1  1
 25 26  1  0
 25 27  1  0
 27 28  2  0
 27 29  1  0
M  END
$$$$
