KMR.pdb
     RDKit          3D

 29 28  0  0  1  0  0  0  0  0999 V2000
    8.0668  -13.2467   18.7927 N   0  0  0  0  0  0  0  0  0  0  0  0
    7.5288  -14.1593   19.7084 C   0  0  1  0  0  0  0  0  0  0  0  0
    7.7187  -15.5886   19.3133 C   0  0  0  0  0  0  0  0  0  0  0  0
    7.2101  -15.9035   17.9518 C   0  0  0  0  0  0  0  0  0  0  0  0
    7.4528  -17.3101   17.5514 C   0  0  0  0  0  0  0  0  0  0  0  0
    6.7445  -17.6217   16.2091 C   0  0  0  0  0  0  0  0  0  0  0  0
    6.9204  -19.0317   15.9840 N   0  0  0  0  0  0  0  0  0  0  0  0
    8.0446  -14.0175   21.0984 C   0  0  0  0  0  0  0  0  0  0  0  0
    9.2919  -13.8738   21.2170 O   0  0  0  0  0  0  0  0  0  0  0  0
    6.4222  -10.9760   27.8697 C   0  0  0  0  0  0  0  0  0  0  0  0
    5.7209  -11.9764   26.5181 S   0  0  0  0  0  0  0  0  0  0  0  0
    7.1371  -12.9272   25.8174 C   0  0  0  0  0  0  0  0  0  0  0  0
    6.8079  -13.1482   24.3816 C   0  0  0  0  0  0  0  0  0  0  0  0
    7.8660  -13.8525   23.5691 C   0  0  2  0  0  0  0  0  0  0  0  0
    7.2554  -14.0335   22.2421 N   0  0  0  0  0  0  0  0  0  0  0  0
    8.2216  -15.1962   24.0575 C   0  0  0  0  0  0  0  0  0  0  0  0
    7.3484  -16.1313   23.9989 O   0  0  0  0  0  0  0  0  0  0  0  0
   12.3613  -22.2525   23.9834 N   0  0  0  0  0  0  0  0  0  0  0  0
   13.2933  -21.4358   23.2782 C   0  0  0  0  0  0  0  0  0  0  0  0
   14.1252  -21.9429   22.4636 N   0  0  0  0  0  0  0  0  0  0  0  0
   13.2756  -20.0358   23.5032 N   0  0  0  0  0  0  0  0  0  0  0  0
   12.1766  -19.2150   22.9704 C   0  0  0  0  0  0  0  0  0  0  0  0
   11.2756  -18.8463   24.1149 C   0  0  0  0  0  0  0  0  0  0  0  0
   10.7036  -17.4998   23.9615 C   0  0  0  0  0  0  0  0  0  0  0  0
    9.7988  -16.9599   24.9890 C   0  0  2  0  0  0  0  0  0  0  0  0
    9.4651  -15.5767   24.5992 N   0  0  0  0  0  0  0  0  0  0  0  0
   10.2079  -16.9512   26.3802 C   0  0  0  0  0  0  0  0  0  0  0  0
   10.3861  -18.0062   27.0342 O   0  0  0  0  0  0  0  0  0  0  0  0
   10.4188  -15.7551   27.0379 O   0  0  0  0  0  0  0  0  0  0  0  0
  2  1  1  6
  2  3  1  0
  4  5  1  0
  4  3  1  0
  6  7  1  0
  6  5  1  0
  8  2  1  0
  8  9  2  0
 10 11  1  0
 11 12  1  0
 12 13  1  0
 14 13  1  1
 14 15  1  0
 15  8  1  0
 16 14  1  0
 16 26  1  0
 17 16  2  0
 18 19  1  0
 19 21  1  0
 20 19  2  0
 21 22  1  0
 23 22  1  0
 24 23  1  0
 25 24  1  6
 25 26  1  0
 25 27  1  0
 27 28  2  0
 27 29  1  0
M  END
$$$$
