KMR.pdb
     RDKit          3D

 29 28  0  0  1  0  0  0  0  0999 V2000
    7.4353  -16.6593   20.7842 N   0  0  0  0  0  0  0  0  0  0  0  0
    8.7685  -16.6865   21.2116 C   0  0  1  0  0  0  0  0  0  0  0  0
    9.7234  -16.0737   20.2382 C   0  0  0  0  0  0  0  0  0  0  0  0
    9.7129  -16.7258   18.9016 C   0  0  0  0  0  0  0  0  0  0  0  0
    8.7968  -16.0667   17.9403 C   0  0  0  0  0  0  0  0  0  0  0  0
    8.7649  -16.8448   16.6009 C   0  0  0  0  0  0  0  0  0  0  0  0
    7.9394  -16.0724   15.7113 N   0  0  0  0  0  0  0  0  0  0  0  0
    9.0088  -16.0350   22.5292 C   0  0  0  0  0  0  0  0  0  0  0  0
   10.2050  -16.0111   22.9280 O   0  0  0  0  0  0  0  0  0  0  0  0
    6.1636  -11.3654   24.5742 C   0  0  0  0  0  0  0  0  0  0  0  0
    6.1657  -11.9240   26.3084 S   0  0  0  0  0  0  0  0  0  0  0  0
    7.2639  -13.4048   26.3521 C   0  0  0  0  0  0  0  0  0  0  0  0
    7.2826  -13.9384   24.9615 C   0  0  0  0  0  0  0  0  0  0  0  0
    8.3457  -14.9685   24.6707 C   0  0  2  0  0  0  0  0  0  0  0  0
    8.0210  -15.4668   23.3243 N   0  0  0  0  0  0  0  0  0  0  0  0
    8.3306  -16.1363   25.5687 C   0  0  0  0  0  0  0  0  0  0  0  0
    7.2501  -16.8130   25.6920 O   0  0  0  0  0  0  0  0  0  0  0  0
    6.3700  -23.6982   26.0638 N   0  0  0  0  0  0  0  0  0  0  0  0
    7.0885  -22.5678   25.5749 C   0  0  0  0  0  0  0  0  0  0  0  0
    6.4982  -21.6389   24.9413 N   0  0  0  0  0  0  0  0  0  0  0  0
    8.4851  -22.4974   25.8101 N   0  0  0  0  0  0  0  0  0  0  0  0
    9.2523  -21.3245   25.3614 C   0  0  0  0  0  0  0  0  0  0  0  0
    9.3579  -20.3694   26.5165 C   0  0  0  0  0  0  0  0  0  0  0  0
    9.2819  -18.9648   26.0860 C   0  0  0  0  0  0  0  0  0  0  0  0
    9.4045  -17.8814   27.0744 C   0  0  2  0  0  0  0  0  0  0  0  0
    9.4174  -16.6068   26.3315 N   0  0  0  0  0  0  0  0  0  0  0  0
   10.5171  -17.8737   28.0045 C   0  0  0  0  0  0  0  0  0  0  0  0
   10.5841  -18.6617   28.9777 O   0  0  0  0  0  0  0  0  0  0  0  0
   11.5575  -16.9802   27.8403 O   0  0  0  0  0  0  0  0  0  0  0  0
  2  1  1  6
  2  3  1  0
  4  5  1  0
  4  3  1  0
  6  7  1  0
  6  5  1  0
  8  2  1  0
  8  9  2  0
 10 11  1  0
 11 12  1  0
 12 13  1  0
 14 13  1  1
 14 15  1  0
 15  8  1  0
 16 14  1  0
 16 26  1  0
 17 16  2  0
 18 19  1  0
 19 21  1  0
 20 19  2  0
 21 22  1  0
 23 22  1  0
 24 23  1  0
 25 24  1  6
 25 26  1  0
 25 27  1  0
 27 28  2  0
 27 29  1  0
M  END
$$$$
