KMR.pdb
     RDKit          3D

 29 28  0  0  1  0  0  0  0  0999 V2000
    7.3518  -16.0386   20.3912 N   0  0  0  0  0  0  0  0  0  0  0  0
    8.3921  -15.1121   20.5334 C   0  0  1  0  0  0  0  0  0  0  0  0
    8.3349  -13.9894   19.5480 C   0  0  0  0  0  0  0  0  0  0  0  0
    7.7830  -14.3849   18.2249 C   0  0  0  0  0  0  0  0  0  0  0  0
    8.5654  -13.8498   17.0850 C   0  0  0  0  0  0  0  0  0  0  0  0
    7.8504  -14.1562   15.7450 C   0  0  0  0  0  0  0  0  0  0  0  0
    8.7110  -13.6496   14.7096 N   0  0  0  0  0  0  0  0  0  0  0  0
    8.4946  -14.5006   21.8876 C   0  0  0  0  0  0  0  0  0  0  0  0
    9.4568  -13.7053   22.0675 O   0  0  0  0  0  0  0  0  0  0  0  0
    6.2143  -10.8060   27.4038 C   0  0  0  0  0  0  0  0  0  0  0  0
    7.0329  -11.7591   26.0844 S   0  0  0  0  0  0  0  0  0  0  0  0
    6.3859  -13.4790   26.2394 C   0  0  0  0  0  0  0  0  0  0  0  0
    6.4539  -14.0640   24.8712 C   0  0  0  0  0  0  0  0  0  0  0  0
    7.8262  -14.1069   24.2459 C   0  0  2  0  0  0  0  0  0  0  0  0
    7.6174  -14.7467   22.9369 N   0  0  0  0  0  0  0  0  0  0  0  0
    8.8050  -14.9360   24.9704 C   0  0  0  0  0  0  0  0  0  0  0  0
    8.9574  -14.7617   26.2301 O   0  0  0  0  0  0  0  0  0  0  0  0
    6.0455  -21.3083   25.6427 N   0  0  0  0  0  0  0  0  0  0  0  0
    7.2375  -21.6447   24.9364 C   0  0  0  0  0  0  0  0  0  0  0  0
    7.2421  -22.5589   24.0549 N   0  0  0  0  0  0  0  0  0  0  0  0
    8.4280  -20.9354   25.2370 N   0  0  0  0  0  0  0  0  0  0  0  0
    8.4129  -19.8551   26.2361 C   0  0  0  0  0  0  0  0  0  0  0  0
    8.4520  -18.5442   25.5029 C   0  0  0  0  0  0  0  0  0  0  0  0
    9.4360  -17.6141   26.0779 C   0  0  0  0  0  0  0  0  0  0  0  0
   10.3884  -16.9120   25.2026 C   0  0  2  0  0  0  0  0  0  0  0  0
    9.6185  -15.9379   24.4057 N   0  0  0  0  0  0  0  0  0  0  0  0
   11.2327  -17.6688   24.2986 C   0  0  0  0  0  0  0  0  0  0  0  0
   11.0597  -17.6645   23.0566 O   0  0  0  0  0  0  0  0  0  0  0  0
   12.2745  -18.4308   24.7903 O   0  0  0  0  0  0  0  0  0  0  0  0
  2  1  1  1
  2  3  1  0
  4  5  1  0
  4  3  1  0
  6  7  1  0
  6  5  1  0
  8  2  1  0
  8  9  2  0
 10 11  1  0
 11 12  1  0
 12 13  1  0
 14 13  1  1
 14 15  1  0
 15  8  1  0
 16 14  1  0
 16 26  1  0
 17 16  2  0
 18 19  1  0
 19 21  1  0
 20 19  2  0
 21 22  1  0
 23 22  1  0
 24 23  1  0
 25 24  1  6
 25 26  1  0
 25 27  1  0
 27 28  2  0
 27 29  1  0
M  END
$$$$
