KMR.pdb
     RDKit          3D

 29 28  0  0  1  0  0  0  0  0999 V2000
    6.3727  -15.9599   20.1050 N   0  0  0  0  0  0  0  0  0  0  0  0
    7.4884  -15.1145   20.0688 C   0  0  1  0  0  0  0  0  0  0  0  0
    7.3241  -13.9427   19.1550 C   0  0  0  0  0  0  0  0  0  0  0  0
    6.8687  -14.3117   17.7882 C   0  0  0  0  0  0  0  0  0  0  0  0
    7.5347  -13.5263   16.7217 C   0  0  0  0  0  0  0  0  0  0  0  0
    6.9317  -13.8719   15.3369 C   0  0  0  0  0  0  0  0  0  0  0  0
    7.5515  -12.9756   14.3979 N   0  0  0  0  0  0  0  0  0  0  0  0
    7.9024  -14.5796   21.3957 C   0  0  0  0  0  0  0  0  0  0  0  0
    9.0210  -13.9987   21.4370 O   0  0  0  0  0  0  0  0  0  0  0  0
    7.7805  -11.7164   27.9897 C   0  0  0  0  0  0  0  0  0  0  0  0
    7.5337  -12.1139   26.2289 S   0  0  0  0  0  0  0  0  0  0  0  0
    6.8677  -13.8332   26.1963 C   0  0  0  0  0  0  0  0  0  0  0  0
    6.5473  -14.1183   24.7698 C   0  0  0  0  0  0  0  0  0  0  0  0
    7.7344  -14.3001   23.8568 C   0  0  2  0  0  0  0  0  0  0  0  0
    7.1504  -14.6792   22.5600 N   0  0  0  0  0  0  0  0  0  0  0  0
    8.6457  -15.3907   24.2450 C   0  0  0  0  0  0  0  0  0  0  0  0
    8.1607  -16.5512   24.4866 O   0  0  0  0  0  0  0  0  0  0  0  0
   14.9990  -13.9127   20.0801 N   0  0  0  0  0  0  0  0  0  0  0  0
   14.9720  -15.2134   20.6636 C   0  0  0  0  0  0  0  0  0  0  0  0
   15.9580  -16.0054   20.5473 N   0  0  0  0  0  0  0  0  0  0  0  0
   13.8163  -15.6114   21.3823 N   0  0  0  0  0  0  0  0  0  0  0  0
   13.6941  -16.9905   21.8811 C   0  0  0  0  0  0  0  0  0  0  0  0
   13.2696  -16.9273   23.3211 C   0  0  0  0  0  0  0  0  0  0  0  0
   12.1423  -16.0055   23.5291 C   0  0  0  0  0  0  0  0  0  0  0  0
   10.9599  -16.4435   24.2879 C   0  0  2  0  0  0  0  0  0  0  0  0
   10.0443  -15.2904   24.3810 N   0  0  0  0  0  0  0  0  0  0  0  0
   11.1197  -17.0021   25.6166 C   0  0  0  0  0  0  0  0  0  0  0  0
   10.8400  -16.3562   26.6545 O   0  0  0  0  0  0  0  0  0  0  0  0
   11.5932  -18.2892   25.7800 O   0  0  0  0  0  0  0  0  0  0  0  0
  2  1  1  1
  2  3  1  0
  4  5  1  0
  4  3  1  0
  6  7  1  0
  6  5  1  0
  8  2  1  0
  8  9  2  0
 10 11  1  0
 11 12  1  0
 12 13  1  0
 14 13  1  1
 14 15  1  0
 15  8  1  0
 16 14  1  0
 16 26  1  0
 17 16  2  0
 18 19  1  0
 19 21  1  0
 20 19  2  0
 21 22  1  0
 23 22  1  0
 24 23  1  0
 25 24  1  1
 25 26  1  0
 25 27  1  0
 27 28  2  0
 27 29  1  0
M  END
$$$$
