KMR.pdb
     RDKit          3D

 29 28  0  0  1  0  0  0  0  0999 V2000
    6.9810  -15.3643   20.2784 N   0  0  0  0  0  0  0  0  0  0  0  0
    8.1936  -14.7181   20.5483 C   0  0  1  0  0  0  0  0  0  0  0  0
    8.3103  -13.3706   19.9115 C   0  0  0  0  0  0  0  0  0  0  0  0
    7.6854  -13.2916   18.5643 C   0  0  0  0  0  0  0  0  0  0  0  0
    8.5953  -13.7207   17.4753 C   0  0  0  0  0  0  0  0  0  0  0  0
    7.8757  -13.6431   16.1053 C   0  0  0  0  0  0  0  0  0  0  0  0
    8.8307  -14.0927   15.1280 N   0  0  0  0  0  0  0  0  0  0  0  0
    8.4930  -14.5447   21.9969 C   0  0  0  0  0  0  0  0  0  0  0  0
    9.6122  -14.0352   22.2766 O   0  0  0  0  0  0  0  0  0  0  0  0
    6.4334  -10.5884   26.5110 C   0  0  0  0  0  0  0  0  0  0  0  0
    6.9689  -12.3218   26.6787 S   0  0  0  0  0  0  0  0  0  0  0  0
    6.4069  -13.1665   25.1388 C   0  0  0  0  0  0  0  0  0  0  0  0
    6.8924  -14.5707   25.2448 C   0  0  0  0  0  0  0  0  0  0  0  0
    8.1133  -14.9042   24.4238 C   0  0  2  0  0  0  0  0  0  0  0  0
    7.6361  -14.9007   23.0314 N   0  0  0  0  0  0  0  0  0  0  0  0
    8.6747  -16.2429   24.6749 C   0  0  0  0  0  0  0  0  0  0  0  0
    8.3259  -17.2162   23.9189 O   0  0  0  0  0  0  0  0  0  0  0  0
   13.9890  -19.0731   20.2154 N   0  0  0  0  0  0  0  0  0  0  0  0
   14.3584  -19.9409   21.2847 C   0  0  0  0  0  0  0  0  0  0  0  0
   15.2090  -20.8682   21.1133 N   0  0  0  0  0  0  0  0  0  0  0  0
   13.7552  -19.7496   22.5537 N   0  0  0  0  0  0  0  0  0  0  0  0
   12.8426  -18.6167   22.7755 C   0  0  0  0  0  0  0  0  0  0  0  0
   12.2093  -18.7885   24.1271 C   0  0  0  0  0  0  0  0  0  0  0  0
   11.2028  -17.7526   24.4059 C   0  0  0  0  0  0  0  0  0  0  0  0
   10.4394  -17.7837   25.6637 C   0  0  2  0  0  0  0  0  0  0  0  0
    9.5891  -16.5784   25.6927 N   0  0  0  0  0  0  0  0  0  0  0  0
   11.1378  -17.8746   26.9313 C   0  0  0  0  0  0  0  0  0  0  0  0
   11.0792  -16.9689   27.7966 O   0  0  0  0  0  0  0  0  0  0  0  0
   11.9024  -18.9858   27.2284 O   0  0  0  0  0  0  0  0  0  0  0  0
  2  1  1  1
  2  3  1  0
  4  5  1  0
  4  3  1  0
  6  7  1  0
  6  5  1  0
  8  2  1  0
  8  9  2  0
 10 11  1  0
 11 12  1  0
 12 13  1  0
 14 13  1  1
 14 15  1  0
 15  8  1  0
 16 14  1  0
 16 26  1  0
 17 16  2  0
 18 19  1  0
 19 21  1  0
 20 19  2  0
 21 22  1  0
 23 22  1  0
 24 23  1  0
 25 24  1  6
 25 26  1  0
 25 27  1  0
 27 28  2  0
 27 29  1  0
M  END
$$$$
