HIP.pdb
     RDKit          3D

 26 27  0  0  1  0  0  0  0  0999 V2000
    9.6377  -13.7443   20.8962 N   0  0  0  0  0  0  0  0  0  0  0  0
    8.4759  -14.2575   21.5862 C   0  0  1  0  0  0  0  0  0  0  0  0
    8.0643  -15.6168   21.0816 C   0  0  0  0  0  0  0  0  0  0  0  0
    7.7194  -15.6207   19.6479 C   0  0  0  0  0  0  0  0  0  0  0  0
    6.7155  -15.0060   18.9554 C   0  0  0  0  0  0  0  0  0  0  0  0
    6.8043  -15.3064   17.6488 N   0  0  0  0  0  0  0  0  0  0  0  0
    7.8769  -16.1161   17.5384 C   0  0  0  0  0  0  0  0  0  0  0  0
    8.4348  -16.3106   18.7414 N   0  0  0  0  0  0  0  0  0  0  0  0
    8.8340  -14.4308   23.0133 C   0  0  0  0  0  0  0  0  0  0  0  0
   10.0440  -14.5735   23.3040 O   0  0  0  0  0  0  0  0  0  0  0  0
    5.5265  -11.5939   26.2202 C   0  0  0  0  0  0  0  0  0  0  0  0
    6.7504  -12.1660   25.5354 C   0  0  0  0  0  0  0  0  0  0  0  0
    7.1793  -13.4591   26.1397 C   0  0  2  0  0  0  0  0  0  0  0  0
    7.3145  -13.3310   27.6153 C   0  0  0  0  0  0  0  0  0  0  0  0
    8.3463  -14.0973   25.4117 C   0  0  2  0  0  0  0  0  0  0  0  0
    7.8829  -14.4430   24.0590 N   0  0  0  0  0  0  0  0  0  0  0  0
    8.7770  -15.3341   26.1420 C   0  0  0  0  0  0  0  0  0  0  0  0
    7.9483  -16.2728   26.0470 O   0  0  0  0  0  0  0  0  0  0  0  0
    9.9845  -15.4492   26.8589 N   0  0  0  0  0  0  0  0  0  0  0  0
   11.0677  -14.4321   26.8807 C   0  0  0  0  0  0  0  0  0  0  0  0
   11.3828  -14.3096   28.3319 C   0  0  0  0  0  0  0  0  0  0  0  0
   10.8710  -15.5963   28.9402 C   0  0  0  0  0  0  0  0  0  0  0  0
   10.5310  -16.4608   27.6938 C   0  0  1  0  0  0  0  0  0  0  0  0
    9.7769  -17.6181   28.0723 C   0  0  0  0  0  0  0  0  0  0  0  0
   10.4531  -18.6906   28.6942 O   0  0  0  0  0  0  0  0  0  0  0  0
    8.5744  -17.7801   27.9090 O   0  0  0  0  0  0  0  0  0  0  0  0
  2  1  1  6
  3  2  1  0
  4  5  2  0
  4  3  1  0
  6  5  1  0
  7  8  2  0
  7  6  1  0
  8  4  1  0
  9 16  1  0
  9  2  1  0
 10  9  2  0
 12 11  1  0
 13 15  1  0
 13 12  1  0
 13 14  1  1
 15 16  1  6
 17 15  1  0
 18 17  2  0
 19 17  1  0
 19 20  1  0
 21 20  1  0
 22 23  1  0
 22 21  1  0
 23 24  1  1
 23 19  1  0
 24 25  1  0
 26 24  2  0
M  END
$$$$
