HIP.pdb
     RDKit          3D

 26 27  0  0  1  0  0  0  0  0999 V2000
    9.8912  -14.9128   20.6171 N   0  0  0  0  0  0  0  0  0  0  0  0
    9.0626  -15.6309   21.5589 C   0  0  1  0  0  0  0  0  0  0  0  0
    9.4523  -17.0823   21.6739 C   0  0  0  0  0  0  0  0  0  0  0  0
    8.9222  -17.9116   20.5758 C   0  0  0  0  0  0  0  0  0  0  0  0
    8.6577  -17.6220   19.2676 C   0  0  0  0  0  0  0  0  0  0  0  0
    8.1787  -18.7099   18.6414 N   0  0  0  0  0  0  0  0  0  0  0  0
    8.1490  -19.6797   19.5777 C   0  0  0  0  0  0  0  0  0  0  0  0
    8.5965  -19.2052   20.7486 N   0  0  0  0  0  0  0  0  0  0  0  0
    9.2729  -15.0328   22.8980 C   0  0  0  0  0  0  0  0  0  0  0  0
   10.4099  -14.5838   23.1707 O   0  0  0  0  0  0  0  0  0  0  0  0
    5.5758  -11.9929   25.3987 C   0  0  0  0  0  0  0  0  0  0  0  0
    6.8811  -12.5673   24.8886 C   0  0  0  0  0  0  0  0  0  0  0  0
    7.3666  -13.6953   25.7330 C   0  0  2  0  0  0  0  0  0  0  0  0
    7.4113  -13.2986   27.1657 C   0  0  0  0  0  0  0  0  0  0  0  0
    8.6140  -14.3573   25.1806 C   0  0  2  0  0  0  0  0  0  0  0  0
    8.2591  -14.9438   23.8790 N   0  0  0  0  0  0  0  0  0  0  0  0
    9.0715  -15.4301   26.1231 C   0  0  0  0  0  0  0  0  0  0  0  0
    8.3538  -16.4597   26.0791 O   0  0  0  0  0  0  0  0  0  0  0  0
   10.1906  -15.3134   26.9711 N   0  0  0  0  0  0  0  0  0  0  0  0
   11.1986  -14.2229   26.9135 C   0  0  0  0  0  0  0  0  0  0  0  0
   11.3319  -13.8145   28.3403 C   0  0  0  0  0  0  0  0  0  0  0  0
   10.8326  -15.0080   29.1238 C   0  0  0  0  0  0  0  0  0  0  0  0
   10.6964  -16.1087   28.0345 C   0  0  1  0  0  0  0  0  0  0  0  0
    9.9761  -17.2369   28.5439 C   0  0  0  0  0  0  0  0  0  0  0  0
   10.6891  -18.4240   28.8204 O   0  0  0  0  0  0  0  0  0  0  0  0
    8.7739  -17.2819   28.7711 O   0  0  0  0  0  0  0  0  0  0  0  0
  2  1  1  6
  3  2  1  0
  4  5  2  0
  4  3  1  0
  6  5  1  0
  7  8  2  0
  7  6  1  0
  8  4  1  0
  9 16  1  0
  9  2  1  0
 10  9  2  0
 12 11  1  0
 13 15  1  0
 13 12  1  0
 13 14  1  1
 15 16  1  6
 17 15  1  0
 18 17  2  0
 19 17  1  0
 19 20  1  0
 21 20  1  0
 22 23  1  0
 22 21  1  0
 23 24  1  1
 23 19  1  0
 24 25  1  0
 26 24  2  0
M  END
$$$$
