HIP.pdb
     RDKit          3D

 26 27  0  0  1  0  0  0  0  0999 V2000
    9.7659  -15.3935   20.7856 N   0  0  0  0  0  0  0  0  0  0  0  0
    8.8993  -15.9691   21.7891 C   0  0  1  0  0  0  0  0  0  0  0  0
    9.1669  -17.4368   22.0032 C   0  0  0  0  0  0  0  0  0  0  0  0
    8.7047  -18.2777   20.8836 C   0  0  0  0  0  0  0  0  0  0  0  0
    9.1473  -18.3978   19.5972 C   0  0  0  0  0  0  0  0  0  0  0  0
    8.4054  -19.3019   18.9358 N   0  0  0  0  0  0  0  0  0  0  0  0
    7.4957  -19.7422   19.8283 C   0  0  0  0  0  0  0  0  0  0  0  0
    7.6699  -19.1284   21.0069 N   0  0  0  0  0  0  0  0  0  0  0  0
    9.1873  -15.2978   23.0781 C   0  0  0  0  0  0  0  0  0  0  0  0
   10.3611  -14.9187   23.2955 O   0  0  0  0  0  0  0  0  0  0  0  0
    5.6321  -12.0488   25.5541 C   0  0  0  0  0  0  0  0  0  0  0  0
    6.9264  -12.6387   25.0337 C   0  0  0  0  0  0  0  0  0  0  0  0
    7.4450  -13.7218   25.9163 C   0  0  2  0  0  0  0  0  0  0  0  0
    7.5871  -13.2375   27.3153 C   0  0  0  0  0  0  0  0  0  0  0  0
    8.6435  -14.4430   25.3307 C   0  0  2  0  0  0  0  0  0  0  0  0
    8.2082  -15.0648   24.0706 N   0  0  0  0  0  0  0  0  0  0  0  0
    9.1138  -15.4949   26.2904 C   0  0  0  0  0  0  0  0  0  0  0  0
    8.4123  -16.5361   26.2584 O   0  0  0  0  0  0  0  0  0  0  0  0
   10.2274  -15.3486   27.1410 N   0  0  0  0  0  0  0  0  0  0  0  0
   11.1694  -14.1993   27.1284 C   0  0  0  0  0  0  0  0  0  0  0  0
   11.2842  -13.8445   28.5710 C   0  0  0  0  0  0  0  0  0  0  0  0
   10.8588  -15.0974   29.3037 C   0  0  0  0  0  0  0  0  0  0  0  0
   10.7832  -16.1571   28.1688 C   0  0  1  0  0  0  0  0  0  0  0  0
   10.1324  -17.3464   28.6308 C   0  0  0  0  0  0  0  0  0  0  0  0
   10.8976  -18.3076   29.3268 O   0  0  0  0  0  0  0  0  0  0  0  0
    8.9496  -17.6251   28.4816 O   0  0  0  0  0  0  0  0  0  0  0  0
  2  1  1  6
  3  2  1  0
  4  5  2  0
  4  3  1  0
  6  5  1  0
  7  8  2  0
  7  6  1  0
  8  4  1  0
  9 16  1  0
  9  2  1  0
 10  9  2  0
 12 11  1  0
 13 15  1  0
 13 12  1  0
 13 14  1  1
 15 16  1  6
 17 15  1  0
 18 17  2  0
 19 17  1  0
 19 20  1  0
 21 20  1  0
 22 23  1  0
 22 21  1  0
 23 24  1  1
 23 19  1  0
 24 25  1  0
 26 24  2  0
M  END
$$$$
