HIP.pdb
     RDKit          3D

 26 27  0  0  1  0  0  0  0  0999 V2000
   10.1048  -15.6967   20.7499 N   0  0  0  0  0  0  0  0  0  0  0  0
    9.2905  -16.3171   21.7703 C   0  0  1  0  0  0  0  0  0  0  0  0
    9.7234  -17.7299   22.0678 C   0  0  0  0  0  0  0  0  0  0  0  0
    9.4131  -18.6712   20.9759 C   0  0  0  0  0  0  0  0  0  0  0  0
    8.8572  -18.4784   19.7435 C   0  0  0  0  0  0  0  0  0  0  0  0
    8.7699  -19.6479   19.0879 N   0  0  0  0  0  0  0  0  0  0  0  0
    9.2790  -20.5703   19.9293 C   0  0  0  0  0  0  0  0  0  0  0  0
    9.6696  -19.9882   21.0716 N   0  0  0  0  0  0  0  0  0  0  0  0
    9.4709  -15.5503   23.0250 C   0  0  0  0  0  0  0  0  0  0  0  0
   10.5474  -14.9308   23.1872 O   0  0  0  0  0  0  0  0  0  0  0  0
    5.7520  -12.3358   25.0926 C   0  0  0  0  0  0  0  0  0  0  0  0
    7.0905  -12.9333   24.7115 C   0  0  0  0  0  0  0  0  0  0  0  0
    7.5256  -13.9917   25.6663 C   0  0  2  0  0  0  0  0  0  0  0  0
    7.4839  -13.4878   27.0650 C   0  0  0  0  0  0  0  0  0  0  0  0
    8.8045  -14.6866   25.2411 C   0  0  2  0  0  0  0  0  0  0  0  0
    8.4935  -15.4829   24.0439 N   0  0  0  0  0  0  0  0  0  0  0  0
    9.2808  -15.5806   26.3468 C   0  0  0  0  0  0  0  0  0  0  0  0
    8.6804  -16.6831   26.3785 O   0  0  0  0  0  0  0  0  0  0  0  0
   10.2985  -15.2372   27.2587 N   0  0  0  0  0  0  0  0  0  0  0  0
   11.0994  -13.9861   27.2168 C   0  0  0  0  0  0  0  0  0  0  0  0
   11.0566  -13.5136   28.6293 C   0  0  0  0  0  0  0  0  0  0  0  0
   10.7214  -14.7508   29.4322 C   0  0  0  0  0  0  0  0  0  0  0  0
   10.8598  -15.8934   28.3872 C   0  0  1  0  0  0  0  0  0  0  0  0
   10.3157  -17.1151   28.8996 C   0  0  0  0  0  0  0  0  0  0  0  0
    8.9748  -17.1236   29.3421 O   0  0  0  0  0  0  0  0  0  0  0  0
   10.9072  -18.1827   28.9971 O   0  0  0  0  0  0  0  0  0  0  0  0
  2  1  1  6
  3  2  1  0
  4  5  2  0
  4  3  1  0
  6  5  1  0
  7  8  2  0
  7  6  1  0
  8  4  1  0
  9 16  1  0
  9  2  1  0
 10  9  2  0
 12 11  1  0
 13 15  1  0
 13 12  1  0
 13 14  1  1
 15 16  1  6
 17 15  1  0
 18 17  2  0
 19 17  1  0
 19 20  1  0
 21 20  1  0
 22 23  1  0
 22 21  1  0
 23 24  1  1
 23 19  1  0
 24 25  1  0
 26 24  2  0
M  END
$$$$
