HIP.pdb
     RDKit          3D

 26 27  0  0  1  0  0  0  0  0999 V2000
    9.7298  -15.5783   20.6863 N   0  0  0  0  0  0  0  0  0  0  0  0
    8.9631  -16.1895   21.7483 C   0  0  1  0  0  0  0  0  0  0  0  0
    9.4129  -17.5978   22.0419 C   0  0  0  0  0  0  0  0  0  0  0  0
    8.9685  -18.5698   21.0260 C   0  0  0  0  0  0  0  0  0  0  0  0
    8.7661  -18.4466   19.6809 C   0  0  0  0  0  0  0  0  0  0  0  0
    8.3552  -19.6178   19.1664 N   0  0  0  0  0  0  0  0  0  0  0  0
    8.3050  -20.4707   20.2095 C   0  0  0  0  0  0  0  0  0  0  0  0
    8.6739  -19.8452   21.3360 N   0  0  0  0  0  0  0  0  0  0  0  0
    9.1963  -15.4083   22.9854 C   0  0  0  0  0  0  0  0  0  0  0  0
   10.3286  -14.9013   23.1573 O   0  0  0  0  0  0  0  0  0  0  0  0
    5.5514  -12.1581   25.2501 C   0  0  0  0  0  0  0  0  0  0  0  0
    6.8528  -12.7685   24.7729 C   0  0  0  0  0  0  0  0  0  0  0  0
    7.3831  -13.7801   25.7302 C   0  0  2  0  0  0  0  0  0  0  0  0
    7.4924  -13.2043   27.0971 C   0  0  0  0  0  0  0  0  0  0  0  0
    8.6070  -14.5079   25.2086 C   0  0  2  0  0  0  0  0  0  0  0  0
    8.2093  -15.2072   23.9770 N   0  0  0  0  0  0  0  0  0  0  0  0
    9.0782  -15.4951   26.2342 C   0  0  0  0  0  0  0  0  0  0  0  0
    8.3785  -16.5374   26.2687 O   0  0  0  0  0  0  0  0  0  0  0  0
   10.1911  -15.2926   27.0743 N   0  0  0  0  0  0  0  0  0  0  0  0
   11.1722  -14.1841   26.9435 C   0  0  0  0  0  0  0  0  0  0  0  0
   11.2902  -13.6750   28.3389 C   0  0  0  0  0  0  0  0  0  0  0  0
   10.8174  -14.8236   29.2020 C   0  0  0  0  0  0  0  0  0  0  0  0
   10.7123  -15.9998   28.1910 C   0  0  1  0  0  0  0  0  0  0  0  0
   10.0179  -17.1077   28.7757 C   0  0  0  0  0  0  0  0  0  0  0  0
   10.6873  -18.3471   28.8755 O   0  0  0  0  0  0  0  0  0  0  0  0
    8.8734  -17.0930   29.2101 O   0  0  0  0  0  0  0  0  0  0  0  0
  2  1  1  6
  3  2  1  0
  4  5  2  0
  4  3  1  0
  6  5  1  0
  7  8  2  0
  7  6  1  0
  8  4  1  0
  9 16  1  0
  9  2  1  0
 10  9  2  0
 12 11  1  0
 13 15  1  0
 13 12  1  0
 13 14  1  1
 15 16  1  6
 17 15  1  0
 18 17  2  0
 19 17  1  0
 19 20  1  0
 21 20  1  0
 22 23  1  0
 22 21  1  0
 23 24  1  1
 23 19  1  0
 24 25  1  0
 26 24  2  0
M  END
$$$$
