HIP.pdb
     RDKit          3D

 26 27  0  0  1  0  0  0  0  0999 V2000
   10.8991  -16.2507   20.8876 N   0  0  0  0  0  0  0  0  0  0  0  0
    9.9630  -16.8087   21.8371 C   0  0  1  0  0  0  0  0  0  0  0  0
   10.4226  -18.1371   22.3811 C   0  0  0  0  0  0  0  0  0  0  0  0
   10.3190  -19.2311   21.3979 C   0  0  0  0  0  0  0  0  0  0  0  0
   10.7382  -19.3276   20.1017 C   0  0  0  0  0  0  0  0  0  0  0  0
   10.4179  -20.5326   19.6010 N   0  0  0  0  0  0  0  0  0  0  0  0
    9.7940  -21.1839   20.6033 C   0  0  0  0  0  0  0  0  0  0  0  0
    9.7304  -20.4045   21.6918 N   0  0  0  0  0  0  0  0  0  0  0  0
    9.8842  -15.8864   22.9939 C   0  0  0  0  0  0  0  0  0  0  0  0
   10.8636  -15.1389   23.2191 O   0  0  0  0  0  0  0  0  0  0  0  0
    6.0095  -12.5551   26.2662 C   0  0  0  0  0  0  0  0  0  0  0  0
    7.4007  -13.1355   26.1186 C   0  0  0  0  0  0  0  0  0  0  0  0
    7.4549  -14.2090   25.0861 C   0  0  2  0  0  0  0  0  0  0  0  0
    6.3000  -15.1351   25.2291 C   0  0  0  0  0  0  0  0  0  0  0  0
    8.8224  -14.8541   24.9707 C   0  0  2  0  0  0  0  0  0  0  0  0
    8.7640  -15.8080   23.8524 N   0  0  0  0  0  0  0  0  0  0  0  0
    9.1471  -15.5725   26.2462 C   0  0  0  0  0  0  0  0  0  0  0  0
    8.5304  -16.6598   26.3667 O   0  0  0  0  0  0  0  0  0  0  0  0
   10.0516  -15.0945   27.2150 N   0  0  0  0  0  0  0  0  0  0  0  0
   10.7161  -13.7656   27.1843 C   0  0  0  0  0  0  0  0  0  0  0  0
   10.5179  -13.2600   28.5719 C   0  0  0  0  0  0  0  0  0  0  0  0
   10.2570  -14.5027   29.3937 C   0  0  0  0  0  0  0  0  0  0  0  0
   10.5935  -15.6531   28.4038 C   0  0  1  0  0  0  0  0  0  0  0  0
   10.1455  -16.9114   28.9207 C   0  0  0  0  0  0  0  0  0  0  0  0
    8.7664  -17.2104   28.8677 O   0  0  0  0  0  0  0  0  0  0  0  0
   10.8518  -17.7793   29.4175 O   0  0  0  0  0  0  0  0  0  0  0  0
  2  1  1  6
  3  2  1  0
  4  5  2  0
  4  3  1  0
  6  5  1  0
  7  8  2  0
  7  6  1  0
  8  4  1  0
  9 16  1  0
  9  2  1  0
 10  9  2  0
 12 11  1  0
 13 15  1  0
 13 12  1  0
 13 14  1  1
 15 16  1  6
 17 15  1  0
 18 17  2  0
 19 17  1  0
 19 20  1  0
 21 20  1  0
 22 23  1  0
 22 21  1  0
 23 24  1  1
 23 19  1  0
 24 25  1  0
 26 24  2  0
M  END
$$$$
