HIP.pdb
     RDKit          3D

 26 27  0  0  1  0  0  0  0  0999 V2000
   10.1585  -16.0924   20.8537 N   0  0  0  0  0  0  0  0  0  0  0  0
    9.2089  -16.5742   21.8311 C   0  0  1  0  0  0  0  0  0  0  0  0
    9.5183  -17.9772   22.2868 C   0  0  0  0  0  0  0  0  0  0  0  0
    9.2048  -18.9975   21.2693 C   0  0  0  0  0  0  0  0  0  0  0  0
    8.7809  -18.8873   19.9757 C   0  0  0  0  0  0  0  0  0  0  0  0
    8.6264  -20.1074   19.4347 N   0  0  0  0  0  0  0  0  0  0  0  0
    8.9599  -20.9775   20.4092 C   0  0  0  0  0  0  0  0  0  0  0  0
    9.3103  -20.3148   21.5203 N   0  0  0  0  0  0  0  0  0  0  0  0
    9.3131  -15.7111   23.0307 C   0  0  0  0  0  0  0  0  0  0  0  0
   10.4238  -15.1929   23.2889 O   0  0  0  0  0  0  0  0  0  0  0  0
    5.9695  -12.1867   26.7744 C   0  0  0  0  0  0  0  0  0  0  0  0
    7.3031  -12.8007   26.4022 C   0  0  0  0  0  0  0  0  0  0  0  0
    7.1672  -13.8385   25.3411 C   0  0  2  0  0  0  0  0  0  0  0  0
    5.9795  -14.6972   25.5942 C   0  0  0  0  0  0  0  0  0  0  0  0
    8.4673  -14.5611   25.0464 C   0  0  2  0  0  0  0  0  0  0  0  0
    8.2267  -15.4442   23.8947 N   0  0  0  0  0  0  0  0  0  0  0  0
    8.8734  -15.3702   26.2419 C   0  0  0  0  0  0  0  0  0  0  0  0
    8.2273  -16.4416   26.3507 O   0  0  0  0  0  0  0  0  0  0  0  0
    9.8767  -14.9858   27.1533 N   0  0  0  0  0  0  0  0  0  0  0  0
   10.6352  -13.7088   27.1037 C   0  0  0  0  0  0  0  0  0  0  0  0
   10.5730  -13.2274   28.5124 C   0  0  0  0  0  0  0  0  0  0  0  0
   10.2778  -14.4692   29.3239 C   0  0  0  0  0  0  0  0  0  0  0  0
   10.4571  -15.6143   28.2879 C   0  0  1  0  0  0  0  0  0  0  0  0
    9.9533  -16.8498   28.8085 C   0  0  0  0  0  0  0  0  0  0  0  0
   10.8467  -17.7145   29.4778 O   0  0  0  0  0  0  0  0  0  0  0  0
    8.7974  -17.2463   28.7320 O   0  0  0  0  0  0  0  0  0  0  0  0
  2  1  1  6
  3  2  1  0
  4  5  2  0
  4  3  1  0
  6  5  1  0
  7  8  2  0
  7  6  1  0
  8  4  1  0
  9 16  1  0
  9  2  1  0
 10  9  2  0
 12 11  1  0
 13 15  1  0
 13 12  1  0
 13 14  1  1
 15 16  1  6
 17 15  1  0
 18 17  2  0
 19 17  1  0
 19 20  1  0
 21 20  1  0
 22 23  1  0
 22 21  1  0
 23 24  1  1
 23 19  1  0
 24 25  1  0
 26 24  2  0
M  END
$$$$
