HIP.pdb
     RDKit          3D

 26 27  0  0  1  0  0  0  0  0999 V2000
    8.9028  -15.1722   20.5153 N   0  0  0  0  0  0  0  0  0  0  0  0
    9.2211  -16.1019   21.5753 C   0  0  1  0  0  0  0  0  0  0  0  0
   10.5334  -16.8062   21.3442 C   0  0  0  0  0  0  0  0  0  0  0  0
   10.5350  -17.6408   20.1286 C   0  0  0  0  0  0  0  0  0  0  0  0
   10.1215  -17.3843   18.8525 C   0  0  0  0  0  0  0  0  0  0  0  0
   10.3224  -18.4625   18.0763 N   0  0  0  0  0  0  0  0  0  0  0  0
   10.8663  -19.3926   18.8869 C   0  0  0  0  0  0  0  0  0  0  0  0
   10.9979  -18.9039   20.1280 N   0  0  0  0  0  0  0  0  0  0  0  0
    9.3758  -15.3271   22.8286 C   0  0  0  0  0  0  0  0  0  0  0  0
    9.4058  -14.0775   22.7488 O   0  0  0  0  0  0  0  0  0  0  0  0
    6.0892  -12.8572   24.8662 C   0  0  0  0  0  0  0  0  0  0  0  0
    7.4520  -13.4249   24.5276 C   0  0  0  0  0  0  0  0  0  0  0  0
    7.6877  -14.7455   25.1771 C   0  0  2  0  0  0  0  0  0  0  0  0
    6.8926  -14.8657   26.4282 C   0  0  0  0  0  0  0  0  0  0  0  0
    9.1576  -15.1039   25.2788 C   0  0  2  0  0  0  0  0  0  0  0  0
    9.4908  -15.9248   24.1044 N   0  0  0  0  0  0  0  0  0  0  0  0
    9.3979  -15.8819   26.5379 C   0  0  0  0  0  0  0  0  0  0  0  0
    8.7679  -16.9678   26.5706 O   0  0  0  0  0  0  0  0  0  0  0  0
   10.2436  -15.4564   27.5814 N   0  0  0  0  0  0  0  0  0  0  0  0
   10.8664  -14.1110   27.6842 C   0  0  0  0  0  0  0  0  0  0  0  0
   10.5919  -13.7219   29.0961 C   0  0  0  0  0  0  0  0  0  0  0  0
   10.3346  -15.0321   29.8065 C   0  0  0  0  0  0  0  0  0  0  0  0
   10.7504  -16.0912   28.7472 C   0  0  1  0  0  0  0  0  0  0  0  0
   10.3202  -17.3984   29.1442 C   0  0  0  0  0  0  0  0  0  0  0  0
    8.9641  -17.7472   28.9610 O   0  0  0  0  0  0  0  0  0  0  0  0
   11.0238  -18.2695   29.6393 O   0  0  0  0  0  0  0  0  0  0  0  0
  2  1  1  6
  3  2  1  0
  4  5  2  0
  4  3  1  0
  6  5  1  0
  7  8  2  0
  7  6  1  0
  8  4  1  0
  9 16  1  0
  9  2  1  0
 10  9  2  0
 12 11  1  0
 13 15  1  0
 13 12  1  0
 13 14  1  1
 15 16  1  6
 17 15  1  0
 18 17  2  0
 19 17  1  0
 19 20  1  0
 21 20  1  0
 22 23  1  0
 22 21  1  0
 23 24  1  1
 23 19  1  0
 24 25  1  0
 26 24  2  0
M  END
$$$$
