HIP.pdb
     RDKit          3D

 26 27  0  0  1  0  0  0  0  0999 V2000
   10.0370  -15.7946   20.9722 N   0  0  0  0  0  0  0  0  0  0  0  0
    9.1175  -16.3612   21.9328 C   0  0  1  0  0  0  0  0  0  0  0  0
    9.4538  -17.7905   22.2732 C   0  0  0  0  0  0  0  0  0  0  0  0
    9.1256  -18.7351   21.1895 C   0  0  0  0  0  0  0  0  0  0  0  0
    8.7013  -18.5317   19.9073 C   0  0  0  0  0  0  0  0  0  0  0  0
    8.5302  -19.7101   19.2849 N   0  0  0  0  0  0  0  0  0  0  0  0
    8.8537  -20.6487   20.1973 C   0  0  0  0  0  0  0  0  0  0  0  0
    9.2143  -20.0677   21.3500 N   0  0  0  0  0  0  0  0  0  0  0  0
    9.2420  -15.5898   23.1915 C   0  0  0  0  0  0  0  0  0  0  0  0
   10.3602  -15.1020   23.4754 O   0  0  0  0  0  0  0  0  0  0  0  0
    5.1868  -12.6121   25.2984 C   0  0  0  0  0  0  0  0  0  0  0  0
    6.5423  -13.1143   24.8463 C   0  0  0  0  0  0  0  0  0  0  0  0
    7.1433  -14.0658   25.8234 C   0  0  2  0  0  0  0  0  0  0  0  0
    7.1534  -13.4798   27.1902 C   0  0  0  0  0  0  0  0  0  0  0  0
    8.4492  -14.6671   25.3411 C   0  0  2  0  0  0  0  0  0  0  0  0
    8.1669  -15.3776   24.0843 N   0  0  0  0  0  0  0  0  0  0  0  0
    8.9703  -15.6250   26.3704 C   0  0  0  0  0  0  0  0  0  0  0  0
    8.3331  -16.7067   26.4000 O   0  0  0  0  0  0  0  0  0  0  0  0
   10.0631  -15.3573   27.2186 N   0  0  0  0  0  0  0  0  0  0  0  0
   10.9795  -14.1942   27.0933 C   0  0  0  0  0  0  0  0  0  0  0  0
   11.0572  -13.6772   28.4886 C   0  0  0  0  0  0  0  0  0  0  0  0
   10.6448  -14.8499   29.3501 C   0  0  0  0  0  0  0  0  0  0  0  0
   10.6156  -16.0317   28.3406 C   0  0  1  0  0  0  0  0  0  0  0  0
    9.9820  -17.1771   28.9219 C   0  0  0  0  0  0  0  0  0  0  0  0
   10.7365  -17.9994   29.7870 O   0  0  0  0  0  0  0  0  0  0  0  0
    8.8228  -17.5281   28.7429 O   0  0  0  0  0  0  0  0  0  0  0  0
  2  1  1  6
  3  2  1  0
  4  5  2  0
  4  3  1  0
  6  5  1  0
  7  8  2  0
  7  6  1  0
  8  4  1  0
  9 16  1  0
  9  2  1  0
 10  9  2  0
 12 11  1  0
 13 15  1  0
 13 12  1  0
 13 14  1  1
 15 16  1  6
 17 15  1  0
 18 17  2  0
 19 17  1  0
 19 20  1  0
 21 20  1  0
 22 23  1  0
 22 21  1  0
 23 24  1  1
 23 19  1  0
 24 25  1  0
 26 24  2  0
M  END
$$$$
