QMY.pdb
     RDKit          3D

 30 30  0  0  1  0  0  0  0  0999 V2000
    8.0489  -12.3145   17.0829 N   0  0  0  0  0  0  0  0  0  0  0  0
    7.6665  -13.5693   16.4921 C   0  0  0  0  0  0  0  0  0  0  0  0
    7.4806  -13.6990   15.2729 O   0  0  0  0  0  0  0  0  0  0  0  0
    7.5027  -14.7094   17.4090 C   0  0  0  0  0  0  0  0  0  0  0  0
    7.8475  -14.2653   18.8048 C   0  0  0  0  0  0  0  0  0  0  0  0
    8.3991  -15.3827   19.6582 C   0  0  2  0  0  0  0  0  0  0  0  0
    7.4139  -16.4294   19.7585 N   0  0  0  0  0  0  0  0  0  0  0  0
    8.8331  -14.8762   20.9658 C   0  0  0  0  0  0  0  0  0  0  0  0
    9.7276  -14.0067   21.0999 O   0  0  0  0  0  0  0  0  0  0  0  0
    7.2918  -11.9763   26.5063 C   0  0  0  0  0  0  0  0  0  0  0  0
    6.0693  -13.0090   25.6403 S   0  0  0  0  0  0  0  0  0  0  0  0
    6.8836  -13.6714   24.1504 C   0  0  0  0  0  0  0  0  0  0  0  0
    7.6586  -14.9092   24.4441 C   0  0  0  0  0  0  0  0  0  0  0  0
    8.7904  -15.0434   23.4568 C   0  0  2  0  0  0  0  0  0  0  0  0
    8.2367  -15.3687   22.1630 N   0  0  0  0  0  0  0  0  0  0  0  0
    9.6651  -16.1532   23.9104 C   0  0  0  0  0  0  0  0  0  0  0  0
    9.2426  -17.3560   23.9083 O   0  0  0  0  0  0  0  0  0  0  0  0
   10.9943  -13.7075   30.5631 O   0  0  0  0  0  0  0  0  0  0  0  0
   10.9659  -14.6110   29.4884 C   0  0  0  0  0  0  0  0  0  0  0  0
   11.9906  -15.5181   29.3074 C   0  0  0  0  0  0  0  0  0  0  0  0
   11.9236  -16.3884   28.2383 C   0  0  0  0  0  0  0  0  0  0  0  0
   10.8302  -16.3357   27.3670 C   0  0  0  0  0  0  0  0  0  0  0  0
   10.8063  -17.2763   26.2528 C   0  0  0  0  0  0  0  0  0  0  0  0
   11.6960  -16.8773   25.1010 C   0  0  2  0  0  0  0  0  0  0  0  0
   10.9868  -15.8695   24.3509 N   0  0  0  0  0  0  0  0  0  0  0  0
   12.0806  -18.0034   24.2509 C   0  0  0  0  0  0  0  0  0  0  0  0
   12.8567  -19.0343   24.7214 O   0  0  0  0  0  0  0  0  0  0  0  0
    9.8051  -15.4351   27.5400 C   0  0  0  0  0  0  0  0  0  0  0  0
    9.8879  -14.5727   28.6135 C   0  0  0  0  0  0  0  0  0  0  0  0
   11.6908  -18.0291   23.0577 O   0  0  0  0  0  0  0  0  0  0  0  0
  2  4  1  0
  2  1  1  0
  3  2  2  0
  5  6  1  0
  5  4  1  0
  6  7  1  1
  8 15  1  0
  8  6  1  0
  9  8  2  0
 10 11  1  0
 11 12  1  0
 12 13  1  0
 14 15  1  0
 14 13  1  1
 16 14  1  0
 17 16  2  0
 18 19  1  0
 19 20  2  0
 19 29  1  0
 20 21  1  0
 21 22  2  0
 22 23  1  0
 24 23  1  1
 24 25  1  0
 25 16  1  0
 26 27  1  0
 26 24  1  0
 28 22  1  0
 29 28  2  0
 30 26  2  0
M  END
$$$$
