QMY.pdb
     RDKit          3D

 30 30  0  0  1  0  0  0  0  0999 V2000
    8.8946  -13.3907   18.4553 N   0  0  0  0  0  0  0  0  0  0  0  0
    7.5732  -13.9563   18.5170 C   0  0  0  0  0  0  0  0  0  0  0  0
    6.5643  -13.3239   18.1710 O   0  0  0  0  0  0  0  0  0  0  0  0
    7.4677  -15.3375   19.0156 C   0  0  0  0  0  0  0  0  0  0  0  0
    8.8396  -15.8237   19.3972 C   0  0  0  0  0  0  0  0  0  0  0  0
    8.8474  -16.6100   20.6867 C   0  0  2  0  0  0  0  0  0  0  0  0
    7.6356  -17.3850   20.7734 N   0  0  0  0  0  0  0  0  0  0  0  0
    9.0442  -15.7223   21.8391 C   0  0  0  0  0  0  0  0  0  0  0  0
    9.9905  -14.9021   21.9168 O   0  0  0  0  0  0  0  0  0  0  0  0
    6.2424  -11.4909   27.6225 C   0  0  0  0  0  0  0  0  0  0  0  0
    5.7924  -12.5847   26.2397 S   0  0  0  0  0  0  0  0  0  0  0  0
    7.3081  -13.4593   25.7303 C   0  0  0  0  0  0  0  0  0  0  0  0
    7.0877  -14.2922   24.5152 C   0  0  0  0  0  0  0  0  0  0  0  0
    8.3780  -14.9672   24.1240 C   0  0  2  0  0  0  0  0  0  0  0  0
    8.1417  -15.7623   22.9415 N   0  0  0  0  0  0  0  0  0  0  0  0
    8.7874  -15.8557   25.2401 C   0  0  0  0  0  0  0  0  0  0  0  0
    7.9146  -16.4899   25.9193 O   0  0  0  0  0  0  0  0  0  0  0  0
    6.0117  -21.1311   28.1931 O   0  0  0  0  0  0  0  0  0  0  0  0
    7.0622  -20.4421   27.5656 C   0  0  0  0  0  0  0  0  0  0  0  0
    8.2780  -20.2877   28.2010 C   0  0  0  0  0  0  0  0  0  0  0  0
    9.2840  -19.6037   27.5488 C   0  0  0  0  0  0  0  0  0  0  0  0
    9.0553  -19.0851   26.2697 C   0  0  0  0  0  0  0  0  0  0  0  0
   10.1499  -18.3706   25.6232 C   0  0  0  0  0  0  0  0  0  0  0  0
   10.5794  -17.1237   26.3568 C   0  0  2  0  0  0  0  0  0  0  0  0
   10.1669  -15.9991   25.5528 N   0  0  0  0  0  0  0  0  0  0  0  0
   12.0145  -17.0827   26.6355 C   0  0  0  0  0  0  0  0  0  0  0  0
   12.8522  -16.2032   25.9942 O   0  0  0  0  0  0  0  0  0  0  0  0
    7.8471  -19.2344   25.6296 C   0  0  0  0  0  0  0  0  0  0  0  0
    6.8528  -19.9206   26.2955 C   0  0  0  0  0  0  0  0  0  0  0  0
   12.4946  -17.8732   27.4846 O   0  0  0  0  0  0  0  0  0  0  0  0
  2  4  1  0
  2  1  1  0
  3  2  2  0
  5  6  1  0
  5  4  1  0
  6  7  1  1
  8 15  1  0
  8  6  1  0
  9  8  2  0
 10 11  1  0
 11 12  1  0
 12 13  1  0
 14 15  1  0
 14 13  1  1
 16 14  1  0
 17 16  2  0
 18 19  1  0
 19 20  2  0
 19 29  1  0
 20 21  1  0
 21 22  2  0
 22 23  1  0
 24 23  1  6
 24 25  1  0
 25 16  1  0
 26 27  1  0
 26 24  1  0
 28 22  1  0
 29 28  2  0
 30 26  2  0
M  END
$$$$
