QMY.pdb
     RDKit          3D

 30 30  0  0  1  0  0  0  0  0999 V2000
   11.4123  -18.2579   17.5510 N   0  0  0  0  0  0  0  0  0  0  0  0
   10.1022  -18.8480   17.4786 C   0  0  0  0  0  0  0  0  0  0  0  0
    9.8130  -19.7207   16.6465 O   0  0  0  0  0  0  0  0  0  0  0  0
    9.1050  -18.3653   18.4481 C   0  0  0  0  0  0  0  0  0  0  0  0
    9.7221  -17.2726   19.2784 C   0  0  0  0  0  0  0  0  0  0  0  0
    9.3971  -17.3960   20.7482 C   0  0  2  0  0  0  0  0  0  0  0  0
    8.1242  -18.0549   20.8958 N   0  0  0  0  0  0  0  0  0  0  0  0
    9.4438  -16.0844   21.4058 C   0  0  0  0  0  0  0  0  0  0  0  0
   10.4294  -15.3124   21.3229 O   0  0  0  0  0  0  0  0  0  0  0  0
    5.4748  -11.9674   26.2438 C   0  0  0  0  0  0  0  0  0  0  0  0
    7.0262  -12.6901   25.6259 S   0  0  0  0  0  0  0  0  0  0  0  0
    6.9844  -12.5796   23.8072 C   0  0  0  0  0  0  0  0  0  0  0  0
    6.9703  -13.9252   23.1686 C   0  0  0  0  0  0  0  0  0  0  0  0
    8.3826  -14.3524   22.8580 C   0  0  2  0  0  0  0  0  0  0  0  0
    8.3397  -15.6290   22.1837 N   0  0  0  0  0  0  0  0  0  0  0  0
    9.1102  -14.4993   24.1430 C   0  0  0  0  0  0  0  0  0  0  0  0
    8.8880  -13.6996   25.1107 O   0  0  0  0  0  0  0  0  0  0  0  0
   11.7511  -16.7851   31.7383 O   0  0  0  0  0  0  0  0  0  0  0  0
   11.2320  -16.5531   30.4543 C   0  0  0  0  0  0  0  0  0  0  0  0
   10.7090  -17.5920   29.7109 C   0  0  0  0  0  0  0  0  0  0  0  0
   10.2090  -17.3206   28.4534 C   0  0  0  0  0  0  0  0  0  0  0  0
   10.2411  -16.0115   27.9607 C   0  0  0  0  0  0  0  0  0  0  0  0
    9.7007  -15.7767   26.6268 C   0  0  0  0  0  0  0  0  0  0  0  0
   10.7560  -15.6693   25.5533 C   0  0  2  0  0  0  0  0  0  0  0  0
   10.0639  -15.5429   24.2938 N   0  0  0  0  0  0  0  0  0  0  0  0
   11.6847  -16.7990   25.5411 C   0  0  0  0  0  0  0  0  0  0  0  0
   11.4044  -17.9600   24.8629 O   0  0  0  0  0  0  0  0  0  0  0  0
   10.7604  -14.9707   28.6947 C   0  0  0  0  0  0  0  0  0  0  0  0
   11.2558  -15.2595   29.9493 C   0  0  0  0  0  0  0  0  0  0  0  0
   12.7686  -16.7054   26.1678 O   0  0  0  0  0  0  0  0  0  0  0  0
  2  4  1  0
  2  1  1  0
  3  2  2  0
  5  6  1  0
  5  4  1  0
  6  7  1  6
  8 15  1  0
  8  6  1  0
  9  8  2  0
 10 11  1  0
 11 12  1  0
 12 13  1  0
 14 15  1  0
 14 13  1  1
 16 14  1  0
 17 16  2  0
 18 19  1  0
 19 20  2  0
 19 29  1  0
 20 21  1  0
 21 22  2  0
 22 23  1  0
 24 23  1  1
 24 25  1  0
 25 16  1  0
 26 27  1  0
 26 24  1  0
 28 22  1  0
 29 28  2  0
 30 26  2  0
M  END
$$$$
