QMY.pdb
     RDKit          3D

 30 30  0  0  1  0  0  0  0  0999 V2000
    8.3924  -20.3939   18.9366 N   0  0  0  0  0  0  0  0  0  0  0  0
    9.4397  -19.9180   19.8006 C   0  0  0  0  0  0  0  0  0  0  0  0
   10.3881  -20.6360   20.1509 O   0  0  0  0  0  0  0  0  0  0  0  0
    9.3365  -18.5225   20.2581 C   0  0  0  0  0  0  0  0  0  0  0  0
    8.0950  -17.9078   19.6707 C   0  0  0  0  0  0  0  0  0  0  0  0
    8.2246  -16.4198   19.4469 C   0  0  2  0  0  0  0  0  0  0  0  0
    9.0615  -16.1873   18.2971 N   0  0  0  0  0  0  0  0  0  0  0  0
    8.7143  -15.7498   20.6577 C   0  0  0  0  0  0  0  0  0  0  0  0
    9.9273  -15.7139   20.9765 O   0  0  0  0  0  0  0  0  0  0  0  0
    5.4482  -12.8950   26.3376 C   0  0  0  0  0  0  0  0  0  0  0  0
    6.2488  -11.7741   25.1487 S   0  0  0  0  0  0  0  0  0  0  0  0
    7.6080  -12.7020   24.3657 C   0  0  0  0  0  0  0  0  0  0  0  0
    7.1248  -13.5562   23.2450 C   0  0  0  0  0  0  0  0  0  0  0  0
    8.2796  -14.3370   22.6701 C   0  0  2  0  0  0  0  0  0  0  0  0
    7.8030  -15.0980   21.5387 N   0  0  0  0  0  0  0  0  0  0  0  0
    8.7701  -15.2676   23.7170 C   0  0  0  0  0  0  0  0  0  0  0  0
    8.2438  -16.4198   23.8605 O   0  0  0  0  0  0  0  0  0  0  0  0
   11.7504  -17.1086   31.6826 O   0  0  0  0  0  0  0  0  0  0  0  0
   11.5894  -16.5471   30.4056 C   0  0  0  0  0  0  0  0  0  0  0  0
   11.2338  -15.2209   30.2623 C   0  0  0  0  0  0  0  0  0  0  0  0
   11.0860  -14.7087   28.9892 C   0  0  0  0  0  0  0  0  0  0  0  0
   11.2971  -15.5341   27.8794 C   0  0  0  0  0  0  0  0  0  0  0  0
   11.1284  -14.9453   26.5559 C   0  0  0  0  0  0  0  0  0  0  0  0
   10.2255  -15.7423   25.6465 C   0  0  2  0  0  0  0  0  0  0  0  0
    9.8376  -14.8677   24.5667 N   0  0  0  0  0  0  0  0  0  0  0  0
    9.0576  -16.2950   26.3316 C   0  0  0  0  0  0  0  0  0  0  0  0
    9.0000  -17.6119   26.7174 O   0  0  0  0  0  0  0  0  0  0  0  0
   11.6515  -16.8563   28.0132 C   0  0  0  0  0  0  0  0  0  0  0  0
   11.7949  -17.3520   29.2926 C   0  0  0  0  0  0  0  0  0  0  0  0
    8.0801  -15.5452   26.5739 O   0  0  0  0  0  0  0  0  0  0  0  0
  2  4  1  0
  2  1  1  0
  3  2  2  0
  5  6  1  0
  5  4  1  0
  6  7  1  6
  8 15  1  0
  8  6  1  0
  9  8  2  0
 10 11  1  0
 11 12  1  0
 12 13  1  0
 14 15  1  0
 14 13  1  1
 16 14  1  0
 17 16  2  0
 18 19  1  0
 19 20  2  0
 19 29  1  0
 20 21  1  0
 21 22  2  0
 22 23  1  0
 24 23  1  1
 24 25  1  0
 25 16  1  0
 26 27  1  0
 26 24  1  0
 28 22  1  0
 29 28  2  0
 30 26  2  0
M  END
$$$$
