QMY.pdb
     RDKit          3D

 30 30  0  0  1  0  0  0  0  0999 V2000
    8.4208  -12.2448   18.3745 N   0  0  0  0  0  0  0  0  0  0  0  0
    7.7177  -13.3806   17.8403 C   0  0  0  0  0  0  0  0  0  0  0  0
    7.4590  -13.4926   16.6328 O   0  0  0  0  0  0  0  0  0  0  0  0
    7.3125  -14.4194   18.8015 C   0  0  0  0  0  0  0  0  0  0  0  0
    7.8216  -14.0448   20.1671 C   0  0  0  0  0  0  0  0  0  0  0  0
    8.3538  -15.2273   20.9413 C   0  0  2  0  0  0  0  0  0  0  0  0
    7.3831  -16.2915   20.9024 N   0  0  0  0  0  0  0  0  0  0  0  0
    8.7208  -14.8353   22.3075 C   0  0  0  0  0  0  0  0  0  0  0  0
    9.5953  -13.9717   22.5596 O   0  0  0  0  0  0  0  0  0  0  0  0
    6.7895  -11.8654   27.6487 C   0  0  0  0  0  0  0  0  0  0  0  0
    5.6436  -12.8060   26.5938 S   0  0  0  0  0  0  0  0  0  0  0  0
    6.6233  -13.5058   25.2256 C   0  0  0  0  0  0  0  0  0  0  0  0
    7.1857  -14.8413   25.5706 C   0  0  0  0  0  0  0  0  0  0  0  0
    8.4455  -15.0798   24.7772 C   0  0  2  0  0  0  0  0  0  0  0  0
    8.0783  -15.4393   23.4273 N   0  0  0  0  0  0  0  0  0  0  0  0
    9.1759  -16.2088   25.4052 C   0  0  0  0  0  0  0  0  0  0  0  0
    8.7830  -17.4100   25.2382 O   0  0  0  0  0  0  0  0  0  0  0  0
   12.9808  -17.7215   20.8848 O   0  0  0  0  0  0  0  0  0  0  0  0
   12.8387  -17.5409   22.2702 C   0  0  0  0  0  0  0  0  0  0  0  0
   13.0359  -16.2988   22.8394 C   0  0  0  0  0  0  0  0  0  0  0  0
   12.8862  -16.1647   24.2049 C   0  0  0  0  0  0  0  0  0  0  0  0
   12.5410  -17.2781   24.9786 C   0  0  0  0  0  0  0  0  0  0  0  0
   12.3948  -17.0843   26.4166 C   0  0  0  0  0  0  0  0  0  0  0  0
   10.9599  -17.0466   26.8823 C   0  0  2  0  0  0  0  0  0  0  0  0
   10.3247  -15.9454   26.2002 N   0  0  0  0  0  0  0  0  0  0  0  0
   10.8264  -16.9240   28.3335 C   0  0  0  0  0  0  0  0  0  0  0  0
   10.1655  -15.8690   28.9137 O   0  0  0  0  0  0  0  0  0  0  0  0
   12.3427  -18.5190   24.4196 C   0  0  0  0  0  0  0  0  0  0  0  0
   12.4964  -18.6354   23.0536 C   0  0  0  0  0  0  0  0  0  0  0  0
   11.3298  -17.8076   29.0700 O   0  0  0  0  0  0  0  0  0  0  0  0
  2  4  1  0
  2  1  1  0
  3  2  2  0
  5  6  1  0
  5  4  1  0
  6  7  1  1
  8 15  1  0
  8  6  1  0
  9  8  2  0
 10 11  1  0
 11 12  1  0
 12 13  1  0
 14 15  1  0
 14 13  1  1
 16 14  1  0
 17 16  2  0
 18 19  1  0
 19 20  2  0
 19 29  1  0
 20 21  1  0
 21 22  2  0
 22 23  1  0
 24 23  1  1
 24 25  1  0
 25 16  1  0
 26 27  1  0
 26 24  1  0
 28 22  1  0
 29 28  2  0
 30 26  2  0
M  END
$$$$
