QMY.pdb
     RDKit          3D

 30 30  0  0  1  0  0  0  0  0999 V2000
    9.2267  -12.8966   17.5536 N   0  0  0  0  0  0  0  0  0  0  0  0
    8.2850  -13.9285   17.2097 C   0  0  0  0  0  0  0  0  0  0  0  0
    7.6736  -13.9356   16.1309 O   0  0  0  0  0  0  0  0  0  0  0  0
    8.0749  -14.9910   18.2068 C   0  0  0  0  0  0  0  0  0  0  0  0
    9.0038  -14.7601   19.3678 C   0  0  0  0  0  0  0  0  0  0  0  0
    8.8910  -15.8256   20.4323 C   0  0  2  0  0  0  0  0  0  0  0  0
    7.5829  -16.4257   20.3617 N   0  0  0  0  0  0  0  0  0  0  0  0
    9.1987  -15.2748   21.7578 C   0  0  0  0  0  0  0  0  0  0  0  0
   10.3646  -14.9979   22.1295 O   0  0  0  0  0  0  0  0  0  0  0  0
    6.5679  -11.1973   27.8378 C   0  0  0  0  0  0  0  0  0  0  0  0
    6.0267  -12.1549   26.3883 S   0  0  0  0  0  0  0  0  0  0  0  0
    7.4868  -13.0421   25.7538 C   0  0  0  0  0  0  0  0  0  0  0  0
    7.1788  -13.8023   24.5105 C   0  0  0  0  0  0  0  0  0  0  0  0
    8.4372  -14.4473   23.9872 C   0  0  2  0  0  0  0  0  0  0  0  0
    8.1540  -15.0285   22.6956 N   0  0  0  0  0  0  0  0  0  0  0  0
    8.8301  -15.5207   24.9338 C   0  0  0  0  0  0  0  0  0  0  0  0
    8.5194  -16.7355   24.7039 O   0  0  0  0  0  0  0  0  0  0  0  0
   10.8148  -22.1824   24.7073 O   0  0  0  0  0  0  0  0  0  0  0  0
   10.9350  -20.8264   25.0522 C   0  0  0  0  0  0  0  0  0  0  0  0
   10.4520  -20.3645   26.2601 C   0  0  0  0  0  0  0  0  0  0  0  0
   10.5906  -19.0243   26.5599 C   0  0  0  0  0  0  0  0  0  0  0  0
   11.2113  -18.1681   25.6440 C   0  0  0  0  0  0  0  0  0  0  0  0
   11.3333  -16.7611   26.0077 C   0  0  0  0  0  0  0  0  0  0  0  0
   10.1917  -16.2502   26.8522 C   0  0  2  0  0  0  0  0  0  0  0  0
    9.5599  -15.1881   26.1078 N   0  0  0  0  0  0  0  0  0  0  0  0
   10.6114  -15.7966   28.1776 C   0  0  0  0  0  0  0  0  0  0  0  0
   10.5605  -14.4728   28.5400 O   0  0  0  0  0  0  0  0  0  0  0  0
   11.6953  -18.6200   24.4385 C   0  0  0  0  0  0  0  0  0  0  0  0
   11.5486  -19.9621   24.1548 C   0  0  0  0  0  0  0  0  0  0  0  0
   11.0300  -16.6404   29.0078 O   0  0  0  0  0  0  0  0  0  0  0  0
  2  4  1  0
  2  1  1  0
  3  2  2  0
  5  6  1  0
  5  4  1  0
  6  7  1  1
  8 15  1  0
  8  6  1  0
  9  8  2  0
 10 11  1  0
 11 12  1  0
 12 13  1  0
 14 15  1  0
 14 13  1  1
 16 14  1  0
 17 16  2  0
 18 19  1  0
 19 20  2  0
 19 29  1  0
 20 21  1  0
 21 22  2  0
 22 23  1  0
 24 23  1  6
 24 25  1  0
 25 16  1  0
 26 27  1  0
 26 24  1  0
 28 22  1  0
 29 28  2  0
 30 26  2  0
M  END
$$$$
