QMY.pdb
     RDKit          3D

 30 30  0  0  1  0  0  0  0  0999 V2000
    4.3358  -20.8459   20.7383 N   0  0  0  0  0  0  0  0  0  0  0  0
    5.4519  -21.1926   21.5773 C   0  0  0  0  0  0  0  0  0  0  0  0
    5.3917  -22.1010   22.4192 O   0  0  0  0  0  0  0  0  0  0  0  0
    6.6863  -20.4122   21.3916 C   0  0  0  0  0  0  0  0  0  0  0  0
    6.6243  -19.1876   22.2639 C   0  0  0  0  0  0  0  0  0  0  0  0
    7.0596  -17.9318   21.5466 C   0  0  2  0  0  0  0  0  0  0  0  0
    7.8410  -18.2954   20.3918 N   0  0  0  0  0  0  0  0  0  0  0  0
    7.7709  -17.0284   22.4592 C   0  0  0  0  0  0  0  0  0  0  0  0
    9.0130  -17.0688   22.6311 O   0  0  0  0  0  0  0  0  0  0  0  0
    7.4449  -10.6725   27.0303 C   0  0  0  0  0  0  0  0  0  0  0  0
    6.4259  -11.7861   26.0143 S   0  0  0  0  0  0  0  0  0  0  0  0
    7.4771  -13.1992   25.5452 C   0  0  0  0  0  0  0  0  0  0  0  0
    6.7761  -14.1298   24.6172 C   0  0  0  0  0  0  0  0  0  0  0  0
    7.7277  -15.2109   24.1708 C   0  0  2  0  0  0  0  0  0  0  0  0
    7.0549  -16.0458   23.2031 N   0  0  0  0  0  0  0  0  0  0  0  0
    8.0859  -16.0255   25.3584 C   0  0  0  0  0  0  0  0  0  0  0  0
    7.1786  -16.5518   26.0830 O   0  0  0  0  0  0  0  0  0  0  0  0
    6.3113  -22.4981   26.7117 O   0  0  0  0  0  0  0  0  0  0  0  0
    7.2862  -21.4998   26.5536 C   0  0  0  0  0  0  0  0  0  0  0  0
    8.6281  -21.8237   26.5537 C   0  0  0  0  0  0  0  0  0  0  0  0
    9.5536  -20.8120   26.3954 C   0  0  0  0  0  0  0  0  0  0  0  0
    9.1193  -19.4912   26.2395 C   0  0  0  0  0  0  0  0  0  0  0  0
   10.1362  -18.4589   26.0758 C   0  0  0  0  0  0  0  0  0  0  0  0
    9.7865  -17.1500   26.7405 C   0  0  2  0  0  0  0  0  0  0  0  0
    9.4550  -16.2193   25.6892 N   0  0  0  0  0  0  0  0  0  0  0  0
   10.8547  -16.6321   27.5946 C   0  0  0  0  0  0  0  0  0  0  0  0
   11.1480  -17.1978   28.8113 O   0  0  0  0  0  0  0  0  0  0  0  0
    7.7843  -19.1599   26.2383 C   0  0  0  0  0  0  0  0  0  0  0  0
    6.8729  -20.1831   26.3976 C   0  0  0  0  0  0  0  0  0  0  0  0
   11.5226  -15.6428   27.2053 O   0  0  0  0  0  0  0  0  0  0  0  0
  2  4  1  0
  2  1  1  0
  3  2  2  0
  5  6  1  0
  5  4  1  0
  6  7  1  6
  8 15  1  0
  8  6  1  0
  9  8  2  0
 10 11  1  0
 11 12  1  0
 12 13  1  0
 14 15  1  0
 14 13  1  1
 16 14  1  0
 17 16  2  0
 18 19  1  0
 19 20  2  0
 19 29  1  0
 20 21  1  0
 21 22  2  0
 22 23  1  0
 24 23  1  6
 24 25  1  0
 25 16  1  0
 26 27  1  0
 26 24  1  0
 28 22  1  0
 29 28  2  0
 30 26  2  0
M  END
$$$$
