QMY.pdb
     RDKit          3D

 30 30  0  0  1  0  0  0  0  0999 V2000
    9.0683  -18.3531   16.3896 N   0  0  0  0  0  0  0  0  0  0  0  0
    7.8631  -17.5909   16.1987 C   0  0  0  0  0  0  0  0  0  0  0  0
    7.0374  -17.8659   15.3154 O   0  0  0  0  0  0  0  0  0  0  0  0
    7.6483  -16.4543   17.1094 C   0  0  0  0  0  0  0  0  0  0  0  0
    8.7867  -16.3951   18.0916 C   0  0  0  0  0  0  0  0  0  0  0  0
    8.3976  -16.8678   19.4722 C   0  0  2  0  0  0  0  0  0  0  0  0
    6.9604  -16.8933   19.5740 N   0  0  0  0  0  0  0  0  0  0  0  0
    9.0312  -16.0403   20.5060 C   0  0  0  0  0  0  0  0  0  0  0  0
   10.2615  -15.7951   20.5268 O   0  0  0  0  0  0  0  0  0  0  0  0
    6.0144  -13.3766   25.9434 C   0  0  0  0  0  0  0  0  0  0  0  0
    7.2705  -12.1823   25.3896 S   0  0  0  0  0  0  0  0  0  0  0  0
    8.4880  -13.1043   24.3950 C   0  0  0  0  0  0  0  0  0  0  0  0
    7.8324  -13.9635   23.3700 C   0  0  0  0  0  0  0  0  0  0  0  0
    8.8750  -14.7921   22.6629 C   0  0  2  0  0  0  0  0  0  0  0  0
    8.2487  -15.4701   21.5519 N   0  0  0  0  0  0  0  0  0  0  0  0
    9.3912  -15.7977   23.6247 C   0  0  0  0  0  0  0  0  0  0  0  0
    8.7062  -16.8339   23.9116 O   0  0  0  0  0  0  0  0  0  0  0  0
   10.9497  -13.9506   31.1414 O   0  0  0  0  0  0  0  0  0  0  0  0
   10.6935  -14.6159   29.9315 C   0  0  0  0  0  0  0  0  0  0  0  0
   10.8180  -15.9881   29.8457 C   0  0  0  0  0  0  0  0  0  0  0  0
   10.5568  -16.6025   28.6377 C   0  0  0  0  0  0  0  0  0  0  0  0
   10.1747  -15.8316   27.5344 C   0  0  0  0  0  0  0  0  0  0  0  0
    9.9099  -16.5281   26.2808 C   0  0  0  0  0  0  0  0  0  0  0  0
   11.0591  -16.4796   25.3038 C   0  0  2  0  0  0  0  0  0  0  0  0
   10.6623  -15.6010   24.2306 N   0  0  0  0  0  0  0  0  0  0  0  0
   11.4452  -17.7972   24.8000 C   0  0  0  0  0  0  0  0  0  0  0  0
   12.0997  -18.7112   25.5890 O   0  0  0  0  0  0  0  0  0  0  0  0
   10.0482  -14.4642   27.6113 C   0  0  0  0  0  0  0  0  0  0  0  0
   10.3130  -13.8663   28.8260 C   0  0  0  0  0  0  0  0  0  0  0  0
   11.1709  -18.1017   23.6133 O   0  0  0  0  0  0  0  0  0  0  0  0
  2  4  1  0
  2  1  1  0
  3  2  2  0
  5  6  1  0
  5  4  1  0
  6  7  1  6
  8 15  1  0
  8  6  1  0
  9  8  2  0
 10 11  1  0
 11 12  1  0
 12 13  1  0
 14 15  1  0
 14 13  1  1
 16 14  1  0
 17 16  2  0
 18 19  1  0
 19 20  2  0
 19 29  1  0
 20 21  1  0
 21 22  2  0
 22 23  1  0
 24 23  1  1
 24 25  1  0
 25 16  1  0
 26 27  1  0
 26 24  1  0
 28 22  1  0
 29 28  2  0
 30 26  2  0
M  END
$$$$
