THQ.pdb
     RDKit          3D

 27 27  0  0  1  0  0  0  0  0999 V2000
   11.0126  -20.9037   17.5712 C   0  0  0  0  0  0  0  0  0  0  0  0
   11.2342  -19.7417   18.5164 C   0  0  1  0  0  0  0  0  0  0  0  0
   12.5201  -19.7760   19.0128 O   0  0  0  0  0  0  0  0  0  0  0  0
   11.0268  -18.4149   17.8398 C   0  0  2  0  0  0  0  0  0  0  0  0
   11.9627  -18.3095   16.7509 N   0  0  0  0  0  0  0  0  0  0  0  0
   11.1707  -17.3447   18.8321 C   0  0  0  0  0  0  0  0  0  0  0  0
   12.2795  -16.7385   18.8766 O   0  0  0  0  0  0  0  0  0  0  0  0
   10.1509  -16.9485   19.7398 N   0  0  0  0  0  0  0  0  0  0  0  0
   10.3779  -15.8795   20.6567 C   0  0  1  0  0  0  0  0  0  0  0  0
    9.1040  -15.2570   21.1732 C   0  0  0  0  0  0  0  0  0  0  0  0
    8.4399  -14.4057   20.1758 C   0  0  0  0  0  0  0  0  0  0  0  0
    9.0067  -14.1030   18.9521 C   0  0  0  0  0  0  0  0  0  0  0  0
    8.1615  -13.3160   18.2808 N   0  0  0  0  0  0  0  0  0  0  0  0
    7.0652  -13.1021   19.0365 C   0  0  0  0  0  0  0  0  0  0  0  0
    7.2598  -13.7756   20.1834 N   0  0  0  0  0  0  0  0  0  0  0  0
   11.1305  -16.3491   21.8706 C   0  0  0  0  0  0  0  0  0  0  0  0
   11.2270  -17.5945   22.0109 O   0  0  0  0  0  0  0  0  0  0  0  0
   11.1298  -19.8823   25.2725 N   0  0  0  0  0  0  0  0  0  0  0  0
   12.2625  -19.2976   25.8830 C   0  0  0  0  0  0  0  0  0  0  0  0
   12.8838  -19.9480   26.7488 O   0  0  0  0  0  0  0  0  0  0  0  0
   12.6949  -17.9614   25.5082 C   0  0  0  0  0  0  0  0  0  0  0  0
   11.8769  -17.2410   24.5037 C   0  0  0  0  0  0  0  0  0  0  0  0
   12.4489  -15.9632   23.9803 C   0  0  2  0  0  0  0  0  0  0  0  0
   11.7032  -15.4826   22.8102 N   0  0  0  0  0  0  0  0  0  0  0  0
   13.8586  -16.1365   23.5813 C   0  0  0  0  0  0  0  0  0  0  0  0
   14.8318  -16.5485   24.5124 O   0  0  0  0  0  0  0  0  0  0  0  0
   14.2980  -15.9393   22.4200 O   0  0  0  0  0  0  0  0  0  0  0  0
  2  1  1  6
  2  4  1  0
  3  2  1  0
  4  5  1  6
  4  6  1  0
  6  7  2  0
  8  6  1  0
  8  9  1  0
  9 10  1  1
 11 10  1  0
 12 11  2  0
 13 12  1  0
 14 13  1  0
 14 15  2  0
 15 11  1  0
 16 17  2  0
 16  9  1  0
 18 19  1  0
 19 21  1  0
 20 19  2  0
 22 21  1  0
 23 22  1  6
 23 24  1  0
 24 16  1  0
 25 23  1  0
 25 26  1  0
 27 25  2  0
M  END
$$$$
