THQ.pdb
     RDKit          3D

 27 27  0  0  1  0  0  0  0  0999 V2000
    7.7211  -12.0870   19.4673 C   0  0  0  0  0  0  0  0  0  0  0  0
    8.2219  -13.1612   20.4098 C   0  0  1  0  0  0  0  0  0  0  0  0
    7.4354  -13.2000   21.5416 O   0  0  0  0  0  0  0  0  0  0  0  0
    8.2006  -14.5245   19.7758 C   0  0  2  0  0  0  0  0  0  0  0  0
    6.8588  -14.7972   19.3308 N   0  0  0  0  0  0  0  0  0  0  0  0
    8.7012  -15.5086   20.7411 C   0  0  0  0  0  0  0  0  0  0  0  0
    7.8468  -16.1159   21.4482 O   0  0  0  0  0  0  0  0  0  0  0  0
   10.0750  -15.8205   20.9309 N   0  0  0  0  0  0  0  0  0  0  0  0
   10.4713  -16.7414   21.9456 C   0  0  1  0  0  0  0  0  0  0  0  0
   11.8772  -17.2590   21.7646 C   0  0  0  0  0  0  0  0  0  0  0  0
   11.9897  -18.2332   20.6696 C   0  0  0  0  0  0  0  0  0  0  0  0
   10.9819  -19.1241   20.3524 C   0  0  0  0  0  0  0  0  0  0  0  0
   11.3880  -19.8676   19.3197 N   0  0  0  0  0  0  0  0  0  0  0  0
   12.6296  -19.4819   18.9612 C   0  0  0  0  0  0  0  0  0  0  0  0
   12.9721  -18.4869   19.7976 N   0  0  0  0  0  0  0  0  0  0  0  0
   10.4373  -16.1047   23.3072 C   0  0  0  0  0  0  0  0  0  0  0  0
   10.6692  -14.8697   23.3434 O   0  0  0  0  0  0  0  0  0  0  0  0
    6.6659  -13.3151   24.9389 N   0  0  0  0  0  0  0  0  0  0  0  0
    6.6838  -13.8842   26.2325 C   0  0  0  0  0  0  0  0  0  0  0  0
    6.0696  -13.3071   27.1536 O   0  0  0  0  0  0  0  0  0  0  0  0
    7.4062  -15.1201   26.4844 C   0  0  0  0  0  0  0  0  0  0  0  0
    8.1628  -15.7060   25.3523 C   0  0  0  0  0  0  0  0  0  0  0  0
    9.5445  -16.1856   25.6597 C   0  0  2  0  0  0  0  0  0  0  0  0
   10.1675  -16.8109   24.4862 N   0  0  0  0  0  0  0  0  0  0  0  0
    9.5316  -17.1785   26.7508 C   0  0  0  0  0  0  0  0  0  0  0  0
   10.0290  -16.8596   28.0293 O   0  0  0  0  0  0  0  0  0  0  0  0
    9.0924  -18.3513   26.6394 O   0  0  0  0  0  0  0  0  0  0  0  0
  2  1  1  6
  2  4  1  0
  3  2  1  0
  4  5  1  1
  4  6  1  0
  6  7  2  0
  8  6  1  0
  8  9  1  0
  9 10  1  6
 11 10  1  0
 12 11  2  0
 13 12  1  0
 14 13  1  0
 14 15  2  0
 15 11  1  0
 16 17  2  0
 16  9  1  0
 18 19  1  0
 19 21  1  0
 20 19  2  0
 22 21  1  0
 23 22  1  6
 23 24  1  0
 24 16  1  0
 25 23  1  0
 25 26  1  0
 27 25  2  0
M  END
$$$$
