THQ.pdb
     RDKit          3D

 27 27  0  0  1  0  0  0  0  0999 V2000
   10.5081  -12.6872   18.0089 C   0  0  0  0  0  0  0  0  0  0  0  0
    9.9794  -13.4631   19.1968 C   0  0  1  0  0  0  0  0  0  0  0  0
    9.9170  -12.6450   20.3049 O   0  0  0  0  0  0  0  0  0  0  0  0
    8.6046  -14.0173   18.9437 C   0  0  2  0  0  0  0  0  0  0  0  0
    7.7109  -12.9170   18.6926 N   0  0  0  0  0  0  0  0  0  0  0  0
    8.2023  -14.8397   20.0894 C   0  0  0  0  0  0  0  0  0  0  0  0
    7.2903  -14.3861   20.8387 O   0  0  0  0  0  0  0  0  0  0  0  0
    8.7680  -16.1041   20.4086 N   0  0  0  0  0  0  0  0  0  0  0  0
    8.3088  -16.8325   21.5459 C   0  0  1  0  0  0  0  0  0  0  0  0
    8.7173  -18.2850   21.5280 C   0  0  0  0  0  0  0  0  0  0  0  0
    8.0067  -19.0648   20.5045 C   0  0  0  0  0  0  0  0  0  0  0  0
    6.6529  -18.9269   20.2627 C   0  0  0  0  0  0  0  0  0  0  0  0
    6.3135  -19.7673   19.2816 N   0  0  0  0  0  0  0  0  0  0  0  0
    7.4099  -20.4441   18.8831 C   0  0  0  0  0  0  0  0  0  0  0  0
    8.4256  -19.9982   19.6424 N   0  0  0  0  0  0  0  0  0  0  0  0
    8.8631  -16.2628   22.8221 C   0  0  0  0  0  0  0  0  0  0  0  0
   10.0507  -15.8537   22.7722 O   0  0  0  0  0  0  0  0  0  0  0  0
    5.4369  -13.1123   27.0636 N   0  0  0  0  0  0  0  0  0  0  0  0
    6.5797  -12.4464   26.5654 C   0  0  0  0  0  0  0  0  0  0  0  0
    6.6547  -11.2059   26.6851 O   0  0  0  0  0  0  0  0  0  0  0  0
    7.6483  -13.1949   25.9243 C   0  0  0  0  0  0  0  0  0  0  0  0
    7.4816  -14.6644   25.8251 C   0  0  0  0  0  0  0  0  0  0  0  0
    8.6012  -15.4133   25.1774 C   0  0  2  0  0  0  0  0  0  0  0  0
    8.1322  -16.1761   24.0136 N   0  0  0  0  0  0  0  0  0  0  0  0
    9.2225  -16.3611   26.1219 C   0  0  0  0  0  0  0  0  0  0  0  0
   10.0042  -15.9044   27.2009 O   0  0  0  0  0  0  0  0  0  0  0  0
    9.1130  -17.6115   26.0494 O   0  0  0  0  0  0  0  0  0  0  0  0
  2  1  1  6
  2  4  1  0
  3  2  1  0
  4  5  1  1
  4  6  1  0
  6  7  2  0
  8  6  1  0
  8  9  1  0
  9 10  1  6
 11 10  1  0
 12 11  2  0
 13 12  1  0
 14 13  1  0
 14 15  2  0
 15 11  1  0
 16 17  2  0
 16  9  1  0
 18 19  1  0
 19 21  1  0
 20 19  2  0
 22 21  1  0
 23 22  1  1
 23 24  1  0
 24 16  1  0
 25 23  1  0
 25 26  1  0
 27 25  2  0
M  END
$$$$
