THQ.pdb
     RDKit          3D

 27 27  0  0  1  0  0  0  0  0999 V2000
   10.6592  -18.5218   13.9878 C   0  0  0  0  0  0  0  0  0  0  0  0
   11.0496  -17.8595   15.2924 C   0  0  1  0  0  0  0  0  0  0  0  0
   12.4191  -17.8937   15.4476 O   0  0  0  0  0  0  0  0  0  0  0  0
   10.6055  -16.4241   15.3527 C   0  0  2  0  0  0  0  0  0  0  0  0
   11.2633  -15.7006   14.2961 N   0  0  0  0  0  0  0  0  0  0  0  0
   10.8953  -15.8898   16.6874 C   0  0  0  0  0  0  0  0  0  0  0  0
   11.9053  -15.1383   16.8059 O   0  0  0  0  0  0  0  0  0  0  0  0
   10.1192  -16.1609   17.8471 N   0  0  0  0  0  0  0  0  0  0  0  0
   10.4093  -15.5020   19.0786 C   0  0  1  0  0  0  0  0  0  0  0  0
    9.2015  -15.3451   19.9695 C   0  0  0  0  0  0  0  0  0  0  0  0
    8.1440  -14.5276   19.3580 C   0  0  0  0  0  0  0  0  0  0  0  0
    8.1363  -13.1467   19.4157 C   0  0  0  0  0  0  0  0  0  0  0  0
    7.0527  -12.7053   18.7714 N   0  0  0  0  0  0  0  0  0  0  0  0
    6.3606  -13.7621   18.2993 C   0  0  0  0  0  0  0  0  0  0  0  0
    7.0455  -14.8579   18.6696 N   0  0  0  0  0  0  0  0  0  0  0  0
   11.4212  -16.2679   19.8848 C   0  0  0  0  0  0  0  0  0  0  0  0
   11.3883  -17.5187   19.7644 O   0  0  0  0  0  0  0  0  0  0  0  0
   17.4279  -14.7260   20.3334 N   0  0  0  0  0  0  0  0  0  0  0  0
   16.2141  -14.3245   19.7308 C   0  0  0  0  0  0  0  0  0  0  0  0
   16.2561  -13.6671   18.6702 O   0  0  0  0  0  0  0  0  0  0  0  0
   14.9396  -14.6716   20.3374 C   0  0  0  0  0  0  0  0  0  0  0  0
   14.7712  -16.0663   20.8102 C   0  0  0  0  0  0  0  0  0  0  0  0
   13.4362  -16.4110   21.3871 C   0  0  2  0  0  0  0  0  0  0  0  0
   12.3590  -15.6607   20.7294 N   0  0  0  0  0  0  0  0  0  0  0  0
   13.3867  -16.1073   22.8299 C   0  0  0  0  0  0  0  0  0  0  0  0
   12.4195  -15.2280   23.3545 O   0  0  0  0  0  0  0  0  0  0  0  0
   14.1731  -16.5881   23.6849 O   0  0  0  0  0  0  0  0  0  0  0  0
  2  1  1  6
  2  4  1  0
  3  2  1  0
  4  5  1  6
  4  6  1  0
  6  7  2  0
  8  6  1  0
  8  9  1  0
  9 10  1  1
 11 10  1  0
 12 11  2  0
 13 12  1  0
 14 13  1  0
 14 15  2  0
 15 11  1  0
 16 17  2  0
 16  9  1  0
 18 19  1  0
 19 21  1  0
 20 19  2  0
 22 21  1  0
 23 22  1  6
 23 24  1  0
 24 16  1  0
 25 23  1  0
 25 26  1  0
 27 25  2  0
M  END
$$$$
