THQ.pdb
     RDKit          3D

 27 27  0  0  1  0  0  0  0  0999 V2000
   14.2384  -15.7959   18.3169 C   0  0  0  0  0  0  0  0  0  0  0  0
   13.4103  -15.8442   19.5837 C   0  0  1  0  0  0  0  0  0  0  0  0
   14.0808  -15.2134   20.6101 O   0  0  0  0  0  0  0  0  0  0  0  0
   12.0753  -15.1737   19.4123 C   0  0  2  0  0  0  0  0  0  0  0  0
   12.2981  -13.7687   19.1913 N   0  0  0  0  0  0  0  0  0  0  0  0
   11.2469  -15.4498   20.5907 C   0  0  0  0  0  0  0  0  0  0  0  0
   11.1963  -14.5595   21.4871 O   0  0  0  0  0  0  0  0  0  0  0  0
   10.5034  -16.6452   20.7875 N   0  0  0  0  0  0  0  0  0  0  0  0
    9.7817  -16.8535   22.0003 C   0  0  1  0  0  0  0  0  0  0  0  0
    8.9562  -18.1167   21.9930 C   0  0  0  0  0  0  0  0  0  0  0  0
    8.2483  -18.3427   23.2612 C   0  0  0  0  0  0  0  0  0  0  0  0
    8.3161  -17.4626   24.3248 C   0  0  0  0  0  0  0  0  0  0  0  0
    7.5698  -17.9484   25.3203 N   0  0  0  0  0  0  0  0  0  0  0  0
    7.0220  -19.1173   24.9297 C   0  0  0  0  0  0  0  0  0  0  0  0
    7.4504  -19.3340   23.6741 N   0  0  0  0  0  0  0  0  0  0  0  0
   10.7101  -16.9730   23.1768 C   0  0  0  0  0  0  0  0  0  0  0  0
   11.8026  -17.5555   22.9592 O   0  0  0  0  0  0  0  0  0  0  0  0
   11.2213  -13.4387   28.4944 N   0  0  0  0  0  0  0  0  0  0  0  0
   10.0817  -14.2612   28.3437 C   0  0  0  0  0  0  0  0  0  0  0  0
    9.0806  -14.0407   29.0563 O   0  0  0  0  0  0  0  0  0  0  0  0
   10.0778  -15.3454   27.3754 C   0  0  0  0  0  0  0  0  0  0  0  0
   11.2783  -15.4936   26.5188 C   0  0  0  0  0  0  0  0  0  0  0  0
   11.2965  -16.6779   25.6072 C   0  0  2  0  0  0  0  0  0  0  0  0
   10.4115  -16.4783   24.4526 N   0  0  0  0  0  0  0  0  0  0  0  0
   10.8567  -17.8972   26.3118 C   0  0  0  0  0  0  0  0  0  0  0  0
   11.6961  -18.5422   27.2408 O   0  0  0  0  0  0  0  0  0  0  0  0
    9.7373  -18.4464   26.1509 O   0  0  0  0  0  0  0  0  0  0  0  0
  2  1  1  6
  2  4  1  0
  3  2  1  0
  4  5  1  1
  4  6  1  0
  6  7  2  0
  8  6  1  0
  8  9  1  0
  9 10  1  6
 11 10  1  0
 12 11  2  0
 13 12  1  0
 14 13  1  0
 14 15  2  0
 15 11  1  0
 16 17  2  0
 16  9  1  0
 18 19  1  0
 19 21  1  0
 20 19  2  0
 22 21  1  0
 23 22  1  1
 23 24  1  0
 24 16  1  0
 25 23  1  0
 25 26  1  0
 27 25  2  0
M  END
$$$$
