THQ.pdb
     RDKit          3D

 27 27  0  0  1  0  0  0  0  0999 V2000
   10.1327  -15.0857   16.9765 C   0  0  0  0  0  0  0  0  0  0  0  0
    8.6285  -15.0740   16.8028 C   0  0  1  0  0  0  0  0  0  0  0  0
    8.0921  -16.2610   17.2546 O   0  0  0  0  0  0  0  0  0  0  0  0
    7.9807  -13.9474   17.5593 C   0  0  2  0  0  0  0  0  0  0  0  0
    8.3842  -12.7043   16.9557 N   0  0  0  0  0  0  0  0  0  0  0  0
    8.3481  -14.0491   18.9755 C   0  0  0  0  0  0  0  0  0  0  0  0
    9.5153  -13.6873   19.3005 O   0  0  0  0  0  0  0  0  0  0  0  0
    7.4825  -14.5249   19.9977 N   0  0  0  0  0  0  0  0  0  0  0  0
    7.9183  -14.5527   21.3557 C   0  0  1  0  0  0  0  0  0  0  0  0
    6.8204  -14.9121   22.3266 C   0  0  0  0  0  0  0  0  0  0  0  0
    7.2531  -14.8393   23.7295 C   0  0  0  0  0  0  0  0  0  0  0  0
    7.3319  -13.6499   24.4289 C   0  0  0  0  0  0  0  0  0  0  0  0
    7.7536  -13.9180   25.6676 N   0  0  0  0  0  0  0  0  0  0  0  0
    7.9493  -15.2470   25.7878 C   0  0  0  0  0  0  0  0  0  0  0  0
    7.6378  -15.7838   24.5954 N   0  0  0  0  0  0  0  0  0  0  0  0
    9.0032  -15.5728   21.5624 C   0  0  0  0  0  0  0  0  0  0  0  0
    8.9006  -16.6297   20.8897 O   0  0  0  0  0  0  0  0  0  0  0  0
   14.4125  -14.2213   20.4243 N   0  0  0  0  0  0  0  0  0  0  0  0
   13.9086  -15.5315   20.2597 C   0  0  0  0  0  0  0  0  0  0  0  0
   14.6173  -16.3819   19.6826 O   0  0  0  0  0  0  0  0  0  0  0  0
   12.5870  -15.8807   20.7543 C   0  0  0  0  0  0  0  0  0  0  0  0
   12.4302  -16.0332   22.2203 C   0  0  0  0  0  0  0  0  0  0  0  0
   11.0746  -16.4402   22.7003 C   0  0  2  0  0  0  0  0  0  0  0  0
   10.0784  -15.3929   22.4417 N   0  0  0  0  0  0  0  0  0  0  0  0
   11.0839  -16.7108   24.1505 C   0  0  0  0  0  0  0  0  0  0  0  0
   11.8749  -17.7427   24.6921 O   0  0  0  0  0  0  0  0  0  0  0  0
   10.4123  -16.0689   24.9976 O   0  0  0  0  0  0  0  0  0  0  0  0
  2  1  1  1
  2  4  1  0
  3  2  1  0
  4  5  1  6
  4  6  1  0
  6  7  2  0
  8  6  1  0
  8  9  1  0
  9 10  1  1
 11 10  1  0
 12 11  2  0
 13 12  1  0
 14 13  1  0
 14 15  2  0
 15 11  1  0
 16 17  2  0
 16  9  1  0
 18 19  1  0
 19 21  1  0
 20 19  2  0
 22 21  1  0
 23 22  1  1
 23 24  1  0
 24 16  1  0
 25 23  1  0
 25 26  1  0
 27 25  2  0
M  END
$$$$
