THQ.pdb
     RDKit          3D

 27 27  0  0  1  0  0  0  0  0999 V2000
    7.0641  -20.4869   18.8408 C   0  0  0  0  0  0  0  0  0  0  0  0
    8.1098  -20.6517   17.7582 C   0  0  1  0  0  0  0  0  0  0  0  0
    7.8081  -21.7443   16.9731 O   0  0  0  0  0  0  0  0  0  0  0  0
    8.1974  -19.4431   16.8679 C   0  0  2  0  0  0  0  0  0  0  0  0
    9.1252  -19.7286   15.8048 N   0  0  0  0  0  0  0  0  0  0  0  0
    8.5827  -18.2813   17.6757 C   0  0  0  0  0  0  0  0  0  0  0  0
    9.7529  -18.2688   18.1547 O   0  0  0  0  0  0  0  0  0  0  0  0
    7.7312  -17.1771   17.9521 N   0  0  0  0  0  0  0  0  0  0  0  0
    8.2215  -16.0543   18.6828 C   0  0  1  0  0  0  0  0  0  0  0  0
    7.2628  -14.8891   18.6988 C   0  0  0  0  0  0  0  0  0  0  0  0
    7.7789  -13.7361   19.4505 C   0  0  0  0  0  0  0  0  0  0  0  0
    7.3309  -13.4044   20.7152 C   0  0  0  0  0  0  0  0  0  0  0  0
    7.9898  -12.3162   21.1223 N   0  0  0  0  0  0  0  0  0  0  0  0
    8.8505  -11.9359   20.1562 C   0  0  0  0  0  0  0  0  0  0  0  0
    8.7024  -12.8158   19.1508 N   0  0  0  0  0  0  0  0  0  0  0  0
    8.4708  -16.4044   20.1235 C   0  0  0  0  0  0  0  0  0  0  0  0
    7.6959  -17.2578   20.6248 O   0  0  0  0  0  0  0  0  0  0  0  0
   11.6779  -20.3608   21.8071 N   0  0  0  0  0  0  0  0  0  0  0  0
   11.5678  -19.7643   23.0837 C   0  0  0  0  0  0  0  0  0  0  0  0
   12.0118  -20.3778   24.0762 O   0  0  0  0  0  0  0  0  0  0  0  0
   10.9473  -18.4586   23.2364 C   0  0  0  0  0  0  0  0  0  0  0  0
   10.4832  -17.7801   22.0029 C   0  0  0  0  0  0  0  0  0  0  0  0
    9.9289  -16.4030   22.1758 C   0  0  2  0  0  0  0  0  0  0  0  0
    9.4938  -15.8361   20.8930 N   0  0  0  0  0  0  0  0  0  0  0  0
   10.9358  -15.4943   22.7563 C   0  0  0  0  0  0  0  0  0  0  0  0
   10.9769  -15.2455   24.1420 O   0  0  0  0  0  0  0  0  0  0  0  0
   11.8117  -14.8857   22.0907 O   0  0  0  0  0  0  0  0  0  0  0  0
  2  1  1  1
  2  4  1  0
  3  2  1  0
  4  5  1  6
  4  6  1  0
  6  7  2  0
  8  6  1  0
  8  9  1  0
  9 10  1  1
 11 10  1  0
 12 11  2  0
 13 12  1  0
 14 13  1  0
 14 15  2  0
 15 11  1  0
 16 17  2  0
 16  9  1  0
 18 19  1  0
 19 21  1  0
 20 19  2  0
 22 21  1  0
 23 22  1  6
 23 24  1  0
 24 16  1  0
 25 23  1  0
 25 26  1  0
 27 25  2  0
M  END
$$$$
