RMV.pdb
     RDKit          3D

 27 26  0  0  1  0  0  0  0  0999 V2000
   19.0862  -23.2869   -7.5762 N   0  0  0  0  0  0  0  0  0  0  0  0
   17.8487  -23.9705   -7.5587 C   0  0  0  0  0  0  0  0  0  0  0  0
   17.0266  -23.9279   -6.5799 N   0  0  0  0  0  0  0  0  0  0  0  0
   17.4989  -24.7489   -8.6896 N   0  0  0  0  0  0  0  0  0  0  0  0
   18.5168  -25.1181   -9.6361 C   0  0  0  0  0  0  0  0  0  0  0  0
   17.8301  -25.2352  -11.0089 C   0  0  0  0  0  0  0  0  0  0  0  0
   17.7475  -23.8778  -11.6549 C   0  0  0  0  0  0  0  0  0  0  0  0
   18.7525  -23.5847  -12.6723 C   0  0  2  0  0  0  0  0  0  0  0  0
   19.7174  -24.7089  -12.8098 N   0  0  0  0  0  0  0  0  0  0  0  0
   19.5550  -22.3794  -12.6025 C   0  0  0  0  0  0  0  0  0  0  0  0
   18.8841  -21.2864  -12.4790 O   0  0  0  0  0  0  0  0  0  0  0  0
   16.1479  -24.4748   -6.5027 C   0  0  0  0  0  0  0  0  0  0  0  0
   25.1854  -21.4345  -10.1341 S   0  0  0  0  0  0  0  0  0  0  0  0
   23.6985  -20.9909   -9.2058 C   0  0  0  0  0  0  0  0  0  0  0  0
   22.2870  -20.9104  -10.3325 C   0  0  0  0  0  0  0  0  0  0  0  0
   22.7872  -20.9638  -11.7602 C   0  0  2  0  0  0  0  0  0  0  0  0
   21.5857  -20.8882  -12.6661 N   0  0  0  0  0  0  0  0  0  0  0  0
   20.9413  -22.2082  -12.6522 C   0  0  0  0  0  0  0  0  0  0  0  0
   21.9560  -20.6114  -14.0784 O   0  0  0  0  0  0  0  0  0  0  0  0
   22.4516  -21.4937  -14.8340 C   0  0  0  0  0  0  0  0  0  0  0  0
   19.7689  -18.4761  -16.6581 C   0  0  1  0  0  0  0  0  0  0  0  0
   21.1965  -18.0353  -16.6546 C   0  0  0  0  0  0  0  0  0  0  0  0
   21.6750  -17.6094  -18.0181 C   0  0  2  0  0  0  0  0  0  0  0  0
   22.1006  -19.0830  -16.0345 N   0  0  0  0  0  0  0  0  0  0  0  0
   21.7654  -19.3167  -14.6529 C   0  0  0  0  0  0  0  0  0  0  0  0
   23.4929  -18.5740  -16.0929 O   0  0  0  0  0  0  0  0  0  0  0  0
   24.2908  -18.8175  -17.1909 O   0  0  0  0  0  0  0  0  0  0  0  0
  2  4  1  0
  2  1  1  0
  3  2  2  0
  5  4  1  0
  6  5  1  0
  7  6  1  0
  8  7  1  0
  8  9  1  1
 10 17  1  0
 10  8  1  0
 11 10  2  0
 13 12  1  0
 14 13  1  0
 16 15  1  1
 15 14  1  0
 16 17  1  0
 18 19  2  0
 18 16  1  0
 21 20  1  1
 21 23  1  0
 22 21  1  0
 23 25  1  0
 23 24  1  6
 24 18  1  0
 25 26  1  0
 27 25  2  0
M  END
$$$$
