RMV.pdb
     RDKit          3D

 27 26  0  0  1  0  0  0  0  0999 V2000
   28.3041  -17.1098  -18.1011 N   0  0  0  0  0  0  0  0  0  0  0  0
   28.9666  -16.2814  -17.1664 C   0  0  0  0  0  0  0  0  0  0  0  0
   30.1397  -15.8043  -17.3452 N   0  0  0  0  0  0  0  0  0  0  0  0
   28.2937  -15.9620  -15.9612 N   0  0  0  0  0  0  0  0  0  0  0  0
   27.5746  -16.9906  -15.2590 C   0  0  0  0  0  0  0  0  0  0  0  0
   26.7533  -17.7594  -16.3099 C   0  0  0  0  0  0  0  0  0  0  0  0
   26.0916  -18.9499  -15.6682 C   0  0  0  0  0  0  0  0  0  0  0  0
   26.9360  -19.7710  -14.8058 C   0  0  2  0  0  0  0  0  0  0  0  0
   27.6612  -20.8035  -15.5944 N   0  0  0  0  0  0  0  0  0  0  0  0
   26.3811  -20.4642  -13.6600 C   0  0  0  0  0  0  0  0  0  0  0  0
   25.7952  -21.5794  -13.9309 O   0  0  0  0  0  0  0  0  0  0  0  0
   30.6647  -15.2180  -16.6686 C   0  0  0  0  0  0  0  0  0  0  0  0
   27.3382  -20.0494   -7.2679 S   0  0  0  0  0  0  0  0  0  0  0  0
   25.5717  -20.4352   -7.2700 C   0  0  0  0  0  0  0  0  0  0  0  0
   25.0754  -20.9744   -8.9227 C   0  0  0  0  0  0  0  0  0  0  0  0
   25.9467  -20.2873   -9.9521 C   0  0  1  0  0  0  0  0  0  0  0  0
   25.5383  -20.8000  -11.3088 N   0  0  0  0  0  0  0  0  0  0  0  0
   26.3735  -20.1175  -12.3060 C   0  0  0  0  0  0  0  0  0  0  0  0
   24.1274  -20.4704  -11.6392 O   0  0  0  0  0  0  0  0  0  0  0  0
   23.7445  -19.2896  -11.8721 C   0  0  0  0  0  0  0  0  0  0  0  0
   22.2373  -21.6815  -14.5011 C   0  0  1  0  0  0  0  0  0  0  0  0
   21.3549  -21.9541  -13.3266 C   0  0  0  0  0  0  0  0  0  0  0  0
   19.8943  -21.7642  -13.6425 C   0  0  2  0  0  0  0  0  0  0  0  0
   21.7841  -21.1552  -12.1112 N   0  0  0  0  0  0  0  0  0  0  0  0
   23.1269  -21.4884  -11.7092 C   0  0  0  0  0  0  0  0  0  0  0  0
   20.8687  -21.4983  -10.9953 O   0  0  0  0  0  0  0  0  0  0  0  0
   21.0983  -22.6051  -10.2054 O   0  0  0  0  0  0  0  0  0  0  0  0
  2  4  1  0
  2  1  1  0
  3  2  2  0
  5  4  1  0
  6  5  1  0
  7  6  1  0
  8  7  1  0
  8  9  1  6
 10 17  1  0
 10  8  1  0
 11 10  2  0
 13 12  1  0
 14 13  1  0
 16 15  1  1
 15 14  1  0
 16 17  1  0
 18 19  2  0
 18 16  1  0
 21 20  1  6
 21 23  1  0
 22 21  1  0
 23 25  1  0
 23 24  1  6
 24 18  1  0
 25 26  1  0
 27 25  2  0
M  END
$$$$
