RMV.pdb
     RDKit          3D

 27 26  0  0  1  0  0  0  0  0999 V2000
   18.8580  -26.3225   -9.9430 N   0  0  0  0  0  0  0  0  0  0  0  0
   19.0779  -27.4222  -10.8040 C   0  0  0  0  0  0  0  0  0  0  0  0
   18.7534  -28.6257  -10.5175 N   0  0  0  0  0  0  0  0  0  0  0  0
   19.6945  -27.1782  -12.0561 N   0  0  0  0  0  0  0  0  0  0  0  0
   20.0411  -25.8316  -12.4229 C   0  0  0  0  0  0  0  0  0  0  0  0
   18.7758  -25.1912  -13.0219 C   0  0  0  0  0  0  0  0  0  0  0  0
   19.0760  -23.7823  -13.4597 C   0  0  0  0  0  0  0  0  0  0  0  0
   19.2808  -22.8051  -12.3947 C   0  0  2  0  0  0  0  0  0  0  0  0
   18.0508  -22.0004  -12.1640 N   0  0  0  0  0  0  0  0  0  0  0  0
   20.3722  -21.8529  -12.4559 C   0  0  0  0  0  0  0  0  0  0  0  0
   20.0842  -20.7321  -13.0225 O   0  0  0  0  0  0  0  0  0  0  0  0
   18.9840  -29.4659  -11.0815 C   0  0  0  0  0  0  0  0  0  0  0  0
   25.1826  -20.9311   -8.4621 S   0  0  0  0  0  0  0  0  0  0  0  0
   25.8922  -20.0086   -9.8459 C   0  0  0  0  0  0  0  0  0  0  0  0
   24.6726  -19.8835  -11.1745 C   0  0  0  0  0  0  0  0  0  0  0  0
   23.6320  -20.9684  -10.9976 C   0  0  1  0  0  0  0  0  0  0  0  0
   22.6756  -20.8749  -12.1581 N   0  0  0  0  0  0  0  0  0  0  0  0
   21.6908  -21.9538  -12.0037 C   0  0  0  0  0  0  0  0  0  0  0  0
   23.3463  -21.0959  -13.4657 O   0  0  0  0  0  0  0  0  0  0  0  0
   23.8384  -22.2116  -13.7943 C   0  0  0  0  0  0  0  0  0  0  0  0
   22.5023  -18.7625  -16.8708 C   0  0  1  0  0  0  0  0  0  0  0  0
   23.0814  -20.1394  -16.8345 C   0  0  0  0  0  0  0  0  0  0  0  0
   22.0243  -21.2123  -16.8086 C   0  0  1  0  0  0  0  0  0  0  0  0
   24.0786  -20.2938  -15.7025 N   0  0  0  0  0  0  0  0  0  0  0  0
   23.4660  -20.0416  -14.4230 C   0  0  0  0  0  0  0  0  0  0  0  0
   25.1548  -19.2930  -15.9052 O   0  0  0  0  0  0  0  0  0  0  0  0
   26.1410  -19.4942  -16.8478 O   0  0  0  0  0  0  0  0  0  0  0  0
  2  4  1  0
  2  1  1  0
  3  2  2  0
  5  4  1  0
  6  5  1  0
  7  6  1  0
  8  7  1  0
  8  9  1  6
 10 17  1  0
 10  8  1  0
 11 10  2  0
 13 12  1  0
 14 13  1  0
 16 15  1  1
 15 14  1  0
 16 17  1  0
 18 19  2  0
 18 16  1  0
 21 20  1  6
 21 23  1  0
 22 21  1  0
 23 25  1  0
 23 24  1  1
 24 18  1  0
 25 26  1  0
 27 25  2  0
M  END
$$$$
