RMV.pdb
     RDKit          3D

 27 26  0  0  1  0  0  0  0  0999 V2000
   28.3401  -22.3695  -20.4380 N   0  0  0  0  0  0  0  0  0  0  0  0
   27.1326  -21.7743  -20.0063 C   0  0  0  0  0  0  0  0  0  0  0  0
   26.0058  -21.9514  -20.5850 N   0  0  0  0  0  0  0  0  0  0  0  0
   27.1721  -20.9316  -18.8680 N   0  0  0  0  0  0  0  0  0  0  0  0
   28.4416  -20.5905  -18.2847 C   0  0  0  0  0  0  0  0  0  0  0  0
   28.1661  -19.5329  -17.2006 C   0  0  0  0  0  0  0  0  0  0  0  0
   27.1614  -20.0648  -16.2134 C   0  0  0  0  0  0  0  0  0  0  0  0
   27.6808  -20.9553  -15.1799 C   0  0  2  0  0  0  0  0  0  0  0  0
   28.0170  -22.2903  -15.7443 N   0  0  0  0  0  0  0  0  0  0  0  0
   26.9251  -21.2149  -13.9703 C   0  0  0  0  0  0  0  0  0  0  0  0
   26.0333  -22.1391  -14.0747 O   0  0  0  0  0  0  0  0  0  0  0  0
   25.1083  -21.5075  -20.3120 C   0  0  0  0  0  0  0  0  0  0  0  0
   25.1840  -20.3169   -6.3361 S   0  0  0  0  0  0  0  0  0  0  0  0
   26.2543  -19.8457   -7.7152 C   0  0  0  0  0  0  0  0  0  0  0  0
   25.6772  -20.6510   -9.2274 C   0  0  0  0  0  0  0  0  0  0  0  0
   26.6456  -20.3501  -10.3512 C   0  0  1  0  0  0  0  0  0  0  0  0
   26.0735  -20.9391  -11.6145 N   0  0  0  0  0  0  0  0  0  0  0  0
   27.0026  -20.6218  -12.7071 C   0  0  0  0  0  0  0  0  0  0  0  0
   24.7656  -20.3359  -11.9806 O   0  0  0  0  0  0  0  0  0  0  0  0
   24.6222  -19.0962  -12.1745 C   0  0  0  0  0  0  0  0  0  0  0  0
   21.7364  -22.5174  -13.9352 C   0  0  1  0  0  0  0  0  0  0  0  0
   21.9364  -21.0367  -13.9230 C   0  0  0  0  0  0  0  0  0  0  0  0
   22.8763  -20.5700  -15.0038 C   0  0  1  0  0  0  0  0  0  0  0  0
   22.3544  -20.5431  -12.5515 N   0  0  0  0  0  0  0  0  0  0  0  0
   23.5956  -21.1424  -12.1318 C   0  0  0  0  0  0  0  0  0  0  0  0
   21.3001  -20.9383  -11.5854 O   0  0  0  0  0  0  0  0  0  0  0  0
   20.0908  -20.2769  -11.5466 O   0  0  0  0  0  0  0  0  0  0  0  0
  2  4  1  0
  2  1  1  0
  3  2  2  0
  5  4  1  0
  6  5  1  0
  7  6  1  0
  8  7  1  0
  8  9  1  6
 10 17  1  0
 10  8  1  0
 11 10  2  0
 13 12  1  0
 14 13  1  0
 16 15  1  1
 15 14  1  0
 16 17  1  0
 18 19  2  0
 18 16  1  0
 21 20  1  6
 21 23  1  0
 22 21  1  0
 23 25  1  0
 23 24  1  6
 24 18  1  0
 25 26  1  0
 27 25  2  0
M  END
$$$$
