RMV.pdb
     RDKit          3D

 27 26  0  0  1  0  0  0  0  0999 V2000
   30.9949  -20.4241  -18.6024 N   0  0  0  0  0  0  0  0  0  0  0  0
   30.5425  -19.0881  -18.6998 C   0  0  0  0  0  0  0  0  0  0  0  0
   30.8690  -18.2941  -19.6478 N   0  0  0  0  0  0  0  0  0  0  0  0
   29.6787  -18.5994  -17.6887 N   0  0  0  0  0  0  0  0  0  0  0  0
   29.1501  -19.5103  -16.7094 C   0  0  0  0  0  0  0  0  0  0  0  0
   28.7169  -20.7789  -17.4662 C   0  0  0  0  0  0  0  0  0  0  0  0
   27.9380  -21.6805  -16.5457 C   0  0  0  0  0  0  0  0  0  0  0  0
   26.7073  -21.1270  -15.9890 C   0  0  2  0  0  0  0  0  0  0  0  0
   26.7502  -19.6398  -15.9713 N   0  0  0  0  0  0  0  0  0  0  0  0
   26.2366  -21.5259  -14.6772 C   0  0  0  0  0  0  0  0  0  0  0  0
   25.9652  -22.7796  -14.5554 O   0  0  0  0  0  0  0  0  0  0  0  0
   30.5431  -17.3148  -19.7569 C   0  0  0  0  0  0  0  0  0  0  0  0
   27.4195  -20.5124   -8.5803 S   0  0  0  0  0  0  0  0  0  0  0  0
   25.6181  -20.5608   -8.4324 C   0  0  0  0  0  0  0  0  0  0  0  0
   24.9016  -21.1363   -9.9893 C   0  0  0  0  0  0  0  0  0  0  0  0
   25.7708  -20.6718  -11.1381 C   0  0  1  0  0  0  0  0  0  0  0  0
   25.1810  -21.2275  -12.4083 N   0  0  0  0  0  0  0  0  0  0  0  0
   26.0240  -20.7700  -13.5209 C   0  0  0  0  0  0  0  0  0  0  0  0
   23.8127  -20.7113  -12.6722 O   0  0  0  0  0  0  0  0  0  0  0  0
   23.5791  -19.4881  -12.8823 C   0  0  0  0  0  0  0  0  0  0  0  0
   21.7115  -21.7290  -15.4351 C   0  0  1  0  0  0  0  0  0  0  0  0
   20.8072  -21.8159  -14.2488 C   0  0  0  0  0  0  0  0  0  0  0  0
   19.3999  -21.3773  -14.5596 C   0  0  2  0  0  0  0  0  0  0  0  0
   21.3835  -21.0796  -13.0550 N   0  0  0  0  0  0  0  0  0  0  0  0
   22.6842  -21.5878  -12.7005 C   0  0  0  0  0  0  0  0  0  0  0  0
   20.4728  -21.2967  -11.9041 O   0  0  0  0  0  0  0  0  0  0  0  0
   19.5370  -20.3471  -11.5521 O   0  0  0  0  0  0  0  0  0  0  0  0
  2  4  1  0
  2  1  1  0
  3  2  2  0
  5  4  1  0
  6  5  1  0
  7  6  1  0
  8  7  1  0
  8  9  1  1
 10 17  1  0
 10  8  1  0
 11 10  2  0
 13 12  1  0
 14 13  1  0
 16 15  1  1
 15 14  1  0
 16 17  1  0
 18 19  2  0
 18 16  1  0
 21 20  1  6
 21 23  1  0
 22 21  1  0
 23 25  1  0
 23 24  1  6
 24 18  1  0
 25 26  1  0
 27 25  2  0
M  END
$$$$
