RMV.pdb
     RDKit          3D

 27 26  0  0  1  0  0  0  0  0999 V2000
   19.2510  -15.7700  -13.8990 N   0  0  0  0  0  0  0  0  0  0  0  0
   20.1960  -15.7560  -14.9505 C   0  0  0  0  0  0  0  0  0  0  0  0
   20.3923  -14.7510  -15.7168 N   0  0  0  0  0  0  0  0  0  0  0  0
   20.9697  -16.9225  -15.1696 N   0  0  0  0  0  0  0  0  0  0  0  0
   21.1124  -17.8854  -14.1110 C   0  0  0  0  0  0  0  0  0  0  0  0
   20.2303  -19.0915  -14.4812 C   0  0  0  0  0  0  0  0  0  0  0  0
   20.3680  -20.1641  -13.4336 C   0  0  0  0  0  0  0  0  0  0  0  0
   21.7283  -20.4816  -13.0095 C   0  0  2  0  0  0  0  0  0  0  0  0
   22.4441  -21.2648  -14.0526 N   0  0  0  0  0  0  0  0  0  0  0  0
   21.9781  -21.1676  -11.7571 C   0  0  0  0  0  0  0  0  0  0  0  0
   21.7078  -22.4273  -11.7643 O   0  0  0  0  0  0  0  0  0  0  0  0
   21.0358  -14.7265  -16.5307 C   0  0  0  0  0  0  0  0  0  0  0  0
   25.8789  -20.5782   -6.1825 S   0  0  0  0  0  0  0  0  0  0  0  0
   26.1293  -20.0918   -7.9059 C   0  0  0  0  0  0  0  0  0  0  0  0
   24.9664  -20.9893   -8.9597 C   0  0  0  0  0  0  0  0  0  0  0  0
   23.5654  -20.8164   -8.4134 C   0  0  2  0  0  0  0  0  0  0  0  0
   22.6219  -21.5287   -9.3475 N   0  0  0  0  0  0  0  0  0  0  0  0
   22.4612  -20.6835  -10.5381 C   0  0  0  0  0  0  0  0  0  0  0  0
   21.2666  -21.7010   -8.7629 O   0  0  0  0  0  0  0  0  0  0  0  0
   20.4214  -20.7633   -8.7244 C   0  0  0  0  0  0  0  0  0  0  0  0
   18.8561  -24.0461  -10.0031 C   0  0  1  0  0  0  0  0  0  0  0  0
   18.8176  -24.2680   -8.5260 C   0  0  0  0  0  0  0  0  0  0  0  0
   17.4255  -24.5358   -8.0162 C   0  0  2  0  0  0  0  0  0  0  0  0
   19.4916  -23.1355   -7.7757 N   0  0  0  0  0  0  0  0  0  0  0  0
   20.8529  -22.9525   -8.2105 C   0  0  0  0  0  0  0  0  0  0  0  0
   19.5100  -23.4919   -6.3357 O   0  0  0  0  0  0  0  0  0  0  0  0
   18.4035  -23.2830   -5.5399 O   0  0  0  0  0  0  0  0  0  0  0  0
  2  4  1  0
  2  1  1  0
  3  2  2  0
  5  4  1  0
  6  5  1  0
  7  6  1  0
  8  7  1  0
  8  9  1  6
 10 17  1  0
 10  8  1  0
 11 10  2  0
 13 12  1  0
 14 13  1  0
 16 15  1  6
 15 14  1  0
 16 17  1  0
 18 19  2  0
 18 16  1  0
 21 20  1  6
 21 23  1  0
 22 21  1  0
 23 25  1  0
 23 24  1  6
 24 18  1  0
 25 26  1  0
 27 25  2  0
M  END
$$$$
