RMV.pdb
     RDKit          3D

 27 26  0  0  1  0  0  0  0  0999 V2000
   29.1752  -17.4309  -20.8415 N   0  0  0  0  0  0  0  0  0  0  0  0
   29.3752  -16.4003  -19.8946 C   0  0  0  0  0  0  0  0  0  0  0  0
   29.4353  -15.1590  -20.1965 N   0  0  0  0  0  0  0  0  0  0  0  0
   29.5189  -16.7627  -18.5324 N   0  0  0  0  0  0  0  0  0  0  0  0
   28.9026  -17.9705  -18.0534 C   0  0  0  0  0  0  0  0  0  0  0  0
   27.6182  -17.5545  -17.3137 C   0  0  0  0  0  0  0  0  0  0  0  0
   26.9073  -18.7781  -16.7995 C   0  0  0  0  0  0  0  0  0  0  0  0
   27.7564  -19.8795  -16.3557 C   0  0  2  0  0  0  0  0  0  0  0  0
   27.8152  -20.9557  -17.3815 N   0  0  0  0  0  0  0  0  0  0  0  0
   27.5116  -20.5480  -15.0929 C   0  0  0  0  0  0  0  0  0  0  0  0
   26.6311  -21.4876  -15.1374 O   0  0  0  0  0  0  0  0  0  0  0  0
   29.6021  -14.3809  -19.5302 C   0  0  0  0  0  0  0  0  0  0  0  0
   30.9985  -21.9082   -9.6812 S   0  0  0  0  0  0  0  0  0  0  0  0
   29.4034  -21.3840   -9.0102 C   0  0  0  0  0  0  0  0  0  0  0  0
   28.1392  -21.5079  -10.2965 C   0  0  0  0  0  0  0  0  0  0  0  0
   28.6434  -20.8351  -11.5552 C   0  0  1  0  0  0  0  0  0  0  0  0
   27.5859  -21.0028  -12.6153 N   0  0  0  0  0  0  0  0  0  0  0  0
   28.0726  -20.3362  -13.8304 C   0  0  0  0  0  0  0  0  0  0  0  0
   26.3066  -20.3403  -12.2509 O   0  0  0  0  0  0  0  0  0  0  0  0
   26.1985  -19.0861  -12.1490 C   0  0  0  0  0  0  0  0  0  0  0  0
   21.5408  -20.0415  -12.4416 C   0  0  1  0  0  0  0  0  0  0  0  0
   22.8231  -20.7495  -12.7365 C   0  0  0  0  0  0  0  0  0  0  0  0
   22.6366  -22.2326  -12.9234 C   0  0  2  0  0  0  0  0  0  0  0  0
   23.8837  -20.4343  -11.6996 N   0  0  0  0  0  0  0  0  0  0  0  0
   25.1251  -21.1028  -11.9960 C   0  0  0  0  0  0  0  0  0  0  0  0
   23.3962  -20.9248  -10.3871 O   0  0  0  0  0  0  0  0  0  0  0  0
   22.3987  -20.2580   -9.7076 O   0  0  0  0  0  0  0  0  0  0  0  0
  2  4  1  0
  2  1  1  0
  3  2  2  0
  5  4  1  0
  6  5  1  0
  7  6  1  0
  8  7  1  0
  8  9  1  6
 10 17  1  0
 10  8  1  0
 11 10  2  0
 13 12  1  0
 14 13  1  0
 16 15  1  6
 15 14  1  0
 16 17  1  0
 18 19  2  0
 18 16  1  0
 21 20  1  6
 21 23  1  0
 22 21  1  0
 23 25  1  0
 23 24  1  1
 24 18  1  0
 25 26  1  0
 27 25  2  0
M  END
$$$$
