KPV.pdb
     RDKit          3D

 24 24  0  0  1  0  0  0  0  0999 V2000
    7.9439  -14.5554   21.1053 N   0  0  0  0  0  0  0  0  0  0  0  0
    7.2359  -14.3965   22.3466 C   0  0  1  0  0  0  0  0  0  0  0  0
    6.3155  -15.6018   22.6038 C   0  0  0  0  0  0  0  0  0  0  0  0
    7.1647  -16.8512   22.7221 C   0  0  0  0  0  0  0  0  0  0  0  0
    6.3702  -18.0499   23.1218 C   0  0  0  0  0  0  0  0  0  0  0  0
    7.1867  -19.2948   23.2661 C   0  0  0  0  0  0  0  0  0  0  0  0
    6.2681  -20.3730   23.6332 N   0  0  0  0  0  0  0  0  0  0  0  0
    8.1382  -14.1753   23.4882 C   0  0  0  0  0  0  0  0  0  0  0  0
    9.3751  -14.4246   23.2389 O   0  0  0  0  0  0  0  0  0  0  0  0
    7.8049  -13.7347   24.7842 N   0  0  0  0  0  0  0  0  0  0  0  0
    6.5063  -13.4430   25.2919 C   0  0  0  0  0  0  0  0  0  0  0  0
    6.7527  -12.5029   26.4549 C   0  0  0  0  0  0  0  0  0  0  0  0
    8.2403  -12.1831   26.4073 C   0  0  0  0  0  0  0  0  0  0  0  0
    8.7480  -13.5169   25.8561 C   0  0  1  0  0  0  0  0  0  0  0  0
    8.5913  -14.6122   26.8346 C   0  0  0  0  0  0  0  0  0  0  0  0
    7.4559  -15.1307   27.0670 O   0  0  0  0  0  0  0  0  0  0  0  0
   11.5065  -18.3357   26.9089 C   0  0  0  0  0  0  0  0  0  0  0  0
   11.2249  -16.8544   26.7397 C   0  0  2  0  0  0  0  0  0  0  0  0
   12.4409  -16.1050   27.1684 C   0  0  0  0  0  0  0  0  0  0  0  0
   10.0054  -16.5274   27.5689 C   0  0  2  0  0  0  0  0  0  0  0  0
    9.7365  -15.0937   27.5291 N   0  0  0  0  0  0  0  0  0  0  0  0
   10.2878  -16.9531   28.9548 C   0  0  0  0  0  0  0  0  0  0  0  0
   10.5093  -15.9991   29.9239 O   0  0  0  0  0  0  0  0  0  0  0  0
   10.3276  -18.1557   29.2555 O   0  0  0  0  0  0  0  0  0  0  0  0
  2  1  1  6
  3  2  1  0
  4  3  1  0
  5  4  1  0
  5  6  1  0
  7  6  1  0
  8  2  1  0
  9  8  2  0
 10 11  1  0
 10  8  1  0
 12 11  1  0
 13 12  1  0
 13 14  1  0
 14 10  1  0
 15 16  2  0
 14 15  1  1
 18 17  1  1
 19 18  1  0
 20 18  1  0
 20 21  1  1
 21 15  1  0
 22 20  1  0
 23 22  1  0
 24 22  2  0
M  END
$$$$
