KPV.pdb
     RDKit          3D

 24 24  0  0  1  0  0  0  0  0999 V2000
    9.7581  -15.7880   15.2029 N   0  0  0  0  0  0  0  0  0  0  0  0
    8.7633  -15.5605   16.2157 C   0  0  1  0  0  0  0  0  0  0  0  0
    7.8811  -16.8072   16.3987 C   0  0  0  0  0  0  0  0  0  0  0  0
    8.7447  -17.9517   16.8888 C   0  0  0  0  0  0  0  0  0  0  0  0
    7.9529  -19.1807   17.1893 C   0  0  0  0  0  0  0  0  0  0  0  0
    8.7883  -20.3528   17.5965 C   0  0  0  0  0  0  0  0  0  0  0  0
    7.8695  -21.4284   17.9703 N   0  0  0  0  0  0  0  0  0  0  0  0
    9.3486  -15.1416   17.4996 C   0  0  0  0  0  0  0  0  0  0  0  0
   10.6199  -15.3182   17.5823 O   0  0  0  0  0  0  0  0  0  0  0  0
    8.6883  -14.5865   18.6134 N   0  0  0  0  0  0  0  0  0  0  0  0
    7.2938  -14.3335   18.7554 C   0  0  0  0  0  0  0  0  0  0  0  0
    7.2067  -13.2567   19.8184 C   0  0  0  0  0  0  0  0  0  0  0  0
    8.6455  -12.8397   20.0893 C   0  0  0  0  0  0  0  0  0  0  0  0
    9.3286  -14.1866   19.8447 C   0  0  1  0  0  0  0  0  0  0  0  0
    8.9819  -15.1764   20.8847 C   0  0  0  0  0  0  0  0  0  0  0  0
    7.9173  -15.8642   20.8108 O   0  0  0  0  0  0  0  0  0  0  0  0
   11.9169  -15.9465   23.8045 C   0  0  0  0  0  0  0  0  0  0  0  0
   11.2322  -17.0718   23.0513 C   0  0  2  0  0  0  0  0  0  0  0  0
   12.0403  -17.3657   21.8328 C   0  0  0  0  0  0  0  0  0  0  0  0
    9.8277  -16.6157   22.7340 C   0  0  2  0  0  0  0  0  0  0  0  0
    9.8595  -15.3609   21.9898 N   0  0  0  0  0  0  0  0  0  0  0  0
    9.1249  -16.4263   24.0193 C   0  0  0  0  0  0  0  0  0  0  0  0
    8.7952  -17.5274   24.7791 O   0  0  0  0  0  0  0  0  0  0  0  0
    8.8289  -15.2909   24.4215 O   0  0  0  0  0  0  0  0  0  0  0  0
  2  1  1  6
  3  2  1  0
  4  3  1  0
  5  4  1  0
  5  6  1  0
  7  6  1  0
  8  2  1  0
  9  8  2  0
 10 11  1  0
 10  8  1  0
 12 11  1  0
 13 12  1  0
 13 14  1  0
 14 10  1  0
 15 16  2  0
 14 15  1  1
 18 17  1  6
 19 18  1  0
 20 18  1  0
 20 21  1  1
 21 15  1  0
 22 20  1  0
 23 22  1  0
 24 22  2  0
M  END
$$$$
