KPV.pdb
     RDKit          3D

 24 24  0  0  1  0  0  0  0  0999 V2000
    8.5656  -14.9692   20.5196 N   0  0  0  0  0  0  0  0  0  0  0  0
    7.6650  -14.8900   21.6376 C   0  0  1  0  0  0  0  0  0  0  0  0
    6.9620  -16.2393   21.8641 C   0  0  0  0  0  0  0  0  0  0  0  0
    7.4374  -17.2226   20.8137 C   0  0  0  0  0  0  0  0  0  0  0  0
    7.9052  -18.5113   21.4036 C   0  0  0  0  0  0  0  0  0  0  0  0
    8.2358  -19.5565   20.3858 C   0  0  0  0  0  0  0  0  0  0  0  0
    8.7693  -20.7105   21.1102 N   0  0  0  0  0  0  0  0  0  0  0  0
    8.3305  -14.4345   22.8689 C   0  0  0  0  0  0  0  0  0  0  0  0
    9.6112  -14.3574   22.7788 O   0  0  0  0  0  0  0  0  0  0  0  0
    7.7359  -14.0855   24.0976 N   0  0  0  0  0  0  0  0  0  0  0  0
    6.3506  -14.1144   24.4279 C   0  0  0  0  0  0  0  0  0  0  0  0
    6.2121  -13.1411   25.5814 C   0  0  0  0  0  0  0  0  0  0  0  0
    7.5737  -12.4727   25.7112 C   0  0  0  0  0  0  0  0  0  0  0  0
    8.4521  -13.6457   25.2721 C   0  0  1  0  0  0  0  0  0  0  0  0
    8.4354  -14.7452   26.2582 C   0  0  0  0  0  0  0  0  0  0  0  0
    7.7897  -15.8163   26.0397 O   0  0  0  0  0  0  0  0  0  0  0  0
   12.2026  -15.8448   29.2343 C   0  0  0  0  0  0  0  0  0  0  0  0
   11.2101  -14.7930   28.7748 C   0  0  2  0  0  0  0  0  0  0  0  0
   10.4461  -14.3312   29.9694 C   0  0  0  0  0  0  0  0  0  0  0  0
   10.3336  -15.4271   27.7207 C   0  0  2  0  0  0  0  0  0  0  0  0
    9.1574  -14.5987   27.4759 N   0  0  0  0  0  0  0  0  0  0  0  0
    9.9246  -16.7530   28.2268 C   0  0  0  0  0  0  0  0  0  0  0  0
    8.5973  -16.9888   28.5117 O   0  0  0  0  0  0  0  0  0  0  0  0
   10.7595  -17.6542   28.3979 O   0  0  0  0  0  0  0  0  0  0  0  0
  2  1  1  6
  3  2  1  0
  4  3  1  0
  5  4  1  0
  5  6  1  0
  7  6  1  0
  8  2  1  0
  9  8  2  0
 10 11  1  0
 10  8  1  0
 12 11  1  0
 13 12  1  0
 13 14  1  0
 14 10  1  0
 15 16  2  0
 14 15  1  1
 18 17  1  1
 19 18  1  0
 20 18  1  0
 20 21  1  1
 21 15  1  0
 22 20  1  0
 23 22  1  0
 24 22  2  0
M  END
$$$$
