KPV.pdb
     RDKit          3D

 24 24  0  0  1  0  0  0  0  0999 V2000
    8.4352  -14.1340   20.4093 N   0  0  0  0  0  0  0  0  0  0  0  0
    7.5679  -14.2696   21.5480 C   0  0  1  0  0  0  0  0  0  0  0  0
    6.9224  -15.6655   21.5746 C   0  0  0  0  0  0  0  0  0  0  0  0
    7.9194  -16.6772   21.0470 C   0  0  0  0  0  0  0  0  0  0  0  0
    7.8705  -17.9719   21.7881 C   0  0  0  0  0  0  0  0  0  0  0  0
    8.8008  -19.0118   21.2490 C   0  0  0  0  0  0  0  0  0  0  0  0
    8.7276  -20.1638   22.1482 N   0  0  0  0  0  0  0  0  0  0  0  0
    8.2547  -13.9872   22.8189 C   0  0  0  0  0  0  0  0  0  0  0  0
    9.5290  -13.8505   22.7108 O   0  0  0  0  0  0  0  0  0  0  0  0
    7.6859  -13.8555   24.1011 N   0  0  0  0  0  0  0  0  0  0  0  0
    6.3499  -14.1591   24.4907 C   0  0  0  0  0  0  0  0  0  0  0  0
    6.1164  -13.3276   25.7361 C   0  0  0  0  0  0  0  0  0  0  0  0
    7.3466  -12.4403   25.8655 C   0  0  0  0  0  0  0  0  0  0  0  0
    8.3864  -13.3961   25.2776 C   0  0  1  0  0  0  0  0  0  0  0  0
    8.6219  -14.5605   26.1552 C   0  0  0  0  0  0  0  0  0  0  0  0
    8.1966  -15.7159   25.8452 O   0  0  0  0  0  0  0  0  0  0  0  0
   11.6975  -15.8838   29.6990 C   0  0  0  0  0  0  0  0  0  0  0  0
   11.2565  -14.7144   28.8384 C   0  0  2  0  0  0  0  0  0  0  0  0
   10.4781  -13.7791   29.7005 C   0  0  0  0  0  0  0  0  0  0  0  0
   10.4477  -15.2749   27.6925 C   0  0  2  0  0  0  0  0  0  0  0  0
    9.3396  -14.3815   27.3712 N   0  0  0  0  0  0  0  0  0  0  0  0
    9.9315  -16.5912   28.1198 C   0  0  0  0  0  0  0  0  0  0  0  0
   10.8116  -17.6339   28.3106 O   0  0  0  0  0  0  0  0  0  0  0  0
    8.7184  -16.7684   28.3083 O   0  0  0  0  0  0  0  0  0  0  0  0
  2  1  1  6
  3  2  1  0
  4  3  1  0
  5  4  1  0
  5  6  1  0
  7  6  1  0
  8  2  1  0
  9  8  2  0
 10 11  1  0
 10  8  1  0
 12 11  1  0
 13 12  1  0
 13 14  1  0
 14 10  1  0
 15 16  2  0
 14 15  1  1
 18 17  1  1
 19 18  1  0
 20 18  1  0
 20 21  1  1
 21 15  1  0
 22 20  1  0
 23 22  1  0
 24 22  2  0
M  END
$$$$
