KPV.pdb
     RDKit          3D

 24 24  0  0  1  0  0  0  0  0999 V2000
    9.1651  -15.4384   20.6646 N   0  0  0  0  0  0  0  0  0  0  0  0
    8.1298  -15.2020   21.6338 C   0  0  1  0  0  0  0  0  0  0  0  0
    7.1825  -16.4107   21.7208 C   0  0  0  0  0  0  0  0  0  0  0  0
    7.9916  -17.6444   22.0665 C   0  0  0  0  0  0  0  0  0  0  0  0
    7.1413  -18.8584   22.2417 C   0  0  0  0  0  0  0  0  0  0  0  0
    7.9145  -20.0939   22.5777 C   0  0  0  0  0  0  0  0  0  0  0  0
    6.9430  -21.1690   22.7808 N   0  0  0  0  0  0  0  0  0  0  0  0
    8.6652  -14.8612   22.9618 C   0  0  0  0  0  0  0  0  0  0  0  0
    9.9474  -14.9178   23.0440 O   0  0  0  0  0  0  0  0  0  0  0  0
    7.9482  -14.4920   24.1170 N   0  0  0  0  0  0  0  0  0  0  0  0
    6.5440  -14.5935   24.3335 C   0  0  0  0  0  0  0  0  0  0  0  0
    6.2498  -13.5765   25.4181 C   0  0  0  0  0  0  0  0  0  0  0  0
    7.5530  -12.8169   25.6234 C   0  0  0  0  0  0  0  0  0  0  0  0
    8.5341  -13.9512   25.3213 C   0  0  1  0  0  0  0  0  0  0  0  0
    8.4990  -15.0006   26.3599 C   0  0  0  0  0  0  0  0  0  0  0  0
    7.9744  -16.1344   26.1335 O   0  0  0  0  0  0  0  0  0  0  0  0
    9.9122  -14.7174   30.3213 C   0  0  0  0  0  0  0  0  0  0  0  0
   10.9314  -14.6269   29.2009 C   0  0  2  0  0  0  0  0  0  0  0  0
   11.2137  -13.1835   28.9538 C   0  0  0  0  0  0  0  0  0  0  0  0
   10.3466  -15.3297   27.9986 C   0  0  2  0  0  0  0  0  0  0  0  0
    9.0644  -14.7334   27.6384 N   0  0  0  0  0  0  0  0  0  0  0  0
   10.1620  -16.7488   28.3642 C   0  0  0  0  0  0  0  0  0  0  0  0
    8.8885  -17.2705   28.4306 O   0  0  0  0  0  0  0  0  0  0  0  0
   11.1371  -17.4743   28.6115 O   0  0  0  0  0  0  0  0  0  0  0  0
  2  1  1  6
  3  2  1  0
  4  3  1  0
  5  4  1  0
  5  6  1  0
  7  6  1  0
  8  2  1  0
  9  8  2  0
 10 11  1  0
 10  8  1  0
 12 11  1  0
 13 12  1  0
 13 14  1  0
 14 10  1  0
 15 16  2  0
 14 15  1  1
 18 17  1  1
 19 18  1  0
 20 18  1  0
 20 21  1  1
 21 15  1  0
 22 20  1  0
 23 22  1  0
 24 22  2  0
M  END
$$$$
