KPV.pdb
     RDKit          3D

 24 24  0  0  1  0  0  0  0  0999 V2000
    9.2267  -16.9966   16.1144 N   0  0  0  0  0  0  0  0  0  0  0  0
    8.2920  -16.4287   17.0478 C   0  0  1  0  0  0  0  0  0  0  0  0
    7.2150  -17.4580   17.4305 C   0  0  0  0  0  0  0  0  0  0  0  0
    7.8852  -18.6498   18.0836 C   0  0  0  0  0  0  0  0  0  0  0  0
    6.9219  -19.7410   18.4133 C   0  0  0  0  0  0  0  0  0  0  0  0
    7.5722  -20.9853   18.9293 C   0  0  0  0  0  0  0  0  0  0  0  0
    6.5007  -21.9060   19.3103 N   0  0  0  0  0  0  0  0  0  0  0  0
    8.9494  -15.8892   18.2491 C   0  0  0  0  0  0  0  0  0  0  0  0
   10.1752  -16.2529   18.3880 O   0  0  0  0  0  0  0  0  0  0  0  0
    8.3989  -15.0447   19.2334 N   0  0  0  0  0  0  0  0  0  0  0  0
    7.0412  -14.6327   19.3595 C   0  0  0  0  0  0  0  0  0  0  0  0
    7.1042  -13.3481   20.1613 C   0  0  0  0  0  0  0  0  0  0  0  0
    8.5862  -13.0242   20.2887 C   0  0  0  0  0  0  0  0  0  0  0  0
    9.1346  -14.4519   20.3258 C   0  0  1  0  0  0  0  0  0  0  0  0
    8.7563  -15.1548   21.5685 C   0  0  0  0  0  0  0  0  0  0  0  0
    7.6340  -15.7378   21.6802 O   0  0  0  0  0  0  0  0  0  0  0  0
   10.9601  -17.4837   21.1819 C   0  0  0  0  0  0  0  0  0  0  0  0
   11.3545  -16.9332   22.5399 C   0  0  2  0  0  0  0  0  0  0  0  0
   12.0482  -18.0192   23.2905 C   0  0  0  0  0  0  0  0  0  0  0  0
   10.0924  -16.4571   23.2195 C   0  0  2  0  0  0  0  0  0  0  0  0
    9.6689  -15.1774   22.6604 N   0  0  0  0  0  0  0  0  0  0  0  0
   10.3956  -16.3077   24.6574 C   0  0  0  0  0  0  0  0  0  0  0  0
   10.6030  -15.0491   25.1781 O   0  0  0  0  0  0  0  0  0  0  0  0
   10.4656  -17.2991   25.3993 O   0  0  0  0  0  0  0  0  0  0  0  0
  2  1  1  6
  3  2  1  0
  4  3  1  0
  5  4  1  0
  5  6  1  0
  7  6  1  0
  8  2  1  0
  9  8  2  0
 10 11  1  0
 10  8  1  0
 12 11  1  0
 13 12  1  0
 13 14  1  0
 14 10  1  0
 15 16  2  0
 14 15  1  1
 18 17  1  6
 19 18  1  0
 20 18  1  0
 20 21  1  6
 21 15  1  0
 22 20  1  0
 23 22  1  0
 24 22  2  0
M  END
$$$$
