IRG.pdb
     RDKit          3D

 24 23  0  0  1  0  0  0  0  0999 V2000
   27.8295  -20.1039   -7.0261 C   0  0  0  0  0  0  0  0  0  0  0  0
   27.6225  -20.9177   -8.2613 C   0  0  0  0  0  0  0  0  0  0  0  0
   26.3816  -20.4644   -9.0497 C   0  0  2  0  0  0  0  0  0  0  0  0
   25.1965  -20.9646   -8.3145 C   0  0  0  0  0  0  0  0  0  0  0  0
   26.5846  -20.9751  -10.4357 C   0  0  2  0  0  0  0  0  0  0  0  0
   28.0190  -20.7968  -10.7281 N   0  0  0  0  0  0  0  0  0  0  0  0
   25.7686  -20.3988  -11.4895 C   0  0  0  0  0  0  0  0  0  0  0  0
   25.8407  -19.2088  -11.8548 O   0  0  0  0  0  0  0  0  0  0  0  0
   26.3860  -21.7471  -17.9525 N   0  0  0  0  0  0  0  0  0  0  0  0
   26.7520  -22.9264  -17.2559 C   0  0  0  0  0  0  0  0  0  0  0  0
   26.9179  -24.0772  -17.8669 N   0  0  0  0  0  0  0  0  0  0  0  0
   26.9628  -22.9541  -15.8540 N   0  0  0  0  0  0  0  0  0  0  0  0
   26.8131  -21.8300  -15.0060 C   0  0  0  0  0  0  0  0  0  0  0  0
   25.5660  -20.9974  -15.2075 C   0  0  0  0  0  0  0  0  0  0  0  0
   24.4445  -21.5540  -14.4385 C   0  0  0  0  0  0  0  0  0  0  0  0
   23.9674  -20.7175  -13.2514 C   0  0  2  0  0  0  0  0  0  0  0  0
   24.8274  -21.2180  -12.1560 N   0  0  0  0  0  0  0  0  0  0  0  0
   22.5768  -20.9666  -12.8649 C   0  0  0  0  0  0  0  0  0  0  0  0
   22.3466  -21.6215  -11.8075 O   0  0  0  0  0  0  0  0  0  0  0  0
   27.1569  -24.8810  -17.2489 N   0  0  0  0  0  0  0  0  0  0  0  0
   21.4257  -20.5338  -13.5724 C   0  0  0  0  0  0  0  0  0  0  0  0
   20.0732  -20.8359  -13.0957 C   0  0  0  0  0  0  0  0  0  0  0  0
   19.2693  -19.5802  -13.0982 O   0  0  0  0  0  0  0  0  0  0  0  0
   19.7406  -18.5128  -13.5186 O   0  0  0  0  0  0  0  0  0  0  0  0
  1  2  1  0
  3  4  1  1
  3  2  1  0
  5  3  1  0
  5  6  1  6
  7  8  2  0
  7  5  1  0
 10  9  1  0
 11 10  2  0
 12 10  1  0
 13 12  1  0
 14 15  1  0
 14 13  1  0
 16 15  1  6
 16 17  1  0
 17  7  1  0
 18 16  1  0
 19 18  2  0
 20 18  1  0
 21 20  1  0
 22 21  1  0
 22 24  1  0
 23 22  2  0
M  END
$$$$
