IRG.pdb
     RDKit          3D

 24 23  0  0  1  0  0  0  0  0999 V2000
   27.0842  -16.2137  -14.8573 C   0  0  0  0  0  0  0  0  0  0  0  0
   25.6626  -16.6085  -15.0894 C   0  0  0  0  0  0  0  0  0  0  0  0
   25.5320  -17.6726  -16.1928 C   0  0  2  0  0  0  0  0  0  0  0  0
   26.1466  -17.1045  -17.4154 C   0  0  0  0  0  0  0  0  0  0  0  0
   24.0793  -18.0024  -16.2551 C   0  0  2  0  0  0  0  0  0  0  0  0
   23.4194  -17.1156  -15.2788 N   0  0  0  0  0  0  0  0  0  0  0  0
   23.6952  -19.3855  -16.0365 C   0  0  0  0  0  0  0  0  0  0  0  0
   23.9700  -20.3170  -16.8185 O   0  0  0  0  0  0  0  0  0  0  0  0
   27.6993  -20.7388  -11.1024 N   0  0  0  0  0  0  0  0  0  0  0  0
   26.3623  -20.5641  -10.6647 C   0  0  0  0  0  0  0  0  0  0  0  0
   26.0548  -19.7985   -9.6427 N   0  0  0  0  0  0  0  0  0  0  0  0
   25.2614  -21.2013  -11.2913 N   0  0  0  0  0  0  0  0  0  0  0  0
   25.3808  -22.1337  -12.3503 C   0  0  0  0  0  0  0  0  0  0  0  0
   24.6818  -21.7753  -13.6433 C   0  0  0  0  0  0  0  0  0  0  0  0
   23.2554  -21.5166  -13.4040 C   0  0  0  0  0  0  0  0  0  0  0  0
   22.4411  -21.0819  -14.6224 C   0  0  2  0  0  0  0  0  0  0  0  0
   22.9638  -19.7202  -14.8728 N   0  0  0  0  0  0  0  0  0  0  0  0
   21.0039  -20.9592  -14.3681 C   0  0  0  0  0  0  0  0  0  0  0  0
   20.5897  -19.9896  -13.6694 O   0  0  0  0  0  0  0  0  0  0  0  0
   25.0413  -19.7540   -9.4065 N   0  0  0  0  0  0  0  0  0  0  0  0
   19.9966  -21.8392  -14.8412 C   0  0  0  0  0  0  0  0  0  0  0  0
   18.5736  -21.5643  -14.6240 C   0  0  0  0  0  0  0  0  0  0  0  0
   18.1347  -22.2516  -13.3758 O   0  0  0  0  0  0  0  0  0  0  0  0
   16.9566  -22.2020  -12.9915 O   0  0  0  0  0  0  0  0  0  0  0  0
  1  2  1  0
  3  4  1  6
  3  2  1  0
  5  3  1  0
  5  6  1  1
  7  8  2  0
  7  5  1  0
 10  9  1  0
 11 10  2  0
 12 10  1  0
 13 12  1  0
 14 15  1  0
 14 13  1  0
 16 15  1  1
 16 17  1  0
 17  7  1  0
 18 16  1  0
 19 18  2  0
 20 18  1  0
 21 20  1  0
 22 21  1  0
 22 24  1  0
 23 22  2  0
M  END
$$$$
