IRG.pdb
     RDKit          3D

 24 23  0  0  1  0  0  0  0  0999 V2000
   27.1291  -14.8838  -16.2419 C   0  0  0  0  0  0  0  0  0  0  0  0
   26.3052  -13.8863  -15.4956 C   0  0  0  0  0  0  0  0  0  0  0  0
   26.1448  -12.5706  -16.2765 C   0  0  2  0  0  0  0  0  0  0  0  0
   27.5056  -12.1271  -16.6595 C   0  0  0  0  0  0  0  0  0  0  0  0
   25.3659  -11.6698  -15.3793 C   0  0  2  0  0  0  0  0  0  0  0  0
   24.1324  -12.4031  -15.0392 N   0  0  0  0  0  0  0  0  0  0  0  0
   25.0553  -10.3389  -15.8698 C   0  0  0  0  0  0  0  0  0  0  0  0
   25.9163   -9.4899  -16.1741 O   0  0  0  0  0  0  0  0  0  0  0  0
   23.0554  -11.5410  -20.2616 N   0  0  0  0  0  0  0  0  0  0  0  0
   21.8506  -11.3472  -20.9833 C   0  0  0  0  0  0  0  0  0  0  0  0
   21.6890  -11.7932  -22.2081 N   0  0  0  0  0  0  0  0  0  0  0  0
   20.7355  -10.6584  -20.4422 N   0  0  0  0  0  0  0  0  0  0  0  0
   20.7517   -9.9686  -19.2057 C   0  0  0  0  0  0  0  0  0  0  0  0
   22.1148   -9.6443  -18.6347 C   0  0  0  0  0  0  0  0  0  0  0  0
   21.9846   -9.0291  -17.3068 C   0  0  0  0  0  0  0  0  0  0  0  0
   23.2941   -8.6645  -16.6076 C   0  0  2  0  0  0  0  0  0  0  0  0
   23.7006   -9.9601  -16.0192 N   0  0  0  0  0  0  0  0  0  0  0  0
   23.1384   -7.7126  -15.5054 C   0  0  0  0  0  0  0  0  0  0  0  0
   22.6577   -8.1230  -14.4098 O   0  0  0  0  0  0  0  0  0  0  0  0
   20.7859  -11.5393  -22.6607 N   0  0  0  0  0  0  0  0  0  0  0  0
   23.4845   -6.3371  -15.5380 C   0  0  0  0  0  0  0  0  0  0  0  0
   23.3735   -5.4894  -14.3476 C   0  0  0  0  0  0  0  0  0  0  0  0
   21.9762   -4.9789  -14.2478 O   0  0  0  0  0  0  0  0  0  0  0  0
   21.1224   -5.2635  -15.1010 O   0  0  0  0  0  0  0  0  0  0  0  0
  1  2  1  0
  3  4  1  1
  3  2  1  0
  5  3  1  0
  5  6  1  6
  7  8  2  0
  7  5  1  0
 10  9  1  0
 11 10  2  0
 12 10  1  0
 13 12  1  0
 14 15  1  0
 14 13  1  0
 16 15  1  1
 16 17  1  0
 17  7  1  0
 18 16  1  0
 19 18  2  0
 20 18  1  0
 21 20  1  0
 22 21  1  0
 22 24  1  0
 23 22  2  0
M  END
$$$$
