IRG.pdb
     RDKit          3D

 24 23  0  0  1  0  0  0  0  0999 V2000
   18.5411  -19.2817  -16.5488 C   0  0  0  0  0  0  0  0  0  0  0  0
   19.7894  -19.6894  -15.8373 C   0  0  0  0  0  0  0  0  0  0  0  0
   20.9056  -18.6409  -15.9834 C   0  0  2  0  0  0  0  0  0  0  0  0
   21.0756  -18.3904  -17.4337 C   0  0  0  0  0  0  0  0  0  0  0  0
   22.0761  -19.2036  -15.2510 C   0  0  2  0  0  0  0  0  0  0  0  0
   21.6007  -19.4899  -13.8846 N   0  0  0  0  0  0  0  0  0  0  0  0
   23.2917  -18.4101  -15.2178 C   0  0  0  0  0  0  0  0  0  0  0  0
   23.3796  -17.2924  -14.6722 O   0  0  0  0  0  0  0  0  0  0  0  0
   25.7314  -21.3032  -10.7459 N   0  0  0  0  0  0  0  0  0  0  0  0
   26.1869  -21.7447  -12.0137 C   0  0  0  0  0  0  0  0  0  0  0  0
   25.7453  -22.8494  -12.5703 N   0  0  0  0  0  0  0  0  0  0  0  0
   27.1507  -21.0331  -12.7721 N   0  0  0  0  0  0  0  0  0  0  0  0
   27.2825  -19.6232  -12.7666 C   0  0  0  0  0  0  0  0  0  0  0  0
   26.2744  -18.8507  -13.5889 C   0  0  0  0  0  0  0  0  0  0  0  0
   26.6470  -18.8674  -15.0101 C   0  0  0  0  0  0  0  0  0  0  0  0
   25.7045  -18.1246  -15.9570 C   0  0  2  0  0  0  0  0  0  0  0  0
   24.4595  -18.9153  -15.8359 N   0  0  0  0  0  0  0  0  0  0  0  0
   26.1145  -18.1660  -17.3626 C   0  0  0  0  0  0  0  0  0  0  0  0
   25.9086  -19.2230  -18.0260 O   0  0  0  0  0  0  0  0  0  0  0  0
   26.1930  -23.1036  -13.4758 N   0  0  0  0  0  0  0  0  0  0  0  0
   26.7340  -17.1108  -18.0806 C   0  0  0  0  0  0  0  0  0  0  0  0
   27.1272  -17.2648  -19.4840 C   0  0  0  0  0  0  0  0  0  0  0  0
   28.3619  -18.0980  -19.5501 O   0  0  0  0  0  0  0  0  0  0  0  0
   28.8874  -18.5559  -18.5243 O   0  0  0  0  0  0  0  0  0  0  0  0
  1  2  1  0
  3  4  1  6
  3  2  1  0
  5  3  1  0
  5  6  1  1
  7  8  2  0
  7  5  1  0
 10  9  1  0
 11 10  2  0
 12 10  1  0
 13 12  1  0
 14 15  1  0
 14 13  1  0
 16 15  1  1
 16 17  1  0
 17  7  1  0
 18 16  1  0
 19 18  2  0
 20 18  1  0
 21 20  1  0
 22 21  1  0
 22 24  1  0
 23 22  2  0
M  END
$$$$
