IRG.pdb
     RDKit          3D

 24 23  0  0  1  0  0  0  0  0999 V2000
   32.2048  -22.9170  -10.2769 C   0  0  0  0  0  0  0  0  0  0  0  0
   32.1219  -21.6018  -10.9799 C   0  0  0  0  0  0  0  0  0  0  0  0
   30.8069  -20.8650  -10.6724 C   0  0  2  0  0  0  0  0  0  0  0  0
   30.3695  -21.3056   -9.3272 C   0  0  0  0  0  0  0  0  0  0  0  0
   29.9016  -21.1766  -11.8153 C   0  0  2  0  0  0  0  0  0  0  0  0
   30.7023  -20.9682  -13.0361 N   0  0  0  0  0  0  0  0  0  0  0  0
   28.6455  -20.4523  -11.8932 C   0  0  0  0  0  0  0  0  0  0  0  0
   28.5610  -19.2204  -12.0667 O   0  0  0  0  0  0  0  0  0  0  0  0
   20.5969  -20.8445  -13.8070 N   0  0  0  0  0  0  0  0  0  0  0  0
   21.2160  -20.0247  -14.7840 C   0  0  0  0  0  0  0  0  0  0  0  0
   20.5462  -19.1285  -15.4720 N   0  0  0  0  0  0  0  0  0  0  0  0
   22.5971  -20.1112  -15.0933 N   0  0  0  0  0  0  0  0  0  0  0  0
   23.4998  -20.9969  -14.4561 C   0  0  0  0  0  0  0  0  0  0  0  0
   24.0271  -20.5628  -13.1061 C   0  0  0  0  0  0  0  0  0  0  0  0
   25.4592  -20.8698  -12.9889 C   0  0  0  0  0  0  0  0  0  0  0  0
   26.1168  -20.4946  -11.6610 C   0  0  2  0  0  0  0  0  0  0  0  0
   27.4310  -21.1666  -11.7670 N   0  0  0  0  0  0  0  0  0  0  0  0
   25.4395  -21.0410  -10.4829 C   0  0  0  0  0  0  0  0  0  0  0  0
   25.4988  -22.2863  -10.2693 O   0  0  0  0  0  0  0  0  0  0  0  0
   21.0941  -18.6221  -16.1989 N   0  0  0  0  0  0  0  0  0  0  0  0
   24.7043  -20.2962   -9.5250 C   0  0  0  0  0  0  0  0  0  0  0  0
   24.0357  -20.9474   -8.3951 C   0  0  0  0  0  0  0  0  0  0  0  0
   22.6041  -21.1718   -8.7461 O   0  0  0  0  0  0  0  0  0  0  0  0
   22.1610  -20.8810   -9.8673 O   0  0  0  0  0  0  0  0  0  0  0  0
  1  2  1  0
  3  4  1  1
  3  2  1  0
  5  3  1  0
  5  6  1  6
  7  8  2  0
  7  5  1  0
 10  9  1  0
 11 10  2  0
 12 10  1  0
 13 12  1  0
 14 15  1  0
 14 13  1  0
 16 15  1  6
 16 17  1  0
 17  7  1  0
 18 16  1  0
 19 18  2  0
 20 18  1  0
 21 20  1  0
 22 21  1  0
 22 24  1  0
 23 22  2  0
M  END
$$$$
