IRG.pdb
     RDKit          3D

 24 23  0  0  1  0  0  0  0  0999 V2000
   26.8451  -26.8037  -18.7947 C   0  0  0  0  0  0  0  0  0  0  0  0
   26.6776  -26.3762  -17.3735 C   0  0  0  0  0  0  0  0  0  0  0  0
   25.7430  -25.1613  -17.2426 C   0  0  2  0  0  0  0  0  0  0  0  0
   26.4454  -24.0085  -17.8532 C   0  0  0  0  0  0  0  0  0  0  0  0
   25.4188  -25.0656  -15.7904 C   0  0  2  0  0  0  0  0  0  0  0  0
   24.8257  -26.3642  -15.4204 N   0  0  0  0  0  0  0  0  0  0  0  0
   24.5667  -23.9699  -15.3639 C   0  0  0  0  0  0  0  0  0  0  0  0
   23.3225  -23.9828  -15.4439 O   0  0  0  0  0  0  0  0  0  0  0  0
   23.0056  -20.5561   -9.3854 N   0  0  0  0  0  0  0  0  0  0  0  0
   24.1410  -21.1252   -8.7553 C   0  0  0  0  0  0  0  0  0  0  0  0
   24.1105  -21.5560   -7.5148 N   0  0  0  0  0  0  0  0  0  0  0  0
   25.3898  -21.2691   -9.4112 N   0  0  0  0  0  0  0  0  0  0  0  0
   25.6315  -20.8842  -10.7523 C   0  0  0  0  0  0  0  0  0  0  0  0
   24.7912  -21.5666  -11.8093 C   0  0  0  0  0  0  0  0  0  0  0  0
   25.2309  -21.1691  -13.1537 C   0  0  0  0  0  0  0  0  0  0  0  0
   24.3682  -21.6661  -14.3135 C   0  0  2  0  0  0  0  0  0  0  0  0
   25.1622  -22.8068  -14.8218 N   0  0  0  0  0  0  0  0  0  0  0  0
   24.2301  -20.7054  -15.4105 C   0  0  0  0  0  0  0  0  0  0  0  0
   25.2524  -20.4119  -16.0951 O   0  0  0  0  0  0  0  0  0  0  0  0
   24.9750  -22.0356   -7.1869 N   0  0  0  0  0  0  0  0  0  0  0  0
   23.0322  -20.0525  -15.7997 C   0  0  0  0  0  0  0  0  0  0  0  0
   23.0005  -19.1133  -16.9242 C   0  0  0  0  0  0  0  0  0  0  0  0
   21.5964  -18.6569  -17.1319 O   0  0  0  0  0  0  0  0  0  0  0  0
   20.6600  -19.1263  -16.4678 O   0  0  0  0  0  0  0  0  0  0  0  0
  1  2  1  0
  3  4  1  1
  3  2  1  0
  5  3  1  0
  5  6  1  6
  7  8  2  0
  7  5  1  0
 10  9  1  0
 11 10  2  0
 12 10  1  0
 13 12  1  0
 14 15  1  0
 14 13  1  0
 16 15  1  1
 16 17  1  0
 17  7  1  0
 18 16  1  0
 19 18  2  0
 20 18  1  0
 21 20  1  0
 22 21  1  0
 22 24  1  0
 23 22  2  0
M  END
$$$$
