IRG.pdb
     RDKit          3D

 24 23  0  0  1  0  0  0  0  0999 V2000
   14.6669  -13.3620  -16.3001 C   0  0  0  0  0  0  0  0  0  0  0  0
   16.0710  -13.5000  -16.7899 C   0  0  0  0  0  0  0  0  0  0  0  0
   17.0656  -12.7115  -15.9206 C   0  0  2  0  0  0  0  0  0  0  0  0
   16.9092  -11.2814  -16.2747 C   0  0  0  0  0  0  0  0  0  0  0  0
   18.3965  -13.3320  -16.1791 C   0  0  2  0  0  0  0  0  0  0  0  0
   18.2954  -14.7235  -15.7010 N   0  0  0  0  0  0  0  0  0  0  0  0
   19.5633  -12.6770  -15.6153 C   0  0  0  0  0  0  0  0  0  0  0  0
   19.9200  -12.7913  -14.4261 O   0  0  0  0  0  0  0  0  0  0  0  0
   27.4752  -12.7934  -15.8454 N   0  0  0  0  0  0  0  0  0  0  0  0
   27.2412  -11.4003  -15.9645 C   0  0  0  0  0  0  0  0  0  0  0  0
   28.1511  -10.5750  -16.4296 N   0  0  0  0  0  0  0  0  0  0  0  0
   26.0151  -10.7944  -15.5901 N   0  0  0  0  0  0  0  0  0  0  0  0
   24.7435  -11.3830  -15.7941 C   0  0  0  0  0  0  0  0  0  0  0  0
   23.8816  -10.7641  -16.8727 C   0  0  0  0  0  0  0  0  0  0  0  0
   22.6033  -11.4797  -16.9853 C   0  0  0  0  0  0  0  0  0  0  0  0
   21.5416  -11.1193  -15.9464 C   0  0  2  0  0  0  0  0  0  0  0  0
   20.3585  -11.8540  -16.4468 N   0  0  0  0  0  0  0  0  0  0  0  0
   21.1932   -9.6969  -15.9163 C   0  0  0  0  0  0  0  0  0  0  0  0
   20.6350   -9.1852  -16.9293 O   0  0  0  0  0  0  0  0  0  0  0  0
   27.8304   -9.5957  -16.5814 N   0  0  0  0  0  0  0  0  0  0  0  0
   21.4200   -8.8068  -14.8350 C   0  0  0  0  0  0  0  0  0  0  0  0
   20.9992   -7.4043  -14.8943 C   0  0  0  0  0  0  0  0  0  0  0  0
   22.0139   -6.6285  -15.6635 O   0  0  0  0  0  0  0  0  0  0  0  0
   22.9645   -7.1906  -16.2278 O   0  0  0  0  0  0  0  0  0  0  0  0
  1  2  1  0
  3  4  1  6
  3  2  1  0
  5  3  1  0
  5  6  1  1
  7  8  2  0
  7  5  1  0
 10  9  1  0
 11 10  2  0
 12 10  1  0
 13 12  1  0
 14 15  1  0
 14 13  1  0
 16 15  1  6
 16 17  1  0
 17  7  1  0
 18 16  1  0
 19 18  2  0
 20 18  1  0
 21 20  1  0
 22 21  1  0
 22 24  1  0
 23 22  2  0
M  END
$$$$
