IRG.pdb
     RDKit          3D

 24 23  0  0  1  0  0  0  0  0999 V2000
   28.5194  -19.2064   -5.0690 C   0  0  0  0  0  0  0  0  0  0  0  0
   27.1616  -19.2062   -5.6911 C   0  0  0  0  0  0  0  0  0  0  0  0
   27.0841  -20.1450   -6.9074 C   0  0  2  0  0  0  0  0  0  0  0  0
   28.1975  -19.7733   -7.8114 C   0  0  0  0  0  0  0  0  0  0  0  0
   25.6995  -19.9914   -7.4388 C   0  0  2  0  0  0  0  0  0  0  0  0
   24.7966  -20.3515   -6.3297 N   0  0  0  0  0  0  0  0  0  0  0  0
   25.3568  -20.7285   -8.6420 C   0  0  0  0  0  0  0  0  0  0  0  0
   25.1542  -21.9584   -8.6719 O   0  0  0  0  0  0  0  0  0  0  0  0
   19.6849  -20.3657  -15.0587 N   0  0  0  0  0  0  0  0  0  0  0  0
   20.6484  -21.4035  -15.1253 C   0  0  0  0  0  0  0  0  0  0  0  0
   20.6752  -22.2714  -16.1109 N   0  0  0  0  0  0  0  0  0  0  0  0
   21.6492  -21.5846  -14.1373 N   0  0  0  0  0  0  0  0  0  0  0  0
   21.9293  -20.6511  -13.1101 C   0  0  0  0  0  0  0  0  0  0  0  0
   23.3455  -20.1221  -13.0505 C   0  0  0  0  0  0  0  0  0  0  0  0
   23.7458  -19.8756  -11.6584 C   0  0  0  0  0  0  0  0  0  0  0  0
   24.9220  -20.7053  -11.1441 C   0  0  2  0  0  0  0  0  0  0  0  0
   25.2407  -20.0298   -9.8666 N   0  0  0  0  0  0  0  0  0  0  0  0
   26.1177  -20.6343  -11.9871 C   0  0  0  0  0  0  0  0  0  0  0  0
   26.7767  -19.5551  -12.0193 O   0  0  0  0  0  0  0  0  0  0  0  0
   21.4109  -23.0055  -16.0401 N   0  0  0  0  0  0  0  0  0  0  0  0
   26.6318  -21.6826  -12.7930 C   0  0  0  0  0  0  0  0  0  0  0  0
   27.8049  -21.4876  -13.6495 C   0  0  0  0  0  0  0  0  0  0  0  0
   27.3478  -21.0652  -15.0044 O   0  0  0  0  0  0  0  0  0  0  0  0
   26.1437  -20.9186  -15.2629 O   0  0  0  0  0  0  0  0  0  0  0  0
  1  2  1  0
  3  4  1  6
  3  2  1  0
  5  3  1  0
  5  6  1  1
  7  8  2  0
  7  5  1  0
 10  9  1  0
 11 10  2  0
 12 10  1  0
 13 12  1  0
 14 15  1  0
 14 13  1  0
 16 15  1  6
 16 17  1  0
 17  7  1  0
 18 16  1  0
 19 18  2  0
 20 18  1  0
 21 20  1  0
 22 21  1  0
 22 24  1  0
 23 22  2  0
M  END
$$$$
