EKP.pdb
     RDKit          3D

 26 26  0  0  1  0  0  0  0  0999 V2000
   17.5501  -14.8360  -17.5189 N   0  0  0  0  0  0  0  0  0  0  0  0
   17.2427  -13.9460  -16.4481 C   0  0  1  0  0  0  0  0  0  0  0  0
   17.7701  -14.5481  -15.1385 C   0  0  0  0  0  0  0  0  0  0  0  0
   16.8504  -15.6593  -14.6797 C   0  0  0  0  0  0  0  0  0  0  0  0
   17.5979  -16.8682  -14.2858 C   0  0  0  0  0  0  0  0  0  0  0  0
   18.1010  -16.9470  -13.1357 O   0  0  0  0  0  0  0  0  0  0  0  0
   17.9652  -12.6698  -16.6326 C   0  0  0  0  0  0  0  0  0  0  0  0
   19.1628  -12.7069  -17.0030 O   0  0  0  0  0  0  0  0  0  0  0  0
   17.7827  -17.9521  -15.1342 O   0  0  0  0  0  0  0  0  0  0  0  0
   17.3708  -11.4240  -16.4121 N   0  0  0  0  0  0  0  0  0  0  0  0
   18.0509  -10.1385  -16.6761 C   0  0  1  0  0  0  0  0  0  0  0  0
   16.9858   -9.0836  -16.8271 C   0  0  0  0  0  0  0  0  0  0  0  0
   17.5361   -7.7306  -17.0760 C   0  0  0  0  0  0  0  0  0  0  0  0
   16.4165   -6.6772  -17.1710 C   0  0  0  0  0  0  0  0  0  0  0  0
   16.9695   -5.3082  -17.4347 C   0  0  0  0  0  0  0  0  0  0  0  0
   15.8506   -4.3703  -17.5737 N   0  0  0  0  0  0  0  0  0  0  0  0
   19.0000   -9.9255  -15.5918 C   0  0  0  0  0  0  0  0  0  0  0  0
   18.6384  -10.3310  -14.4183 O   0  0  0  0  0  0  0  0  0  0  0  0
   20.2722   -9.3285  -15.6999 N   0  0  0  0  0  0  0  0  0  0  0  0
   20.9229   -8.8816  -16.9114 C   0  0  0  0  0  0  0  0  0  0  0  0
   22.3971   -9.2209  -16.6375 C   0  0  0  0  0  0  0  0  0  0  0  0
   22.5290   -8.7440  -15.2244 C   0  0  0  0  0  0  0  0  0  0  0  0
   21.2003   -9.1112  -14.6044 C   0  0  1  0  0  0  0  0  0  0  0  0
   20.7776   -8.0138  -13.7256 C   0  0  0  0  0  0  0  0  0  0  0  0
   21.2647   -7.8269  -12.4284 O   0  0  0  0  0  0  0  0  0  0  0  0
   19.9330   -7.1981  -14.1610 O   0  0  0  0  0  0  0  0  0  0  0  0
  2  7  1  0
  2  1  1  6
  3  2  1  0
  4  5  1  0
  4  3  1  0
  5  6  2  0
  7  8  2  0
  9  5  1  0
 10  7  1  0
 10 11  1  0
 11 12  1  1
 13 12  1  0
 13 14  1  0
 14 15  1  0
 15 16  1  0
 17 11  1  0
 18 17  2  0
 19 17  1  0
 19 23  1  0
 20 21  1  0
 20 19  1  0
 21 22  1  0
 22 23  1  0
 23 24  1  1
 24 25  1  0
 26 24  2  0
M  END
$$$$
