EKP.pdb
     RDKit          3D

 26 26  0  0  1  0  0  0  0  0999 V2000
   18.5710  -15.5490  -16.9670 N   0  0  0  0  0  0  0  0  0  0  0  0
   19.2902  -14.3462  -16.7039 C   0  0  1  0  0  0  0  0  0  0  0  0
   20.4033  -14.1973  -17.7502 C   0  0  0  0  0  0  0  0  0  0  0  0
   21.3205  -15.4001  -17.6956 C   0  0  0  0  0  0  0  0  0  0  0  0
   21.1696  -16.2645  -18.8811 C   0  0  0  0  0  0  0  0  0  0  0  0
   21.6901  -17.4095  -18.8924 O   0  0  0  0  0  0  0  0  0  0  0  0
   18.4004  -13.1796  -16.8833 C   0  0  0  0  0  0  0  0  0  0  0  0
   17.5781  -13.1927  -17.8301 O   0  0  0  0  0  0  0  0  0  0  0  0
   20.4675  -15.8761  -20.0148 O   0  0  0  0  0  0  0  0  0  0  0  0
   18.4365  -12.0631  -16.0431 N   0  0  0  0  0  0  0  0  0  0  0  0
   17.4929  -10.9305  -16.1521 C   0  0  1  0  0  0  0  0  0  0  0  0
   16.4809  -11.0743  -15.0452 C   0  0  0  0  0  0  0  0  0  0  0  0
   15.3716  -11.9958  -15.3852 C   0  0  0  0  0  0  0  0  0  0  0  0
   14.3665  -12.1177  -14.2247 C   0  0  0  0  0  0  0  0  0  0  0  0
   13.2321  -13.0350  -14.5729 C   0  0  0  0  0  0  0  0  0  0  0  0
   12.4690  -13.3195  -13.3532 N   0  0  0  0  0  0  0  0  0  0  0  0
   18.2857   -9.7087  -16.1268 C   0  0  0  0  0  0  0  0  0  0  0  0
   19.3203   -9.7062  -15.3510 O   0  0  0  0  0  0  0  0  0  0  0  0
   18.0380   -8.5364  -16.8689 N   0  0  0  0  0  0  0  0  0  0  0  0
   16.9950   -8.3319  -17.8494 C   0  0  0  0  0  0  0  0  0  0  0  0
   17.6926   -7.4425  -18.8913 C   0  0  0  0  0  0  0  0  0  0  0  0
   18.3948   -6.4707  -17.9944 C   0  0  0  0  0  0  0  0  0  0  0  0
   18.8386   -7.3255  -16.8296 C   0  0  1  0  0  0  0  0  0  0  0  0
   18.6372   -6.5645  -15.5904 C   0  0  0  0  0  0  0  0  0  0  0  0
   19.4258   -5.4734  -15.2130 O   0  0  0  0  0  0  0  0  0  0  0  0
   17.7069   -6.9112  -14.8272 O   0  0  0  0  0  0  0  0  0  0  0  0
  2  7  1  0
  2  1  1  6
  3  2  1  0
  4  5  1  0
  4  3  1  0
  5  6  2  0
  7  8  2  0
  9  5  1  0
 10  7  1  0
 10 11  1  0
 11 12  1  1
 13 12  1  0
 13 14  1  0
 14 15  1  0
 15 16  1  0
 17 11  1  0
 18 17  2  0
 19 17  1  0
 19 23  1  0
 20 21  1  0
 20 19  1  0
 21 22  1  0
 22 23  1  0
 23 24  1  1
 24 25  1  0
 26 24  2  0
M  END
$$$$
