EKP.pdb
     RDKit          3D

 26 26  0  0  1  0  0  0  0  0999 V2000
   17.1196  -13.0007    3.8142 N   0  0  0  0  0  0  0  0  0  0  0  0
   17.2004  -14.4013    4.0694 C   0  0  1  0  0  0  0  0  0  0  0  0
   18.0395  -15.0571    2.9642 C   0  0  0  0  0  0  0  0  0  0  0  0
   17.1568  -15.9391    2.1073 C   0  0  0  0  0  0  0  0  0  0  0  0
   17.3132  -17.3674    2.4402 C   0  0  0  0  0  0  0  0  0  0  0  0
   17.4382  -17.7211    3.6408 O   0  0  0  0  0  0  0  0  0  0  0  0
   17.9286  -14.6403    5.3332 C   0  0  0  0  0  0  0  0  0  0  0  0
   18.8452  -13.8477    5.6562 O   0  0  0  0  0  0  0  0  0  0  0  0
   17.3306  -18.3696    1.4789 O   0  0  0  0  0  0  0  0  0  0  0  0
   17.6393  -15.7116    6.1833 N   0  0  0  0  0  0  0  0  0  0  0  0
   18.3090  -15.9236    7.4838 C   0  0  1  0  0  0  0  0  0  0  0  0
   17.3813  -15.4219    8.5597 C   0  0  0  0  0  0  0  0  0  0  0  0
   18.0092  -15.3863    9.9013 C   0  0  0  0  0  0  0  0  0  0  0  0
   16.9992  -14.9611   10.9835 C   0  0  0  0  0  0  0  0  0  0  0  0
   17.6447  -14.8716   12.3343 C   0  0  0  0  0  0  0  0  0  0  0  0
   16.6233  -14.4950   13.3171 N   0  0  0  0  0  0  0  0  0  0  0  0
   18.6581  -17.3358    7.5604 C   0  0  0  0  0  0  0  0  0  0  0  0
   17.8238  -18.1678    7.0276 O   0  0  0  0  0  0  0  0  0  0  0  0
   19.8165  -17.8794    8.1513 N   0  0  0  0  0  0  0  0  0  0  0  0
   20.9488  -17.1497    8.6772 C   0  0  0  0  0  0  0  0  0  0  0  0
   22.1294  -18.0612    8.3048 C   0  0  0  0  0  0  0  0  0  0  0  0
   21.5700  -19.3988    8.6783 C   0  0  0  0  0  0  0  0  0  0  0  0
   20.1155  -19.2945    8.2808 C   0  0  1  0  0  0  0  0  0  0  0  0
   19.3022  -19.9432    9.3166 C   0  0  0  0  0  0  0  0  0  0  0  0
   19.1715  -21.3291    9.4459 O   0  0  0  0  0  0  0  0  0  0  0  0
   18.6902  -19.2151   10.1313 O   0  0  0  0  0  0  0  0  0  0  0  0
  2  7  1  0
  2  1  1  6
  3  2  1  0
  4  5  1  0
  4  3  1  0
  5  6  2  0
  7  8  2  0
  9  5  1  0
 10  7  1  0
 10 11  1  0
 11 12  1  1
 13 12  1  0
 13 14  1  0
 14 15  1  0
 15 16  1  0
 17 11  1  0
 18 17  2  0
 19 17  1  0
 19 23  1  0
 20 21  1  0
 20 19  1  0
 21 22  1  0
 22 23  1  0
 23 24  1  1
 24 25  1  0
 26 24  2  0
M  END
$$$$
