EKP.pdb
     RDKit          3D

 26 26  0  0  1  0  0  0  0  0999 V2000
   23.4115  -15.4868  -18.9419 N   0  0  0  0  0  0  0  0  0  0  0  0
   23.5779  -16.9029  -18.9235 C   0  0  1  0  0  0  0  0  0  0  0  0
   24.8574  -17.2599  -19.6925 C   0  0  0  0  0  0  0  0  0  0  0  0
   24.5135  -17.6010  -21.1266 C   0  0  0  0  0  0  0  0  0  0  0  0
   24.0537  -18.9953  -21.2681 C   0  0  0  0  0  0  0  0  0  0  0  0
   24.7489  -19.9347  -20.8031 O   0  0  0  0  0  0  0  0  0  0  0  0
   23.7913  -17.3654  -17.5359 C   0  0  0  0  0  0  0  0  0  0  0  0
   24.4563  -16.6409  -16.7579 O   0  0  0  0  0  0  0  0  0  0  0  0
   22.8665  -19.3386  -21.9017 O   0  0  0  0  0  0  0  0  0  0  0  0
   23.2835  -18.5755  -17.0543 N   0  0  0  0  0  0  0  0  0  0  0  0
   23.3478  -18.9782  -15.6335 C   0  0  1  0  0  0  0  0  0  0  0  0
   21.9676  -19.4228  -15.2244 C   0  0  0  0  0  0  0  0  0  0  0  0
   21.9370  -20.0851  -13.8994 C   0  0  0  0  0  0  0  0  0  0  0  0
   20.5180  -20.5674  -13.5448 C   0  0  0  0  0  0  0  0  0  0  0  0
   20.4692  -21.1744  -12.1741 C   0  0  0  0  0  0  0  0  0  0  0  0
   19.1118  -21.6739  -11.9315 N   0  0  0  0  0  0  0  0  0  0  0  0
   24.3939  -19.9856  -15.5210 C   0  0  0  0  0  0  0  0  0  0  0  0
   24.3268  -20.9836  -16.3405 O   0  0  0  0  0  0  0  0  0  0  0  0
   25.4716  -19.9734  -14.6126 N   0  0  0  0  0  0  0  0  0  0  0  0
   25.7998  -18.9300  -13.6667 C   0  0  0  0  0  0  0  0  0  0  0  0
   27.3370  -18.9444  -13.6812 C   0  0  0  0  0  0  0  0  0  0  0  0
   27.5967  -20.4184  -13.6395 C   0  0  0  0  0  0  0  0  0  0  0  0
   26.5004  -20.9928  -14.5071 C   0  0  1  0  0  0  0  0  0  0  0  0
   26.0039  -22.2222  -13.8768 C   0  0  0  0  0  0  0  0  0  0  0  0
   26.7618  -23.3903  -13.7509 O   0  0  0  0  0  0  0  0  0  0  0  0
   24.8356  -22.2263  -13.4259 O   0  0  0  0  0  0  0  0  0  0  0  0
  2  7  1  0
  2  1  1  1
  3  2  1  0
  4  5  1  0
  4  3  1  0
  5  6  2  0
  7  8  2  0
  9  5  1  0
 10  7  1  0
 10 11  1  0
 11 12  1  6
 13 12  1  0
 13 14  1  0
 14 15  1  0
 15 16  1  0
 17 11  1  0
 18 17  2  0
 19 17  1  0
 19 23  1  0
 20 21  1  0
 20 19  1  0
 21 22  1  0
 22 23  1  0
 23 24  1  1
 24 25  1  0
 26 24  2  0
M  END
$$$$
