EKP.pdb
     RDKit          3D

 26 26  0  0  1  0  0  0  0  0999 V2000
   27.6064  -23.4483  -16.8083 N   0  0  0  0  0  0  0  0  0  0  0  0
   28.3820  -22.4793  -16.1064 C   0  0  1  0  0  0  0  0  0  0  0  0
   29.2949  -21.7579  -17.1074 C   0  0  0  0  0  0  0  0  0  0  0  0
   28.8171  -22.0239  -18.5188 C   0  0  0  0  0  0  0  0  0  0  0  0
   29.9391  -22.2566  -19.4475 C   0  0  0  0  0  0  0  0  0  0  0  0
   30.1359  -21.4637  -20.4038 O   0  0  0  0  0  0  0  0  0  0  0  0
   27.4952  -21.4416  -15.5391 C   0  0  0  0  0  0  0  0  0  0  0  0
   28.0140  -20.4020  -15.0673 O   0  0  0  0  0  0  0  0  0  0  0  0
   30.8129  -23.3288  -19.3229 O   0  0  0  0  0  0  0  0  0  0  0  0
   26.1036  -21.5699  -15.5061 N   0  0  0  0  0  0  0  0  0  0  0  0
   25.2093  -20.5818  -14.8669 C   0  0  1  0  0  0  0  0  0  0  0  0
   24.2181  -20.1268  -15.9065 C   0  0  0  0  0  0  0  0  0  0  0  0
   23.1507  -19.2599  -15.3548 C   0  0  0  0  0  0  0  0  0  0  0  0
   23.0845  -17.9104  -16.0938 C   0  0  0  0  0  0  0  0  0  0  0  0
   21.9896  -17.0396  -15.5530 C   0  0  0  0  0  0  0  0  0  0  0  0
   22.0298  -15.7499  -16.2503 N   0  0  0  0  0  0  0  0  0  0  0  0
   24.6386  -21.2201  -13.6885 C   0  0  0  0  0  0  0  0  0  0  0  0
   24.0234  -22.3414  -13.8785 O   0  0  0  0  0  0  0  0  0  0  0  0
   24.6984  -20.7378  -12.3654 N   0  0  0  0  0  0  0  0  0  0  0  0
   25.4523  -19.6001  -11.8878 C   0  0  0  0  0  0  0  0  0  0  0  0
   25.9076  -20.0678  -10.4959 C   0  0  0  0  0  0  0  0  0  0  0  0
   24.6415  -20.6844   -9.9874 C   0  0  0  0  0  0  0  0  0  0  0  0
   24.0558  -21.3458  -11.2138 C   0  0  1  0  0  0  0  0  0  0  0  0
   22.6033  -21.1320  -11.2091 C   0  0  0  0  0  0  0  0  0  0  0  0
   21.7208  -21.8182  -10.3695 O   0  0  0  0  0  0  0  0  0  0  0  0
   22.1265  -20.2875  -12.0014 O   0  0  0  0  0  0  0  0  0  0  0  0
  2  7  1  0
  2  1  1  6
  3  2  1  0
  4  5  1  0
  4  3  1  0
  5  6  2  0
  7  8  2  0
  9  5  1  0
 10  7  1  0
 10 11  1  0
 11 12  1  6
 13 12  1  0
 13 14  1  0
 14 15  1  0
 15 16  1  0
 17 11  1  0
 18 17  2  0
 19 17  1  0
 19 23  1  0
 20 21  1  0
 20 19  1  0
 21 22  1  0
 22 23  1  0
 23 24  1  6
 24 25  1  0
 26 24  2  0
M  END
$$$$
