EKP.pdb
     RDKit          3D

 26 26  0  0  1  0  0  0  0  0999 V2000
   15.3199  -21.2957    0.9706 N   0  0  0  0  0  0  0  0  0  0  0  0
   15.0431  -20.8418    2.2938 C   0  0  1  0  0  0  0  0  0  0  0  0
   14.8498  -22.0623    3.2043 C   0  0  0  0  0  0  0  0  0  0  0  0
   13.4707  -22.6478    2.9886 C   0  0  0  0  0  0  0  0  0  0  0  0
   12.4059  -21.7404    3.4556 C   0  0  0  0  0  0  0  0  0  0  0  0
   12.4064  -21.3335    4.6458 O   0  0  0  0  0  0  0  0  0  0  0  0
   16.2117  -20.1121    2.8292 C   0  0  0  0  0  0  0  0  0  0  0  0
   17.3601  -20.5075    2.5169 O   0  0  0  0  0  0  0  0  0  0  0  0
   11.3763  -21.2983    2.6350 O   0  0  0  0  0  0  0  0  0  0  0  0
   16.0913  -19.0006    3.6683 N   0  0  0  0  0  0  0  0  0  0  0  0
   17.2433  -18.1919    4.1197 C   0  0  1  0  0  0  0  0  0  0  0  0
   16.8039  -16.7510    4.1471 C   0  0  0  0  0  0  0  0  0  0  0  0
   17.8554  -15.8299    4.6383 C   0  0  0  0  0  0  0  0  0  0  0  0
   17.3899  -14.3630    4.5794 C   0  0  0  0  0  0  0  0  0  0  0  0
   18.5112  -13.4166    4.8898 C   0  0  0  0  0  0  0  0  0  0  0  0
   18.0226  -12.0431    4.7288 N   0  0  0  0  0  0  0  0  0  0  0  0
   17.6791  -18.7425    5.3959 C   0  0  0  0  0  0  0  0  0  0  0  0
   16.7545  -19.2045    6.1728 O   0  0  0  0  0  0  0  0  0  0  0  0
   19.0073  -18.8258    5.8601 N   0  0  0  0  0  0  0  0  0  0  0  0
   20.2133  -18.6536    5.0810 C   0  0  0  0  0  0  0  0  0  0  0  0
   21.1643  -19.6816    5.7152 C   0  0  0  0  0  0  0  0  0  0  0  0
   20.8971  -19.4405    7.1686 C   0  0  0  0  0  0  0  0  0  0  0  0
   19.4107  -19.1698    7.2121 C   0  0  1  0  0  0  0  0  0  0  0  0
   19.1641  -18.0779    8.1619 C   0  0  0  0  0  0  0  0  0  0  0  0
   19.2207  -18.2297    9.5505 O   0  0  0  0  0  0  0  0  0  0  0  0
   18.8871  -16.9458    7.7037 O   0  0  0  0  0  0  0  0  0  0  0  0
  2  7  1  0
  2  1  1  6
  3  2  1  0
  4  5  1  0
  4  3  1  0
  5  6  2  0
  7  8  2  0
  9  5  1  0
 10  7  1  0
 10 11  1  0
 11 12  1  1
 13 12  1  0
 13 14  1  0
 14 15  1  0
 15 16  1  0
 17 11  1  0
 18 17  2  0
 19 17  1  0
 19 23  1  0
 20 21  1  0
 20 19  1  0
 21 22  1  0
 22 23  1  0
 23 24  1  1
 24 25  1  0
 26 24  2  0
M  END
$$$$
