EKP.pdb
     RDKit          3D

 26 26  0  0  1  0  0  0  0  0999 V2000
   28.7864  -20.9195  -19.2296 N   0  0  0  0  0  0  0  0  0  0  0  0
   28.1359  -21.7006  -18.2296 C   0  0  1  0  0  0  0  0  0  0  0  0
   29.1620  -22.6549  -17.6033 C   0  0  0  0  0  0  0  0  0  0  0  0
   29.2825  -23.9036  -18.4504 C   0  0  0  0  0  0  0  0  0  0  0  0
   30.3928  -23.8107  -19.4168 C   0  0  0  0  0  0  0  0  0  0  0  0
   31.5614  -23.5863  -19.0092 O   0  0  0  0  0  0  0  0  0  0  0  0
   27.6683  -20.8253  -17.1341 C   0  0  0  0  0  0  0  0  0  0  0  0
   28.4497  -19.9505  -16.6904 O   0  0  0  0  0  0  0  0  0  0  0  0
   30.2170  -23.9609  -20.7862 O   0  0  0  0  0  0  0  0  0  0  0  0
   26.3928  -20.9311  -16.5720 N   0  0  0  0  0  0  0  0  0  0  0  0
   25.8701  -19.9938  -15.5556 C   0  0  1  0  0  0  0  0  0  0  0  0
   24.8475  -19.1165  -16.2298 C   0  0  0  0  0  0  0  0  0  0  0  0
   25.4518  -18.0450  -17.0557 C   0  0  0  0  0  0  0  0  0  0  0  0
   24.3765  -17.1034  -17.6293 C   0  0  0  0  0  0  0  0  0  0  0  0
   24.9829  -16.0332  -18.4875 C   0  0  0  0  0  0  0  0  0  0  0  0
   23.9034  -15.2060  -19.0365 N   0  0  0  0  0  0  0  0  0  0  0  0
   25.3774  -20.7975  -14.4451 C   0  0  0  0  0  0  0  0  0  0  0  0
   24.5747  -21.7664  -14.7435 O   0  0  0  0  0  0  0  0  0  0  0  0
   25.6959  -20.6252  -13.0830 N   0  0  0  0  0  0  0  0  0  0  0  0
   26.7617  -19.8163  -12.5346 C   0  0  0  0  0  0  0  0  0  0  0  0
   27.2237  -20.6530  -11.3305 C   0  0  0  0  0  0  0  0  0  0  0  0
   25.9016  -21.0508  -10.7511 C   0  0  0  0  0  0  0  0  0  0  0  0
   25.0419  -21.2915  -11.9707 C   0  0  1  0  0  0  0  0  0  0  0  0
   23.7015  -20.7529  -11.7089 C   0  0  0  0  0  0  0  0  0  0  0  0
   22.7610  -21.3787  -10.8852 O   0  0  0  0  0  0  0  0  0  0  0  0
   23.3809  -19.6717  -12.2537 O   0  0  0  0  0  0  0  0  0  0  0  0
  2  7  1  0
  2  1  1  6
  3  2  1  0
  4  5  1  0
  4  3  1  0
  5  6  2  0
  7  8  2  0
  9  5  1  0
 10  7  1  0
 10 11  1  0
 11 12  1  6
 13 12  1  0
 13 14  1  0
 14 15  1  0
 15 16  1  0
 17 11  1  0
 18 17  2  0
 19 17  1  0
 19 23  1  0
 20 21  1  0
 20 19  1  0
 21 22  1  0
 22 23  1  0
 23 24  1  1
 24 25  1  0
 26 24  2  0
M  END
$$$$
