WSF.pdb
     RDKit          3D

 32 34  0  0  1  0  0  0  0  0999 V2000
   18.3617   -7.0967  -18.8736 N   0  0  0  0  0  0  0  0  0  0  0  0
   19.4144   -6.8277  -19.8821 C   0  0  1  0  0  0  0  0  0  0  0  0
   19.5074   -5.3754  -20.0771 C   0  0  0  0  0  0  0  0  0  0  0  0
   18.3274   -4.8284  -20.7728 C   0  0  0  0  0  0  0  0  0  0  0  0
   17.3962   -5.5337  -21.5057 C   0  0  0  0  0  0  0  0  0  0  0  0
   16.4718   -4.7006  -22.0069 N   0  0  0  0  0  0  0  0  0  0  0  0
   16.7723   -3.4506  -21.6197 C   0  0  0  0  0  0  0  0  0  0  0  0
   16.1876   -2.2147  -21.8321 C   0  0  0  0  0  0  0  0  0  0  0  0
   16.7224   -1.0587  -21.3004 C   0  0  0  0  0  0  0  0  0  0  0  0
   17.8681   -1.1148  -20.5349 C   0  0  0  0  0  0  0  0  0  0  0  0
   18.4444   -2.3474  -20.3276 C   0  0  0  0  0  0  0  0  0  0  0  0
   17.9110   -3.5045  -20.8587 C   0  0  0  0  0  0  0  0  0  0  0  0
   20.5875   -7.5834  -19.5083 C   0  0  0  0  0  0  0  0  0  0  0  0
   20.8335   -7.7242  -18.2562 O   0  0  0  0  0  0  0  0  0  0  0  0
   22.3456  -10.9777  -20.8743 O   0  0  0  0  0  0  0  0  0  0  0  0
   23.2164   -9.9026  -20.8492 C   0  0  0  0  0  0  0  0  0  0  0  0
   22.7174   -8.8943  -19.8431 C   0  0  2  0  0  0  0  0  0  0  0  0
   21.5312   -8.2114  -20.3477 N   0  0  0  0  0  0  0  0  0  0  0  0
   23.7609   -7.9316  -19.4389 C   0  0  0  0  0  0  0  0  0  0  0  0
   23.7495   -6.7495  -19.9379 O   0  0  0  0  0  0  0  0  0  0  0  0
   24.7981   -8.2016  -18.5262 N   0  0  0  0  0  0  0  0  0  0  0  0
   25.7169   -7.1515  -18.0577 C   0  0  1  0  0  0  0  0  0  0  0  0
   25.6859   -7.0385  -16.5711 C   0  0  0  0  0  0  0  0  0  0  0  0
   25.6852   -8.3637  -15.9141 C   0  0  0  0  0  0  0  0  0  0  0  0
   26.8485   -9.0949  -15.7296 C   0  0  0  0  0  0  0  0  0  0  0  0
   26.7931  -10.3017  -15.0982 C   0  0  0  0  0  0  0  0  0  0  0  0
   25.6332  -10.8678  -14.6144 C   0  0  0  0  0  0  0  0  0  0  0  0
   24.4752  -10.1418  -14.7969 C   0  0  0  0  0  0  0  0  0  0  0  0
   24.5139   -8.9096  -15.4383 C   0  0  0  0  0  0  0  0  0  0  0  0
   27.0682   -7.5319  -18.5066 C   0  0  0  0  0  0  0  0  0  0  0  0
   27.3569   -8.6244  -19.0498 O   0  0  0  0  0  0  0  0  0  0  0  0
   28.1586   -6.6527  -18.3443 O   0  0  0  0  0  0  0  0  0  0  0  0
  2  1  1  1
  2 13  1  0
  2  3  1  0
  3  4  1  0
  4  5  2  0
  5  6  1  0
  7  6  1  0
  8  7  2  0
  9  8  1  0
 10 11  1  0
 10  9  2  0
 11 12  2  0
 12  4  1  0
 12  7  1  0
 13 14  2  0
 16 15  1  0
 17 16  1  6
 18 13  1  0
 18 17  1  0
 19 20  2  0
 19 17  1  0
 21 19  1  0
 22 23  1  1
 22 21  1  0
 23 24  1  0
 24 29  1  0
 25 24  2  0
 26 25  1  0
 26 27  2  0
 27 28  1  0
 29 28  2  0
 30 22  1  0
 30 32  1  0
 31 30  2  0
M  END
$$$$
