WSF.pdb
     RDKit          3D

 32 34  0  0  1  0  0  0  0  0999 V2000
   12.8922  -15.3101    5.3352 N   0  0  0  0  0  0  0  0  0  0  0  0
   14.2311  -15.9229    5.1628 C   0  0  1  0  0  0  0  0  0  0  0  0
   14.9299  -15.2111    4.0854 C   0  0  0  0  0  0  0  0  0  0  0  0
   15.7697  -16.1118    3.2737 C   0  0  0  0  0  0  0  0  0  0  0  0
   15.5425  -17.4469    3.0135 C   0  0  0  0  0  0  0  0  0  0  0  0
   16.5281  -17.9462    2.2525 N   0  0  0  0  0  0  0  0  0  0  0  0
   17.4091  -16.9647    2.0012 C   0  0  0  0  0  0  0  0  0  0  0  0
   18.5925  -16.8985    1.2873 C   0  0  0  0  0  0  0  0  0  0  0  0
   19.3161  -15.7272    1.1903 C   0  0  0  0  0  0  0  0  0  0  0  0
   18.8659  -14.5822    1.8133 C   0  0  0  0  0  0  0  0  0  0  0  0
   17.6880  -14.6552    2.5217 C   0  0  0  0  0  0  0  0  0  0  0  0
   16.9631  -15.8258    2.6197 C   0  0  0  0  0  0  0  0  0  0  0  0
   14.8380  -16.0323    6.4691 C   0  0  0  0  0  0  0  0  0  0  0  0
   14.9135  -14.9687    7.1840 O   0  0  0  0  0  0  0  0  0  0  0  0
   16.7197  -17.9545   10.3865 O   0  0  0  0  0  0  0  0  0  0  0  0
   15.8321  -18.0433    9.3285 C   0  0  0  0  0  0  0  0  0  0  0  0
   16.2860  -17.1112    8.2317 C   0  0  2  0  0  0  0  0  0  0  0  0
   15.3753  -17.1771    7.0941 N   0  0  0  0  0  0  0  0  0  0  0  0
   17.6815  -17.3581    7.8184 C   0  0  0  0  0  0  0  0  0  0  0  0
   17.9117  -18.1325    6.8215 O   0  0  0  0  0  0  0  0  0  0  0  0
   18.8170  -16.8020    8.4375 N   0  0  0  0  0  0  0  0  0  0  0  0
   20.1836  -17.1705    8.0339 C   0  0  1  0  0  0  0  0  0  0  0  0
   20.5221  -16.5913    6.7021 C   0  0  0  0  0  0  0  0  0  0  0  0
   20.4373  -15.1146    6.7018 C   0  0  0  0  0  0  0  0  0  0  0  0
   21.4366  -14.3194    7.2410 C   0  0  0  0  0  0  0  0  0  0  0  0
   21.3169  -12.9623    7.1945 C   0  0  0  0  0  0  0  0  0  0  0  0
   20.2452  -12.3002    6.6351 C   0  0  0  0  0  0  0  0  0  0  0  0
   19.2503  -13.0897    6.0980 C   0  0  0  0  0  0  0  0  0  0  0  0
   19.3566  -14.4747    6.1368 C   0  0  0  0  0  0  0  0  0  0  0  0
   21.0938  -16.6360    9.0626 C   0  0  0  0  0  0  0  0  0  0  0  0
   22.3373  -16.7962    9.0659 O   0  0  0  0  0  0  0  0  0  0  0  0
   20.5977  -15.8828   10.1466 O   0  0  0  0  0  0  0  0  0  0  0  0
  2  1  1  1
  2 13  1  0
  2  3  1  0
  3  4  1  0
  4  5  2  0
  5  6  1  0
  7  6  1  0
  8  7  2  0
  9  8  1  0
 10 11  1  0
 10  9  2  0
 11 12  2  0
 12  4  1  0
 12  7  1  0
 13 14  2  0
 16 15  1  0
 17 16  1  1
 18 13  1  0
 18 17  1  0
 19 20  2  0
 19 17  1  0
 21 19  1  0
 22 23  1  6
 22 21  1  0
 23 24  1  0
 24 29  1  0
 25 24  2  0
 26 25  1  0
 26 27  2  0
 27 28  1  0
 29 28  2  0
 30 22  1  0
 30 32  1  0
 31 30  2  0
M  END
$$$$
