WSF.pdb
     RDKit          3D

 32 34  0  0  1  0  0  0  0  0999 V2000
   27.3613  -21.1046  -16.2308 N   0  0  0  0  0  0  0  0  0  0  0  0
   26.5148  -21.4785  -15.0727 C   0  0  1  0  0  0  0  0  0  0  0  0
   26.4373  -20.3264  -14.1657 C   0  0  0  0  0  0  0  0  0  0  0  0
   27.7517  -19.9737  -13.5970 C   0  0  0  0  0  0  0  0  0  0  0  0
   28.5731  -18.9373  -13.9881 C   0  0  0  0  0  0  0  0  0  0  0  0
   29.6973  -18.9339  -13.2559 N   0  0  0  0  0  0  0  0  0  0  0  0
   29.6382  -19.9521  -12.3827 C   0  0  0  0  0  0  0  0  0  0  0  0
   30.4920  -20.4241  -11.4015 C   0  0  0  0  0  0  0  0  0  0  0  0
   30.1715  -21.5214  -10.6281 C   0  0  0  0  0  0  0  0  0  0  0  0
   28.9747  -22.1786  -10.8220 C   0  0  0  0  0  0  0  0  0  0  0  0
   28.1302  -21.7038  -11.7996 C   0  0  0  0  0  0  0  0  0  0  0  0
   28.4492  -20.6065  -12.5740 C   0  0  0  0  0  0  0  0  0  0  0  0
   25.3043  -22.0773  -15.5856 C   0  0  0  0  0  0  0  0  0  0  0  0
   24.5092  -21.3312  -16.2631 O   0  0  0  0  0  0  0  0  0  0  0  0
   24.5191  -25.8660  -15.4431 O   0  0  0  0  0  0  0  0  0  0  0  0
   23.2765  -25.2643  -15.5384 C   0  0  0  0  0  0  0  0  0  0  0  0
   23.4448  -23.7718  -15.3909 C   0  0  2  0  0  0  0  0  0  0  0  0
   24.8562  -23.4076  -15.4468 N   0  0  0  0  0  0  0  0  0  0  0  0
   22.8017  -23.2461  -14.1706 C   0  0  0  0  0  0  0  0  0  0  0  0
   23.3218  -23.5064  -13.0268 O   0  0  0  0  0  0  0  0  0  0  0  0
   21.6345  -22.4594  -14.1483 N   0  0  0  0  0  0  0  0  0  0  0  0
   20.9944  -22.0502  -12.8877 C   0  0  1  0  0  0  0  0  0  0  0  0
   21.8496  -21.0813  -12.1439 C   0  0  0  0  0  0  0  0  0  0  0  0
   22.1627  -19.8832  -12.9529 C   0  0  0  0  0  0  0  0  0  0  0  0
   23.4604  -19.5588  -13.3167 C   0  0  0  0  0  0  0  0  0  0  0  0
   23.6899  -18.4541  -14.0818 C   0  0  0  0  0  0  0  0  0  0  0  0
   22.6996  -17.6093  -14.5350 C   0  0  0  0  0  0  0  0  0  0  0  0
   21.4080  -17.9306  -14.1742 C   0  0  0  0  0  0  0  0  0  0  0  0
   21.1565  -19.0533  -13.3949 C   0  0  0  0  0  0  0  0  0  0  0  0
   19.7101  -21.4204  -13.2430 C   0  0  0  0  0  0  0  0  0  0  0  0
   18.8449  -21.0506  -12.4143 O   0  0  0  0  0  0  0  0  0  0  0  0
   19.3668  -21.1880  -14.5908 O   0  0  0  0  0  0  0  0  0  0  0  0
  2  1  1  6
  2 13  1  0
  2  3  1  0
  3  4  1  0
  4  5  2  0
  5  6  1  0
  7  6  1  0
  8  7  2  0
  9  8  1  0
 10 11  1  0
 10  9  2  0
 11 12  2  0
 12  4  1  0
 12  7  1  0
 13 14  2  0
 16 15  1  0
 17 16  1  1
 18 13  1  0
 18 17  1  0
 19 20  2  0
 19 17  1  0
 21 19  1  0
 22 23  1  6
 22 21  1  0
 23 24  1  0
 24 29  1  0
 25 24  2  0
 26 25  1  0
 26 27  2  0
 27 28  1  0
 29 28  2  0
 30 22  1  0
 30 32  1  0
 31 30  2  0
M  END
$$$$
