WSF.pdb
     RDKit          3D

 32 34  0  0  1  0  0  0  0  0999 V2000
   18.0793  -11.6875    7.3360 N   0  0  0  0  0  0  0  0  0  0  0  0
   18.0508  -13.0454    6.7418 C   0  0  1  0  0  0  0  0  0  0  0  0
   19.1244  -13.1360    5.7443 C   0  0  0  0  0  0  0  0  0  0  0  0
   18.6327  -13.6058    4.4355 C   0  0  0  0  0  0  0  0  0  0  0  0
   18.2029  -12.8257    3.3826 C   0  0  0  0  0  0  0  0  0  0  0  0
   17.8115  -13.6006    2.3598 N   0  0  0  0  0  0  0  0  0  0  0  0
   17.9736  -14.8854    2.7144 C   0  0  0  0  0  0  0  0  0  0  0  0
   17.7424  -16.0920    2.0778 C   0  0  0  0  0  0  0  0  0  0  0  0
   18.0065  -17.2988    2.6933 C   0  0  0  0  0  0  0  0  0  0  0  0
   18.5142  -17.3250    3.9752 C   0  0  0  0  0  0  0  0  0  0  0  0
   18.7418  -16.1212    4.6025 C   0  0  0  0  0  0  0  0  0  0  0  0
   18.4781  -14.9134    3.9885 C   0  0  0  0  0  0  0  0  0  0  0  0
   17.9877  -13.9999    7.8244 C   0  0  0  0  0  0  0  0  0  0  0  0
   18.5938  -13.7051    8.9170 O   0  0  0  0  0  0  0  0  0  0  0  0
   15.2422  -16.9836    8.3855 O   0  0  0  0  0  0  0  0  0  0  0  0
   15.9269  -16.4373    9.4569 C   0  0  0  0  0  0  0  0  0  0  0  0
   17.3381  -16.1224    9.0245 C   0  0  2  0  0  0  0  0  0  0  0  0
   17.3328  -15.2488    7.8562 N   0  0  0  0  0  0  0  0  0  0  0  0
   18.1423  -17.3367    8.7841 C   0  0  0  0  0  0  0  0  0  0  0  0
   18.2884  -17.7635    7.5829 O   0  0  0  0  0  0  0  0  0  0  0  0
   18.7844  -18.0907    9.7847 N   0  0  0  0  0  0  0  0  0  0  0  0
   19.5727  -19.2929    9.4694 C   0  0  1  0  0  0  0  0  0  0  0  0
   20.8898  -19.2668   10.1680 C   0  0  0  0  0  0  0  0  0  0  0  0
   21.7896  -18.2304    9.6166 C   0  0  0  0  0  0  0  0  0  0  0  0
   22.2958  -17.2031   10.3979 C   0  0  0  0  0  0  0  0  0  0  0  0
   23.1386  -16.2867    9.8430 C   0  0  0  0  0  0  0  0  0  0  0  0
   23.5382  -16.3041    8.5239 C   0  0  0  0  0  0  0  0  0  0  0  0
   23.0358  -17.3253    7.7453 C   0  0  0  0  0  0  0  0  0  0  0  0
   22.1756  -18.2681    8.2953 C   0  0  0  0  0  0  0  0  0  0  0  0
   18.7847  -20.4536    9.9214 C   0  0  0  0  0  0  0  0  0  0  0  0
   17.7057  -20.3784   10.5556 O   0  0  0  0  0  0  0  0  0  0  0  0
   19.2171  -21.7692    9.6556 O   0  0  0  0  0  0  0  0  0  0  0  0
  2  1  1  1
  2 13  1  0
  2  3  1  0
  3  4  1  0
  4  5  2  0
  5  6  1  0
  7  6  1  0
  8  7  2  0
  9  8  1  0
 10 11  1  0
 10  9  2  0
 11 12  2  0
 12  4  1  0
 12  7  1  0
 13 14  2  0
 16 15  1  0
 17 16  1  6
 18 13  1  0
 18 17  1  0
 19 20  2  0
 19 17  1  0
 21 19  1  0
 22 23  1  1
 22 21  1  0
 23 24  1  0
 24 29  1  0
 25 24  2  0
 26 25  1  0
 26 27  2  0
 27 28  1  0
 29 28  2  0
 30 22  1  0
 30 32  1  0
 31 30  2  0
M  END
$$$$
