WSF.pdb
     RDKit          3D

 32 34  0  0  1  0  0  0  0  0999 V2000
   27.0949  -19.8650  -11.5451 N   0  0  0  0  0  0  0  0  0  0  0  0
   26.5812  -21.2552  -11.5774 C   0  0  1  0  0  0  0  0  0  0  0  0
   26.0544  -21.5843  -10.2470 C   0  0  0  0  0  0  0  0  0  0  0  0
   26.9033  -21.0550   -9.1633 C   0  0  0  0  0  0  0  0  0  0  0  0
   26.4993  -20.2782   -8.0978 C   0  0  0  0  0  0  0  0  0  0  0  0
   27.5502  -19.9699   -7.3229 N   0  0  0  0  0  0  0  0  0  0  0  0
   28.6487  -20.5290   -7.8551 C   0  0  0  0  0  0  0  0  0  0  0  0
   29.9847  -20.5481   -7.4957 C   0  0  0  0  0  0  0  0  0  0  0  0
   30.9278  -21.2209   -8.2459 C   0  0  0  0  0  0  0  0  0  0  0  0
   30.5500  -21.8979   -9.3864 C   0  0  0  0  0  0  0  0  0  0  0  0
   29.2195  -21.8748   -9.7381 C   0  0  0  0  0  0  0  0  0  0  0  0
   28.2750  -21.2024   -8.9890 C   0  0  0  0  0  0  0  0  0  0  0  0
   25.7368  -21.3870  -12.7421 C   0  0  0  0  0  0  0  0  0  0  0  0
   25.0089  -20.3815  -13.0693 O   0  0  0  0  0  0  0  0  0  0  0  0
   25.0151  -24.8481  -15.0237 O   0  0  0  0  0  0  0  0  0  0  0  0
   24.9549  -23.6248  -15.6678 C   0  0  0  0  0  0  0  0  0  0  0  0
   24.5928  -22.5607  -14.6607 C   0  0  2  0  0  0  0  0  0  0  0  0
   25.5936  -22.4965  -13.6013 N   0  0  0  0  0  0  0  0  0  0  0  0
   23.2358  -22.7405  -14.1081 C   0  0  0  0  0  0  0  0  0  0  0  0
   23.0909  -23.3531  -12.9901 O   0  0  0  0  0  0  0  0  0  0  0  0
   22.0503  -22.2848  -14.7154 N   0  0  0  0  0  0  0  0  0  0  0  0
   20.9939  -21.6043  -13.9490 C   0  0  1  0  0  0  0  0  0  0  0  0
   21.5399  -20.4259  -13.2164 C   0  0  0  0  0  0  0  0  0  0  0  0
   20.5115  -19.7659  -12.3828 C   0  0  0  0  0  0  0  0  0  0  0  0
   19.9425  -18.5529  -12.7383 C   0  0  0  0  0  0  0  0  0  0  0  0
   18.9829  -17.9997  -11.9438 C   0  0  0  0  0  0  0  0  0  0  0  0
   18.5211  -18.5722  -10.7781 C   0  0  0  0  0  0  0  0  0  0  0  0
   19.0858  -19.7790  -10.4229 C   0  0  0  0  0  0  0  0  0  0  0  0
   20.0651  -20.3569  -11.2218 C   0  0  0  0  0  0  0  0  0  0  0  0
   19.9738  -21.1671  -14.9189 C   0  0  0  0  0  0  0  0  0  0  0  0
   20.2256  -20.6893  -16.0505 O   0  0  0  0  0  0  0  0  0  0  0  0
   18.5999  -21.2650  -14.6174 O   0  0  0  0  0  0  0  0  0  0  0  0
  2  1  1  1
  2 13  1  0
  2  3  1  0
  3  4  1  0
  4  5  2  0
  5  6  1  0
  7  6  1  0
  8  7  2  0
  9  8  1  0
 10 11  1  0
 10  9  2  0
 11 12  2  0
 12  4  1  0
 12  7  1  0
 13 14  2  0
 16 15  1  0
 17 16  1  6
 18 13  1  0
 18 17  1  0
 19 20  2  0
 19 17  1  0
 21 19  1  0
 22 23  1  6
 22 21  1  0
 23 24  1  0
 24 29  1  0
 25 24  2  0
 26 25  1  0
 26 27  2  0
 27 28  1  0
 29 28  2  0
 30 22  1  0
 30 32  1  0
 31 30  2  0
M  END
$$$$
