WSF.pdb
     RDKit          3D

 32 34  0  0  1  0  0  0  0  0999 V2000
   25.1141  -23.8366  -14.9927 N   0  0  0  0  0  0  0  0  0  0  0  0
   24.5653  -22.4601  -15.0358 C   0  0  1  0  0  0  0  0  0  0  0  0
   24.6853  -21.9575  -16.4101 C   0  0  0  0  0  0  0  0  0  0  0  0
   26.0772  -21.6188  -16.7617 C   0  0  0  0  0  0  0  0  0  0  0  0
   26.9658  -22.3978  -17.4724 C   0  0  0  0  0  0  0  0  0  0  0  0
   28.1468  -21.7712  -17.5839 N   0  0  0  0  0  0  0  0  0  0  0  0
   28.0595  -20.5864  -16.9584 C   0  0  0  0  0  0  0  0  0  0  0  0
   28.9446  -19.5427  -16.7543 C   0  0  0  0  0  0  0  0  0  0  0  0
   28.5807  -18.4096  -16.0553 C   0  0  0  0  0  0  0  0  0  0  0  0
   27.3072  -18.2946  -15.5388 C   0  0  0  0  0  0  0  0  0  0  0  0
   26.4319  -19.3365  -15.7456 C   0  0  0  0  0  0  0  0  0  0  0  0
   26.7942  -20.4704  -16.4444 C   0  0  0  0  0  0  0  0  0  0  0  0
   23.2770  -22.4778  -14.3826 C   0  0  0  0  0  0  0  0  0  0  0  0
   22.5126  -23.4868  -14.5960 O   0  0  0  0  0  0  0  0  0  0  0  0
   21.5720  -19.3407  -12.3534 O   0  0  0  0  0  0  0  0  0  0  0  0
   21.1323  -20.5781  -11.9168 C   0  0  0  0  0  0  0  0  0  0  0  0
   21.3510  -21.5889  -13.0159 C   0  0  2  0  0  0  0  0  0  0  0  0
   22.7202  -21.5160  -13.5138 N   0  0  0  0  0  0  0  0  0  0  0  0
   20.3722  -21.4552  -14.1129 C   0  0  0  0  0  0  0  0  0  0  0  0
   20.5978  -20.6131  -15.0543 O   0  0  0  0  0  0  0  0  0  0  0  0
   19.1778  -22.1923  -14.2231 N   0  0  0  0  0  0  0  0  0  0  0  0
   18.2501  -22.0087  -15.3509 C   0  0  1  0  0  0  0  0  0  0  0  0
   17.9620  -23.3083  -16.0230 C   0  0  0  0  0  0  0  0  0  0  0  0
   17.2898  -24.2644  -15.1164 C   0  0  0  0  0  0  0  0  0  0  0  0
   15.9261  -24.2135  -14.8724 C   0  0  0  0  0  0  0  0  0  0  0  0
   15.3547  -25.1334  -14.0444 C   0  0  0  0  0  0  0  0  0  0  0  0
   16.0508  -26.1411  -13.4121 C   0  0  0  0  0  0  0  0  0  0  0  0
   17.4074  -26.1934  -13.6539 C   0  0  0  0  0  0  0  0  0  0  0  0
   18.0058  -25.2635  -14.4955 C   0  0  0  0  0  0  0  0  0  0  0  0
   17.0079  -21.4410  -14.7968 C   0  0  0  0  0  0  0  0  0  0  0  0
   15.9902  -21.1591  -15.4729 O   0  0  0  0  0  0  0  0  0  0  0  0
   16.8879  -21.1712  -13.4180 O   0  0  0  0  0  0  0  0  0  0  0  0
  2  1  1  6
  2 13  1  0
  2  3  1  0
  3  4  1  0
  4  5  2  0
  5  6  1  0
  7  6  1  0
  8  7  2  0
  9  8  1  0
 10 11  1  0
 10  9  2  0
 11 12  2  0
 12  4  1  0
 12  7  1  0
 13 14  2  0
 16 15  1  0
 17 16  1  1
 18 13  1  0
 18 17  1  0
 19 20  2  0
 19 17  1  0
 21 19  1  0
 22 23  1  1
 22 21  1  0
 23 24  1  0
 24 29  1  0
 25 24  2  0
 26 25  1  0
 26 27  2  0
 27 28  1  0
 29 28  2  0
 30 22  1  0
 30 32  1  0
 31 30  2  0
M  END
$$$$
