WSF.pdb
     RDKit          3D

 32 34  0  0  1  0  0  0  0  0999 V2000
   28.7548  -22.3007  -14.7315 N   0  0  0  0  0  0  0  0  0  0  0  0
   28.4651  -21.4495  -13.5529 C   0  0  1  0  0  0  0  0  0  0  0  0
   29.6805  -20.6979  -13.2157 C   0  0  0  0  0  0  0  0  0  0  0  0
   30.7511  -21.5701  -12.6975 C   0  0  0  0  0  0  0  0  0  0  0  0
   31.5190  -22.4589  -13.4202 C   0  0  0  0  0  0  0  0  0  0  0  0
   32.3815  -23.0923  -12.6111 N   0  0  0  0  0  0  0  0  0  0  0  0
   32.2007  -22.6396  -11.3600 C   0  0  0  0  0  0  0  0  0  0  0  0
   32.7927  -22.9251  -10.1425 C   0  0  0  0  0  0  0  0  0  0  0  0
   32.4010  -22.2928   -8.9799 C   0  0  0  0  0  0  0  0  0  0  0  0
   31.3959  -21.3491   -9.0105 C   0  0  0  0  0  0  0  0  0  0  0  0
   30.8114  -21.0700  -10.2250 C   0  0  0  0  0  0  0  0  0  0  0  0
   31.2019  -21.7015  -11.3887 C   0  0  0  0  0  0  0  0  0  0  0  0
   27.2287  -20.7474  -13.8085 C   0  0  0  0  0  0  0  0  0  0  0  0
   27.1705  -19.9998  -14.8504 O   0  0  0  0  0  0  0  0  0  0  0  0
   24.5352  -23.4663  -13.7725 O   0  0  0  0  0  0  0  0  0  0  0  0
   24.8682  -22.3417  -14.5069 C   0  0  0  0  0  0  0  0  0  0  0  0
   24.7409  -21.1260  -13.6217 C   0  0  2  0  0  0  0  0  0  0  0  0
   26.0364  -20.7672  -13.0551 N   0  0  0  0  0  0  0  0  0  0  0  0
   23.7214  -21.2957  -12.5677 C   0  0  0  0  0  0  0  0  0  0  0  0
   22.5129  -21.5667  -12.9031 O   0  0  0  0  0  0  0  0  0  0  0  0
   23.9637  -21.1851  -11.1853 N   0  0  0  0  0  0  0  0  0  0  0  0
   22.9727  -20.6052  -10.2644 C   0  0  1  0  0  0  0  0  0  0  0  0
   23.5607  -19.4753   -9.4891 C   0  0  0  0  0  0  0  0  0  0  0  0
   24.7772  -19.8819   -8.7525 C   0  0  0  0  0  0  0  0  0  0  0  0
   26.0457  -19.4924   -9.1536 C   0  0  0  0  0  0  0  0  0  0  0  0
   27.1313  -19.8781   -8.4249 C   0  0  0  0  0  0  0  0  0  0  0  0
   27.0616  -20.6495   -7.2847 C   0  0  0  0  0  0  0  0  0  0  0  0
   25.8005  -21.0377   -6.8841 C   0  0  0  0  0  0  0  0  0  0  0  0
   24.6832  -20.6529   -7.6153 C   0  0  0  0  0  0  0  0  0  0  0  0
   21.8515  -20.1213  -11.0897 C   0  0  0  0  0  0  0  0  0  0  0  0
   21.9796  -19.4846  -12.1622 O   0  0  0  0  0  0  0  0  0  0  0  0
   20.5156  -20.3564  -10.7044 O   0  0  0  0  0  0  0  0  0  0  0  0
  2  1  1  6
  2 13  1  0
  2  3  1  0
  3  4  1  0
  4  5  2  0
  5  6  1  0
  7  6  1  0
  8  7  2  0
  9  8  1  0
 10 11  1  0
 10  9  2  0
 11 12  2  0
 12  4  1  0
 12  7  1  0
 13 14  2  0
 16 15  1  0
 17 16  1  1
 18 13  1  0
 18 17  1  0
 19 20  2  0
 19 17  1  0
 21 19  1  0
 22 23  1  6
 22 21  1  0
 23 24  1  0
 24 29  1  0
 25 24  2  0
 26 25  1  0
 26 27  2  0
 27 28  1  0
 29 28  2  0
 30 22  1  0
 30 32  1  0
 31 30  2  0
M  END
$$$$
