WSF.pdb
     RDKit          3D

 32 34  0  0  1  0  0  0  0  0999 V2000
   17.6096   -5.9836  -20.3202 N   0  0  0  0  0  0  0  0  0  0  0  0
   19.0142   -6.3846  -20.0672 C   0  0  1  0  0  0  0  0  0  0  0  0
   19.8975   -5.4226  -20.7379 C   0  0  0  0  0  0  0  0  0  0  0  0
   19.9877   -5.6651  -22.1900 C   0  0  0  0  0  0  0  0  0  0  0  0
   19.1063   -5.2337  -23.1589 C   0  0  0  0  0  0  0  0  0  0  0  0
   19.5012   -5.6585  -24.3685 N   0  0  0  0  0  0  0  0  0  0  0  0
   20.6325   -6.3666  -24.2213 C   0  0  0  0  0  0  0  0  0  0  0  0
   21.4696   -7.0297  -25.1010 C   0  0  0  0  0  0  0  0  0  0  0  0
   22.5978   -7.6952  -24.6661 C   0  0  0  0  0  0  0  0  0  0  0  0
   22.9171   -7.7119  -23.3246 C   0  0  0  0  0  0  0  0  0  0  0  0
   22.0801   -7.0502  -22.4551 C   0  0  0  0  0  0  0  0  0  0  0  0
   20.9513   -6.3842  -22.8884 C   0  0  0  0  0  0  0  0  0  0  0  0
   19.1551   -6.6293  -18.6504 C   0  0  0  0  0  0  0  0  0  0  0  0
   18.7687   -5.7085  -17.8437 O   0  0  0  0  0  0  0  0  0  0  0  0
   21.1482   -9.7932  -16.8612 O   0  0  0  0  0  0  0  0  0  0  0  0
   20.0748   -9.2966  -16.1429 C   0  0  0  0  0  0  0  0  0  0  0  0
   19.8307   -7.8661  -16.5573 C   0  0  2  0  0  0  0  0  0  0  0  0
   19.6706   -7.7723  -18.0042 N   0  0  0  0  0  0  0  0  0  0  0  0
   20.8795   -6.9477  -16.0717 C   0  0  0  0  0  0  0  0  0  0  0  0
   21.9445   -6.7884  -16.7694 O   0  0  0  0  0  0  0  0  0  0  0  0
   20.8134   -6.2071  -14.8763 N   0  0  0  0  0  0  0  0  0  0  0  0
   21.9221   -5.3483  -14.4293 C   0  0  1  0  0  0  0  0  0  0  0  0
   21.5242   -3.9113  -14.4437 C   0  0  0  0  0  0  0  0  0  0  0  0
   21.3333   -3.4025  -15.8194 C   0  0  0  0  0  0  0  0  0  0  0  0
   20.0812   -3.3265  -16.4095 C   0  0  0  0  0  0  0  0  0  0  0  0
   19.9604   -2.8290  -17.6728 C   0  0  0  0  0  0  0  0  0  0  0  0
   21.0207   -2.3819  -18.4314 C   0  0  0  0  0  0  0  0  0  0  0  0
   22.2670   -2.4564  -17.8460 C   0  0  0  0  0  0  0  0  0  0  0  0
   22.4079   -2.9608  -16.5588 C   0  0  0  0  0  0  0  0  0  0  0  0
   22.2608   -5.7643  -13.0566 C   0  0  0  0  0  0  0  0  0  0  0  0
   21.6621   -6.6606  -12.4159 O   0  0  0  0  0  0  0  0  0  0  0  0
   23.3211   -5.1531  -12.3563 O   0  0  0  0  0  0  0  0  0  0  0  0
  2  1  1  1
  2 13  1  0
  2  3  1  0
  3  4  1  0
  4  5  2  0
  5  6  1  0
  7  6  1  0
  8  7  2  0
  9  8  1  0
 10 11  1  0
 10  9  2  0
 11 12  2  0
 12  4  1  0
 12  7  1  0
 13 14  2  0
 16 15  1  0
 17 16  1  6
 18 13  1  0
 18 17  1  0
 19 20  2  0
 19 17  1  0
 21 19  1  0
 22 23  1  1
 22 21  1  0
 23 24  1  0
 24 29  1  0
 25 24  2  0
 26 25  1  0
 26 27  2  0
 27 28  1  0
 29 28  2  0
 30 22  1  0
 30 32  1  0
 31 30  2  0
M  END
$$$$
