DRI.pdb
     RDKit          3D

 28 27  0  0  1  0  0  0  0  0999 V2000
   12.8207  -18.6014   20.8722 N   0  0  0  0  0  0  0  0  0  0  0  0
   13.4864  -17.4122   21.3831 C   0  0  1  0  0  0  0  0  0  0  0  0
   14.0983  -16.6163   20.2719 C   0  0  0  0  0  0  0  0  0  0  0  0
   15.4910  -17.0301   19.9578 C   0  0  0  0  0  0  0  0  0  0  0  0
   16.1026  -17.9699   20.5079 O   0  0  0  0  0  0  0  0  0  0  0  0
   12.5434  -16.5820   22.1855 C   0  0  0  0  0  0  0  0  0  0  0  0
   12.8916  -15.5130   22.7285 O   0  0  0  0  0  0  0  0  0  0  0  0
   16.1761  -16.3073   18.9629 O   0  0  0  0  0  0  0  0  0  0  0  0
    8.7809  -12.5122   19.7715 N   0  0  0  0  0  0  0  0  0  0  0  0
    7.8030  -13.4189   20.2858 C   0  0  0  0  0  0  0  0  0  0  0  0
    6.5894  -13.4808   19.8211 N   0  0  0  0  0  0  0  0  0  0  0  0
    8.1673  -14.2895   21.3526 N   0  0  0  0  0  0  0  0  0  0  0  0
    7.1422  -15.0131   22.0712 C   0  0  0  0  0  0  0  0  0  0  0  0
    7.7654  -15.7575   23.2671 C   0  0  0  0  0  0  0  0  0  0  0  0
    8.8600  -16.5893   22.6893 C   0  0  0  0  0  0  0  0  0  0  0  0
   10.2403  -16.1808   23.1079 C   0  0  2  0  0  0  0  0  0  0  0  0
   11.1797  -16.9928   22.3641 N   0  0  0  0  0  0  0  0  0  0  0  0
   10.4209  -16.5965   24.5539 C   0  0  0  0  0  0  0  0  0  0  0  0
   10.9710  -17.6759   24.8835 O   0  0  0  0  0  0  0  0  0  0  0  0
    5.9908  -14.3002   20.0566 C   0  0  0  0  0  0  0  0  0  0  0  0
    9.4691  -12.3851   27.9130 C   0  0  0  0  0  0  0  0  0  0  0  0
   10.1921  -13.5470   27.2298 C   0  0  2  0  0  0  0  0  0  0  0  0
    9.6709  -14.8418   27.7521 C   0  0  0  0  0  0  0  0  0  0  0  0
    9.8675  -15.0335   29.2226 C   0  0  2  0  0  0  0  0  0  0  0  0
   10.2788  -15.9913   26.9913 N   0  0  0  0  0  0  0  0  0  0  0  0
    9.9531  -15.7386   25.5751 C   0  0  0  0  0  0  0  0  0  0  0  0
    9.7194  -17.3098   27.3178 O   0  0  0  0  0  0  0  0  0  0  0  0
    8.5625  -17.8166   26.7081 O   0  0  0  0  0  0  0  0  0  0  0  0
  2  1  1  6
  2  3  1  0
  3  4  1  0
  4  8  1  0
  5  4  2  0
  6  2  1  0
  7  6  2  0
  9 10  1  0
 10 12  1  0
 11 10  2  0
 12 13  1  0
 13 14  1  0
 14 15  1  0
 16 15  1  6
 16 17  1  0
 17  6  1  0
 18 19  2  0
 18 16  1  0
 21 20  1  0
 21 22  1  0
 22 24  1  0
 22 23  1  6
 24 25  1  1
 25 18  1  0
 26 24  1  0
 27 26  1  0
 28 26  2  0
M  END
$$$$
