DRI.pdb
     RDKit          3D

 28 27  0  0  1  0  0  0  0  0999 V2000
   12.8953  -18.7830   20.7291 N   0  0  0  0  0  0  0  0  0  0  0  0
   13.5580  -17.5974   21.2523 C   0  0  1  0  0  0  0  0  0  0  0  0
   14.2747  -16.8558   20.1665 C   0  0  0  0  0  0  0  0  0  0  0  0
   15.5374  -17.5172   19.7452 C   0  0  0  0  0  0  0  0  0  0  0  0
   15.6142  -18.6400   19.2034 O   0  0  0  0  0  0  0  0  0  0  0  0
   12.5844  -16.7150   21.9565 C   0  0  0  0  0  0  0  0  0  0  0  0
   12.9096  -15.6061   22.4291 O   0  0  0  0  0  0  0  0  0  0  0  0
   16.7421  -16.8259   19.9740 O   0  0  0  0  0  0  0  0  0  0  0  0
    7.1039  -13.8731   18.7456 N   0  0  0  0  0  0  0  0  0  0  0  0
    7.5070  -13.1016   19.8792 C   0  0  0  0  0  0  0  0  0  0  0  0
    7.8686  -11.8552   19.7880 N   0  0  0  0  0  0  0  0  0  0  0  0
    7.5175  -13.7199   21.1623 N   0  0  0  0  0  0  0  0  0  0  0  0
    7.2158  -15.1289   21.2832 C   0  0  0  0  0  0  0  0  0  0  0  0
    7.7992  -15.6798   22.5981 C   0  0  0  0  0  0  0  0  0  0  0  0
    8.8982  -16.6009   22.1887 C   0  0  0  0  0  0  0  0  0  0  0  0
   10.2446  -16.2518   22.7480 C   0  0  2  0  0  0  0  0  0  0  0  0
   11.2168  -17.1196   22.1179 N   0  0  0  0  0  0  0  0  0  0  0  0
   10.2499  -16.6521   24.2095 C   0  0  0  0  0  0  0  0  0  0  0  0
   10.5506  -17.8092   24.5926 O   0  0  0  0  0  0  0  0  0  0  0  0
    8.1256  -11.3309   20.6506 C   0  0  0  0  0  0  0  0  0  0  0  0
   10.6678  -13.2314   29.2831 C   0  0  0  0  0  0  0  0  0  0  0  0
   10.6068  -14.6316   28.6705 C   0  0  2  0  0  0  0  0  0  0  0  0
   10.2780  -14.5334   27.2203 C   0  0  0  0  0  0  0  0  0  0  0  0
    9.0310  -13.7614   26.9253 C   0  0  2  0  0  0  0  0  0  0  0  0
   10.1947  -15.9093   26.6121 N   0  0  0  0  0  0  0  0  0  0  0  0
    9.9032  -15.6880   25.1833 C   0  0  0  0  0  0  0  0  0  0  0  0
    9.1070  -16.7477   27.1335 O   0  0  0  0  0  0  0  0  0  0  0  0
    7.8585  -16.8514   26.5031 O   0  0  0  0  0  0  0  0  0  0  0  0
  2  1  1  6
  2  3  1  0
  3  4  1  0
  4  8  1  0
  5  4  2  0
  6  2  1  0
  7  6  2  0
  9 10  1  0
 10 12  1  0
 11 10  2  0
 12 13  1  0
 13 14  1  0
 14 15  1  0
 16 15  1  6
 16 17  1  0
 17  6  1  0
 18 19  2  0
 18 16  1  0
 21 20  1  0
 21 22  1  0
 22 24  1  0
 22 23  1  6
 24 25  1  1
 25 18  1  0
 26 24  1  0
 27 26  1  0
 28 26  2  0
M  END
$$$$
