DRI.pdb
     RDKit          3D

 28 27  0  0  1  0  0  0  0  0999 V2000
    9.4561  -18.1230   20.0386 N   0  0  0  0  0  0  0  0  0  0  0  0
    8.6805  -16.9087   19.8324 C   0  0  1  0  0  0  0  0  0  0  0  0
    7.7886  -17.0341   18.6360 C   0  0  0  0  0  0  0  0  0  0  0  0
    8.5372  -17.2722   17.3741 C   0  0  0  0  0  0  0  0  0  0  0  0
    9.7763  -17.4031   17.2877 O   0  0  0  0  0  0  0  0  0  0  0  0
    7.8985  -16.5669   21.0547 C   0  0  0  0  0  0  0  0  0  0  0  0
    7.0973  -15.6100   21.0884 O   0  0  0  0  0  0  0  0  0  0  0  0
    7.7934  -17.3566   16.1820 O   0  0  0  0  0  0  0  0  0  0  0  0
    7.6992  -21.5992   21.9298 N   0  0  0  0  0  0  0  0  0  0  0  0
    6.4701  -22.1848   22.3649 C   0  0  0  0  0  0  0  0  0  0  0  0
    5.8336  -23.0805   21.6685 N   0  0  0  0  0  0  0  0  0  0  0  0
    5.9148  -21.7710   23.6096 N   0  0  0  0  0  0  0  0  0  0  0  0
    6.4829  -20.6403   24.3091 C   0  0  0  0  0  0  0  0  0  0  0  0
    6.6275  -19.4462   23.3468 C   0  0  0  0  0  0  0  0  0  0  0  0
    7.0698  -18.3036   24.1969 C   0  0  0  0  0  0  0  0  0  0  0  0
    7.2948  -17.0226   23.4513 C   0  0  2  0  0  0  0  0  0  0  0  0
    8.0450  -17.3404   22.2550 N   0  0  0  0  0  0  0  0  0  0  0  0
    8.2279  -16.1671   24.2842 C   0  0  0  0  0  0  0  0  0  0  0  0
    9.4772  -16.2793   24.2301 O   0  0  0  0  0  0  0  0  0  0  0  0
    4.9630  -23.5052   22.0517 C   0  0  0  0  0  0  0  0  0  0  0  0
    5.7400  -11.7653   26.2776 C   0  0  0  0  0  0  0  0  0  0  0  0
    6.7872  -12.6490   25.5980 C   0  0  2  0  0  0  0  0  0  0  0  0
    7.6048  -13.3465   26.6305 C   0  0  0  0  0  0  0  0  0  0  0  0
    8.3704  -12.4280   27.5296 C   0  0  2  0  0  0  0  0  0  0  0  0
    8.5380  -14.3316   25.9760 N   0  0  0  0  0  0  0  0  0  0  0  0
    7.6744  -15.2038   25.1580 C   0  0  0  0  0  0  0  0  0  0  0  0
    9.2551  -15.2122   26.9077 O   0  0  0  0  0  0  0  0  0  0  0  0
   10.5728  -14.9687   27.3217 O   0  0  0  0  0  0  0  0  0  0  0  0
  2  1  1  1
  2  3  1  0
  3  4  1  0
  4  8  1  0
  5  4  2  0
  6  2  1  0
  7  6  2  0
  9 10  1  0
 10 12  1  0
 11 10  2  0
 12 13  1  0
 13 14  1  0
 14 15  1  0
 16 15  1  1
 16 17  1  0
 17  6  1  0
 18 19  2  0
 18 16  1  0
 21 20  1  0
 21 22  1  0
 22 24  1  0
 22 23  1  1
 24 25  1  6
 25 18  1  0
 26 24  1  0
 27 26  1  0
 28 26  2  0
M  END
$$$$
