DRI.pdb
     RDKit          3D

 28 27  0  0  1  0  0  0  0  0999 V2000
   10.7644  -17.6334   19.3595 N   0  0  0  0  0  0  0  0  0  0  0  0
   10.9732  -17.6108   20.7998 C   0  0  1  0  0  0  0  0  0  0  0  0
   12.3326  -17.0830   21.1403 C   0  0  0  0  0  0  0  0  0  0  0  0
   13.4339  -17.9603   20.6639 C   0  0  0  0  0  0  0  0  0  0  0  0
   13.3424  -19.1922   20.4794 O   0  0  0  0  0  0  0  0  0  0  0  0
    9.9036  -16.8232   21.4767 C   0  0  0  0  0  0  0  0  0  0  0  0
    9.4991  -15.7285   21.0332 O   0  0  0  0  0  0  0  0  0  0  0  0
   14.6784  -17.3576   20.3997 O   0  0  0  0  0  0  0  0  0  0  0  0
    8.1345  -19.9712   26.7852 N   0  0  0  0  0  0  0  0  0  0  0  0
    7.4394  -21.1017   26.2543 C   0  0  0  0  0  0  0  0  0  0  0  0
    7.4024  -22.2519   26.8610 N   0  0  0  0  0  0  0  0  0  0  0  0
    6.7611  -20.9683   25.0089 N   0  0  0  0  0  0  0  0  0  0  0  0
    6.3971  -19.6547   24.5264 C   0  0  0  0  0  0  0  0  0  0  0  0
    7.6664  -18.8376   24.2200 C   0  0  0  0  0  0  0  0  0  0  0  0
    7.1785  -17.5100   23.7478 C   0  0  0  0  0  0  0  0  0  0  0  0
    8.2624  -16.5496   23.3601 C   0  0  2  0  0  0  0  0  0  0  0  0
    9.2938  -17.3063   22.6829 N   0  0  0  0  0  0  0  0  0  0  0  0
    8.9124  -16.0548   24.6364 C   0  0  0  0  0  0  0  0  0  0  0  0
   10.0036  -16.5090   25.0595 O   0  0  0  0  0  0  0  0  0  0  0  0
    6.9131  -23.0540   26.4111 C   0  0  0  0  0  0  0  0  0  0  0  0
    6.5473  -11.4968   26.3143 C   0  0  0  0  0  0  0  0  0  0  0  0
    7.7171  -12.4129   25.9510 C   0  0  2  0  0  0  0  0  0  0  0  0
    7.9547  -13.3879   27.0528 C   0  0  0  0  0  0  0  0  0  0  0  0
    8.4594  -12.7713   28.3188 C   0  0  2  0  0  0  0  0  0  0  0  0
    8.8924  -14.4735   26.5925 N   0  0  0  0  0  0  0  0  0  0  0  0
    8.2682  -15.0424   25.3833 C   0  0  0  0  0  0  0  0  0  0  0  0
    9.0573  -15.5857   27.5378 O   0  0  0  0  0  0  0  0  0  0  0  0
    8.2386  -16.7243   27.5220 O   0  0  0  0  0  0  0  0  0  0  0  0
  2  1  1  6
  2  3  1  0
  3  4  1  0
  4  8  1  0
  5  4  2  0
  6  2  1  0
  7  6  2  0
  9 10  1  0
 10 12  1  0
 11 10  2  0
 12 13  1  0
 13 14  1  0
 14 15  1  0
 16 15  1  1
 16 17  1  0
 17  6  1  0
 18 19  2  0
 18 16  1  0
 21 20  1  0
 21 22  1  0
 22 24  1  0
 22 23  1  1
 24 25  1  6
 25 18  1  0
 26 24  1  0
 27 26  1  0
 28 26  2  0
M  END
$$$$
