DRI.pdb
     RDKit          3D

 28 27  0  0  1  0  0  0  0  0999 V2000
   11.8345  -16.4943   20.2209 N   0  0  0  0  0  0  0  0  0  0  0  0
   12.4122  -15.3257   20.8682 C   0  0  1  0  0  0  0  0  0  0  0  0
   13.1247  -14.4569   19.8783 C   0  0  0  0  0  0  0  0  0  0  0  0
   14.4635  -14.9810   19.5012 C   0  0  0  0  0  0  0  0  0  0  0  0
   14.9627  -16.0458   19.9218 O   0  0  0  0  0  0  0  0  0  0  0  0
   11.3673  -14.5590   21.6051 C   0  0  0  0  0  0  0  0  0  0  0  0
   11.6479  -13.6067   22.3621 O   0  0  0  0  0  0  0  0  0  0  0  0
   15.2306  -14.2191   18.5997 O   0  0  0  0  0  0  0  0  0  0  0  0
    8.1098  -15.0734   17.5704 N   0  0  0  0  0  0  0  0  0  0  0  0
    7.9565  -13.6686   17.7848 C   0  0  0  0  0  0  0  0  0  0  0  0
    8.5906  -12.7773   17.0806 N   0  0  0  0  0  0  0  0  0  0  0  0
    7.0769  -13.2225   18.8126 N   0  0  0  0  0  0  0  0  0  0  0  0
    6.4834  -14.1822   19.7167 C   0  0  0  0  0  0  0  0  0  0  0  0
    7.5786  -15.0810   20.3213 C   0  0  0  0  0  0  0  0  0  0  0  0
    7.6281  -14.7259   21.7688 C   0  0  0  0  0  0  0  0  0  0  0  0
    8.9594  -14.2252   22.2424 C   0  0  2  0  0  0  0  0  0  0  0  0
    9.9794  -14.8979   21.4666 N   0  0  0  0  0  0  0  0  0  0  0  0
    9.1551  -14.7200   23.6613 C   0  0  0  0  0  0  0  0  0  0  0  0
   10.0955  -14.3231   24.3922 O   0  0  0  0  0  0  0  0  0  0  0  0
    8.4776  -11.7673   17.3090 C   0  0  0  0  0  0  0  0  0  0  0  0
    7.5450  -11.9089   26.3283 C   0  0  0  0  0  0  0  0  0  0  0  0
    8.1958  -13.2097   25.8551 C   0  0  2  0  0  0  0  0  0  0  0  0
    7.1731  -14.2919   25.7944 C   0  0  0  0  0  0  0  0  0  0  0  0
    6.2558  -14.3356   26.9753 C   0  0  2  0  0  0  0  0  0  0  0  0
    7.8418  -15.6286   25.6048 N   0  0  0  0  0  0  0  0  0  0  0  0
    8.2456  -15.6659   24.1866 C   0  0  0  0  0  0  0  0  0  0  0  0
    6.9679  -16.7897   25.8190 O   0  0  0  0  0  0  0  0  0  0  0  0
    7.1691  -17.7110   26.8572 O   0  0  0  0  0  0  0  0  0  0  0  0
  2  1  1  6
  2  3  1  0
  3  4  1  0
  4  8  1  0
  5  4  2  0
  6  2  1  0
  7  6  2  0
  9 10  1  0
 10 12  1  0
 11 10  2  0
 12 13  1  0
 13 14  1  0
 14 15  1  0
 16 15  1  6
 16 17  1  0
 17  6  1  0
 18 19  2  0
 18 16  1  0
 21 20  1  0
 21 22  1  0
 22 24  1  0
 22 23  1  6
 24 25  1  1
 25 18  1  0
 26 24  1  0
 27 26  1  0
 28 26  2  0
M  END
$$$$
