DRI.pdb
     RDKit          3D

 28 27  0  0  1  0  0  0  0  0999 V2000
    7.7064  -12.3013   19.9307 N   0  0  0  0  0  0  0  0  0  0  0  0
    7.7302  -13.5649   19.2086 C   0  0  1  0  0  0  0  0  0  0  0  0
    8.7748  -13.5543   18.1357 C   0  0  0  0  0  0  0  0  0  0  0  0
    8.8299  -14.8237   17.3642 C   0  0  0  0  0  0  0  0  0  0  0  0
    7.8531  -15.5668   17.1330 O   0  0  0  0  0  0  0  0  0  0  0  0
    7.9316  -14.7060   20.1465 C   0  0  0  0  0  0  0  0  0  0  0  0
    7.6278  -15.8789   19.8453 O   0  0  0  0  0  0  0  0  0  0  0  0
   10.0800  -15.2213   16.8536 O   0  0  0  0  0  0  0  0  0  0  0  0
    8.5962  -20.3594   19.4713 N   0  0  0  0  0  0  0  0  0  0  0  0
    9.8758  -20.6729   20.0255 C   0  0  0  0  0  0  0  0  0  0  0  0
   10.7213  -21.4666   19.4357 N   0  0  0  0  0  0  0  0  0  0  0  0
   10.2426  -20.0974   21.2757 N   0  0  0  0  0  0  0  0  0  0  0  0
   10.5222  -18.6812   21.3601 C   0  0  0  0  0  0  0  0  0  0  0  0
    9.2814  -17.9312   21.8804 C   0  0  0  0  0  0  0  0  0  0  0  0
    9.6765  -16.4940   21.9238 C   0  0  0  0  0  0  0  0  0  0  0  0
    8.6033  -15.5670   22.4100 C   0  0  2  0  0  0  0  0  0  0  0  0
    8.4906  -14.4891   21.4506 N   0  0  0  0  0  0  0  0  0  0  0  0
    9.1068  -14.9114   23.6800 C   0  0  0  0  0  0  0  0  0  0  0  0
   10.3285  -14.7433   23.9156 O   0  0  0  0  0  0  0  0  0  0  0  0
   11.6541  -21.6351   19.8677 C   0  0  0  0  0  0  0  0  0  0  0  0
    5.2796  -12.3094   26.9864 C   0  0  0  0  0  0  0  0  0  0  0  0
    6.2663  -13.3785   26.5141 C   0  0  2  0  0  0  0  0  0  0  0  0
    7.5617  -12.7409   26.1448 C   0  0  0  0  0  0  0  0  0  0  0  0
    7.4728  -11.7979   24.9869 C   0  0  1  0  0  0  0  0  0  0  0  0
    8.6028  -13.7966   25.8778 N   0  0  0  0  0  0  0  0  0  0  0  0
    8.1678  -14.4703   24.6399 C   0  0  0  0  0  0  0  0  0  0  0  0
    8.6993  -14.8400   26.9073 O   0  0  0  0  0  0  0  0  0  0  0  0
    9.3467  -14.6386   28.1351 O   0  0  0  0  0  0  0  0  0  0  0  0
  2  1  1  1
  2  3  1  0
  3  4  1  0
  4  8  1  0
  5  4  2  0
  6  2  1  0
  7  6  2  0
  9 10  1  0
 10 12  1  0
 11 10  2  0
 12 13  1  0
 13 14  1  0
 14 15  1  0
 16 15  1  6
 16 17  1  0
 17  6  1  0
 18 19  2  0
 18 16  1  0
 21 20  1  0
 21 22  1  0
 22 24  1  0
 22 23  1  1
 24 25  1  6
 25 18  1  0
 26 24  1  0
 27 26  1  0
 28 26  2  0
M  END
$$$$
