DRI.pdb
     RDKit          3D

 28 27  0  0  1  0  0  0  0  0999 V2000
   10.2540  -15.8268   18.7013 N   0  0  0  0  0  0  0  0  0  0  0  0
   10.7270  -16.4096   19.9484 C   0  0  1  0  0  0  0  0  0  0  0  0
   12.0435  -15.8223   20.3539 C   0  0  0  0  0  0  0  0  0  0  0  0
   13.1485  -16.1721   19.4233 C   0  0  0  0  0  0  0  0  0  0  0  0
   13.4471  -17.3310   19.0661 O   0  0  0  0  0  0  0  0  0  0  0  0
    9.7097  -16.2490   21.0262 C   0  0  0  0  0  0  0  0  0  0  0  0
    9.1847  -15.1473   21.2895 O   0  0  0  0  0  0  0  0  0  0  0  0
   13.9203  -15.1160   18.9030 O   0  0  0  0  0  0  0  0  0  0  0  0
    6.6918  -22.5012   24.0699 N   0  0  0  0  0  0  0  0  0  0  0  0
    5.8339  -21.9430   25.0676 C   0  0  0  0  0  0  0  0  0  0  0  0
    5.4539  -22.6081   26.1192 N   0  0  0  0  0  0  0  0  0  0  0  0
    5.3715  -20.6056   24.9058 N   0  0  0  0  0  0  0  0  0  0  0  0
    5.8245  -19.8202   23.7795 C   0  0  0  0  0  0  0  0  0  0  0  0
    6.8089  -18.7361   24.2573 C   0  0  0  0  0  0  0  0  0  0  0  0
    7.8618  -18.6649   23.2037 C   0  0  0  0  0  0  0  0  0  0  0  0
    8.1982  -17.2756   22.7517 C   0  0  2  0  0  0  0  0  0  0  0  0
    9.2940  -17.3764   21.8115 N   0  0  0  0  0  0  0  0  0  0  0  0
    8.7698  -16.5335   23.9429 C   0  0  0  0  0  0  0  0  0  0  0  0
    9.9549  -16.6848   24.3286 O   0  0  0  0  0  0  0  0  0  0  0  0
    4.7825  -22.1734   26.7865 C   0  0  0  0  0  0  0  0  0  0  0  0
    5.8898  -12.1318   25.4491 C   0  0  0  0  0  0  0  0  0  0  0  0
    7.1001  -13.0100   25.1280 C   0  0  2  0  0  0  0  0  0  0  0  0
    7.3262  -13.9812   26.2356 C   0  0  0  0  0  0  0  0  0  0  0  0
    7.6244  -13.3458   27.5567 C   0  0  2  0  0  0  0  0  0  0  0  0
    8.4206  -14.9476   25.8638 N   0  0  0  0  0  0  0  0  0  0  0  0
    7.9395  -15.6348   24.6507 C   0  0  0  0  0  0  0  0  0  0  0  0
    8.6806  -15.9955   26.8599 O   0  0  0  0  0  0  0  0  0  0  0  0
    7.8782  -17.1386   26.9876 O   0  0  0  0  0  0  0  0  0  0  0  0
  2  1  1  6
  2  3  1  0
  3  4  1  0
  4  8  1  0
  5  4  2  0
  6  2  1  0
  7  6  2  0
  9 10  1  0
 10 12  1  0
 11 10  2  0
 12 13  1  0
 13 14  1  0
 14 15  1  0
 16 15  1  1
 16 17  1  0
 17  6  1  0
 18 19  2  0
 18 16  1  0
 21 20  1  0
 21 22  1  0
 22 24  1  0
 22 23  1  1
 24 25  1  6
 25 18  1  0
 26 24  1  0
 27 26  1  0
 28 26  2  0
M  END
$$$$
