DRI.pdb
     RDKit          3D

 28 27  0  0  1  0  0  0  0  0999 V2000
   13.8066  -16.3667   20.3117 N   0  0  0  0  0  0  0  0  0  0  0  0
   13.1015  -17.2051   21.2701 C   0  0  1  0  0  0  0  0  0  0  0  0
   14.0355  -18.1690   21.9342 C   0  0  0  0  0  0  0  0  0  0  0  0
   14.6458  -19.1363   20.9849 C   0  0  0  0  0  0  0  0  0  0  0  0
   14.4780  -19.1315   19.7472 O   0  0  0  0  0  0  0  0  0  0  0  0
   12.3836  -16.3702   22.2750 C   0  0  0  0  0  0  0  0  0  0  0  0
   12.8755  -15.3246   22.7476 O   0  0  0  0  0  0  0  0  0  0  0  0
   15.4782  -20.1372   21.5206 O   0  0  0  0  0  0  0  0  0  0  0  0
    8.0092  -15.5794   18.6151 N   0  0  0  0  0  0  0  0  0  0  0  0
    7.5956  -14.2671   19.0021 C   0  0  0  0  0  0  0  0  0  0  0  0
    7.7353  -13.2301   18.2291 N   0  0  0  0  0  0  0  0  0  0  0  0
    7.0092  -14.0827   20.2870 N   0  0  0  0  0  0  0  0  0  0  0  0
    7.2920  -15.0241   21.3474 C   0  0  0  0  0  0  0  0  0  0  0  0
    8.7194  -14.8003   21.8814 C   0  0  0  0  0  0  0  0  0  0  0  0
    8.9041  -15.8169   22.9567 C   0  0  0  0  0  0  0  0  0  0  0  0
   10.2804  -15.8536   23.5499 C   0  0  2  0  0  0  0  0  0  0  0  0
   11.0800  -16.7490   22.7412 N   0  0  0  0  0  0  0  0  0  0  0  0
   10.1774  -16.5314   24.9013 C   0  0  0  0  0  0  0  0  0  0  0  0
   10.3725  -17.7618   25.0573 O   0  0  0  0  0  0  0  0  0  0  0  0
    7.4777  -12.2858   18.5855 C   0  0  0  0  0  0  0  0  0  0  0  0
   10.1428  -12.5938   28.6198 C   0  0  0  0  0  0  0  0  0  0  0  0
   10.5336  -13.7948   27.7571 C   0  0  2  0  0  0  0  0  0  0  0  0
    9.8925  -15.0293   28.2917 C   0  0  0  0  0  0  0  0  0  0  0  0
   10.2637  -15.3502   29.7049 C   0  0  2  0  0  0  0  0  0  0  0  0
   10.1946  -16.2017   27.3950 N   0  0  0  0  0  0  0  0  0  0  0  0
    9.8488  -15.7517   26.0335 C   0  0  0  0  0  0  0  0  0  0  0  0
    9.3856  -17.3998   27.6550 O   0  0  0  0  0  0  0  0  0  0  0  0
    9.8334  -18.4598   28.4569 O   0  0  0  0  0  0  0  0  0  0  0  0
  2  1  1  6
  2  3  1  0
  3  4  1  0
  4  8  1  0
  5  4  2  0
  6  2  1  0
  7  6  2  0
  9 10  1  0
 10 12  1  0
 11 10  2  0
 12 13  1  0
 13 14  1  0
 14 15  1  0
 16 15  1  6
 16 17  1  0
 17  6  1  0
 18 19  2  0
 18 16  1  0
 21 20  1  0
 21 22  1  0
 22 24  1  0
 22 23  1  6
 24 25  1  6
 25 18  1  0
 26 24  1  0
 27 26  1  0
 28 26  2  0
M  END
$$$$
