SET.pdb
     RDKit          3D

 23 22  0  0  1  0  0  0  0  0999 V2000
    6.0307  -17.5293   16.1765 O   0  0  0  0  0  0  0  0  0  0  0  0
    7.0522  -18.1318   16.9190 C   0  0  0  0  0  0  0  0  0  0  0  0
    7.3264  -19.5092   16.3647 C   0  0  2  0  0  0  0  0  0  0  0  0
    6.1531  -20.3211   16.6109 N   0  0  0  0  0  0  0  0  0  0  0  0
    8.5011  -20.1478   16.9627 C   0  0  0  0  0  0  0  0  0  0  0  0
    8.3543  -21.0281   17.8466 O   0  0  0  0  0  0  0  0  0  0  0  0
    9.8282  -19.8084   16.5791 N   0  0  0  0  0  0  0  0  0  0  0  0
   10.9995  -20.3378   17.2395 C   0  0  1  0  0  0  0  0  0  0  0  0
   12.2285  -20.1298   16.3792 C   0  0  0  0  0  0  0  0  0  0  0  0
   12.0920  -20.7247   15.0200 C   0  0  0  0  0  0  0  0  0  0  0  0
   13.2791  -20.3871   14.2084 C   0  0  0  0  0  0  0  0  0  0  0  0
   13.2682  -19.3460   13.5146 O   0  0  0  0  0  0  0  0  0  0  0  0
   11.1980  -19.7397   18.5810 C   0  0  0  0  0  0  0  0  0  0  0  0
   10.5798  -18.7120   18.9577 O   0  0  0  0  0  0  0  0  0  0  0  0
   14.4240  -21.1700   14.1700 O   0  0  0  0  0  0  0  0  0  0  0  0
   10.5355  -21.7276   21.5434 C   0  0  0  0  0  0  0  0  0  0  0  0
   10.8225  -20.2422   21.6639 C   0  0  1  0  0  0  0  0  0  0  0  0
   10.9613  -20.0117   23.0536 O   0  0  0  0  0  0  0  0  0  0  0  0
   12.0934  -19.9715   20.9289 C   0  0  2  0  0  0  0  0  0  0  0  0
   12.0979  -20.2743   19.5477 N   0  0  0  0  0  0  0  0  0  0  0  0
   13.1829  -20.6948   21.6045 C   0  0  0  0  0  0  0  0  0  0  0  0
   13.8993  -21.6838   20.9691 O   0  0  0  0  0  0  0  0  0  0  0  0
   13.4699  -20.4105   22.7807 O   0  0  0  0  0  0  0  0  0  0  0  0
  2  3  1  0
  2  1  1  0
  3  5  1  0
  3  4  1  1
  5  6  2  0
  7  8  1  0
  7  5  1  0
  8 13  1  0
  8  9  1  6
 10  9  1  0
 11 10  1  0
 12 11  2  0
 13 20  1  0
 13 14  2  0
 15 11  1  0
 17 18  1  0
 17 16  1  1
 19 17  1  0
 19 20  1  6
 21 22  1  0
 21 19  1  0
 23 21  2  0
M  END
$$$$
