SET.pdb
     RDKit          3D

 23 22  0  0  1  0  0  0  0  0999 V2000
    8.3461  -11.8065   20.3180 O   0  0  0  0  0  0  0  0  0  0  0  0
    8.9962  -12.7745   19.5446 C   0  0  0  0  0  0  0  0  0  0  0  0
    8.1775  -14.0431   19.5415 C   0  0  2  0  0  0  0  0  0  0  0  0
    6.8583  -13.7110   19.0459 N   0  0  0  0  0  0  0  0  0  0  0  0
    8.0650  -14.6597   20.8654 C   0  0  0  0  0  0  0  0  0  0  0  0
    6.9783  -14.6031   21.4929 O   0  0  0  0  0  0  0  0  0  0  0  0
    9.1540  -15.3334   21.4848 N   0  0  0  0  0  0  0  0  0  0  0  0
    9.0620  -15.9463   22.7902 C   0  0  1  0  0  0  0  0  0  0  0  0
   10.1248  -17.0140   22.9470 C   0  0  0  0  0  0  0  0  0  0  0  0
   10.0128  -17.7587   24.2326 C   0  0  0  0  0  0  0  0  0  0  0  0
   11.0541  -18.8047   24.2931 C   0  0  0  0  0  0  0  0  0  0  0  0
   11.3227  -19.4590   23.2612 O   0  0  0  0  0  0  0  0  0  0  0  0
    9.1651  -14.9477   23.8805 C   0  0  0  0  0  0  0  0  0  0  0  0
   10.0872  -14.0945   23.9265 O   0  0  0  0  0  0  0  0  0  0  0  0
   11.7632  -19.1085   25.4465 O   0  0  0  0  0  0  0  0  0  0  0  0
    6.4853  -12.4652   25.1399 C   0  0  0  0  0  0  0  0  0  0  0  0
    6.9354  -13.2848   26.3353 C   0  0  1  0  0  0  0  0  0  0  0  0
    5.9266  -14.2635   26.5040 O   0  0  0  0  0  0  0  0  0  0  0  0
    8.2499  -13.9001   25.9860 C   0  0  2  0  0  0  0  0  0  0  0  0
    8.2364  -14.8714   24.9584 N   0  0  0  0  0  0  0  0  0  0  0  0
    8.8337  -14.4728   27.2098 C   0  0  0  0  0  0  0  0  0  0  0  0
    9.0103  -13.7206   28.3491 O   0  0  0  0  0  0  0  0  0  0  0  0
    9.1792  -15.6674   27.2227 O   0  0  0  0  0  0  0  0  0  0  0  0
  2  3  1  0
  2  1  1  0
  3  5  1  0
  3  4  1  1
  5  6  2  0
  7  8  1  0
  7  5  1  0
  8 13  1  0
  8  9  1  1
 10  9  1  0
 11 10  1  0
 12 11  2  0
 13 20  1  0
 13 14  2  0
 15 11  1  0
 17 18  1  0
 17 16  1  6
 19 17  1  0
 19 20  1  6
 21 22  1  0
 21 19  1  0
 23 21  2  0
M  END
$$$$
