SET.pdb
     RDKit          3D

 23 22  0  0  1  0  0  0  0  0999 V2000
    9.1102  -11.7916   19.4119 O   0  0  0  0  0  0  0  0  0  0  0  0
    9.5582  -13.0994   19.6277 C   0  0  0  0  0  0  0  0  0  0  0  0
    8.3786  -14.0416   19.6023 C   0  0  2  0  0  0  0  0  0  0  0  0
    7.2639  -13.3308   19.0121 N   0  0  0  0  0  0  0  0  0  0  0  0
    8.0028  -14.5303   20.9310 C   0  0  0  0  0  0  0  0  0  0  0  0
    6.9439  -14.1249   21.4716 O   0  0  0  0  0  0  0  0  0  0  0  0
    8.7998  -15.4628   21.6511 N   0  0  0  0  0  0  0  0  0  0  0  0
    8.4515  -15.9467   22.9674 C   0  0  1  0  0  0  0  0  0  0  0  0
    9.1659  -17.2507   23.2555 C   0  0  0  0  0  0  0  0  0  0  0  0
    8.8326  -17.8104   24.5956 C   0  0  0  0  0  0  0  0  0  0  0  0
    9.5797  -19.0666   24.8091 C   0  0  0  0  0  0  0  0  0  0  0  0
    9.1510  -20.1258   24.2998 O   0  0  0  0  0  0  0  0  0  0  0  0
    8.7483  -14.9486   24.0221 C   0  0  0  0  0  0  0  0  0  0  0  0
    9.8398  -14.3270   24.0721 O   0  0  0  0  0  0  0  0  0  0  0  0
   10.7481  -19.1414   25.5538 O   0  0  0  0  0  0  0  0  0  0  0  0
    6.5337  -11.9163   25.2476 C   0  0  0  0  0  0  0  0  0  0  0  0
    6.8617  -12.8032   26.4348 C   0  0  1  0  0  0  0  0  0  0  0  0
    5.7033  -13.5935   26.6275 O   0  0  0  0  0  0  0  0  0  0  0  0
    8.0425  -13.6354   26.0582 C   0  0  2  0  0  0  0  0  0  0  0  0
    7.8300  -14.6127   25.0584 N   0  0  0  0  0  0  0  0  0  0  0  0
    8.5696  -14.2709   27.2767 C   0  0  0  0  0  0  0  0  0  0  0  0
    8.9604  -13.5302   28.3692 O   0  0  0  0  0  0  0  0  0  0  0  0
    8.6675  -15.5096   27.3282 O   0  0  0  0  0  0  0  0  0  0  0  0
  2  3  1  0
  2  1  1  0
  3  5  1  0
  3  4  1  1
  5  6  2  0
  7  8  1  0
  7  5  1  0
  8 13  1  0
  8  9  1  1
 10  9  1  0
 11 10  1  0
 12 11  2  0
 13 20  1  0
 13 14  2  0
 15 11  1  0
 17 18  1  0
 17 16  1  6
 19 17  1  0
 19 20  1  6
 21 22  1  0
 21 19  1  0
 23 21  2  0
M  END
$$$$
