SET.pdb
     RDKit          3D

 23 22  0  0  1  0  0  0  0  0999 V2000
    7.5821  -16.2785   18.8945 O   0  0  0  0  0  0  0  0  0  0  0  0
    6.7512  -17.2622   19.4418 C   0  0  0  0  0  0  0  0  0  0  0  0
    7.3163  -18.6259   19.1243 C   0  0  2  0  0  0  0  0  0  0  0  0
    7.2767  -18.7917   17.6866 N   0  0  0  0  0  0  0  0  0  0  0  0
    6.5809  -19.7181   19.7661 C   0  0  0  0  0  0  0  0  0  0  0  0
    6.1805  -20.6918   19.0810 O   0  0  0  0  0  0  0  0  0  0  0  0
    6.2942  -19.7253   21.1594 N   0  0  0  0  0  0  0  0  0  0  0  0
    5.6251  -20.8222   21.8209 C   0  0  1  0  0  0  0  0  0  0  0  0
    6.5316  -21.4391   22.8656 C   0  0  0  0  0  0  0  0  0  0  0  0
    7.7480  -20.6212   23.1334 C   0  0  0  0  0  0  0  0  0  0  0  0
    8.5741  -21.2822   24.1642 C   0  0  0  0  0  0  0  0  0  0  0  0
    8.1578  -22.3345   24.6977 O   0  0  0  0  0  0  0  0  0  0  0  0
    4.3413  -20.4023   22.4308 C   0  0  0  0  0  0  0  0  0  0  0  0
    4.2567  -19.4215   23.2127 O   0  0  0  0  0  0  0  0  0  0  0  0
    9.8047  -20.7961   24.5820 O   0  0  0  0  0  0  0  0  0  0  0  0
    1.2892  -18.9593   21.1726 C   0  0  0  0  0  0  0  0  0  0  0  0
    0.8053  -20.2575   21.7925 C   0  0  1  0  0  0  0  0  0  0  0  0
    0.6622  -21.1483   20.7018 O   0  0  0  0  0  0  0  0  0  0  0  0
    1.8574  -20.7165   22.7469 C   0  0  2  0  0  0  0  0  0  0  0  0
    3.1062  -21.0687   22.1847 N   0  0  0  0  0  0  0  0  0  0  0  0
    1.3196  -21.8465   23.5217 C   0  0  0  0  0  0  0  0  0  0  0  0
    0.1014  -21.7738   24.1587 O   0  0  0  0  0  0  0  0  0  0  0  0
    1.9773  -22.8984   23.6077 O   0  0  0  0  0  0  0  0  0  0  0  0
  2  3  1  0
  2  1  1  0
  3  5  1  0
  3  4  1  6
  5  6  2  0
  7  8  1  0
  7  5  1  0
  8 13  1  0
  8  9  1  1
 10  9  1  0
 11 10  1  0
 12 11  2  0
 13 20  1  0
 13 14  2  0
 15 11  1  0
 17 18  1  0
 17 16  1  6
 19 17  1  0
 19 20  1  6
 21 22  1  0
 21 19  1  0
 23 21  2  0
M  END
$$$$
