SET.pdb
     RDKit          3D

 23 22  0  0  1  0  0  0  0  0999 V2000
    8.5810  -12.4894   16.9466 O   0  0  0  0  0  0  0  0  0  0  0  0
    7.9103  -13.3648   16.0855 C   0  0  0  0  0  0  0  0  0  0  0  0
    8.8448  -14.4792   15.6798 C   0  0  2  0  0  0  0  0  0  0  0  0
    8.1144  -15.3617   14.7943 N   0  0  0  0  0  0  0  0  0  0  0  0
    9.3609  -15.2419   16.8188 C   0  0  0  0  0  0  0  0  0  0  0  0
    8.6544  -16.1369   17.3458 O   0  0  0  0  0  0  0  0  0  0  0  0
   10.6532  -15.0094   17.3661 N   0  0  0  0  0  0  0  0  0  0  0  0
   11.1496  -15.6978   18.5356 C   0  0  1  0  0  0  0  0  0  0  0  0
   12.6413  -15.9311   18.4161 C   0  0  0  0  0  0  0  0  0  0  0  0
   12.9873  -16.9569   17.3923 C   0  0  0  0  0  0  0  0  0  0  0  0
   14.3602  -16.7237   16.8996 C   0  0  0  0  0  0  0  0  0  0  0  0
   15.3066  -16.7007   17.7175 O   0  0  0  0  0  0  0  0  0  0  0  0
   10.8377  -14.9646   19.7853 C   0  0  0  0  0  0  0  0  0  0  0  0
   11.3546  -13.8520   20.0594 O   0  0  0  0  0  0  0  0  0  0  0  0
   14.6661  -16.5254   15.5608 O   0  0  0  0  0  0  0  0  0  0  0  0
    7.7575  -13.4688   20.8644 C   0  0  0  0  0  0  0  0  0  0  0  0
    8.0711  -14.4091   22.0139 C   0  0  1  0  0  0  0  0  0  0  0  0
    7.2505  -15.5406   21.7903 O   0  0  0  0  0  0  0  0  0  0  0  0
    9.5214  -14.7521   21.9278 C   0  0  2  0  0  0  0  0  0  0  0  0
    9.9341  -15.4545   20.7720 N   0  0  0  0  0  0  0  0  0  0  0  0
    9.8910  -15.5103   23.1341 C   0  0  0  0  0  0  0  0  0  0  0  0
    9.7375  -14.9833   24.3965 O   0  0  0  0  0  0  0  0  0  0  0  0
   10.3550  -16.6582   23.0178 O   0  0  0  0  0  0  0  0  0  0  0  0
  2  3  1  0
  2  1  1  0
  3  5  1  0
  3  4  1  6
  5  6  2  0
  7  8  1  0
  7  5  1  0
  8 13  1  0
  8  9  1  6
 10  9  1  0
 11 10  1  0
 12 11  2  0
 13 20  1  0
 13 14  2  0
 15 11  1  0
 17 18  1  0
 17 16  1  6
 19 17  1  0
 19 20  1  6
 21 22  1  0
 21 19  1  0
 23 21  2  0
M  END
$$$$
