SET.pdb
     RDKit          3D

 23 22  0  0  1  0  0  0  0  0999 V2000
    8.4036  -12.8825   20.3447 O   0  0  0  0  0  0  0  0  0  0  0  0
    7.2506  -13.5484   19.9146 C   0  0  0  0  0  0  0  0  0  0  0  0
    7.4371  -15.0360   20.0944 C   0  0  2  0  0  0  0  0  0  0  0  0
    6.2833  -15.6940   19.5181 N   0  0  0  0  0  0  0  0  0  0  0  0
    7.5808  -15.4334   21.4969 C   0  0  0  0  0  0  0  0  0  0  0  0
    6.5669  -15.5066   22.2347 O   0  0  0  0  0  0  0  0  0  0  0  0
    8.8435  -15.7465   22.0722 N   0  0  0  0  0  0  0  0  0  0  0  0
    9.0165  -16.0560   23.4731 C   0  0  1  0  0  0  0  0  0  0  0  0
   10.2853  -16.8560   23.6832 C   0  0  0  0  0  0  0  0  0  0  0  0
   10.4471  -17.3278   25.0872 C   0  0  0  0  0  0  0  0  0  0  0  0
   11.7072  -18.0883   25.2135 C   0  0  0  0  0  0  0  0  0  0  0  0
   11.6588  -19.3104   25.4765 O   0  0  0  0  0  0  0  0  0  0  0  0
    9.0276  -14.8355   24.3139 C   0  0  0  0  0  0  0  0  0  0  0  0
    9.7803  -13.8583   24.0714 O   0  0  0  0  0  0  0  0  0  0  0  0
   12.9616  -17.5167   25.0549 O   0  0  0  0  0  0  0  0  0  0  0  0
    6.3292  -12.3775   24.9930 C   0  0  0  0  0  0  0  0  0  0  0  0
    6.7293  -12.8958   26.3622 C   0  0  1  0  0  0  0  0  0  0  0  0
    5.7569  -13.8752   26.6771 O   0  0  0  0  0  0  0  0  0  0  0  0
    8.0923  -13.4912   26.2338 C   0  0  2  0  0  0  0  0  0  0  0  0
    8.1938  -14.6685   25.4571 N   0  0  0  0  0  0  0  0  0  0  0  0
    8.6210  -13.7352   27.5857 C   0  0  0  0  0  0  0  0  0  0  0  0
    9.0788  -14.9746   27.9719 O   0  0  0  0  0  0  0  0  0  0  0  0
    8.6582  -12.8017   28.4065 O   0  0  0  0  0  0  0  0  0  0  0  0
  2  3  1  0
  2  1  1  0
  3  5  1  0
  3  4  1  1
  5  6  2  0
  7  8  1  0
  7  5  1  0
  8 13  1  0
  8  9  1  6
 10  9  1  0
 11 10  1  0
 12 11  2  0
 13 20  1  0
 13 14  2  0
 15 11  1  0
 17 18  1  0
 17 16  1  6
 19 17  1  0
 19 20  1  6
 21 22  1  0
 21 19  1  0
 23 21  2  0
M  END
$$$$
