HYN.pdb
     RDKit          3D

 31 32  0  0  1  0  0  0  0  0999 V2000
    8.0096  -16.1380   20.4864 N   0  0  0  0  0  0  0  0  0  0  0  0
    8.8705  -15.0067   20.6981 C   0  0  1  0  0  0  0  0  0  0  0  0
    8.0629  -13.7437   20.4714 C   0  0  0  0  0  0  0  0  0  0  0  0
    7.6912  -13.6783   19.0290 C   0  0  0  0  0  0  0  0  0  0  0  0
    8.1108  -12.6822   18.1688 C   0  0  0  0  0  0  0  0  0  0  0  0
    7.5804  -12.9599   16.9707 N   0  0  0  0  0  0  0  0  0  0  0  0
    6.8564  -14.0901   17.0834 C   0  0  0  0  0  0  0  0  0  0  0  0
    6.9149  -14.5497   18.3563 N   0  0  0  0  0  0  0  0  0  0  0  0
    9.4295  -15.0233   22.0663 C   0  0  0  0  0  0  0  0  0  0  0  0
   10.6487  -14.7797   22.2012 O   0  0  0  0  0  0  0  0  0  0  0  0
   10.9701  -15.1757   30.7193 O   0  0  0  0  0  0  0  0  0  0  0  0
   10.3122  -15.1205   29.4754 C   0  0  0  0  0  0  0  0  0  0  0  0
   10.3555  -13.9841   28.7052 C   0  0  0  0  0  0  0  0  0  0  0  0
    9.7036  -13.9219   27.4718 C   0  0  0  0  0  0  0  0  0  0  0  0
    8.9995  -14.9724   26.9737 C   0  0  0  0  0  0  0  0  0  0  0  0
    8.2865  -14.9956   25.6741 C   0  0  0  0  0  0  0  0  0  0  0  0
    9.1684  -15.4732   24.5405 C   0  0  2  0  0  0  0  0  0  0  0  0
    8.6556  -15.3008   23.2336 N   0  0  0  0  0  0  0  0  0  0  0  0
    9.7638  -16.7589   24.8594 C   0  0  0  0  0  0  0  0  0  0  0  0
    8.9986  -17.7813   24.8612 O   0  0  0  0  0  0  0  0  0  0  0  0
    8.9693  -16.1234   27.7785 C   0  0  0  0  0  0  0  0  0  0  0  0
    9.6053  -16.1967   28.9908 C   0  0  0  0  0  0  0  0  0  0  0  0
   12.6579  -20.7803   24.5565 N   0  0  0  0  0  0  0  0  0  0  0  0
   13.4861  -19.6203   24.3601 C   0  0  0  0  0  0  0  0  0  0  0  0
   14.5921  -19.7993   23.8202 O   0  0  0  0  0  0  0  0  0  0  0  0
   13.0160  -18.3195   24.7896 C   0  0  0  0  0  0  0  0  0  0  0  0
   11.6858  -18.3196   25.4498 C   0  0  2  0  0  0  0  0  0  0  0  0
   11.1239  -16.9704   25.1648 N   0  0  0  0  0  0  0  0  0  0  0  0
   11.6381  -18.5366   26.8930 C   0  0  0  0  0  0  0  0  0  0  0  0
   11.7488  -19.7136   27.3500 O   0  0  0  0  0  0  0  0  0  0  0  0
   11.4820  -17.5529   27.8679 O   0  0  0  0  0  0  0  0  0  0  0  0
  2  1  1  1
  3  2  1  0
  3  4  1  0
  4  5  2  0
  5  6  1  0
  7  6  1  0
  8  4  1  0
  8  7  2  0
  9 18  1  0
  9  2  1  0
 10  9  2  0
 11 12  1  0
 12 13  2  0
 13 14  1  0
 15 16  1  0
 15 14  2  0
 17 16  1  1
 17 18  1  0
 19 17  1  0
 20 19  2  0
 21 15  1  0
 22 21  2  0
 22 12  1  0
 23 24  1  0
 24 25  2  0
 24 26  1  0
 27 26  1  1
 27 29  1  0
 27 28  1  0
 28 19  1  0
 29 31  1  0
 30 29  2  0
M  END
$$$$
