HYN.pdb
     RDKit          3D

 31 32  0  0  1  0  0  0  0  0999 V2000
    9.1426  -16.7925   18.1595 N   0  0  0  0  0  0  0  0  0  0  0  0
    8.2428  -17.1315   19.2279 C   0  0  1  0  0  0  0  0  0  0  0  0
    8.3281  -18.6262   19.4672 C   0  0  0  0  0  0  0  0  0  0  0  0
    7.7651  -19.3239   18.2759 C   0  0  0  0  0  0  0  0  0  0  0  0
    6.4138  -19.4214   18.0065 C   0  0  0  0  0  0  0  0  0  0  0  0
    6.2980  -20.1107   16.8639 N   0  0  0  0  0  0  0  0  0  0  0  0
    7.5355  -20.4300   16.4386 C   0  0  0  0  0  0  0  0  0  0  0  0
    8.4589  -19.9483   17.3047 N   0  0  0  0  0  0  0  0  0  0  0  0
    8.5900  -16.3909   20.4591 C   0  0  0  0  0  0  0  0  0  0  0  0
    9.7739  -16.4453   20.8581 O   0  0  0  0  0  0  0  0  0  0  0  0
    7.9046  -12.3818   28.3589 O   0  0  0  0  0  0  0  0  0  0  0  0
    7.6059  -12.8749   27.0741 C   0  0  0  0  0  0  0  0  0  0  0  0
    7.0236  -14.1080   26.9103 C   0  0  0  0  0  0  0  0  0  0  0  0
    6.7266  -14.6038   25.6391 C   0  0  0  0  0  0  0  0  0  0  0  0
    6.9952  -13.8988   24.5085 C   0  0  0  0  0  0  0  0  0  0  0  0
    6.7066  -14.3439   23.1241 C   0  0  0  0  0  0  0  0  0  0  0  0
    7.8650  -15.0976   22.5070 C   0  0  2  0  0  0  0  0  0  0  0  0
    7.6509  -15.6219   21.2109 N   0  0  0  0  0  0  0  0  0  0  0  0
    8.4892  -15.9709   23.4853 C   0  0  0  0  0  0  0  0  0  0  0  0
    7.9894  -17.1354   23.6431 O   0  0  0  0  0  0  0  0  0  0  0  0
    7.5904  -12.6409   24.7005 C   0  0  0  0  0  0  0  0  0  0  0  0
    7.8864  -12.1433   25.9432 C   0  0  0  0  0  0  0  0  0  0  0  0
   13.2646  -18.5107   23.9228 N   0  0  0  0  0  0  0  0  0  0  0  0
   12.8631  -17.3508   24.6734 C   0  0  0  0  0  0  0  0  0  0  0  0
   13.4697  -17.1260   25.7356 O   0  0  0  0  0  0  0  0  0  0  0  0
   11.7925  -16.5094   24.1797 C   0  0  0  0  0  0  0  0  0  0  0  0
   10.4968  -16.6619   24.8890 C   0  0  2  0  0  0  0  0  0  0  0  0
    9.6084  -15.6368   24.2748 N   0  0  0  0  0  0  0  0  0  0  0  0
   10.4819  -16.4683   26.3362 C   0  0  0  0  0  0  0  0  0  0  0  0
   10.2251  -15.3205   26.8085 O   0  0  0  0  0  0  0  0  0  0  0  0
   10.7247  -17.4460   27.2994 O   0  0  0  0  0  0  0  0  0  0  0  0
  2  1  1  6
  3  2  1  0
  3  4  1  0
  4  5  2  0
  5  6  1  0
  7  6  1  0
  8  4  1  0
  8  7  2  0
  9 18  1  0
  9  2  1  0
 10  9  2  0
 11 12  1  0
 12 13  2  0
 13 14  1  0
 15 16  1  0
 15 14  2  0
 17 16  1  1
 17 18  1  0
 19 17  1  0
 20 19  2  0
 21 15  1  0
 22 21  2  0
 22 12  1  0
 23 24  1  0
 24 25  2  0
 24 26  1  0
 27 26  1  6
 27 29  1  0
 27 28  1  0
 28 19  1  0
 29 31  1  0
 30 29  2  0
M  END
$$$$
