HYN.pdb
     RDKit          3D

 31 32  0  0  1  0  0  0  0  0999 V2000
    8.8938  -16.7025   19.2429 N   0  0  0  0  0  0  0  0  0  0  0  0
    7.9391  -16.8075   20.3122 C   0  0  1  0  0  0  0  0  0  0  0  0
    7.4152  -18.2299   20.3459 C   0  0  0  0  0  0  0  0  0  0  0  0
    6.5873  -18.4529   19.1261 C   0  0  0  0  0  0  0  0  0  0  0  0
    5.2148  -18.3019   19.0874 C   0  0  0  0  0  0  0  0  0  0  0  0
    4.8318  -18.5849   17.8355 N   0  0  0  0  0  0  0  0  0  0  0  0
    5.9294  -18.9007   17.1215 C   0  0  0  0  0  0  0  0  0  0  0  0
    7.0291  -18.8234   17.9087 N   0  0  0  0  0  0  0  0  0  0  0  0
    8.5616  -16.4558   21.6058 C   0  0  0  0  0  0  0  0  0  0  0  0
    9.7290  -16.8509   21.8177 O   0  0  0  0  0  0  0  0  0  0  0  0
   10.0445  -13.4968   29.8477 O   0  0  0  0  0  0  0  0  0  0  0  0
    9.4510  -13.7291   28.5920 C   0  0  0  0  0  0  0  0  0  0  0  0
    8.4823  -14.6905   28.4374 C   0  0  0  0  0  0  0  0  0  0  0  0
    7.8911  -14.9274   27.1946 C   0  0  0  0  0  0  0  0  0  0  0  0
    8.2396  -14.2255   26.0840 C   0  0  0  0  0  0  0  0  0  0  0  0
    7.6594  -14.4051   24.7316 C   0  0  0  0  0  0  0  0  0  0  0  0
    8.4126  -15.4308   23.9122 C   0  0  2  0  0  0  0  0  0  0  0  0
    7.9044  -15.6937   22.6186 N   0  0  0  0  0  0  0  0  0  0  0  0
    8.7787  -16.5736   24.7303 C   0  0  0  0  0  0  0  0  0  0  0  0
    7.8388  -17.3389   25.1323 O   0  0  0  0  0  0  0  0  0  0  0  0
    9.2319  -13.2479   26.2662 C   0  0  0  0  0  0  0  0  0  0  0  0
    9.8194  -13.0060   27.4811 C   0  0  0  0  0  0  0  0  0  0  0  0
    9.4872  -20.2389   24.3182 N   0  0  0  0  0  0  0  0  0  0  0  0
   10.8915  -19.9303   24.2670 C   0  0  0  0  0  0  0  0  0  0  0  0
   11.5964  -20.6244   23.5133 O   0  0  0  0  0  0  0  0  0  0  0  0
   11.4213  -18.8521   25.0762 C   0  0  0  0  0  0  0  0  0  0  0  0
   10.4159  -18.1329   25.8992 C   0  0  2  0  0  0  0  0  0  0  0  0
   10.0930  -16.9092   25.1146 N   0  0  0  0  0  0  0  0  0  0  0  0
   10.8020  -17.7212   27.2458 C   0  0  0  0  0  0  0  0  0  0  0  0
   10.9284  -18.5974   28.1529 O   0  0  0  0  0  0  0  0  0  0  0  0
   11.0626  -16.4176   27.6643 O   0  0  0  0  0  0  0  0  0  0  0  0
  2  1  1  6
  3  2  1  0
  3  4  1  0
  4  5  2  0
  5  6  1  0
  7  6  1  0
  8  4  1  0
  8  7  2  0
  9 18  1  0
  9  2  1  0
 10  9  2  0
 11 12  1  0
 12 13  2  0
 13 14  1  0
 15 16  1  0
 15 14  2  0
 17 16  1  1
 17 18  1  0
 19 17  1  0
 20 19  2  0
 21 15  1  0
 22 21  2  0
 22 12  1  0
 23 24  1  0
 24 25  2  0
 24 26  1  0
 27 26  1  6
 27 29  1  0
 27 28  1  0
 28 19  1  0
 29 31  1  0
 30 29  2  0
M  END
$$$$
