HYN.pdb
     RDKit          3D

 31 32  0  0  1  0  0  0  0  0999 V2000
    9.2166  -13.0503   20.5696 N   0  0  0  0  0  0  0  0  0  0  0  0
    8.5297  -14.2678   20.9039 C   0  0  1  0  0  0  0  0  0  0  0  0
    8.9853  -15.3511   19.9459 C   0  0  0  0  0  0  0  0  0  0  0  0
    8.4875  -15.0099   18.5826 C   0  0  0  0  0  0  0  0  0  0  0  0
    8.6942  -13.7896   17.9690 C   0  0  0  0  0  0  0  0  0  0  0  0
    8.1068  -13.8588   16.7673 N   0  0  0  0  0  0  0  0  0  0  0  0
    7.5544  -15.0806   16.6393 C   0  0  0  0  0  0  0  0  0  0  0  0
    7.7820  -15.8086   17.7586 N   0  0  0  0  0  0  0  0  0  0  0  0
    8.8122  -14.6614   22.3003 C   0  0  0  0  0  0  0  0  0  0  0  0
    9.9833  -14.5281   22.7182 O   0  0  0  0  0  0  0  0  0  0  0  0
    5.9241   -9.8383   26.7246 O   0  0  0  0  0  0  0  0  0  0  0  0
    6.1779  -11.1899   26.4217 C   0  0  0  0  0  0  0  0  0  0  0  0
    7.4627  -11.6446   26.2510 C   0  0  0  0  0  0  0  0  0  0  0  0
    7.7213  -12.9831   25.9485 C   0  0  0  0  0  0  0  0  0  0  0  0
    6.7250  -13.8972   25.8090 C   0  0  0  0  0  0  0  0  0  0  0  0
    6.9094  -15.3349   25.4981 C   0  0  0  0  0  0  0  0  0  0  0  0
    8.0486  -15.5746   24.5309 C   0  0  2  0  0  0  0  0  0  0  0  0
    7.8247  -15.1817   23.1907 N   0  0  0  0  0  0  0  0  0  0  0  0
    8.6448  -16.8802   24.7528 C   0  0  0  0  0  0  0  0  0  0  0  0
    7.9619  -17.7393   25.4058 O   0  0  0  0  0  0  0  0  0  0  0  0
    5.4198  -13.4094   25.9880 C   0  0  0  0  0  0  0  0  0  0  0  0
    5.1533  -12.0979   26.2855 C   0  0  0  0  0  0  0  0  0  0  0  0
   12.0649  -17.8325   21.4672 N   0  0  0  0  0  0  0  0  0  0  0  0
   11.3375  -18.6916   22.3632 C   0  0  0  0  0  0  0  0  0  0  0  0
   10.4171  -19.3702   21.8742 O   0  0  0  0  0  0  0  0  0  0  0  0
   11.6918  -18.7325   23.7670 C   0  0  0  0  0  0  0  0  0  0  0  0
   10.5542  -18.5627   24.7063 C   0  0  2  0  0  0  0  0  0  0  0  0
    9.9196  -17.2781   24.3007 N   0  0  0  0  0  0  0  0  0  0  0  0
   10.8505  -18.4926   26.1344 C   0  0  0  0  0  0  0  0  0  0  0  0
   10.8238  -17.3697   26.7217 O   0  0  0  0  0  0  0  0  0  0  0  0
   11.1693  -19.5677   26.9620 O   0  0  0  0  0  0  0  0  0  0  0  0
  2  1  1  6
  3  2  1  0
  3  4  1  0
  4  5  2  0
  5  6  1  0
  7  6  1  0
  8  4  1  0
  8  7  2  0
  9 18  1  0
  9  2  1  0
 10  9  2  0
 11 12  1  0
 12 13  2  0
 13 14  1  0
 15 16  1  0
 15 14  2  0
 17 16  1  1
 17 18  1  0
 19 17  1  0
 20 19  2  0
 21 15  1  0
 22 21  2  0
 22 12  1  0
 23 24  1  0
 24 25  2  0
 24 26  1  0
 27 26  1  6
 27 29  1  0
 27 28  1  0
 28 19  1  0
 29 31  1  0
 30 29  2  0
M  END
$$$$
