HYN.pdb
     RDKit          3D

 31 32  0  0  1  0  0  0  0  0999 V2000
   11.1507  -16.8384   19.3037 N   0  0  0  0  0  0  0  0  0  0  0  0
   10.1740  -15.8433   19.6529 C   0  0  1  0  0  0  0  0  0  0  0  0
    8.8731  -16.1857   18.9534 C   0  0  0  0  0  0  0  0  0  0  0  0
    8.4243  -14.9880   18.1872 C   0  0  0  0  0  0  0  0  0  0  0  0
    9.1476  -13.8146   18.0970 C   0  0  0  0  0  0  0  0  0  0  0  0
    8.4318  -12.9792   17.3330 N   0  0  0  0  0  0  0  0  0  0  0  0
    7.3027  -13.6127   16.9616 C   0  0  0  0  0  0  0  0  0  0  0  0
    7.2824  -14.8623   17.4838 N   0  0  0  0  0  0  0  0  0  0  0  0
    9.9760  -15.7958   21.1169 C   0  0  0  0  0  0  0  0  0  0  0  0
   10.9759  -15.9729   21.8467 O   0  0  0  0  0  0  0  0  0  0  0  0
    6.6907  -11.9815   28.4222 O   0  0  0  0  0  0  0  0  0  0  0  0
    6.8693  -12.4602   27.1099 C   0  0  0  0  0  0  0  0  0  0  0  0
    7.7663  -11.8634   26.2581 C   0  0  0  0  0  0  0  0  0  0  0  0
    7.9468  -12.3316   24.9549 C   0  0  0  0  0  0  0  0  0  0  0  0
    7.2515  -13.3924   24.4663 C   0  0  0  0  0  0  0  0  0  0  0  0
    7.3859  -13.9591   23.1030 C   0  0  0  0  0  0  0  0  0  0  0  0
    8.5139  -14.9634   23.0042 C   0  0  2  0  0  0  0  0  0  0  0  0
    8.7117  -15.5595   21.7368 N   0  0  0  0  0  0  0  0  0  0  0  0
    8.5247  -15.8395   24.1626 C   0  0  0  0  0  0  0  0  0  0  0  0
    8.5711  -15.2942   25.3164 O   0  0  0  0  0  0  0  0  0  0  0  0
    6.3403  -13.9866   25.3552 C   0  0  0  0  0  0  0  0  0  0  0  0
    6.1545  -13.5362   26.6367 C   0  0  0  0  0  0  0  0  0  0  0  0
   12.0973  -20.1914   23.4045 N   0  0  0  0  0  0  0  0  0  0  0  0
   11.7814  -18.9201   23.9995 C   0  0  0  0  0  0  0  0  0  0  0  0
   12.5880  -18.4684   24.8314 O   0  0  0  0  0  0  0  0  0  0  0  0
   10.5653  -18.2306   23.6205 C   0  0  0  0  0  0  0  0  0  0  0  0
    9.5530  -18.1049   24.6997 C   0  0  2  0  0  0  0  0  0  0  0  0
    8.4844  -17.2480   24.1157 N   0  0  0  0  0  0  0  0  0  0  0  0
    9.9723  -17.5098   25.9654 C   0  0  0  0  0  0  0  0  0  0  0  0
    9.8793  -18.1865   27.0331 O   0  0  0  0  0  0  0  0  0  0  0  0
   10.4896  -16.2274   26.1399 O   0  0  0  0  0  0  0  0  0  0  0  0
  2  1  1  1
  3  2  1  0
  3  4  1  0
  4  5  2  0
  5  6  1  0
  7  6  1  0
  8  4  1  0
  8  7  2  0
  9 18  1  0
  9  2  1  0
 10  9  2  0
 11 12  1  0
 12 13  2  0
 13 14  1  0
 15 16  1  0
 15 14  2  0
 17 16  1  6
 17 18  1  0
 19 17  1  0
 20 19  2  0
 21 15  1  0
 22 21  2  0
 22 12  1  0
 23 24  1  0
 24 25  2  0
 24 26  1  0
 27 26  1  6
 27 29  1  0
 27 28  1  0
 28 19  1  0
 29 31  1  0
 30 29  2  0
M  END
$$$$
