HYN.pdb
     RDKit          3D

 31 32  0  0  1  0  0  0  0  0999 V2000
   10.5944  -13.9309   19.8678 N   0  0  0  0  0  0  0  0  0  0  0  0
    9.4280  -14.1080   20.6888 C   0  0  1  0  0  0  0  0  0  0  0  0
    8.4941  -15.0756   19.9883 C   0  0  0  0  0  0  0  0  0  0  0  0
    7.9910  -14.4237   18.7454 C   0  0  0  0  0  0  0  0  0  0  0  0
    8.4223  -13.1924   18.2915 C   0  0  0  0  0  0  0  0  0  0  0  0
    7.7514  -12.9432   17.1593 N   0  0  0  0  0  0  0  0  0  0  0  0
    6.9316  -13.9844   16.9188 C   0  0  0  0  0  0  0  0  0  0  0  0
    7.0682  -14.9134   17.8950 N   0  0  0  0  0  0  0  0  0  0  0  0
    9.8005  -14.6243   22.0227 C   0  0  0  0  0  0  0  0  0  0  0  0
   10.7954  -15.3781   22.0993 O   0  0  0  0  0  0  0  0  0  0  0  0
   10.5915  -15.6417   30.7968 O   0  0  0  0  0  0  0  0  0  0  0  0
   10.0763  -15.3201   29.5263 C   0  0  0  0  0  0  0  0  0  0  0  0
    9.2484  -16.1907   28.8606 C   0  0  0  0  0  0  0  0  0  0  0  0
    8.7357  -15.8791   27.5996 C   0  0  0  0  0  0  0  0  0  0  0  0
    9.0258  -14.7091   26.9715 C   0  0  0  0  0  0  0  0  0  0  0  0
    8.5202  -14.2948   25.6409 C   0  0  0  0  0  0  0  0  0  0  0  0
    9.3835  -14.8099   24.5095 C   0  0  2  0  0  0  0  0  0  0  0  0
    9.0890  -14.3092   23.2198 N   0  0  0  0  0  0  0  0  0  0  0  0
    9.5976  -16.2407   24.6369 C   0  0  0  0  0  0  0  0  0  0  0  0
    8.6343  -17.0142   24.3136 O   0  0  0  0  0  0  0  0  0  0  0  0
    9.8740  -13.8347   27.6711 C   0  0  0  0  0  0  0  0  0  0  0  0
   10.3833  -14.1293   28.9094 C   0  0  0  0  0  0  0  0  0  0  0  0
   13.5644  -20.4752   24.3123 N   0  0  0  0  0  0  0  0  0  0  0  0
   12.1593  -20.1729   24.2453 C   0  0  0  0  0  0  0  0  0  0  0  0
   11.3716  -21.1351   24.2679 O   0  0  0  0  0  0  0  0  0  0  0  0
   11.7234  -18.7947   24.1534 C   0  0  0  0  0  0  0  0  0  0  0  0
   10.9146  -18.3146   25.3026 C   0  0  2  0  0  0  0  0  0  0  0  0
   10.7884  -16.8466   25.0869 N   0  0  0  0  0  0  0  0  0  0  0  0
   11.4392  -18.5333   26.6475 C   0  0  0  0  0  0  0  0  0  0  0  0
   10.9922  -19.4950   27.3417 O   0  0  0  0  0  0  0  0  0  0  0  0
   12.4214  -17.7739   27.2808 O   0  0  0  0  0  0  0  0  0  0  0  0
  2  1  1  6
  3  2  1  0
  3  4  1  0
  4  5  2  0
  5  6  1  0
  7  6  1  0
  8  4  1  0
  8  7  2  0
  9 18  1  0
  9  2  1  0
 10  9  2  0
 11 12  1  0
 12 13  2  0
 13 14  1  0
 15 16  1  0
 15 14  2  0
 17 16  1  1
 17 18  1  0
 19 17  1  0
 20 19  2  0
 21 15  1  0
 22 21  2  0
 22 12  1  0
 23 24  1  0
 24 25  2  0
 24 26  1  0
 27 26  1  6
 27 29  1  0
 27 28  1  0
 28 19  1  0
 29 31  1  0
 30 29  2  0
M  END
$$$$
