HYN.pdb
     RDKit          3D

 31 32  0  0  1  0  0  0  0  0999 V2000
   11.2182  -17.5481   18.0150 N   0  0  0  0  0  0  0  0  0  0  0  0
   10.5210  -18.1656   19.1099 C   0  0  1  0  0  0  0  0  0  0  0  0
   11.0470  -19.5781   19.2744 C   0  0  0  0  0  0  0  0  0  0  0  0
   10.6597  -20.3651   18.0687 C   0  0  0  0  0  0  0  0  0  0  0  0
    9.3877  -20.3753   17.5302 C   0  0  0  0  0  0  0  0  0  0  0  0
    9.4269  -21.1876   16.4659 N   0  0  0  0  0  0  0  0  0  0  0  0
   10.6808  -21.6651   16.3478 C   0  0  0  0  0  0  0  0  0  0  0  0
   11.4598  -21.1636   17.3360 N   0  0  0  0  0  0  0  0  0  0  0  0
   10.7153  -17.3941   20.3556 C   0  0  0  0  0  0  0  0  0  0  0  0
   11.8817  -17.0602   20.6588 O   0  0  0  0  0  0  0  0  0  0  0  0
    7.5579  -12.2091   17.8765 O   0  0  0  0  0  0  0  0  0  0  0  0
    7.8654  -12.9309   19.0460 C   0  0  0  0  0  0  0  0  0  0  0  0
    9.0843  -12.7876   19.6625 C   0  0  0  0  0  0  0  0  0  0  0  0
    9.3965  -13.5018   20.8212 C   0  0  0  0  0  0  0  0  0  0  0  0
    8.5188  -14.3672   21.3941 C   0  0  0  0  0  0  0  0  0  0  0  0
    8.7636  -15.1573   22.6244 C   0  0  0  0  0  0  0  0  0  0  0  0
    9.7829  -16.2557   22.4116 C   0  0  2  0  0  0  0  0  0  0  0  0
    9.6484  -17.0126   21.2243 N   0  0  0  0  0  0  0  0  0  0  0  0
   10.0170  -16.9855   23.6453 C   0  0  0  0  0  0  0  0  0  0  0  0
    9.1652  -17.8778   23.9756 O   0  0  0  0  0  0  0  0  0  0  0  0
    7.2791  -14.4973   20.7463 C   0  0  0  0  0  0  0  0  0  0  0  0
    6.9609  -13.8016   19.6087 C   0  0  0  0  0  0  0  0  0  0  0  0
   12.7839  -19.6037   27.2360 N   0  0  0  0  0  0  0  0  0  0  0  0
   13.5700  -18.9763   26.2073 C   0  0  0  0  0  0  0  0  0  0  0  0
   14.7633  -19.3158   26.1204 O   0  0  0  0  0  0  0  0  0  0  0  0
   12.9605  -17.9948   25.3338 C   0  0  0  0  0  0  0  0  0  0  0  0
   11.5072  -17.7791   25.5500 C   0  0  2  0  0  0  0  0  0  0  0  0
   11.1143  -16.7899   24.5085 N   0  0  0  0  0  0  0  0  0  0  0  0
   11.0768  -17.2679   26.8482 C   0  0  0  0  0  0  0  0  0  0  0  0
   10.6102  -16.0923   26.9312 O   0  0  0  0  0  0  0  0  0  0  0  0
   11.1188  -17.9574   28.0587 O   0  0  0  0  0  0  0  0  0  0  0  0
  2  1  1  6
  3  2  1  0
  3  4  1  0
  4  5  2  0
  5  6  1  0
  7  6  1  0
  8  4  1  0
  8  7  2  0
  9 18  1  0
  9  2  1  0
 10  9  2  0
 11 12  1  0
 12 13  2  0
 13 14  1  0
 15 16  1  0
 15 14  2  0
 17 16  1  1
 17 18  1  0
 19 17  1  0
 20 19  2  0
 21 15  1  0
 22 21  2  0
 22 12  1  0
 23 24  1  0
 24 25  2  0
 24 26  1  0
 27 26  1  1
 27 29  1  0
 27 28  1  0
 28 19  1  0
 29 31  1  0
 30 29  2  0
M  END
$$$$
