INK.pdb
     RDKit          3D

 26 25  0  0  1  0  0  0  0  0999 V2000
    6.9040  -12.2301   18.2644 C   0  0  0  0  0  0  0  0  0  0  0  0
    8.1762  -12.9652   18.5077 C   0  0  0  0  0  0  0  0  0  0  0  0
    8.1484  -13.8607   19.7259 C   0  0  2  0  0  0  0  0  0  0  0  0
    7.8141  -13.1368   20.9915 C   0  0  0  0  0  0  0  0  0  0  0  0
    9.5172  -14.5688   19.8278 C   0  0  2  0  0  0  0  0  0  0  0  0
    9.7960  -15.2834   18.6148 N   0  0  0  0  0  0  0  0  0  0  0  0
    9.4210  -15.5084   20.9823 C   0  0  0  0  0  0  0  0  0  0  0  0
    9.0526  -15.1641   22.1158 O   0  0  0  0  0  0  0  0  0  0  0  0
    9.2384  -19.8808   18.9521 N   0  0  0  0  0  0  0  0  0  0  0  0
    8.8836  -19.6258   20.3012 C   0  0  0  0  0  0  0  0  0  0  0  0
    7.6596  -19.7237   20.6020 O   0  0  0  0  0  0  0  0  0  0  0  0
    9.9086  -19.2601   21.3104 C   0  0  0  0  0  0  0  0  0  0  0  0
    9.7289  -17.8482   21.8072 C   0  0  2  0  0  0  0  0  0  0  0  0
    9.7656  -16.8659   20.7829 N   0  0  0  0  0  0  0  0  0  0  0  0
   10.7545  -17.6288   22.8664 C   0  0  0  0  0  0  0  0  0  0  0  0
   11.9703  -17.5799   22.5303 O   0  0  0  0  0  0  0  0  0  0  0  0
   10.2643  -17.4909   24.1805 N   0  0  0  0  0  0  0  0  0  0  0  0
   11.2386  -17.2232   25.2910 C   0  0  1  0  0  0  0  0  0  0  0  0
   10.5392  -16.2743   26.1625 C   0  0  0  0  0  0  0  0  0  0  0  0
   11.0661  -15.7349   27.4098 C   0  0  0  0  0  0  0  0  0  0  0  0
   10.2219  -14.8139   28.2066 C   0  0  0  0  0  0  0  0  0  0  0  0
   10.9943  -14.4103   29.4968 C   0  0  0  0  0  0  0  0  0  0  0  0
   10.1598  -13.5266   30.2595 N   0  0  0  0  0  0  0  0  0  0  0  0
   11.6723  -18.5349   25.7194 C   0  0  0  0  0  0  0  0  0  0  0  0
   10.9763  -19.5904   25.7611 O   0  0  0  0  0  0  0  0  0  0  0  0
   13.0028  -18.7719   26.1636 O   0  0  0  0  0  0  0  0  0  0  0  0
  2  1  1  0
  3  2  1  0
  3  4  1  1
  5  3  1  0
  5  6  1  6
  7  5  1  0
  7  8  2  0
  9 10  1  0
 10 11  2  0
 12 10  1  0
 13 12  1  6
 13 14  1  0
 14  7  1  0
 15 13  1  0
 16 15  2  0
 17 15  1  0
 18 17  1  0
 18 24  1  0
 18 19  1  1
 20 19  1  0
 21 20  1  0
 22 21  1  0
 23 22  1  0
 24 26  1  0
 25 24  2  0
M  END
$$$$
