INK.pdb
     RDKit          3D

 26 25  0  0  1  0  0  0  0  0999 V2000
    7.3012  -12.1359   19.3869 C   0  0  0  0  0  0  0  0  0  0  0  0
    7.5865  -13.5780   19.6257 C   0  0  0  0  0  0  0  0  0  0  0  0
    7.7883  -13.9344   21.0813 C   0  0  2  0  0  0  0  0  0  0  0  0
    8.8267  -13.1002   21.7619 C   0  0  0  0  0  0  0  0  0  0  0  0
    8.1343  -15.4377   21.1600 C   0  0  2  0  0  0  0  0  0  0  0  0
    7.0351  -16.2242   20.6775 N   0  0  0  0  0  0  0  0  0  0  0  0
    8.4030  -15.7339   22.5970 C   0  0  0  0  0  0  0  0  0  0  0  0
    9.3310  -15.2193   23.2398 O   0  0  0  0  0  0  0  0  0  0  0  0
    5.7803  -18.8518   23.2469 N   0  0  0  0  0  0  0  0  0  0  0  0
    5.9653  -18.7622   24.6500 C   0  0  0  0  0  0  0  0  0  0  0  0
    5.7005  -19.7934   25.3318 O   0  0  0  0  0  0  0  0  0  0  0  0
    6.4484  -17.5101   25.2839 C   0  0  0  0  0  0  0  0  0  0  0  0
    7.7123  -17.0042   24.6363 C   0  0  2  0  0  0  0  0  0  0  0  0
    7.5595  -16.6483   23.2705 N   0  0  0  0  0  0  0  0  0  0  0  0
    8.7574  -18.0437   24.8578 C   0  0  0  0  0  0  0  0  0  0  0  0
    8.7679  -19.0600   24.1091 O   0  0  0  0  0  0  0  0  0  0  0  0
    9.6637  -17.7933   25.9076 N   0  0  0  0  0  0  0  0  0  0  0  0
   10.7172  -18.8184   26.2128 C   0  0  1  0  0  0  0  0  0  0  0  0
   11.8571  -18.4219   25.3805 C   0  0  0  0  0  0  0  0  0  0  0  0
   11.8761  -18.4325   23.9231 C   0  0  0  0  0  0  0  0  0  0  0  0
   13.0943  -17.9692   23.2181 C   0  0  0  0  0  0  0  0  0  0  0  0
   12.8008  -17.9090   21.6902 C   0  0  0  0  0  0  0  0  0  0  0  0
   13.9284  -17.3027   21.0420 N   0  0  0  0  0  0  0  0  0  0  0  0
   10.7616  -18.8765   27.6573 C   0  0  0  0  0  0  0  0  0  0  0  0
   10.2065  -18.0800   28.4683 O   0  0  0  0  0  0  0  0  0  0  0  0
   11.4807  -19.8963   28.3406 O   0  0  0  0  0  0  0  0  0  0  0  0
  2  1  1  0
  3  2  1  0
  3  4  1  6
  5  3  1  0
  5  6  1  1
  7  5  1  0
  7  8  2  0
  9 10  1  0
 10 11  2  0
 12 10  1  0
 13 12  1  6
 13 14  1  0
 14  7  1  0
 15 13  1  0
 16 15  2  0
 17 15  1  0
 18 17  1  0
 18 24  1  0
 18 19  1  1
 20 19  1  0
 21 20  1  0
 22 21  1  0
 23 22  1  0
 24 26  1  0
 25 24  2  0
M  END
$$$$
