INK.pdb
     RDKit          3D

 26 25  0  0  1  0  0  0  0  0999 V2000
    7.7599  -11.8113   27.6614 C   0  0  0  0  0  0  0  0  0  0  0  0
    7.2296  -13.0703   27.0683 C   0  0  0  0  0  0  0  0  0  0  0  0
    6.7822  -12.9346   25.6303 C   0  0  2  0  0  0  0  0  0  0  0  0
    5.6708  -11.9515   25.4411 C   0  0  0  0  0  0  0  0  0  0  0  0
    6.3849  -14.3375   25.1207 C   0  0  2  0  0  0  0  0  0  0  0  0
    6.9454  -15.3494   25.9701 N   0  0  0  0  0  0  0  0  0  0  0  0
    6.9274  -14.4524   23.7359 C   0  0  0  0  0  0  0  0  0  0  0  0
    6.5181  -13.7727   22.7822 O   0  0  0  0  0  0  0  0  0  0  0  0
    7.6058  -12.6285   20.0755 N   0  0  0  0  0  0  0  0  0  0  0  0
    7.8936  -13.9649   20.4525 C   0  0  0  0  0  0  0  0  0  0  0  0
    7.2617  -14.8804   19.8517 O   0  0  0  0  0  0  0  0  0  0  0  0
    8.8931  -14.2687   21.5067 C   0  0  0  0  0  0  0  0  0  0  0  0
    8.5807  -15.5585   22.2219 C   0  0  2  0  0  0  0  0  0  0  0  0
    7.9641  -15.3826   23.4884 N   0  0  0  0  0  0  0  0  0  0  0  0
    9.8524  -16.3330   22.2917 C   0  0  0  0  0  0  0  0  0  0  0  0
   10.6631  -16.2531   21.3274 O   0  0  0  0  0  0  0  0  0  0  0  0
   10.0422  -17.1033   23.4565 N   0  0  0  0  0  0  0  0  0  0  0  0
   11.4427  -17.4372   23.8820 C   0  0  1  0  0  0  0  0  0  0  0  0
   11.3273  -17.7104   25.3177 C   0  0  0  0  0  0  0  0  0  0  0  0
   12.3667  -18.3118   26.1438 C   0  0  0  0  0  0  0  0  0  0  0  0
   12.0542  -18.6592   27.5500 C   0  0  0  0  0  0  0  0  0  0  0  0
   13.2592  -19.4358   28.1576 C   0  0  0  0  0  0  0  0  0  0  0  0
   12.9050  -19.8408   29.4879 N   0  0  0  0  0  0  0  0  0  0  0  0
   11.8948  -18.4127   22.9145 C   0  0  0  0  0  0  0  0  0  0  0  0
   13.0877  -18.6309   22.5544 O   0  0  0  0  0  0  0  0  0  0  0  0
   10.9824  -19.2670   22.2351 O   0  0  0  0  0  0  0  0  0  0  0  0
  2  1  1  0
  3  2  1  0
  3  4  1  1
  5  3  1  0
  5  6  1  1
  7  5  1  0
  7  8  2  0
  9 10  1  0
 10 11  2  0
 12 10  1  0
 13 12  1  1
 13 14  1  0
 14  7  1  0
 15 13  1  0
 16 15  2  0
 17 15  1  0
 18 17  1  0
 18 24  1  0
 18 19  1  1
 20 19  1  0
 21 20  1  0
 22 21  1  0
 23 22  1  0
 24 26  1  0
 25 24  2  0
M  END
$$$$
