INK.pdb
     RDKit          3D

 26 25  0  0  1  0  0  0  0  0999 V2000
    7.6523  -12.6885   21.6205 C   0  0  0  0  0  0  0  0  0  0  0  0
    7.6665  -13.4868   20.3633 C   0  0  0  0  0  0  0  0  0  0  0  0
    9.0437  -13.6775   19.7688 C   0  0  2  0  0  0  0  0  0  0  0  0
    9.7455  -12.3922   19.4636 C   0  0  0  0  0  0  0  0  0  0  0  0
    8.8998  -14.5536   18.5049 C   0  0  2  0  0  0  0  0  0  0  0  0
    7.7049  -15.3444   18.5847 N   0  0  0  0  0  0  0  0  0  0  0  0
   10.1076  -15.4276   18.4578 C   0  0  0  0  0  0  0  0  0  0  0  0
   10.3227  -16.2494   17.5536 O   0  0  0  0  0  0  0  0  0  0  0  0
   15.0312  -15.3070   17.2194 N   0  0  0  0  0  0  0  0  0  0  0  0
   14.4534  -14.4106   18.1540 C   0  0  0  0  0  0  0  0  0  0  0  0
   15.2464  -13.6931   18.8282 O   0  0  0  0  0  0  0  0  0  0  0  0
   12.9820  -14.3237   18.3284 C   0  0  0  0  0  0  0  0  0  0  0  0
   12.4668  -15.3708   19.2828 C   0  0  2  0  0  0  0  0  0  0  0  0
   11.0640  -15.3198   19.4946 N   0  0  0  0  0  0  0  0  0  0  0  0
   13.2548  -15.2343   20.5407 C   0  0  0  0  0  0  0  0  0  0  0  0
   14.5149  -15.2653   20.4715 O   0  0  0  0  0  0  0  0  0  0  0  0
   12.5055  -15.0778   21.7239 N   0  0  0  0  0  0  0  0  0  0  0  0
   12.8098  -15.9665   22.8950 C   0  0  1  0  0  0  0  0  0  0  0  0
   12.1421  -17.2307   22.5706 C   0  0  0  0  0  0  0  0  0  0  0  0
   12.1875  -18.4374   23.3869 C   0  0  0  0  0  0  0  0  0  0  0  0
   11.4885  -19.6535   22.9092 C   0  0  0  0  0  0  0  0  0  0  0  0
   11.6712  -20.7866   23.9612 C   0  0  0  0  0  0  0  0  0  0  0  0
   10.4879  -21.5984   23.9540 N   0  0  0  0  0  0  0  0  0  0  0  0
   14.2380  -15.8408   23.0865 C   0  0  0  0  0  0  0  0  0  0  0  0
   15.1098  -15.6318   22.1941 O   0  0  0  0  0  0  0  0  0  0  0  0
   14.8298  -15.9507   24.3755 O   0  0  0  0  0  0  0  0  0  0  0  0
  2  1  1  0
  3  2  1  0
  3  4  1  6
  5  3  1  0
  5  6  1  1
  7  5  1  0
  7  8  2  0
  9 10  1  0
 10 11  2  0
 12 10  1  0
 13 12  1  6
 13 14  1  0
 14  7  1  0
 15 13  1  0
 16 15  2  0
 17 15  1  0
 18 17  1  0
 18 24  1  0
 18 19  1  6
 20 19  1  0
 21 20  1  0
 22 21  1  0
 23 22  1  0
 24 26  1  0
 25 24  2  0
M  END
$$$$
