INK.pdb
     RDKit          3D

 26 25  0  0  1  0  0  0  0  0999 V2000
    7.2006  -11.9656   19.7619 C   0  0  0  0  0  0  0  0  0  0  0  0
    7.6536  -13.2460   19.1509 C   0  0  0  0  0  0  0  0  0  0  0  0
    7.9787  -14.3283   20.1556 C   0  0  2  0  0  0  0  0  0  0  0  0
    9.0055  -13.9187   21.1633 C   0  0  0  0  0  0  0  0  0  0  0  0
    8.4262  -15.5838   19.3752 C   0  0  2  0  0  0  0  0  0  0  0  0
    7.3896  -16.0024   18.4753 N   0  0  0  0  0  0  0  0  0  0  0  0
    8.6973  -16.6392   20.3939 C   0  0  0  0  0  0  0  0  0  0  0  0
    8.0727  -17.7095   20.4531 O   0  0  0  0  0  0  0  0  0  0  0  0
   13.0660  -19.0845   20.8964 N   0  0  0  0  0  0  0  0  0  0  0  0
   11.8259  -18.4357   20.6686 C   0  0  0  0  0  0  0  0  0  0  0  0
   11.7626  -17.6463   19.6831 O   0  0  0  0  0  0  0  0  0  0  0  0
   10.6577  -18.6766   21.5519 C   0  0  0  0  0  0  0  0  0  0  0  0
   10.2004  -17.4131   22.2354 C   0  0  2  0  0  0  0  0  0  0  0  0
    9.7194  -16.4164   21.3462 N   0  0  0  0  0  0  0  0  0  0  0  0
   11.3343  -16.9450   23.0822 C   0  0  0  0  0  0  0  0  0  0  0  0
   12.5135  -17.1429   22.6774 O   0  0  0  0  0  0  0  0  0  0  0  0
   10.9811  -16.3066   24.2880 N   0  0  0  0  0  0  0  0  0  0  0  0
   10.9421  -17.1178   25.5507 C   0  0  1  0  0  0  0  0  0  0  0  0
    9.5628  -17.6096   25.6201 C   0  0  0  0  0  0  0  0  0  0  0  0
    9.1003  -18.6931   26.4784 C   0  0  0  0  0  0  0  0  0  0  0  0
    7.6681  -19.0719   26.4469 C   0  0  0  0  0  0  0  0  0  0  0  0
    7.4005  -20.1266   27.5605 C   0  0  0  0  0  0  0  0  0  0  0  0
    6.0241  -20.5241   27.4784 N   0  0  0  0  0  0  0  0  0  0  0  0
   12.0979  -17.9830   25.4640 C   0  0  0  0  0  0  0  0  0  0  0  0
   12.9750  -18.1727   26.3556 O   0  0  0  0  0  0  0  0  0  0  0  0
   12.3727  -18.7447   24.2943 O   0  0  0  0  0  0  0  0  0  0  0  0
  2  1  1  0
  3  2  1  0
  3  4  1  1
  5  3  1  0
  5  6  1  6
  7  5  1  0
  7  8  2  0
  9 10  1  0
 10 11  2  0
 12 10  1  0
 13 12  1  6
 13 14  1  0
 14  7  1  0
 15 13  1  0
 16 15  2  0
 17 15  1  0
 18 17  1  0
 18 24  1  0
 18 19  1  6
 20 19  1  0
 21 20  1  0
 22 21  1  0
 23 22  1  0
 24 26  1  0
 25 24  2  0
M  END
$$$$
