INK.pdb
     RDKit          3D

 26 25  0  0  1  0  0  0  0  0999 V2000
    7.7550  -11.9924   19.6685 C   0  0  0  0  0  0  0  0  0  0  0  0
    7.3490  -13.4247   19.7082 C   0  0  0  0  0  0  0  0  0  0  0  0
    7.6918  -14.1278   21.0023 C   0  0  2  0  0  0  0  0  0  0  0  0
    9.1556  -14.1311   21.3104 C   0  0  0  0  0  0  0  0  0  0  0  0
    7.1296  -15.5644   20.9273 C   0  0  2  0  0  0  0  0  0  0  0  0
    5.7898  -15.5451   20.4132 N   0  0  0  0  0  0  0  0  0  0  0  0
    7.1518  -16.0992   22.3196 C   0  0  0  0  0  0  0  0  0  0  0  0
    7.0919  -15.3811   23.3295 O   0  0  0  0  0  0  0  0  0  0  0  0
    4.8012  -19.9874   22.3796 N   0  0  0  0  0  0  0  0  0  0  0  0
    5.2548  -19.1912   23.4618 C   0  0  0  0  0  0  0  0  0  0  0  0
    4.4396  -18.3503   23.9381 O   0  0  0  0  0  0  0  0  0  0  0  0
    6.6271  -19.3428   24.0064 C   0  0  0  0  0  0  0  0  0  0  0  0
    7.4648  -18.1122   23.7686 C   0  0  2  0  0  0  0  0  0  0  0  0
    7.2452  -17.4982   22.5076 N   0  0  0  0  0  0  0  0  0  0  0  0
    8.8852  -18.5070   23.9888 C   0  0  0  0  0  0  0  0  0  0  0  0
    9.4702  -19.1829   23.0975 O   0  0  0  0  0  0  0  0  0  0  0  0
    9.4634  -18.0796   25.2009 N   0  0  0  0  0  0  0  0  0  0  0  0
   10.9042  -18.4056   25.4688 C   0  0  1  0  0  0  0  0  0  0  0  0
   11.6479  -17.3638   24.7541 C   0  0  0  0  0  0  0  0  0  0  0  0
   13.0952  -17.3323   24.5844 C   0  0  0  0  0  0  0  0  0  0  0  0
   13.6784  -16.4313   23.5627 C   0  0  0  0  0  0  0  0  0  0  0  0
   15.2300  -16.5511   23.6110 C   0  0  0  0  0  0  0  0  0  0  0  0
   15.7749  -15.7202   22.5758 N   0  0  0  0  0  0  0  0  0  0  0  0
   10.9736  -18.6006   26.9003 C   0  0  0  0  0  0  0  0  0  0  0  0
   11.9745  -18.9928   27.5671 O   0  0  0  0  0  0  0  0  0  0  0  0
    9.8523  -18.3568   27.7411 O   0  0  0  0  0  0  0  0  0  0  0  0
  2  1  1  0
  3  2  1  0
  3  4  1  6
  5  3  1  0
  5  6  1  1
  7  5  1  0
  7  8  2  0
  9 10  1  0
 10 11  2  0
 12 10  1  0
 13 12  1  6
 13 14  1  0
 14  7  1  0
 15 13  1  0
 16 15  2  0
 17 15  1  0
 18 17  1  0
 18 24  1  0
 18 19  1  1
 20 19  1  0
 21 20  1  0
 22 21  1  0
 23 22  1  0
 24 26  1  0
 25 24  2  0
M  END
$$$$
