INK.pdb
     RDKit          3D

 26 25  0  0  1  0  0  0  0  0999 V2000
    6.7239  -12.4755   18.5306 C   0  0  0  0  0  0  0  0  0  0  0  0
    8.1891  -12.6882   18.6917 C   0  0  0  0  0  0  0  0  0  0  0  0
    8.5492  -13.8341   19.6103 C   0  0  2  0  0  0  0  0  0  0  0  0
    7.8884  -13.7556   20.9500 C   0  0  0  0  0  0  0  0  0  0  0  0
   10.0875  -13.8725   19.7434 C   0  0  2  0  0  0  0  0  0  0  0  0
   10.6956  -13.9126   18.4441 N   0  0  0  0  0  0  0  0  0  0  0  0
   10.4133  -15.1065   20.5156 C   0  0  0  0  0  0  0  0  0  0  0  0
    9.9334  -15.3625   21.6306 O   0  0  0  0  0  0  0  0  0  0  0  0
   13.2167  -17.3195   17.5203 N   0  0  0  0  0  0  0  0  0  0  0  0
   13.3889  -17.7658   18.8553 C   0  0  0  0  0  0  0  0  0  0  0  0
   14.5548  -17.6956   19.3390 O   0  0  0  0  0  0  0  0  0  0  0  0
   12.2468  -18.2912   19.6442 C   0  0  0  0  0  0  0  0  0  0  0  0
   11.6909  -17.2541   20.5867 C   0  0  2  0  0  0  0  0  0  0  0  0
   11.3158  -16.0399   19.9539 N   0  0  0  0  0  0  0  0  0  0  0  0
   12.7015  -17.0647   21.6658 C   0  0  0  0  0  0  0  0  0  0  0  0
   13.3557  -15.9856   21.6993 O   0  0  0  0  0  0  0  0  0  0  0  0
   12.8398  -18.1321   22.5756 N   0  0  0  0  0  0  0  0  0  0  0  0
   13.5812  -17.8960   23.8595 C   0  0  1  0  0  0  0  0  0  0  0  0
   12.8679  -18.7163   24.8432 C   0  0  0  0  0  0  0  0  0  0  0  0
   13.2288  -18.8435   26.2496 C   0  0  0  0  0  0  0  0  0  0  0  0
   12.3515  -19.6313   27.1470 C   0  0  0  0  0  0  0  0  0  0  0  0
   12.9456  -19.6028   28.5859 C   0  0  0  0  0  0  0  0  0  0  0  0
   12.0362  -20.2888   29.4587 N   0  0  0  0  0  0  0  0  0  0  0  0
   14.9735  -18.0859   23.5167 C   0  0  0  0  0  0  0  0  0  0  0  0
   15.9734  -17.5370   24.0635 O   0  0  0  0  0  0  0  0  0  0  0  0
   15.3700  -18.9590   22.4658 O   0  0  0  0  0  0  0  0  0  0  0  0
  2  1  1  0
  3  2  1  0
  3  4  1  1
  5  3  1  0
  5  6  1  6
  7  5  1  0
  7  8  2  0
  9 10  1  0
 10 11  2  0
 12 10  1  0
 13 12  1  6
 13 14  1  0
 14  7  1  0
 15 13  1  0
 16 15  2  0
 17 15  1  0
 18 17  1  0
 18 24  1  0
 18 19  1  1
 20 19  1  0
 21 20  1  0
 22 21  1  0
 23 22  1  0
 24 26  1  0
 25 24  2  0
M  END
$$$$
