INK.pdb
     RDKit          3D

 26 25  0  0  1  0  0  0  0  0999 V2000
    7.3458  -11.8361   19.3102 C   0  0  0  0  0  0  0  0  0  0  0  0
    7.7421  -13.2518   19.0724 C   0  0  0  0  0  0  0  0  0  0  0  0
    8.0218  -14.0350   20.3354 C   0  0  2  0  0  0  0  0  0  0  0  0
    9.0517  -13.4007   21.2154 C   0  0  0  0  0  0  0  0  0  0  0  0
    8.4353  -15.4659   19.9267 C   0  0  2  0  0  0  0  0  0  0  0  0
    7.4269  -16.0526   19.0911 N   0  0  0  0  0  0  0  0  0  0  0  0
    8.5854  -16.2394   21.1933 C   0  0  0  0  0  0  0  0  0  0  0  0
    7.6259  -16.6034   21.8905 O   0  0  0  0  0  0  0  0  0  0  0  0
   12.3250  -19.3258   20.9400 N   0  0  0  0  0  0  0  0  0  0  0  0
   11.3369  -19.1435   21.9407 C   0  0  0  0  0  0  0  0  0  0  0  0
   10.3897  -19.9803   21.9724 O   0  0  0  0  0  0  0  0  0  0  0  0
   11.4167  -18.0179   22.9048 C   0  0  0  0  0  0  0  0  0  0  0  0
   10.1671  -17.1747   22.8883 C   0  0  2  0  0  0  0  0  0  0  0  0
    9.8870  -16.5810   21.6296 N   0  0  0  0  0  0  0  0  0  0  0  0
   10.3032  -16.1786   23.9888 C   0  0  0  0  0  0  0  0  0  0  0  0
   11.3801  -15.5271   24.0852 O   0  0  0  0  0  0  0  0  0  0  0  0
    9.1906  -16.0485   24.8440 N   0  0  0  0  0  0  0  0  0  0  0  0
    9.2352  -15.0195   25.9364 C   0  0  1  0  0  0  0  0  0  0  0  0
    7.9503  -14.3222   25.8266 C   0  0  0  0  0  0  0  0  0  0  0  0
    7.6680  -12.9943   26.3573 C   0  0  0  0  0  0  0  0  0  0  0  0
    6.2872  -12.4644   26.2674 C   0  0  0  0  0  0  0  0  0  0  0  0
    6.2377  -11.0666   26.9515 C   0  0  0  0  0  0  0  0  0  0  0  0
    4.9218  -10.5249   26.7669 N   0  0  0  0  0  0  0  0  0  0  0  0
    9.6508  -15.7533   27.1115 C   0  0  0  0  0  0  0  0  0  0  0  0
    9.9941  -15.2694   28.2287 O   0  0  0  0  0  0  0  0  0  0  0  0
    9.7184  -17.1743   27.1179 O   0  0  0  0  0  0  0  0  0  0  0  0
  2  1  1  0
  3  2  1  0
  3  4  1  6
  5  3  1  0
  5  6  1  6
  7  5  1  0
  7  8  2  0
  9 10  1  0
 10 11  2  0
 12 10  1  0
 13 12  1  6
 13 14  1  0
 14  7  1  0
 15 13  1  0
 16 15  2  0
 17 15  1  0
 18 17  1  0
 18 24  1  0
 18 19  1  1
 20 19  1  0
 21 20  1  0
 22 21  1  0
 23 22  1  0
 24 26  1  0
 25 24  2  0
M  END
$$$$
