PRV.pdb
     RDKit          3D

 26 26  0  0  1  0  0  0  0  0999 V2000
   28.0336  -20.2508  -16.0539 N   0  0  0  0  0  0  0  0  0  0  0  0
   28.4494  -19.1734  -16.8937 C   0  0  0  0  0  0  0  0  0  0  0  0
   28.1051  -17.8880  -16.2144 C   0  0  0  0  0  0  0  0  0  0  0  0
   27.2132  -18.3219  -15.0832 C   0  0  0  0  0  0  0  0  0  0  0  0
   27.6230  -19.7275  -14.7930 C   0  0  1  0  0  0  0  0  0  0  0  0
   26.5101  -20.5408  -14.1888 C   0  0  0  0  0  0  0  0  0  0  0  0
   25.9460  -21.4342  -14.8581 O   0  0  0  0  0  0  0  0  0  0  0  0
   28.9035  -20.6046   -7.6827 N   0  0  0  0  0  0  0  0  0  0  0  0
   27.6536  -20.0154   -7.2068 C   0  0  0  0  0  0  0  0  0  0  0  0
   27.6345  -19.3844   -6.1205 N   0  0  0  0  0  0  0  0  0  0  0  0
   26.4841  -20.1657   -7.9808 N   0  0  0  0  0  0  0  0  0  0  0  0
   25.9801  -21.3425   -8.6081 C   0  0  0  0  0  0  0  0  0  0  0  0
   26.0031  -21.4123  -10.0879 C   0  0  0  0  0  0  0  0  0  0  0  0
   24.9021  -20.5455  -10.7450 C   0  0  0  0  0  0  0  0  0  0  0  0
   24.8943  -20.6327  -12.2128 C   0  0  2  0  0  0  0  0  0  0  0  0
   26.1127  -20.2826  -12.8589 N   0  0  0  0  0  0  0  0  0  0  0  0
   23.6613  -20.0369  -12.8570 C   0  0  0  0  0  0  0  0  0  0  0  0
   23.4809  -18.8030  -12.9799 O   0  0  0  0  0  0  0  0  0  0  0  0
   26.9024  -18.9467   -5.6385 C   0  0  0  0  0  0  0  0  0  0  0  0
   22.3269  -20.7894  -16.3556 C   0  0  2  0  0  0  0  0  0  0  0  0
   21.1980  -20.9609  -15.3657 C   0  0  0  0  0  0  0  0  0  0  0  0
   21.0135  -22.4378  -15.1144 C   0  0  2  0  0  0  0  0  0  0  0  0
   21.4649  -20.2767  -14.0619 N   0  0  0  0  0  0  0  0  0  0  0  0
   22.6147  -20.8622  -13.3709 C   0  0  0  0  0  0  0  0  0  0  0  0
   20.2751  -20.4141  -13.1742 O   0  0  0  0  0  0  0  0  0  0  0  0
   19.1305  -19.6406  -13.3970 O   0  0  0  0  0  0  0  0  0  0  0  0
  1  2  1  0
  3  2  1  0
  4  5  1  0
  4  3  1  0
  5  1  1  0
  6  7  2  0
  5  6  1  6
  9 11  1  0
  9  8  1  0
 10  9  2  0
 12 11  1  0
 13 12  1  0
 13 14  1  0
 15 14  1  1
 15 16  1  0
 16  6  1  0
 17 18  2  0
 17 15  1  0
 20 19  1  6
 20 21  1  0
 22 20  1  0
 22 23  1  1
 23 17  1  0
 24 22  1  0
 25 24  1  0
 26 24  2  0
M  END
$$$$
