PRV.pdb
     RDKit          3D

 26 26  0  0  1  0  0  0  0  0999 V2000
   28.2278  -22.5396  -15.8351 N   0  0  0  0  0  0  0  0  0  0  0  0
   29.3455  -22.7603  -16.6958 C   0  0  0  0  0  0  0  0  0  0  0  0
   29.1879  -21.8936  -17.9026 C   0  0  0  0  0  0  0  0  0  0  0  0
   27.7717  -21.3984  -17.7910 C   0  0  0  0  0  0  0  0  0  0  0  0
   27.4680  -21.4396  -16.3302 C   0  0  1  0  0  0  0  0  0  0  0  0
   25.9988  -21.6072  -16.0500 C   0  0  0  0  0  0  0  0  0  0  0  0
   25.1815  -20.7378  -16.4247 O   0  0  0  0  0  0  0  0  0  0  0  0
   20.6072  -27.3579  -15.4854 N   0  0  0  0  0  0  0  0  0  0  0  0
   21.9389  -27.8964  -15.2163 C   0  0  0  0  0  0  0  0  0  0  0  0
   22.3475  -28.8991  -15.8536 N   0  0  0  0  0  0  0  0  0  0  0  0
   22.7470  -27.2763  -14.2407 N   0  0  0  0  0  0  0  0  0  0  0  0
   22.4534  -26.1331  -13.4410 C   0  0  0  0  0  0  0  0  0  0  0  0
   22.6005  -24.7925  -14.0545 C   0  0  0  0  0  0  0  0  0  0  0  0
   24.0735  -24.4371  -14.3700 C   0  0  0  0  0  0  0  0  0  0  0  0
   24.2319  -23.1072  -14.9768 C   0  0  2  0  0  0  0  0  0  0  0  0
   25.5565  -22.7571  -15.3604 N   0  0  0  0  0  0  0  0  0  0  0  0
   23.4894  -22.0075  -14.2490 C   0  0  0  0  0  0  0  0  0  0  0  0
   23.8070  -21.6078  -13.1047 O   0  0  0  0  0  0  0  0  0  0  0  0
   23.1756  -29.4179  -15.7833 C   0  0  0  0  0  0  0  0  0  0  0  0
   20.4978  -18.0684  -14.4132 C   0  0  2  0  0  0  0  0  0  0  0  0
   21.2768  -19.1720  -15.0906 C   0  0  0  0  0  0  0  0  0  0  0  0
   22.5148  -18.5648  -15.7046 C   0  0  1  0  0  0  0  0  0  0  0  0
   21.6867  -20.2547  -14.1424 N   0  0  0  0  0  0  0  0  0  0  0  0
   22.3647  -21.3509  -14.8359 C   0  0  0  0  0  0  0  0  0  0  0  0
   20.4785  -20.8122  -13.4702 O   0  0  0  0  0  0  0  0  0  0  0  0
   20.0846  -20.3403  -12.2132 O   0  0  0  0  0  0  0  0  0  0  0  0
  1  2  1  0
  3  2  1  0
  4  5  1  0
  4  3  1  0
  5  1  1  0
  6  7  2  0
  5  6  1  6
  9 11  1  0
  9  8  1  0
 10  9  2  0
 12 11  1  0
 13 12  1  0
 13 14  1  0
 15 14  1  1
 15 16  1  0
 16  6  1  0
 17 18  2  0
 17 15  1  0
 20 19  1  6
 20 21  1  0
 22 20  1  0
 22 23  1  6
 23 17  1  0
 24 22  1  0
 25 24  1  0
 26 24  2  0
M  END
$$$$
