PRV.pdb
     RDKit          3D

 26 26  0  0  1  0  0  0  0  0999 V2000
   26.3066  -20.3204  -16.1464 N   0  0  0  0  0  0  0  0  0  0  0  0
   26.2285  -20.7515  -17.5054 C   0  0  0  0  0  0  0  0  0  0  0  0
   25.2511  -21.8786  -17.5857 C   0  0  0  0  0  0  0  0  0  0  0  0
   25.0129  -22.2341  -16.1434 C   0  0  0  0  0  0  0  0  0  0  0  0
   25.2913  -20.9759  -15.3902 C   0  0  1  0  0  0  0  0  0  0  0  0
   25.7318  -21.2352  -13.9746 C   0  0  0  0  0  0  0  0  0  0  0  0
   24.9024  -21.5994  -13.1121 O   0  0  0  0  0  0  0  0  0  0  0  0
   33.9724  -22.9182  -11.3536 N   0  0  0  0  0  0  0  0  0  0  0  0
   32.9609  -22.9686  -12.4073 C   0  0  0  0  0  0  0  0  0  0  0  0
   33.2314  -23.5127  -13.5070 N   0  0  0  0  0  0  0  0  0  0  0  0
   31.6910  -22.4029  -12.1690 N   0  0  0  0  0  0  0  0  0  0  0  0
   31.1312  -21.9677  -10.9322 C   0  0  0  0  0  0  0  0  0  0  0  0
   29.8014  -21.3149  -10.9562 C   0  0  0  0  0  0  0  0  0  0  0  0
   29.1817  -21.2712  -12.3737 C   0  0  0  0  0  0  0  0  0  0  0  0
   27.7128  -21.2064  -12.3626 C   0  0  2  0  0  0  0  0  0  0  0  0
   27.0911  -21.0629  -13.6343 N   0  0  0  0  0  0  0  0  0  0  0  0
   27.1460  -20.2981  -11.2930 C   0  0  0  0  0  0  0  0  0  0  0  0
   27.2219  -19.0484  -11.3449 O   0  0  0  0  0  0  0  0  0  0  0  0
   32.7043  -23.6138  -14.3266 C   0  0  0  0  0  0  0  0  0  0  0  0
   23.5921  -20.3240   -9.7878 C   0  0  2  0  0  0  0  0  0  0  0  0
   24.5954  -20.3377   -8.6578 C   0  0  0  0  0  0  0  0  0  0  0  0
   24.6533  -21.7381   -8.0976 C   0  0  2  0  0  0  0  0  0  0  0  0
   25.9673  -19.9348   -9.0994 N   0  0  0  0  0  0  0  0  0  0  0  0
   26.4805  -20.8232  -10.1433 C   0  0  0  0  0  0  0  0  0  0  0  0
   26.9025  -19.9979   -7.9401 O   0  0  0  0  0  0  0  0  0  0  0  0
   27.8934  -20.9841   -7.8807 O   0  0  0  0  0  0  0  0  0  0  0  0
  1  2  1  0
  3  2  1  0
  4  5  1  0
  4  3  1  0
  5  1  1  0
  6  7  2  0
  5  6  1  1
  9 11  1  0
  9  8  1  0
 10  9  2  0
 12 11  1  0
 13 12  1  0
 13 14  1  0
 15 14  1  6
 15 16  1  0
 16  6  1  0
 17 18  2  0
 17 15  1  0
 20 19  1  1
 20 21  1  0
 22 20  1  0
 22 23  1  1
 23 17  1  0
 24 22  1  0
 25 24  1  0
 26 24  2  0
M  END
$$$$
