PRV.pdb
     RDKit          3D

 26 26  0  0  1  0  0  0  0  0999 V2000
   28.1843  -21.6725  -16.5898 N   0  0  0  0  0  0  0  0  0  0  0  0
   28.7252  -22.8828  -17.1201 C   0  0  0  0  0  0  0  0  0  0  0  0
   29.3028  -22.5895  -18.4664 C   0  0  0  0  0  0  0  0  0  0  0  0
   28.7894  -21.2083  -18.7703 C   0  0  0  0  0  0  0  0  0  0  0  0
   28.5577  -20.5857  -17.4336 C   0  0  1  0  0  0  0  0  0  0  0  0
   27.4968  -19.5189  -17.4692 C   0  0  0  0  0  0  0  0  0  0  0  0
   27.6593  -18.4899  -18.1614 O   0  0  0  0  0  0  0  0  0  0  0  0
   21.1505  -16.3976  -16.8562 N   0  0  0  0  0  0  0  0  0  0  0  0
   19.9987  -17.2035  -16.4567 C   0  0  0  0  0  0  0  0  0  0  0  0
   18.8445  -16.7094  -16.5035 N   0  0  0  0  0  0  0  0  0  0  0  0
   20.2046  -18.5301  -16.0240 N   0  0  0  0  0  0  0  0  0  0  0  0
   21.4070  -19.2955  -16.0500 C   0  0  0  0  0  0  0  0  0  0  0  0
   22.6736  -18.5998  -16.3771 C   0  0  0  0  0  0  0  0  0  0  0  0
   23.8915  -19.5545  -16.4029 C   0  0  0  0  0  0  0  0  0  0  0  0
   25.1639  -18.8644  -16.6611 C   0  0  2  0  0  0  0  0  0  0  0  0
   26.3178  -19.6952  -16.7128 N   0  0  0  0  0  0  0  0  0  0  0  0
   25.3510  -17.5984  -15.8533 C   0  0  0  0  0  0  0  0  0  0  0  0
   25.4722  -17.5933  -14.6061 O   0  0  0  0  0  0  0  0  0  0  0  0
   17.9650  -17.0994  -16.3182 C   0  0  0  0  0  0  0  0  0  0  0  0
   28.0205  -14.9873  -15.8397 C   0  0  2  0  0  0  0  0  0  0  0  0
   26.7096  -14.2804  -16.0962 C   0  0  0  0  0  0  0  0  0  0  0  0
   26.6116  -13.9939  -17.5749 C   0  0  2  0  0  0  0  0  0  0  0  0
   25.5244  -15.0937  -15.6801 N   0  0  0  0  0  0  0  0  0  0  0  0
   25.4012  -16.3147  -16.4779 C   0  0  0  0  0  0  0  0  0  0  0  0
   24.2804  -14.2938  -15.8673 O   0  0  0  0  0  0  0  0  0  0  0  0
   23.9921  -13.2209  -15.0167 O   0  0  0  0  0  0  0  0  0  0  0  0
  1  2  1  0
  3  2  1  0
  4  5  1  0
  4  3  1  0
  5  1  1  0
  6  7  2  0
  5  6  1  6
  9 11  1  0
  9  8  1  0
 10  9  2  0
 12 11  1  0
 13 12  1  0
 13 14  1  0
 15 14  1  1
 15 16  1  0
 16  6  1  0
 17 18  2  0
 17 15  1  0
 20 19  1  1
 20 21  1  0
 22 20  1  0
 22 23  1  1
 23 17  1  0
 24 22  1  0
 25 24  1  0
 26 24  2  0
M  END
$$$$
