PRV.pdb
     RDKit          3D

 26 26  0  0  1  0  0  0  0  0999 V2000
   15.5390  -19.7088    3.9755 N   0  0  0  0  0  0  0  0  0  0  0  0
   14.7369  -19.9684    2.8230 C   0  0  0  0  0  0  0  0  0  0  0  0
   15.5921  -20.6355    1.7955 C   0  0  0  0  0  0  0  0  0  0  0  0
   16.9842  -20.4657    2.3401 C   0  0  0  0  0  0  0  0  0  0  0  0
   16.8035  -20.3478    3.8170 C   0  0  1  0  0  0  0  0  0  0  0  0
   17.9086  -19.5651    4.4737 C   0  0  0  0  0  0  0  0  0  0  0  0
   19.0884  -19.9775    4.4267 O   0  0  0  0  0  0  0  0  0  0  0  0
   17.8607  -10.8716    5.7539 N   0  0  0  0  0  0  0  0  0  0  0  0
   17.0214  -12.0474    5.5322 C   0  0  0  0  0  0  0  0  0  0  0  0
   15.8313  -11.9032    5.1563 N   0  0  0  0  0  0  0  0  0  0  0  0
   17.5663  -13.3309    5.7446 N   0  0  0  0  0  0  0  0  0  0  0  0
   18.8747  -13.6766    6.1928 C   0  0  0  0  0  0  0  0  0  0  0  0
   19.2129  -15.1129    6.3263 C   0  0  0  0  0  0  0  0  0  0  0  0
   18.1364  -16.0407    5.7133 C   0  0  0  0  0  0  0  0  0  0  0  0
   18.4732  -17.4681    5.8182 C   0  0  2  0  0  0  0  0  0  0  0  0
   17.5961  -18.3611    5.1417 N   0  0  0  0  0  0  0  0  0  0  0  0
   18.8451  -17.9103    7.2170 C   0  0  0  0  0  0  0  0  0  0  0  0
   18.0137  -18.3713    8.0334 O   0  0  0  0  0  0  0  0  0  0  0  0
   15.1202  -12.5568    4.9921 C   0  0  0  0  0  0  0  0  0  0  0  0
   22.3715  -18.8074   10.6413 C   0  0  2  0  0  0  0  0  0  0  0  0
   22.0016  -18.2594    9.2823 C   0  0  0  0  0  0  0  0  0  0  0  0
   22.5991  -19.1640    8.2322 C   0  0  1  0  0  0  0  0  0  0  0  0
   20.5217  -18.1853    9.0735 N   0  0  0  0  0  0  0  0  0  0  0  0
   20.1888  -17.8261    7.6942 C   0  0  0  0  0  0  0  0  0  0  0  0
   19.9430  -17.1463    9.9725 O   0  0  0  0  0  0  0  0  0  0  0  0
   19.3261  -17.5115   11.1741 O   0  0  0  0  0  0  0  0  0  0  0  0
  1  2  1  0
  3  2  1  0
  4  5  1  0
  4  3  1  0
  5  1  1  0
  6  7  2  0
  5  6  1  6
  9 11  1  0
  9  8  1  0
 10  9  2  0
 12 11  1  0
 13 12  1  0
 13 14  1  0
 15 14  1  1
 15 16  1  0
 16  6  1  0
 17 18  2  0
 17 15  1  0
 20 19  1  6
 20 21  1  0
 22 20  1  0
 22 23  1  6
 23 17  1  0
 24 22  1  0
 25 24  1  0
 26 24  2  0
M  END
$$$$
