PRV.pdb
     RDKit          3D

 26 26  0  0  1  0  0  0  0  0999 V2000
   28.1788  -21.6787  -16.6127 N   0  0  0  0  0  0  0  0  0  0  0  0
   28.4360  -20.9517  -17.8144 C   0  0  0  0  0  0  0  0  0  0  0  0
   28.1644  -19.5054  -17.5561 C   0  0  0  0  0  0  0  0  0  0  0  0
   27.4637  -19.5168  -16.2248 C   0  0  0  0  0  0  0  0  0  0  0  0
   27.9485  -20.7567  -15.5500 C   0  0  1  0  0  0  0  0  0  0  0  0
   26.9601  -21.2949  -14.5508 C   0  0  0  0  0  0  0  0  0  0  0  0
   26.1014  -22.1340  -14.9013 O   0  0  0  0  0  0  0  0  0  0  0  0
   31.2046  -22.1769   -8.3128 N   0  0  0  0  0  0  0  0  0  0  0  0
   30.9561  -22.0354   -9.7460 C   0  0  0  0  0  0  0  0  0  0  0  0
   31.7848  -22.4937  -10.5717 N   0  0  0  0  0  0  0  0  0  0  0  0
   29.7826  -21.3837  -10.1793 N   0  0  0  0  0  0  0  0  0  0  0  0
   28.5288  -21.2754   -9.5096 C   0  0  0  0  0  0  0  0  0  0  0  0
   27.3191  -21.7783  -10.2015 C   0  0  0  0  0  0  0  0  0  0  0  0
   26.4760  -20.6444  -10.8331 C   0  0  0  0  0  0  0  0  0  0  0  0
   26.0252  -20.9489  -12.1992 C   0  0  2  0  0  0  0  0  0  0  0  0
   27.0156  -20.8412  -13.2149 N   0  0  0  0  0  0  0  0  0  0  0  0
   24.6978  -20.3194  -12.5627 C   0  0  0  0  0  0  0  0  0  0  0  0
   24.5110  -19.0806  -12.5868 O   0  0  0  0  0  0  0  0  0  0  0  0
   31.7949  -22.4861  -11.5514 C   0  0  0  0  0  0  0  0  0  0  0  0
   22.7440  -20.6622  -15.7054 C   0  0  2  0  0  0  0  0  0  0  0  0
   21.7823  -20.9650  -14.5796 C   0  0  0  0  0  0  0  0  0  0  0  0
   21.5790  -22.4596  -14.5244 C   0  0  2  0  0  0  0  0  0  0  0  0
   22.2833  -20.4942  -13.2505 N   0  0  0  0  0  0  0  0  0  0  0  0
   23.5626  -21.1160  -12.9053 C   0  0  0  0  0  0  0  0  0  0  0  0
   21.2969  -20.8510  -12.1912 O   0  0  0  0  0  0  0  0  0  0  0  0
   20.1017  -20.1346  -12.0643 O   0  0  0  0  0  0  0  0  0  0  0  0
  1  2  1  0
  3  2  1  0
  4  5  1  0
  4  3  1  0
  5  1  1  0
  6  7  2  0
  5  6  1  1
  9 11  1  0
  9  8  1  0
 10  9  2  0
 12 11  1  0
 13 12  1  0
 13 14  1  0
 15 14  1  1
 15 16  1  0
 16  6  1  0
 17 18  2  0
 17 15  1  0
 20 19  1  6
 20 21  1  0
 22 20  1  0
 22 23  1  1
 23 17  1  0
 24 22  1  0
 25 24  1  0
 26 24  2  0
M  END
$$$$
