PRV.pdb
     RDKit          3D

 26 26  0  0  1  0  0  0  0  0999 V2000
   21.1811  -16.9951  -15.7956 N   0  0  0  0  0  0  0  0  0  0  0  0
   21.4380  -18.2887  -16.3426 C   0  0  0  0  0  0  0  0  0  0  0  0
   22.8164  -18.2901  -16.9190 C   0  0  0  0  0  0  0  0  0  0  0  0
   23.1950  -16.8341  -16.9155 C   0  0  0  0  0  0  0  0  0  0  0  0
   22.3858  -16.2330  -15.8147 C   0  0  1  0  0  0  0  0  0  0  0  0
   22.1144  -14.7685  -16.0304 C   0  0  0  0  0  0  0  0  0  0  0  0
   23.0585  -13.9485  -16.0555 O   0  0  0  0  0  0  0  0  0  0  0  0
   14.9711  -13.7856  -19.8227 N   0  0  0  0  0  0  0  0  0  0  0  0
   15.3315  -12.5416  -19.1457 C   0  0  0  0  0  0  0  0  0  0  0  0
   14.5163  -11.5859  -19.1198 N   0  0  0  0  0  0  0  0  0  0  0  0
   16.5955  -12.4358  -18.5287 N   0  0  0  0  0  0  0  0  0  0  0  0
   17.1232  -11.3528  -17.7665 C   0  0  0  0  0  0  0  0  0  0  0  0
   18.5197  -11.4522  -17.2818 C   0  0  0  0  0  0  0  0  0  0  0  0
   18.9457  -12.9089  -16.9784 C   0  0  0  0  0  0  0  0  0  0  0  0
   20.3010  -13.0119  -16.4177 C   0  0  2  0  0  0  0  0  0  0  0  0
   20.7824  -14.3336  -16.2042 N   0  0  0  0  0  0  0  0  0  0  0  0
   20.5624  -12.0666  -15.2651 C   0  0  0  0  0  0  0  0  0  0  0  0
   20.0823  -12.2337  -14.1198 O   0  0  0  0  0  0  0  0  0  0  0  0
   14.5512  -10.7168  -18.6689 C   0  0  0  0  0  0  0  0  0  0  0  0
   23.6700  -11.3314  -13.5326 C   0  0  2  0  0  0  0  0  0  0  0  0
   23.1310   -9.9890  -13.9698 C   0  0  0  0  0  0  0  0  0  0  0  0
   23.8863   -9.5585  -15.2036 C   0  0  2  0  0  0  0  0  0  0  0  0
   21.6688  -10.0295  -14.2856 N   0  0  0  0  0  0  0  0  0  0  0  0
   21.3862  -10.9099  -15.4202 C   0  0  0  0  0  0  0  0  0  0  0  0
   21.1967   -8.6597  -14.6368 O   0  0  0  0  0  0  0  0  0  0  0  0
   21.0459   -7.6850  -13.6442 O   0  0  0  0  0  0  0  0  0  0  0  0
  1  2  1  0
  3  2  1  0
  4  5  1  0
  4  3  1  0
  5  1  1  0
  6  7  2  0
  5  6  1  6
  9 11  1  0
  9  8  1  0
 10  9  2  0
 12 11  1  0
 13 12  1  0
 13 14  1  0
 15 14  1  1
 15 16  1  0
 16  6  1  0
 17 18  2  0
 17 15  1  0
 20 19  1  1
 20 21  1  0
 22 20  1  0
 22 23  1  1
 23 17  1  0
 24 22  1  0
 25 24  1  0
 26 24  2  0
M  END
$$$$
