PRV.pdb
     RDKit          3D

 26 26  0  0  1  0  0  0  0  0999 V2000
   27.8944  -21.2799  -15.0635 N   0  0  0  0  0  0  0  0  0  0  0  0
   28.1089  -21.3375  -16.4740 C   0  0  0  0  0  0  0  0  0  0  0  0
   28.3128  -19.9450  -16.9757 C   0  0  0  0  0  0  0  0  0  0  0  0
   27.9092  -19.0919  -15.8041 C   0  0  0  0  0  0  0  0  0  0  0  0
   28.1447  -19.9526  -14.6075 C   0  0  1  0  0  0  0  0  0  0  0  0
   27.2576  -19.5859  -13.4484 C   0  0  0  0  0  0  0  0  0  0  0  0
   27.3086  -18.4387  -12.9526 O   0  0  0  0  0  0  0  0  0  0  0  0
   18.8185  -20.6344  -10.8951 N   0  0  0  0  0  0  0  0  0  0  0  0
   19.3437  -20.5224  -12.2543 C   0  0  0  0  0  0  0  0  0  0  0  0
   18.5945  -20.1284  -13.1827 N   0  0  0  0  0  0  0  0  0  0  0  0
   20.6909  -20.8598  -12.5008 N   0  0  0  0  0  0  0  0  0  0  0  0
   21.6778  -21.3066  -11.5741 C   0  0  0  0  0  0  0  0  0  0  0  0
   22.8812  -20.4662  -11.3728 C   0  0  0  0  0  0  0  0  0  0  0  0
   23.9737  -20.7201  -12.4393 C   0  0  0  0  0  0  0  0  0  0  0  0
   25.3268  -20.3785  -11.9761 C   0  0  2  0  0  0  0  0  0  0  0  0
   26.3683  -20.5521  -12.9297 N   0  0  0  0  0  0  0  0  0  0  0  0
   25.6570  -20.9104  -10.5983 C   0  0  0  0  0  0  0  0  0  0  0  0
   25.7432  -22.1332  -10.3387 O   0  0  0  0  0  0  0  0  0  0  0  0
   18.7534  -20.0261  -14.1441 C   0  0  0  0  0  0  0  0  0  0  0  0
   27.1832  -20.0537   -5.9207 C   0  0  2  0  0  0  0  0  0  0  0  0
   26.8521  -19.5309   -7.2995 C   0  0  0  0  0  0  0  0  0  0  0  0
   28.1370  -19.0859   -7.9545 C   0  0  1  0  0  0  0  0  0  0  0  0
   26.1978  -20.5612   -8.1654 N   0  0  0  0  0  0  0  0  0  0  0  0
   25.8936  -20.0330   -9.4961 C   0  0  0  0  0  0  0  0  0  0  0  0
   24.9173  -20.9980   -7.5394 O   0  0  0  0  0  0  0  0  0  0  0  0
   24.9216  -21.9031   -6.4723 O   0  0  0  0  0  0  0  0  0  0  0  0
  1  2  1  0
  3  2  1  0
  4  5  1  0
  4  3  1  0
  5  1  1  0
  6  7  2  0
  5  6  1  1
  9 11  1  0
  9  8  1  0
 10  9  2  0
 12 11  1  0
 13 12  1  0
 13 14  1  0
 15 14  1  6
 15 16  1  0
 16  6  1  0
 17 18  2  0
 17 15  1  0
 20 19  1  1
 20 21  1  0
 22 20  1  0
 22 23  1  1
 23 17  1  0
 24 22  1  0
 25 24  1  0
 26 24  2  0
M  END
$$$$
