VVE.pdb
     RDKit          3D

 24 23  0  0  1  0  0  0  0  0999 V2000
    6.4842  -11.0381   26.5815 C   0  0  0  0  0  0  0  0  0  0  0  0
    7.1436  -12.2486   25.9478 C   0  0  1  0  0  0  0  0  0  0  0  0
    8.0225  -12.9117   26.9584 C   0  0  0  0  0  0  0  0  0  0  0  0
    6.1074  -13.1898   25.3560 C   0  0  2  0  0  0  0  0  0  0  0  0
    5.3137  -13.7355   26.4122 N   0  0  0  0  0  0  0  0  0  0  0  0
    6.7037  -14.1900   24.4663 C   0  0  0  0  0  0  0  0  0  0  0  0
    7.0885  -15.2794   24.9627 O   0  0  0  0  0  0  0  0  0  0  0  0
    8.2319  -15.4378   19.8820 C   0  0  0  0  0  0  0  0  0  0  0  0
    7.6238  -14.4017   20.7700 C   0  0  2  0  0  0  0  0  0  0  0  0
    8.4230  -13.1120   20.7452 C   0  0  0  0  0  0  0  0  0  0  0  0
    7.5222  -14.9360   22.2026 C   0  0  2  0  0  0  0  0  0  0  0  0
    6.8731  -13.9988   23.0677 N   0  0  0  0  0  0  0  0  0  0  0  0
    8.9315  -15.1714   22.6732 C   0  0  0  0  0  0  0  0  0  0  0  0
    9.6688  -14.2282   23.0370 O   0  0  0  0  0  0  0  0  0  0  0  0
    9.4851  -16.4767   22.7244 N   0  0  0  0  0  0  0  0  0  0  0  0
   10.8384  -16.6900   23.2182 C   0  0  1  0  0  0  0  0  0  0  0  0
   10.7698  -17.8331   24.1697 C   0  0  0  0  0  0  0  0  0  0  0  0
   12.0529  -18.2859   24.7629 C   0  0  0  0  0  0  0  0  0  0  0  0
   11.9529  -19.3717   25.7470 C   0  0  0  0  0  0  0  0  0  0  0  0
   10.8572  -19.8548   26.0575 O   0  0  0  0  0  0  0  0  0  0  0  0
   11.7905  -16.9116   22.1027 C   0  0  0  0  0  0  0  0  0  0  0  0
   11.4623  -17.3851   20.9844 O   0  0  0  0  0  0  0  0  0  0  0  0
   13.1163  -19.8620   26.3379 O   0  0  0  0  0  0  0  0  0  0  0  0
   13.1271  -16.5845   22.2804 O   0  0  0  0  0  0  0  0  0  0  0  0
  2  1  1  1
  3  2  1  0
  4  2  1  0
  4  6  1  0
  4  5  1  1
  6  7  2  0
  9  8  1  6
  9 10  1  0
  9 11  1  0
 11 13  1  0
 11 12  1  1
 12  6  1  0
 13 14  2  0
 15 13  1  0
 15 16  1  0
 16 21  1  0
 16 17  1  1
 18 17  1  0
 19 18  1  0
 20 19  2  0
 21 22  2  0
 21 24  1  0
 23 19  1  0
M  END
$$$$
