VVE.pdb
     RDKit          3D

 24 23  0  0  1  0  0  0  0  0999 V2000
    6.6816  -16.8434   22.3959 C   0  0  0  0  0  0  0  0  0  0  0  0
    7.3169  -16.1600   21.1996 C   0  0  1  0  0  0  0  0  0  0  0  0
    6.5751  -16.5507   19.9624 C   0  0  0  0  0  0  0  0  0  0  0  0
    7.3830  -14.6550   21.3998 C   0  0  2  0  0  0  0  0  0  0  0  0
    7.8938  -14.0469   20.2112 N   0  0  0  0  0  0  0  0  0  0  0  0
    8.0960  -14.2845   22.6253 C   0  0  0  0  0  0  0  0  0  0  0  0
    9.3380  -14.4748   22.6761 O   0  0  0  0  0  0  0  0  0  0  0  0
    7.9481  -12.4674   27.2676 C   0  0  0  0  0  0  0  0  0  0  0  0
    7.2450  -12.6579   25.9634 C   0  0  2  0  0  0  0  0  0  0  0  0
    5.8941  -13.3222   26.1536 C   0  0  0  0  0  0  0  0  0  0  0  0
    8.1171  -13.4894   25.0165 C   0  0  2  0  0  0  0  0  0  0  0  0
    7.4616  -13.7198   23.7655 N   0  0  0  0  0  0  0  0  0  0  0  0
    8.3700  -14.8013   25.7078 C   0  0  0  0  0  0  0  0  0  0  0  0
    7.4998  -15.6993   25.7514 O   0  0  0  0  0  0  0  0  0  0  0  0
    9.6095  -15.0759   26.3411 N   0  0  0  0  0  0  0  0  0  0  0  0
    9.8648  -16.3791   26.9389 C   0  0  1  0  0  0  0  0  0  0  0  0
   10.8483  -17.0669   26.0579 C   0  0  0  0  0  0  0  0  0  0  0  0
   11.2749  -18.4281   26.4686 C   0  0  0  0  0  0  0  0  0  0  0  0
   12.2293  -19.0950   25.5732 C   0  0  0  0  0  0  0  0  0  0  0  0
   11.8735  -20.0214   24.8346 O   0  0  0  0  0  0  0  0  0  0  0  0
   10.3262  -16.2472   28.3424 C   0  0  0  0  0  0  0  0  0  0  0  0
   10.7403  -15.1715   28.8461 O   0  0  0  0  0  0  0  0  0  0  0  0
   13.5575  -18.6724   25.5601 O   0  0  0  0  0  0  0  0  0  0  0  0
   10.3088  -17.3630   29.1668 O   0  0  0  0  0  0  0  0  0  0  0  0
  2  1  1  1
  3  2  1  0
  4  2  1  0
  4  6  1  0
  4  5  1  6
  6  7  2  0
  9  8  1  1
  9 10  1  0
  9 11  1  0
 11 13  1  0
 11 12  1  6
 12  6  1  0
 13 14  2  0
 15 13  1  0
 15 16  1  0
 16 21  1  0
 16 17  1  6
 18 17  1  0
 19 18  1  0
 20 19  2  0
 21 22  2  0
 21 24  1  0
 23 19  1  0
M  END
$$$$
