VVE.pdb
     RDKit          3D

 24 23  0  0  1  0  0  0  0  0999 V2000
    6.7031  -17.1060   22.5499 C   0  0  0  0  0  0  0  0  0  0  0  0
    7.4113  -16.5198   21.3431 C   0  0  1  0  0  0  0  0  0  0  0  0
    6.7246  -16.9843   20.0997 C   0  0  0  0  0  0  0  0  0  0  0  0
    7.4981  -15.0057   21.4409 C   0  0  2  0  0  0  0  0  0  0  0  0
    8.0633  -14.4904   20.2333 N   0  0  0  0  0  0  0  0  0  0  0  0
    8.1726  -14.5620   22.6639 C   0  0  0  0  0  0  0  0  0  0  0  0
    9.4160  -14.7261   22.7551 O   0  0  0  0  0  0  0  0  0  0  0  0
    7.9544  -12.4027   27.1431 C   0  0  0  0  0  0  0  0  0  0  0  0
    7.2608  -12.7092   25.8560 C   0  0  2  0  0  0  0  0  0  0  0  0
    5.8824  -13.2969   26.0951 C   0  0  0  0  0  0  0  0  0  0  0  0
    8.1113  -13.6725   25.0210 C   0  0  2  0  0  0  0  0  0  0  0  0
    7.4992  -13.9537   23.7584 N   0  0  0  0  0  0  0  0  0  0  0  0
    8.2330  -14.9405   25.8212 C   0  0  0  0  0  0  0  0  0  0  0  0
    7.5188  -15.9396   25.5818 O   0  0  0  0  0  0  0  0  0  0  0  0
    9.1656  -15.0568   26.8841 N   0  0  0  0  0  0  0  0  0  0  0  0
    9.7262  -16.3526   27.2411 C   0  0  1  0  0  0  0  0  0  0  0  0
   10.4305  -16.8602   26.0315 C   0  0  0  0  0  0  0  0  0  0  0  0
   11.1053  -18.1765   26.1552 C   0  0  0  0  0  0  0  0  0  0  0  0
   11.7798  -18.6639   24.9448 C   0  0  0  0  0  0  0  0  0  0  0  0
   11.7191  -18.0349   23.8813 O   0  0  0  0  0  0  0  0  0  0  0  0
   10.6047  -16.2503   28.4318 C   0  0  0  0  0  0  0  0  0  0  0  0
   11.0295  -15.1620   28.8982 O   0  0  0  0  0  0  0  0  0  0  0  0
   12.4993  -19.8565   25.0018 O   0  0  0  0  0  0  0  0  0  0  0  0
   10.9935  -17.4104   29.0860 O   0  0  0  0  0  0  0  0  0  0  0  0
  2  1  1  1
  3  2  1  0
  4  2  1  0
  4  6  1  0
  4  5  1  6
  6  7  2  0
  9  8  1  1
  9 10  1  0
  9 11  1  0
 11 13  1  0
 11 12  1  6
 12  6  1  0
 13 14  2  0
 15 13  1  0
 15 16  1  0
 16 21  1  0
 16 17  1  6
 18 17  1  0
 19 18  1  0
 20 19  2  0
 21 22  2  0
 21 24  1  0
 23 19  1  0
M  END
$$$$
