VVE.pdb
     RDKit          3D

 24 23  0  0  1  0  0  0  0  0999 V2000
    6.1752  -10.8012   26.5114 C   0  0  0  0  0  0  0  0  0  0  0  0
    6.9613  -12.0259   26.0827 C   0  0  1  0  0  0  0  0  0  0  0  0
    7.7327  -12.5459   27.2523 C   0  0  0  0  0  0  0  0  0  0  0  0
    6.0502  -13.0721   25.4622 C   0  0  2  0  0  0  0  0  0  0  0  0
    5.0847  -13.4858   26.4317 N   0  0  0  0  0  0  0  0  0  0  0  0
    6.7987  -14.1701   24.8446 C   0  0  0  0  0  0  0  0  0  0  0  0
    7.0485  -15.1890   25.5381 O   0  0  0  0  0  0  0  0  0  0  0  0
    8.8840  -13.8412   21.0719 C   0  0  0  0  0  0  0  0  0  0  0  0
    8.0241  -15.0319   21.3449 C   0  0  2  0  0  0  0  0  0  0  0  0
    6.6475  -14.8753   20.7259 C   0  0  0  0  0  0  0  0  0  0  0  0
    7.9045  -15.2542   22.8565 C   0  0  2  0  0  0  0  0  0  0  0  0
    7.2610  -14.1500   23.5002 N   0  0  0  0  0  0  0  0  0  0  0  0
    9.3069  -15.4019   23.3802 C   0  0  0  0  0  0  0  0  0  0  0  0
    9.9622  -14.4178   23.7899 O   0  0  0  0  0  0  0  0  0  0  0  0
    9.9471  -16.6670   23.4317 N   0  0  0  0  0  0  0  0  0  0  0  0
   11.1915  -16.8396   24.1683 C   0  0  1  0  0  0  0  0  0  0  0  0
   10.9380  -17.8892   25.1933 C   0  0  0  0  0  0  0  0  0  0  0  0
   12.1000  -18.3175   26.0116 C   0  0  0  0  0  0  0  0  0  0  0  0
   11.7969  -19.2306   27.1215 C   0  0  0  0  0  0  0  0  0  0  0  0
   12.6495  -20.0147   27.5558 O   0  0  0  0  0  0  0  0  0  0  0  0
   12.3156  -17.1679   23.2579 C   0  0  0  0  0  0  0  0  0  0  0  0
   13.5283  -17.0444   23.5685 O   0  0  0  0  0  0  0  0  0  0  0  0
   10.5248  -19.2087   27.6909 O   0  0  0  0  0  0  0  0  0  0  0  0
   12.0368  -17.6409   21.9837 O   0  0  0  0  0  0  0  0  0  0  0  0
  2  1  1  1
  3  2  1  0
  4  2  1  0
  4  6  1  0
  4  5  1  1
  6  7  2  0
  9  8  1  1
  9 10  1  0
  9 11  1  0
 11 13  1  0
 11 12  1  1
 12  6  1  0
 13 14  2  0
 15 13  1  0
 15 16  1  0
 16 21  1  0
 16 17  1  1
 18 17  1  0
 19 18  1  0
 20 19  2  0
 21 22  2  0
 21 24  1  0
 23 19  1  0
M  END
$$$$
