VVE.pdb
     RDKit          3D

 24 23  0  0  1  0  0  0  0  0999 V2000
    6.2780  -11.5549   26.9854 C   0  0  0  0  0  0  0  0  0  0  0  0
    7.0894  -12.5716   26.2046 C   0  0  1  0  0  0  0  0  0  0  0  0
    8.1121  -13.1797   27.1090 C   0  0  0  0  0  0  0  0  0  0  0  0
    6.1881  -13.6057   25.5503 C   0  0  2  0  0  0  0  0  0  0  0  0
    5.4334  -14.2759   26.5625 N   0  0  0  0  0  0  0  0  0  0  0  0
    6.9230  -14.4986   24.6503 C   0  0  0  0  0  0  0  0  0  0  0  0
    7.3592  -15.5851   25.1095 O   0  0  0  0  0  0  0  0  0  0  0  0
    8.4126  -13.2653   20.7816 C   0  0  0  0  0  0  0  0  0  0  0  0
    7.7695  -14.6045   20.9383 C   0  0  2  0  0  0  0  0  0  0  0  0
    6.3141  -14.5743   20.5100 C   0  0  0  0  0  0  0  0  0  0  0  0
    7.8853  -15.0725   22.3930 C   0  0  2  0  0  0  0  0  0  0  0  0
    7.1725  -14.2062   23.2815 N   0  0  0  0  0  0  0  0  0  0  0  0
    9.3506  -15.0564   22.7330 C   0  0  0  0  0  0  0  0  0  0  0  0
    9.8374  -14.1966   23.5007 O   0  0  0  0  0  0  0  0  0  0  0  0
   10.2444  -16.0184   22.1958 N   0  0  0  0  0  0  0  0  0  0  0  0
   11.5356  -16.2636   22.8232 C   0  0  1  0  0  0  0  0  0  0  0  0
   11.2538  -16.7702   24.1945 C   0  0  0  0  0  0  0  0  0  0  0  0
   11.3990  -18.2317   24.4091 C   0  0  0  0  0  0  0  0  0  0  0  0
   11.3331  -18.6812   25.8059 C   0  0  0  0  0  0  0  0  0  0  0  0
   10.3742  -19.3440   26.2202 O   0  0  0  0  0  0  0  0  0  0  0  0
   12.3609  -17.1921   22.0128 C   0  0  0  0  0  0  0  0  0  0  0  0
   11.8883  -17.9919   21.1646 O   0  0  0  0  0  0  0  0  0  0  0  0
   12.3721  -18.3520   26.6750 O   0  0  0  0  0  0  0  0  0  0  0  0
   13.7378  -17.1961   22.1834 O   0  0  0  0  0  0  0  0  0  0  0  0
  2  1  1  1
  3  2  1  0
  4  2  1  0
  4  6  1  0
  4  5  1  1
  6  7  2  0
  9  8  1  1
  9 10  1  0
  9 11  1  0
 11 13  1  0
 11 12  1  1
 12  6  1  0
 13 14  2  0
 15 13  1  0
 15 16  1  0
 16 21  1  0
 16 17  1  1
 18 17  1  0
 19 18  1  0
 20 19  2  0
 21 22  2  0
 21 24  1  0
 23 19  1  0
M  END
$$$$
