VVE.pdb
     RDKit          3D

 24 23  0  0  1  0  0  0  0  0999 V2000
    6.0323  -15.9549   19.9069 C   0  0  0  0  0  0  0  0  0  0  0  0
    6.7198  -15.7901   21.2492 C   0  0  1  0  0  0  0  0  0  0  0  0
    7.7628  -16.8501   21.3978 C   0  0  0  0  0  0  0  0  0  0  0  0
    7.2765  -14.3852   21.4107 C   0  0  2  0  0  0  0  0  0  0  0  0
    8.1396  -14.0944   20.3090 N   0  0  0  0  0  0  0  0  0  0  0  0
    7.8815  -14.1714   22.7282 C   0  0  0  0  0  0  0  0  0  0  0  0
    9.1105  -14.3987   22.8667 O   0  0  0  0  0  0  0  0  0  0  0  0
    6.3897  -11.6007   25.7227 C   0  0  0  0  0  0  0  0  0  0  0  0
    6.7129  -12.9915   26.1619 C   0  0  2  0  0  0  0  0  0  0  0  0
    7.2778  -13.0112   27.5701 C   0  0  0  0  0  0  0  0  0  0  0  0
    7.7036  -13.6313   25.1833 C   0  0  2  0  0  0  0  0  0  0  0  0
    7.1557  -13.7196   23.8642 N   0  0  0  0  0  0  0  0  0  0  0  0
    7.9934  -15.0112   25.7075 C   0  0  0  0  0  0  0  0  0  0  0  0
    7.0929  -15.8722   25.8239 O   0  0  0  0  0  0  0  0  0  0  0  0
    9.3037  -15.3951   26.0930 N   0  0  0  0  0  0  0  0  0  0  0  0
    9.5625  -16.7296   26.6155 C   0  0  1  0  0  0  0  0  0  0  0  0
   10.4629  -17.4024   25.6392 C   0  0  0  0  0  0  0  0  0  0  0  0
   11.8256  -16.8341   25.4864 C   0  0  0  0  0  0  0  0  0  0  0  0
   12.6559  -17.4407   24.4376 C   0  0  0  0  0  0  0  0  0  0  0  0
   13.7766  -16.9911   24.1688 O   0  0  0  0  0  0  0  0  0  0  0  0
   10.1232  -16.6718   27.9875 C   0  0  0  0  0  0  0  0  0  0  0  0
   10.4723  -15.6063   28.5579 O   0  0  0  0  0  0  0  0  0  0  0  0
   12.1672  -18.5419   23.7363 O   0  0  0  0  0  0  0  0  0  0  0  0
   10.2809  -17.8501   28.7029 O   0  0  0  0  0  0  0  0  0  0  0  0
  2  1  1  6
  3  2  1  0
  4  2  1  0
  4  6  1  0
  4  5  1  6
  6  7  2  0
  9  8  1  6
  9 10  1  0
  9 11  1  0
 11 13  1  0
 11 12  1  6
 12  6  1  0
 13 14  2  0
 15 13  1  0
 15 16  1  0
 16 21  1  0
 16 17  1  6
 18 17  1  0
 19 18  1  0
 20 19  2  0
 21 22  2  0
 21 24  1  0
 23 19  1  0
M  END
$$$$
