VVE.pdb
     RDKit          3D

 24 23  0  0  1  0  0  0  0  0999 V2000
    8.2469  -11.7586   25.6498 C   0  0  0  0  0  0  0  0  0  0  0  0
    7.3200  -12.4335   26.6433 C   0  0  1  0  0  0  0  0  0  0  0  0
    6.6698  -11.3896   27.4925 C   0  0  0  0  0  0  0  0  0  0  0  0
    6.3173  -13.3297   25.9356 C   0  0  2  0  0  0  0  0  0  0  0  0
    5.4725  -13.9471   26.9096 N   0  0  0  0  0  0  0  0  0  0  0  0
    6.9601  -14.2660   25.0095 C   0  0  0  0  0  0  0  0  0  0  0  0
    7.6139  -15.2277   25.4880 O   0  0  0  0  0  0  0  0  0  0  0  0
    8.0008  -15.5646   20.3048 C   0  0  0  0  0  0  0  0  0  0  0  0
    7.3967  -14.5621   21.2332 C   0  0  2  0  0  0  0  0  0  0  0  0
    8.0450  -13.1993   21.0758 C   0  0  0  0  0  0  0  0  0  0  0  0
    7.5253  -15.0473   22.6812 C   0  0  2  0  0  0  0  0  0  0  0  0
    6.8870  -14.1492   23.5944 N   0  0  0  0  0  0  0  0  0  0  0  0
    8.9978  -15.1165   22.9808 C   0  0  0  0  0  0  0  0  0  0  0  0
    9.6799  -14.0839   23.1652 O   0  0  0  0  0  0  0  0  0  0  0  0
    9.6766  -16.3593   23.0672 N   0  0  0  0  0  0  0  0  0  0  0  0
   11.0881  -16.4109   23.4223 C   0  0  1  0  0  0  0  0  0  0  0  0
   11.2569  -17.5791   24.3297 C   0  0  0  0  0  0  0  0  0  0  0  0
   10.5394  -17.5252   25.6279 C   0  0  0  0  0  0  0  0  0  0  0  0
   10.6730  -18.7136   26.4807 C   0  0  0  0  0  0  0  0  0  0  0  0
   11.3219  -19.6987   26.1081 O   0  0  0  0  0  0  0  0  0  0  0  0
   11.9457  -16.4778   22.2139 C   0  0  0  0  0  0  0  0  0  0  0  0
   11.5178  -16.7605   21.0653 O   0  0  0  0  0  0  0  0  0  0  0  0
   10.0555  -18.7257   27.7304 O   0  0  0  0  0  0  0  0  0  0  0  0
   13.3031  -16.2168   22.3338 O   0  0  0  0  0  0  0  0  0  0  0  0
  2  1  1  6
  3  2  1  0
  4  2  1  0
  4  6  1  0
  4  5  1  1
  6  7  2  0
  9  8  1  6
  9 10  1  0
  9 11  1  0
 11 13  1  0
 11 12  1  1
 12  6  1  0
 13 14  2  0
 15 13  1  0
 15 16  1  0
 16 21  1  0
 16 17  1  1
 18 17  1  0
 19 18  1  0
 20 19  2  0
 21 22  2  0
 21 24  1  0
 23 19  1  0
M  END
$$$$
