HGF.pdb
     RDKit          3D

 26 27  0  0  1  0  0  0  0  0999 V2000
   23.6342  -13.5530  -20.2259 N   0  0  0  0  0  0  0  0  0  0  0  0
   24.1170  -12.9171  -21.4375 C   0  0  1  0  0  0  0  0  0  0  0  0
   23.1848  -13.1815  -22.6011 C   0  0  0  0  0  0  0  0  0  0  0  0
   23.2015  -14.6106  -22.9153 C   0  0  0  0  0  0  0  0  0  0  0  0
   24.2488  -15.3402  -23.4146 C   0  0  0  0  0  0  0  0  0  0  0  0
   23.7831  -16.6119  -23.5340 N   0  0  0  0  0  0  0  0  0  0  0  0
   22.5043  -16.6424  -23.1218 C   0  0  0  0  0  0  0  0  0  0  0  0
   22.1148  -15.4134  -22.7312 N   0  0  0  0  0  0  0  0  0  0  0  0
   24.0659  -11.4445  -21.2121 C   0  0  0  0  0  0  0  0  0  0  0  0
   24.5203  -10.7095  -22.1263 O   0  0  0  0  0  0  0  0  0  0  0  0
   23.5305  -10.8891  -20.0230 N   0  0  0  0  0  0  0  0  0  0  0  0
   23.4649   -9.4751  -19.8545 C   0  0  0  0  0  0  0  0  0  0  0  0
   23.2556   -9.0892  -18.4188 C   0  0  0  0  0  0  0  0  0  0  0  0
   22.6230   -9.8375  -17.6251 O   0  0  0  0  0  0  0  0  0  0  0  0
   23.7629   -7.8681  -17.9029 N   0  0  0  0  0  0  0  0  0  0  0  0
   23.5661   -7.4053  -16.5688 C   0  0  1  0  0  0  0  0  0  0  0  0
   24.8619   -7.2981  -15.7863 C   0  0  0  0  0  0  0  0  0  0  0  0
   25.6493   -8.5422  -15.8789 C   0  0  0  0  0  0  0  0  0  0  0  0
   25.4752   -9.6128  -15.0401 C   0  0  0  0  0  0  0  0  0  0  0  0
   26.2433  -10.7586  -15.1775 C   0  0  0  0  0  0  0  0  0  0  0  0
   27.1991  -10.8402  -16.1648 C   0  0  0  0  0  0  0  0  0  0  0  0
   27.3870   -9.7755  -17.0149 C   0  0  0  0  0  0  0  0  0  0  0  0
   26.6099   -8.6435  -16.8592 C   0  0  0  0  0  0  0  0  0  0  0  0
   22.7765   -6.1554  -16.4909 C   0  0  0  0  0  0  0  0  0  0  0  0
   22.4638   -5.4366  -17.6491 O   0  0  0  0  0  0  0  0  0  0  0  0
   22.3546   -5.6833  -15.4066 O   0  0  0  0  0  0  0  0  0  0  0  0
  2  9  1  0
  2  1  1  1
  3  2  1  0
  4  8  1  0
  4  3  1  0
  5  4  2  0
  6  5  1  0
  6  7  1  0
  7  8  2  0
  9 11  1  0
 10  9  2  0
 11 12  1  0
 13 12  1  0
 13 14  2  0
 15 13  1  0
 16 15  1  0
 16 24  1  0
 16 17  1  6
 18 23  1  0
 18 17  1  0
 19 18  2  0
 20 21  2  0
 20 19  1  0
 21 22  1  0
 22 23  2  0
 24 26  2  0
 24 25  1  0
M  END
$$$$
