HGF.pdb
     RDKit          3D

 26 27  0  0  1  0  0  0  0  0999 V2000
   19.1247  -11.6792  -17.1137 N   0  0  0  0  0  0  0  0  0  0  0  0
   20.3687  -11.0201  -17.4654 C   0  0  1  0  0  0  0  0  0  0  0  0
   20.2083  -10.1850  -18.7184 C   0  0  0  0  0  0  0  0  0  0  0  0
   19.8905  -11.0639  -19.8444 C   0  0  0  0  0  0  0  0  0  0  0  0
   20.7648  -11.8160  -20.5850 C   0  0  0  0  0  0  0  0  0  0  0  0
   20.0012  -12.4595  -21.5075 N   0  0  0  0  0  0  0  0  0  0  0  0
   18.7176  -12.1056  -21.3263 C   0  0  0  0  0  0  0  0  0  0  0  0
   18.6171  -11.2392  -20.2996 N   0  0  0  0  0  0  0  0  0  0  0  0
   20.6759  -10.0499  -16.3762 C   0  0  0  0  0  0  0  0  0  0  0  0
   19.6979   -9.5354  -15.7754 O   0  0  0  0  0  0  0  0  0  0  0  0
   22.0086   -9.7168  -16.0268 N   0  0  0  0  0  0  0  0  0  0  0  0
   22.2679   -8.8173  -14.9517 C   0  0  0  0  0  0  0  0  0  0  0  0
   22.4670   -7.4091  -15.4326 C   0  0  0  0  0  0  0  0  0  0  0  0
   23.0897   -7.1639  -16.5013 O   0  0  0  0  0  0  0  0  0  0  0  0
   21.9606   -6.3027  -14.7017 N   0  0  0  0  0  0  0  0  0  0  0  0
   22.0078   -4.9476  -15.1420 C   0  0  1  0  0  0  0  0  0  0  0  0
   21.4455   -4.7632  -16.5395 C   0  0  0  0  0  0  0  0  0  0  0  0
   19.9904   -5.0042  -16.5686 C   0  0  0  0  0  0  0  0  0  0  0  0
   19.4219   -6.1463  -17.0712 C   0  0  0  0  0  0  0  0  0  0  0  0
   18.0463   -6.3188  -17.0687 C   0  0  0  0  0  0  0  0  0  0  0  0
   17.2242   -5.3398  -16.5580 C   0  0  0  0  0  0  0  0  0  0  0  0
   17.7777   -4.1880  -16.0499 C   0  0  0  0  0  0  0  0  0  0  0  0
   19.1514   -4.0377  -16.0629 C   0  0  0  0  0  0  0  0  0  0  0  0
   21.4049   -3.9961  -14.1814 C   0  0  0  0  0  0  0  0  0  0  0  0
   21.5613   -2.6168  -14.3509 O   0  0  0  0  0  0  0  0  0  0  0  0
   20.7360   -4.3666  -13.1853 O   0  0  0  0  0  0  0  0  0  0  0  0
  2  9  1  0
  2  1  1  1
  3  2  1  0
  4  8  1  0
  4  3  1  0
  5  4  2  0
  6  5  1  0
  6  7  1  0
  7  8  2  0
  9 11  1  0
 10  9  2  0
 11 12  1  0
 13 12  1  0
 13 14  2  0
 15 13  1  0
 16 15  1  0
 16 24  1  0
 16 17  1  6
 18 23  1  0
 18 17  1  0
 19 18  2  0
 20 21  2  0
 20 19  1  0
 21 22  1  0
 22 23  2  0
 24 26  2  0
 24 25  1  0
M  END
$$$$
