HGF.pdb
     RDKit          3D

 26 27  0  0  1  0  0  0  0  0999 V2000
   26.0963  -22.1214  -15.1245 N   0  0  0  0  0  0  0  0  0  0  0  0
   27.2456  -21.2436  -15.0056 C   0  0  1  0  0  0  0  0  0  0  0  0
   27.2265  -20.1719  -16.0752 C   0  0  0  0  0  0  0  0  0  0  0  0
   27.4727  -20.7893  -17.3788 C   0  0  0  0  0  0  0  0  0  0  0  0
   28.5099  -21.6156  -17.7252 C   0  0  0  0  0  0  0  0  0  0  0  0
   28.3046  -21.9304  -19.0317 N   0  0  0  0  0  0  0  0  0  0  0  0
   27.1862  -21.3152  -19.4521 C   0  0  0  0  0  0  0  0  0  0  0  0
   26.6468  -20.5986  -18.4469 N   0  0  0  0  0  0  0  0  0  0  0  0
   27.1125  -20.5173  -13.7108 C   0  0  0  0  0  0  0  0  0  0  0  0
   26.2125  -19.6417  -13.6356 O   0  0  0  0  0  0  0  0  0  0  0  0
   27.9588  -20.7952  -12.6082 N   0  0  0  0  0  0  0  0  0  0  0  0
   27.8550  -20.0300  -11.4098 C   0  0  0  0  0  0  0  0  0  0  0  0
   26.9920  -20.7063  -10.3842 C   0  0  0  0  0  0  0  0  0  0  0  0
   26.5937  -21.8922  -10.5427 O   0  0  0  0  0  0  0  0  0  0  0  0
   26.5938  -20.0352   -9.1986 N   0  0  0  0  0  0  0  0  0  0  0  0
   25.7478  -20.5915   -8.1949 C   0  0  1  0  0  0  0  0  0  0  0  0
   25.8068  -19.8263   -6.8856 C   0  0  0  0  0  0  0  0  0  0  0  0
   27.1870  -19.7505   -6.3701 C   0  0  0  0  0  0  0  0  0  0  0  0
   28.0187  -18.6821   -6.5869 C   0  0  0  0  0  0  0  0  0  0  0  0
   29.3064  -18.6652   -6.0737 C   0  0  0  0  0  0  0  0  0  0  0  0
   29.7734  -19.7278   -5.3335 C   0  0  0  0  0  0  0  0  0  0  0  0
   28.9526  -20.8076   -5.1065 C   0  0  0  0  0  0  0  0  0  0  0  0
   27.6728  -20.8026   -5.6279 C   0  0  0  0  0  0  0  0  0  0  0  0
   24.3525  -20.7920   -8.6473 C   0  0  0  0  0  0  0  0  0  0  0  0
   23.9004  -20.2177   -9.8396 O   0  0  0  0  0  0  0  0  0  0  0  0
   23.5184  -21.4723   -8.0007 O   0  0  0  0  0  0  0  0  0  0  0  0
  2  9  1  0
  2  1  1  6
  3  2  1  0
  4  8  1  0
  4  3  1  0
  5  4  2  0
  6  5  1  0
  6  7  1  0
  7  8  2  0
  9 11  1  0
 10  9  2  0
 11 12  1  0
 13 12  1  0
 13 14  2  0
 15 13  1  0
 16 15  1  0
 16 24  1  0
 16 17  1  1
 18 23  1  0
 18 17  1  0
 19 18  2  0
 20 21  2  0
 20 19  1  0
 21 22  1  0
 22 23  2  0
 24 26  2  0
 24 25  1  0
M  END
$$$$
