HGF.pdb
     RDKit          3D

 26 27  0  0  1  0  0  0  0  0999 V2000
   22.4594  -20.3857  -14.4852 N   0  0  0  0  0  0  0  0  0  0  0  0
   22.8060  -20.4766  -13.0791 C   0  0  1  0  0  0  0  0  0  0  0  0
   22.0978  -21.6396  -12.4167 C   0  0  0  0  0  0  0  0  0  0  0  0
   20.6963  -21.2841  -12.1919 C   0  0  0  0  0  0  0  0  0  0  0  0
   20.1428  -20.7642  -11.0509 C   0  0  0  0  0  0  0  0  0  0  0  0
   18.8217  -20.6018  -11.3278 N   0  0  0  0  0  0  0  0  0  0  0  0
   18.5927  -21.0096  -12.5875 C   0  0  0  0  0  0  0  0  0  0  0  0
   19.7389  -21.4390  -13.1504 N   0  0  0  0  0  0  0  0  0  0  0  0
   24.2593  -20.7994  -13.0040 C   0  0  0  0  0  0  0  0  0  0  0  0
   24.7178  -21.5807  -13.8768 O   0  0  0  0  0  0  0  0  0  0  0  0
   25.0944  -20.2542  -11.9968 N   0  0  0  0  0  0  0  0  0  0  0  0
   26.3312  -20.8826  -11.6686 C   0  0  0  0  0  0  0  0  0  0  0  0
   26.4551  -21.1444  -10.1955 C   0  0  0  0  0  0  0  0  0  0  0  0
   25.5778  -21.8005   -9.5709 O   0  0  0  0  0  0  0  0  0  0  0  0
   27.5647  -20.6633   -9.4527 N   0  0  0  0  0  0  0  0  0  0  0  0
   27.7029  -20.7690   -8.0376 C   0  0  1  0  0  0  0  0  0  0  0  0
   29.0977  -20.4162   -7.5549 C   0  0  0  0  0  0  0  0  0  0  0  0
   29.0919  -20.0348   -6.1297 C   0  0  0  0  0  0  0  0  0  0  0  0
   28.7356  -18.7892   -5.6807 C   0  0  0  0  0  0  0  0  0  0  0  0
   28.7458  -18.4894   -4.3272 C   0  0  0  0  0  0  0  0  0  0  0  0
   29.1161  -19.4437   -3.4068 C   0  0  0  0  0  0  0  0  0  0  0  0
   29.4765  -20.6982   -3.8399 C   0  0  0  0  0  0  0  0  0  0  0  0
   29.4590  -20.9746   -5.1938 C   0  0  0  0  0  0  0  0  0  0  0  0
   26.6627  -20.0282   -7.2887 C   0  0  0  0  0  0  0  0  0  0  0  0
   26.2673  -18.7495   -7.6939 O   0  0  0  0  0  0  0  0  0  0  0  0
   26.0921  -20.4962   -6.2727 O   0  0  0  0  0  0  0  0  0  0  0  0
  2  9  1  0
  2  1  1  6
  3  2  1  0
  4  8  1  0
  4  3  1  0
  5  4  2  0
  6  5  1  0
  6  7  1  0
  7  8  2  0
  9 11  1  0
 10  9  2  0
 11 12  1  0
 13 12  1  0
 13 14  2  0
 15 13  1  0
 16 15  1  0
 16 24  1  0
 16 17  1  1
 18 23  1  0
 18 17  1  0
 19 18  2  0
 20 21  2  0
 20 19  1  0
 21 22  1  0
 22 23  2  0
 24 26  2  0
 24 25  1  0
M  END
$$$$
