HGF.pdb
     RDKit          3D

 26 27  0  0  1  0  0  0  0  0999 V2000
   26.2691  -20.5155  -14.5575 N   0  0  0  0  0  0  0  0  0  0  0  0
   26.6657  -19.8510  -13.3300 C   0  0  1  0  0  0  0  0  0  0  0  0
   26.7531  -18.3519  -13.5249 C   0  0  0  0  0  0  0  0  0  0  0  0
   27.7532  -18.0582  -14.5520 C   0  0  0  0  0  0  0  0  0  0  0  0
   29.0011  -18.6104  -14.6799 C   0  0  0  0  0  0  0  0  0  0  0  0
   29.5474  -18.0260  -15.7791 N   0  0  0  0  0  0  0  0  0  0  0  0
   28.6598  -17.1561  -16.2902 C   0  0  0  0  0  0  0  0  0  0  0  0
   27.5348  -17.1541  -15.5491 N   0  0  0  0  0  0  0  0  0  0  0  0
   25.5698  -20.0615  -12.3417 C   0  0  0  0  0  0  0  0  0  0  0  0
   24.5821  -19.2854  -12.4084 O   0  0  0  0  0  0  0  0  0  0  0  0
   25.6305  -21.0886  -11.3668 N   0  0  0  0  0  0  0  0  0  0  0  0
   24.6222  -21.1903  -10.3641 C   0  0  0  0  0  0  0  0  0  0  0  0
   25.2056  -21.2163   -8.9810 C   0  0  0  0  0  0  0  0  0  0  0  0
   24.6736  -21.8916   -8.0585 O   0  0  0  0  0  0  0  0  0  0  0  0
   26.3777  -20.4821   -8.6621 N   0  0  0  0  0  0  0  0  0  0  0  0
   26.9779  -20.4304   -7.3699 C   0  0  1  0  0  0  0  0  0  0  0  0
   28.4636  -20.7388   -7.3987 C   0  0  0  0  0  0  0  0  0  0  0  0
   29.0945  -20.4619   -6.0942 C   0  0  0  0  0  0  0  0  0  0  0  0
   28.3908  -20.1007   -4.9742 C   0  0  0  0  0  0  0  0  0  0  0  0
   29.0386  -19.8561   -3.7731 C   0  0  0  0  0  0  0  0  0  0  0  0
   30.4074  -19.9730   -3.6855 C   0  0  0  0  0  0  0  0  0  0  0  0
   31.1288  -20.3342   -4.7993 C   0  0  0  0  0  0  0  0  0  0  0  0
   30.4619  -20.5730   -5.9859 C   0  0  0  0  0  0  0  0  0  0  0  0
   26.6956  -19.1733   -6.6407 C   0  0  0  0  0  0  0  0  0  0  0  0
   26.3829  -19.1948   -5.2778 O   0  0  0  0  0  0  0  0  0  0  0  0
   26.7207  -18.0458   -7.1928 O   0  0  0  0  0  0  0  0  0  0  0  0
  2  9  1  0
  2  1  1  6
  3  2  1  0
  4  8  1  0
  4  3  1  0
  5  4  2  0
  6  5  1  0
  6  7  1  0
  7  8  2  0
  9 11  1  0
 10  9  2  0
 11 12  1  0
 13 12  1  0
 13 14  2  0
 15 13  1  0
 16 15  1  0
 16 24  1  0
 16 17  1  6
 18 23  1  0
 18 17  1  0
 19 18  2  0
 20 21  2  0
 20 19  1  0
 21 22  1  0
 22 23  2  0
 24 26  2  0
 24 25  1  0
M  END
$$$$
