HGF.pdb
     RDKit          3D

 26 27  0  0  1  0  0  0  0  0999 V2000
   26.9919  -20.9218  -17.4015 N   0  0  0  0  0  0  0  0  0  0  0  0
   28.1739  -20.9246  -16.5599 C   0  0  1  0  0  0  0  0  0  0  0  0
   29.3132  -20.1741  -17.2169 C   0  0  0  0  0  0  0  0  0  0  0  0
   29.8020  -20.9465  -18.3595 C   0  0  0  0  0  0  0  0  0  0  0  0
   30.5505  -22.0943  -18.3286 C   0  0  0  0  0  0  0  0  0  0  0  0
   30.7513  -22.4339  -19.6295 N   0  0  0  0  0  0  0  0  0  0  0  0
   30.1459  -21.5231  -20.4105 C   0  0  0  0  0  0  0  0  0  0  0  0
   29.5472  -20.5863  -19.6497 N   0  0  0  0  0  0  0  0  0  0  0  0
   27.8412  -20.1488  -15.3313 C   0  0  0  0  0  0  0  0  0  0  0  0
   28.1714  -18.9351  -15.3139 O   0  0  0  0  0  0  0  0  0  0  0  0
   27.1820  -20.7450  -14.2272 N   0  0  0  0  0  0  0  0  0  0  0  0
   26.8182  -19.9586  -13.0952 C   0  0  0  0  0  0  0  0  0  0  0  0
   26.1199  -20.7738  -12.0455 C   0  0  0  0  0  0  0  0  0  0  0  0
   25.9119  -22.0072  -12.2051 O   0  0  0  0  0  0  0  0  0  0  0  0
   25.6694  -20.1855  -10.8349 N   0  0  0  0  0  0  0  0  0  0  0  0
   24.7989  -20.8171   -9.8990 C   0  0  1  0  0  0  0  0  0  0  0  0
   24.9433  -20.2619   -8.4940 C   0  0  0  0  0  0  0  0  0  0  0  0
   26.3623  -20.1063   -8.1217 C   0  0  0  0  0  0  0  0  0  0  0  0
   26.9157  -18.9151   -7.7282 C   0  0  0  0  0  0  0  0  0  0  0  0
   28.2565  -18.8301   -7.3862 C   0  0  0  0  0  0  0  0  0  0  0  0
   29.0586  -19.9477   -7.4366 C   0  0  0  0  0  0  0  0  0  0  0  0
   28.5199  -21.1506   -7.8293 C   0  0  0  0  0  0  0  0  0  0  0  0
   27.1809  -21.2117   -8.1656 C   0  0  0  0  0  0  0  0  0  0  0  0
   23.3841  -20.8387  -10.3344 C   0  0  0  0  0  0  0  0  0  0  0  0
   22.4478  -21.6418   -9.6754 O   0  0  0  0  0  0  0  0  0  0  0  0
   22.9573  -20.1537  -11.2964 O   0  0  0  0  0  0  0  0  0  0  0  0
  2  9  1  0
  2  1  1  6
  3  2  1  0
  4  8  1  0
  4  3  1  0
  5  4  2  0
  6  5  1  0
  6  7  1  0
  7  8  2  0
  9 11  1  0
 10  9  2  0
 11 12  1  0
 13 12  1  0
 13 14  2  0
 15 13  1  0
 16 15  1  0
 16 24  1  0
 16 17  1  1
 18 23  1  0
 18 17  1  0
 19 18  2  0
 20 21  2  0
 20 19  1  0
 21 22  1  0
 22 23  2  0
 24 26  2  0
 24 25  1  0
M  END
$$$$
