HGF.pdb
     RDKit          3D

 26 27  0  0  1  0  0  0  0  0999 V2000
   25.3860  -20.1297  -14.8004 N   0  0  0  0  0  0  0  0  0  0  0  0
   25.8552  -21.0598  -13.7903 C   0  0  1  0  0  0  0  0  0  0  0  0
   27.3361  -21.3340  -13.9469 C   0  0  0  0  0  0  0  0  0  0  0  0
   27.5629  -22.0449  -15.2057 C   0  0  0  0  0  0  0  0  0  0  0  0
   28.3496  -21.6475  -16.2553 C   0  0  0  0  0  0  0  0  0  0  0  0
   28.2429  -22.6337  -17.1849 N   0  0  0  0  0  0  0  0  0  0  0  0
   27.4224  -23.5861  -16.7097 C   0  0  0  0  0  0  0  0  0  0  0  0
   26.9841  -23.2483  -15.4815 N   0  0  0  0  0  0  0  0  0  0  0  0
   25.7122  -20.3840  -12.4694 C   0  0  0  0  0  0  0  0  0  0  0  0
   26.1211  -19.1973  -12.3864 O   0  0  0  0  0  0  0  0  0  0  0  0
   25.1418  -21.0426  -11.3514 N   0  0  0  0  0  0  0  0  0  0  0  0
   24.9759  -20.3514  -10.1157 C   0  0  0  0  0  0  0  0  0  0  0  0
   26.1183  -20.6011   -9.1742 C   0  0  0  0  0  0  0  0  0  0  0  0
   27.0171  -21.4434   -9.4439 O   0  0  0  0  0  0  0  0  0  0  0  0
   26.2281  -19.8974   -7.9464 N   0  0  0  0  0  0  0  0  0  0  0  0
   27.2478  -20.1141   -6.9739 C   0  0  1  0  0  0  0  0  0  0  0  0
   27.9208  -18.8281   -6.5307 C   0  0  0  0  0  0  0  0  0  0  0  0
   28.8848  -19.0747   -5.4415 C   0  0  0  0  0  0  0  0  0  0  0  0
   30.1127  -19.6539   -5.6337 C   0  0  0  0  0  0  0  0  0  0  0  0
   30.9793  -19.8574   -4.5708 C   0  0  0  0  0  0  0  0  0  0  0  0
   30.6183  -19.4787   -3.2976 C   0  0  0  0  0  0  0  0  0  0  0  0
   29.3903  -18.8964   -3.0869 C   0  0  0  0  0  0  0  0  0  0  0  0
   28.5428  -18.7034   -4.1612 C   0  0  0  0  0  0  0  0  0  0  0  0
   26.7951  -20.9197   -5.8172 C   0  0  0  0  0  0  0  0  0  0  0  0
   27.6709  -21.8022   -5.1769 O   0  0  0  0  0  0  0  0  0  0  0  0
   25.6278  -20.8565   -5.3588 O   0  0  0  0  0  0  0  0  0  0  0  0
  2  9  1  0
  2  1  1  6
  3  2  1  0
  4  8  1  0
  4  3  1  0
  5  4  2  0
  6  5  1  0
  6  7  1  0
  7  8  2  0
  9 11  1  0
 10  9  2  0
 11 12  1  0
 13 12  1  0
 13 14  2  0
 15 13  1  0
 16 15  1  0
 16 24  1  0
 16 17  1  1
 18 23  1  0
 18 17  1  0
 19 18  2  0
 20 21  2  0
 20 19  1  0
 21 22  1  0
 22 23  2  0
 24 26  2  0
 24 25  1  0
M  END
$$$$
