HGF.pdb
     RDKit          3D

 26 27  0  0  1  0  0  0  0  0999 V2000
   26.7683  -16.5823  -18.1608 N   0  0  0  0  0  0  0  0  0  0  0  0
   26.1701  -15.2789  -17.9399 C   0  0  1  0  0  0  0  0  0  0  0  0
   25.5475  -14.7418  -19.2115 C   0  0  0  0  0  0  0  0  0  0  0  0
   26.5987  -14.5200  -20.2050 C   0  0  0  0  0  0  0  0  0  0  0  0
   27.9507  -14.4634  -19.9869 C   0  0  0  0  0  0  0  0  0  0  0  0
   28.5079  -14.2431  -21.2072 N   0  0  0  0  0  0  0  0  0  0  0  0
   27.5261  -14.1702  -22.1219 C   0  0  0  0  0  0  0  0  0  0  0  0
   26.3282  -14.3386  -21.5291 N   0  0  0  0  0  0  0  0  0  0  0  0
   25.0367  -15.4700  -16.9907 C   0  0  0  0  0  0  0  0  0  0  0  0
   24.3854  -14.4448  -16.6633 O   0  0  0  0  0  0  0  0  0  0  0  0
   24.7013  -16.7471  -16.4755 N   0  0  0  0  0  0  0  0  0  0  0  0
   23.6505  -16.8859  -15.5222 C   0  0  0  0  0  0  0  0  0  0  0  0
   22.3230  -17.1283  -16.1803 C   0  0  0  0  0  0  0  0  0  0  0  0
   22.2097  -17.1550  -17.4359 O   0  0  0  0  0  0  0  0  0  0  0  0
   21.1475  -17.3368  -15.4126 N   0  0  0  0  0  0  0  0  0  0  0  0
   19.8599  -17.6160  -15.9573 C   0  0  1  0  0  0  0  0  0  0  0  0
   19.6951  -19.0692  -16.3624 C   0  0  0  0  0  0  0  0  0  0  0  0
   19.7725  -19.9645  -15.1924 C   0  0  0  0  0  0  0  0  0  0  0  0
   20.9341  -20.5561  -14.7670 C   0  0  0  0  0  0  0  0  0  0  0  0
   20.9464  -21.3865  -13.6570 C   0  0  0  0  0  0  0  0  0  0  0  0
   19.7850  -21.6318  -12.9598 C   0  0  0  0  0  0  0  0  0  0  0  0
   18.6110  -21.0466  -13.3727 C   0  0  0  0  0  0  0  0  0  0  0  0
   18.6224  -20.2225  -14.4820 C   0  0  0  0  0  0  0  0  0  0  0  0
   18.7458  -17.1601  -15.0956 C   0  0  0  0  0  0  0  0  0  0  0  0
   17.4403  -17.0959  -15.5930 O   0  0  0  0  0  0  0  0  0  0  0  0
   18.9080  -16.8140  -13.8995 O   0  0  0  0  0  0  0  0  0  0  0  0
  2  9  1  0
  2  1  1  6
  3  2  1  0
  4  8  1  0
  4  3  1  0
  5  4  2  0
  6  5  1  0
  6  7  1  0
  7  8  2  0
  9 11  1  0
 10  9  2  0
 11 12  1  0
 13 12  1  0
 13 14  2  0
 15 13  1  0
 16 15  1  0
 16 24  1  0
 16 17  1  1
 18 23  1  0
 18 17  1  0
 19 18  2  0
 20 21  2  0
 20 19  1  0
 21 22  1  0
 22 23  2  0
 24 26  2  0
 24 25  1  0
M  END
$$$$
