HGF.pdb
     RDKit          3D

 26 27  0  0  1  0  0  0  0  0999 V2000
   31.3041  -32.8561  -17.1111 N   0  0  0  0  0  0  0  0  0  0  0  0
   30.5314  -32.2175  -18.1602 C   0  0  1  0  0  0  0  0  0  0  0  0
   30.1995  -33.1970  -19.2663 C   0  0  0  0  0  0  0  0  0  0  0  0
   31.4341  -33.5920  -19.9451 C   0  0  0  0  0  0  0  0  0  0  0  0
   32.1094  -34.7782  -19.8197 C   0  0  0  0  0  0  0  0  0  0  0  0
   33.1849  -34.6745  -20.6447 N   0  0  0  0  0  0  0  0  0  0  0  0
   33.1549  -33.4709  -21.2418 C   0  0  0  0  0  0  0  0  0  0  0  0
   32.0782  -32.7755  -20.8270 N   0  0  0  0  0  0  0  0  0  0  0  0
   29.2211  -31.8274  -17.5664 C   0  0  0  0  0  0  0  0  0  0  0  0
   28.9326  -32.3175  -16.4443 O   0  0  0  0  0  0  0  0  0  0  0  0
   28.3337  -30.9437  -18.2303 N   0  0  0  0  0  0  0  0  0  0  0  0
   27.1078  -30.5567  -17.6143 C   0  0  0  0  0  0  0  0  0  0  0  0
   26.3048  -29.6378  -18.4888 C   0  0  0  0  0  0  0  0  0  0  0  0
   26.7710  -29.1915  -19.5721 O   0  0  0  0  0  0  0  0  0  0  0  0
   24.9913  -29.2389  -18.1280 N   0  0  0  0  0  0  0  0  0  0  0  0
   24.2001  -28.2985  -18.8508 C   0  0  1  0  0  0  0  0  0  0  0  0
   23.0815  -28.9541  -19.6394 C   0  0  0  0  0  0  0  0  0  0  0  0
   23.6146  -29.8289  -20.7010 C   0  0  0  0  0  0  0  0  0  0  0  0
   23.8890  -31.1600  -20.5186 C   0  0  0  0  0  0  0  0  0  0  0  0
   24.3860  -31.9342  -21.5556 C   0  0  0  0  0  0  0  0  0  0  0  0
   24.6132  -31.3752  -22.7929 C   0  0  0  0  0  0  0  0  0  0  0  0
   24.3435  -30.0416  -22.9933 C   0  0  0  0  0  0  0  0  0  0  0  0
   23.8487  -29.2892  -21.9451 C   0  0  0  0  0  0  0  0  0  0  0  0
   23.6978  -27.1862  -18.0129 C   0  0  0  0  0  0  0  0  0  0  0  0
   23.0984  -26.0668  -18.5990 O   0  0  0  0  0  0  0  0  0  0  0  0
   23.7805  -27.1866  -16.7599 O   0  0  0  0  0  0  0  0  0  0  0  0
  2  9  1  0
  2  1  1  1
  3  2  1  0
  4  8  1  0
  4  3  1  0
  5  4  2  0
  6  5  1  0
  6  7  1  0
  7  8  2  0
  9 11  1  0
 10  9  2  0
 11 12  1  0
 13 12  1  0
 13 14  2  0
 15 13  1  0
 16 15  1  0
 16 24  1  0
 16 17  1  1
 18 23  1  0
 18 17  1  0
 19 18  2  0
 20 21  2  0
 20 19  1  0
 21 22  1  0
 22 23  2  0
 24 26  2  0
 24 25  1  0
M  END
$$$$
