HGF.pdb
     RDKit          3D

 26 27  0  0  1  0  0  0  0  0999 V2000
   22.6467  -11.5453  -21.3867 N   0  0  0  0  0  0  0  0  0  0  0  0
   22.3524  -11.3257  -19.9829 C   0  0  1  0  0  0  0  0  0  0  0  0
   23.0157  -12.3750  -19.1158 C   0  0  0  0  0  0  0  0  0  0  0  0
   22.4950  -13.6946  -19.4748 C   0  0  0  0  0  0  0  0  0  0  0  0
   23.2103  -14.7833  -19.9008 C   0  0  0  0  0  0  0  0  0  0  0  0
   22.2927  -15.7655  -20.1045 N   0  0  0  0  0  0  0  0  0  0  0  0
   21.0733  -15.2827  -19.8117 C   0  0  0  0  0  0  0  0  0  0  0  0
   21.1668  -13.9980  -19.4173 N   0  0  0  0  0  0  0  0  0  0  0  0
   22.9849  -10.0320  -19.5977 C   0  0  0  0  0  0  0  0  0  0  0  0
   23.6763   -9.4501  -20.4728 O   0  0  0  0  0  0  0  0  0  0  0  0
   22.8195   -9.4755  -18.3047 N   0  0  0  0  0  0  0  0  0  0  0  0
   22.9871   -8.0753  -18.0964 C   0  0  0  0  0  0  0  0  0  0  0  0
   21.8826   -7.4950  -17.2614 C   0  0  0  0  0  0  0  0  0  0  0  0
   20.6712   -7.6686  -17.5656 O   0  0  0  0  0  0  0  0  0  0  0  0
   22.1622   -6.7305  -16.0986 N   0  0  0  0  0  0  0  0  0  0  0  0
   21.1831   -6.2910  -15.1601 C   0  0  1  0  0  0  0  0  0  0  0  0
   20.3114   -7.4220  -14.6462 C   0  0  0  0  0  0  0  0  0  0  0  0
   21.0741   -8.3321  -13.7707 C   0  0  0  0  0  0  0  0  0  0  0  0
   20.9591   -8.3417  -12.4044 C   0  0  0  0  0  0  0  0  0  0  0  0
   21.6999   -9.2234  -11.6326 C   0  0  0  0  0  0  0  0  0  0  0  0
   22.5683  -10.1090  -12.2298 C   0  0  0  0  0  0  0  0  0  0  0  0
   22.6961  -10.1128  -13.5991 C   0  0  0  0  0  0  0  0  0  0  0  0
   21.9477   -9.2250  -14.3483 C   0  0  0  0  0  0  0  0  0  0  0  0
   21.7499   -5.4915  -14.0505 C   0  0  0  0  0  0  0  0  0  0  0  0
   20.9121   -4.8767  -13.1146 O   0  0  0  0  0  0  0  0  0  0  0  0
   22.9845   -5.3254  -13.8926 O   0  0  0  0  0  0  0  0  0  0  0  0
  2  9  1  0
  2  1  1  6
  3  2  1  0
  4  8  1  0
  4  3  1  0
  5  4  2  0
  6  5  1  0
  6  7  1  0
  7  8  2  0
  9 11  1  0
 10  9  2  0
 11 12  1  0
 13 12  1  0
 13 14  2  0
 15 13  1  0
 16 15  1  0
 16 24  1  0
 16 17  1  1
 18 23  1  0
 18 17  1  0
 19 18  2  0
 20 21  2  0
 20 19  1  0
 21 22  1  0
 22 23  2  0
 24 26  2  0
 24 25  1  0
M  END
$$$$
