HGF.pdb
     RDKit          3D

 26 27  0  0  1  0  0  0  0  0999 V2000
   22.0982   -9.9772  -19.2697 N   0  0  0  0  0  0  0  0  0  0  0  0
   20.8732  -10.3643  -18.5949 C   0  0  1  0  0  0  0  0  0  0  0  0
   21.1682  -11.0163  -17.2604 C   0  0  0  0  0  0  0  0  0  0  0  0
   22.3775  -11.8314  -17.3804 C   0  0  0  0  0  0  0  0  0  0  0  0
   23.6553  -11.3943  -17.6144 C   0  0  0  0  0  0  0  0  0  0  0  0
   24.4252  -12.5145  -17.6379 N   0  0  0  0  0  0  0  0  0  0  0  0
   23.6377  -13.5826  -17.4261 C   0  0  0  0  0  0  0  0  0  0  0  0
   22.3595  -13.1897  -17.2624 N   0  0  0  0  0  0  0  0  0  0  0  0
   20.1339   -9.1110  -18.2718 C   0  0  0  0  0  0  0  0  0  0  0  0
   18.9495   -9.2336  -17.8660 O   0  0  0  0  0  0  0  0  0  0  0  0
   20.7318   -7.8336  -18.4127 N   0  0  0  0  0  0  0  0  0  0  0  0
   19.9987   -6.6553  -18.0867 C   0  0  0  0  0  0  0  0  0  0  0  0
   20.1625   -6.2725  -16.6442 C   0  0  0  0  0  0  0  0  0  0  0  0
   19.3855   -6.7176  -15.7563 O   0  0  0  0  0  0  0  0  0  0  0  0
   21.1984   -5.3962  -16.2278 N   0  0  0  0  0  0  0  0  0  0  0  0
   21.4079   -4.9655  -14.8849 C   0  0  1  0  0  0  0  0  0  0  0  0
   22.7585   -5.3868  -14.3360 C   0  0  0  0  0  0  0  0  0  0  0  0
   22.9854   -6.8328  -14.5203 C   0  0  0  0  0  0  0  0  0  0  0  0
   23.6707   -7.3623  -15.5834 C   0  0  0  0  0  0  0  0  0  0  0  0
   23.8559   -8.7311  -15.7019 C   0  0  0  0  0  0  0  0  0  0  0  0
   23.3515   -9.5857  -14.7479 C   0  0  0  0  0  0  0  0  0  0  0  0
   22.6616   -9.0716  -13.6751 C   0  0  0  0  0  0  0  0  0  0  0  0
   22.4891   -7.7039  -13.5776 C   0  0  0  0  0  0  0  0  0  0  0  0
   21.1658   -3.5184  -14.6874 C   0  0  0  0  0  0  0  0  0  0  0  0
   21.0952   -2.9769  -13.4000 O   0  0  0  0  0  0  0  0  0  0  0  0
   21.0141   -2.7171  -15.6421 O   0  0  0  0  0  0  0  0  0  0  0  0
  2  9  1  0
  2  1  1  1
  3  2  1  0
  4  8  1  0
  4  3  1  0
  5  4  2  0
  6  5  1  0
  6  7  1  0
  7  8  2  0
  9 11  1  0
 10  9  2  0
 11 12  1  0
 13 12  1  0
 13 14  2  0
 15 13  1  0
 16 15  1  0
 16 24  1  0
 16 17  1  6
 18 23  1  0
 18 17  1  0
 19 18  2  0
 20 21  2  0
 20 19  1  0
 21 22  1  0
 22 23  2  0
 24 26  2  0
 24 25  1  0
M  END
$$$$
