HHF.pdb
     RDKit          3D

 32 34  0  0  1  0  0  0  0  0999 V2000
   25.8828  -20.4427  -18.8145 N   0  0  0  0  0  0  0  0  0  0  0  0
   26.1117  -20.5073  -17.3822 C   0  0  1  0  0  0  0  0  0  0  0  0
   25.8587  -19.1659  -16.7291 C   0  0  0  0  0  0  0  0  0  0  0  0
   26.9680  -18.2176  -16.9813 C   0  0  0  0  0  0  0  0  0  0  0  0
   28.1059  -18.5170  -17.6944 C   0  0  0  0  0  0  0  0  0  0  0  0
   28.8822  -17.4396  -17.7230 N   0  0  0  0  0  0  0  0  0  0  0  0
   28.2464  -16.4781  -17.0408 C   0  0  0  0  0  0  0  0  0  0  0  0
   27.0866  -16.9442  -16.5895 N   0  0  0  0  0  0  0  0  0  0  0  0
   25.1883  -21.5157  -16.8202 C   0  0  0  0  0  0  0  0  0  0  0  0
   24.0664  -21.6499  -17.4157 O   0  0  0  0  0  0  0  0  0  0  0  0
   25.5129  -22.2998  -15.6837 N   0  0  0  0  0  0  0  0  0  0  0  0
   24.5584  -23.2399  -15.1433 C   0  0  1  0  0  0  0  0  0  0  0  0
   25.2878  -24.4204  -14.5250 C   0  0  0  0  0  0  0  0  0  0  0  0
   25.9491  -25.2619  -15.5668 C   0  0  0  0  0  0  0  0  0  0  0  0
   25.8565  -25.0397  -16.9218 C   0  0  0  0  0  0  0  0  0  0  0  0
   26.5811  -25.9992  -17.5190 N   0  0  0  0  0  0  0  0  0  0  0  0
   27.1200  -26.8081  -16.5919 C   0  0  0  0  0  0  0  0  0  0  0  0
   26.7225  -26.3418  -15.4020 N   0  0  0  0  0  0  0  0  0  0  0  0
   23.6743  -22.5813  -14.1325 C   0  0  0  0  0  0  0  0  0  0  0  0
   23.4186  -23.1510  -13.0460 O   0  0  0  0  0  0  0  0  0  0  0  0
   23.0990  -21.3047  -14.3611 N   0  0  0  0  0  0  0  0  0  0  0  0
   22.3728  -20.6033  -13.3033 C   0  0  1  0  0  0  0  0  0  0  0  0
   23.3089  -19.5200  -12.8212 C   0  0  0  0  0  0  0  0  0  0  0  0
   24.3955  -19.9887  -11.9611 C   0  0  0  0  0  0  0  0  0  0  0  0
   24.1733  -20.2560  -10.6373 C   0  0  0  0  0  0  0  0  0  0  0  0
   25.2109  -20.7067   -9.8409 C   0  0  0  0  0  0  0  0  0  0  0  0
   26.4562  -20.8897  -10.3548 C   0  0  0  0  0  0  0  0  0  0  0  0
   26.6748  -20.6225  -11.6754 C   0  0  0  0  0  0  0  0  0  0  0  0
   25.6514  -20.1725  -12.4838 C   0  0  0  0  0  0  0  0  0  0  0  0
   21.1416  -19.9862  -13.8452 C   0  0  0  0  0  0  0  0  0  0  0  0
   20.8475  -19.9770  -15.1980 O   0  0  0  0  0  0  0  0  0  0  0  0
   20.2816  -19.4251  -13.0844 O   0  0  0  0  0  0  0  0  0  0  0  0
  2  1  1  6
  3  4  1  0
  3  2  1  0
  4  5  2  0
  5  6  1  0
  7  6  1  0
  8  4  1  0
  8  7  2  0
  9  2  1  0
  9 10  2  0
 11  9  1  0
 12 11  1  0
 12 13  1  1
 13 14  1  0
 14 18  1  0
 14 15  2  0
 15 16  1  0
 17 16  1  0
 18 17  2  0
 19 12  1  0
 20 19  2  0
 21 19  1  0
 22 23  1  6
 22 21  1  0
 24 29  1  0
 24 23  1  0
 25 24  2  0
 26 27  2  0
 26 25  1  0
 27 28  1  0
 28 29  2  0
 30 22  1  0
 31 30  1  0
 32 30  2  0
M  END
$$$$
