HHF.pdb
     RDKit          3D

 32 34  0  0  1  0  0  0  0  0999 V2000
   28.4246  -24.0560  -18.1008 N   0  0  0  0  0  0  0  0  0  0  0  0
   27.3351  -24.4170  -17.2116 C   0  0  1  0  0  0  0  0  0  0  0  0
   27.8111  -25.3459  -16.1160 C   0  0  0  0  0  0  0  0  0  0  0  0
   27.9557  -26.7369  -16.6037 C   0  0  0  0  0  0  0  0  0  0  0  0
   29.1463  -27.4232  -16.6683 C   0  0  0  0  0  0  0  0  0  0  0  0
   28.9084  -28.6374  -17.1512 N   0  0  0  0  0  0  0  0  0  0  0  0
   27.5923  -28.7163  -17.3871 C   0  0  0  0  0  0  0  0  0  0  0  0
   27.0106  -27.5678  -17.0571 N   0  0  0  0  0  0  0  0  0  0  0  0
   26.8064  -23.1728  -16.6134 C   0  0  0  0  0  0  0  0  0  0  0  0
   27.6586  -22.2505  -16.3799 O   0  0  0  0  0  0  0  0  0  0  0  0
   25.4326  -22.9951  -16.3087 N   0  0  0  0  0  0  0  0  0  0  0  0
   24.9731  -21.7843  -15.6689 C   0  0  1  0  0  0  0  0  0  0  0  0
   23.6047  -21.4018  -16.2068 C   0  0  0  0  0  0  0  0  0  0  0  0
   23.0526  -20.2079  -15.4992 C   0  0  0  0  0  0  0  0  0  0  0  0
   23.4614  -18.9127  -15.7211 C   0  0  0  0  0  0  0  0  0  0  0  0
   22.7361  -18.1350  -14.9018 N   0  0  0  0  0  0  0  0  0  0  0  0
   21.8939  -18.8926  -14.1801 C   0  0  0  0  0  0  0  0  0  0  0  0
   22.1013  -20.1595  -14.5589 N   0  0  0  0  0  0  0  0  0  0  0  0
   24.9252  -21.9507  -14.1832 C   0  0  0  0  0  0  0  0  0  0  0  0
   25.2963  -23.0236  -13.6526 O   0  0  0  0  0  0  0  0  0  0  0  0
   24.4646  -20.9155  -13.3293 N   0  0  0  0  0  0  0  0  0  0  0  0
   24.5088  -21.0605  -11.8749 C   0  0  1  0  0  0  0  0  0  0  0  0
   25.8742  -20.5635  -11.4613 C   0  0  0  0  0  0  0  0  0  0  0  0
   26.0641  -20.4282  -10.0170 C   0  0  0  0  0  0  0  0  0  0  0  0
   26.0189  -19.1982   -9.4183 C   0  0  0  0  0  0  0  0  0  0  0  0
   26.1922  -19.0902   -8.0500 C   0  0  0  0  0  0  0  0  0  0  0  0
   26.4083  -20.1930   -7.2849 C   0  0  0  0  0  0  0  0  0  0  0  0
   26.4528  -21.4183   -7.8847 C   0  0  0  0  0  0  0  0  0  0  0  0
   26.2818  -21.5441   -9.2479 C   0  0  0  0  0  0  0  0  0  0  0  0
   23.4662  -20.2227  -11.2414 C   0  0  0  0  0  0  0  0  0  0  0  0
   22.7776  -20.6220  -10.1087 O   0  0  0  0  0  0  0  0  0  0  0  0
   23.1462  -19.0790  -11.7137 O   0  0  0  0  0  0  0  0  0  0  0  0
  2  1  1  6
  3  4  1  0
  3  2  1  0
  4  5  2  0
  5  6  1  0
  7  6  1  0
  8  4  1  0
  8  7  2  0
  9  2  1  0
  9 10  2  0
 11  9  1  0
 12 11  1  0
 12 13  1  6
 13 14  1  0
 14 18  1  0
 14 15  2  0
 15 16  1  0
 17 16  1  0
 18 17  2  0
 19 12  1  0
 20 19  2  0
 21 19  1  0
 22 23  1  1
 22 21  1  0
 24 29  1  0
 24 23  1  0
 25 24  2  0
 26 27  2  0
 26 25  1  0
 27 28  1  0
 28 29  2  0
 30 22  1  0
 31 30  1  0
 32 30  2  0
M  END
$$$$
