HHF.pdb
     RDKit          3D

 32 34  0  0  1  0  0  0  0  0999 V2000
   20.6333  -13.3486  -17.0024 N   0  0  0  0  0  0  0  0  0  0  0  0
   19.8656  -12.1362  -17.2235 C   0  0  1  0  0  0  0  0  0  0  0  0
   18.6076  -12.1271  -16.3826 C   0  0  0  0  0  0  0  0  0  0  0  0
   17.6318  -13.1391  -16.8486 C   0  0  0  0  0  0  0  0  0  0  0  0
   17.3954  -14.3427  -16.2253 C   0  0  0  0  0  0  0  0  0  0  0  0
   16.4638  -14.9970  -16.9096 N   0  0  0  0  0  0  0  0  0  0  0  0
   16.1185  -14.2212  -17.9455 C   0  0  0  0  0  0  0  0  0  0  0  0
   16.8230  -13.0947  -17.9131 N   0  0  0  0  0  0  0  0  0  0  0  0
   20.7180  -10.9860  -16.8548 C   0  0  0  0  0  0  0  0  0  0  0  0
   21.4328  -11.1246  -15.8054 O   0  0  0  0  0  0  0  0  0  0  0  0
   20.7533   -9.7872  -17.6122 N   0  0  0  0  0  0  0  0  0  0  0  0
   21.5723   -8.6752  -17.1889 C   0  0  1  0  0  0  0  0  0  0  0  0
   21.8691   -7.7707  -18.3729 C   0  0  0  0  0  0  0  0  0  0  0  0
   22.7195   -6.6092  -17.9748 C   0  0  0  0  0  0  0  0  0  0  0  0
   22.3087   -5.2961  -18.0060 C   0  0  0  0  0  0  0  0  0  0  0  0
   23.3458   -4.5586  -17.5784 N   0  0  0  0  0  0  0  0  0  0  0  0
   24.3837   -5.3585  -17.2829 C   0  0  0  0  0  0  0  0  0  0  0  0
   23.9824   -6.6109  -17.5316 N   0  0  0  0  0  0  0  0  0  0  0  0
   20.9030   -7.9052  -16.0951 C   0  0  0  0  0  0  0  0  0  0  0  0
   19.6695   -7.6876  -16.1353 O   0  0  0  0  0  0  0  0  0  0  0  0
   21.6279   -7.3985  -14.9857 N   0  0  0  0  0  0  0  0  0  0  0  0
   20.9662   -6.6079  -13.9486 C   0  0  1  0  0  0  0  0  0  0  0  0
   21.2688   -7.3145  -12.6481 C   0  0  0  0  0  0  0  0  0  0  0  0
   20.6704   -6.6985  -11.4637 C   0  0  0  0  0  0  0  0  0  0  0  0
   19.4037   -7.0321  -11.0669 C   0  0  0  0  0  0  0  0  0  0  0  0
   18.8571   -6.4457   -9.9393 C   0  0  0  0  0  0  0  0  0  0  0  0
   19.5621   -5.5373   -9.2139 C   0  0  0  0  0  0  0  0  0  0  0  0
   20.8251   -5.2067   -9.6120 C   0  0  0  0  0  0  0  0  0  0  0  0
   21.3855   -5.7819  -10.7338 C   0  0  0  0  0  0  0  0  0  0  0  0
   21.5267   -5.2388  -13.9081 C   0  0  0  0  0  0  0  0  0  0  0  0
   20.7447   -4.1217  -13.6685 O   0  0  0  0  0  0  0  0  0  0  0  0
   22.7715   -5.0177  -14.0950 O   0  0  0  0  0  0  0  0  0  0  0  0
  2  1  1  1
  3  4  1  0
  3  2  1  0
  4  5  2  0
  5  6  1  0
  7  6  1  0
  8  4  1  0
  8  7  2  0
  9  2  1  0
  9 10  2  0
 11  9  1  0
 12 11  1  0
 12 13  1  6
 13 14  1  0
 14 18  1  0
 14 15  2  0
 15 16  1  0
 17 16  1  0
 18 17  2  0
 19 12  1  0
 20 19  2  0
 21 19  1  0
 22 23  1  1
 22 21  1  0
 24 29  1  0
 24 23  1  0
 25 24  2  0
 26 27  2  0
 26 25  1  0
 27 28  1  0
 28 29  2  0
 30 22  1  0
 31 30  1  0
 32 30  2  0
M  END
$$$$
