HHF.pdb
     RDKit          3D

 32 34  0  0  1  0  0  0  0  0999 V2000
   22.3695  -11.8212  -18.7957 N   0  0  0  0  0  0  0  0  0  0  0  0
   21.2610  -11.0799  -18.2214 C   0  0  1  0  0  0  0  0  0  0  0  0
   21.0390  -11.4655  -16.7751 C   0  0  0  0  0  0  0  0  0  0  0  0
   20.4808  -12.8319  -16.6535 C   0  0  0  0  0  0  0  0  0  0  0  0
   21.1834  -13.9266  -16.2053 C   0  0  0  0  0  0  0  0  0  0  0  0
   20.3780  -14.9827  -16.2254 N   0  0  0  0  0  0  0  0  0  0  0  0
   19.1893  -14.5626  -16.6779 C   0  0  0  0  0  0  0  0  0  0  0  0
   19.2463  -13.2607  -16.9386 N   0  0  0  0  0  0  0  0  0  0  0  0
   21.5849   -9.6401  -18.3078 C   0  0  0  0  0  0  0  0  0  0  0  0
   22.7819   -9.3103  -18.0083 O   0  0  0  0  0  0  0  0  0  0  0  0
   20.6325   -8.6647  -18.6995 N   0  0  0  0  0  0  0  0  0  0  0  0
   20.9951   -7.2678  -18.7614 C   0  0  1  0  0  0  0  0  0  0  0  0
   20.1489   -6.5592  -19.8054 C   0  0  0  0  0  0  0  0  0  0  0  0
   20.6031   -5.1518  -20.0147 C   0  0  0  0  0  0  0  0  0  0  0  0
   21.7784   -4.6312  -19.5231 C   0  0  0  0  0  0  0  0  0  0  0  0
   21.8270   -3.3497  -19.9202 N   0  0  0  0  0  0  0  0  0  0  0  0
   20.7313   -3.0523  -20.6378 C   0  0  0  0  0  0  0  0  0  0  0  0
   19.9928   -4.1676  -20.6856 N   0  0  0  0  0  0  0  0  0  0  0  0
   20.8352   -6.6152  -17.4251 C   0  0  0  0  0  0  0  0  0  0  0  0
   19.8169   -6.8359  -16.7289 O   0  0  0  0  0  0  0  0  0  0  0  0
   21.8159   -5.7338  -16.9013 N   0  0  0  0  0  0  0  0  0  0  0  0
   21.6308   -5.0825  -15.6052 C   0  0  1  0  0  0  0  0  0  0  0  0
   22.8333   -5.4771  -14.7802 C   0  0  0  0  0  0  0  0  0  0  0  0
   22.8744   -6.8878  -14.3948 C   0  0  0  0  0  0  0  0  0  0  0  0
   23.7632   -7.7471  -14.9820 C   0  0  0  0  0  0  0  0  0  0  0  0
   23.7937   -9.0762  -14.5989 C   0  0  0  0  0  0  0  0  0  0  0  0
   22.9497   -9.5461  -13.6423 C   0  0  0  0  0  0  0  0  0  0  0  0
   22.0644   -8.6868  -13.0584 C   0  0  0  0  0  0  0  0  0  0  0  0
   22.0207   -7.3584  -13.4283 C   0  0  0  0  0  0  0  0  0  0  0  0
   21.6045   -3.6116  -15.7666 C   0  0  0  0  0  0  0  0  0  0  0  0
   21.0015   -2.7729  -14.8449 O   0  0  0  0  0  0  0  0  0  0  0  0
   22.1412   -3.0377  -16.7745 O   0  0  0  0  0  0  0  0  0  0  0  0
  2  1  1  1
  3  4  1  0
  3  2  1  0
  4  5  2  0
  5  6  1  0
  7  6  1  0
  8  4  1  0
  8  7  2  0
  9  2  1  0
  9 10  2  0
 11  9  1  0
 12 11  1  0
 12 13  1  6
 13 14  1  0
 14 18  1  0
 14 15  2  0
 15 16  1  0
 17 16  1  0
 18 17  2  0
 19 12  1  0
 20 19  2  0
 21 19  1  0
 22 23  1  1
 22 21  1  0
 24 29  1  0
 24 23  1  0
 25 24  2  0
 26 27  2  0
 26 25  1  0
 27 28  1  0
 28 29  2  0
 30 22  1  0
 31 30  1  0
 32 30  2  0
M  END
$$$$
