MWL.pdb
     RDKit          3D

 31 32  0  0  1  0  0  0  0  0999 V2000
    7.7846  -11.6736   20.0316 C   0  0  0  0  0  0  0  0  0  0  0  0
    6.7786  -12.9616   19.2525 S   0  0  0  0  0  0  0  0  0  0  0  0
    7.5186  -14.5788   19.5789 C   0  0  0  0  0  0  0  0  0  0  0  0
    8.1790  -14.5468   20.9437 C   0  0  0  0  0  0  0  0  0  0  0  0
    8.8411  -15.8977   21.2191 C   0  0  2  0  0  0  0  0  0  0  0  0
    7.7653  -16.8744   21.1663 N   0  0  0  0  0  0  0  0  0  0  0  0
    9.4861  -15.9048   22.5557 C   0  0  0  0  0  0  0  0  0  0  0  0
   10.4661  -15.1801   22.8257 O   0  0  0  0  0  0  0  0  0  0  0  0
    9.0056  -16.7525   23.6040 N   0  0  0  0  0  0  0  0  0  0  0  0
    9.5750  -16.7272   24.9317 C   0  0  1  0  0  0  0  0  0  0  0  0
    8.5542  -16.5867   26.0156 C   0  0  0  0  0  0  0  0  0  0  0  0
    7.4787  -15.6291   25.7869 C   0  0  0  0  0  0  0  0  0  0  0  0
    6.1870  -15.7660   25.3392 C   0  0  0  0  0  0  0  0  0  0  0  0
    5.6357  -14.5473   25.3328 N   0  0  0  0  0  0  0  0  0  0  0  0
    6.5088  -13.6223   25.7559 C   0  0  0  0  0  0  0  0  0  0  0  0
    6.4454  -12.2454   25.9351 C   0  0  0  0  0  0  0  0  0  0  0  0
    7.5244  -11.5112   26.3998 C   0  0  0  0  0  0  0  0  0  0  0  0
    8.7054  -12.1687   26.6960 C   0  0  0  0  0  0  0  0  0  0  0  0
    8.7528  -13.5190   26.5154 C   0  0  0  0  0  0  0  0  0  0  0  0
    7.6783  -14.2647   26.0505 C   0  0  0  0  0  0  0  0  0  0  0  0
   10.5316  -17.8267   25.1622 C   0  0  0  0  0  0  0  0  0  0  0  0
   10.2103  -18.9864   24.8166 O   0  0  0  0  0  0  0  0  0  0  0  0
   14.5135  -19.0018   23.5087 C   0  0  0  0  0  0  0  0  0  0  0  0
   14.5252  -18.0088   24.6082 C   0  0  2  0  0  0  0  0  0  0  0  0
   15.9719  -17.4478   24.6957 C   0  0  0  0  0  0  0  0  0  0  0  0
   14.0743  -18.3857   25.9592 C   0  0  0  0  0  0  0  0  0  0  0  0
   12.6714  -18.7839   26.1447 C   0  0  2  0  0  0  0  0  0  0  0  0
   11.7957  -17.6354   25.7556 N   0  0  0  0  0  0  0  0  0  0  0  0
   12.2952  -19.0862   27.5166 C   0  0  0  0  0  0  0  0  0  0  0  0
   12.6465  -20.0754   28.1927 O   0  0  0  0  0  0  0  0  0  0  0  0
   11.4377  -18.2084   28.2342 O   0  0  0  0  0  0  0  0  0  0  0  0
  2  1  1  0
  3  2  1  0
  4  3  1  0
  5  4  1  0
  5  6  1  1
  7  5  1  0
  7  8  2  0
  9  7  1  0
 10 11  1  1
 10  9  1  0
 12 11  1  0
 12 13  2  0
 14 13  1  0
 15 14  1  0
 16 15  2  0
 17 16  1  0
 18 17  2  0
 18 19  1  0
 19 20  2  0
 20 15  1  0
 20 12  1  0
 21 10  1  0
 22 21  2  0
 24 23  1  6
 24 25  1  0
 24 26  1  0
 27 26  1  1
 27 28  1  0
 28 21  1  0
 29 27  1  0
 29 31  1  0
 30 29  2  0
M  END
$$$$
