MWL.pdb
     RDKit          3D

 31 32  0  0  1  0  0  0  0  0999 V2000
    7.8274  -12.3129   18.6633 C   0  0  0  0  0  0  0  0  0  0  0  0
    6.7672  -13.7562   18.3967 S   0  0  0  0  0  0  0  0  0  0  0  0
    7.5841  -15.2289   19.0549 C   0  0  0  0  0  0  0  0  0  0  0  0
    8.2638  -14.8672   20.3614 C   0  0  0  0  0  0  0  0  0  0  0  0
    8.9026  -16.1189   20.9650 C   0  0  2  0  0  0  0  0  0  0  0  0
    7.7928  -16.9307   21.4377 N   0  0  0  0  0  0  0  0  0  0  0  0
    9.8021  -15.7605   22.0896 C   0  0  0  0  0  0  0  0  0  0  0  0
   10.9465  -15.2970   21.9050 O   0  0  0  0  0  0  0  0  0  0  0  0
    9.3903  -15.9326   23.4495 N   0  0  0  0  0  0  0  0  0  0  0  0
   10.2410  -15.5700   24.5595 C   0  0  1  0  0  0  0  0  0  0  0  0
    9.6205  -14.5728   25.4853 C   0  0  0  0  0  0  0  0  0  0  0  0
    8.1638  -14.5150   25.5100 C   0  0  0  0  0  0  0  0  0  0  0  0
    7.1899  -15.4787   25.4082 C   0  0  0  0  0  0  0  0  0  0  0  0
    6.0069  -14.8624   25.5077 N   0  0  0  0  0  0  0  0  0  0  0  0
    6.1650  -13.5413   25.6699 C   0  0  0  0  0  0  0  0  0  0  0  0
    5.2860  -12.4751   25.8208 C   0  0  0  0  0  0  0  0  0  0  0  0
    5.7274  -11.1711   25.9764 C   0  0  0  0  0  0  0  0  0  0  0  0
    7.0881  -10.9197   25.9819 C   0  0  0  0  0  0  0  0  0  0  0  0
    7.9379  -11.9750   25.8329 C   0  0  0  0  0  0  0  0  0  0  0  0
    7.5072  -13.2852   25.6763 C   0  0  0  0  0  0  0  0  0  0  0  0
   10.8059  -16.7444   25.2515 C   0  0  0  0  0  0  0  0  0  0  0  0
   11.8036  -17.3140   24.7538 O   0  0  0  0  0  0  0  0  0  0  0  0
   11.6954  -14.7522   28.5092 C   0  0  0  0  0  0  0  0  0  0  0  0
   10.5560  -15.6451   28.8250 C   0  0  2  0  0  0  0  0  0  0  0  0
   10.0144  -15.2125   30.2159 C   0  0  0  0  0  0  0  0  0  0  0  0
   10.7282  -17.1082   28.8109 C   0  0  0  0  0  0  0  0  0  0  0  0
   11.1510  -17.7527   27.5591 C   0  0  2  0  0  0  0  0  0  0  0  0
   10.2750  -17.2599   26.4512 N   0  0  0  0  0  0  0  0  0  0  0  0
   11.0010  -19.1990   27.5320 C   0  0  0  0  0  0  0  0  0  0  0  0
   10.2386  -19.8630   26.7992 O   0  0  0  0  0  0  0  0  0  0  0  0
   11.7715  -20.0155   28.4040 O   0  0  0  0  0  0  0  0  0  0  0  0
  2  1  1  0
  3  2  1  0
  4  3  1  0
  5  4  1  0
  5  6  1  1
  7  5  1  0
  7  8  2  0
  9  7  1  0
 10 11  1  1
 10  9  1  0
 12 11  1  0
 12 13  2  0
 14 13  1  0
 15 14  1  0
 16 15  2  0
 17 16  1  0
 18 17  2  0
 18 19  1  0
 19 20  2  0
 20 15  1  0
 20 12  1  0
 21 10  1  0
 22 21  2  0
 24 23  1  1
 24 25  1  0
 24 26  1  0
 27 26  1  1
 27 28  1  0
 28 21  1  0
 29 27  1  0
 29 31  1  0
 30 29  2  0
M  END
$$$$
