MWL.pdb
     RDKit          3D

 31 32  0  0  1  0  0  0  0  0999 V2000
    7.9950  -11.5381   19.8837 C   0  0  0  0  0  0  0  0  0  0  0  0
    7.1852  -12.5952   18.6569 S   0  0  0  0  0  0  0  0  0  0  0  0
    7.4056  -14.3287   19.1214 C   0  0  0  0  0  0  0  0  0  0  0  0
    8.4172  -14.4072   20.2483 C   0  0  0  0  0  0  0  0  0  0  0  0
    8.6631  -15.8731   20.6087 C   0  0  2  0  0  0  0  0  0  0  0  0
    7.3468  -16.4355   20.8637 N   0  0  0  0  0  0  0  0  0  0  0  0
    9.5190  -15.9817   21.8162 C   0  0  0  0  0  0  0  0  0  0  0  0
   10.7119  -15.6139   21.8219 O   0  0  0  0  0  0  0  0  0  0  0  0
    9.0063  -16.5186   23.0400 N   0  0  0  0  0  0  0  0  0  0  0  0
    9.7422  -16.4364   24.2806 C   0  0  1  0  0  0  0  0  0  0  0  0
    8.8770  -16.5463   25.4954 C   0  0  0  0  0  0  0  0  0  0  0  0
    7.6861  -15.7060   25.5336 C   0  0  0  0  0  0  0  0  0  0  0  0
    6.3475  -15.9774   25.3848 C   0  0  0  0  0  0  0  0  0  0  0  0
    5.6880  -14.8223   25.5270 N   0  0  0  0  0  0  0  0  0  0  0  0
    6.5353  -13.8105   25.7618 C   0  0  0  0  0  0  0  0  0  0  0  0
    6.3744  -12.4470   25.9785 C   0  0  0  0  0  0  0  0  0  0  0  0
    7.4502  -11.6035   26.2037 C   0  0  0  0  0  0  0  0  0  0  0  0
    8.7280  -12.1342   26.2137 C   0  0  0  0  0  0  0  0  0  0  0  0
    8.8704  -13.4729   25.9997 C   0  0  0  0  0  0  0  0  0  0  0  0
    7.8002  -14.3273   25.7731 C   0  0  0  0  0  0  0  0  0  0  0  0
   10.9135  -17.3334   24.3084 C   0  0  0  0  0  0  0  0  0  0  0  0
   10.7591  -18.5351   23.9927 O   0  0  0  0  0  0  0  0  0  0  0  0
   16.1295  -18.8865   25.1270 C   0  0  0  0  0  0  0  0  0  0  0  0
   15.8571  -17.7830   24.1765 C   0  0  2  0  0  0  0  0  0  0  0  0
   16.9832  -16.7298   24.3715 C   0  0  0  0  0  0  0  0  0  0  0  0
   14.5530  -17.0977   24.1824 C   0  0  0  0  0  0  0  0  0  0  0  0
   13.3786  -17.8290   24.6797 C   0  0  2  0  0  0  0  0  0  0  0  0
   12.2044  -16.9023   24.6750 N   0  0  0  0  0  0  0  0  0  0  0  0
   13.4794  -18.2895   26.0555 C   0  0  0  0  0  0  0  0  0  0  0  0
   13.2932  -17.6157   27.0902 O   0  0  0  0  0  0  0  0  0  0  0  0
   13.8219  -19.6404   26.3354 O   0  0  0  0  0  0  0  0  0  0  0  0
  2  1  1  0
  3  2  1  0
  4  3  1  0
  5  4  1  0
  5  6  1  1
  7  5  1  0
  7  8  2  0
  9  7  1  0
 10 11  1  1
 10  9  1  0
 12 11  1  0
 12 13  2  0
 14 13  1  0
 15 14  1  0
 16 15  2  0
 17 16  1  0
 18 17  2  0
 18 19  1  0
 19 20  2  0
 20 15  1  0
 20 12  1  0
 21 10  1  0
 22 21  2  0
 24 23  1  1
 24 25  1  0
 24 26  1  0
 27 26  1  1
 27 28  1  0
 28 21  1  0
 29 27  1  0
 29 31  1  0
 30 29  2  0
M  END
$$$$
