MWL.pdb
     RDKit          3D

 31 32  0  0  1  0  0  0  0  0999 V2000
    7.2587  -12.1203   18.2469 C   0  0  0  0  0  0  0  0  0  0  0  0
    7.6196  -13.3541   16.9720 S   0  0  0  0  0  0  0  0  0  0  0  0
    8.3102  -14.8336   17.7488 C   0  0  0  0  0  0  0  0  0  0  0  0
    8.8396  -14.4626   19.1206 C   0  0  0  0  0  0  0  0  0  0  0  0
    9.4838  -15.6908   19.7654 C   0  0  2  0  0  0  0  0  0  0  0  0
    8.5851  -16.7965   19.4761 N   0  0  0  0  0  0  0  0  0  0  0  0
    9.6241  -15.5030   21.2308 C   0  0  0  0  0  0  0  0  0  0  0  0
   10.5026  -14.7676   21.7266 O   0  0  0  0  0  0  0  0  0  0  0  0
    8.7473  -16.1648   22.1483 N   0  0  0  0  0  0  0  0  0  0  0  0
    8.6229  -15.7474   23.5259 C   0  0  1  0  0  0  0  0  0  0  0  0
    7.2562  -15.9638   24.0934 C   0  0  0  0  0  0  0  0  0  0  0  0
    7.0305  -15.5058   25.4592 C   0  0  0  0  0  0  0  0  0  0  0  0
    6.7765  -16.1685   26.6356 C   0  0  0  0  0  0  0  0  0  0  0  0
    6.6638  -15.2456   27.5971 N   0  0  0  0  0  0  0  0  0  0  0  0
    6.8328  -14.0116   27.1015 C   0  0  0  0  0  0  0  0  0  0  0  0
    6.8167  -12.7376   27.6571 C   0  0  0  0  0  0  0  0  0  0  0  0
    7.0279  -11.5985   26.8972 C   0  0  0  0  0  0  0  0  0  0  0  0
    7.2627  -11.7315   25.5401 C   0  0  0  0  0  0  0  0  0  0  0  0
    7.2756  -12.9870   25.0094 C   0  0  0  0  0  0  0  0  0  0  0  0
    7.0653  -14.1350   25.7607 C   0  0  0  0  0  0  0  0  0  0  0  0
    9.7053  -16.2727   24.3801 C   0  0  0  0  0  0  0  0  0  0  0  0
    9.9383  -15.7070   25.4725 O   0  0  0  0  0  0  0  0  0  0  0  0
   14.1425  -17.7425   22.9510 C   0  0  0  0  0  0  0  0  0  0  0  0
   13.3921  -16.6567   23.6242 C   0  0  2  0  0  0  0  0  0  0  0  0
   14.3840  -15.4769   23.8224 C   0  0  0  0  0  0  0  0  0  0  0  0
   12.6894  -16.9111   24.8938 C   0  0  0  0  0  0  0  0  0  0  0  0
   11.5936  -17.8911   24.9048 C   0  0  2  0  0  0  0  0  0  0  0  0
   10.4945  -17.3853   24.0253 N   0  0  0  0  0  0  0  0  0  0  0  0
   10.9649  -18.0948   26.2004 C   0  0  0  0  0  0  0  0  0  0  0  0
    9.8049  -17.7739   26.5326 O   0  0  0  0  0  0  0  0  0  0  0  0
   11.6838  -18.7208   27.2549 O   0  0  0  0  0  0  0  0  0  0  0  0
  2  1  1  0
  3  2  1  0
  4  3  1  0
  5  4  1  0
  5  6  1  1
  7  5  1  0
  7  8  2  0
  9  7  1  0
 10 11  1  1
 10  9  1  0
 12 11  1  0
 12 13  2  0
 14 13  1  0
 15 14  1  0
 16 15  2  0
 17 16  1  0
 18 17  2  0
 18 19  1  0
 19 20  2  0
 20 15  1  0
 20 12  1  0
 21 10  1  0
 22 21  2  0
 24 23  1  1
 24 25  1  0
 24 26  1  0
 27 26  1  1
 27 28  1  0
 28 21  1  0
 29 27  1  0
 29 31  1  0
 30 29  2  0
M  END
$$$$
