MWL.pdb
     RDKit          3D

 31 32  0  0  1  0  0  0  0  0999 V2000
    8.8558  -12.0542   20.6575 C   0  0  0  0  0  0  0  0  0  0  0  0
    8.4880  -12.5109   18.9445 S   0  0  0  0  0  0  0  0  0  0  0  0
    9.4808  -13.9496   18.4820 C   0  0  0  0  0  0  0  0  0  0  0  0
    8.6190  -15.1926   18.5907 C   0  0  0  0  0  0  0  0  0  0  0  0
    9.3558  -16.2510   19.4129 C   0  0  2  0  0  0  0  0  0  0  0  0
    8.5204  -17.4395   19.3524 N   0  0  0  0  0  0  0  0  0  0  0  0
    9.5237  -15.8031   20.8178 C   0  0  0  0  0  0  0  0  0  0  0  0
    9.8017  -14.6220   21.1112 O   0  0  0  0  0  0  0  0  0  0  0  0
    9.3716  -16.7173   21.9085 N   0  0  0  0  0  0  0  0  0  0  0  0
    8.9281  -16.2858   23.2140 C   0  0  1  0  0  0  0  0  0  0  0  0
    7.6027  -15.5932   23.1947 C   0  0  0  0  0  0  0  0  0  0  0  0
    7.0413  -15.2101   24.4847 C   0  0  0  0  0  0  0  0  0  0  0  0
    6.3651  -15.9115   25.4533 C   0  0  0  0  0  0  0  0  0  0  0  0
    6.0910  -15.0579   26.4460 N   0  0  0  0  0  0  0  0  0  0  0  0
    6.5577  -13.8322   26.1688 C   0  0  0  0  0  0  0  0  0  0  0  0
    6.5413  -12.6174   26.8442 C   0  0  0  0  0  0  0  0  0  0  0  0
    7.1144  -11.4719   26.3164 C   0  0  0  0  0  0  0  0  0  0  0  0
    7.7238  -11.5372   25.0758 C   0  0  0  0  0  0  0  0  0  0  0  0
    7.7321  -12.7350   24.4253 C   0  0  0  0  0  0  0  0  0  0  0  0
    7.1613  -13.8889   24.9443 C   0  0  0  0  0  0  0  0  0  0  0  0
    9.0202  -17.3533   24.2284 C   0  0  0  0  0  0  0  0  0  0  0  0
    8.2611  -18.3441   24.1302 O   0  0  0  0  0  0  0  0  0  0  0  0
   13.7159  -19.5336   24.9840 C   0  0  0  0  0  0  0  0  0  0  0  0
   13.2611  -18.5364   23.9869 C   0  0  2  0  0  0  0  0  0  0  0  0
   14.4062  -17.4971   23.8321 C   0  0  0  0  0  0  0  0  0  0  0  0
   11.9866  -17.8217   24.1740 C   0  0  0  0  0  0  0  0  0  0  0  0
   11.1590  -18.1573   25.3418 C   0  0  2  0  0  0  0  0  0  0  0  0
    9.9249  -17.3127   25.3085 N   0  0  0  0  0  0  0  0  0  0  0  0
   11.7689  -17.8682   26.6300 C   0  0  0  0  0  0  0  0  0  0  0  0
   11.7192  -16.7923   27.2617 O   0  0  0  0  0  0  0  0  0  0  0  0
   12.5190  -18.8676   27.3078 O   0  0  0  0  0  0  0  0  0  0  0  0
  2  1  1  0
  3  2  1  0
  4  3  1  0
  5  4  1  0
  5  6  1  1
  7  5  1  0
  7  8  2  0
  9  7  1  0
 10 11  1  6
 10  9  1  0
 12 11  1  0
 12 13  2  0
 14 13  1  0
 15 14  1  0
 16 15  2  0
 17 16  1  0
 18 17  2  0
 18 19  1  0
 19 20  2  0
 20 15  1  0
 20 12  1  0
 21 10  1  0
 22 21  2  0
 24 23  1  1
 24 25  1  0
 24 26  1  0
 27 26  1  6
 27 28  1  0
 28 21  1  0
 29 27  1  0
 29 31  1  0
 30 29  2  0
M  END
$$$$
