MWL.pdb
     RDKit          3D

 31 32  0  0  1  0  0  0  0  0999 V2000
    8.1217  -12.5799   17.2282 C   0  0  0  0  0  0  0  0  0  0  0  0
    8.6503  -14.0354   16.2901 S   0  0  0  0  0  0  0  0  0  0  0  0
    9.1276  -15.3475   17.4391 C   0  0  0  0  0  0  0  0  0  0  0  0
    8.9601  -14.8386   18.8578 C   0  0  0  0  0  0  0  0  0  0  0  0
    9.7896  -15.7030   19.8085 C   0  0  2  0  0  0  0  0  0  0  0  0
    9.1946  -17.0282   19.7461 N   0  0  0  0  0  0  0  0  0  0  0  0
    9.7299  -15.1696   21.1921 C   0  0  0  0  0  0  0  0  0  0  0  0
    9.3808  -13.9967   21.4388 O   0  0  0  0  0  0  0  0  0  0  0  0
   10.0735  -15.9875   22.3153 N   0  0  0  0  0  0  0  0  0  0  0  0
    9.3876  -15.8770   23.5821 C   0  0  1  0  0  0  0  0  0  0  0  0
    7.8999  -15.7999   23.4499 C   0  0  0  0  0  0  0  0  0  0  0  0
    7.1501  -15.4445   24.6489 C   0  0  0  0  0  0  0  0  0  0  0  0
    6.4999  -16.1941   25.5991 C   0  0  0  0  0  0  0  0  0  0  0  0
    5.9859  -15.3441   26.4949 N   0  0  0  0  0  0  0  0  0  0  0  0
    6.2714  -14.0747   26.1722 C   0  0  0  0  0  0  0  0  0  0  0  0
    5.9844  -12.8437   26.7503 C   0  0  0  0  0  0  0  0  0  0  0  0
    6.4139  -11.6494   26.1948 C   0  0  0  0  0  0  0  0  0  0  0  0
    7.1533  -11.6811   25.0257 C   0  0  0  0  0  0  0  0  0  0  0  0
    7.4271  -12.8954   24.4702 C   0  0  0  0  0  0  0  0  0  0  0  0
    7.0021  -14.0980   25.0178 C   0  0  0  0  0  0  0  0  0  0  0  0
    9.8405  -16.8806   24.5643 C   0  0  0  0  0  0  0  0  0  0  0  0
    9.0849  -17.8415   24.8351 O   0  0  0  0  0  0  0  0  0  0  0  0
    9.3519  -13.7818   28.7478 C   0  0  0  0  0  0  0  0  0  0  0  0
   10.2165  -14.9302   28.3886 C   0  0  2  0  0  0  0  0  0  0  0  0
   11.6238  -14.6392   28.9801 C   0  0  0  0  0  0  0  0  0  0  0  0
   10.3631  -15.3428   26.9820 C   0  0  0  0  0  0  0  0  0  0  0  0
   11.2037  -16.5098   26.6773 C   0  0  2  0  0  0  0  0  0  0  0  0
   11.0880  -16.8107   25.2166 N   0  0  0  0  0  0  0  0  0  0  0  0
   10.8070  -17.7420   27.3401 C   0  0  0  0  0  0  0  0  0  0  0  0
   11.4705  -18.3968   28.1709 O   0  0  0  0  0  0  0  0  0  0  0  0
    9.5410  -18.3274   27.0659 O   0  0  0  0  0  0  0  0  0  0  0  0
  2  1  1  0
  3  2  1  0
  4  3  1  0
  5  4  1  0
  5  6  1  1
  7  5  1  0
  7  8  2  0
  9  7  1  0
 10 11  1  6
 10  9  1  0
 12 11  1  0
 12 13  2  0
 14 13  1  0
 15 14  1  0
 16 15  2  0
 17 16  1  0
 18 17  2  0
 18 19  1  0
 19 20  2  0
 20 15  1  0
 20 12  1  0
 21 10  1  0
 22 21  2  0
 24 23  1  6
 24 25  1  0
 24 26  1  0
 27 26  1  1
 27 28  1  0
 28 21  1  0
 29 27  1  0
 29 31  1  0
 30 29  2  0
M  END
$$$$
