MWL.pdb
     RDKit          3D

 31 32  0  0  1  0  0  0  0  0999 V2000
    7.8836  -12.5531   19.4883 C   0  0  0  0  0  0  0  0  0  0  0  0
    7.2676  -14.0983   18.7733 S   0  0  0  0  0  0  0  0  0  0  0  0
    7.7857  -15.4862   19.8099 C   0  0  0  0  0  0  0  0  0  0  0  0
    8.5426  -14.9450   21.0074 C   0  0  0  0  0  0  0  0  0  0  0  0
    9.1497  -16.1087   21.7926 C   0  0  2  0  0  0  0  0  0  0  0  0
    8.0283  -16.9634   22.1476 N   0  0  0  0  0  0  0  0  0  0  0  0
    9.8376  -15.6182   23.0126 C   0  0  0  0  0  0  0  0  0  0  0  0
   10.7958  -14.8196   22.9610 O   0  0  0  0  0  0  0  0  0  0  0  0
    9.4261  -16.0447   24.3155 N   0  0  0  0  0  0  0  0  0  0  0  0
   10.0480  -15.5414   25.5185 C   0  0  1  0  0  0  0  0  0  0  0  0
    9.0696  -15.1930   26.5946 C   0  0  0  0  0  0  0  0  0  0  0  0
    7.7551  -14.7310   26.1647 C   0  0  0  0  0  0  0  0  0  0  0  0
    6.6741  -15.3750   25.6132 C   0  0  0  0  0  0  0  0  0  0  0  0
    5.7172  -14.4594   25.4255 N   0  0  0  0  0  0  0  0  0  0  0  0
    6.1249  -13.2480   25.8296 C   0  0  0  0  0  0  0  0  0  0  0  0
    5.5349  -11.9897   25.8554 C   0  0  0  0  0  0  0  0  0  0  0  0
    6.1974  -10.8738   26.3405 C   0  0  0  0  0  0  0  0  0  0  0  0
    7.4894  -11.0146   26.8155 C   0  0  0  0  0  0  0  0  0  0  0  0
    8.0549  -12.2544   26.7839 C   0  0  0  0  0  0  0  0  0  0  0  0
    7.4010  -13.3792   26.3003 C   0  0  0  0  0  0  0  0  0  0  0  0
   11.1582  -16.3939   25.9852 C   0  0  0  0  0  0  0  0  0  0  0  0
   12.0975  -15.8642   26.6214 O   0  0  0  0  0  0  0  0  0  0  0  0
   10.0247  -18.9833   29.6379 C   0  0  0  0  0  0  0  0  0  0  0  0
   11.2841  -18.8649   28.8664 C   0  0  2  0  0  0  0  0  0  0  0  0
   11.6480  -17.3547   28.8236 C   0  0  0  0  0  0  0  0  0  0  0  0
   11.3806  -19.4206   27.5054 C   0  0  0  0  0  0  0  0  0  0  0  0
   12.1504  -18.6773   26.4974 C   0  0  2  0  0  0  0  0  0  0  0  0
   11.2142  -17.7823   25.7489 N   0  0  0  0  0  0  0  0  0  0  0  0
   12.7737  -19.4990   25.4720 C   0  0  0  0  0  0  0  0  0  0  0  0
   12.3138  -19.7717   24.3436 O   0  0  0  0  0  0  0  0  0  0  0  0
   14.0452  -20.0910   25.7034 O   0  0  0  0  0  0  0  0  0  0  0  0
  2  1  1  0
  3  2  1  0
  4  3  1  0
  5  4  1  0
  5  6  1  1
  7  5  1  0
  7  8  2  0
  9  7  1  0
 10 11  1  1
 10  9  1  0
 12 11  1  0
 12 13  2  0
 14 13  1  0
 15 14  1  0
 16 15  2  0
 17 16  1  0
 18 17  2  0
 18 19  1  0
 19 20  2  0
 20 15  1  0
 20 12  1  0
 21 10  1  0
 22 21  2  0
 24 23  1  6
 24 25  1  0
 24 26  1  0
 27 26  1  1
 27 28  1  0
 28 21  1  0
 29 27  1  0
 29 31  1  0
 30 29  2  0
M  END
$$$$
