MWL.pdb
     RDKit          3D

 31 32  0  0  1  0  0  0  0  0999 V2000
   10.5617  -20.5540   17.1834 C   0  0  0  0  0  0  0  0  0  0  0  0
    9.3345  -21.6329   17.9631 S   0  0  0  0  0  0  0  0  0  0  0  0
    9.3769  -21.3914   19.7546 C   0  0  0  0  0  0  0  0  0  0  0  0
    9.5212  -19.9099   20.0440 C   0  0  0  0  0  0  0  0  0  0  0  0
    9.5303  -19.6866   21.5570 C   0  0  2  0  0  0  0  0  0  0  0  0
    8.1806  -19.9936   22.0020 N   0  0  0  0  0  0  0  0  0  0  0  0
    9.8780  -18.2804   21.8793 C   0  0  0  0  0  0  0  0  0  0  0  0
   10.9850  -17.7841   21.5846 O   0  0  0  0  0  0  0  0  0  0  0  0
    8.9476  -17.4236   22.5492 N   0  0  0  0  0  0  0  0  0  0  0  0
    9.2109  -16.0179   22.7543 C   0  0  1  0  0  0  0  0  0  0  0  0
    7.9756  -15.1748   22.7625 C   0  0  0  0  0  0  0  0  0  0  0  0
    7.2079  -15.1440   24.0017 C   0  0  0  0  0  0  0  0  0  0  0  0
    6.5738  -16.1206   24.7310 C   0  0  0  0  0  0  0  0  0  0  0  0
    6.0293  -15.5297   25.8003 N   0  0  0  0  0  0  0  0  0  0  0  0
    6.2795  -14.2128   25.8016 C   0  0  0  0  0  0  0  0  0  0  0  0
    5.9527  -13.1689   26.6593 C   0  0  0  0  0  0  0  0  0  0  0  0
    6.3507  -11.8638   26.4184 C   0  0  0  0  0  0  0  0  0  0  0  0
    7.0983  -11.5885   25.2870 C   0  0  0  0  0  0  0  0  0  0  0  0
    7.4112  -12.6222   24.4554 C   0  0  0  0  0  0  0  0  0  0  0  0
    7.0181  -13.9332   24.6865 C   0  0  0  0  0  0  0  0  0  0  0  0
   10.1028  -15.7671   23.9027 C   0  0  0  0  0  0  0  0  0  0  0  0
   10.9787  -14.8782   23.8018 O   0  0  0  0  0  0  0  0  0  0  0  0
   10.9118  -15.1885   29.4666 C   0  0  0  0  0  0  0  0  0  0  0  0
   11.0025  -14.4715   28.1732 C   0  0  2  0  0  0  0  0  0  0  0  0
   10.5375  -13.0113   28.4319 C   0  0  0  0  0  0  0  0  0  0  0  0
   10.3100  -14.9915   26.9814 C   0  0  0  0  0  0  0  0  0  0  0  0
   10.8816  -16.1565   26.2906 C   0  0  2  0  0  0  0  0  0  0  0  0
   10.0176  -16.4828   25.1140 N   0  0  0  0  0  0  0  0  0  0  0  0
   10.9138  -17.3807   27.0751 C   0  0  0  0  0  0  0  0  0  0  0  0
   11.7356  -17.6826   27.9654 O   0  0  0  0  0  0  0  0  0  0  0  0
    9.9371  -18.3919   26.8651 O   0  0  0  0  0  0  0  0  0  0  0  0
  2  1  1  0
  3  2  1  0
  4  3  1  0
  5  4  1  0
  5  6  1  6
  7  5  1  0
  7  8  2  0
  9  7  1  0
 10 11  1  1
 10  9  1  0
 12 11  1  0
 12 13  2  0
 14 13  1  0
 15 14  1  0
 16 15  2  0
 17 16  1  0
 18 17  2  0
 18 19  1  0
 19 20  2  0
 20 15  1  0
 20 12  1  0
 21 10  1  0
 22 21  2  0
 24 23  1  1
 24 25  1  0
 24 26  1  0
 27 26  1  1
 27 28  1  0
 28 21  1  0
 29 27  1  0
 29 31  1  0
 30 29  2  0
M  END
$$$$
