CIL.pdb
     RDKit          3D

 23 22  0  0  1  0  0  0  0  0999 V2000
   21.5807  -21.2848  -10.3331 N   0  0  0  0  0  0  0  0  0  0  0  0
   22.5239  -20.4064  -10.9568 C   0  0  1  0  0  0  0  0  0  0  0  0
   23.9475  -20.6580  -10.4655 C   0  0  0  0  0  0  0  0  0  0  0  0
   24.0408  -20.2605   -8.6973 S   0  0  0  0  0  0  0  0  0  0  0  0
   22.5409  -20.5418  -12.4367 C   0  0  0  0  0  0  0  0  0  0  0  0
   22.4534  -21.7034  -12.9126 O   0  0  0  0  0  0  0  0  0  0  0  0
   19.4118  -18.2406  -15.9137 C   0  0  0  0  0  0  0  0  0  0  0  0
   20.3412  -19.1924  -15.1788 C   0  0  0  0  0  0  0  0  0  0  0  0
   21.7468  -18.7224  -15.4294 C   0  0  2  0  0  0  0  0  0  0  0  0
   22.1073  -18.7230  -16.8772 C   0  0  0  0  0  0  0  0  0  0  0  0
   22.7708  -19.5496  -14.6813 C   0  0  2  0  0  0  0  0  0  0  0  0
   22.6525  -19.3888  -13.2533 N   0  0  0  0  0  0  0  0  0  0  0  0
   24.1567  -19.2004  -15.0940 C   0  0  0  0  0  0  0  0  0  0  0  0
   24.6758  -18.1382  -14.6726 O   0  0  0  0  0  0  0  0  0  0  0  0
   27.9059  -18.6210  -13.9376 C   0  0  0  0  0  0  0  0  0  0  0  0
   27.1262  -19.9341  -13.7302 C   0  0  2  0  0  0  0  0  0  0  0  0
   27.8768  -20.7652  -12.7128 C   0  0  0  0  0  0  0  0  0  0  0  0
   27.0252  -20.6869  -15.0167 C   0  0  0  0  0  0  0  0  0  0  0  0
   26.3893  -19.8594  -16.0894 C   0  0  2  0  0  0  0  0  0  0  0  0
   24.9353  -20.0196  -15.9541 N   0  0  0  0  0  0  0  0  0  0  0  0
   26.8207  -20.1791  -17.4613 C   0  0  0  0  0  0  0  0  0  0  0  0
   26.0995  -20.9356  -18.3699 O   0  0  0  0  0  0  0  0  0  0  0  0
   27.9555  -19.7178  -17.8368 O   0  0  0  0  0  0  0  0  0  0  0  0
  2  1  1  1
  2  3  1  0
  4  3  1  0
  5  6  2  0
  5  2  1  0
  7  8  1  0
  8  9  1  0
  9 11  1  0
  9 10  1  6
 11 12  1  1
 12  5  1  0
 13 11  1  0
 13 20  1  0
 14 13  2  0
 16 15  1  6
 16 17  1  0
 18 16  1  0
 19 20  1  0
 19 18  1  1
 21 19  1  0
 22 21  1  0
 23 21  2  0
M  END
$$$$
