CIL.pdb
     RDKit          3D

 23 22  0  0  1  0  0  0  0  0999 V2000
   17.0384  -11.0742  -16.1293 N   0  0  0  0  0  0  0  0  0  0  0  0
   18.0245  -10.1073  -16.5072 C   0  0  1  0  0  0  0  0  0  0  0  0
   17.4312   -8.7054  -16.6256 C   0  0  0  0  0  0  0  0  0  0  0  0
   16.1591   -8.7098  -17.9198 S   0  0  0  0  0  0  0  0  0  0  0  0
   19.1487  -10.0268  -15.5386 C   0  0  0  0  0  0  0  0  0  0  0  0
   18.8697  -10.1442  -14.3172 O   0  0  0  0  0  0  0  0  0  0  0  0
   23.3983  -13.0068  -16.1320 C   0  0  0  0  0  0  0  0  0  0  0  0
   22.1924  -12.1797  -15.7177 C   0  0  0  0  0  0  0  0  0  0  0  0
   22.6735  -10.7729  -15.4969 C   0  0  2  0  0  0  0  0  0  0  0  0
   23.7784  -10.6895  -14.4979 C   0  0  0  0  0  0  0  0  0  0  0  0
   21.5591   -9.8475  -15.0559 C   0  0  2  0  0  0  0  0  0  0  0  0
   20.4723   -9.8250  -16.0032 N   0  0  0  0  0  0  0  0  0  0  0  0
   22.0543   -8.4592  -14.8550 C   0  0  0  0  0  0  0  0  0  0  0  0
   22.8545   -8.2201  -13.9180 O   0  0  0  0  0  0  0  0  0  0  0  0
   21.6446   -2.9083  -17.6226 C   0  0  0  0  0  0  0  0  0  0  0  0
   22.2414   -3.7760  -16.4973 C   0  0  2  0  0  0  0  0  0  0  0  0
   23.7489   -3.6984  -16.5998 C   0  0  0  0  0  0  0  0  0  0  0  0
   21.8008   -5.1958  -16.6471 C   0  0  0  0  0  0  0  0  0  0  0  0
   22.0685   -5.9883  -15.4062 C   0  0  2  0  0  0  0  0  0  0  0  0
   21.6624   -7.3729  -15.6816 N   0  0  0  0  0  0  0  0  0  0  0  0
   21.4055   -5.4856  -14.1904 C   0  0  0  0  0  0  0  0  0  0  0  0
   22.0364   -4.8172  -13.1545 O   0  0  0  0  0  0  0  0  0  0  0  0
   20.1443   -5.6875  -14.0896 O   0  0  0  0  0  0  0  0  0  0  0  0
  2  1  1  1
  2  3  1  0
  4  3  1  0
  5  6  2  0
  5  2  1  0
  7  8  1  0
  8  9  1  0
  9 11  1  0
  9 10  1  1
 11 12  1  6
 12  5  1  0
 13 11  1  0
 13 20  1  0
 14 13  2  0
 16 15  1  6
 16 17  1  0
 18 16  1  0
 19 20  1  0
 19 18  1  6
 21 19  1  0
 22 21  1  0
 23 21  2  0
M  END
$$$$
