CIL.pdb
     RDKit          3D

 23 22  0  0  1  0  0  0  0  0999 V2000
   22.7867  -12.3380  -19.0480 N   0  0  0  0  0  0  0  0  0  0  0  0
   22.0811  -11.9853  -17.8532 C   0  0  1  0  0  0  0  0  0  0  0  0
   23.0183  -11.8594  -16.6545 C   0  0  0  0  0  0  0  0  0  0  0  0
   23.6894  -13.4975  -16.2550 S   0  0  0  0  0  0  0  0  0  0  0  0
   21.3531  -10.6956  -17.9773 C   0  0  0  0  0  0  0  0  0  0  0  0
   21.9364   -9.7575  -18.5800 O   0  0  0  0  0  0  0  0  0  0  0  0
   16.1758  -10.6692  -19.2853 C   0  0  0  0  0  0  0  0  0  0  0  0
   17.6519  -10.3151  -19.2093 C   0  0  0  0  0  0  0  0  0  0  0  0
   17.8650   -9.5747  -17.9188 C   0  0  2  0  0  0  0  0  0  0  0  0
   17.1503   -8.2657  -17.8782 C   0  0  0  0  0  0  0  0  0  0  0  0
   19.3315   -9.3278  -17.6339 C   0  0  2  0  0  0  0  0  0  0  0  0
   20.0539  -10.5586  -17.4279 N   0  0  0  0  0  0  0  0  0  0  0  0
   19.5134   -8.4552  -16.4430 C   0  0  0  0  0  0  0  0  0  0  0  0
   19.2073   -8.8918  -15.3068 O   0  0  0  0  0  0  0  0  0  0  0  0
   21.3010   -5.7899  -12.7004 C   0  0  0  0  0  0  0  0  0  0  0  0
   22.1095   -5.4074  -13.9555 C   0  0  2  0  0  0  0  0  0  0  0  0
   21.7807   -3.9716  -14.3009 C   0  0  0  0  0  0  0  0  0  0  0  0
   21.7430   -6.2953  -15.0999 C   0  0  0  0  0  0  0  0  0  0  0  0
   20.2652   -6.3060  -15.3361 C   0  0  2  0  0  0  0  0  0  0  0  0
   20.0237   -7.1324  -16.5263 N   0  0  0  0  0  0  0  0  0  0  0  0
   19.6497   -4.9768  -15.4941 C   0  0  0  0  0  0  0  0  0  0  0  0
   19.0962   -4.2258  -14.4706 O   0  0  0  0  0  0  0  0  0  0  0  0
   19.6272   -4.4828  -16.6760 O   0  0  0  0  0  0  0  0  0  0  0  0
  2  1  1  6
  2  3  1  0
  4  3  1  0
  5  6  2  0
  5  2  1  0
  7  8  1  0
  8  9  1  0
  9 11  1  0
  9 10  1  6
 11 12  1  1
 12  5  1  0
 13 11  1  0
 13 20  1  0
 14 13  2  0
 16 15  1  1
 16 17  1  0
 18 16  1  0
 19 20  1  0
 19 18  1  6
 21 19  1  0
 22 21  1  0
 23 21  2  0
M  END
$$$$
