CIL.pdb
     RDKit          3D

 23 22  0  0  1  0  0  0  0  0999 V2000
   20.7736  -26.2102  -20.4275 N   0  0  0  0  0  0  0  0  0  0  0  0
   20.1914  -25.2638  -19.5245 C   0  0  1  0  0  0  0  0  0  0  0  0
   18.7041  -25.0551  -19.7993 C   0  0  0  0  0  0  0  0  0  0  0  0
   18.5166  -23.9740  -21.2448 S   0  0  0  0  0  0  0  0  0  0  0  0
   20.3206  -25.6747  -18.1021 C   0  0  0  0  0  0  0  0  0  0  0  0
   19.9869  -26.8516  -17.8072 O   0  0  0  0  0  0  0  0  0  0  0  0
   24.5319  -24.1366  -15.0613 C   0  0  0  0  0  0  0  0  0  0  0  0
   23.4154  -24.8289  -15.8256 C   0  0  0  0  0  0  0  0  0  0  0  0
   22.1340  -24.5464  -15.0924 C   0  0  2  0  0  0  0  0  0  0  0  0
   22.1686  -24.9998  -13.6715 C   0  0  0  0  0  0  0  0  0  0  0  0
   20.9350  -25.1788  -15.7672 C   0  0  2  0  0  0  0  0  0  0  0  0
   20.8040  -24.7543  -17.1389 N   0  0  0  0  0  0  0  0  0  0  0  0
   19.6753  -24.8642  -15.0411 C   0  0  0  0  0  0  0  0  0  0  0  0
   19.3235  -23.6668  -14.9081 O   0  0  0  0  0  0  0  0  0  0  0  0
   15.1246  -27.8597  -12.0992 C   0  0  0  0  0  0  0  0  0  0  0  0
   15.5542  -26.5880  -12.8564 C   0  0  2  0  0  0  0  0  0  0  0  0
   14.4782  -26.2639  -13.8694 C   0  0  0  0  0  0  0  0  0  0  0  0
   16.8528  -26.8157  -13.5593 C   0  0  0  0  0  0  0  0  0  0  0  0
   17.6132  -25.5390  -13.7365 C   0  0  2  0  0  0  0  0  0  0  0  0
   18.8367  -25.8646  -14.4817 N   0  0  0  0  0  0  0  0  0  0  0  0
   17.9402  -24.8298  -12.4874 C   0  0  0  0  0  0  0  0  0  0  0  0
   18.9828  -25.1522  -11.6348 O   0  0  0  0  0  0  0  0  0  0  0  0
   17.1953  -23.8367  -12.1700 O   0  0  0  0  0  0  0  0  0  0  0  0
  2  1  1  6
  2  3  1  0
  4  3  1  0
  5  6  2  0
  5  2  1  0
  7  8  1  0
  8  9  1  0
  9 11  1  0
  9 10  1  1
 11 12  1  6
 12  5  1  0
 13 11  1  0
 13 20  1  0
 14 13  2  0
 16 15  1  6
 16 17  1  0
 18 16  1  0
 19 20  1  0
 19 18  1  1
 21 19  1  0
 22 21  1  0
 23 21  2  0
M  END
$$$$
