CIL.pdb
     RDKit          3D

 23 22  0  0  1  0  0  0  0  0999 V2000
   16.9422  -13.9170  -18.1143 N   0  0  0  0  0  0  0  0  0  0  0  0
   16.8379  -13.1390  -16.9169 C   0  0  1  0  0  0  0  0  0  0  0  0
   17.4615  -13.8512  -15.7189 C   0  0  0  0  0  0  0  0  0  0  0  0
   16.5257  -15.3691  -15.3815 S   0  0  0  0  0  0  0  0  0  0  0  0
   17.5028  -11.8151  -17.0341 C   0  0  0  0  0  0  0  0  0  0  0  0
   18.5374  -11.7482  -17.7472 O   0  0  0  0  0  0  0  0  0  0  0  0
   14.2713   -7.8886  -16.7714 C   0  0  0  0  0  0  0  0  0  0  0  0
   15.6051   -8.2110  -17.4247 C   0  0  0  0  0  0  0  0  0  0  0  0
   16.6342   -8.2640  -16.3304 C   0  0  2  0  0  0  0  0  0  0  0  0
   17.4125   -6.9972  -16.2067 C   0  0  0  0  0  0  0  0  0  0  0  0
   17.6089   -9.4081  -16.5138 C   0  0  2  0  0  0  0  0  0  0  0  0
   16.9684  -10.6904  -16.3573 N   0  0  0  0  0  0  0  0  0  0  0  0
   18.7428   -9.3137  -15.5555 C   0  0  0  0  0  0  0  0  0  0  0  0
   18.5049   -9.1579  -14.3330 O   0  0  0  0  0  0  0  0  0  0  0  0
   24.9294   -9.8918  -15.5488 C   0  0  0  0  0  0  0  0  0  0  0  0
   23.6515   -9.4640  -14.8011 C   0  0  2  0  0  0  0  0  0  0  0  0
   23.5567  -10.2857  -13.5343 C   0  0  0  0  0  0  0  0  0  0  0  0
   22.4465   -9.7093  -15.6496 C   0  0  0  0  0  0  0  0  0  0  0  0
   21.2133   -9.1253  -15.0351 C   0  0  2  0  0  0  0  0  0  0  0  0
   20.1023   -9.3919  -15.9586 N   0  0  0  0  0  0  0  0  0  0  0  0
   21.2936   -7.6880  -14.7220 C   0  0  0  0  0  0  0  0  0  0  0  0
   21.2075   -6.6623  -15.6485 O   0  0  0  0  0  0  0  0  0  0  0  0
   21.4576   -7.3687  -13.4920 O   0  0  0  0  0  0  0  0  0  0  0  0
  2  1  1  6
  2  3  1  0
  4  3  1  0
  5  6  2  0
  5  2  1  0
  7  8  1  0
  8  9  1  0
  9 11  1  0
  9 10  1  6
 11 12  1  1
 12  5  1  0
 13 11  1  0
 13 20  1  0
 14 13  2  0
 16 15  1  6
 16 17  1  0
 18 16  1  0
 19 20  1  0
 19 18  1  6
 21 19  1  0
 22 21  1  0
 23 21  2  0
M  END
$$$$
