CIL.pdb
     RDKit          3D

 23 22  0  0  1  0  0  0  0  0999 V2000
   28.6038  -21.3933  -15.5477 N   0  0  0  0  0  0  0  0  0  0  0  0
   27.9518  -20.3829  -14.7705 C   0  0  1  0  0  0  0  0  0  0  0  0
   27.4304  -19.2425  -15.6416 C   0  0  0  0  0  0  0  0  0  0  0  0
   28.8367  -18.4171  -16.4380 S   0  0  0  0  0  0  0  0  0  0  0  0
   26.7952  -20.9098  -14.0003 C   0  0  0  0  0  0  0  0  0  0  0  0
   26.1444  -21.8585  -14.5101 O   0  0  0  0  0  0  0  0  0  0  0  0
   26.7418  -20.3234   -8.5035 C   0  0  0  0  0  0  0  0  0  0  0  0
   26.6809  -20.9796   -9.8731 C   0  0  0  0  0  0  0  0  0  0  0  0
   25.4163  -20.5088  -10.5352 C   0  0  2  0  0  0  0  0  0  0  0  0
   24.1866  -21.0209   -9.8634 C   0  0  0  0  0  0  0  0  0  0  0  0
   25.3571  -20.8931  -11.9986 C   0  0  2  0  0  0  0  0  0  0  0  0
   26.4632  -20.3450  -12.7436 N   0  0  0  0  0  0  0  0  0  0  0  0
   24.0837  -20.4474  -12.6253 C   0  0  0  0  0  0  0  0  0  0  0  0
   23.9241  -19.2332  -12.8999 O   0  0  0  0  0  0  0  0  0  0  0  0
   20.8316  -21.9666  -17.2431 C   0  0  0  0  0  0  0  0  0  0  0  0
   20.7989  -21.1629  -15.9285 C   0  0  2  0  0  0  0  0  0  0  0  0
   20.9183  -19.6955  -16.2773 C   0  0  0  0  0  0  0  0  0  0  0  0
   21.9365  -21.5631  -15.0465 C   0  0  0  0  0  0  0  0  0  0  0  0
   21.8400  -20.9198  -13.6988 C   0  0  2  0  0  0  0  0  0  0  0  0
   23.0222  -21.3390  -12.9341 N   0  0  0  0  0  0  0  0  0  0  0  0
   20.6061  -21.2198  -12.9519 C   0  0  0  0  0  0  0  0  0  0  0  0
   19.4891  -20.4033  -12.8932 O   0  0  0  0  0  0  0  0  0  0  0  0
   20.5711  -22.3259  -12.3062 O   0  0  0  0  0  0  0  0  0  0  0  0
  2  1  1  6
  2  3  1  0
  4  3  1  0
  5  6  2  0
  5  2  1  0
  7  8  1  0
  8  9  1  0
  9 11  1  0
  9 10  1  1
 11 12  1  6
 12  5  1  0
 13 11  1  0
 13 20  1  0
 14 13  2  0
 16 15  1  6
 16 17  1  0
 18 16  1  0
 19 20  1  0
 19 18  1  6
 21 19  1  0
 22 21  1  0
 23 21  2  0
M  END
$$$$
