CIL.pdb
     RDKit          3D

 23 22  0  0  1  0  0  0  0  0999 V2000
   22.1759  -15.3032  -17.5855 N   0  0  0  0  0  0  0  0  0  0  0  0
   22.7324  -14.1178  -18.1643 C   0  0  1  0  0  0  0  0  0  0  0  0
   21.7860  -13.4813  -19.1794 C   0  0  0  0  0  0  0  0  0  0  0  0
   21.4135  -14.6917  -20.4792 S   0  0  0  0  0  0  0  0  0  0  0  0
   23.0492  -13.0792  -17.1496 C   0  0  0  0  0  0  0  0  0  0  0  0
   22.2747  -12.9789  -16.1630 O   0  0  0  0  0  0  0  0  0  0  0  0
   28.2151  -11.9052  -15.9222 C   0  0  0  0  0  0  0  0  0  0  0  0
   26.7372  -12.2540  -15.8568 C   0  0  0  0  0  0  0  0  0  0  0  0
   25.9710  -11.0045  -16.1901 C   0  0  2  0  0  0  0  0  0  0  0  0
   26.1838   -9.9129  -15.1956 C   0  0  0  0  0  0  0  0  0  0  0  0
   24.4831  -11.2584  -16.3104 C   0  0  2  0  0  0  0  0  0  0  0  0
   24.1862  -12.2494  -17.3147 N   0  0  0  0  0  0  0  0  0  0  0  0
   23.7436  -10.0082  -16.6312 C   0  0  0  0  0  0  0  0  0  0  0  0
   23.9012   -9.4700  -17.7540 O   0  0  0  0  0  0  0  0  0  0  0  0
   19.3954   -6.7802  -16.1648 C   0  0  0  0  0  0  0  0  0  0  0  0
   20.0852   -7.4833  -17.3502 C   0  0  2  0  0  0  0  0  0  0  0  0
   19.0069   -7.9793  -18.2883 C   0  0  0  0  0  0  0  0  0  0  0  0
   20.8995   -8.6387  -16.8662 C   0  0  0  0  0  0  0  0  0  0  0  0
   22.0815   -8.1829  -16.0695 C   0  0  2  0  0  0  0  0  0  0  0  0
   22.8542   -9.3818  -15.7181 N   0  0  0  0  0  0  0  0  0  0  0  0
   21.7565   -7.4032  -14.8626 C   0  0  0  0  0  0  0  0  0  0  0  0
   21.5425   -7.9345  -13.6017 O   0  0  0  0  0  0  0  0  0  0  0  0
   21.6650   -6.1324  -14.9979 O   0  0  0  0  0  0  0  0  0  0  0  0
  2  1  1  1
  2  3  1  0
  4  3  1  0
  5  6  2  0
  5  2  1  0
  7  8  1  0
  8  9  1  0
  9 11  1  0
  9 10  1  1
 11 12  1  6
 12  5  1  0
 13 11  1  0
 13 20  1  0
 14 13  2  0
 16 15  1  1
 16 17  1  0
 18 16  1  0
 19 20  1  0
 19 18  1  1
 21 19  1  0
 22 21  1  0
 23 21  2  0
M  END
$$$$
