EST.pdb
     RDKit          3D

 23 22  0  0  1  0  0  0  0  0999 V2000
    7.8299  -13.1900   16.2450 N   0  0  0  0  0  0  0  0  0  0  0  0
    7.6193  -14.3389   17.1246 C   0  0  1  0  0  0  0  0  0  0  0  0
    8.2860  -15.5204   16.4924 C   0  0  0  0  0  0  0  0  0  0  0  0
    8.1553  -15.4735   15.0104 C   0  0  0  0  0  0  0  0  0  0  0  0
    8.7932  -16.6200   14.3380 C   0  0  0  0  0  0  0  0  0  0  0  0
    8.7997  -17.7711   14.7758 O   0  0  0  0  0  0  0  0  0  0  0  0
    8.3203  -14.1135   18.4340 C   0  0  0  0  0  0  0  0  0  0  0  0
    9.4310  -13.5451   18.4519 O   0  0  0  0  0  0  0  0  0  0  0  0
    9.4336  -16.3571   13.1110 O   0  0  0  0  0  0  0  0  0  0  0  0
    6.4964  -15.3952   21.8153 O   0  0  0  0  0  0  0  0  0  0  0  0
    7.3030  -14.2700   21.9822 C   0  0  0  0  0  0  0  0  0  0  0  0
    8.3812  -14.3082   20.9406 C   0  0  2  0  0  0  0  0  0  0  0  0
    7.7336  -14.5398   19.6519 N   0  0  0  0  0  0  0  0  0  0  0  0
    9.2441  -15.5032   21.1984 C   0  0  0  0  0  0  0  0  0  0  0  0
    9.0810  -16.6015   20.6315 O   0  0  0  0  0  0  0  0  0  0  0  0
   13.5366  -17.3315   22.7315 C   0  0  0  0  0  0  0  0  0  0  0  0
   12.6617  -16.1527   22.3957 C   0  0  1  0  0  0  0  0  0  0  0  0
   12.9600  -15.6036   21.1584 O   0  0  0  0  0  0  0  0  0  0  0  0
   11.1831  -16.5337   22.4327 C   0  0  2  0  0  0  0  0  0  0  0  0
   10.3312  -15.4291   22.1414 N   0  0  0  0  0  0  0  0  0  0  0  0
   10.8446  -17.2570   23.6705 C   0  0  0  0  0  0  0  0  0  0  0  0
   11.0504  -18.6119   23.8865 O   0  0  0  0  0  0  0  0  0  0  0  0
   10.3263  -16.6259   24.6276 O   0  0  0  0  0  0  0  0  0  0  0  0
  2  1  1  6
  3  4  1  0
  3  2  1  0
  5  4  1  0
  6  5  2  0
  7 13  1  0
  7  2  1  0
  8  7  2  0
  9  5  1  0
 11 10  1  0
 12 11  1  1
 12 13  1  0
 12 14  1  0
 14 20  1  0
 15 14  2  0
 17 16  1  6
 18 17  1  0
 19 17  1  0
 19 21  1  0
 19 20  1  1
 21 22  1  0
 23 21  2  0
M  END
$$$$
