EST.pdb
     RDKit          3D

 23 22  0  0  1  0  0  0  0  0999 V2000
   10.6244  -16.5294   18.9357 N   0  0  0  0  0  0  0  0  0  0  0  0
   11.3191  -16.3203   20.2051 C   0  0  1  0  0  0  0  0  0  0  0  0
   12.3175  -15.2244   19.9990 C   0  0  0  0  0  0  0  0  0  0  0  0
   13.7053  -15.7623   20.0072 C   0  0  0  0  0  0  0  0  0  0  0  0
   14.7333  -14.7088   19.9248 C   0  0  0  0  0  0  0  0  0  0  0  0
   15.2638  -14.1731   20.8986 O   0  0  0  0  0  0  0  0  0  0  0  0
   10.3519  -15.8167   21.2384 C   0  0  0  0  0  0  0  0  0  0  0  0
    9.5879  -14.8697   20.9619 O   0  0  0  0  0  0  0  0  0  0  0  0
   15.1202  -14.3027   18.6324 O   0  0  0  0  0  0  0  0  0  0  0  0
    8.8856  -18.1598   23.8825 O   0  0  0  0  0  0  0  0  0  0  0  0
    8.3084  -16.8976   23.7482 C   0  0  0  0  0  0  0  0  0  0  0  0
    9.4098  -15.8958   23.5688 C   0  0  2  0  0  0  0  0  0  0  0  0
   10.2969  -16.4060   22.5265 N   0  0  0  0  0  0  0  0  0  0  0  0
   10.2192  -15.8543   24.8267 C   0  0  0  0  0  0  0  0  0  0  0  0
   11.2381  -16.5493   25.0093 O   0  0  0  0  0  0  0  0  0  0  0  0
    8.6176  -13.6934   28.2110 C   0  0  0  0  0  0  0  0  0  0  0  0
   10.1103  -13.7882   28.0361 C   0  0  1  0  0  0  0  0  0  0  0  0
   10.7847  -13.8584   29.2450 O   0  0  0  0  0  0  0  0  0  0  0  0
   10.4908  -14.9931   27.1782 C   0  0  2  0  0  0  0  0  0  0  0  0
    9.8412  -14.9825   25.9099 N   0  0  0  0  0  0  0  0  0  0  0  0
   10.3486  -16.2535   27.9274 C   0  0  0  0  0  0  0  0  0  0  0  0
   11.2731  -16.7542   28.8326 O   0  0  0  0  0  0  0  0  0  0  0  0
    9.3189  -16.9560   27.7564 O   0  0  0  0  0  0  0  0  0  0  0  0
  2  1  1  6
  3  4  1  0
  3  2  1  0
  5  4  1  0
  6  5  2  0
  7 13  1  0
  7  2  1  0
  8  7  2  0
  9  5  1  0
 11 10  1  0
 12 11  1  1
 12 13  1  0
 12 14  1  0
 14 20  1  0
 15 14  2  0
 17 16  1  1
 18 17  1  0
 19 17  1  0
 19 21  1  0
 19 20  1  6
 21 22  1  0
 23 21  2  0
M  END
$$$$
