EST.pdb
     RDKit          3D

 23 22  0  0  1  0  0  0  0  0999 V2000
    9.6695  -15.8890   18.5676 N   0  0  0  0  0  0  0  0  0  0  0  0
   10.0524  -16.0439   19.9702 C   0  0  1  0  0  0  0  0  0  0  0  0
   11.2220  -15.1444   20.2216 C   0  0  0  0  0  0  0  0  0  0  0  0
   12.4671  -15.7186   19.6426 C   0  0  0  0  0  0  0  0  0  0  0  0
   13.6587  -14.8890   19.8984 C   0  0  0  0  0  0  0  0  0  0  0  0
   13.8563  -13.7790   19.4029 O   0  0  0  0  0  0  0  0  0  0  0  0
    8.9458  -15.5501   20.8581 C   0  0  0  0  0  0  0  0  0  0  0  0
    8.3460  -14.4942   20.5708 O   0  0  0  0  0  0  0  0  0  0  0  0
   14.6250  -15.4232   20.7736 O   0  0  0  0  0  0  0  0  0  0  0  0
    7.5345  -17.7175   24.2705 O   0  0  0  0  0  0  0  0  0  0  0  0
    6.7440  -17.0421   23.3413 C   0  0  0  0  0  0  0  0  0  0  0  0
    7.4904  -15.8218   22.8909 C   0  0  2  0  0  0  0  0  0  0  0  0
    8.5743  -16.2708   22.0207 N   0  0  0  0  0  0  0  0  0  0  0  0
    8.1409  -15.1989   24.0859 C   0  0  0  0  0  0  0  0  0  0  0  0
    9.3589  -15.2989   24.3331 O   0  0  0  0  0  0  0  0  0  0  0  0
    6.9328  -11.5417   25.8465 C   0  0  0  0  0  0  0  0  0  0  0  0
    7.0151  -12.7351   26.7613 C   0  0  1  0  0  0  0  0  0  0  0  0
    5.7718  -13.2840   27.0336 O   0  0  0  0  0  0  0  0  0  0  0  0
    7.9245  -13.8155   26.1797 C   0  0  2  0  0  0  0  0  0  0  0  0
    7.3613  -14.4355   25.0269 N   0  0  0  0  0  0  0  0  0  0  0  0
    8.3768  -14.7554   27.2199 C   0  0  0  0  0  0  0  0  0  0  0  0
    9.1345  -14.4143   28.3309 O   0  0  0  0  0  0  0  0  0  0  0  0
    8.0689  -15.9715   27.1237 O   0  0  0  0  0  0  0  0  0  0  0  0
  2  1  1  6
  3  4  1  0
  3  2  1  0
  5  4  1  0
  6  5  2  0
  7 13  1  0
  7  2  1  0
  8  7  2  0
  9  5  1  0
 11 10  1  0
 12 11  1  1
 12 13  1  0
 12 14  1  0
 14 20  1  0
 15 14  2  0
 17 16  1  6
 18 17  1  0
 19 17  1  0
 19 21  1  0
 19 20  1  6
 21 22  1  0
 23 21  2  0
M  END
$$$$
