EST.pdb
     RDKit          3D

 23 22  0  0  1  0  0  0  0  0999 V2000
    8.1730  -12.9982   17.8229 N   0  0  0  0  0  0  0  0  0  0  0  0
    7.6044  -13.9307   18.7950 C   0  0  1  0  0  0  0  0  0  0  0  0
    7.7040  -15.3064   18.2136 C   0  0  0  0  0  0  0  0  0  0  0  0
    9.0854  -15.5801   17.7317 C   0  0  0  0  0  0  0  0  0  0  0  0
    9.2054  -16.8681   17.0244 C   0  0  0  0  0  0  0  0  0  0  0  0
   10.0695  -17.7144   17.2566 O   0  0  0  0  0  0  0  0  0  0  0  0
    8.4426  -13.9413   20.0416 C   0  0  0  0  0  0  0  0  0  0  0  0
    9.6039  -13.4857   20.0107 O   0  0  0  0  0  0  0  0  0  0  0  0
    8.2549  -17.1274   16.0173 O   0  0  0  0  0  0  0  0  0  0  0  0
    6.5683  -14.7896   23.4761 O   0  0  0  0  0  0  0  0  0  0  0  0
    7.6741  -13.9452   23.5691 C   0  0  0  0  0  0  0  0  0  0  0  0
    8.6607  -14.3478   22.5138 C   0  0  2  0  0  0  0  0  0  0  0  0
    7.9287  -14.4637   21.2550 N   0  0  0  0  0  0  0  0  0  0  0  0
    9.1626  -15.7201   22.8363 C   0  0  0  0  0  0  0  0  0  0  0  0
    8.6255  -16.7631   22.4142 O   0  0  0  0  0  0  0  0  0  0  0  0
   12.1216  -17.4476   21.8582 C   0  0  0  0  0  0  0  0  0  0  0  0
   12.2226  -17.4156   23.3604 C   0  0  1  0  0  0  0  0  0  0  0  0
   13.1142  -16.4560   23.8138 O   0  0  0  0  0  0  0  0  0  0  0  0
   10.8572  -17.1749   24.0011 C   0  0  2  0  0  0  0  0  0  0  0  0
   10.3224  -15.8955   23.6733 N   0  0  0  0  0  0  0  0  0  0  0  0
   10.8783  -17.4777   25.4426 C   0  0  0  0  0  0  0  0  0  0  0  0
   11.1072  -18.7303   25.9932 O   0  0  0  0  0  0  0  0  0  0  0  0
   10.6764  -16.5493   26.2674 O   0  0  0  0  0  0  0  0  0  0  0  0
  2  1  1  6
  3  4  1  0
  3  2  1  0
  5  4  1  0
  6  5  2  0
  7 13  1  0
  7  2  1  0
  8  7  2  0
  9  5  1  0
 11 10  1  0
 12 11  1  1
 12 13  1  0
 12 14  1  0
 14 20  1  0
 15 14  2  0
 17 16  1  6
 18 17  1  0
 19 17  1  0
 19 21  1  0
 19 20  1  1
 21 22  1  0
 23 21  2  0
M  END
$$$$
