EST.pdb
     RDKit          3D

 23 22  0  0  1  0  0  0  0  0999 V2000
    9.7483  -18.5343   19.5911 N   0  0  0  0  0  0  0  0  0  0  0  0
   10.0253  -18.2679   21.0018 C   0  0  1  0  0  0  0  0  0  0  0  0
   11.2547  -17.4167   21.0682 C   0  0  0  0  0  0  0  0  0  0  0  0
   12.4814  -18.2420   20.8965 C   0  0  0  0  0  0  0  0  0  0  0  0
   13.7221  -17.4463   20.9320 C   0  0  0  0  0  0  0  0  0  0  0  0
   14.3821  -17.1372   19.9392 O   0  0  0  0  0  0  0  0  0  0  0  0
    8.9150  -17.4467   21.5930 C   0  0  0  0  0  0  0  0  0  0  0  0
    8.3561  -16.5715   20.9011 O   0  0  0  0  0  0  0  0  0  0  0  0
   14.1643  -17.0210   22.2002 O   0  0  0  0  0  0  0  0  0  0  0  0
    7.4530  -18.4953   25.2361 O   0  0  0  0  0  0  0  0  0  0  0  0
    6.5846  -17.8671   24.3441 C   0  0  0  0  0  0  0  0  0  0  0  0
    7.3818  -16.9073   23.5121 C   0  0  2  0  0  0  0  0  0  0  0  0
    8.4938  -17.6549   22.9304 N   0  0  0  0  0  0  0  0  0  0  0  0
    7.9910  -15.8875   24.4221 C   0  0  0  0  0  0  0  0  0  0  0  0
    9.1860  -15.9121   24.7767 O   0  0  0  0  0  0  0  0  0  0  0  0
    7.2856  -11.7371   27.1371 C   0  0  0  0  0  0  0  0  0  0  0  0
    6.7204  -12.7203   26.1463 C   0  0  1  0  0  0  0  0  0  0  0  0
    6.4328  -12.1371   24.9222 O   0  0  0  0  0  0  0  0  0  0  0  0
    7.6710  -13.8963   25.9312 C   0  0  2  0  0  0  0  0  0  0  0  0
    7.1957  -14.8034   24.9403 N   0  0  0  0  0  0  0  0  0  0  0  0
    8.0441  -14.5272   27.2090 C   0  0  0  0  0  0  0  0  0  0  0  0
    7.7627  -15.8380   27.5657 O   0  0  0  0  0  0  0  0  0  0  0  0
    8.6685  -13.8517   28.0675 O   0  0  0  0  0  0  0  0  0  0  0  0
  2  1  1  6
  3  4  1  0
  3  2  1  0
  5  4  1  0
  6  5  2  0
  7 13  1  0
  7  2  1  0
  8  7  2  0
  9  5  1  0
 11 10  1  0
 12 11  1  1
 12 13  1  0
 12 14  1  0
 14 20  1  0
 15 14  2  0
 17 16  1  1
 18 17  1  0
 19 17  1  0
 19 21  1  0
 19 20  1  6
 21 22  1  0
 23 21  2  0
M  END
$$$$
