EST.pdb
     RDKit          3D

 23 22  0  0  1  0  0  0  0  0999 V2000
    9.8918  -17.0891   17.5885 N   0  0  0  0  0  0  0  0  0  0  0  0
   10.1417  -17.7757   18.8550 C   0  0  1  0  0  0  0  0  0  0  0  0
   11.0252  -18.9489   18.5666 C   0  0  0  0  0  0  0  0  0  0  0  0
   10.8595  -19.4048   17.1594 C   0  0  0  0  0  0  0  0  0  0  0  0
   11.2527  -20.8114   16.9582 C   0  0  0  0  0  0  0  0  0  0  0  0
   11.6317  -21.5657   17.8550 O   0  0  0  0  0  0  0  0  0  0  0  0
   10.9217  -16.8801   19.7749 C   0  0  0  0  0  0  0  0  0  0  0  0
   11.7519  -16.0780   19.3012 O   0  0  0  0  0  0  0  0  0  0  0  0
   11.1820  -21.3054   15.6407 O   0  0  0  0  0  0  0  0  0  0  0  0
    9.7859  -16.7061   23.6276 O   0  0  0  0  0  0  0  0  0  0  0  0
   10.4262  -15.5780   23.1156 C   0  0  0  0  0  0  0  0  0  0  0  0
   11.4210  -16.0301   22.0885 C   0  0  2  0  0  0  0  0  0  0  0  0
   10.7253  -16.9358   21.1776 N   0  0  0  0  0  0  0  0  0  0  0  0
   12.4694  -16.8478   22.7752 C   0  0  0  0  0  0  0  0  0  0  0  0
   12.3394  -18.0634   23.0197 O   0  0  0  0  0  0  0  0  0  0  0  0
   16.1090  -16.6743   21.6387 C   0  0  0  0  0  0  0  0  0  0  0  0
   16.1369  -16.5914   23.1421 C   0  0  1  0  0  0  0  0  0  0  0  0
   16.4833  -15.3296   23.5994 O   0  0  0  0  0  0  0  0  0  0  0  0
   14.7907  -16.9910   23.7426 C   0  0  2  0  0  0  0  0  0  0  0  0
   13.7088  -16.2435   23.1937 N   0  0  0  0  0  0  0  0  0  0  0  0
   14.8406  -17.0032   25.2149 C   0  0  0  0  0  0  0  0  0  0  0  0
   14.1278  -16.1512   26.0460 O   0  0  0  0  0  0  0  0  0  0  0  0
   15.5781  -17.8401   25.7968 O   0  0  0  0  0  0  0  0  0  0  0  0
  2  1  1  6
  3  4  1  0
  3  2  1  0
  5  4  1  0
  6  5  2  0
  7 13  1  0
  7  2  1  0
  8  7  2  0
  9  5  1  0
 11 10  1  0
 12 11  1  1
 12 13  1  0
 12 14  1  0
 14 20  1  0
 15 14  2  0
 17 16  1  6
 18 17  1  0
 19 17  1  0
 19 21  1  0
 19 20  1  1
 21 22  1  0
 23 21  2  0
M  END
$$$$
