IHC.pdb
     RDKit          3D

 25 25  0  0  1  0  0  0  0  0999 V2000
   22.0704  -14.6114  -19.7344 C   0  0  0  0  0  0  0  0  0  0  0  0
   22.3689  -13.9796  -18.3937 C   0  0  0  0  0  0  0  0  0  0  0  0
   21.8118  -12.5794  -18.3051 C   0  0  2  0  0  0  0  0  0  0  0  0
   22.3065  -11.7912  -19.4968 C   0  0  0  0  0  0  0  0  0  0  0  0
   22.1089  -11.9000  -17.0028 C   0  0  2  0  0  0  0  0  0  0  0  0
   21.8614  -12.8232  -15.9236 N   0  0  0  0  0  0  0  0  0  0  0  0
   21.4540  -10.6060  -16.8154 C   0  0  0  0  0  0  0  0  0  0  0  0
   21.5765   -9.7186  -17.6940 O   0  0  0  0  0  0  0  0  0  0  0  0
   20.6700  -10.2836  -15.6739 N   0  0  0  0  0  0  0  0  0  0  0  0
   19.8672   -9.0824  -15.5666 C   0  0  1  0  0  0  0  0  0  0  0  0
   18.6138   -9.3980  -14.7642 C   0  0  0  0  0  0  0  0  0  0  0  0
   17.6012  -10.0672  -15.6081 C   0  0  0  0  0  0  0  0  0  0  0  0
   16.6046   -9.4629  -16.3811 C   0  0  0  0  0  0  0  0  0  0  0  0
   15.9244  -10.4618  -16.9719 N   0  0  0  0  0  0  0  0  0  0  0  0
   16.4378  -11.6483  -16.6129 C   0  0  0  0  0  0  0  0  0  0  0  0
   17.4602  -11.3802  -15.7801 N   0  0  0  0  0  0  0  0  0  0  0  0
   20.6878   -8.0738  -14.8220 C   0  0  0  0  0  0  0  0  0  0  0  0
   21.3002   -8.3610  -13.7653 O   0  0  0  0  0  0  0  0  0  0  0  0
   20.7965   -6.7391  -15.3018 N   0  0  0  0  0  0  0  0  0  0  0  0
   21.6216   -5.7797  -14.5729 C   0  0  1  0  0  0  0  0  0  0  0  0
   22.7478   -5.2858  -15.4423 C   0  0  0  0  0  0  0  0  0  0  0  0
   23.6443   -3.9963  -14.5285 S   0  0  0  0  0  0  0  0  0  0  0  0
   20.7883   -4.5848  -14.1899 C   0  0  0  0  0  0  0  0  0  0  0  0
   21.0913   -3.8423  -13.0751 O   0  0  0  0  0  0  0  0  0  0  0  0
   19.8166   -4.2732  -14.8960 O   0  0  0  0  0  0  0  0  0  0  0  0
  2  1  1  0
  3  2  1  0
  3  4  1  6
  5  3  1  0
  5  7  1  0
  5  6  1  1
  7  8  2  0
  9  7  1  0
  9 10  1  0
 10 11  1  1
 11 12  1  0
 12 13  2  0
 13 14  1  0
 15 14  1  0
 16 12  1  0
 16 15  2  0
 17 10  1  0
 17 18  2  0
 19 17  1  0
 20 23  1  0
 20 19  1  0
 20 21  1  6
 22 21  1  0
 23 24  1  0
 25 23  2  0
M  END
$$$$
