IHC.pdb
     RDKit          3D

 25 25  0  0  1  0  0  0  0  0999 V2000
   25.8751  -20.4402   -8.3835 C   0  0  0  0  0  0  0  0  0  0  0  0
   25.0117  -21.0877   -9.4424 C   0  0  0  0  0  0  0  0  0  0  0  0
   25.3377  -20.5630  -10.8197 C   0  0  2  0  0  0  0  0  0  0  0  0
   24.5468  -19.2947  -11.0483 C   0  0  0  0  0  0  0  0  0  0  0  0
   25.1319  -21.5730  -11.9075 C   0  0  2  0  0  0  0  0  0  0  0  0
   25.8702  -22.7685  -11.5851 N   0  0  0  0  0  0  0  0  0  0  0  0
   25.3881  -21.0857  -13.2623 C   0  0  0  0  0  0  0  0  0  0  0  0
   26.5643  -21.0629  -13.6984 O   0  0  0  0  0  0  0  0  0  0  0  0
   24.3644  -20.6257  -14.1352 N   0  0  0  0  0  0  0  0  0  0  0  0
   24.6170  -20.1154  -15.4674 C   0  0  1  0  0  0  0  0  0  0  0  0
   23.7811  -20.9049  -16.4637 C   0  0  0  0  0  0  0  0  0  0  0  0
   24.4275  -22.1934  -16.7912 C   0  0  0  0  0  0  0  0  0  0  0  0
   25.6615  -22.6662  -16.3334 C   0  0  0  0  0  0  0  0  0  0  0  0
   25.8357  -23.8769  -16.8935 N   0  0  0  0  0  0  0  0  0  0  0  0
   24.7855  -24.1839  -17.6702 C   0  0  0  0  0  0  0  0  0  0  0  0
   23.9400  -23.1401  -17.5908 N   0  0  0  0  0  0  0  0  0  0  0  0
   24.1741  -18.6840  -15.4780 C   0  0  0  0  0  0  0  0  0  0  0  0
   23.1210  -18.3072  -14.9094 O   0  0  0  0  0  0  0  0  0  0  0  0
   24.9498  -17.6957  -16.1450 N   0  0  0  0  0  0  0  0  0  0  0  0
   24.5035  -16.3053  -16.1337 C   0  0  1  0  0  0  0  0  0  0  0  0
   25.6852  -15.3724  -16.1739 C   0  0  0  0  0  0  0  0  0  0  0  0
   26.6421  -15.6052  -14.6469 S   0  0  0  0  0  0  0  0  0  0  0  0
   23.6698  -16.0322  -17.3581 C   0  0  0  0  0  0  0  0  0  0  0  0
   22.6987  -15.0613  -17.3474 O   0  0  0  0  0  0  0  0  0  0  0  0
   23.8688  -16.6974  -18.3865 O   0  0  0  0  0  0  0  0  0  0  0  0
  2  1  1  0
  3  2  1  0
  3  4  1  6
  5  3  1  0
  5  7  1  0
  5  6  1  1
  7  8  2  0
  9  7  1  0
  9 10  1  0
 10 11  1  6
 11 12  1  0
 12 13  2  0
 13 14  1  0
 15 14  1  0
 16 12  1  0
 16 15  2  0
 17 10  1  0
 17 18  2  0
 19 17  1  0
 20 23  1  0
 20 19  1  0
 20 21  1  6
 22 21  1  0
 23 24  1  0
 25 23  2  0
M  END
$$$$
