IHC.pdb
     RDKit          3D

 25 25  0  0  1  0  0  0  0  0999 V2000
   25.5182  -21.2358   -8.9903 C   0  0  0  0  0  0  0  0  0  0  0  0
   24.3346  -20.8598   -9.8527 C   0  0  0  0  0  0  0  0  0  0  0  0
   24.6915  -20.8740  -11.3193 C   0  0  2  0  0  0  0  0  0  0  0  0
   26.0198  -20.1734  -11.4955 C   0  0  0  0  0  0  0  0  0  0  0  0
   23.6203  -20.3057  -12.1999 C   0  0  2  0  0  0  0  0  0  0  0  0
   22.3338  -20.7395  -11.7152 N   0  0  0  0  0  0  0  0  0  0  0  0
   23.8055  -20.5403  -13.6314 C   0  0  0  0  0  0  0  0  0  0  0  0
   24.8681  -20.1689  -14.1858 O   0  0  0  0  0  0  0  0  0  0  0  0
   22.8347  -21.1769  -14.4522 N   0  0  0  0  0  0  0  0  0  0  0  0
   23.0125  -21.4076  -15.8714 C   0  0  1  0  0  0  0  0  0  0  0  0
   22.4702  -22.7861  -16.2178 C   0  0  0  0  0  0  0  0  0  0  0  0
   23.3641  -23.8481  -15.7094 C   0  0  0  0  0  0  0  0  0  0  0  0
   24.6525  -23.6970  -15.1867 C   0  0  0  0  0  0  0  0  0  0  0  0
   25.0751  -24.9306  -14.8560 N   0  0  0  0  0  0  0  0  0  0  0  0
   24.1281  -25.8373  -15.1414 C   0  0  0  0  0  0  0  0  0  0  0  0
   23.0938  -25.1511  -15.6612 N   0  0  0  0  0  0  0  0  0  0  0  0
   22.2064  -20.3670  -16.5873 C   0  0  0  0  0  0  0  0  0  0  0  0
   21.3182  -19.6960  -16.0084 O   0  0  0  0  0  0  0  0  0  0  0  0
   22.4304  -20.1072  -17.9678 N   0  0  0  0  0  0  0  0  0  0  0  0
   21.9014  -18.8828  -18.5624 C   0  0  1  0  0  0  0  0  0  0  0  0
   22.5713  -17.6742  -17.9634 C   0  0  0  0  0  0  0  0  0  0  0  0
   21.9165  -16.1956  -18.7921 S   0  0  0  0  0  0  0  0  0  0  0  0
   22.1896  -18.8735  -20.0408 C   0  0  0  0  0  0  0  0  0  0  0  0
   23.4079  -19.2836  -20.5240 O   0  0  0  0  0  0  0  0  0  0  0  0
   21.3097  -18.4888  -20.8265 O   0  0  0  0  0  0  0  0  0  0  0  0
  2  1  1  0
  3  2  1  0
  3  4  1  1
  5  3  1  0
  5  7  1  0
  5  6  1  1
  7  8  2  0
  9  7  1  0
  9 10  1  0
 10 11  1  1
 11 12  1  0
 12 13  2  0
 13 14  1  0
 15 14  1  0
 16 12  1  0
 16 15  2  0
 17 10  1  0
 17 18  2  0
 19 17  1  0
 20 23  1  0
 20 19  1  0
 20 21  1  1
 22 21  1  0
 23 24  1  0
 25 23  2  0
M  END
$$$$
