IHC.pdb
     RDKit          3D

 25 25  0  0  1  0  0  0  0  0999 V2000
   15.5385  -14.4870  -16.5236 C   0  0  0  0  0  0  0  0  0  0  0  0
   16.9188  -14.2030  -17.0715 C   0  0  0  0  0  0  0  0  0  0  0  0
   17.6317  -13.1503  -16.2579 C   0  0  2  0  0  0  0  0  0  0  0  0
   16.7815  -11.8999  -16.2428 C   0  0  0  0  0  0  0  0  0  0  0  0
   19.0332  -12.8872  -16.7188 C   0  0  2  0  0  0  0  0  0  0  0  0
   19.7813  -14.1188  -16.6759 N   0  0  0  0  0  0  0  0  0  0  0  0
   19.7092  -11.7789  -16.0457 C   0  0  0  0  0  0  0  0  0  0  0  0
   20.0812  -11.9138  -14.8550 O   0  0  0  0  0  0  0  0  0  0  0  0
   19.9769  -10.5300  -16.6705 N   0  0  0  0  0  0  0  0  0  0  0  0
   20.5803   -9.4048  -15.9859 C   0  0  1  0  0  0  0  0  0  0  0  0
   21.9742   -9.1751  -16.5505 C   0  0  0  0  0  0  0  0  0  0  0  0
   22.9185  -10.2008  -16.0590 C   0  0  0  0  0  0  0  0  0  0  0  0
   23.4683  -11.2656  -16.7801 C   0  0  0  0  0  0  0  0  0  0  0  0
   24.2667  -11.9306  -15.9256 N   0  0  0  0  0  0  0  0  0  0  0  0
   24.2457  -11.3437  -14.7191 C   0  0  0  0  0  0  0  0  0  0  0  0
   23.4155  -10.2902  -14.8268 N   0  0  0  0  0  0  0  0  0  0  0  0
   19.7274   -8.2078  -16.2775 C   0  0  0  0  0  0  0  0  0  0  0  0
   19.2248   -8.0064  -17.4093 O   0  0  0  0  0  0  0  0  0  0  0  0
   19.4598   -7.2501  -15.2603 N   0  0  0  0  0  0  0  0  0  0  0  0
   18.7238   -6.0341  -15.5956 C   0  0  1  0  0  0  0  0  0  0  0  0
   17.5951   -5.8163  -14.6226 C   0  0  0  0  0  0  0  0  0  0  0  0
   16.8560   -4.1926  -14.9677 S   0  0  0  0  0  0  0  0  0  0  0  0
   19.6421   -4.8442  -15.4969 C   0  0  0  0  0  0  0  0  0  0  0  0
   19.5492   -3.8061  -16.3910 O   0  0  0  0  0  0  0  0  0  0  0  0
   20.4914   -4.8086  -14.5929 O   0  0  0  0  0  0  0  0  0  0  0  0
  2  1  1  0
  3  2  1  0
  3  4  1  6
  5  3  1  0
  5  7  1  0
  5  6  1  1
  7  8  2  0
  9  7  1  0
  9 10  1  0
 10 11  1  6
 11 12  1  0
 12 13  2  0
 13 14  1  0
 15 14  1  0
 16 12  1  0
 16 15  2  0
 17 10  1  0
 17 18  2  0
 19 17  1  0
 20 23  1  0
 20 19  1  0
 20 21  1  1
 22 21  1  0
 23 24  1  0
 25 23  2  0
M  END
$$$$
