AEH.pdb
     RDKit          3D

 25 25  0  0  1  0  0  0  0  0999 V2000
   23.9426  -12.0991  -15.3509 C   0  0  0  0  0  0  0  0  0  0  0  0
   22.8696  -11.5053  -16.2683 C   0  0  2  0  0  0  0  0  0  0  0  0
   23.5303  -10.9398  -17.4090 N   0  0  0  0  0  0  0  0  0  0  0  0
   22.1217  -10.4754  -15.5221 C   0  0  0  0  0  0  0  0  0  0  0  0
   21.4605  -10.8080  -14.5001 O   0  0  0  0  0  0  0  0  0  0  0  0
   22.1378   -9.1247  -15.9382 N   0  0  0  0  0  0  0  0  0  0  0  0
   21.3393   -8.0823  -15.2802 C   0  0  1  0  0  0  0  0  0  0  0  0
   22.1505   -6.8640  -15.0240 C   0  0  0  0  0  0  0  0  0  0  0  0
   21.3766   -5.8268  -14.2981 C   0  0  0  0  0  0  0  0  0  0  0  0
   22.2329   -4.6034  -14.0236 C   0  0  0  0  0  0  0  0  0  0  0  0
   23.4487   -4.7305  -14.3168 O   0  0  0  0  0  0  0  0  0  0  0  0
   20.1378   -7.7831  -16.1051 C   0  0  0  0  0  0  0  0  0  0  0  0
   20.1117   -7.6748  -17.3446 O   0  0  0  0  0  0  0  0  0  0  0  0
   21.7017   -3.4581  -13.4962 O   0  0  0  0  0  0  0  0  0  0  0  0
   18.8561   -7.5903  -15.4685 N   0  0  0  0  0  0  0  0  0  0  0  0
   17.6564   -7.3107  -16.2582 C   0  0  1  0  0  0  0  0  0  0  0  0
   16.6960   -8.4536  -16.2136 C   0  0  0  0  0  0  0  0  0  0  0  0
   15.4900   -8.1266  -16.9930 C   0  0  0  0  0  0  0  0  0  0  0  0
   15.0106   -6.8490  -17.2181 C   0  0  0  0  0  0  0  0  0  0  0  0
   13.9059   -6.9421  -17.9610 N   0  0  0  0  0  0  0  0  0  0  0  0
   13.6932   -8.2390  -18.1983 C   0  0  0  0  0  0  0  0  0  0  0  0
   14.6412   -8.9589  -17.6199 N   0  0  0  0  0  0  0  0  0  0  0  0
   17.0995   -6.0382  -15.7699 C   0  0  0  0  0  0  0  0  0  0  0  0
   16.6485   -5.0751  -16.6450 O   0  0  0  0  0  0  0  0  0  0  0  0
   17.0295   -5.8141  -14.5419 O   0  0  0  0  0  0  0  0  0  0  0  0
  2  1  1  1
  2  4  1  0
  2  3  1  0
  4  5  2  0
  6  4  1  0
  7  6  1  0
  7  8  1  6
  9  8  1  0
 10  9  1  0
 10 14  1  0
 11 10  2  0
 12  7  1  0
 13 12  2  0
 15 12  1  0
 16 17  1  1
 16 15  1  0
 17 18  1  0
 18 22  1  0
 19 18  2  0
 19 20  1  0
 20 21  1  0
 22 21  2  0
 23 16  1  0
 24 23  1  0
 25 23  2  0
M  END
$$$$
