AEH.pdb
     RDKit          3D

 25 25  0  0  1  0  0  0  0  0999 V2000
   28.9666  -20.7840  -16.8726 C   0  0  0  0  0  0  0  0  0  0  0  0
   27.6351  -21.5261  -16.7254 C   0  0  2  0  0  0  0  0  0  0  0  0
   27.3700  -22.2030  -17.9620 N   0  0  0  0  0  0  0  0  0  0  0  0
   26.5754  -20.5468  -16.4174 C   0  0  0  0  0  0  0  0  0  0  0  0
   26.8662  -19.5002  -15.7753 O   0  0  0  0  0  0  0  0  0  0  0  0
   25.2424  -20.7675  -16.8324 N   0  0  0  0  0  0  0  0  0  0  0  0
   24.1436  -19.8551  -16.4900 C   0  0  1  0  0  0  0  0  0  0  0  0
   23.4119  -19.4136  -17.7056 C   0  0  0  0  0  0  0  0  0  0  0  0
   24.2254  -18.4919  -18.5366 C   0  0  0  0  0  0  0  0  0  0  0  0
   23.4521  -18.0410  -19.7629 C   0  0  0  0  0  0  0  0  0  0  0  0
   22.8058  -18.9483  -20.3456 O   0  0  0  0  0  0  0  0  0  0  0  0
   23.2393  -20.5137  -15.5092 C   0  0  0  0  0  0  0  0  0  0  0  0
   22.9136  -21.7148  -15.5084 O   0  0  0  0  0  0  0  0  0  0  0  0
   23.4704  -16.7399  -20.1857 O   0  0  0  0  0  0  0  0  0  0  0  0
   22.6545  -19.7428  -14.4372 N   0  0  0  0  0  0  0  0  0  0  0  0
   21.8560  -20.3869  -13.3939 C   0  0  1  0  0  0  0  0  0  0  0  0
   22.2702  -19.9334  -12.0325 C   0  0  0  0  0  0  0  0  0  0  0  0
   23.4597  -20.6830  -11.5941 C   0  0  0  0  0  0  0  0  0  0  0  0
   24.1010  -21.6605  -12.3331 C   0  0  0  0  0  0  0  0  0  0  0  0
   25.1329  -22.1146  -11.6190 N   0  0  0  0  0  0  0  0  0  0  0  0
   25.1437  -21.4448  -10.4637 C   0  0  0  0  0  0  0  0  0  0  0  0
   24.1407  -20.5816  -10.4400 N   0  0  0  0  0  0  0  0  0  0  0  0
   20.4404  -20.1311  -13.7078 C   0  0  0  0  0  0  0  0  0  0  0  0
   19.4457  -20.9626  -13.2430 O   0  0  0  0  0  0  0  0  0  0  0  0
   20.1211  -19.1458  -14.4082 O   0  0  0  0  0  0  0  0  0  0  0  0
  2  1  1  6
  2  4  1  0
  2  3  1  0
  4  5  2  0
  6  4  1  0
  7  6  1  0
  7  8  1  6
  9  8  1  0
 10  9  1  0
 10 14  1  0
 11 10  2  0
 12  7  1  0
 13 12  2  0
 15 12  1  0
 16 17  1  1
 16 15  1  0
 17 18  1  0
 18 22  1  0
 19 18  2  0
 19 20  1  0
 20 21  1  0
 22 21  2  0
 23 16  1  0
 24 23  1  0
 25 23  2  0
M  END
$$$$
