AEH.pdb
     RDKit          3D

 25 25  0  0  1  0  0  0  0  0999 V2000
   18.4521  -11.6996  -18.1739 C   0  0  0  0  0  0  0  0  0  0  0  0
   17.3716  -10.7182  -17.7104 C   0  0  2  0  0  0  0  0  0  0  0  0
   16.3140  -10.7390  -18.6793 N   0  0  0  0  0  0  0  0  0  0  0  0
   17.9660   -9.3723  -17.6006 C   0  0  0  0  0  0  0  0  0  0  0  0
   18.5242   -8.8570  -18.6081 O   0  0  0  0  0  0  0  0  0  0  0  0
   17.9170   -8.6561  -16.3830 N   0  0  0  0  0  0  0  0  0  0  0  0
   18.4260   -7.2851  -16.2481 C   0  0  1  0  0  0  0  0  0  0  0  0
   17.4148   -6.3947  -15.6212 C   0  0  0  0  0  0  0  0  0  0  0  0
   16.3952   -5.9412  -16.5991 C   0  0  0  0  0  0  0  0  0  0  0  0
   15.3870   -5.0152  -15.9422 C   0  0  0  0  0  0  0  0  0  0  0  0
   15.5466   -4.8486  -14.7065 O   0  0  0  0  0  0  0  0  0  0  0  0
   19.6998   -7.3022  -15.4795 C   0  0  0  0  0  0  0  0  0  0  0  0
   20.2863   -8.3168  -15.0608 O   0  0  0  0  0  0  0  0  0  0  0  0
   14.3872   -4.4168  -16.6593 O   0  0  0  0  0  0  0  0  0  0  0  0
   20.3647   -6.0612  -15.1584 N   0  0  0  0  0  0  0  0  0  0  0  0
   21.7335   -6.0510  -14.6414 C   0  0  1  0  0  0  0  0  0  0  0  0
   22.6629   -6.7930  -15.5449 C   0  0  0  0  0  0  0  0  0  0  0  0
   22.7151   -8.2123  -15.1553 C   0  0  0  0  0  0  0  0  0  0  0  0
   22.1106   -8.7523  -14.0347 C   0  0  0  0  0  0  0  0  0  0  0  0
   22.3724  -10.0607  -14.0082 N   0  0  0  0  0  0  0  0  0  0  0  0
   23.1197  -10.3394  -15.0794 C   0  0  0  0  0  0  0  0  0  0  0  0
   23.3308   -9.2335  -15.7751 N   0  0  0  0  0  0  0  0  0  0  0  0
   22.1059   -4.6437  -14.4206 C   0  0  0  0  0  0  0  0  0  0  0  0
   22.9271   -4.2790  -13.3769 O   0  0  0  0  0  0  0  0  0  0  0  0
   21.6756   -3.7534  -15.1857 O   0  0  0  0  0  0  0  0  0  0  0  0
  2  1  1  6
  2  4  1  0
  2  3  1  0
  4  5  2  0
  6  4  1  0
  7  6  1  0
  7  8  1  1
  9  8  1  0
 10  9  1  0
 10 14  1  0
 11 10  2  0
 12  7  1  0
 13 12  2  0
 15 12  1  0
 16 17  1  6
 16 15  1  0
 17 18  1  0
 18 22  1  0
 19 18  2  0
 19 20  1  0
 20 21  1  0
 22 21  2  0
 23 16  1  0
 24 23  1  0
 25 23  2  0
M  END
$$$$
