AEH.pdb
     RDKit          3D

 25 25  0  0  1  0  0  0  0  0999 V2000
   15.0462  -13.0629  -16.2877 C   0  0  0  0  0  0  0  0  0  0  0  0
   16.3550  -13.8474  -16.4196 C   0  0  2  0  0  0  0  0  0  0  0  0
   16.2387  -15.0338  -15.6219 N   0  0  0  0  0  0  0  0  0  0  0  0
   17.4679  -12.9990  -15.9521 C   0  0  0  0  0  0  0  0  0  0  0  0
   17.5025  -12.6311  -14.7456 O   0  0  0  0  0  0  0  0  0  0  0  0
   18.4925  -12.5953  -16.8381 N   0  0  0  0  0  0  0  0  0  0  0  0
   19.6105  -11.7392  -16.4207 C   0  0  1  0  0  0  0  0  0  0  0  0
   20.8472  -12.0609  -17.1792 C   0  0  0  0  0  0  0  0  0  0  0  0
   21.9899  -11.2125  -16.7593 C   0  0  0  0  0  0  0  0  0  0  0  0
   23.2561  -11.6011  -17.5016 C   0  0  0  0  0  0  0  0  0  0  0  0
   23.5615  -10.8470  -18.4599 O   0  0  0  0  0  0  0  0  0  0  0  0
   19.2247  -10.3104  -16.5727 C   0  0  0  0  0  0  0  0  0  0  0  0
   18.5003   -9.8411  -17.4692 O   0  0  0  0  0  0  0  0  0  0  0  0
   23.9950  -12.6940  -17.1389 O   0  0  0  0  0  0  0  0  0  0  0  0
   19.7021   -9.3301  -15.6258 N   0  0  0  0  0  0  0  0  0  0  0  0
   19.2762   -7.9327  -15.7078 C   0  0  1  0  0  0  0  0  0  0  0  0
   17.7874   -7.8148  -15.6914 C   0  0  0  0  0  0  0  0  0  0  0  0
   17.3964   -6.3950  -15.6751 C   0  0  0  0  0  0  0  0  0  0  0  0
   17.9056   -5.4201  -16.5135 C   0  0  0  0  0  0  0  0  0  0  0  0
   17.3201   -4.2600  -16.2095 N   0  0  0  0  0  0  0  0  0  0  0  0
   16.4666   -4.4943  -15.2094 C   0  0  0  0  0  0  0  0  0  0  0  0
   16.5059   -5.7759  -14.8814 N   0  0  0  0  0  0  0  0  0  0  0  0
   19.9487   -7.2070  -14.6174 C   0  0  0  0  0  0  0  0  0  0  0  0
   20.1138   -5.8406  -14.6661 O   0  0  0  0  0  0  0  0  0  0  0  0
   20.3833   -7.8296  -13.6240 O   0  0  0  0  0  0  0  0  0  0  0  0
  2  1  1  1
  2  4  1  0
  2  3  1  0
  4  5  2  0
  6  4  1  0
  7  6  1  0
  7  8  1  6
  9  8  1  0
 10  9  1  0
 10 14  1  0
 11 10  2  0
 12  7  1  0
 13 12  2  0
 15 12  1  0
 16 17  1  1
 16 15  1  0
 17 18  1  0
 18 22  1  0
 19 18  2  0
 19 20  1  0
 20 21  1  0
 22 21  2  0
 23 16  1  0
 24 23  1  0
 25 23  2  0
M  END
$$$$
