AEH.pdb
     RDKit          3D

 25 25  0  0  1  0  0  0  0  0999 V2000
   16.0595  -13.3024  -16.6409 C   0  0  0  0  0  0  0  0  0  0  0  0
   17.3388  -13.5191  -17.4545 C   0  0  2  0  0  0  0  0  0  0  0  0
   17.7207  -14.8947  -17.3151 N   0  0  0  0  0  0  0  0  0  0  0  0
   18.3893  -12.6206  -16.9388 C   0  0  0  0  0  0  0  0  0  0  0  0
   18.5006  -12.4472  -15.6939 O   0  0  0  0  0  0  0  0  0  0  0  0
   19.2694  -11.9539  -17.8213 N   0  0  0  0  0  0  0  0  0  0  0  0
   20.3493  -11.0762  -17.3517 C   0  0  1  0  0  0  0  0  0  0  0  0
   21.5860  -11.2683  -18.1529 C   0  0  0  0  0  0  0  0  0  0  0  0
   22.2468  -12.5615  -17.8485 C   0  0  0  0  0  0  0  0  0  0  0  0
   23.5267  -12.7190  -18.6500 C   0  0  0  0  0  0  0  0  0  0  0  0
   24.3474  -11.7745  -18.5296 O   0  0  0  0  0  0  0  0  0  0  0  0
   19.8868   -9.6624  -17.3793 C   0  0  0  0  0  0  0  0  0  0  0  0
   19.1130   -9.1635  -18.2166 O   0  0  0  0  0  0  0  0  0  0  0  0
   23.7506  -13.8146  -19.4383 O   0  0  0  0  0  0  0  0  0  0  0  0
   20.3417   -8.7353  -16.3699 N   0  0  0  0  0  0  0  0  0  0  0  0
   19.8340   -7.3638  -16.3220 C   0  0  1  0  0  0  0  0  0  0  0  0
   18.3479   -7.3376  -16.1760 C   0  0  0  0  0  0  0  0  0  0  0  0
   17.8773   -5.9453  -16.0807 C   0  0  0  0  0  0  0  0  0  0  0  0
   18.3178   -4.9008  -16.8731 C   0  0  0  0  0  0  0  0  0  0  0  0
   17.6720   -3.7935  -16.5017 N   0  0  0  0  0  0  0  0  0  0  0  0
   16.8484   -4.1277  -15.5050 C   0  0  0  0  0  0  0  0  0  0  0  0
   16.9652   -5.4201  -15.2450 N   0  0  0  0  0  0  0  0  0  0  0  0
   20.5563   -6.6687  -15.2436 C   0  0  0  0  0  0  0  0  0  0  0  0
   20.5070   -5.2978  -15.1211 O   0  0  0  0  0  0  0  0  0  0  0  0
   21.2310   -7.3217  -14.4180 O   0  0  0  0  0  0  0  0  0  0  0  0
  2  1  1  1
  2  4  1  0
  2  3  1  0
  4  5  2  0
  6  4  1  0
  7  6  1  0
  7  8  1  6
  9  8  1  0
 10  9  1  0
 10 14  1  0
 11 10  2  0
 12  7  1  0
 13 12  2  0
 15 12  1  0
 16 17  1  1
 16 15  1  0
 17 18  1  0
 18 22  1  0
 19 18  2  0
 19 20  1  0
 20 21  1  0
 22 21  2  0
 23 16  1  0
 24 23  1  0
 25 23  2  0
M  END
$$$$
