AEH.pdb
     RDKit          3D

 25 25  0  0  1  0  0  0  0  0999 V2000
   22.7957  -11.0921  -22.2270 C   0  0  0  0  0  0  0  0  0  0  0  0
   21.6201  -11.0860  -21.2453 C   0  0  2  0  0  0  0  0  0  0  0  0
   20.4090  -11.0129  -22.0104 N   0  0  0  0  0  0  0  0  0  0  0  0
   21.7541   -9.9218  -20.3489 C   0  0  0  0  0  0  0  0  0  0  0  0
   22.7580   -9.8367  -19.5892 O   0  0  0  0  0  0  0  0  0  0  0  0
   20.7734   -8.9041  -20.3320 N   0  0  0  0  0  0  0  0  0  0  0  0
   20.8688   -7.7249  -19.4616 C   0  0  1  0  0  0  0  0  0  0  0  0
   20.0728   -6.5920  -20.0010 C   0  0  0  0  0  0  0  0  0  0  0  0
   20.7701   -5.9086  -21.1183 C   0  0  0  0  0  0  0  0  0  0  0  0
   19.9580   -4.7302  -21.6253 C   0  0  0  0  0  0  0  0  0  0  0  0
   18.8599   -4.5518  -21.0400 O   0  0  0  0  0  0  0  0  0  0  0  0
   20.4461   -8.0906  -18.0828 C   0  0  0  0  0  0  0  0  0  0  0  0
   19.4805   -8.8165  -17.7835 O   0  0  0  0  0  0  0  0  0  0  0  0
   20.4056   -3.9343  -22.6443 O   0  0  0  0  0  0  0  0  0  0  0  0
   21.1825   -7.5894  -16.9463 N   0  0  0  0  0  0  0  0  0  0  0  0
   20.7469   -7.8767  -15.5792 C   0  0  1  0  0  0  0  0  0  0  0  0
   21.5221   -9.0072  -14.9864 C   0  0  0  0  0  0  0  0  0  0  0  0
   21.2401   -9.1077  -13.5445 C   0  0  0  0  0  0  0  0  0  0  0  0
   19.9774   -9.1319  -12.9807 C   0  0  0  0  0  0  0  0  0  0  0  0
   20.1127   -9.2293  -11.6566 N   0  0  0  0  0  0  0  0  0  0  0  0
   21.4211   -9.2655  -11.3913 C   0  0  0  0  0  0  0  0  0  0  0  0
   22.1068   -9.1929  -12.5209 N   0  0  0  0  0  0  0  0  0  0  0  0
   20.8403   -6.6196  -14.8184 C   0  0  0  0  0  0  0  0  0  0  0  0
   21.9643   -5.8267  -14.8872 O   0  0  0  0  0  0  0  0  0  0  0  0
   19.8905   -6.2535  -14.0923 O   0  0  0  0  0  0  0  0  0  0  0  0
  2  1  1  6
  2  4  1  0
  2  3  1  0
  4  5  2  0
  6  4  1  0
  7  6  1  0
  7  8  1  6
  9  8  1  0
 10  9  1  0
 10 14  1  0
 11 10  2  0
 12  7  1  0
 13 12  2  0
 15 12  1  0
 16 17  1  1
 16 15  1  0
 17 18  1  0
 18 22  1  0
 19 18  2  0
 19 20  1  0
 20 21  1  0
 22 21  2  0
 23 16  1  0
 24 23  1  0
 25 23  2  0
M  END
$$$$
