AEH.pdb
     RDKit          3D

 25 25  0  0  1  0  0  0  0  0999 V2000
   24.6342  -11.9182  -22.0471 C   0  0  0  0  0  0  0  0  0  0  0  0
   25.0347  -11.3555  -20.6801 C   0  0  2  0  0  0  0  0  0  0  0  0
   25.1800  -12.4594  -19.7758 N   0  0  0  0  0  0  0  0  0  0  0  0
   23.9843  -10.4266  -20.2211 C   0  0  0  0  0  0  0  0  0  0  0  0
   23.7727   -9.3627  -20.8658 O   0  0  0  0  0  0  0  0  0  0  0  0
   23.2151  -10.7145  -19.0707 N   0  0  0  0  0  0  0  0  0  0  0  0
   22.1702   -9.8124  -18.5690 C   0  0  1  0  0  0  0  0  0  0  0  0
   21.2131  -10.5334  -17.6902 C   0  0  0  0  0  0  0  0  0  0  0  0
   20.1124   -9.6512  -17.2301 C   0  0  0  0  0  0  0  0  0  0  0  0
   19.1467  -10.4091  -16.3366 C   0  0  0  0  0  0  0  0  0  0  0  0
   18.9654   -9.9015  -15.2009 O   0  0  0  0  0  0  0  0  0  0  0  0
   22.8025   -8.6610  -17.8705 C   0  0  0  0  0  0  0  0  0  0  0  0
   23.7778   -8.7206  -17.0997 O   0  0  0  0  0  0  0  0  0  0  0  0
   18.5303  -11.5567  -16.7551 O   0  0  0  0  0  0  0  0  0  0  0  0
   22.2832   -7.3274  -18.0633 N   0  0  0  0  0  0  0  0  0  0  0  0
   22.9238   -6.1708  -17.4365 C   0  0  1  0  0  0  0  0  0  0  0  0
   23.9055   -5.5253  -18.3585 C   0  0  0  0  0  0  0  0  0  0  0  0
   24.5100   -4.3515  -17.7062 C   0  0  0  0  0  0  0  0  0  0  0  0
   25.2814   -4.3884  -16.5588 C   0  0  0  0  0  0  0  0  0  0  0  0
   25.6535   -3.1408  -16.2651 N   0  0  0  0  0  0  0  0  0  0  0  0
   25.1332   -2.3396  -17.1983 C   0  0  0  0  0  0  0  0  0  0  0  0
   24.4438   -3.0592  -18.0692 N   0  0  0  0  0  0  0  0  0  0  0  0
   21.8505   -5.2734  -16.9774 C   0  0  0  0  0  0  0  0  0  0  0  0
   20.5399   -5.4835  -17.3448 O   0  0  0  0  0  0  0  0  0  0  0  0
   22.1192   -4.2991  -16.2414 O   0  0  0  0  0  0  0  0  0  0  0  0
  2  1  1  6
  2  4  1  0
  2  3  1  0
  4  5  2  0
  6  4  1  0
  7  6  1  0
  7  8  1  1
  9  8  1  0
 10  9  1  0
 10 14  1  0
 11 10  2  0
 12  7  1  0
 13 12  2  0
 15 12  1  0
 16 17  1  6
 16 15  1  0
 17 18  1  0
 18 22  1  0
 19 18  2  0
 19 20  1  0
 20 21  1  0
 22 21  2  0
 23 16  1  0
 24 23  1  0
 25 23  2  0
M  END
$$$$
