AEH.pdb
     RDKit          3D

 25 25  0  0  1  0  0  0  0  0999 V2000
   25.8766  -13.3484  -15.3587 C   0  0  0  0  0  0  0  0  0  0  0  0
   24.6357  -14.0445  -15.9254 C   0  0  2  0  0  0  0  0  0  0  0  0
   25.0517  -14.8454  -17.0403 N   0  0  0  0  0  0  0  0  0  0  0  0
   23.6620  -13.0174  -16.3421 C   0  0  0  0  0  0  0  0  0  0  0  0
   23.8755  -12.3503  -17.3917 O   0  0  0  0  0  0  0  0  0  0  0  0
   22.4963  -12.7733  -15.5808 N   0  0  0  0  0  0  0  0  0  0  0  0
   21.4545  -11.8292  -16.0058 C   0  0  1  0  0  0  0  0  0  0  0  0
   20.1191  -12.2365  -15.4971 C   0  0  0  0  0  0  0  0  0  0  0  0
   19.0308  -11.4128  -16.0792 C   0  0  0  0  0  0  0  0  0  0  0  0
   17.6870  -11.7864  -15.4793 C   0  0  0  0  0  0  0  0  0  0  0  0
   17.7478  -12.4838  -14.4352 O   0  0  0  0  0  0  0  0  0  0  0  0
   21.8193  -10.4562  -15.5640 C   0  0  0  0  0  0  0  0  0  0  0  0
   22.3339  -10.1531  -14.4722 O   0  0  0  0  0  0  0  0  0  0  0  0
   16.5093  -11.3839  -16.0478 O   0  0  0  0  0  0  0  0  0  0  0  0
   21.5792   -9.3307  -16.4362 N   0  0  0  0  0  0  0  0  0  0  0  0
   22.0408   -7.9887  -16.0799 C   0  0  1  0  0  0  0  0  0  0  0  0
   21.9663   -7.0591  -17.2465 C   0  0  0  0  0  0  0  0  0  0  0  0
   22.4927   -5.7365  -16.8689 C   0  0  0  0  0  0  0  0  0  0  0  0
   23.8260   -5.4457  -16.6442 C   0  0  0  0  0  0  0  0  0  0  0  0
   23.9237   -4.1538  -16.3239 N   0  0  0  0  0  0  0  0  0  0  0  0
   22.6898   -3.6434  -16.3455 C   0  0  0  0  0  0  0  0  0  0  0  0
   21.8226   -4.5883  -16.6724 N   0  0  0  0  0  0  0  0  0  0  0  0
   21.2558   -7.5529  -14.9130 C   0  0  0  0  0  0  0  0  0  0  0  0
   21.8545   -6.9155  -13.8490 O   0  0  0  0  0  0  0  0  0  0  0  0
   20.0233   -7.7594  -14.8733 O   0  0  0  0  0  0  0  0  0  0  0  0
  2  1  1  6
  2  4  1  0
  2  3  1  0
  4  5  2  0
  6  4  1  0
  7  6  1  0
  7  8  1  1
  9  8  1  0
 10  9  1  0
 10 14  1  0
 11 10  2  0
 12  7  1  0
 13 12  2  0
 15 12  1  0
 16 17  1  6
 16 15  1  0
 17 18  1  0
 18 22  1  0
 19 18  2  0
 19 20  1  0
 20 21  1  0
 22 21  2  0
 23 16  1  0
 24 23  1  0
 25 23  2  0
M  END
$$$$
