AEH.pdb
     RDKit          3D

 25 25  0  0  1  0  0  0  0  0999 V2000
   15.2875  -11.4788  -12.6039 C   0  0  0  0  0  0  0  0  0  0  0  0
   16.7988  -11.6217  -12.4009 C   0  0  2  0  0  0  0  0  0  0  0  0
   17.0345  -12.8551  -11.7076 N   0  0  0  0  0  0  0  0  0  0  0  0
   17.2852  -10.4699  -11.6176 C   0  0  0  0  0  0  0  0  0  0  0  0
   17.2575  -10.5212  -10.3572 O   0  0  0  0  0  0  0  0  0  0  0  0
   17.7804   -9.3133  -12.2619 N   0  0  0  0  0  0  0  0  0  0  0  0
   18.4061   -8.2041  -11.5301 C   0  0  1  0  0  0  0  0  0  0  0  0
   19.5501   -7.6358  -12.2893 C   0  0  0  0  0  0  0  0  0  0  0  0
   20.3065   -6.6421  -11.4880 C   0  0  0  0  0  0  0  0  0  0  0  0
   21.4596   -6.0635  -12.2887 C   0  0  0  0  0  0  0  0  0  0  0  0
   22.0065   -5.0539  -11.7770 O   0  0  0  0  0  0  0  0  0  0  0  0
   17.3799   -7.1720  -11.2217 C   0  0  0  0  0  0  0  0  0  0  0  0
   16.6076   -6.6424  -12.0413 O   0  0  0  0  0  0  0  0  0  0  0  0
   21.8579   -6.6147  -13.4759 O   0  0  0  0  0  0  0  0  0  0  0  0
   17.2164   -6.7004   -9.8666 N   0  0  0  0  0  0  0  0  0  0  0  0
   16.1706   -5.7357   -9.5250 C   0  0  1  0  0  0  0  0  0  0  0  0
   15.5946   -6.0116   -8.1749 C   0  0  0  0  0  0  0  0  0  0  0  0
   14.6056   -7.0992   -8.2638 C   0  0  0  0  0  0  0  0  0  0  0  0
   13.3087   -6.9593   -8.7234 C   0  0  0  0  0  0  0  0  0  0  0  0
   12.7120   -8.1514   -8.6597 N   0  0  0  0  0  0  0  0  0  0  0  0
   13.6044   -9.0184   -8.1746 C   0  0  0  0  0  0  0  0  0  0  0  0
   14.7463   -8.3943   -7.9336 N   0  0  0  0  0  0  0  0  0  0  0  0
   16.7544   -4.3913   -9.6661 C   0  0  0  0  0  0  0  0  0  0  0  0
   15.9768   -3.2607   -9.5483 O   0  0  0  0  0  0  0  0  0  0  0  0
   17.9758   -4.2589   -9.8979 O   0  0  0  0  0  0  0  0  0  0  0  0
  2  1  1  1
  2  4  1  0
  2  3  1  0
  4  5  2  0
  6  4  1  0
  7  6  1  0
  7  8  1  6
  9  8  1  0
 10  9  1  0
 10 14  1  0
 11 10  2  0
 12  7  1  0
 13 12  2  0
 15 12  1  0
 16 17  1  1
 16 15  1  0
 17 18  1  0
 18 22  1  0
 19 18  2  0
 19 20  1  0
 20 21  1  0
 22 21  2  0
 23 16  1  0
 24 23  1  0
 25 23  2  0
M  END
$$$$
