AEH.pdb
     RDKit          3D

 25 25  0  0  1  0  0  0  0  0999 V2000
   19.6893  -11.6351  -20.2485 C   0  0  0  0  0  0  0  0  0  0  0  0
   20.8548  -10.8623  -19.6240 C   0  0  2  0  0  0  0  0  0  0  0  0
   21.5227  -11.7397  -18.7066 N   0  0  0  0  0  0  0  0  0  0  0  0
   20.3214   -9.6740  -18.9309 C   0  0  0  0  0  0  0  0  0  0  0  0
   19.7300   -8.7808  -19.5977 O   0  0  0  0  0  0  0  0  0  0  0  0
   20.4652   -9.5259  -17.5326 N   0  0  0  0  0  0  0  0  0  0  0  0
   19.8994   -8.3901  -16.7929 C   0  0  1  0  0  0  0  0  0  0  0  0
   18.6907   -8.7938  -16.0286 C   0  0  0  0  0  0  0  0  0  0  0  0
   18.8155  -10.1675  -15.4818 C   0  0  0  0  0  0  0  0  0  0  0  0
   17.6001  -10.5325  -14.6481 C   0  0  0  0  0  0  0  0  0  0  0  0
   17.5979  -10.0653  -13.4810 O   0  0  0  0  0  0  0  0  0  0  0  0
   20.9429   -7.8050  -15.9085 C   0  0  0  0  0  0  0  0  0  0  0  0
   21.7520   -8.4443  -15.2118 O   0  0  0  0  0  0  0  0  0  0  0  0
   16.5935  -11.3125  -15.1484 O   0  0  0  0  0  0  0  0  0  0  0  0
   21.0797   -6.3710  -15.8059 N   0  0  0  0  0  0  0  0  0  0  0  0
   22.1428   -5.7707  -14.9993 C   0  0  1  0  0  0  0  0  0  0  0  0
   22.5308   -4.4267  -15.5224 C   0  0  0  0  0  0  0  0  0  0  0  0
   23.1223   -4.5618  -16.8643 C   0  0  0  0  0  0  0  0  0  0  0  0
   23.6769   -5.7209  -17.3761 C   0  0  0  0  0  0  0  0  0  0  0  0
   24.1094   -5.4665  -18.6127 N   0  0  0  0  0  0  0  0  0  0  0  0
   23.8366   -4.1857  -18.8748 C   0  0  0  0  0  0  0  0  0  0  0  0
   23.2428   -3.6337  -17.8287 N   0  0  0  0  0  0  0  0  0  0  0  0
   21.6776   -5.7608  -13.6024 C   0  0  0  0  0  0  0  0  0  0  0  0
   22.4877   -5.3082  -12.5847 O   0  0  0  0  0  0  0  0  0  0  0  0
   20.5297   -6.1682  -13.3204 O   0  0  0  0  0  0  0  0  0  0  0  0
  2  1  1  1
  2  4  1  0
  2  3  1  0
  4  5  2  0
  6  4  1  0
  7  6  1  0
  7  8  1  1
  9  8  1  0
 10  9  1  0
 10 14  1  0
 11 10  2  0
 12  7  1  0
 13 12  2  0
 15 12  1  0
 16 17  1  6
 16 15  1  0
 17 18  1  0
 18 22  1  0
 19 18  2  0
 19 20  1  0
 20 21  1  0
 22 21  2  0
 23 16  1  0
 24 23  1  0
 25 23  2  0
M  END
$$$$
