AEH.pdb
     RDKit          3D

 25 25  0  0  1  0  0  0  0  0999 V2000
   21.5384  -12.7734  -19.9882 C   0  0  0  0  0  0  0  0  0  0  0  0
   21.6170  -14.1221  -19.2667 C   0  0  2  0  0  0  0  0  0  0  0  0
   21.6596  -15.1523  -20.2639 N   0  0  0  0  0  0  0  0  0  0  0  0
   20.4315  -14.2687  -18.4007 C   0  0  0  0  0  0  0  0  0  0  0  0
   19.2974  -13.9322  -18.8399 O   0  0  0  0  0  0  0  0  0  0  0  0
   20.5519  -14.7805  -17.0887 N   0  0  0  0  0  0  0  0  0  0  0  0
   19.3901  -15.0369  -16.2274 C   0  0  1  0  0  0  0  0  0  0  0  0
   19.7451  -15.9346  -15.0978 C   0  0  0  0  0  0  0  0  0  0  0  0
   18.5709  -16.2392  -14.2434 C   0  0  0  0  0  0  0  0  0  0  0  0
   18.9517  -17.1768  -13.1115 C   0  0  0  0  0  0  0  0  0  0  0  0
   20.1747  -17.4603  -13.0465 O   0  0  0  0  0  0  0  0  0  0  0  0
   18.8310  -13.7432  -15.7508 C   0  0  0  0  0  0  0  0  0  0  0  0
   19.4894  -12.7693  -15.3424 O   0  0  0  0  0  0  0  0  0  0  0  0
   18.0185  -17.6654  -12.2383 O   0  0  0  0  0  0  0  0  0  0  0  0
   17.4017  -13.5373  -15.7364 N   0  0  0  0  0  0  0  0  0  0  0  0
   16.8280  -12.2613  -15.3078 C   0  0  1  0  0  0  0  0  0  0  0  0
   16.5099  -11.3869  -16.4761 C   0  0  0  0  0  0  0  0  0  0  0  0
   17.4673  -10.2699  -16.5425 C   0  0  0  0  0  0  0  0  0  0  0  0
   18.7691  -10.3093  -16.0772 C   0  0  0  0  0  0  0  0  0  0  0  0
   19.3310   -9.1207  -16.3063 N   0  0  0  0  0  0  0  0  0  0  0  0
   18.4125   -8.3531  -16.8985 C   0  0  0  0  0  0  0  0  0  0  0  0
   17.2884   -9.0362  -17.0446 N   0  0  0  0  0  0  0  0  0  0  0  0
   15.6686  -12.5691  -14.4541 C   0  0  0  0  0  0  0  0  0  0  0  0
   15.2267  -11.6764  -13.5030 O   0  0  0  0  0  0  0  0  0  0  0  0
   15.0655  -13.6567  -14.5832 O   0  0  0  0  0  0  0  0  0  0  0  0
  2  1  1  6
  2  4  1  0
  2  3  1  0
  4  5  2  0
  6  4  1  0
  7  6  1  0
  7  8  1  1
  9  8  1  0
 10  9  1  0
 10 14  1  0
 11 10  2  0
 12  7  1  0
 13 12  2  0
 15 12  1  0
 16 17  1  6
 16 15  1  0
 17 18  1  0
 18 22  1  0
 19 18  2  0
 19 20  1  0
 20 21  1  0
 22 21  2  0
 23 16  1  0
 24 23  1  0
 25 23  2  0
M  END
$$$$
