AEH.pdb
     RDKit          3D

 25 25  0  0  1  0  0  0  0  0999 V2000
   15.5528  -10.0679  -14.7256 C   0  0  0  0  0  0  0  0  0  0  0  0
   16.1165  -10.6682  -16.0170 C   0  0  2  0  0  0  0  0  0  0  0  0
   16.3457  -12.0656  -15.7887 N   0  0  0  0  0  0  0  0  0  0  0  0
   17.3719   -9.9719  -16.3575 C   0  0  0  0  0  0  0  0  0  0  0  0
   18.4755  -10.4851  -16.0246 O   0  0  0  0  0  0  0  0  0  0  0  0
   17.3518   -8.7401  -17.0504 N   0  0  0  0  0  0  0  0  0  0  0  0
   18.5713   -8.0888  -17.5461 C   0  0  1  0  0  0  0  0  0  0  0  0
   18.3687   -7.5329  -18.9092 C   0  0  0  0  0  0  0  0  0  0  0  0
   19.6069   -6.9140  -19.4437 C   0  0  0  0  0  0  0  0  0  0  0  0
   20.1258   -7.6867  -20.6433 C   0  0  0  0  0  0  0  0  0  0  0  0
   20.9904   -8.5599  -20.3780 O   0  0  0  0  0  0  0  0  0  0  0  0
   19.0020   -7.0420  -16.5805 C   0  0  0  0  0  0  0  0  0  0  0  0
   18.2520   -6.2585  -15.9703 O   0  0  0  0  0  0  0  0  0  0  0  0
   19.6733   -7.4362  -21.9100 O   0  0  0  0  0  0  0  0  0  0  0  0
   20.4044   -6.8697  -16.2821 N   0  0  0  0  0  0  0  0  0  0  0  0
   20.8586   -5.8125  -15.3782 C   0  0  1  0  0  0  0  0  0  0  0  0
   22.0695   -6.2336  -14.6120 C   0  0  0  0  0  0  0  0  0  0  0  0
   21.7168   -7.3050  -13.6650 C   0  0  0  0  0  0  0  0  0  0  0  0
   20.4290   -7.6463  -13.2937 C   0  0  0  0  0  0  0  0  0  0  0  0
   20.4986   -8.6566  -12.4245 N   0  0  0  0  0  0  0  0  0  0  0  0
   21.7910   -8.9452  -12.2515 C   0  0  0  0  0  0  0  0  0  0  0  0
   22.5311   -8.1372  -12.9938 N   0  0  0  0  0  0  0  0  0  0  0  0
   21.0523   -4.5988  -16.1889 C   0  0  0  0  0  0  0  0  0  0  0  0
   21.0385   -3.3476  -15.6135 O   0  0  0  0  0  0  0  0  0  0  0  0
   21.2327   -4.6906  -17.4227 O   0  0  0  0  0  0  0  0  0  0  0  0
  2  1  1  1
  2  4  1  0
  2  3  1  0
  4  5  2  0
  6  4  1  0
  7  6  1  0
  7  8  1  6
  9  8  1  0
 10  9  1  0
 10 14  1  0
 11 10  2  0
 12  7  1  0
 13 12  2  0
 15 12  1  0
 16 17  1  6
 16 15  1  0
 17 18  1  0
 18 22  1  0
 19 18  2  0
 19 20  1  0
 20 21  1  0
 22 21  2  0
 23 16  1  0
 24 23  1  0
 25 23  2  0
M  END
$$$$
