CAV.pdb
     RDKit          3D

 19 18  0  0  1  0  0  0  0  0999 V2000
   17.3246  -14.9895  -16.2658 N   0  0  0  0  0  0  0  0  0  0  0  0
   16.8112  -13.7448  -15.7338 C   0  0  1  0  0  0  0  0  0  0  0  0
   16.5511  -13.9050  -14.2508 C   0  0  0  0  0  0  0  0  0  0  0  0
   15.1947  -15.0886  -14.0256 S   0  0  0  0  0  0  0  0  0  0  0  0
   17.8023  -12.6798  -16.0075 C   0  0  0  0  0  0  0  0  0  0  0  0
   19.0213  -12.9636  -15.9963 O   0  0  0  0  0  0  0  0  0  0  0  0
   17.4922   -9.1679  -17.3057 C   0  0  0  0  0  0  0  0  0  0  0  0
   18.2567  -10.3203  -16.6661 C   0  0  2  0  0  0  0  0  0  0  0  0
   17.3412  -11.3444  -16.2797 N   0  0  0  0  0  0  0  0  0  0  0  0
   19.0024   -9.7982  -15.4949 C   0  0  0  0  0  0  0  0  0  0  0  0
   18.5449   -9.7608  -14.3369 O   0  0  0  0  0  0  0  0  0  0  0  0
   23.2361   -9.2675  -15.7080 C   0  0  0  0  0  0  0  0  0  0  0  0
   22.4504   -9.6197  -14.4591 C   0  0  2  0  0  0  0  0  0  0  0  0
   22.3529  -11.1053  -14.3888 C   0  0  0  0  0  0  0  0  0  0  0  0
   21.1372   -8.9185  -14.5388 C   0  0  2  0  0  0  0  0  0  0  0  0
   20.3228   -9.3007  -15.6601 N   0  0  0  0  0  0  0  0  0  0  0  0
   21.2515   -7.4518  -14.5323 C   0  0  0  0  0  0  0  0  0  0  0  0
   21.0004   -6.7797  -15.5525 O   0  0  0  0  0  0  0  0  0  0  0  0
   21.6414   -6.7955  -13.3875 O   0  0  0  0  0  0  0  0  0  0  0  0
  2  3  1  0
  2  1  1  1
  3  4  1  0
  5  6  2  0
  5  2  1  0
  8  7  1  1
  8  9  1  0
  9  5  1  0
 10 11  2  0
 10  8  1  0
 13 12  1  6
 13 14  1  0
 15 13  1  0
 15 16  1  6
 16 10  1  0
 17 15  1  0
 18 17  2  0
 19 17  1  0
M  END
$$$$
