CAV.pdb
     RDKit          3D

 19 18  0  0  1  0  0  0  0  0999 V2000
   28.7502  -22.0449  -17.1003 N   0  0  0  0  0  0  0  0  0  0  0  0
   28.7973  -23.3564  -16.4891 C   0  0  1  0  0  0  0  0  0  0  0  0
   27.5566  -24.1330  -16.8765 C   0  0  0  0  0  0  0  0  0  0  0  0
   26.1348  -23.4287  -15.9966 S   0  0  0  0  0  0  0  0  0  0  0  0
   30.0342  -24.0336  -16.9395 C   0  0  0  0  0  0  0  0  0  0  0  0
   30.4814  -23.7897  -18.0828 O   0  0  0  0  0  0  0  0  0  0  0  0
   32.8135  -25.7510  -15.2266 C   0  0  0  0  0  0  0  0  0  0  0  0
   31.9044  -25.6023  -16.4403 C   0  0  2  0  0  0  0  0  0  0  0  0
   30.6927  -24.9558  -16.0529 N   0  0  0  0  0  0  0  0  0  0  0  0
   31.6379  -26.9510  -16.9973 C   0  0  0  0  0  0  0  0  0  0  0  0
   32.5278  -27.7511  -17.3432 O   0  0  0  0  0  0  0  0  0  0  0  0
   27.9927  -30.0300  -18.0428 C   0  0  0  0  0  0  0  0  0  0  0  0
   28.8917  -29.4118  -16.9889 C   0  0  2  0  0  0  0  0  0  0  0  0
   28.0449  -28.5410  -16.1250 C   0  0  0  0  0  0  0  0  0  0  0  0
   29.9914  -28.6961  -17.6966 C   0  0  2  0  0  0  0  0  0  0  0  0
   30.2994  -27.3972  -17.1632 N   0  0  0  0  0  0  0  0  0  0  0  0
   29.7681  -28.5576  -19.1441 C   0  0  0  0  0  0  0  0  0  0  0  0
   29.9254  -29.5235  -19.9174 O   0  0  0  0  0  0  0  0  0  0  0  0
   29.3784  -27.3469  -19.6690 O   0  0  0  0  0  0  0  0  0  0  0  0
  2  3  1  0
  2  1  1  6
  3  4  1  0
  5  6  2  0
  5  2  1  0
  8  7  1  1
  8  9  1  0
  9  5  1  0
 10 11  2  0
 10  8  1  0
 13 12  1  6
 13 14  1  0
 15 13  1  0
 15 16  1  1
 16 10  1  0
 17 15  1  0
 18 17  2  0
 19 17  1  0
M  END
$$$$
