CAV.pdb
     RDKit          3D

 19 18  0  0  1  0  0  0  0  0999 V2000
   22.6222  -12.5157  -19.1253 N   0  0  0  0  0  0  0  0  0  0  0  0
   21.4957  -11.6681  -18.7959 C   0  0  1  0  0  0  0  0  0  0  0  0
   20.8412  -12.1770  -17.5289 C   0  0  0  0  0  0  0  0  0  0  0  0
   20.0733  -13.7830  -17.8790 S   0  0  0  0  0  0  0  0  0  0  0  0
   21.9887  -10.2808  -18.6423 C   0  0  0  0  0  0  0  0  0  0  0  0
   23.1373  -10.0889  -18.1832 O   0  0  0  0  0  0  0  0  0  0  0  0
   20.9401   -7.0304  -20.0856 C   0  0  0  0  0  0  0  0  0  0  0  0
   21.6133   -7.8417  -18.9855 C   0  0  2  0  0  0  0  0  0  0  0  0
   21.1366   -9.1862  -19.0242 N   0  0  0  0  0  0  0  0  0  0  0  0
   21.3141   -7.2044  -17.6800 C   0  0  0  0  0  0  0  0  0  0  0  0
   21.6465   -6.0423  -17.3786 O   0  0  0  0  0  0  0  0  0  0  0  0
   18.6298   -9.0614  -14.8227 C   0  0  0  0  0  0  0  0  0  0  0  0
   18.7877   -7.5715  -15.0604 C   0  0  2  0  0  0  0  0  0  0  0  0
   17.7915   -7.1692  -16.0934 C   0  0  0  0  0  0  0  0  0  0  0  0
   20.2071   -7.3230  -15.4425 C   0  0  2  0  0  0  0  0  0  0  0  0
   20.6066   -7.9288  -16.6835 N   0  0  0  0  0  0  0  0  0  0  0  0
   21.1737   -7.7175  -14.4061 C   0  0  0  0  0  0  0  0  0  0  0  0
   21.1608   -7.1897  -13.2761 O   0  0  0  0  0  0  0  0  0  0  0  0
   22.1151   -8.6848  -14.6734 O   0  0  0  0  0  0  0  0  0  0  0  0
  2  3  1  0
  2  1  1  1
  3  4  1  0
  5  6  2  0
  5  2  1  0
  8  7  1  6
  8  9  1  0
  9  5  1  0
 10 11  2  0
 10  8  1  0
 13 12  1  6
 13 14  1  0
 15 13  1  0
 15 16  1  6
 16 10  1  0
 17 15  1  0
 18 17  2  0
 19 17  1  0
M  END
$$$$
