CAV.pdb
     RDKit          3D

 19 18  0  0  1  0  0  0  0  0999 V2000
   17.9885  -11.7274  -17.8027 N   0  0  0  0  0  0  0  0  0  0  0  0
   17.7256  -11.1969  -16.4815 C   0  0  1  0  0  0  0  0  0  0  0  0
   18.3192  -12.1255  -15.4432 C   0  0  0  0  0  0  0  0  0  0  0  0
   17.3040  -13.6268  -15.3613 S   0  0  0  0  0  0  0  0  0  0  0  0
   18.3081   -9.8383  -16.4030 C   0  0  0  0  0  0  0  0  0  0  0  0
   19.4644   -9.6442  -16.8413 O   0  0  0  0  0  0  0  0  0  0  0  0
   16.8740   -6.4754  -15.5122 C   0  0  0  0  0  0  0  0  0  0  0  0
   18.0176   -7.4318  -15.8269 C   0  0  2  0  0  0  0  0  0  0  0  0
   17.5318   -8.7736  -15.8252 N   0  0  0  0  0  0  0  0  0  0  0  0
   19.0809   -7.2454  -14.8097 C   0  0  0  0  0  0  0  0  0  0  0  0
   19.0507   -7.7457  -13.6693 O   0  0  0  0  0  0  0  0  0  0  0  0
   23.0731   -6.5124  -15.8407 C   0  0  0  0  0  0  0  0  0  0  0  0
   22.5362   -7.0710  -14.5365 C   0  0  2  0  0  0  0  0  0  0  0  0
   22.3135   -8.5324  -14.7270 C   0  0  0  0  0  0  0  0  0  0  0  0
   21.3090   -6.3005  -14.1863 C   0  0  2  0  0  0  0  0  0  0  0  0
   20.2215   -6.4549  -15.1138 N   0  0  0  0  0  0  0  0  0  0  0  0
   21.5509   -4.8619  -13.9967 C   0  0  0  0  0  0  0  0  0  0  0  0
   22.2727   -4.4448  -13.0691 O   0  0  0  0  0  0  0  0  0  0  0  0
   20.9773   -3.9478  -14.8504 O   0  0  0  0  0  0  0  0  0  0  0  0
  2  3  1  0
  2  1  1  6
  3  4  1  0
  5  6  2  0
  5  2  1  0
  8  7  1  1
  8  9  1  0
  9  5  1  0
 10 11  2  0
 10  8  1  0
 13 12  1  6
 13 14  1  0
 15 13  1  0
 15 16  1  6
 16 10  1  0
 17 15  1  0
 18 17  2  0
 19 17  1  0
M  END
$$$$
