CAV.pdb
     RDKit          3D

 19 18  0  0  1  0  0  0  0  0999 V2000
   22.5560  -13.4507  -17.5809 N   0  0  0  0  0  0  0  0  0  0  0  0
   23.1347  -12.5189  -16.6360 C   0  0  1  0  0  0  0  0  0  0  0  0
   24.6317  -12.4523  -16.8533 C   0  0  0  0  0  0  0  0  0  0  0  0
   25.3903  -11.6492  -15.4142 S   0  0  0  0  0  0  0  0  0  0  0  0
   22.4905  -11.2006  -16.8311 C   0  0  0  0  0  0  0  0  0  0  0  0
   22.6697  -10.5874  -17.9075 O   0  0  0  0  0  0  0  0  0  0  0  0
   19.6476   -9.4184  -15.3587 C   0  0  0  0  0  0  0  0  0  0  0  0
   21.0639   -9.3728  -15.9189 C   0  0  2  0  0  0  0  0  0  0  0  0
   21.6739  -10.6553  -15.7794 N   0  0  0  0  0  0  0  0  0  0  0  0
   21.8272   -8.3336  -15.1857 C   0  0  0  0  0  0  0  0  0  0  0  0
   22.5238   -8.5604  -14.1783 O   0  0  0  0  0  0  0  0  0  0  0  0
   22.7847   -4.6362  -17.0505 C   0  0  0  0  0  0  0  0  0  0  0  0
   23.5791   -5.3230  -15.9558 C   0  0  2  0  0  0  0  0  0  0  0  0
   24.5249   -6.2716  -16.6091 C   0  0  0  0  0  0  0  0  0  0  0  0
   22.6061   -5.9643  -15.0261 C   0  0  2  0  0  0  0  0  0  0  0  0
   21.7890   -6.9835  -15.6263 N   0  0  0  0  0  0  0  0  0  0  0  0
   21.7205   -5.0056  -14.3472 C   0  0  0  0  0  0  0  0  0  0  0  0
   20.5076   -4.9352  -14.6288 O   0  0  0  0  0  0  0  0  0  0  0  0
   22.2251   -4.1649  -13.3819 O   0  0  0  0  0  0  0  0  0  0  0  0
  2  3  1  0
  2  1  1  6
  3  4  1  0
  5  6  2  0
  5  2  1  0
  8  7  1  1
  8  9  1  0
  9  5  1  0
 10 11  2  0
 10  8  1  0
 13 12  1  6
 13 14  1  0
 15 13  1  0
 15 16  1  6
 16 10  1  0
 17 15  1  0
 18 17  2  0
 19 17  1  0
M  END
$$$$
