EQA.pdb
     RDKit          3D

 24 23  0  0  1  0  0  0  0  0999 V2000
   26.7397  -19.9145  -15.3177 N   0  0  0  0  0  0  0  0  0  0  0  0
   25.9673  -20.8831  -16.0104 C   0  0  1  0  0  0  0  0  0  0  0  0
   26.7331  -22.0244  -16.5512 C   0  0  0  0  0  0  0  0  0  0  0  0
   27.9626  -21.6139  -17.2797 C   0  0  0  0  0  0  0  0  0  0  0  0
   29.2135  -22.1975  -16.7930 C   0  0  0  0  0  0  0  0  0  0  0  0
   29.3458  -23.0082  -15.8590 O   0  0  0  0  0  0  0  0  0  0  0  0
   24.8144  -21.3152  -15.1490 C   0  0  0  0  0  0  0  0  0  0  0  0
   24.0093  -22.2020  -15.5737 O   0  0  0  0  0  0  0  0  0  0  0  0
   30.3841  -21.7654  -17.4903 O   0  0  0  0  0  0  0  0  0  0  0  0
   24.7599  -20.3293   -9.1050 N   0  0  0  0  0  0  0  0  0  0  0  0
   25.6937  -21.0272   -9.9196 C   0  0  0  0  0  0  0  0  0  0  0  0
   26.8045  -21.3121   -9.4134 O   0  0  0  0  0  0  0  0  0  0  0  0
   25.3149  -21.3777  -11.3035 C   0  0  0  0  0  0  0  0  0  0  0  0
   23.8867  -20.9262  -11.5278 C   0  0  0  0  0  0  0  0  0  0  0  0
   23.5396  -21.1567  -12.9549 C   0  0  2  0  0  0  0  0  0  0  0  0
   24.6029  -20.7541  -13.8705 N   0  0  0  0  0  0  0  0  0  0  0  0
   22.2553  -20.4862  -13.2952 C   0  0  0  0  0  0  0  0  0  0  0  0
   22.0785  -19.2495  -13.3485 O   0  0  0  0  0  0  0  0  0  0  0  0
   19.1742  -21.7157  -14.8574 C   0  0  0  0  0  0  0  0  0  0  0  0
   19.8611  -20.7406  -13.9124 C   0  0  2  0  0  0  0  0  0  0  0  0
   21.1398  -21.3179  -13.5834 N   0  0  0  0  0  0  0  0  0  0  0  0
   19.0854  -20.5596  -12.6672 C   0  0  0  0  0  0  0  0  0  0  0  0
   18.0066  -19.6945  -12.6675 O   0  0  0  0  0  0  0  0  0  0  0  0
   19.3583  -21.1570  -11.5977 O   0  0  0  0  0  0  0  0  0  0  0  0
  2  3  1  0
  2  1  1  1
  4  3  1  0
  5  4  1  0
  5  6  2  0
  7  8  2  0
  7  2  1  0
  9  5  1  0
 10 11  1  0
 11 13  1  0
 12 11  2  0
 13 14  1  0
 15 14  1  1
 15 16  1  0
 16  7  1  0
 17 15  1  0
 18 17  2  0
 20 19  1  6
 20 22  1  0
 20 21  1  0
 21 17  1  0
 22 23  1  0
 24 22  2  0
M  END
$$$$
