EQA.pdb
     RDKit          3D

 24 23  0  0  1  0  0  0  0  0999 V2000
   18.2508  -10.6382  -17.4217 N   0  0  0  0  0  0  0  0  0  0  0  0
   18.2146  -10.4945  -16.0101 C   0  0  1  0  0  0  0  0  0  0  0  0
   17.8834  -11.7252  -15.2638 C   0  0  0  0  0  0  0  0  0  0  0  0
   16.6035  -12.3470  -15.6954 C   0  0  0  0  0  0  0  0  0  0  0  0
   16.2697  -13.6211  -15.0573 C   0  0  0  0  0  0  0  0  0  0  0  0
   16.2018  -14.7358  -15.6051 O   0  0  0  0  0  0  0  0  0  0  0  0
   19.4903   -9.8563  -15.5378 C   0  0  0  0  0  0  0  0  0  0  0  0
   19.6506   -9.6101  -14.3014 O   0  0  0  0  0  0  0  0  0  0  0  0
   15.9997  -13.5338  -13.6563 O   0  0  0  0  0  0  0  0  0  0  0  0
   24.9374   -9.4351  -18.6361 N   0  0  0  0  0  0  0  0  0  0  0  0
   25.2371   -8.7852  -17.4073 C   0  0  0  0  0  0  0  0  0  0  0  0
   26.4283   -8.4521  -17.2036 O   0  0  0  0  0  0  0  0  0  0  0  0
   24.1455   -8.5373  -16.4435 C   0  0  0  0  0  0  0  0  0  0  0  0
   22.8619   -9.0770  -17.0394 C   0  0  0  0  0  0  0  0  0  0  0  0
   21.7583   -8.8390  -16.0721 C   0  0  2  0  0  0  0  0  0  0  0  0
   20.5216   -9.5206  -16.4421 N   0  0  0  0  0  0  0  0  0  0  0  0
   21.5324   -7.3798  -15.8857 C   0  0  0  0  0  0  0  0  0  0  0  0
   21.1257   -6.5937  -16.7689 O   0  0  0  0  0  0  0  0  0  0  0  0
   21.5526   -5.2982  -12.8062 C   0  0  0  0  0  0  0  0  0  0  0  0
   21.5241   -5.4494  -14.3201 C   0  0  2  0  0  0  0  0  0  0  0  0
   21.7997   -6.8357  -14.6006 N   0  0  0  0  0  0  0  0  0  0  0  0
   22.5621   -4.6173  -14.9646 C   0  0  0  0  0  0  0  0  0  0  0  0
   22.3520   -3.2560  -15.0863 O   0  0  0  0  0  0  0  0  0  0  0  0
   23.6362   -5.0877  -15.4121 O   0  0  0  0  0  0  0  0  0  0  0  0
  2  3  1  0
  2  1  1  6
  4  3  1  0
  5  4  1  0
  5  6  2  0
  7  8  2  0
  7  2  1  0
  9  5  1  0
 10 11  1  0
 11 13  1  0
 12 11  2  0
 13 14  1  0
 15 14  1  6
 15 16  1  0
 16  7  1  0
 17 15  1  0
 18 17  2  0
 20 19  1  1
 20 22  1  0
 20 21  1  0
 21 17  1  0
 22 23  1  0
 24 22  2  0
M  END
$$$$
