EQA.pdb
     RDKit          3D

 24 23  0  0  1  0  0  0  0  0999 V2000
   16.7640  -11.0255  -12.0469 N   0  0  0  0  0  0  0  0  0  0  0  0
   15.6452  -10.3055  -11.5521 C   0  0  1  0  0  0  0  0  0  0  0  0
   14.5781  -11.1371  -10.9594 C   0  0  0  0  0  0  0  0  0  0  0  0
   14.2365  -12.3277  -11.7820 C   0  0  0  0  0  0  0  0  0  0  0  0
   13.2375  -13.2303  -11.2081 C   0  0  0  0  0  0  0  0  0  0  0  0
   12.6107  -13.0722  -10.1454 O   0  0  0  0  0  0  0  0  0  0  0  0
   16.1164   -9.2208  -10.6252 C   0  0  0  0  0  0  0  0  0  0  0  0
   15.6679   -9.1693   -9.4373 O   0  0  0  0  0  0  0  0  0  0  0  0
   12.9832  -14.4064  -11.9797 O   0  0  0  0  0  0  0  0  0  0  0  0
   20.8970   -5.4645  -11.8846 N   0  0  0  0  0  0  0  0  0  0  0  0
   20.7652   -6.8753  -12.0067 C   0  0  0  0  0  0  0  0  0  0  0  0
   21.6820   -7.4938  -12.5967 O   0  0  0  0  0  0  0  0  0  0  0  0
   19.5709   -7.5345  -11.4403 C   0  0  0  0  0  0  0  0  0  0  0  0
   18.7242   -6.4741  -10.7676 C   0  0  0  0  0  0  0  0  0  0  0  0
   17.4960   -7.1211  -10.2353 C   0  0  2  0  0  0  0  0  0  0  0  0
   17.0514   -8.2502  -11.0468 N   0  0  0  0  0  0  0  0  0  0  0  0
   16.4085   -6.1192  -10.0671 C   0  0  0  0  0  0  0  0  0  0  0  0
   15.7519   -5.6034  -10.9979 O   0  0  0  0  0  0  0  0  0  0  0  0
   14.6671   -4.8451   -7.0507 C   0  0  0  0  0  0  0  0  0  0  0  0
   15.0937   -4.7025   -8.5043 C   0  0  2  0  0  0  0  0  0  0  0  0
   16.0899   -5.7162   -8.7423 N   0  0  0  0  0  0  0  0  0  0  0  0
   15.6924   -3.3760   -8.7629 C   0  0  0  0  0  0  0  0  0  0  0  0
   14.8668   -2.2693   -8.8375 O   0  0  0  0  0  0  0  0  0  0  0  0
   16.9252   -3.2002   -8.9201 O   0  0  0  0  0  0  0  0  0  0  0  0
  2  3  1  0
  2  1  1  1
  4  3  1  0
  5  4  1  0
  5  6  2  0
  7  8  2  0
  7  2  1  0
  9  5  1  0
 10 11  1  0
 11 13  1  0
 12 11  2  0
 13 14  1  0
 15 14  1  6
 15 16  1  0
 16  7  1  0
 17 15  1  0
 18 17  2  0
 20 19  1  1
 20 22  1  0
 20 21  1  0
 21 17  1  0
 22 23  1  0
 24 22  2  0
M  END
$$$$
