EQA.pdb
     RDKit          3D

 24 23  0  0  1  0  0  0  0  0999 V2000
   18.1067  -12.7226  -15.6248 N   0  0  0  0  0  0  0  0  0  0  0  0
   17.9308  -11.3686  -16.0125 C   0  0  1  0  0  0  0  0  0  0  0  0
   16.7140  -10.7192  -15.4840 C   0  0  0  0  0  0  0  0  0  0  0  0
   15.4563  -11.3581  -15.9541 C   0  0  0  0  0  0  0  0  0  0  0  0
   14.2162  -10.7579  -15.4601 C   0  0  0  0  0  0  0  0  0  0  0  0
   13.6583   -9.7335  -15.8921 O   0  0  0  0  0  0  0  0  0  0  0  0
   19.1807  -10.5926  -15.7069 C   0  0  0  0  0  0  0  0  0  0  0  0
   19.8386  -10.8498  -14.6505 O   0  0  0  0  0  0  0  0  0  0  0  0
   13.6130  -11.4511  -14.3652 O   0  0  0  0  0  0  0  0  0  0  0  0
   23.0095   -8.7069  -19.9446 N   0  0  0  0  0  0  0  0  0  0  0  0
   22.8266   -9.9975  -19.3760 C   0  0  0  0  0  0  0  0  0  0  0  0
   23.2826  -10.9790  -20.0084 O   0  0  0  0  0  0  0  0  0  0  0  0
   22.1179  -10.1175  -18.0856 C   0  0  0  0  0  0  0  0  0  0  0  0
   21.6750   -8.7322  -17.6629 C   0  0  0  0  0  0  0  0  0  0  0  0
   20.8991   -8.8518  -16.4004 C   0  0  2  0  0  0  0  0  0  0  0  0
   19.6435   -9.5766  -16.5715 N   0  0  0  0  0  0  0  0  0  0  0  0
   20.6670   -7.5097  -15.8005 C   0  0  0  0  0  0  0  0  0  0  0  0
   19.7159   -6.7481  -16.0814 O   0  0  0  0  0  0  0  0  0  0  0  0
   22.1841   -5.9447  -12.8132 C   0  0  0  0  0  0  0  0  0  0  0  0
   21.3562   -5.8472  -14.0862 C   0  0  2  0  0  0  0  0  0  0  0  0
   21.6009   -7.0569  -14.8301 N   0  0  0  0  0  0  0  0  0  0  0  0
   21.7672   -4.6902  -14.9092 C   0  0  0  0  0  0  0  0  0  0  0  0
   21.3391   -3.4251  -14.5511 O   0  0  0  0  0  0  0  0  0  0  0  0
   22.4926   -4.7979  -15.9278 O   0  0  0  0  0  0  0  0  0  0  0  0
  2  3  1  0
  2  1  1  1
  4  3  1  0
  5  4  1  0
  5  6  2  0
  7  8  2  0
  7  2  1  0
  9  5  1  0
 10 11  1  0
 11 13  1  0
 12 11  2  0
 13 14  1  0
 15 14  1  6
 15 16  1  0
 16  7  1  0
 17 15  1  0
 18 17  2  0
 20 19  1  1
 20 22  1  0
 20 21  1  0
 21 17  1  0
 22 23  1  0
 24 22  2  0
M  END
$$$$
