EQA.pdb
     RDKit          3D

 24 23  0  0  1  0  0  0  0  0999 V2000
   20.6297  -15.0691  -17.0884 N   0  0  0  0  0  0  0  0  0  0  0  0
   19.8883  -13.8673  -17.2329 C   0  0  1  0  0  0  0  0  0  0  0  0
   18.5123  -13.9125  -16.6981 C   0  0  0  0  0  0  0  0  0  0  0  0
   17.4984  -14.2916  -17.7176 C   0  0  0  0  0  0  0  0  0  0  0  0
   16.7124  -15.4889  -17.4165 C   0  0  0  0  0  0  0  0  0  0  0  0
   16.7279  -16.1468  -16.3609 O   0  0  0  0  0  0  0  0  0  0  0  0
   20.6851  -12.7172  -16.6851 C   0  0  0  0  0  0  0  0  0  0  0  0
   20.9918  -12.6947  -15.4521 O   0  0  0  0  0  0  0  0  0  0  0  0
   15.8479  -15.9158  -18.4718 O   0  0  0  0  0  0  0  0  0  0  0  0
   25.4087  -10.2682  -19.0131 N   0  0  0  0  0  0  0  0  0  0  0  0
   25.2013   -9.2857  -18.0061 C   0  0  0  0  0  0  0  0  0  0  0  0
   26.2019   -8.6440  -17.6081 O   0  0  0  0  0  0  0  0  0  0  0  0
   23.8359   -9.0717  -17.4850 C   0  0  0  0  0  0  0  0  0  0  0  0
   22.9302  -10.1198  -18.0976 C   0  0  0  0  0  0  0  0  0  0  0  0
   21.9365  -10.5384  -17.0740 C   0  0  2  0  0  0  0  0  0  0  0  0
   21.1027  -11.6530  -17.5141 N   0  0  0  0  0  0  0  0  0  0  0  0
   21.1042   -9.3800  -16.6492 C   0  0  0  0  0  0  0  0  0  0  0  0
   20.3188   -8.7462  -17.3873 O   0  0  0  0  0  0  0  0  0  0  0  0
   20.3894   -7.9888  -13.2889 C   0  0  0  0  0  0  0  0  0  0  0  0
   20.4163   -7.8623  -14.8050 C   0  0  2  0  0  0  0  0  0  0  0  0
   21.2099   -8.9604  -15.2958 N   0  0  0  0  0  0  0  0  0  0  0  0
   21.0447   -6.5933  -15.2291 C   0  0  0  0  0  0  0  0  0  0  0  0
   22.3351   -6.6156  -15.7255 O   0  0  0  0  0  0  0  0  0  0  0  0
   20.4611   -5.4841  -15.1611 O   0  0  0  0  0  0  0  0  0  0  0  0
  2  3  1  0
  2  1  1  1
  4  3  1  0
  5  4  1  0
  5  6  2  0
  7  8  2  0
  7  2  1  0
  9  5  1  0
 10 11  1  0
 11 13  1  0
 12 11  2  0
 13 14  1  0
 15 14  1  6
 15 16  1  0
 16  7  1  0
 17 15  1  0
 18 17  2  0
 20 19  1  1
 20 22  1  0
 20 21  1  0
 21 17  1  0
 22 23  1  0
 24 22  2  0
M  END
$$$$
