EQA.pdb
     RDKit          3D

 24 23  0  0  1  0  0  0  0  0999 V2000
   26.7194  -26.9393  -18.2232 N   0  0  0  0  0  0  0  0  0  0  0  0
   27.8216  -26.7769  -17.3437 C   0  0  1  0  0  0  0  0  0  0  0  0
   27.6169  -25.7967  -16.2579 C   0  0  0  0  0  0  0  0  0  0  0  0
   27.5079  -24.3959  -16.7445 C   0  0  0  0  0  0  0  0  0  0  0  0
   28.7152  -23.8414  -17.3584 C   0  0  0  0  0  0  0  0  0  0  0  0
   29.8930  -24.1449  -17.0972 O   0  0  0  0  0  0  0  0  0  0  0  0
   28.2603  -28.1212  -16.8353 C   0  0  0  0  0  0  0  0  0  0  0  0
   29.2159  -28.1972  -16.0011 O   0  0  0  0  0  0  0  0  0  0  0  0
   28.4740  -22.8495  -18.3589 O   0  0  0  0  0  0  0  0  0  0  0  0
   26.4515  -33.8154  -15.6523 N   0  0  0  0  0  0  0  0  0  0  0  0
   25.6464  -32.6839  -15.3456 C   0  0  0  0  0  0  0  0  0  0  0  0
   24.8209  -32.7972  -14.4091 O   0  0  0  0  0  0  0  0  0  0  0  0
   25.8193  -31.4471  -16.1343 C   0  0  0  0  0  0  0  0  0  0  0  0
   26.9595  -31.6663  -17.1068 C   0  0  0  0  0  0  0  0  0  0  0  0
   28.0113  -30.6514  -16.8343 C   0  0  2  0  0  0  0  0  0  0  0  0
   27.6320  -29.3098  -17.2670 N   0  0  0  0  0  0  0  0  0  0  0  0
   29.3062  -31.0651  -17.4401 C   0  0  0  0  0  0  0  0  0  0  0  0
   29.7036  -30.7462  -18.5819 O   0  0  0  0  0  0  0  0  0  0  0  0
   32.1901  -32.9304  -15.9954 C   0  0  0  0  0  0  0  0  0  0  0  0
   31.4468  -32.2974  -17.1625 C   0  0  2  0  0  0  0  0  0  0  0  0
   30.1603  -31.8885  -16.6581 N   0  0  0  0  0  0  0  0  0  0  0  0
   31.2423  -33.2658  -18.2604 C   0  0  0  0  0  0  0  0  0  0  0  0
   30.0650  -33.9897  -18.3071 O   0  0  0  0  0  0  0  0  0  0  0  0
   32.0914  -33.4675  -19.1625 O   0  0  0  0  0  0  0  0  0  0  0  0
  2  3  1  0
  2  1  1  1
  4  3  1  0
  5  4  1  0
  5  6  2  0
  7  8  2  0
  7  2  1  0
  9  5  1  0
 10 11  1  0
 11 13  1  0
 12 11  2  0
 13 14  1  0
 15 14  1  6
 15 16  1  0
 16  7  1  0
 17 15  1  0
 18 17  2  0
 20 19  1  1
 20 22  1  0
 20 21  1  0
 21 17  1  0
 22 23  1  0
 24 22  2  0
M  END
$$$$
