EQA.pdb
     RDKit          3D

 24 23  0  0  1  0  0  0  0  0999 V2000
   17.2787  -12.2836  -14.6080 N   0  0  0  0  0  0  0  0  0  0  0  0
   17.0315  -10.8991  -14.7999 C   0  0  1  0  0  0  0  0  0  0  0  0
   15.6450  -10.5573  -15.1774 C   0  0  0  0  0  0  0  0  0  0  0  0
   14.6350  -11.0327  -14.1951 C   0  0  0  0  0  0  0  0  0  0  0  0
   13.2370  -10.7922  -14.5553 C   0  0  0  0  0  0  0  0  0  0  0  0
   12.8153  -10.2537  -15.5943 O   0  0  0  0  0  0  0  0  0  0  0  0
   17.5108  -10.1326  -13.5997 C   0  0  0  0  0  0  0  0  0  0  0  0
   17.4692  -10.6729  -12.4502 O   0  0  0  0  0  0  0  0  0  0  0  0
   12.2861  -11.2371  -13.5851 O   0  0  0  0  0  0  0  0  0  0  0  0
   21.6040   -5.4344  -13.5219 N   0  0  0  0  0  0  0  0  0  0  0  0
   21.3507   -5.6426  -12.1382 C   0  0  0  0  0  0  0  0  0  0  0  0
   22.0464   -4.9980  -11.3185 O   0  0  0  0  0  0  0  0  0  0  0  0
   20.2948   -6.5952  -11.7389 C   0  0  0  0  0  0  0  0  0  0  0  0
   19.6735   -7.1620  -12.9985 C   0  0  0  0  0  0  0  0  0  0  0  0
   18.5242   -8.0213  -12.6100 C   0  0  2  0  0  0  0  0  0  0  0  0
   18.0086   -8.8167  -13.7202 N   0  0  0  0  0  0  0  0  0  0  0  0
   17.4468   -7.2037  -11.9890 C   0  0  0  0  0  0  0  0  0  0  0  0
   16.6859   -6.4253  -12.6041 O   0  0  0  0  0  0  0  0  0  0  0  0
   16.0730   -7.1923   -8.5340 C   0  0  0  0  0  0  0  0  0  0  0  0
   16.2294   -6.5740   -9.9156 C   0  0  2  0  0  0  0  0  0  0  0  0
   17.2676   -7.3169  -10.5839 N   0  0  0  0  0  0  0  0  0  0  0  0
   16.6385   -5.1562   -9.8285 C   0  0  0  0  0  0  0  0  0  0  0  0
   15.7392   -4.2262   -9.3400 O   0  0  0  0  0  0  0  0  0  0  0  0
   17.7725   -4.7482  -10.1790 O   0  0  0  0  0  0  0  0  0  0  0  0
  2  3  1  0
  2  1  1  1
  4  3  1  0
  5  4  1  0
  5  6  2  0
  7  8  2  0
  7  2  1  0
  9  5  1  0
 10 11  1  0
 11 13  1  0
 12 11  2  0
 13 14  1  0
 15 14  1  6
 15 16  1  0
 16  7  1  0
 17 15  1  0
 18 17  2  0
 20 19  1  1
 20 22  1  0
 20 21  1  0
 21 17  1  0
 22 23  1  0
 24 22  2  0
M  END
$$$$
