EQA.pdb
     RDKit          3D

 24 23  0  0  1  0  0  0  0  0999 V2000
   18.3933  -13.6760  -18.7739 N   0  0  0  0  0  0  0  0  0  0  0  0
   19.0698  -12.4600  -19.0541 C   0  0  1  0  0  0  0  0  0  0  0  0
   18.8384  -11.9121  -20.4060 C   0  0  0  0  0  0  0  0  0  0  0  0
   17.7595  -12.6164  -21.1481 C   0  0  0  0  0  0  0  0  0  0  0  0
   17.5047  -12.1349  -22.5065 C   0  0  0  0  0  0  0  0  0  0  0  0
   16.5567  -11.4217  -22.8807 O   0  0  0  0  0  0  0  0  0  0  0  0
   18.7808  -11.4630  -17.9677 C   0  0  0  0  0  0  0  0  0  0  0  0
   17.6151  -11.3996  -17.4657 O   0  0  0  0  0  0  0  0  0  0  0  0
   18.4690  -12.5492  -23.4769 O   0  0  0  0  0  0  0  0  0  0  0  0
   22.7769   -9.5100  -13.7179 N   0  0  0  0  0  0  0  0  0  0  0  0
   21.6014   -8.8055  -13.3380 C   0  0  0  0  0  0  0  0  0  0  0  0
   21.5952   -8.2538  -12.2124 O   0  0  0  0  0  0  0  0  0  0  0  0
   20.4605   -8.7586  -14.2749 C   0  0  0  0  0  0  0  0  0  0  0  0
   20.7891   -9.6436  -15.4592 C   0  0  0  0  0  0  0  0  0  0  0  0
   19.6113   -9.6716  -16.3660 C   0  0  2  0  0  0  0  0  0  0  0  0
   19.7808  -10.5883  -17.4894 N   0  0  0  0  0  0  0  0  0  0  0  0
   19.2821   -8.2990  -16.8377 C   0  0  0  0  0  0  0  0  0  0  0  0
   19.8584   -7.6989  -17.7711 O   0  0  0  0  0  0  0  0  0  0  0  0
   16.4288   -6.0662  -16.0790 C   0  0  0  0  0  0  0  0  0  0  0  0
   17.8495   -6.2845  -16.5784 C   0  0  2  0  0  0  0  0  0  0  0  0
   18.2278   -7.6151  -16.1745 N   0  0  0  0  0  0  0  0  0  0  0  0
   18.7887   -5.3174  -15.9722 C   0  0  0  0  0  0  0  0  0  0  0  0
   18.9585   -4.0815  -16.5689 O   0  0  0  0  0  0  0  0  0  0  0  0
   19.4474   -5.5625  -14.9323 O   0  0  0  0  0  0  0  0  0  0  0  0
  2  3  1  0
  2  1  1  1
  4  3  1  0
  5  4  1  0
  5  6  2  0
  7  8  2  0
  7  2  1  0
  9  5  1  0
 10 11  1  0
 11 13  1  0
 12 11  2  0
 13 14  1  0
 15 14  1  6
 15 16  1  0
 16  7  1  0
 17 15  1  0
 18 17  2  0
 20 19  1  1
 20 22  1  0
 20 21  1  0
 21 17  1  0
 22 23  1  0
 24 22  2  0
M  END
$$$$
