EQA.pdb
     RDKit          3D

 24 23  0  0  1  0  0  0  0  0999 V2000
   34.3755  -36.3853   -4.2633 N   0  0  0  0  0  0  0  0  0  0  0  0
   34.4426  -36.4503   -2.8469 C   0  0  1  0  0  0  0  0  0  0  0  0
   35.7626  -36.8236   -2.2993 C   0  0  0  0  0  0  0  0  0  0  0  0
   36.0744  -38.2693   -2.4531 C   0  0  0  0  0  0  0  0  0  0  0  0
   36.1361  -39.0410   -1.2111 C   0  0  0  0  0  0  0  0  0  0  0  0
   36.9879  -38.9397   -0.3102 O   0  0  0  0  0  0  0  0  0  0  0  0
   33.9125  -35.1726   -2.2603 C   0  0  0  0  0  0  0  0  0  0  0  0
   34.3866  -34.0585   -2.6463 O   0  0  0  0  0  0  0  0  0  0  0  0
   35.0899  -40.0022   -1.0536 O   0  0  0  0  0  0  0  0  0  0  0  0
   28.2345  -33.9774   -1.3365 N   0  0  0  0  0  0  0  0  0  0  0  0
   29.0507  -33.7188   -2.4720 C   0  0  0  0  0  0  0  0  0  0  0  0
   28.4758  -33.5621   -3.5749 O   0  0  0  0  0  0  0  0  0  0  0  0
   30.5159  -33.6484   -2.2996 C   0  0  0  0  0  0  0  0  0  0  0  0
   30.8309  -33.9230   -0.8438 C   0  0  0  0  0  0  0  0  0  0  0  0
   32.3079  -33.9845   -0.6860 C   0  0  2  0  0  0  0  0  0  0  0  0
   32.8937  -35.1813   -1.2825 N   0  0  0  0  0  0  0  0  0  0  0  0
   32.6860  -33.8589    0.7479 C   0  0  0  0  0  0  0  0  0  0  0  0
   32.7089  -34.7979    1.5733 O   0  0  0  0  0  0  0  0  0  0  0  0
   33.9956  -30.9739    2.7039 C   0  0  0  0  0  0  0  0  0  0  0  0
   33.3678  -32.3567    2.6070 C   0  0  2  0  0  0  0  0  0  0  0  0
   33.0508  -32.5683    1.2172 N   0  0  0  0  0  0  0  0  0  0  0  0
   32.1219  -32.4398    3.3980 C   0  0  0  0  0  0  0  0  0  0  0  0
   32.2030  -32.4686    4.7781 O   0  0  0  0  0  0  0  0  0  0  0  0
   30.9814  -32.4861    2.8760 O   0  0  0  0  0  0  0  0  0  0  0  0
  2  3  1  0
  2  1  1  6
  4  3  1  0
  5  4  1  0
  5  6  2  0
  7  8  2  0
  7  2  1  0
  9  5  1  0
 10 11  1  0
 11 13  1  0
 12 11  2  0
 13 14  1  0
 15 14  1  1
 15 16  1  0
 16  7  1  0
 17 15  1  0
 18 17  2  0
 20 19  1  6
 20 22  1  0
 20 21  1  0
 21 17  1  0
 22 23  1  0
 24 22  2  0
M  END
$$$$
