VYI.pdb
     RDKit          3D

 28 28  0  0  1  0  0  0  0  0999 V2000
    5.2547  -17.3872   18.8568 C   0  0  0  0  0  0  0  0  0  0  0  0
    5.3973  -17.0082   20.3395 C   0  0  2  0  0  0  0  0  0  0  0  0
    6.7311  -16.3528   20.4716 C   0  0  0  0  0  0  0  0  0  0  0  0
    5.2454  -18.2788   21.1544 C   0  0  2  0  0  0  0  0  0  0  0  0
    3.8442  -18.7210   21.0222 N   0  0  0  0  0  0  0  0  0  0  0  0
    5.5268  -18.1188   22.5785 C   0  0  0  0  0  0  0  0  0  0  0  0
    4.6567  -17.5658   23.3278 O   0  0  0  0  0  0  0  0  0  0  0  0
    9.2250  -18.6538   30.6184 O   0  0  0  0  0  0  0  0  0  0  0  0
    8.7972  -18.8816   29.3074 C   0  0  0  0  0  0  0  0  0  0  0  0
    9.6669  -18.7571   28.2366 C   0  0  0  0  0  0  0  0  0  0  0  0
    9.2839  -18.9730   26.9313 C   0  0  0  0  0  0  0  0  0  0  0  0
    7.9860  -19.3297   26.6440 C   0  0  0  0  0  0  0  0  0  0  0  0
    7.5133  -19.5758   25.2562 C   0  0  0  0  0  0  0  0  0  0  0  0
    6.9377  -18.2861   24.6625 C   0  0  2  0  0  0  0  0  0  0  0  0
    6.7068  -18.5261   23.2522 N   0  0  0  0  0  0  0  0  0  0  0  0
    7.8716  -17.1516   24.8790 C   0  0  0  0  0  0  0  0  0  0  0  0
    8.9210  -17.1451   24.2190 O   0  0  0  0  0  0  0  0  0  0  0  0
    7.1016  -19.4598   27.6930 C   0  0  0  0  0  0  0  0  0  0  0  0
    7.5067  -19.2388   28.9937 C   0  0  0  0  0  0  0  0  0  0  0  0
    5.6575  -12.3533   26.4717 C   0  0  0  0  0  0  0  0  0  0  0  0
    6.5620  -13.3725   25.7710 C   0  0  0  0  0  0  0  0  0  0  0  0
    7.5244  -13.9092   26.7745 C   0  0  2  0  0  0  0  0  0  0  0  0
    8.4103  -12.7285   27.1855 C   0  0  0  0  0  0  0  0  0  0  0  0
    8.3722  -15.0124   26.1790 C   0  0  2  0  0  0  0  0  0  0  0  0
    7.5684  -16.1353   25.7947 N   0  0  0  0  0  0  0  0  0  0  0  0
    9.5234  -15.3716   27.0085 C   0  0  0  0  0  0  0  0  0  0  0  0
   10.8290  -15.0457   26.7359 O   0  0  0  0  0  0  0  0  0  0  0  0
    9.3141  -16.0424   28.0756 O   0  0  0  0  0  0  0  0  0  0  0  0
  2  1  1  6
  3  2  1  0
  4  2  1  0
  4  5  1  1
  6  7  2  0
  6  4  1  0
  9  8  1  0
 10  9  2  0
 11 12  2  0
 11 10  1  0
 12 18  1  0
 14 13  1  6
 13 12  1  0
 14 15  1  0
 15  6  1  0
 16 17  2  0
 16 14  1  0
 18 19  2  0
 19  9  1  0
 20 21  1  0
 21 22  1  0
 22 24  1  0
 22 23  1  6
 24 25  1  1
 25 16  1  0
 26 24  1  0
 27 26  1  0
 28 26  2  0
M  END
$$$$
