VYI.pdb
     RDKit          3D

 28 28  0  0  1  0  0  0  0  0999 V2000
    7.1214  -13.0073   20.6673 C   0  0  0  0  0  0  0  0  0  0  0  0
    8.4462  -13.2739   19.9349 C   0  0  2  0  0  0  0  0  0  0  0  0
    8.3398  -12.5740   18.6215 C   0  0  0  0  0  0  0  0  0  0  0  0
    8.6156  -14.7776   19.8262 C   0  0  2  0  0  0  0  0  0  0  0  0
    7.4684  -15.2949   19.0565 N   0  0  0  0  0  0  0  0  0  0  0  0
    8.6394  -15.4757   21.1088 C   0  0  0  0  0  0  0  0  0  0  0  0
    7.5485  -15.9154   21.5997 O   0  0  0  0  0  0  0  0  0  0  0  0
    9.6526  -21.1780   18.8108 O   0  0  0  0  0  0  0  0  0  0  0  0
    9.9435  -20.2876   19.8482 C   0  0  0  0  0  0  0  0  0  0  0  0
    9.3740  -20.4355   21.1021 C   0  0  0  0  0  0  0  0  0  0  0  0
    9.6352  -19.5798   22.1493 C   0  0  0  0  0  0  0  0  0  0  0  0
   10.4961  -18.5201   21.9751 C   0  0  0  0  0  0  0  0  0  0  0  0
   10.8172  -17.5633   23.0665 C   0  0  0  0  0  0  0  0  0  0  0  0
    9.7386  -16.4781   23.1456 C   0  0  2  0  0  0  0  0  0  0  0  0
    9.7856  -15.7322   21.9041 N   0  0  0  0  0  0  0  0  0  0  0  0
    9.9693  -15.5998   24.3210 C   0  0  0  0  0  0  0  0  0  0  0  0
   10.9036  -14.7881   24.2496 O   0  0  0  0  0  0  0  0  0  0  0  0
   11.0755  -18.3520   20.7358 C   0  0  0  0  0  0  0  0  0  0  0  0
   10.7997  -19.2215   19.7001 C   0  0  0  0  0  0  0  0  0  0  0  0
    6.2180  -12.7299   26.2521 C   0  0  0  0  0  0  0  0  0  0  0  0
    7.5673  -13.3614   25.8941 C   0  0  0  0  0  0  0  0  0  0  0  0
    7.9819  -14.2452   27.0204 C   0  0  2  0  0  0  0  0  0  0  0  0
    8.1913  -13.3240   28.2268 C   0  0  0  0  0  0  0  0  0  0  0  0
    9.2672  -14.9748   26.6944 C   0  0  2  0  0  0  0  0  0  0  0  0
    9.1576  -15.6937   25.4592 N   0  0  0  0  0  0  0  0  0  0  0  0
    9.7707  -15.7869   27.8030 C   0  0  0  0  0  0  0  0  0  0  0  0
    9.7331  -17.1582   27.8617 O   0  0  0  0  0  0  0  0  0  0  0  0
   10.2902  -15.1876   28.8047 O   0  0  0  0  0  0  0  0  0  0  0  0
  2  1  1  1
  3  2  1  0
  4  2  1  0
  4  5  1  6
  6  7  2  0
  6  4  1  0
  9  8  1  0
 10  9  2  0
 11 12  2  0
 11 10  1  0
 12 18  1  0
 14 13  1  6
 13 12  1  0
 14 15  1  0
 15  6  1  0
 16 17  2  0
 16 14  1  0
 18 19  2  0
 19  9  1  0
 20 21  1  0
 21 22  1  0
 22 24  1  0
 22 23  1  1
 24 25  1  6
 25 16  1  0
 26 24  1  0
 27 26  1  0
 28 26  2  0
M  END
$$$$
