VYI.pdb
     RDKit          3D

 28 28  0  0  1  0  0  0  0  0999 V2000
    7.6050  -18.0242   19.7646 C   0  0  0  0  0  0  0  0  0  0  0  0
    8.4553  -19.1090   20.4449 C   0  0  2  0  0  0  0  0  0  0  0  0
    7.6820  -20.3788   20.3192 C   0  0  0  0  0  0  0  0  0  0  0  0
    8.7005  -18.6693   21.8760 C   0  0  2  0  0  0  0  0  0  0  0  0
    7.4031  -18.7107   22.5771 N   0  0  0  0  0  0  0  0  0  0  0  0
    9.2322  -17.3155   22.0080 C   0  0  0  0  0  0  0  0  0  0  0  0
   10.3471  -17.0275   21.4617 O   0  0  0  0  0  0  0  0  0  0  0  0
    8.0089  -13.4186   16.6504 O   0  0  0  0  0  0  0  0  0  0  0  0
    8.0268  -13.5414   18.0426 C   0  0  0  0  0  0  0  0  0  0  0  0
    9.2201  -13.6286   18.7403 C   0  0  0  0  0  0  0  0  0  0  0  0
    9.2795  -13.7504   20.1109 C   0  0  0  0  0  0  0  0  0  0  0  0
    8.1191  -13.7902   20.8501 C   0  0  0  0  0  0  0  0  0  0  0  0
    8.1188  -13.9203   22.3310 C   0  0  0  0  0  0  0  0  0  0  0  0
    9.2018  -14.9112   22.7697 C   0  0  2  0  0  0  0  0  0  0  0  0
    8.6243  -16.2386   22.7029 N   0  0  0  0  0  0  0  0  0  0  0  0
    9.6774  -14.5895   24.1395 C   0  0  0  0  0  0  0  0  0  0  0  0
   10.0303  -13.4215   24.3591 O   0  0  0  0  0  0  0  0  0  0  0  0
    6.9187  -13.7051   20.1783 C   0  0  0  0  0  0  0  0  0  0  0  0
    6.8822  -13.5835   18.8039 C   0  0  0  0  0  0  0  0  0  0  0  0
    7.3718  -12.3537   26.6413 C   0  0  0  0  0  0  0  0  0  0  0  0
    8.5818  -13.1992   26.2306 C   0  0  0  0  0  0  0  0  0  0  0  0
    8.5056  -14.5025   26.9496 C   0  0  2  0  0  0  0  0  0  0  0  0
    8.5859  -14.1679   28.4427 C   0  0  0  0  0  0  0  0  0  0  0  0
    9.6533  -15.4078   26.5575 C   0  0  2  0  0  0  0  0  0  0  0  0
    9.7212  -15.5741   25.1353 N   0  0  0  0  0  0  0  0  0  0  0  0
    9.6754  -16.6704   27.2974 C   0  0  0  0  0  0  0  0  0  0  0  0
   10.3680  -16.8946   28.4616 O   0  0  0  0  0  0  0  0  0  0  0  0
    9.0014  -17.6532   26.8368 O   0  0  0  0  0  0  0  0  0  0  0  0
  2  1  1  6
  3  2  1  0
  4  2  1  0
  4  5  1  1
  6  7  2  0
  6  4  1  0
  9  8  1  0
 10  9  2  0
 11 12  2  0
 11 10  1  0
 12 18  1  0
 14 13  1  1
 13 12  1  0
 14 15  1  0
 15  6  1  0
 16 17  2  0
 16 14  1  0
 18 19  2  0
 19  9  1  0
 20 21  1  0
 21 22  1  0
 22 24  1  0
 22 23  1  1
 24 25  1  6
 25 16  1  0
 26 24  1  0
 27 26  1  0
 28 26  2  0
M  END
$$$$
