VYI.pdb
     RDKit          3D

 28 28  0  0  1  0  0  0  0  0999 V2000
    6.3479  -14.5356   19.3669 C   0  0  0  0  0  0  0  0  0  0  0  0
    7.5520  -13.5929   19.5215 C   0  0  2  0  0  0  0  0  0  0  0  0
    7.9309  -13.1770   18.1397 C   0  0  0  0  0  0  0  0  0  0  0  0
    8.6369  -14.3524   20.2618 C   0  0  2  0  0  0  0  0  0  0  0  0
    9.0328  -15.4923   19.4132 N   0  0  0  0  0  0  0  0  0  0  0  0
    8.2225  -14.8867   21.5563 C   0  0  0  0  0  0  0  0  0  0  0  0
    7.7895  -14.0886   22.4506 O   0  0  0  0  0  0  0  0  0  0  0  0
    7.6308  -19.9995   28.7405 O   0  0  0  0  0  0  0  0  0  0  0  0
    7.7700  -19.5557   27.4224 C   0  0  0  0  0  0  0  0  0  0  0  0
    9.0199  -19.3424   26.8648 C   0  0  0  0  0  0  0  0  0  0  0  0
    9.1984  -18.9058   25.5708 C   0  0  0  0  0  0  0  0  0  0  0  0
    8.1065  -18.6612   24.7692 C   0  0  0  0  0  0  0  0  0  0  0  0
    8.2353  -18.1889   23.3655 C   0  0  0  0  0  0  0  0  0  0  0  0
    7.8961  -16.6973   23.2817 C   0  0  2  0  0  0  0  0  0  0  0  0
    8.2469  -16.2496   21.9488 N   0  0  0  0  0  0  0  0  0  0  0  0
    8.6302  -15.9372   24.3254 C   0  0  0  0  0  0  0  0  0  0  0  0
    9.8578  -15.8276   24.1913 O   0  0  0  0  0  0  0  0  0  0  0  0
    6.8519  -18.8661   25.3016 C   0  0  0  0  0  0  0  0  0  0  0  0
    6.6958  -19.3040   26.6012 C   0  0  0  0  0  0  0  0  0  0  0  0
    5.9024  -11.8130   26.5672 C   0  0  0  0  0  0  0  0  0  0  0  0
    7.0147  -12.6900   25.9830 C   0  0  0  0  0  0  0  0  0  0  0  0
    7.4720  -13.6314   27.0442 C   0  0  2  0  0  0  0  0  0  0  0  0
    8.1053  -12.7633   28.1364 C   0  0  0  0  0  0  0  0  0  0  0  0
    8.4916  -14.6092   26.5012 C   0  0  2  0  0  0  0  0  0  0  0  0
    7.9525  -15.3712   25.4133 N   0  0  0  0  0  0  0  0  0  0  0  0
    9.1182  -15.4300   27.5384 C   0  0  0  0  0  0  0  0  0  0  0  0
    8.6972  -16.6792   27.9224 O   0  0  0  0  0  0  0  0  0  0  0  0
   10.1403  -14.9614   28.1451 O   0  0  0  0  0  0  0  0  0  0  0  0
  2  1  1  6
  3  2  1  0
  4  2  1  0
  4  5  1  6
  6  7  2  0
  6  4  1  0
  9  8  1  0
 10  9  2  0
 11 12  2  0
 11 10  1  0
 12 18  1  0
 14 13  1  6
 13 12  1  0
 14 15  1  0
 15  6  1  0
 16 17  2  0
 16 14  1  0
 18 19  2  0
 19  9  1  0
 20 21  1  0
 21 22  1  0
 22 24  1  0
 22 23  1  1
 24 25  1  6
 25 16  1  0
 26 24  1  0
 27 26  1  0
 28 26  2  0
M  END
$$$$
