VYI.pdb
     RDKit          3D

 28 28  0  0  1  0  0  0  0  0999 V2000
   10.4011  -15.8721   16.9762 C   0  0  0  0  0  0  0  0  0  0  0  0
   10.4717  -15.3740   18.4285 C   0  0  2  0  0  0  0  0  0  0  0  0
   10.9655  -16.5267   19.2368 C   0  0  0  0  0  0  0  0  0  0  0  0
    9.0865  -14.8911   18.8156 C   0  0  2  0  0  0  0  0  0  0  0  0
    8.7784  -13.7192   17.9742 N   0  0  0  0  0  0  0  0  0  0  0  0
    8.9595  -14.4801   20.2112 C   0  0  0  0  0  0  0  0  0  0  0  0
    9.4743  -13.3758   20.5853 O   0  0  0  0  0  0  0  0  0  0  0  0
    5.8460  -12.0972   27.9359 O   0  0  0  0  0  0  0  0  0  0  0  0
    6.0559  -12.7479   26.7169 C   0  0  0  0  0  0  0  0  0  0  0  0
    5.8418  -14.1099   26.5839 C   0  0  0  0  0  0  0  0  0  0  0  0
    6.0372  -14.7870   25.4005 C   0  0  0  0  0  0  0  0  0  0  0  0
    6.4640  -14.1092   24.2811 C   0  0  0  0  0  0  0  0  0  0  0  0
    6.6925  -14.7845   22.9766 C   0  0  0  0  0  0  0  0  0  0  0  0
    8.1748  -14.7039   22.5978 C   0  0  2  0  0  0  0  0  0  0  0  0
    8.3008  -15.1987   21.2416 N   0  0  0  0  0  0  0  0  0  0  0  0
    8.9984  -15.4946   23.5477 C   0  0  0  0  0  0  0  0  0  0  0  0
    9.2809  -16.6575   23.2238 O   0  0  0  0  0  0  0  0  0  0  0  0
    6.6840  -12.7529   24.3885 C   0  0  0  0  0  0  0  0  0  0  0  0
    6.4818  -12.0941   25.5843 C   0  0  0  0  0  0  0  0  0  0  0  0
   11.7838  -14.1013   28.9527 C   0  0  0  0  0  0  0  0  0  0  0  0
   11.4874  -15.1560   27.8816 C   0  0  0  0  0  0  0  0  0  0  0  0
   10.5747  -14.5505   26.8709 C   0  0  2  0  0  0  0  0  0  0  0  0
    9.3053  -14.1524   27.6310 C   0  0  0  0  0  0  0  0  0  0  0  0
   10.2371  -15.5430   25.7793 C   0  0  2  0  0  0  0  0  0  0  0  0
    9.4329  -14.9386   24.7582 N   0  0  0  0  0  0  0  0  0  0  0  0
    9.6903  -16.8016   26.2883 C   0  0  0  0  0  0  0  0  0  0  0  0
    8.3757  -17.1879   26.1993 O   0  0  0  0  0  0  0  0  0  0  0  0
   10.4865  -17.6179   26.8644 O   0  0  0  0  0  0  0  0  0  0  0  0
  2  1  1  6
  3  2  1  0
  4  2  1  0
  4  5  1  6
  6  7  2  0
  6  4  1  0
  9  8  1  0
 10  9  2  0
 11 12  2  0
 11 10  1  0
 12 18  1  0
 14 13  1  1
 13 12  1  0
 14 15  1  0
 15  6  1  0
 16 17  2  0
 16 14  1  0
 18 19  2  0
 19  9  1  0
 20 21  1  0
 21 22  1  0
 22 24  1  0
 22 23  1  1
 24 25  1  6
 25 16  1  0
 26 24  1  0
 27 26  1  0
 28 26  2  0
M  END
$$$$
