VYI.pdb
     RDKit          3D

 28 28  0  0  1  0  0  0  0  0999 V2000
    6.8243  -13.1884   20.1909 C   0  0  0  0  0  0  0  0  0  0  0  0
    8.2269  -12.7558   19.7346 C   0  0  2  0  0  0  0  0  0  0  0  0
    8.0171  -11.7346   18.6674 C   0  0  0  0  0  0  0  0  0  0  0  0
    8.9617  -13.9991   19.2699 C   0  0  2  0  0  0  0  0  0  0  0  0
    8.1747  -14.5900   18.1709 N   0  0  0  0  0  0  0  0  0  0  0  0
    9.1244  -15.0230   20.2984 C   0  0  0  0  0  0  0  0  0  0  0  0
    8.3453  -16.0317   20.3029 O   0  0  0  0  0  0  0  0  0  0  0  0
   14.9954  -14.6610   18.5634 O   0  0  0  0  0  0  0  0  0  0  0  0
   14.0829  -15.2142   19.4662 C   0  0  0  0  0  0  0  0  0  0  0  0
   12.9920  -15.9459   19.0267 C   0  0  0  0  0  0  0  0  0  0  0  0
   12.0714  -16.5065   19.8842 C   0  0  0  0  0  0  0  0  0  0  0  0
   12.2128  -16.3513   21.2445 C   0  0  0  0  0  0  0  0  0  0  0  0
   11.2525  -16.9323   22.2193 C   0  0  0  0  0  0  0  0  0  0  0  0
   10.0772  -15.9728   22.4319 C   0  0  2  0  0  0  0  0  0  0  0  0
   10.0912  -15.0243   21.3364 N   0  0  0  0  0  0  0  0  0  0  0  0
   10.1925  -15.2920   23.7469 C   0  0  0  0  0  0  0  0  0  0  0  0
   11.0995  -14.4570   23.8772 O   0  0  0  0  0  0  0  0  0  0  0  0
   13.2906  -15.6270   21.7062 C   0  0  0  0  0  0  0  0  0  0  0  0
   14.2014  -15.0737   20.8292 C   0  0  0  0  0  0  0  0  0  0  0  0
    6.4515  -12.5392   25.3773 C   0  0  0  0  0  0  0  0  0  0  0  0
    7.8184  -13.2098   25.2057 C   0  0  0  0  0  0  0  0  0  0  0  0
    7.9880  -14.2090   26.2986 C   0  0  2  0  0  0  0  0  0  0  0  0
    8.0735  -13.4036   27.5993 C   0  0  0  0  0  0  0  0  0  0  0  0
    9.2522  -15.0181   26.1043 C   0  0  2  0  0  0  0  0  0  0  0  0
    9.3065  -15.5895   24.7908 N   0  0  0  0  0  0  0  0  0  0  0  0
    9.4918  -15.9863   27.1755 C   0  0  0  0  0  0  0  0  0  0  0  0
   10.2602  -15.7602   28.2907 O   0  0  0  0  0  0  0  0  0  0  0  0
    8.9499  -17.1394   27.0809 O   0  0  0  0  0  0  0  0  0  0  0  0
  2  1  1  6
  3  2  1  0
  4  2  1  0
  4  5  1  6
  6  7  2  0
  6  4  1  0
  9  8  1  0
 10  9  2  0
 11 12  2  0
 11 10  1  0
 12 18  1  0
 14 13  1  6
 13 12  1  0
 14 15  1  0
 15  6  1  0
 16 17  2  0
 16 14  1  0
 18 19  2  0
 19  9  1  0
 20 21  1  0
 21 22  1  0
 22 24  1  0
 22 23  1  1
 24 25  1  6
 25 16  1  0
 26 24  1  0
 27 26  1  0
 28 26  2  0
M  END
$$$$
