VYI.pdb
     RDKit          3D

 28 28  0  0  1  0  0  0  0  0999 V2000
    7.7156  -12.9952   20.2419 C   0  0  0  0  0  0  0  0  0  0  0  0
    8.6208  -13.9449   19.4411 C   0  0  2  0  0  0  0  0  0  0  0  0
    8.6603  -13.4037   18.0514 C   0  0  0  0  0  0  0  0  0  0  0  0
    8.0322  -15.3390   19.5491 C   0  0  2  0  0  0  0  0  0  0  0  0
    6.7778  -15.3480   18.7727 N   0  0  0  0  0  0  0  0  0  0  0  0
    7.7124  -15.7545   20.9122 C   0  0  0  0  0  0  0  0  0  0  0  0
    6.5774  -15.4514   21.4063 O   0  0  0  0  0  0  0  0  0  0  0  0
    7.5549  -19.6453   28.8505 O   0  0  0  0  0  0  0  0  0  0  0  0
    7.8570  -19.2881   27.5334 C   0  0  0  0  0  0  0  0  0  0  0  0
    6.8783  -19.2642   26.5535 C   0  0  0  0  0  0  0  0  0  0  0  0
    7.1360  -18.9180   25.2455 C   0  0  0  0  0  0  0  0  0  0  0  0
    8.4127  -18.5752   24.8621 C   0  0  0  0  0  0  0  0  0  0  0  0
    8.7525  -18.1927   23.4663 C   0  0  0  0  0  0  0  0  0  0  0  0
    8.1996  -16.7980   23.1561 C   0  0  2  0  0  0  0  0  0  0  0  0
    8.5553  -16.4881   21.7860 N   0  0  0  0  0  0  0  0  0  0  0  0
    8.7509  -15.7969   24.1047 C   0  0  0  0  0  0  0  0  0  0  0  0
    9.9583  -15.5313   24.0129 O   0  0  0  0  0  0  0  0  0  0  0  0
    9.4040  -18.5915   25.8195 C   0  0  0  0  0  0  0  0  0  0  0  0
    9.1237  -18.9416   27.1248 C   0  0  0  0  0  0  0  0  0  0  0  0
    6.9159  -10.5447   26.1194 C   0  0  0  0  0  0  0  0  0  0  0  0
    7.7604  -11.7515   26.5413 C   0  0  0  0  0  0  0  0  0  0  0  0
    7.3171  -12.9317   25.7461 C   0  0  2  0  0  0  0  0  0  0  0  0
    5.9132  -13.2799   26.2516 C   0  0  0  0  0  0  0  0  0  0  0  0
    8.2493  -14.1063   25.9505 C   0  0  2  0  0  0  0  0  0  0  0  0
    7.9302  -15.1838   25.0606 N   0  0  0  0  0  0  0  0  0  0  0  0
    8.3668  -14.5171   27.3504 C   0  0  0  0  0  0  0  0  0  0  0  0
    9.1619  -13.9093   28.2905 O   0  0  0  0  0  0  0  0  0  0  0  0
    7.6813  -15.5201   27.7460 O   0  0  0  0  0  0  0  0  0  0  0  0
  2  1  1  1
  3  2  1  0
  4  2  1  0
  4  5  1  6
  6  7  2  0
  6  4  1  0
  9  8  1  0
 10  9  2  0
 11 12  2  0
 11 10  1  0
 12 18  1  0
 14 13  1  1
 13 12  1  0
 14 15  1  0
 15  6  1  0
 16 17  2  0
 16 14  1  0
 18 19  2  0
 19  9  1  0
 20 21  1  0
 21 22  1  0
 22 24  1  0
 22 23  1  1
 24 25  1  6
 25 16  1  0
 26 24  1  0
 27 26  1  0
 28 26  2  0
M  END
$$$$
