VYI.pdb
     RDKit          3D

 28 28  0  0  1  0  0  0  0  0999 V2000
   11.2333  -19.0163   18.9672 C   0  0  0  0  0  0  0  0  0  0  0  0
   11.2639  -18.1185   20.2144 C   0  0  2  0  0  0  0  0  0  0  0  0
   11.1701  -19.0368   21.3865 C   0  0  0  0  0  0  0  0  0  0  0  0
   10.1134  -17.1360   20.1005 C   0  0  2  0  0  0  0  0  0  0  0  0
   10.3582  -16.3092   18.9036 N   0  0  0  0  0  0  0  0  0  0  0  0
    9.9756  -16.2344   21.2411 C   0  0  0  0  0  0  0  0  0  0  0  0
   10.0362  -14.9755   21.0516 O   0  0  0  0  0  0  0  0  0  0  0  0
    5.4460  -11.8138   26.9481 O   0  0  0  0  0  0  0  0  0  0  0  0
    6.0575  -12.6259   25.9888 C   0  0  0  0  0  0  0  0  0  0  0  0
    6.9758  -12.1085   25.0901 C   0  0  0  0  0  0  0  0  0  0  0  0
    7.5994  -12.8755   24.1310 C   0  0  0  0  0  0  0  0  0  0  0  0
    7.3196  -14.2197   24.0344 C   0  0  0  0  0  0  0  0  0  0  0  0
    7.9600  -15.0986   23.0208 C   0  0  0  0  0  0  0  0  0  0  0  0
    9.2374  -15.7178   23.5969 C   0  0  2  0  0  0  0  0  0  0  0  0
    9.7727  -16.6147   22.5924 N   0  0  0  0  0  0  0  0  0  0  0  0
    8.9435  -16.4305   24.8664 C   0  0  0  0  0  0  0  0  0  0  0  0
    8.4142  -17.5484   24.7815 O   0  0  0  0  0  0  0  0  0  0  0  0
    6.4087  -14.7578   24.9177 C   0  0  0  0  0  0  0  0  0  0  0  0
    5.7954  -13.9709   25.8714 C   0  0  0  0  0  0  0  0  0  0  0  0
   10.5380  -13.0083   28.9150 C   0  0  0  0  0  0  0  0  0  0  0  0
   10.5933  -13.9892   27.7392 C   0  0  0  0  0  0  0  0  0  0  0  0
   10.2788  -15.3521   28.2538 C   0  0  2  0  0  0  0  0  0  0  0  0
   11.4523  -15.7451   29.1571 C   0  0  0  0  0  0  0  0  0  0  0  0
   10.1420  -16.3438   27.1187 C   0  0  2  0  0  0  0  0  0  0  0  0
    9.2560  -15.8532   26.1042 N   0  0  0  0  0  0  0  0  0  0  0  0
    9.8251  -17.7002   27.5681 C   0  0  0  0  0  0  0  0  0  0  0  0
   10.7458  -18.6881   27.8164 O   0  0  0  0  0  0  0  0  0  0  0  0
    8.5979  -18.0062   27.7489 O   0  0  0  0  0  0  0  0  0  0  0  0
  2  1  1  6
  3  2  1  0
  4  2  1  0
  4  5  1  6
  6  7  2  0
  6  4  1  0
  9  8  1  0
 10  9  2  0
 11 12  2  0
 11 10  1  0
 12 18  1  0
 14 13  1  6
 13 12  1  0
 14 15  1  0
 15  6  1  0
 16 17  2  0
 16 14  1  0
 18 19  2  0
 19  9  1  0
 20 21  1  0
 21 22  1  0
 22 24  1  0
 22 23  1  1
 24 25  1  6
 25 16  1  0
 26 24  1  0
 27 26  1  0
 28 26  2  0
M  END
$$$$
