TCN.pdb
     RDKit          3D

 22 21  0  0  1  0  0  0  0  0999 V2000
   26.3980   -9.6188  -15.2455 C   0  0  0  0  0  0  0  0  0  0  0  0
   26.9101  -10.2065  -16.5185 C   0  0  1  0  0  0  0  0  0  0  0  0
   28.1117  -10.8599  -16.2473 O   0  0  0  0  0  0  0  0  0  0  0  0
   25.9797  -11.2091  -17.1347 C   0  0  2  0  0  0  0  0  0  0  0  0
   26.5822  -11.7256  -18.3467 N   0  0  0  0  0  0  0  0  0  0  0  0
   24.6664  -10.6035  -17.4971 C   0  0  0  0  0  0  0  0  0  0  0  0
   24.5023   -9.9822  -18.5903 O   0  0  0  0  0  0  0  0  0  0  0  0
   23.5220  -10.6777  -16.6569 N   0  0  0  0  0  0  0  0  0  0  0  0
   22.2532  -10.0830  -16.9982 C   0  0  1  0  0  0  0  0  0  0  0  0
   21.1020  -11.0423  -16.8830 C   0  0  0  0  0  0  0  0  0  0  0  0
   21.1878  -12.1766  -18.2998 S   0  0  0  0  0  0  0  0  0  0  0  0
   21.9932   -8.9660  -16.0449 C   0  0  0  0  0  0  0  0  0  0  0  0
   22.4117   -8.9866  -14.8552 O   0  0  0  0  0  0  0  0  0  0  0  0
   20.9163   -4.4472  -13.9673 N   0  0  0  0  0  0  0  0  0  0  0  0
   22.2239   -4.8932  -14.2622 C   0  0  0  0  0  0  0  0  0  0  0  0
   23.2053   -4.3000  -13.7578 O   0  0  0  0  0  0  0  0  0  0  0  0
   22.3938   -6.0550  -15.1639 C   0  0  0  0  0  0  0  0  0  0  0  0
   21.0758   -6.7067  -15.5102 C   0  0  2  0  0  0  0  0  0  0  0  0
   21.2455   -7.8007  -16.4406 N   0  0  0  0  0  0  0  0  0  0  0  0
   20.1782   -5.6693  -16.0695 C   0  0  0  0  0  0  0  0  0  0  0  0
   19.3659   -4.9049  -15.2664 O   0  0  0  0  0  0  0  0  0  0  0  0
   20.1591   -5.4838  -17.3067 O   0  0  0  0  0  0  0  0  0  0  0  0
  2  1  1  1
  3  2  1  0
  4  2  1  0
  4  6  1  0
  4  5  1  6
  6  8  1  0
  6  7  2  0
  8  9  1  0
  9 12  1  0
  9 10  1  1
 11 10  1  0
 12 19  1  0
 12 13  2  0
 15 14  1  0
 15 17  1  0
 16 15  2  0
 18 17  1  6
 18 20  1  0
 19 18  1  0
 20 21  1  0
 22 20  2  0
M  END
$$$$
