TCN.pdb
     RDKit          3D

 22 21  0  0  1  0  0  0  0  0999 V2000
   16.7974   -7.9826  -17.7613 C   0  0  0  0  0  0  0  0  0  0  0  0
   16.0977   -8.9192  -16.8332 C   0  0  1  0  0  0  0  0  0  0  0  0
   15.0434   -9.5150  -17.5246 O   0  0  0  0  0  0  0  0  0  0  0  0
   16.9761  -10.0188  -16.3138 C   0  0  2  0  0  0  0  0  0  0  0  0
   16.1759  -10.9172  -15.5068 N   0  0  0  0  0  0  0  0  0  0  0  0
   18.0805   -9.4953  -15.4599 C   0  0  0  0  0  0  0  0  0  0  0  0
   17.8618   -9.0502  -14.2929 O   0  0  0  0  0  0  0  0  0  0  0  0
   19.4364   -9.4580  -15.8856 N   0  0  0  0  0  0  0  0  0  0  0  0
   20.5038   -8.9287  -15.0729 C   0  0  1  0  0  0  0  0  0  0  0  0
   21.8462   -9.5170  -15.4059 C   0  0  0  0  0  0  0  0  0  0  0  0
   23.0628   -8.7882  -14.2701 S   0  0  0  0  0  0  0  0  0  0  0  0
   20.5920   -7.4609  -15.3215 C   0  0  0  0  0  0  0  0  0  0  0  0
   20.5457   -6.9721  -16.4833 O   0  0  0  0  0  0  0  0  0  0  0  0
   18.9483   -2.2569  -15.0197 N   0  0  0  0  0  0  0  0  0  0  0  0
   19.8683   -2.8634  -14.1356 C   0  0  0  0  0  0  0  0  0  0  0  0
   20.7610   -2.1653  -13.6017 O   0  0  0  0  0  0  0  0  0  0  0  0
   19.7472   -4.3141  -13.8667 C   0  0  0  0  0  0  0  0  0  0  0  0
   20.8514   -5.1105  -14.5215 C   0  0  2  0  0  0  0  0  0  0  0  0
   20.7353   -6.5238  -14.2377 N   0  0  0  0  0  0  0  0  0  0  0  0
   22.1503   -4.5792  -14.0472 C   0  0  0  0  0  0  0  0  0  0  0  0
   22.8437   -3.6251  -14.7527 O   0  0  0  0  0  0  0  0  0  0  0  0
   22.6294   -5.0108  -12.9749 O   0  0  0  0  0  0  0  0  0  0  0  0
  2  1  1  6
  3  2  1  0
  4  2  1  0
  4  6  1  0
  4  5  1  1
  6  8  1  0
  6  7  2  0
  8  9  1  0
  9 12  1  0
  9 10  1  6
 11 10  1  0
 12 19  1  0
 12 13  2  0
 15 14  1  0
 15 17  1  0
 16 15  2  0
 18 17  1  1
 18 20  1  0
 19 18  1  0
 20 21  1  0
 22 20  2  0
M  END
$$$$
