TCN.pdb
     RDKit          3D

 22 21  0  0  1  0  0  0  0  0999 V2000
   19.6650  -12.5384  -19.8801 C   0  0  0  0  0  0  0  0  0  0  0  0
   20.0802  -11.8483  -18.6233 C   0  0  1  0  0  0  0  0  0  0  0  0
   19.0437  -11.9633  -17.6975 O   0  0  0  0  0  0  0  0  0  0  0  0
   21.3125  -12.4307  -17.9966 C   0  0  2  0  0  0  0  0  0  0  0  0
   21.0469  -13.8068  -17.6296 N   0  0  0  0  0  0  0  0  0  0  0  0
   21.7124  -11.6956  -16.7627 C   0  0  0  0  0  0  0  0  0  0  0  0
   21.2877  -12.0406  -15.6188 O   0  0  0  0  0  0  0  0  0  0  0  0
   22.5846  -10.5730  -16.7794 N   0  0  0  0  0  0  0  0  0  0  0  0
   22.9874   -9.8695  -15.5866 C   0  0  1  0  0  0  0  0  0  0  0  0
   24.4118  -10.1434  -15.1928 C   0  0  0  0  0  0  0  0  0  0  0  0
   25.4446   -9.9119  -16.6696 S   0  0  0  0  0  0  0  0  0  0  0  0
   22.8769   -8.4061  -15.8515 C   0  0  0  0  0  0  0  0  0  0  0  0
   23.0741   -7.9135  -16.9958 O   0  0  0  0  0  0  0  0  0  0  0  0
   18.6676   -5.8080  -15.8367 N   0  0  0  0  0  0  0  0  0  0  0  0
   19.9025   -6.1355  -15.2336 C   0  0  0  0  0  0  0  0  0  0  0  0
   19.9115   -6.6851  -14.1079 O   0  0  0  0  0  0  0  0  0  0  0  0
   21.1547   -5.8165  -15.9560 C   0  0  0  0  0  0  0  0  0  0  0  0
   22.3817   -6.0734  -15.1131 C   0  0  2  0  0  0  0  0  0  0  0  0
   22.5370   -7.4777  -14.8046 N   0  0  0  0  0  0  0  0  0  0  0  0
   22.2708   -5.2676  -13.8750 C   0  0  0  0  0  0  0  0  0  0  0  0
   22.2842   -3.8935  -13.9016 O   0  0  0  0  0  0  0  0  0  0  0  0
   22.1620   -5.8538  -12.7750 O   0  0  0  0  0  0  0  0  0  0  0  0
  2  1  1  6
  3  2  1  0
  4  2  1  0
  4  6  1  0
  4  5  1  1
  6  8  1  0
  6  7  2  0
  8  9  1  0
  9 12  1  0
  9 10  1  6
 11 10  1  0
 12 19  1  0
 12 13  2  0
 15 14  1  0
 15 17  1  0
 16 15  2  0
 18 17  1  6
 18 20  1  0
 19 18  1  0
 20 21  1  0
 22 20  2  0
M  END
$$$$
