TCN.pdb
     RDKit          3D

 22 21  0  0  1  0  0  0  0  0999 V2000
   15.6658   -9.6579  -15.6000 C   0  0  0  0  0  0  0  0  0  0  0  0
   15.9022  -11.0905  -15.2535 C   0  0  1  0  0  0  0  0  0  0  0  0
   14.9635  -11.8662  -15.9330 O   0  0  0  0  0  0  0  0  0  0  0  0
   17.2639  -11.5859  -15.6418 C   0  0  2  0  0  0  0  0  0  0  0  0
   17.3883  -12.9744  -15.2473 N   0  0  0  0  0  0  0  0  0  0  0  0
   18.3505  -10.8184  -14.9687 C   0  0  0  0  0  0  0  0  0  0  0  0
   18.6243  -10.9938  -13.7430 O   0  0  0  0  0  0  0  0  0  0  0  0
   19.1450   -9.8504  -15.6415 N   0  0  0  0  0  0  0  0  0  0  0  0
   20.2010   -9.1102  -14.9958 C   0  0  1  0  0  0  0  0  0  0  0  0
   21.5742   -9.5918  -15.3716 C   0  0  0  0  0  0  0  0  0  0  0  0
   22.7791   -8.5870  -14.4551 S   0  0  0  0  0  0  0  0  0  0  0  0
   20.1000   -7.6861  -15.4270 C   0  0  0  0  0  0  0  0  0  0  0  0
   20.0482   -7.3543  -16.6428 O   0  0  0  0  0  0  0  0  0  0  0  0
   18.1699   -2.2166  -13.8442 N   0  0  0  0  0  0  0  0  0  0  0  0
   18.3913   -3.2533  -14.7780 C   0  0  0  0  0  0  0  0  0  0  0  0
   18.3704   -2.9933  -16.0032 O   0  0  0  0  0  0  0  0  0  0  0  0
   18.6429   -4.6229  -14.2753 C   0  0  0  0  0  0  0  0  0  0  0  0
   19.8545   -5.2542  -14.9196 C   0  0  2  0  0  0  0  0  0  0  0  0
   20.0565   -6.6131  -14.4678 N   0  0  0  0  0  0  0  0  0  0  0  0
   21.0344   -4.4125  -14.6130 C   0  0  0  0  0  0  0  0  0  0  0  0
   21.1948   -3.1627  -15.1618 O   0  0  0  0  0  0  0  0  0  0  0  0
   21.9088   -4.8513  -13.8330 O   0  0  0  0  0  0  0  0  0  0  0  0
  2  1  1  6
  3  2  1  0
  4  2  1  0
  4  6  1  0
  4  5  1  1
  6  8  1  0
  6  7  2  0
  8  9  1  0
  9 12  1  0
  9 10  1  6
 11 10  1  0
 12 19  1  0
 12 13  2  0
 15 14  1  0
 15 17  1  0
 16 15  2  0
 18 17  1  1
 18 20  1  0
 19 18  1  0
 20 21  1  0
 22 20  2  0
M  END
$$$$
