TCN.pdb
     RDKit          3D

 22 21  0  0  1  0  0  0  0  0999 V2000
   17.2128  -11.1711  -12.0725 C   0  0  0  0  0  0  0  0  0  0  0  0
   15.7670  -11.5040  -11.9079 C   0  0  1  0  0  0  0  0  0  0  0  0
   15.6320  -12.8918  -11.9282 O   0  0  0  0  0  0  0  0  0  0  0  0
   15.1799  -11.0117  -10.6182 C   0  0  2  0  0  0  0  0  0  0  0  0
   13.8337  -11.5309  -10.4869 N   0  0  0  0  0  0  0  0  0  0  0  0
   15.1045   -9.5234  -10.5708 C   0  0  0  0  0  0  0  0  0  0  0  0
   14.3400   -8.8737  -11.3462 O   0  0  0  0  0  0  0  0  0  0  0  0
   15.8718   -8.7383   -9.6676 N   0  0  0  0  0  0  0  0  0  0  0  0
   15.8271   -7.2970   -9.6413 C   0  0  1  0  0  0  0  0  0  0  0  0
   15.4681   -6.7424   -8.2913 C   0  0  0  0  0  0  0  0  0  0  0  0
   13.7336   -7.1729   -7.9637 S   0  0  0  0  0  0  0  0  0  0  0  0
   17.1858   -6.7845   -9.9812 C   0  0  0  0  0  0  0  0  0  0  0  0
   18.1444   -6.8275   -9.1626 O   0  0  0  0  0  0  0  0  0  0  0  0
   21.9997   -5.7971  -11.6509 N   0  0  0  0  0  0  0  0  0  0  0  0
   20.9777   -5.9990  -12.6052 C   0  0  0  0  0  0  0  0  0  0  0  0
   21.1647   -5.6444  -13.7920 O   0  0  0  0  0  0  0  0  0  0  0  0
   19.7101   -6.6273  -12.1692 C   0  0  0  0  0  0  0  0  0  0  0  0
   18.7706   -5.6330  -11.5285 C   0  0  2  0  0  0  0  0  0  0  0  0
   17.4703   -6.2113  -11.2711 N   0  0  0  0  0  0  0  0  0  0  0  0
   18.6603   -4.4568  -12.4223 C   0  0  0  0  0  0  0  0  0  0  0  0
   19.6065   -3.4599  -12.4277 O   0  0  0  0  0  0  0  0  0  0  0  0
   17.6790   -4.3682  -13.1934 O   0  0  0  0  0  0  0  0  0  0  0  0
  2  1  1  1
  3  2  1  0
  4  2  1  0
  4  6  1  0
  4  5  1  6
  6  8  1  0
  6  7  2  0
  8  9  1  0
  9 12  1  0
  9 10  1  1
 11 10  1  0
 12 19  1  0
 12 13  2  0
 15 14  1  0
 15 17  1  0
 16 15  2  0
 18 17  1  6
 18 20  1  0
 19 18  1  0
 20 21  1  0
 22 20  2  0
M  END
$$$$
