TCN.pdb
     RDKit          3D

 22 21  0  0  1  0  0  0  0  0999 V2000
   20.9094  -12.2013  -14.7498 C   0  0  0  0  0  0  0  0  0  0  0  0
   20.2015  -13.0656  -15.7397 C   0  0  1  0  0  0  0  0  0  0  0  0
   20.4952  -14.3972  -15.4477 O   0  0  0  0  0  0  0  0  0  0  0  0
   18.7092  -12.9152  -15.7105 C   0  0  2  0  0  0  0  0  0  0  0  0
   18.1258  -13.8366  -16.6641 N   0  0  0  0  0  0  0  0  0  0  0  0
   18.2794  -11.5368  -16.0821 C   0  0  0  0  0  0  0  0  0  0  0  0
   18.2978  -11.1389  -17.2860 O   0  0  0  0  0  0  0  0  0  0  0  0
   17.8253  -10.5846  -15.1291 N   0  0  0  0  0  0  0  0  0  0  0  0
   17.3855   -9.2586  -15.4871 C   0  0  1  0  0  0  0  0  0  0  0  0
   15.9329   -9.0174  -15.1859 C   0  0  0  0  0  0  0  0  0  0  0  0
   14.9587  -10.0881  -16.2839 S   0  0  0  0  0  0  0  0  0  0  0  0
   18.1709   -8.2769  -14.6848 C   0  0  0  0  0  0  0  0  0  0  0  0
   18.3435   -8.4096  -13.4424 O   0  0  0  0  0  0  0  0  0  0  0  0
   21.2442   -4.5865  -13.0672 N   0  0  0  0  0  0  0  0  0  0  0  0
   21.8850   -5.5574  -13.8688 C   0  0  0  0  0  0  0  0  0  0  0  0
   23.1363   -5.5837  -13.9220 O   0  0  0  0  0  0  0  0  0  0  0  0
   21.0516   -6.5191  -14.6253 C   0  0  0  0  0  0  0  0  0  0  0  0
   19.5762   -6.2225  -14.4947 C   0  0  2  0  0  0  0  0  0  0  0  0
   18.7746   -7.1212  -15.2955 N   0  0  0  0  0  0  0  0  0  0  0  0
   19.3495   -4.8134  -14.8914 C   0  0  0  0  0  0  0  0  0  0  0  0
   19.4520   -3.7815  -13.9893 O   0  0  0  0  0  0  0  0  0  0  0  0
   19.0568   -4.5553  -16.0802 O   0  0  0  0  0  0  0  0  0  0  0  0
  2  1  1  1
  3  2  1  0
  4  2  1  0
  4  6  1  0
  4  5  1  6
  6  8  1  0
  6  7  2  0
  8  9  1  0
  9 12  1  0
  9 10  1  1
 11 10  1  0
 12 19  1  0
 12 13  2  0
 15 14  1  0
 15 17  1  0
 16 15  2  0
 18 17  1  6
 18 20  1  0
 19 18  1  0
 20 21  1  0
 22 20  2  0
M  END
$$$$
