TCN.pdb
     RDKit          3D

 22 21  0  0  1  0  0  0  0  0999 V2000
   23.4271   -9.8128  -17.5502 C   0  0  0  0  0  0  0  0  0  0  0  0
   22.5220  -10.9886  -17.7134 C   0  0  1  0  0  0  0  0  0  0  0  0
   23.3091  -12.1269  -17.8847 O   0  0  0  0  0  0  0  0  0  0  0  0
   21.6304  -11.2295  -16.5313 C   0  0  2  0  0  0  0  0  0  0  0  0
   20.9002  -12.4636  -16.7380 N   0  0  0  0  0  0  0  0  0  0  0  0
   20.6366  -10.1333  -16.3486 C   0  0  0  0  0  0  0  0  0  0  0  0
   19.7019   -9.9403  -17.1835 O   0  0  0  0  0  0  0  0  0  0  0  0
   20.6648   -9.2398  -15.2431 N   0  0  0  0  0  0  0  0  0  0  0  0
   19.7951   -8.0947  -15.1324 C   0  0  1  0  0  0  0  0  0  0  0  0
   18.8621   -8.1739  -13.9566 C   0  0  0  0  0  0  0  0  0  0  0  0
   19.8616   -8.5476  -12.4860 S   0  0  0  0  0  0  0  0  0  0  0  0
   20.6444   -6.8840  -14.9402 C   0  0  0  0  0  0  0  0  0  0  0  0
   21.8899   -6.9593  -14.7558 O   0  0  0  0  0  0  0  0  0  0  0  0
   22.6804   -2.3204  -15.4090 N   0  0  0  0  0  0  0  0  0  0  0  0
   22.6954   -3.2946  -16.4321 C   0  0  0  0  0  0  0  0  0  0  0  0
   23.4662   -3.1499  -17.4090 O   0  0  0  0  0  0  0  0  0  0  0  0
   21.7937   -4.4630  -16.3162 C   0  0  0  0  0  0  0  0  0  0  0  0
   20.9469   -4.4093  -15.0664 C   0  0  2  0  0  0  0  0  0  0  0  0
   20.0782   -5.5602  -14.9561 N   0  0  0  0  0  0  0  0  0  0  0  0
   20.1623   -3.1530  -15.0915 C   0  0  0  0  0  0  0  0  0  0  0  0
   20.5864   -2.0209  -14.4376 O   0  0  0  0  0  0  0  0  0  0  0  0
   19.0839   -3.1216  -15.7253 O   0  0  0  0  0  0  0  0  0  0  0  0
  2  1  1  1
  3  2  1  0
  4  2  1  0
  4  6  1  0
  4  5  1  6
  6  8  1  0
  6  7  2  0
  8  9  1  0
  9 12  1  0
  9 10  1  1
 11 10  1  0
 12 19  1  0
 12 13  2  0
 15 14  1  0
 15 17  1  0
 16 15  2  0
 18 17  1  6
 18 20  1  0
 19 18  1  0
 20 21  1  0
 22 20  2  0
M  END
$$$$
