YKM.pdb
     RDKit          3D

 30 30  0  0  1  0  0  0  0  0999 V2000
    7.2106  -22.4223   28.2622 O   0  0  0  0  0  0  0  0  0  0  0  0
    7.0425  -21.3684   27.3763 C   0  0  0  0  0  0  0  0  0  0  0  0
    5.9639  -21.3212   26.5431 C   0  0  0  0  0  0  0  0  0  0  0  0
    5.7987  -20.2661   25.6584 C   0  0  0  0  0  0  0  0  0  0  0  0
    6.7616  -19.2858   25.6634 C   0  0  0  0  0  0  0  0  0  0  0  0
    6.6013  -18.1496   24.7237 C   0  0  0  0  0  0  0  0  0  0  0  0
    6.8768  -18.6999   23.3310 C   0  0  2  0  0  0  0  0  0  0  0  0
    7.6543  -19.9032   23.3747 N   0  0  0  0  0  0  0  0  0  0  0  0
    7.6334  -17.6517   22.6056 C   0  0  0  0  0  0  0  0  0  0  0  0
    8.8885  -17.7969   22.4438 O   0  0  0  0  0  0  0  0  0  0  0  0
    7.8545  -19.3048   26.4868 C   0  0  0  0  0  0  0  0  0  0  0  0
    7.9861  -20.3721   27.3555 C   0  0  0  0  0  0  0  0  0  0  0  0
    6.9686  -16.5282   22.1125 N   0  0  0  0  0  0  0  0  0  0  0  0
    7.8308  -15.3856   21.5825 C   0  0  1  0  0  0  0  0  0  0  0  0
    6.9131  -14.5960   20.7712 C   0  0  0  0  0  0  0  0  0  0  0  0
    6.9401  -14.6885   19.3095 C   0  0  0  0  0  0  0  0  0  0  0  0
    7.8913  -13.7727   18.6402 C   0  0  0  0  0  0  0  0  0  0  0  0
    7.6557  -13.9209   17.1277 C   0  0  0  0  0  0  0  0  0  0  0  0
    8.6022  -13.0555   16.4649 N   0  0  0  0  0  0  0  0  0  0  0  0
    8.4595  -14.8867   22.8052 C   0  0  0  0  0  0  0  0  0  0  0  0
    9.4453  -14.0474   22.7411 O   0  0  0  0  0  0  0  0  0  0  0  0
    5.8826  -10.7566   27.2427 C   0  0  0  0  0  0  0  0  0  0  0  0
    6.2840  -12.3545   28.0492 S   0  0  0  0  0  0  0  0  0  0  0  0
    7.7182  -13.0309   27.1363 C   0  0  0  0  0  0  0  0  0  0  0  0
    7.2775  -13.8775   25.9928 C   0  0  0  0  0  0  0  0  0  0  0  0
    8.5132  -14.4028   25.2533 C   0  0  2  0  0  0  0  0  0  0  0  0
    8.0949  -15.2133   24.1349 N   0  0  0  0  0  0  0  0  0  0  0  0
    9.4268  -15.0909   26.1553 C   0  0  0  0  0  0  0  0  0  0  0  0
    9.9176  -16.3706   25.7985 O   0  0  0  0  0  0  0  0  0  0  0  0
    9.8510  -14.6744   27.2572 O   0  0  0  0  0  0  0  0  0  0  0  0
  2  1  1  0
  3  2  2  0
  4  3  1  0
  5  4  2  0
  5 11  1  0
  6  5  1  0
  7  8  1  1
  7  6  1  0
  9  7  1  0
 10  9  2  0
 11 12  2  0
 12  2  1  0
 13  9  1  0
 14 20  1  0
 14 13  1  0
 14 15  1  1
 16 15  1  0
 17 16  1  0
 18 17  1  0
 19 18  1  0
 20 27  1  0
 21 20  2  0
 22 23  1  0
 23 24  1  0
 24 25  1  0
 26 25  1  1
 26 28  1  0
 27 26  1  0
 28 30  2  0
 28 29  1  0
M  END
$$$$
