YKM.pdb
     RDKit          3D

 30 30  0  0  1  0  0  0  0  0999 V2000
    8.2440  -12.9366   16.1730 O   0  0  0  0  0  0  0  0  0  0  0  0
    8.1558  -13.3831   17.4832 C   0  0  0  0  0  0  0  0  0  0  0  0
    8.7570  -14.5454   17.8673 C   0  0  0  0  0  0  0  0  0  0  0  0
    8.6669  -14.9891   19.1782 C   0  0  0  0  0  0  0  0  0  0  0  0
    7.9524  -14.2108   20.0569 C   0  0  0  0  0  0  0  0  0  0  0  0
    7.8454  -14.6700   21.4630 C   0  0  0  0  0  0  0  0  0  0  0  0
    7.4924  -16.1500   21.4076 C   0  0  2  0  0  0  0  0  0  0  0  0
    6.0819  -16.3592   21.2628 N   0  0  0  0  0  0  0  0  0  0  0  0
    7.9482  -16.7404   22.6887 C   0  0  0  0  0  0  0  0  0  0  0  0
    7.1492  -16.7538   23.6807 O   0  0  0  0  0  0  0  0  0  0  0  0
    7.3382  -13.0405   19.7021 C   0  0  0  0  0  0  0  0  0  0  0  0
    7.4494  -12.6294   18.3868 C   0  0  0  0  0  0  0  0  0  0  0  0
    9.2351  -17.2699   22.7928 N   0  0  0  0  0  0  0  0  0  0  0  0
    9.6245  -17.8963   24.1291 C   0  0  1  0  0  0  0  0  0  0  0  0
   10.5924  -18.9249   23.7697 C   0  0  0  0  0  0  0  0  0  0  0  0
   10.1464  -20.2299   23.2759 C   0  0  0  0  0  0  0  0  0  0  0  0
   11.2314  -21.1516   22.8702 C   0  0  0  0  0  0  0  0  0  0  0  0
   10.5556  -22.4606   22.4285 C   0  0  0  0  0  0  0  0  0  0  0  0
   11.6092  -23.3916   22.1011 N   0  0  0  0  0  0  0  0  0  0  0  0
    9.9586  -16.7195   24.9307 C   0  0  0  0  0  0  0  0  0  0  0  0
   10.5816  -15.7164   24.3961 O   0  0  0  0  0  0  0  0  0  0  0  0
    7.0087  -12.1346   26.3145 C   0  0  0  0  0  0  0  0  0  0  0  0
    7.9948  -11.8643   27.8376 S   0  0  0  0  0  0  0  0  0  0  0  0
    9.3243  -13.1209   27.8040 C   0  0  0  0  0  0  0  0  0  0  0  0
    8.9074  -14.3249   27.0324 C   0  0  0  0  0  0  0  0  0  0  0  0
   10.0692  -15.3241   26.9973 C   0  0  2  0  0  0  0  0  0  0  0  0
    9.6549  -16.5178   26.3000 N   0  0  0  0  0  0  0  0  0  0  0  0
   10.5921  -15.5869   28.3313 C   0  0  0  0  0  0  0  0  0  0  0  0
   11.3319  -14.5780   28.9951 O   0  0  0  0  0  0  0  0  0  0  0  0
   10.4648  -16.6413   28.9943 O   0  0  0  0  0  0  0  0  0  0  0  0
  2  1  1  0
  3  2  2  0
  4  3  1  0
  5  4  2  0
  5 11  1  0
  6  5  1  0
  7  8  1  1
  7  6  1  0
  9  7  1  0
 10  9  2  0
 11 12  2  0
 12  2  1  0
 13  9  1  0
 14 20  1  0
 14 13  1  0
 14 15  1  6
 16 15  1  0
 17 16  1  0
 18 17  1  0
 19 18  1  0
 20 27  1  0
 21 20  2  0
 22 23  1  0
 23 24  1  0
 24 25  1  0
 26 25  1  1
 26 28  1  0
 27 26  1  0
 28 30  2  0
 28 29  1  0
M  END
$$$$
