YKM.pdb
     RDKit          3D

 30 30  0  0  1  0  0  0  0  0999 V2000
    8.0817  -13.3383   15.8083 O   0  0  0  0  0  0  0  0  0  0  0  0
    8.1930  -13.7030   17.1418 C   0  0  0  0  0  0  0  0  0  0  0  0
    9.0516  -14.6902   17.5270 C   0  0  0  0  0  0  0  0  0  0  0  0
    9.1605  -15.0526   18.8612 C   0  0  0  0  0  0  0  0  0  0  0  0
    8.3720  -14.3775   19.7616 C   0  0  0  0  0  0  0  0  0  0  0  0
    8.4753  -14.7520   21.1930 C   0  0  0  0  0  0  0  0  0  0  0  0
    8.1516  -16.2375   21.2744 C   0  0  2  0  0  0  0  0  0  0  0  0
    6.7667  -16.4990   21.0138 N   0  0  0  0  0  0  0  0  0  0  0  0
    8.4817  -16.6659   22.6546 C   0  0  0  0  0  0  0  0  0  0  0  0
    7.5741  -16.6237   23.5475 O   0  0  0  0  0  0  0  0  0  0  0  0
    7.5014  -13.3831   19.4065 C   0  0  0  0  0  0  0  0  0  0  0  0
    7.4195  -13.0486   18.0676 C   0  0  0  0  0  0  0  0  0  0  0  0
    9.7706  -17.1065   22.9576 N   0  0  0  0  0  0  0  0  0  0  0  0
    9.9989  -17.6862   24.3511 C   0  0  1  0  0  0  0  0  0  0  0  0
   11.1049  -18.6179   24.1704 C   0  0  0  0  0  0  0  0  0  0  0  0
   11.6589  -19.3495   25.3122 C   0  0  0  0  0  0  0  0  0  0  0  0
   10.8176  -20.4592   25.8144 C   0  0  0  0  0  0  0  0  0  0  0  0
   11.5728  -21.0831   27.0000 C   0  0  0  0  0  0  0  0  0  0  0  0
   10.7005  -22.0746   27.5833 N   0  0  0  0  0  0  0  0  0  0  0  0
   10.0875  -16.4789   25.1719 C   0  0  0  0  0  0  0  0  0  0  0  0
   10.6190  -15.3976   24.6938 O   0  0  0  0  0  0  0  0  0  0  0  0
    6.5968  -11.9495   26.3029 C   0  0  0  0  0  0  0  0  0  0  0  0
    7.1967  -12.0218   28.0349 S   0  0  0  0  0  0  0  0  0  0  0  0
    8.7232  -13.0298   27.9954 C   0  0  0  0  0  0  0  0  0  0  0  0
    8.5202  -14.2834   27.2170 C   0  0  0  0  0  0  0  0  0  0  0  0
    9.8179  -15.0992   27.2344 C   0  0  2  0  0  0  0  0  0  0  0  0
    9.6228  -16.3272   26.5018 N   0  0  0  0  0  0  0  0  0  0  0  0
   10.3032  -15.3076   28.5919 C   0  0  0  0  0  0  0  0  0  0  0  0
   11.0439  -14.2808   29.2266 O   0  0  0  0  0  0  0  0  0  0  0  0
   10.1412  -16.3275   29.2998 O   0  0  0  0  0  0  0  0  0  0  0  0
  2  1  1  0
  3  2  2  0
  4  3  1  0
  5  4  2  0
  5 11  1  0
  6  5  1  0
  7  8  1  1
  7  6  1  0
  9  7  1  0
 10  9  2  0
 11 12  2  0
 12  2  1  0
 13  9  1  0
 14 20  1  0
 14 13  1  0
 14 15  1  6
 16 15  1  0
 17 16  1  0
 18 17  1  0
 19 18  1  0
 20 27  1  0
 21 20  2  0
 22 23  1  0
 23 24  1  0
 24 25  1  0
 26 25  1  1
 26 28  1  0
 27 26  1  0
 28 30  2  0
 28 29  1  0
M  END
$$$$
