YKM.pdb
     RDKit          3D

 30 30  0  0  1  0  0  0  0  0999 V2000
   14.3135  -23.8958   24.6223 O   0  0  0  0  0  0  0  0  0  0  0  0
   13.9707  -22.5575   24.4982 C   0  0  0  0  0  0  0  0  0  0  0  0
   14.9308  -21.6022   24.3384 C   0  0  0  0  0  0  0  0  0  0  0  0
   14.5848  -20.2649   24.2147 C   0  0  0  0  0  0  0  0  0  0  0  0
   13.2467  -19.9557   24.2605 C   0  0  0  0  0  0  0  0  0  0  0  0
   12.8582  -18.5303   24.1300 C   0  0  0  0  0  0  0  0  0  0  0  0
   12.5970  -18.2885   22.6496 C   0  0  2  0  0  0  0  0  0  0  0  0
   13.8031  -17.9923   21.9343 N   0  0  0  0  0  0  0  0  0  0  0  0
   11.6789  -17.1276   22.5676 C   0  0  0  0  0  0  0  0  0  0  0  0
   12.1548  -15.9537   22.7030 O   0  0  0  0  0  0  0  0  0  0  0  0
   12.2603  -20.8909   24.4198 C   0  0  0  0  0  0  0  0  0  0  0  0
   12.6426  -22.2140   24.5398 C   0  0  0  0  0  0  0  0  0  0  0  0
   10.3164  -17.3314   22.3451 N   0  0  0  0  0  0  0  0  0  0  0  0
    9.4628  -16.0959   22.0716 C   0  0  1  0  0  0  0  0  0  0  0  0
    8.6366  -16.4806   20.9345 C   0  0  0  0  0  0  0  0  0  0  0  0
    7.7886  -15.4947   20.2602 C   0  0  0  0  0  0  0  0  0  0  0  0
    8.4402  -14.7587   19.1534 C   0  0  0  0  0  0  0  0  0  0  0  0
    7.3827  -13.8020   18.5775 C   0  0  0  0  0  0  0  0  0  0  0  0
    7.9904  -13.1240   17.4572 N   0  0  0  0  0  0  0  0  0  0  0  0
    8.9220  -15.8003   23.3980 C   0  0  0  0  0  0  0  0  0  0  0  0
    8.7992  -16.7410   24.2814 O   0  0  0  0  0  0  0  0  0  0  0  0
    5.4702  -10.9531   28.4791 C   0  0  0  0  0  0  0  0  0  0  0  0
    6.0503  -11.0819   26.7437 S   0  0  0  0  0  0  0  0  0  0  0  0
    6.4255  -12.8517   26.4702 C   0  0  0  0  0  0  0  0  0  0  0  0
    7.0092  -13.0754   25.1182 C   0  0  0  0  0  0  0  0  0  0  0  0
    7.7904  -14.3942   25.1221 C   0  0  2  0  0  0  0  0  0  0  0  0
    8.5033  -14.5335   23.8750 N   0  0  0  0  0  0  0  0  0  0  0  0
    6.9279  -15.5286   25.4239 C   0  0  0  0  0  0  0  0  0  0  0  0
    6.8534  -16.0055   26.7554 O   0  0  0  0  0  0  0  0  0  0  0  0
    6.2124  -16.1645   24.6169 O   0  0  0  0  0  0  0  0  0  0  0  0
  2  1  1  0
  3  2  2  0
  4  3  1  0
  5  4  2  0
  5 11  1  0
  6  5  1  0
  7  8  1  6
  7  6  1  0
  9  7  1  0
 10  9  2  0
 11 12  2  0
 12  2  1  0
 13  9  1  0
 14 20  1  0
 14 13  1  0
 14 15  1  6
 16 15  1  0
 17 16  1  0
 18 17  1  0
 19 18  1  0
 20 27  1  0
 21 20  2  0
 22 23  1  0
 23 24  1  0
 24 25  1  0
 26 25  1  6
 26 28  1  0
 27 26  1  0
 28 30  2  0
 28 29  1  0
M  END
$$$$
