YKM.pdb
     RDKit          3D

 30 30  0  0  1  0  0  0  0  0999 V2000
    5.6935  -10.3678   27.3883 O   0  0  0  0  0  0  0  0  0  0  0  0
    6.0866  -11.6464   27.0217 C   0  0  0  0  0  0  0  0  0  0  0  0
    6.5411  -11.9034   25.7618 C   0  0  0  0  0  0  0  0  0  0  0  0
    6.9334  -13.1830   25.3983 C   0  0  0  0  0  0  0  0  0  0  0  0
    6.8424  -14.1637   26.3565 C   0  0  0  0  0  0  0  0  0  0  0  0
    7.2575  -15.5383   25.9853 C   0  0  0  0  0  0  0  0  0  0  0  0
    6.3004  -15.9979   24.8941 C   0  0  2  0  0  0  0  0  0  0  0  0
    5.5257  -17.1320   25.3039 N   0  0  0  0  0  0  0  0  0  0  0  0
    7.1372  -16.3693   23.7283 C   0  0  0  0  0  0  0  0  0  0  0  0
    7.5102  -17.5803   23.5972 O   0  0  0  0  0  0  0  0  0  0  0  0
    6.3907  -13.9374   27.6283 C   0  0  0  0  0  0  0  0  0  0  0  0
    6.0084  -12.6497   27.9549 C   0  0  0  0  0  0  0  0  0  0  0  0
    7.5036  -15.3977   22.7961 N   0  0  0  0  0  0  0  0  0  0  0  0
    8.3997  -15.8416   21.6429 C   0  0  1  0  0  0  0  0  0  0  0  0
    8.2548  -14.7816   20.6533 C   0  0  0  0  0  0  0  0  0  0  0  0
    8.9988  -14.8307   19.3923 C   0  0  0  0  0  0  0  0  0  0  0  0
    8.6912  -13.7404   18.4394 C   0  0  0  0  0  0  0  0  0  0  0  0
    9.5972  -13.9561   17.2155 C   0  0  0  0  0  0  0  0  0  0  0  0
    8.7842  -13.7367   16.0429 N   0  0  0  0  0  0  0  0  0  0  0  0
    9.6564  -16.1367   22.3305 C   0  0  0  0  0  0  0  0  0  0  0  0
    9.6556  -16.8044   23.4415 O   0  0  0  0  0  0  0  0  0  0  0  0
   10.3032  -15.6138   26.9692 C   0  0  0  0  0  0  0  0  0  0  0  0
   11.9846  -14.8846   26.8921 S   0  0  0  0  0  0  0  0  0  0  0  0
   12.6007  -15.2217   25.2026 C   0  0  0  0  0  0  0  0  0  0  0  0
   11.4787  -15.2978   24.2259 C   0  0  0  0  0  0  0  0  0  0  0  0
   12.0444  -15.6163   22.8373 C   0  0  2  0  0  0  0  0  0  0  0  0
   10.9576  -15.7757   21.9012 N   0  0  0  0  0  0  0  0  0  0  0  0
   12.9469  -16.7590   22.8742 C   0  0  0  0  0  0  0  0  0  0  0  0
   12.5368  -17.9831   22.2916 O   0  0  0  0  0  0  0  0  0  0  0  0
   14.0915  -16.7969   23.3803 O   0  0  0  0  0  0  0  0  0  0  0  0
  2  1  1  0
  3  2  2  0
  4  3  1  0
  5  4  2  0
  5 11  1  0
  6  5  1  0
  7  8  1  1
  7  6  1  0
  9  7  1  0
 10  9  2  0
 11 12  2  0
 12  2  1  0
 13  9  1  0
 14 20  1  0
 14 13  1  0
 14 15  1  6
 16 15  1  0
 17 16  1  0
 18 17  1  0
 19 18  1  0
 20 27  1  0
 21 20  2  0
 22 23  1  0
 23 24  1  0
 24 25  1  0
 26 25  1  1
 26 28  1  0
 27 26  1  0
 28 30  2  0
 28 29  1  0
M  END
$$$$
