YKM.pdb
     RDKit          3D

 30 30  0  0  1  0  0  0  0  0999 V2000
    7.5427  -12.9249   15.4040 O   0  0  0  0  0  0  0  0  0  0  0  0
    7.4711  -13.5451   16.6425 C   0  0  0  0  0  0  0  0  0  0  0  0
    7.2611  -14.8892   16.7398 C   0  0  0  0  0  0  0  0  0  0  0  0
    7.1899  -15.5064   17.9797 C   0  0  0  0  0  0  0  0  0  0  0  0
    7.3393  -14.7080   19.0880 C   0  0  0  0  0  0  0  0  0  0  0  0
    7.2659  -15.3511   20.4225 C   0  0  0  0  0  0  0  0  0  0  0  0
    8.6851  -15.3634   20.9738 C   0  0  2  0  0  0  0  0  0  0  0  0
    9.6169  -15.9268   20.0419 N   0  0  0  0  0  0  0  0  0  0  0  0
    8.6535  -16.1943   22.2009 C   0  0  0  0  0  0  0  0  0  0  0  0
    7.7197  -16.0094   23.0475 O   0  0  0  0  0  0  0  0  0  0  0  0
    7.5510  -13.3575   19.0232 C   0  0  0  0  0  0  0  0  0  0  0  0
    7.6162  -12.7767   17.7704 C   0  0  0  0  0  0  0  0  0  0  0  0
    9.6375  -17.1607   22.4132 N   0  0  0  0  0  0  0  0  0  0  0  0
    9.6486  -17.8568   23.7716 C   0  0  1  0  0  0  0  0  0  0  0  0
   10.5347  -18.9975   23.5780 C   0  0  0  0  0  0  0  0  0  0  0  0
   11.0079  -19.7782   24.7236 C   0  0  0  0  0  0  0  0  0  0  0  0
   10.4780  -21.1581   24.8046 C   0  0  0  0  0  0  0  0  0  0  0  0
   11.1067  -21.7990   26.0533 C   0  0  0  0  0  0  0  0  0  0  0  0
   10.4891  -23.0930   26.2216 N   0  0  0  0  0  0  0  0  0  0  0  0
    9.9467  -16.7488   24.6786 C   0  0  0  0  0  0  0  0  0  0  0  0
   10.8458  -15.8688   24.3664 O   0  0  0  0  0  0  0  0  0  0  0  0
    7.2608  -11.0134   26.9997 C   0  0  0  0  0  0  0  0  0  0  0  0
    7.2967  -12.3454   28.2604 S   0  0  0  0  0  0  0  0  0  0  0  0
    8.7692  -13.3610   27.8753 C   0  0  0  0  0  0  0  0  0  0  0  0
    8.4200  -14.4957   26.9759 C   0  0  0  0  0  0  0  0  0  0  0  0
    9.6764  -15.3350   26.7177 C   0  0  2  0  0  0  0  0  0  0  0  0
    9.3277  -16.4906   25.9267 N   0  0  0  0  0  0  0  0  0  0  0  0
   10.3627  -15.6701   27.9581 C   0  0  0  0  0  0  0  0  0  0  0  0
   11.2272  -14.7168   28.5494 O   0  0  0  0  0  0  0  0  0  0  0  0
   10.2813  -16.7447   28.5955 O   0  0  0  0  0  0  0  0  0  0  0  0
  2  1  1  0
  3  2  2  0
  4  3  1  0
  5  4  2  0
  5 11  1  0
  6  5  1  0
  7  8  1  6
  7  6  1  0
  9  7  1  0
 10  9  2  0
 11 12  2  0
 12  2  1  0
 13  9  1  0
 14 20  1  0
 14 13  1  0
 14 15  1  6
 16 15  1  0
 17 16  1  0
 18 17  1  0
 19 18  1  0
 20 27  1  0
 21 20  2  0
 22 23  1  0
 23 24  1  0
 24 25  1  0
 26 25  1  1
 26 28  1  0
 27 26  1  0
 28 30  2  0
 28 29  1  0
M  END
$$$$
