YKM.pdb
     RDKit          3D

 30 30  0  0  1  0  0  0  0  0999 V2000
    5.2574  -10.2301   26.5661 O   0  0  0  0  0  0  0  0  0  0  0  0
    5.7413  -11.5185   26.3940 C   0  0  0  0  0  0  0  0  0  0  0  0
    6.3620  -11.8829   25.2356 C   0  0  0  0  0  0  0  0  0  0  0  0
    6.8447  -13.1720   25.0666 C   0  0  0  0  0  0  0  0  0  0  0  0
    6.6688  -14.0501   26.1089 C   0  0  0  0  0  0  0  0  0  0  0  0
    7.1787  -15.4332   25.9457 C   0  0  0  0  0  0  0  0  0  0  0  0
    6.5302  -15.9857   24.6837 C   0  0  2  0  0  0  0  0  0  0  0  0
    5.7854  -17.1822   24.9441 N   0  0  0  0  0  0  0  0  0  0  0  0
    7.6332  -16.2884   23.7408 C   0  0  0  0  0  0  0  0  0  0  0  0
    8.3038  -17.3597   23.8991 O   0  0  0  0  0  0  0  0  0  0  0  0
    6.0505  -13.7148   27.2828 C   0  0  0  0  0  0  0  0  0  0  0  0
    5.5821  -12.4210   27.4157 C   0  0  0  0  0  0  0  0  0  0  0  0
    7.9218  -15.4049   22.6999 N   0  0  0  0  0  0  0  0  0  0  0  0
    9.0929  -15.7615   21.7881 C   0  0  1  0  0  0  0  0  0  0  0  0
    8.8564  -14.9757   20.5838 C   0  0  0  0  0  0  0  0  0  0  0  0
    8.2171  -15.5791   19.4121 C   0  0  0  0  0  0  0  0  0  0  0  0
    8.7352  -16.9125   19.0315 C   0  0  0  0  0  0  0  0  0  0  0  0
    7.8946  -17.3867   17.8341 C   0  0  0  0  0  0  0  0  0  0  0  0
    8.6380  -18.4408   17.1857 N   0  0  0  0  0  0  0  0  0  0  0  0
   10.2399  -15.5569   22.6723 C   0  0  0  0  0  0  0  0  0  0  0  0
   10.3749  -14.4456   23.3258 O   0  0  0  0  0  0  0  0  0  0  0  0
   10.8957  -13.7408   27.6785 C   0  0  0  0  0  0  0  0  0  0  0  0
   11.6936  -15.3669   27.9688 S   0  0  0  0  0  0  0  0  0  0  0  0
   12.5052  -15.8161   26.3917 C   0  0  0  0  0  0  0  0  0  0  0  0
   11.5062  -15.9732   25.2981 C   0  0  0  0  0  0  0  0  0  0  0  0
   12.2425  -16.2616   23.9849 C   0  0  2  0  0  0  0  0  0  0  0  0
   11.2794  -16.4837   22.9333 N   0  0  0  0  0  0  0  0  0  0  0  0
   13.1976  -17.3514   24.1328 C   0  0  0  0  0  0  0  0  0  0  0  0
   14.4521  -17.0941   24.7376 O   0  0  0  0  0  0  0  0  0  0  0  0
   13.0419  -18.5410   23.7749 O   0  0  0  0  0  0  0  0  0  0  0  0
  2  1  1  0
  3  2  2  0
  4  3  1  0
  5  4  2  0
  5 11  1  0
  6  5  1  0
  7  8  1  1
  7  6  1  0
  9  7  1  0
 10  9  2  0
 11 12  2  0
 12  2  1  0
 13  9  1  0
 14 20  1  0
 14 13  1  0
 14 15  1  6
 16 15  1  0
 17 16  1  0
 18 17  1  0
 19 18  1  0
 20 27  1  0
 21 20  2  0
 22 23  1  0
 23 24  1  0
 24 25  1  0
 26 25  1  1
 26 28  1  0
 27 26  1  0
 28 30  2  0
 28 29  1  0
M  END
$$$$
