YKM.pdb
     RDKit          3D

 30 30  0  0  1  0  0  0  0  0999 V2000
    7.1827  -11.0046   26.6523 O   0  0  0  0  0  0  0  0  0  0  0  0
    7.0852  -12.3839   26.5434 C   0  0  0  0  0  0  0  0  0  0  0  0
    5.9032  -13.0217   26.7798 C   0  0  0  0  0  0  0  0  0  0  0  0
    5.8091  -14.4010   26.6702 C   0  0  0  0  0  0  0  0  0  0  0  0
    6.9490  -15.0821   26.3168 C   0  0  0  0  0  0  0  0  0  0  0  0
    6.8669  -16.5579   26.1949 C   0  0  0  0  0  0  0  0  0  0  0  0
    6.1526  -16.8430   24.8809 C   0  0  2  0  0  0  0  0  0  0  0  0
    5.6308  -18.1770   24.8334 N   0  0  0  0  0  0  0  0  0  0  0  0
    7.1600  -16.6704   23.8073 C   0  0  0  0  0  0  0  0  0  0  0  0
    7.9378  -17.6402   23.5293 O   0  0  0  0  0  0  0  0  0  0  0  0
    8.1491  -14.4711   26.0732 C   0  0  0  0  0  0  0  0  0  0  0  0
    8.2053  -13.0949   26.1921 C   0  0  0  0  0  0  0  0  0  0  0  0
    7.2443  -15.4592   23.1194 N   0  0  0  0  0  0  0  0  0  0  0  0
    8.3334  -15.3359   22.0571 C   0  0  1  0  0  0  0  0  0  0  0  0
    7.8006  -14.3600   21.1149 C   0  0  0  0  0  0  0  0  0  0  0  0
    8.5811  -13.9474   19.9460 C   0  0  0  0  0  0  0  0  0  0  0  0
    7.9290  -14.1884   18.6391 C   0  0  0  0  0  0  0  0  0  0  0  0
    8.9038  -13.6859   17.5609 C   0  0  0  0  0  0  0  0  0  0  0  0
    8.2513  -13.8615   16.2851 N   0  0  0  0  0  0  0  0  0  0  0  0
    9.5266  -15.1036   22.8703 C   0  0  0  0  0  0  0  0  0  0  0  0
    9.9530  -13.8977   23.0807 O   0  0  0  0  0  0  0  0  0  0  0  0
   10.2882  -14.3063   28.6897 C   0  0  0  0  0  0  0  0  0  0  0  0
    9.7071  -15.8683   27.9233 S   0  0  0  0  0  0  0  0  0  0  0  0
    9.9505  -15.6638   26.1215 C   0  0  0  0  0  0  0  0  0  0  0  0
   11.3313  -16.0500   25.7178 C   0  0  0  0  0  0  0  0  0  0  0  0
   11.5206  -15.7461   24.2273 C   0  0  2  0  0  0  0  0  0  0  0  0
   10.3164  -16.0906   23.5104 N   0  0  0  0  0  0  0  0  0  0  0  0
   12.7137  -16.3902   23.6951 C   0  0  0  0  0  0  0  0  0  0  0  0
   12.5789  -17.3513   22.6637 O   0  0  0  0  0  0  0  0  0  0  0  0
   13.8974  -16.1926   24.0522 O   0  0  0  0  0  0  0  0  0  0  0  0
  2  1  1  0
  3  2  2  0
  4  3  1  0
  5  4  2  0
  5 11  1  0
  6  5  1  0
  7  8  1  1
  7  6  1  0
  9  7  1  0
 10  9  2  0
 11 12  2  0
 12  2  1  0
 13  9  1  0
 14 20  1  0
 14 13  1  0
 14 15  1  6
 16 15  1  0
 17 16  1  0
 18 17  1  0
 19 18  1  0
 20 27  1  0
 21 20  2  0
 22 23  1  0
 23 24  1  0
 24 25  1  0
 26 25  1  1
 26 28  1  0
 27 26  1  0
 28 30  2  0
 28 29  1  0
M  END
$$$$
