YKM.pdb
     RDKit          3D

 30 30  0  0  1  0  0  0  0  0999 V2000
    9.8852  -19.2972   28.7793 O   0  0  0  0  0  0  0  0  0  0  0  0
    8.8774  -18.9282   27.9007 C   0  0  0  0  0  0  0  0  0  0  0  0
    8.1479  -19.8711   27.2384 C   0  0  0  0  0  0  0  0  0  0  0  0
    7.1409  -19.4989   26.3605 C   0  0  0  0  0  0  0  0  0  0  0  0
    6.9185  -18.1531   26.1941 C   0  0  0  0  0  0  0  0  0  0  0  0
    5.8455  -17.7367   25.2588 C   0  0  0  0  0  0  0  0  0  0  0  0
    6.1880  -18.3510   23.9085 C   0  0  2  0  0  0  0  0  0  0  0  0
    6.6299  -19.7087   24.0344 N   0  0  0  0  0  0  0  0  0  0  0  0
    7.2809  -17.5291   23.3364 C   0  0  0  0  0  0  0  0  0  0  0  0
    8.3835  -18.0918   23.0355 O   0  0  0  0  0  0  0  0  0  0  0  0
    7.6330  -17.1835   26.8438 C   0  0  0  0  0  0  0  0  0  0  0  0
    8.6290  -17.5918   27.7113 C   0  0  0  0  0  0  0  0  0  0  0  0
    7.0917  -16.1613   23.1355 N   0  0  0  0  0  0  0  0  0  0  0  0
    8.1656  -15.4183   22.3452 C   0  0  1  0  0  0  0  0  0  0  0  0
    7.4427  -14.3274   21.7040 C   0  0  0  0  0  0  0  0  0  0  0  0
    7.0355  -14.4249   20.3002 C   0  0  0  0  0  0  0  0  0  0  0  0
    7.9867  -13.8395   19.3288 C   0  0  0  0  0  0  0  0  0  0  0  0
    7.3264  -13.9499   17.9441 C   0  0  0  0  0  0  0  0  0  0  0  0
    8.2480  -13.3820   16.9890 N   0  0  0  0  0  0  0  0  0  0  0  0
    9.2015  -15.2142   23.3574 C   0  0  0  0  0  0  0  0  0  0  0  0
    9.0329  -14.3435   24.3028 O   0  0  0  0  0  0  0  0  0  0  0  0
    9.8544  -14.4685   28.9136 C   0  0  0  0  0  0  0  0  0  0  0  0
   11.2931  -14.2092   27.8055 S   0  0  0  0  0  0  0  0  0  0  0  0
   11.5981  -15.8205   26.9941 C   0  0  0  0  0  0  0  0  0  0  0  0
   10.6506  -16.0430   25.8665 C   0  0  0  0  0  0  0  0  0  0  0  0
   11.3448  -15.6777   24.5496 C   0  0  2  0  0  0  0  0  0  0  0  0
   10.4371  -15.9015   23.4502 N   0  0  0  0  0  0  0  0  0  0  0  0
   12.6151  -16.3749   24.4006 C   0  0  0  0  0  0  0  0  0  0  0  0
   13.7432  -15.9190   25.1254 O   0  0  0  0  0  0  0  0  0  0  0  0
   12.8454  -17.3714   23.6784 O   0  0  0  0  0  0  0  0  0  0  0  0
  2  1  1  0
  3  2  2  0
  4  3  1  0
  5  4  2  0
  5 11  1  0
  6  5  1  0
  7  8  1  1
  7  6  1  0
  9  7  1  0
 10  9  2  0
 11 12  2  0
 12  2  1  0
 13  9  1  0
 14 20  1  0
 14 13  1  0
 14 15  1  1
 16 15  1  0
 17 16  1  0
 18 17  1  0
 19 18  1  0
 20 27  1  0
 21 20  2  0
 22 23  1  0
 23 24  1  0
 24 25  1  0
 26 25  1  1
 26 28  1  0
 27 26  1  0
 28 30  2  0
 28 29  1  0
M  END
$$$$
