YKM.pdb
     RDKit          3D

 30 30  0  0  1  0  0  0  0  0999 V2000
    5.9315  -10.9403   26.2542 O   0  0  0  0  0  0  0  0  0  0  0  0
    6.1189  -12.2956   26.0263 C   0  0  0  0  0  0  0  0  0  0  0  0
    6.9152  -12.7293   25.0076 C   0  0  0  0  0  0  0  0  0  0  0  0
    7.1005  -14.0851   24.7824 C   0  0  0  0  0  0  0  0  0  0  0  0
    6.4516  -14.9560   25.6242 C   0  0  0  0  0  0  0  0  0  0  0  0
    6.6382  -16.4099   25.3981 C   0  0  0  0  0  0  0  0  0  0  0  0
    6.2784  -16.6694   23.9415 C   0  0  2  0  0  0  0  0  0  0  0  0
    5.8540  -18.0215   23.7274 N   0  0  0  0  0  0  0  0  0  0  0  0
    7.5050  -16.4079   23.1513 C   0  0  0  0  0  0  0  0  0  0  0  0
    8.1994  -17.3955   22.7449 O   0  0  0  0  0  0  0  0  0  0  0  0
    5.6465  -14.5520   26.6545 C   0  0  0  0  0  0  0  0  0  0  0  0
    5.4851  -13.1929   26.8490 C   0  0  0  0  0  0  0  0  0  0  0  0
    7.8817  -15.0954   22.8638 N   0  0  0  0  0  0  0  0  0  0  0  0
    8.8023  -14.8816   21.6652 C   0  0  1  0  0  0  0  0  0  0  0  0
    8.5057  -13.5233   21.2284 C   0  0  0  0  0  0  0  0  0  0  0  0
    7.9301  -13.2735   19.9047 C   0  0  0  0  0  0  0  0  0  0  0  0
    8.7824  -13.6767   18.7635 C   0  0  0  0  0  0  0  0  0  0  0  0
    8.0242  -13.2802   17.4855 C   0  0  0  0  0  0  0  0  0  0  0  0
    8.8063  -13.7492   16.3664 N   0  0  0  0  0  0  0  0  0  0  0  0
   10.0999  -15.2911   22.2015 C   0  0  0  0  0  0  0  0  0  0  0  0
   11.1908  -14.7338   21.7777 O   0  0  0  0  0  0  0  0  0  0  0  0
   11.2149  -12.8814   27.9076 C   0  0  0  0  0  0  0  0  0  0  0  0
   11.1317  -14.7070   28.0661 S   0  0  0  0  0  0  0  0  0  0  0  0
   11.8097  -15.3776   26.5046 C   0  0  0  0  0  0  0  0  0  0  0  0
   10.7447  -15.5203   25.4730 C   0  0  0  0  0  0  0  0  0  0  0  0
   11.3593  -16.1058   24.1966 C   0  0  2  0  0  0  0  0  0  0  0  0
   10.3289  -16.2705   23.1995 N   0  0  0  0  0  0  0  0  0  0  0  0
   12.0995  -17.3303   24.4696 C   0  0  0  0  0  0  0  0  0  0  0  0
   13.3845  -17.2446   25.0588 O   0  0  0  0  0  0  0  0  0  0  0  0
   11.7256  -18.5023   24.2371 O   0  0  0  0  0  0  0  0  0  0  0  0
  2  1  1  0
  3  2  2  0
  4  3  1  0
  5  4  2  0
  5 11  1  0
  6  5  1  0
  7  8  1  1
  7  6  1  0
  9  7  1  0
 10  9  2  0
 11 12  2  0
 12  2  1  0
 13  9  1  0
 14 20  1  0
 14 13  1  0
 14 15  1  1
 16 15  1  0
 17 16  1  0
 18 17  1  0
 19 18  1  0
 20 27  1  0
 21 20  2  0
 22 23  1  0
 23 24  1  0
 24 25  1  0
 26 25  1  1
 26 28  1  0
 27 26  1  0
 28 30  2  0
 28 29  1  0
M  END
$$$$
