VTR.pdb
     RDKit          3D

 26 25  0  0  1  0  0  0  0  0999 V2000
   14.1093  -16.2164   16.7144 C   0  0  0  0  0  0  0  0  0  0  0  0
   13.4115  -15.6657   17.9197 C   0  0  1  0  0  0  0  0  0  0  0  0
   14.4140  -15.2328   18.9465 C   0  0  0  0  0  0  0  0  0  0  0  0
   12.4142  -14.5717   17.5859 C   0  0  2  0  0  0  0  0  0  0  0  0
   13.0172  -13.4291   16.9938 N   0  0  0  0  0  0  0  0  0  0  0  0
   11.6648  -14.2947   18.8331 C   0  0  0  0  0  0  0  0  0  0  0  0
   12.2273  -13.4939   19.6413 O   0  0  0  0  0  0  0  0  0  0  0  0
    7.8717  -13.3400   19.2100 C   0  0  0  0  0  0  0  0  0  0  0  0
    8.2893  -14.3956   20.1910 C   0  0  1  0  0  0  0  0  0  0  0  0
    7.8205  -15.6364   19.8558 O   0  0  0  0  0  0  0  0  0  0  0  0
    9.7861  -14.4150   20.4147 C   0  0  2  0  0  0  0  0  0  0  0  0
   10.4221  -14.8298   19.1804 N   0  0  0  0  0  0  0  0  0  0  0  0
   10.1861  -15.2809   21.5521 C   0  0  0  0  0  0  0  0  0  0  0  0
   10.7496  -16.3932   21.3305 O   0  0  0  0  0  0  0  0  0  0  0  0
    9.3059  -16.3836   30.2778 N   0  0  0  0  0  0  0  0  0  0  0  0
   10.1348  -15.3174   29.8552 C   0  0  0  0  0  0  0  0  0  0  0  0
   10.3304  -14.2932   30.6090 N   0  0  0  0  0  0  0  0  0  0  0  0
   10.7844  -15.3283   28.5899 N   0  0  0  0  0  0  0  0  0  0  0  0
   10.2298  -15.9433   27.4026 C   0  0  0  0  0  0  0  0  0  0  0  0
   11.2706  -15.7660   26.2925 C   0  0  0  0  0  0  0  0  0  0  0  0
   10.7303  -14.9324   25.1773 C   0  0  0  0  0  0  0  0  0  0  0  0
   10.3237  -15.7500   24.0127 C   0  0  2  0  0  0  0  0  0  0  0  0
    9.9480  -14.8805   22.8706 N   0  0  0  0  0  0  0  0  0  0  0  0
    9.2585  -16.7321   24.2676 C   0  0  0  0  0  0  0  0  0  0  0  0
    9.5272  -17.9867   24.7777 O   0  0  0  0  0  0  0  0  0  0  0  0
    8.0412  -16.4273   24.0101 O   0  0  0  0  0  0  0  0  0  0  0  0
  2  1  1  6
  2  3  1  0
  2  4  1  0
  4  5  1  1
  6  7  2  0
  6  4  1  0
  9  8  1  6
 10  9  1  0
 11  9  1  0
 11 12  1  6
 12  6  1  0
 13 11  1  0
 14 13  2  0
 16 15  1  0
 16 17  2  0
 18 16  1  0
 19 18  1  0
 20 19  1  0
 21 20  1  0
 22 21  1  1
 22 23  1  0
 23 13  1  0
 24 22  1  0
 24 25  1  0
 26 24  2  0
M  END
$$$$
