VTR.pdb
     RDKit          3D

 26 25  0  0  1  0  0  0  0  0999 V2000
    9.1174  -13.0214   20.8927 C   0  0  0  0  0  0  0  0  0  0  0  0
    8.0901  -13.3640   19.8582 C   0  0  1  0  0  0  0  0  0  0  0  0
    7.8862  -12.2071   18.9271 C   0  0  0  0  0  0  0  0  0  0  0  0
    8.3913  -14.6556   19.1208 C   0  0  2  0  0  0  0  0  0  0  0  0
    7.4577  -14.9384   18.0873 N   0  0  0  0  0  0  0  0  0  0  0  0
    8.5027  -15.7107   20.1544 C   0  0  0  0  0  0  0  0  0  0  0  0
    7.4063  -16.0837   20.6737 O   0  0  0  0  0  0  0  0  0  0  0  0
    9.4966  -19.1719   20.0757 C   0  0  0  0  0  0  0  0  0  0  0  0
   10.2613  -18.5570   21.2108 C   0  0  1  0  0  0  0  0  0  0  0  0
   11.5894  -18.3997   20.9227 O   0  0  0  0  0  0  0  0  0  0  0  0
    9.6438  -17.2592   21.6857 C   0  0  2  0  0  0  0  0  0  0  0  0
    9.6860  -16.3113   20.5904 N   0  0  0  0  0  0  0  0  0  0  0  0
   10.3046  -16.7190   22.9002 C   0  0  0  0  0  0  0  0  0  0  0  0
   11.0997  -15.7382   22.8024 O   0  0  0  0  0  0  0  0  0  0  0  0
    6.8175  -11.1154   26.4696 N   0  0  0  0  0  0  0  0  0  0  0  0
    6.1916  -12.3790   26.3507 C   0  0  0  0  0  0  0  0  0  0  0  0
    4.9095  -12.4861   26.3675 N   0  0  0  0  0  0  0  0  0  0  0  0
    6.9433  -13.5781   26.2083 N   0  0  0  0  0  0  0  0  0  0  0  0
    8.3589  -13.6130   25.9080 C   0  0  0  0  0  0  0  0  0  0  0  0
    8.7436  -15.0911   25.7891 C   0  0  0  0  0  0  0  0  0  0  0  0
   10.1978  -15.2454   25.4855 C   0  0  0  0  0  0  0  0  0  0  0  0
   10.6029  -16.6656   25.3905 C   0  0  2  0  0  0  0  0  0  0  0  0
   10.0574  -17.2822   24.1561 N   0  0  0  0  0  0  0  0  0  0  0  0
   10.2720  -17.4993   26.5565 C   0  0  0  0  0  0  0  0  0  0  0  0
   10.7471  -17.2107   27.8204 O   0  0  0  0  0  0  0  0  0  0  0  0
    9.5238  -18.5283   26.4075 O   0  0  0  0  0  0  0  0  0  0  0  0
  2  1  1  1
  2  3  1  0
  2  4  1  0
  4  5  1  6
  6  7  2  0
  6  4  1  0
  9  8  1  6
 10  9  1  0
 11  9  1  0
 11 12  1  6
 12  6  1  0
 13 11  1  0
 14 13  2  0
 16 15  1  0
 16 17  2  0
 18 16  1  0
 19 18  1  0
 20 19  1  0
 21 20  1  0
 22 21  1  1
 22 23  1  0
 23 13  1  0
 24 22  1  0
 24 25  1  0
 26 24  2  0
M  END
$$$$
