VTR.pdb
     RDKit          3D

 26 25  0  0  1  0  0  0  0  0999 V2000
    7.1079  -19.0916   18.2781 C   0  0  0  0  0  0  0  0  0  0  0  0
    7.6351  -18.9533   16.8832 C   0  0  1  0  0  0  0  0  0  0  0  0
    6.9861  -19.9597   15.9816 C   0  0  0  0  0  0  0  0  0  0  0  0
    7.5325  -17.5392   16.3423 C   0  0  2  0  0  0  0  0  0  0  0  0
    8.0283  -17.4119   15.0165 N   0  0  0  0  0  0  0  0  0  0  0  0
    8.1977  -16.6632   17.3343 C   0  0  0  0  0  0  0  0  0  0  0  0
    9.4665  -16.6677   17.3022 O   0  0  0  0  0  0  0  0  0  0  0  0
    8.4108  -12.7088   20.1321 C   0  0  0  0  0  0  0  0  0  0  0  0
    7.7095  -13.6398   19.1874 C   0  0  1  0  0  0  0  0  0  0  0  0
    7.5850  -13.1141   17.9305 O   0  0  0  0  0  0  0  0  0  0  0  0
    8.3484  -15.0114   19.1492 C   0  0  2  0  0  0  0  0  0  0  0  0
    7.5570  -15.8544   18.2759 N   0  0  0  0  0  0  0  0  0  0  0  0
    8.4993  -15.6128   20.4979 C   0  0  0  0  0  0  0  0  0  0  0  0
    7.4773  -15.8070   21.2201 O   0  0  0  0  0  0  0  0  0  0  0  0
   13.4054  -17.5403   18.6356 N   0  0  0  0  0  0  0  0  0  0  0  0
   13.4184  -18.9294   18.9052 C   0  0  0  0  0  0  0  0  0  0  0  0
   13.6093  -19.7841   17.9626 N   0  0  0  0  0  0  0  0  0  0  0  0
   13.2232  -19.4407   20.2181 N   0  0  0  0  0  0  0  0  0  0  0  0
   13.0186  -18.6103   21.3860 C   0  0  0  0  0  0  0  0  0  0  0  0
   11.5529  -18.1656   21.3539 C   0  0  0  0  0  0  0  0  0  0  0  0
   11.2594  -17.2019   22.4565 C   0  0  0  0  0  0  0  0  0  0  0  0
    9.9199  -16.5871   22.3216 C   0  0  2  0  0  0  0  0  0  0  0  0
    9.7618  -15.9698   20.9817 N   0  0  0  0  0  0  0  0  0  0  0  0
    9.5586  -15.6172   23.3670 C   0  0  0  0  0  0  0  0  0  0  0  0
    9.6403  -14.2545   23.1601 O   0  0  0  0  0  0  0  0  0  0  0  0
    9.1574  -16.0368   24.5089 O   0  0  0  0  0  0  0  0  0  0  0  0
  2  1  1  1
  2  3  1  0
  2  4  1  0
  4  5  1  6
  6  7  2  0
  6  4  1  0
  9  8  1  1
 10  9  1  0
 11  9  1  0
 11 12  1  6
 12  6  1  0
 13 11  1  0
 14 13  2  0
 16 15  1  0
 16 17  2  0
 18 16  1  0
 19 18  1  0
 20 19  1  0
 21 20  1  0
 22 21  1  1
 22 23  1  0
 23 13  1  0
 24 22  1  0
 24 25  1  0
 26 24  2  0
M  END
$$$$
