VTR.pdb
     RDKit          3D

 26 25  0  0  1  0  0  0  0  0999 V2000
    9.9385  -15.6201   17.8229 C   0  0  0  0  0  0  0  0  0  0  0  0
    9.5390  -14.1768   17.8360 C   0  0  1  0  0  0  0  0  0  0  0  0
    9.7084  -13.5796   16.4716 C   0  0  0  0  0  0  0  0  0  0  0  0
    8.1499  -13.9457   18.4015 C   0  0  2  0  0  0  0  0  0  0  0  0
    7.7501  -12.5826   18.3589 N   0  0  0  0  0  0  0  0  0  0  0  0
    8.1448  -14.5459   19.7556 C   0  0  0  0  0  0  0  0  0  0  0  0
    8.6178  -13.8142   20.6786 O   0  0  0  0  0  0  0  0  0  0  0  0
    6.9597  -18.0512   23.0173 C   0  0  0  0  0  0  0  0  0  0  0  0
    6.9039  -17.4918   21.6262 C   0  0  1  0  0  0  0  0  0  0  0  0
    5.6274  -17.1996   21.2304 O   0  0  0  0  0  0  0  0  0  0  0  0
    7.8217  -16.3018   21.4461 C   0  0  2  0  0  0  0  0  0  0  0  0
    7.6734  -15.8181   20.0882 N   0  0  0  0  0  0  0  0  0  0  0  0
    9.2379  -16.6153   21.7617 C   0  0  0  0  0  0  0  0  0  0  0  0
   10.1035  -16.6230   20.8374 O   0  0  0  0  0  0  0  0  0  0  0  0
   15.8020  -14.2716   19.6653 N   0  0  0  0  0  0  0  0  0  0  0  0
   14.6647  -14.7880   19.0003 C   0  0  0  0  0  0  0  0  0  0  0  0
   14.6219  -14.8517   17.7160 N   0  0  0  0  0  0  0  0  0  0  0  0
   13.5268  -15.2564   19.7137 N   0  0  0  0  0  0  0  0  0  0  0  0
   13.3690  -15.1409   21.1480 C   0  0  0  0  0  0  0  0  0  0  0  0
   12.0129  -15.7664   21.4896 C   0  0  0  0  0  0  0  0  0  0  0  0
   11.7446  -15.6996   22.9573 C   0  0  0  0  0  0  0  0  0  0  0  0
   11.0619  -16.9134   23.4581 C   0  0  2  0  0  0  0  0  0  0  0  0
    9.6290  -16.9023   23.0733 N   0  0  0  0  0  0  0  0  0  0  0  0
   11.1922  -17.1650   24.9017 C   0  0  0  0  0  0  0  0  0  0  0  0
   12.3406  -17.7006   25.4500 O   0  0  0  0  0  0  0  0  0  0  0  0
   10.2169  -16.8854   25.6837 O   0  0  0  0  0  0  0  0  0  0  0  0
  2  1  1  6
  2  3  1  0
  2  4  1  0
  4  5  1  1
  6  7  2  0
  6  4  1  0
  9  8  1  1
 10  9  1  0
 11  9  1  0
 11 12  1  6
 12  6  1  0
 13 11  1  0
 14 13  2  0
 16 15  1  0
 16 17  2  0
 18 16  1  0
 19 18  1  0
 20 19  1  0
 21 20  1  0
 22 21  1  1
 22 23  1  0
 23 13  1  0
 24 22  1  0
 24 25  1  0
 26 24  2  0
M  END
$$$$
