VTR.pdb
     RDKit          3D

 26 25  0  0  1  0  0  0  0  0999 V2000
    8.7229  -12.4540   26.1373 C   0  0  0  0  0  0  0  0  0  0  0  0
    7.4127  -12.8120   26.7683 C   0  0  1  0  0  0  0  0  0  0  0  0
    7.0329  -11.7855   27.7925 C   0  0  0  0  0  0  0  0  0  0  0  0
    6.3087  -13.0575   25.7565 C   0  0  2  0  0  0  0  0  0  0  0  0
    5.0444  -13.3001   26.3585 N   0  0  0  0  0  0  0  0  0  0  0  0
    6.7871  -14.1447   24.8716 C   0  0  0  0  0  0  0  0  0  0  0  0
    6.5272  -15.3230   25.2654 O   0  0  0  0  0  0  0  0  0  0  0  0
    6.3765  -14.1247   21.1089 C   0  0  0  0  0  0  0  0  0  0  0  0
    7.6919  -14.7772   21.4172 C   0  0  1  0  0  0  0  0  0  0  0  0
    8.7579  -14.0316   20.9935 O   0  0  0  0  0  0  0  0  0  0  0  0
    7.8243  -15.1450   22.8794 C   0  0  2  0  0  0  0  0  0  0  0  0
    7.4821  -13.9805   23.6711 N   0  0  0  0  0  0  0  0  0  0  0  0
    9.1734  -15.6604   23.2225 C   0  0  0  0  0  0  0  0  0  0  0  0
   10.0158  -14.8992   23.7835 O   0  0  0  0  0  0  0  0  0  0  0  0
   12.6192  -19.1891   16.8503 N   0  0  0  0  0  0  0  0  0  0  0  0
   11.4444  -19.7346   17.4201 C   0  0  0  0  0  0  0  0  0  0  0  0
   10.7129  -20.5629   16.7611 N   0  0  0  0  0  0  0  0  0  0  0  0
   11.0217  -19.3962   18.7354 N   0  0  0  0  0  0  0  0  0  0  0  0
   11.7587  -18.5189   19.6199 C   0  0  0  0  0  0  0  0  0  0  0  0
   10.9705  -18.4599   20.9323 C   0  0  0  0  0  0  0  0  0  0  0  0
   11.6623  -17.5975   21.9365 C   0  0  0  0  0  0  0  0  0  0  0  0
   10.8974  -17.4827   23.1983 C   0  0  2  0  0  0  0  0  0  0  0  0
    9.5260  -16.9824   22.9333 N   0  0  0  0  0  0  0  0  0  0  0  0
   11.5308  -16.6764   24.2532 C   0  0  0  0  0  0  0  0  0  0  0  0
   12.4585  -17.2113   25.1249 O   0  0  0  0  0  0  0  0  0  0  0  0
   11.2188  -15.4404   24.3790 O   0  0  0  0  0  0  0  0  0  0  0  0
  2  1  1  6
  2  3  1  0
  2  4  1  0
  4  5  1  1
  6  7  2  0
  6  4  1  0
  9  8  1  1
 10  9  1  0
 11  9  1  0
 11 12  1  1
 12  6  1  0
 13 11  1  0
 14 13  2  0
 16 15  1  0
 16 17  2  0
 18 16  1  0
 19 18  1  0
 20 19  1  0
 21 20  1  0
 22 21  1  6
 22 23  1  0
 23 13  1  0
 24 22  1  0
 24 25  1  0
 26 24  2  0
M  END
$$$$
