VTR.pdb
     RDKit          3D

 26 25  0  0  1  0  0  0  0  0999 V2000
    9.2165  -12.6958   20.4799 C   0  0  0  0  0  0  0  0  0  0  0  0
    8.2062  -13.1920   19.4920 C   0  0  1  0  0  0  0  0  0  0  0  0
    7.5442  -12.0369   18.8031 C   0  0  0  0  0  0  0  0  0  0  0  0
    8.7734  -14.2031   18.5130 C   0  0  2  0  0  0  0  0  0  0  0  0
    7.8386  -14.6029   17.5200 N   0  0  0  0  0  0  0  0  0  0  0  0
    9.3176  -15.3139   19.3278 C   0  0  0  0  0  0  0  0  0  0  0  0
    8.4548  -16.1086   19.8126 O   0  0  0  0  0  0  0  0  0  0  0  0
   11.4102  -17.9732   18.2000 C   0  0  0  0  0  0  0  0  0  0  0  0
   12.0175  -17.5316   19.4989 C   0  0  1  0  0  0  0  0  0  0  0  0
   13.1977  -16.8620   19.3240 O   0  0  0  0  0  0  0  0  0  0  0  0
   11.0508  -16.7308   20.3445 C   0  0  2  0  0  0  0  0  0  0  0  0
   10.6678  -15.5498   19.5971 N   0  0  0  0  0  0  0  0  0  0  0  0
   11.6069  -16.3777   21.6747 C   0  0  0  0  0  0  0  0  0  0  0  0
   11.5972  -15.1722   22.0629 O   0  0  0  0  0  0  0  0  0  0  0  0
   10.5229  -15.3276   29.2387 N   0  0  0  0  0  0  0  0  0  0  0  0
    9.9707  -14.4379   28.2870 C   0  0  0  0  0  0  0  0  0  0  0  0
    9.7249  -13.2124   28.5922 N   0  0  0  0  0  0  0  0  0  0  0  0
    9.6647  -14.8527   26.9613 N   0  0  0  0  0  0  0  0  0  0  0  0
    9.5586  -16.2373   26.5525 C   0  0  0  0  0  0  0  0  0  0  0  0
   10.9346  -16.6396   26.0123 C   0  0  0  0  0  0  0  0  0  0  0  0
   10.9067  -16.7860   24.5262 C   0  0  0  0  0  0  0  0  0  0  0  0
   12.2278  -17.1621   23.9753 C   0  0  2  0  0  0  0  0  0  0  0  0
   12.1426  -17.3648   22.5080 N   0  0  0  0  0  0  0  0  0  0  0  0
   12.8707  -18.3252   24.6062 C   0  0  0  0  0  0  0  0  0  0  0  0
   13.8836  -18.1869   25.5344 O   0  0  0  0  0  0  0  0  0  0  0  0
   12.4903  -19.5072   24.2915 O   0  0  0  0  0  0  0  0  0  0  0  0
  2  1  1  6
  2  3  1  0
  2  4  1  0
  4  5  1  6
  6  7  2  0
  6  4  1  0
  9  8  1  6
 10  9  1  0
 11  9  1  0
 11 12  1  6
 12  6  1  0
 13 11  1  0
 14 13  2  0
 16 15  1  0
 16 17  2  0
 18 16  1  0
 19 18  1  0
 20 19  1  0
 21 20  1  0
 22 21  1  1
 22 23  1  0
 23 13  1  0
 24 22  1  0
 24 25  1  0
 26 24  2  0
M  END
$$$$
