VTR.pdb
     RDKit          3D

 26 25  0  0  1  0  0  0  0  0999 V2000
    9.2738  -14.0398   18.7504 C   0  0  0  0  0  0  0  0  0  0  0  0
    8.1178  -13.3911   19.4473 C   0  0  1  0  0  0  0  0  0  0  0  0
    7.3649  -12.5123   18.4945 C   0  0  0  0  0  0  0  0  0  0  0  0
    7.2152  -14.3823   20.1583 C   0  0  2  0  0  0  0  0  0  0  0  0
    6.0570  -13.7792   20.7190 N   0  0  0  0  0  0  0  0  0  0  0  0
    8.0686  -15.0993   21.1339 C   0  0  0  0  0  0  0  0  0  0  0  0
    8.3892  -14.4375   22.1683 O   0  0  0  0  0  0  0  0  0  0  0  0
    7.5885  -18.2231   23.1289 C   0  0  0  0  0  0  0  0  0  0  0  0
    8.9137  -18.3065   22.4301 C   0  0  1  0  0  0  0  0  0  0  0  0
    8.8950  -19.1768   21.3748 O   0  0  0  0  0  0  0  0  0  0  0  0
    9.4319  -16.9470   22.0129 C   0  0  2  0  0  0  0  0  0  0  0  0
    8.5352  -16.4100   21.0092 N   0  0  0  0  0  0  0  0  0  0  0  0
   10.8331  -16.9910   21.5248 C   0  0  0  0  0  0  0  0  0  0  0  0
   11.0669  -17.1759   20.2939 O   0  0  0  0  0  0  0  0  0  0  0  0
   16.5607  -12.6917   17.7743 N   0  0  0  0  0  0  0  0  0  0  0  0
   16.9997  -14.0038   18.0711 C   0  0  0  0  0  0  0  0  0  0  0  0
   17.9792  -14.5347   17.4276 N   0  0  0  0  0  0  0  0  0  0  0  0
   16.3847  -14.7893   19.0849 N   0  0  0  0  0  0  0  0  0  0  0  0
   15.2473  -14.3525   19.8664 C   0  0  0  0  0  0  0  0  0  0  0  0
   15.0869  -15.3632   21.0065 C   0  0  0  0  0  0  0  0  0  0  0  0
   13.6650  -15.4457   21.4557 C   0  0  0  0  0  0  0  0  0  0  0  0
   13.3028  -16.8024   21.9230 C   0  0  2  0  0  0  0  0  0  0  0  0
   11.9021  -16.8291   22.4117 N   0  0  0  0  0  0  0  0  0  0  0  0
   14.1983  -17.3857   22.9339 C   0  0  0  0  0  0  0  0  0  0  0  0
   13.7539  -17.7247   24.1964 O   0  0  0  0  0  0  0  0  0  0  0  0
   15.4305  -17.5875   22.6474 O   0  0  0  0  0  0  0  0  0  0  0  0
  2  1  1  6
  2  3  1  0
  2  4  1  0
  4  5  1  1
  6  7  2  0
  6  4  1  0
  9  8  1  6
 10  9  1  0
 11  9  1  0
 11 12  1  6
 12  6  1  0
 13 11  1  0
 14 13  2  0
 16 15  1  0
 16 17  2  0
 18 16  1  0
 19 18  1  0
 20 19  1  0
 21 20  1  0
 22 21  1  1
 22 23  1  0
 23 13  1  0
 24 22  1  0
 24 25  1  0
 26 24  2  0
M  END
$$$$
