VTR.pdb
     RDKit          3D

 26 25  0  0  1  0  0  0  0  0999 V2000
    6.6639  -15.5599   20.8032 C   0  0  0  0  0  0  0  0  0  0  0  0
    7.4199  -14.5255   20.0278 C   0  0  1  0  0  0  0  0  0  0  0  0
    6.9966  -14.5435   18.5899 C   0  0  0  0  0  0  0  0  0  0  0  0
    7.3357  -13.1393   20.6395 C   0  0  2  0  0  0  0  0  0  0  0  0
    8.0384  -12.1561   19.8917 N   0  0  0  0  0  0  0  0  0  0  0  0
    7.7798  -13.2756   22.0460 C   0  0  0  0  0  0  0  0  0  0  0  0
    9.0362  -13.3269   22.2190 O   0  0  0  0  0  0  0  0  0  0  0  0
    7.0517  -13.1755   26.9123 C   0  0  0  0  0  0  0  0  0  0  0  0
    6.5505  -13.0092   25.5080 C   0  0  1  0  0  0  0  0  0  0  0  0
    6.1743  -11.7224   25.2355 O   0  0  0  0  0  0  0  0  0  0  0  0
    7.5347  -13.5241   24.4798 C   0  0  2  0  0  0  0  0  0  0  0  0
    6.9485  -13.3497   23.1661 N   0  0  0  0  0  0  0  0  0  0  0  0
    7.9293  -14.9351   24.7180 C   0  0  0  0  0  0  0  0  0  0  0  0
    7.0975  -15.8668   24.5085 O   0  0  0  0  0  0  0  0  0  0  0  0
   11.6594  -20.7895   22.3206 N   0  0  0  0  0  0  0  0  0  0  0  0
   12.5608  -20.9964   23.3917 C   0  0  0  0  0  0  0  0  0  0  0  0
   12.9665  -22.1790   23.6954 N   0  0  0  0  0  0  0  0  0  0  0  0
   13.0558  -19.9171   24.1748 N   0  0  0  0  0  0  0  0  0  0  0  0
   12.6836  -18.5333   23.9697 C   0  0  0  0  0  0  0  0  0  0  0  0
   11.3712  -18.3171   24.7299 C   0  0  0  0  0  0  0  0  0  0  0  0
   10.8536  -16.9312   24.5253 C   0  0  0  0  0  0  0  0  0  0  0  0
    9.6440  -16.6597   25.3337 C   0  0  2  0  0  0  0  0  0  0  0  0
    9.2143  -15.2488   25.1718 N   0  0  0  0  0  0  0  0  0  0  0  0
    9.7481  -16.9919   26.7630 C   0  0  0  0  0  0  0  0  0  0  0  0
    9.8024  -18.2978   27.2083 O   0  0  0  0  0  0  0  0  0  0  0  0
    9.7876  -16.0504   27.6308 O   0  0  0  0  0  0  0  0  0  0  0  0
  2  1  1  1
  2  3  1  0
  2  4  1  0
  4  5  1  6
  6  7  2  0
  6  4  1  0
  9  8  1  1
 10  9  1  0
 11  9  1  0
 11 12  1  6
 12  6  1  0
 13 11  1  0
 14 13  2  0
 16 15  1  0
 16 17  2  0
 18 16  1  0
 19 18  1  0
 20 19  1  0
 21 20  1  0
 22 21  1  6
 22 23  1  0
 23 13  1  0
 24 22  1  0
 24 25  1  0
 26 24  2  0
M  END
$$$$
