VTR.pdb
     RDKit          3D

 26 25  0  0  1  0  0  0  0  0999 V2000
    8.3476  -16.2018   18.2840 C   0  0  0  0  0  0  0  0  0  0  0  0
    8.6178  -14.7952   17.8466 C   0  0  1  0  0  0  0  0  0  0  0  0
    8.2413  -14.6188   16.4064 C   0  0  0  0  0  0  0  0  0  0  0  0
    7.9749  -13.7552   18.7454 C   0  0  2  0  0  0  0  0  0  0  0  0
    8.1560  -12.4255   18.2779 N   0  0  0  0  0  0  0  0  0  0  0  0
    8.4948  -14.0034   20.1100 C   0  0  0  0  0  0  0  0  0  0  0  0
    9.6774  -13.5961   20.3258 O   0  0  0  0  0  0  0  0  0  0  0  0
    6.9768  -13.0469   23.4789 C   0  0  0  0  0  0  0  0  0  0  0  0
    7.4269  -14.4778   23.5141 C   0  0  1  0  0  0  0  0  0  0  0  0
    6.3795  -15.3570   23.4739 O   0  0  0  0  0  0  0  0  0  0  0  0
    8.4469  -14.7878   22.4397 C   0  0  2  0  0  0  0  0  0  0  0  0
    7.8057  -14.6325   21.1495 N   0  0  0  0  0  0  0  0  0  0  0  0
    9.0489  -16.1363   22.5906 C   0  0  0  0  0  0  0  0  0  0  0  0
    8.7372  -17.0604   21.7828 O   0  0  0  0  0  0  0  0  0  0  0  0
   13.9701  -18.7603   17.8816 N   0  0  0  0  0  0  0  0  0  0  0  0
   12.8345  -19.3978   18.4354 C   0  0  0  0  0  0  0  0  0  0  0  0
   12.1270  -20.2132   17.7354 N   0  0  0  0  0  0  0  0  0  0  0  0
   12.4265  -19.1694   19.7787 N   0  0  0  0  0  0  0  0  0  0  0  0
   13.3106  -18.6934   20.8214 C   0  0  0  0  0  0  0  0  0  0  0  0
   12.5139  -18.7503   22.1287 C   0  0  0  0  0  0  0  0  0  0  0  0
   11.6129  -17.5665   22.2610 C   0  0  0  0  0  0  0  0  0  0  0  0
   10.8786  -17.5620   23.5460 C   0  0  2  0  0  0  0  0  0  0  0  0
    9.9605  -16.3987   23.6180 N   0  0  0  0  0  0  0  0  0  0  0  0
   11.7149  -17.6172   24.7550 C   0  0  0  0  0  0  0  0  0  0  0  0
   12.5790  -18.6661   24.9994 O   0  0  0  0  0  0  0  0  0  0  0  0
   11.6466  -16.6712   25.6160 O   0  0  0  0  0  0  0  0  0  0  0  0
  2  1  1  1
  2  3  1  0
  2  4  1  0
  4  5  1  6
  6  7  2  0
  6  4  1  0
  9  8  1  6
 10  9  1  0
 11  9  1  0
 11 12  1  6
 12  6  1  0
 13 11  1  0
 14 13  2  0
 16 15  1  0
 16 17  2  0
 18 16  1  0
 19 18  1  0
 20 19  1  0
 21 20  1  0
 22 21  1  6
 22 23  1  0
 23 13  1  0
 24 22  1  0
 24 25  1  0
 26 24  2  0
M  END
$$$$
