VTR.pdb
     RDKit          3D

 26 25  0  0  1  0  0  0  0  0999 V2000
    8.7989  -12.3014   19.4838 C   0  0  0  0  0  0  0  0  0  0  0  0
    8.5730  -13.3359   20.5429 C   0  0  1  0  0  0  0  0  0  0  0  0
    7.2816  -13.0730   21.2572 C   0  0  0  0  0  0  0  0  0  0  0  0
    8.6676  -14.7575   20.0205 C   0  0  2  0  0  0  0  0  0  0  0  0
    7.7047  -15.0479   19.0164 N   0  0  0  0  0  0  0  0  0  0  0  0
    8.6059  -15.6433   21.2060 C   0  0  0  0  0  0  0  0  0  0  0  0
    7.4382  -15.9402   21.6051 O   0  0  0  0  0  0  0  0  0  0  0  0
    8.9535  -19.0093   21.7476 C   0  0  0  0  0  0  0  0  0  0  0  0
    9.8559  -18.3926   22.7755 C   0  0  1  0  0  0  0  0  0  0  0  0
   11.1783  -18.4961   22.4405 O   0  0  0  0  0  0  0  0  0  0  0  0
    9.4783  -16.9609   23.0896 C   0  0  2  0  0  0  0  0  0  0  0  0
    9.7007  -16.1636   21.9002 N   0  0  0  0  0  0  0  0  0  0  0  0
   10.2146  -16.4153   24.2574 C   0  0  0  0  0  0  0  0  0  0  0  0
   11.2890  -15.7689   24.0799 O   0  0  0  0  0  0  0  0  0  0  0  0
    7.1427  -12.2227   25.1115 N   0  0  0  0  0  0  0  0  0  0  0  0
    6.6589  -12.8103   26.3044 C   0  0  0  0  0  0  0  0  0  0  0  0
    5.4234  -13.1500   26.4202 N   0  0  0  0  0  0  0  0  0  0  0  0
    7.5077  -13.0507   27.4201 N   0  0  0  0  0  0  0  0  0  0  0  0
    8.9246  -12.7552   27.4354 C   0  0  0  0  0  0  0  0  0  0  0  0
    9.6108  -13.8656   26.6335 C   0  0  0  0  0  0  0  0  0  0  0  0
    9.7953  -15.0931   27.4641 C   0  0  0  0  0  0  0  0  0  0  0  0
   10.5159  -16.1602   26.7348 C   0  0  2  0  0  0  0  0  0  0  0  0
    9.7330  -16.6068   25.5562 N   0  0  0  0  0  0  0  0  0  0  0  0
   10.9147  -17.3232   27.5426 C   0  0  0  0  0  0  0  0  0  0  0  0
   12.0137  -17.2915   28.3777 O   0  0  0  0  0  0  0  0  0  0  0  0
   10.2314  -18.4048   27.4760 O   0  0  0  0  0  0  0  0  0  0  0  0
  2  1  1  6
  2  3  1  0
  2  4  1  0
  4  5  1  6
  6  7  2  0
  6  4  1  0
  9  8  1  6
 10  9  1  0
 11  9  1  0
 11 12  1  6
 12  6  1  0
 13 11  1  0
 14 13  2  0
 16 15  1  0
 16 17  2  0
 18 16  1  0
 19 18  1  0
 20 19  1  0
 21 20  1  0
 22 21  1  1
 22 23  1  0
 23 13  1  0
 24 22  1  0
 24 25  1  0
 26 24  2  0
M  END
$$$$
