EWD.pdb
     RDKit          3D

 32 33  0  0  1  0  0  0  0  0999 V2000
   28.8422  -21.5904  -16.0933 N   0  0  0  0  0  0  0  0  0  0  0  0
   27.9758  -20.6224  -15.5250 C   0  0  1  0  0  0  0  0  0  0  0  0
   27.2222  -19.8067  -16.5214 C   0  0  0  0  0  0  0  0  0  0  0  0
   28.1013  -19.0140  -17.4060 C   0  0  0  0  0  0  0  0  0  0  0  0
   28.6243  -17.7986  -16.7812 C   0  0  0  0  0  0  0  0  0  0  0  0
   28.1298  -17.1141  -15.8744 O   0  0  0  0  0  0  0  0  0  0  0  0
   26.9626  -21.2954  -14.6477 C   0  0  0  0  0  0  0  0  0  0  0  0
   26.0082  -21.9165  -15.1840 O   0  0  0  0  0  0  0  0  0  0  0  0
   29.8725  -17.3368  -17.2839 O   0  0  0  0  0  0  0  0  0  0  0  0
   27.1443  -21.1908  -13.2434 N   0  0  0  0  0  0  0  0  0  0  0  0
   26.2016  -21.8174  -12.3585 C   0  0  1  0  0  0  0  0  0  0  0  0
   26.7581  -22.1243  -11.0062 C   0  0  0  0  0  0  0  0  0  0  0  0
   26.6483  -21.0652  -10.0033 C   0  0  0  0  0  0  0  0  0  0  0  0
   25.6813  -20.1232   -9.8347 C   0  0  0  0  0  0  0  0  0  0  0  0
   26.0040  -19.3604   -8.7633 N   0  0  0  0  0  0  0  0  0  0  0  0
   27.1550  -19.7935   -8.2439 C   0  0  0  0  0  0  0  0  0  0  0  0
   27.8875  -19.3346   -7.1462 C   0  0  0  0  0  0  0  0  0  0  0  0
   29.0665  -19.9501   -6.7957 C   0  0  0  0  0  0  0  0  0  0  0  0
   29.4893  -21.0179   -7.5556 C   0  0  0  0  0  0  0  0  0  0  0  0
   28.7659  -21.4736   -8.6429 C   0  0  0  0  0  0  0  0  0  0  0  0
   27.5809  -20.8583   -8.9988 C   0  0  0  0  0  0  0  0  0  0  0  0
   24.8925  -21.1456  -12.3610 C   0  0  0  0  0  0  0  0  0  0  0  0
   24.7783  -19.8886  -12.2311 O   0  0  0  0  0  0  0  0  0  0  0  0
   23.7148  -21.9076  -12.5103 N   0  0  0  0  0  0  0  0  0  0  0  0
   22.3859  -21.2866  -12.6956 C   0  0  1  0  0  0  0  0  0  0  0  0
   21.5769  -22.2407  -13.5361 C   0  0  0  0  0  0  0  0  0  0  0  0
   20.1939  -21.7847  -13.6863 C   0  0  0  0  0  0  0  0  0  0  0  0
   19.9318  -20.7983  -14.4038 O   0  0  0  0  0  0  0  0  0  0  0  0
   21.7993  -20.9898  -11.3796 C   0  0  0  0  0  0  0  0  0  0  0  0
   20.9050  -19.9085  -11.2536 O   0  0  0  0  0  0  0  0  0  0  0  0
   19.1666  -22.4348  -13.0359 O   0  0  0  0  0  0  0  0  0  0  0  0
   22.0507  -21.6442  -10.3670 O   0  0  0  0  0  0  0  0  0  0  0  0
  2  1  1  6
  3  4  1  0
  3  2  1  0
  5  6  2  0
  5  4  1  0
  7  2  1  0
  7  8  2  0
  9  5  1  0
 10  7  1  0
 11 10  1  0
 11 12  1  1
 13 12  1  0
 13 14  2  0
 15 14  1  0
 16 15  1  0
 17 16  2  0
 18 17  1  0
 19 18  2  0
 19 20  1  0
 20 21  2  0
 21 16  1  0
 21 13  1  0
 22 11  1  0
 23 22  2  0
 24 22  1  0
 25 29  1  0
 25 24  1  0
 25 26  1  1
 27 26  1  0
 27 28  2  0
 29 30  1  0
 31 27  1  0
 32 29  2  0
M  END
$$$$
