EWD.pdb
     RDKit          3D

 32 33  0  0  1  0  0  0  0  0999 V2000
   27.7554  -23.2528  -16.2022 N   0  0  0  0  0  0  0  0  0  0  0  0
   27.1192  -22.0015  -16.0019 C   0  0  1  0  0  0  0  0  0  0  0  0
   26.2287  -21.5749  -17.1205 C   0  0  0  0  0  0  0  0  0  0  0  0
   26.9654  -21.2711  -18.3649 C   0  0  0  0  0  0  0  0  0  0  0  0
   27.6410  -19.9733  -18.3476 C   0  0  0  0  0  0  0  0  0  0  0  0
   27.1466  -18.8383  -18.2975 O   0  0  0  0  0  0  0  0  0  0  0  0
   26.2786  -22.0481  -14.7608 C   0  0  0  0  0  0  0  0  0  0  0  0
   25.7557  -23.1409  -14.4192 O   0  0  0  0  0  0  0  0  0  0  0  0
   29.0622  -20.0190  -18.3961 O   0  0  0  0  0  0  0  0  0  0  0  0
   26.1217  -20.8385  -14.0340 N   0  0  0  0  0  0  0  0  0  0  0  0
   25.2844  -20.8170  -12.8666 C   0  0  1  0  0  0  0  0  0  0  0  0
   25.8406  -20.0050  -11.7423 C   0  0  0  0  0  0  0  0  0  0  0  0
   27.0660  -20.5081  -11.1222 C   0  0  0  0  0  0  0  0  0  0  0  0
   28.1972  -20.9953  -11.7002 C   0  0  0  0  0  0  0  0  0  0  0  0
   29.0703  -21.3337  -10.7220 N   0  0  0  0  0  0  0  0  0  0  0  0
   28.5226  -21.0741   -9.5324 C   0  0  0  0  0  0  0  0  0  0  0  0
   29.0258  -21.2512   -8.2411 C   0  0  0  0  0  0  0  0  0  0  0  0
   28.2642  -20.9060   -7.1491 C   0  0  0  0  0  0  0  0  0  0  0  0
   27.0084  -20.3878   -7.3743 C   0  0  0  0  0  0  0  0  0  0  0  0
   26.5082  -20.2120   -8.6518 C   0  0  0  0  0  0  0  0  0  0  0  0
   27.2697  -20.5574   -9.7520 C   0  0  0  0  0  0  0  0  0  0  0  0
   23.8723  -20.5582  -13.1894 C   0  0  0  0  0  0  0  0  0  0  0  0
   23.5174  -19.6116  -13.9561 O   0  0  0  0  0  0  0  0  0  0  0  0
   22.8663  -21.3782  -12.6367 N   0  0  0  0  0  0  0  0  0  0  0  0
   21.4270  -21.1391  -12.8766 C   0  0  1  0  0  0  0  0  0  0  0  0
   20.7936  -22.4907  -13.0844 C   0  0  0  0  0  0  0  0  0  0  0  0
   20.7516  -22.8523  -14.5023 C   0  0  0  0  0  0  0  0  0  0  0  0
   20.3608  -23.9848  -14.8508 O   0  0  0  0  0  0  0  0  0  0  0  0
   20.8668  -20.3726  -11.7529 C   0  0  0  0  0  0  0  0  0  0  0  0
   21.3098  -20.6480  -10.4442 O   0  0  0  0  0  0  0  0  0  0  0  0
   21.1458  -21.9506  -15.4680 O   0  0  0  0  0  0  0  0  0  0  0  0
   20.0194  -19.4904  -11.8955 O   0  0  0  0  0  0  0  0  0  0  0  0
  2  1  1  6
  3  4  1  0
  3  2  1  0
  5  6  2  0
  5  4  1  0
  7  2  1  0
  7  8  2  0
  9  5  1  0
 10  7  1  0
 11 10  1  0
 11 12  1  1
 13 12  1  0
 13 14  2  0
 15 14  1  0
 16 15  1  0
 17 16  2  0
 18 17  1  0
 19 18  2  0
 19 20  1  0
 20 21  2  0
 21 16  1  0
 21 13  1  0
 22 11  1  0
 23 22  2  0
 24 22  1  0
 25 29  1  0
 25 24  1  0
 25 26  1  1
 27 26  1  0
 27 28  2  0
 29 30  1  0
 31 27  1  0
 32 29  2  0
M  END
$$$$
