EWD.pdb
     RDKit          3D

 32 33  0  0  1  0  0  0  0  0999 V2000
   27.3320  -22.0951  -15.2141 N   0  0  0  0  0  0  0  0  0  0  0  0
   27.3675  -21.0336  -14.2746 C   0  0  1  0  0  0  0  0  0  0  0  0
   26.9555  -19.7088  -14.8232 C   0  0  0  0  0  0  0  0  0  0  0  0
   26.7131  -19.7344  -16.2807 C   0  0  0  0  0  0  0  0  0  0  0  0
   27.6957  -18.9751  -17.0548 C   0  0  0  0  0  0  0  0  0  0  0  0
   28.2417  -17.8979  -16.7775 O   0  0  0  0  0  0  0  0  0  0  0  0
   26.4553  -21.3387  -13.1239 C   0  0  0  0  0  0  0  0  0  0  0  0
   25.6299  -22.2826  -13.2337 O   0  0  0  0  0  0  0  0  0  0  0  0
   28.0772  -19.5512  -18.2984 O   0  0  0  0  0  0  0  0  0  0  0  0
   26.5803  -20.5328  -11.9617 N   0  0  0  0  0  0  0  0  0  0  0  0
   25.6528  -20.7040  -10.8778 C   0  0  1  0  0  0  0  0  0  0  0  0
   26.0874  -20.0519   -9.6055 C   0  0  0  0  0  0  0  0  0  0  0  0
   27.3859  -20.4657   -9.0746 C   0  0  0  0  0  0  0  0  0  0  0  0
   28.3696  -21.2030   -9.6574 C   0  0  0  0  0  0  0  0  0  0  0  0
   29.3955  -21.3230   -8.7816 N   0  0  0  0  0  0  0  0  0  0  0  0
   29.0895  -20.6794   -7.6527 C   0  0  0  0  0  0  0  0  0  0  0  0
   29.8168  -20.5205   -6.4704 C   0  0  0  0  0  0  0  0  0  0  0  0
   29.2861  -19.8037   -5.4234 C   0  0  0  0  0  0  0  0  0  0  0  0
   28.0318  -19.2582   -5.5832 C   0  0  0  0  0  0  0  0  0  0  0  0
   27.3099  -19.4147   -6.7526 C   0  0  0  0  0  0  0  0  0  0  0  0
   27.8390  -20.1340   -7.8072 C   0  0  0  0  0  0  0  0  0  0  0  0
   24.2621  -20.4363  -11.2773 C   0  0  0  0  0  0  0  0  0  0  0  0
   23.9577  -19.4996  -12.0773 O   0  0  0  0  0  0  0  0  0  0  0  0
   23.2199  -21.2359  -10.7633 N   0  0  0  0  0  0  0  0  0  0  0  0
   21.8071  -21.0470  -11.1564 C   0  0  1  0  0  0  0  0  0  0  0  0
   21.0561  -22.2567  -10.6625 C   0  0  0  0  0  0  0  0  0  0  0  0
   19.6632  -22.2455  -11.1128 C   0  0  0  0  0  0  0  0  0  0  0  0
   19.2397  -21.3108  -11.8226 O   0  0  0  0  0  0  0  0  0  0  0  0
   21.3188  -19.7679  -10.6184 C   0  0  0  0  0  0  0  0  0  0  0  0
   20.3247  -19.0606  -11.3229 O   0  0  0  0  0  0  0  0  0  0  0  0
   18.8028  -23.2622  -10.7565 O   0  0  0  0  0  0  0  0  0  0  0  0
   21.7372  -19.2743   -9.5706 O   0  0  0  0  0  0  0  0  0  0  0  0
  2  1  1  6
  3  4  1  0
  3  2  1  0
  5  6  2  0
  5  4  1  0
  7  2  1  0
  7  8  2  0
  9  5  1  0
 10  7  1  0
 11 10  1  0
 11 12  1  1
 13 12  1  0
 13 14  2  0
 15 14  1  0
 16 15  1  0
 17 16  2  0
 18 17  1  0
 19 18  2  0
 19 20  1  0
 20 21  2  0
 21 16  1  0
 21 13  1  0
 22 11  1  0
 23 22  2  0
 24 22  1  0
 25 29  1  0
 25 24  1  0
 25 26  1  1
 27 26  1  0
 27 28  2  0
 29 30  1  0
 31 27  1  0
 32 29  2  0
M  END
$$$$
