EWD.pdb
     RDKit          3D

 32 33  0  0  1  0  0  0  0  0999 V2000
   27.8398  -22.6199  -16.6453 N   0  0  0  0  0  0  0  0  0  0  0  0
   28.1280  -21.5519  -15.7581 C   0  0  1  0  0  0  0  0  0  0  0  0
   27.8918  -20.1937  -16.3287 C   0  0  0  0  0  0  0  0  0  0  0  0
   27.1153  -20.2196  -17.5856 C   0  0  0  0  0  0  0  0  0  0  0  0
   27.9013  -20.6125  -18.7557 C   0  0  0  0  0  0  0  0  0  0  0  0
   29.0901  -20.3743  -19.0113 O   0  0  0  0  0  0  0  0  0  0  0  0
   27.2802  -21.6676  -14.5264 C   0  0  0  0  0  0  0  0  0  0  0  0
   26.1508  -22.2165  -14.6128 O   0  0  0  0  0  0  0  0  0  0  0  0
   27.2057  -21.3724  -19.7369 O   0  0  0  0  0  0  0  0  0  0  0  0
   27.8112  -21.1440  -13.3182 N   0  0  0  0  0  0  0  0  0  0  0  0
   27.0194  -21.1852  -12.1199 C   0  0  1  0  0  0  0  0  0  0  0  0
   27.7857  -20.8526  -10.8809 C   0  0  0  0  0  0  0  0  0  0  0  0
   27.0007  -20.6796   -9.6589 C   0  0  0  0  0  0  0  0  0  0  0  0
   25.6513  -20.6582   -9.4871 C   0  0  0  0  0  0  0  0  0  0  0  0
   25.3866  -20.4794   -8.1711 N   0  0  0  0  0  0  0  0  0  0  0  0
   26.5361  -20.3858   -7.4985 C   0  0  0  0  0  0  0  0  0  0  0  0
   26.7800  -20.1986   -6.1356 C   0  0  0  0  0  0  0  0  0  0  0  0
   28.0715  -20.1316   -5.6673 C   0  0  0  0  0  0  0  0  0  0  0  0
   29.0968  -20.2544   -6.5783 C   0  0  0  0  0  0  0  0  0  0  0  0
   28.8576  -20.4394   -7.9280 C   0  0  0  0  0  0  0  0  0  0  0  0
   27.5617  -20.5073   -8.4031 C   0  0  0  0  0  0  0  0  0  0  0  0
   25.7330  -20.4867  -12.2691 C   0  0  0  0  0  0  0  0  0  0  0  0
   25.6606  -19.2277  -12.4095 O   0  0  0  0  0  0  0  0  0  0  0  0
   24.5305  -21.2240  -12.2567 N   0  0  0  0  0  0  0  0  0  0  0  0
   23.2066  -20.5857  -12.4174 C   0  0  1  0  0  0  0  0  0  0  0  0
   22.5666  -21.2172  -13.6268 C   0  0  0  0  0  0  0  0  0  0  0  0
   22.9506  -20.5279  -14.8598 C   0  0  0  0  0  0  0  0  0  0  0  0
   22.9928  -19.2815  -14.8960 O   0  0  0  0  0  0  0  0  0  0  0  0
   22.4372  -20.7403  -11.1731 C   0  0  0  0  0  0  0  0  0  0  0  0
   22.6933  -21.8468  -10.3396 O   0  0  0  0  0  0  0  0  0  0  0  0
   23.2659  -21.2444  -15.9949 O   0  0  0  0  0  0  0  0  0  0  0  0
   21.5687  -19.9440  -10.8148 O   0  0  0  0  0  0  0  0  0  0  0  0
  2  1  1  6
  3  4  1  0
  3  2  1  0
  5  6  2  0
  5  4  1  0
  7  2  1  0
  7  8  2  0
  9  5  1  0
 10  7  1  0
 11 10  1  0
 11 12  1  1
 13 12  1  0
 13 14  2  0
 15 14  1  0
 16 15  1  0
 17 16  2  0
 18 17  1  0
 19 18  2  0
 19 20  1  0
 20 21  2  0
 21 16  1  0
 21 13  1  0
 22 11  1  0
 23 22  2  0
 24 22  1  0
 25 29  1  0
 25 24  1  0
 25 26  1  6
 27 26  1  0
 27 28  2  0
 29 30  1  0
 31 27  1  0
 32 29  2  0
M  END
$$$$
