EWD.pdb
     RDKit          3D

 32 33  0  0  1  0  0  0  0  0999 V2000
   27.9109  -19.2638  -14.5423 N   0  0  0  0  0  0  0  0  0  0  0  0
   27.3871  -20.5120  -14.9643 C   0  0  1  0  0  0  0  0  0  0  0  0
   28.4021  -21.4497  -15.5270 C   0  0  0  0  0  0  0  0  0  0  0  0
   29.4900  -20.7604  -16.2514 C   0  0  0  0  0  0  0  0  0  0  0  0
   29.0796  -20.2060  -17.5419 C   0  0  0  0  0  0  0  0  0  0  0  0
   29.7010  -19.4430  -18.2950 O   0  0  0  0  0  0  0  0  0  0  0  0
   26.7337  -21.2094  -13.8084 C   0  0  0  0  0  0  0  0  0  0  0  0
   26.4167  -22.4217  -13.9278 O   0  0  0  0  0  0  0  0  0  0  0  0
   27.7886  -20.5947  -17.9958 O   0  0  0  0  0  0  0  0  0  0  0  0
   26.5097  -20.4489  -12.6306 N   0  0  0  0  0  0  0  0  0  0  0  0
   25.4494  -20.8237  -11.7364 C   0  0  1  0  0  0  0  0  0  0  0  0
   25.7053  -20.4539  -10.3114 C   0  0  0  0  0  0  0  0  0  0  0  0
   26.9986  -20.8554   -9.7586 C   0  0  0  0  0  0  0  0  0  0  0  0
   28.0164  -21.5466  -10.3393 C   0  0  0  0  0  0  0  0  0  0  0  0
   29.0202  -21.6740   -9.4393 N   0  0  0  0  0  0  0  0  0  0  0  0
   28.6667  -21.0803   -8.2970 C   0  0  0  0  0  0  0  0  0  0  0  0
   29.3565  -20.9476   -7.0893 C   0  0  0  0  0  0  0  0  0  0  0  0
   28.7788  -20.2832   -6.0327 C   0  0  0  0  0  0  0  0  0  0  0  0
   27.5161  -19.7627   -6.2086 C   0  0  0  0  0  0  0  0  0  0  0  0
   26.8313  -19.8933   -7.4032 C   0  0  0  0  0  0  0  0  0  0  0  0
   27.4077  -20.5601   -8.4675 C   0  0  0  0  0  0  0  0  0  0  0  0
   24.1206  -20.4570  -12.2512 C   0  0  0  0  0  0  0  0  0  0  0  0
   23.8521  -19.2836  -12.6523 O   0  0  0  0  0  0  0  0  0  0  0  0
   23.0991  -21.4282  -12.3071 N   0  0  0  0  0  0  0  0  0  0  0  0
   21.7941  -21.1709  -12.9528 C   0  0  1  0  0  0  0  0  0  0  0  0
   21.5173  -22.3487  -13.8514 C   0  0  0  0  0  0  0  0  0  0  0  0
   20.1760  -22.2772  -14.4335 C   0  0  0  0  0  0  0  0  0  0  0  0
   19.4688  -21.2641  -14.2599 O   0  0  0  0  0  0  0  0  0  0  0  0
   20.7744  -20.9449  -11.9169 C   0  0  0  0  0  0  0  0  0  0  0  0
   21.0377  -21.3493  -10.5933 O   0  0  0  0  0  0  0  0  0  0  0  0
   19.6767  -23.3265  -15.1756 O   0  0  0  0  0  0  0  0  0  0  0  0
   19.6872  -20.4138  -12.1465 O   0  0  0  0  0  0  0  0  0  0  0  0
  2  1  1  1
  3  4  1  0
  3  2  1  0
  5  6  2  0
  5  4  1  0
  7  2  1  0
  7  8  2  0
  9  5  1  0
 10  7  1  0
 11 10  1  0
 11 12  1  1
 13 12  1  0
 13 14  2  0
 15 14  1  0
 16 15  1  0
 17 16  2  0
 18 17  1  0
 19 18  2  0
 19 20  1  0
 20 21  2  0
 21 16  1  0
 21 13  1  0
 22 11  1  0
 23 22  2  0
 24 22  1  0
 25 29  1  0
 25 24  1  0
 25 26  1  1
 27 26  1  0
 27 28  2  0
 29 30  1  0
 31 27  1  0
 32 29  2  0
M  END
$$$$
