ADK.pdb
     RDKit          3D

 23 22  0  0  1  0  0  0  0  0999 V2000
   28.0663  -19.7343  -16.6086 C   0  0  0  0  0  0  0  0  0  0  0  0
   26.6515  -19.6146  -16.0908 C   0  0  2  0  0  0  0  0  0  0  0  0
   25.9828  -20.8792  -16.2871 N   0  0  0  0  0  0  0  0  0  0  0  0
   25.9428  -18.5122  -16.8139 C   0  0  0  0  0  0  0  0  0  0  0  0
   26.2029  -18.2573  -18.0075 O   0  0  0  0  0  0  0  0  0  0  0  0
   24.9516  -17.7207  -16.1663 N   0  0  0  0  0  0  0  0  0  0  0  0
   24.2512  -16.6230  -16.7959 C   0  0  1  0  0  0  0  0  0  0  0  0
   23.0634  -16.1555  -16.0330 C   0  0  0  0  0  0  0  0  0  0  0  0
   22.0634  -17.2326  -15.8798 C   0  0  0  0  0  0  0  0  0  0  0  0
   21.6799  -17.9952  -16.8039 O   0  0  0  0  0  0  0  0  0  0  0  0
   25.2086  -15.5126  -17.1307 C   0  0  0  0  0  0  0  0  0  0  0  0
   25.9567  -15.0636  -16.2508 O   0  0  0  0  0  0  0  0  0  0  0  0
   21.4896  -17.4361  -14.6296 O   0  0  0  0  0  0  0  0  0  0  0  0
   25.2160  -15.0148  -18.4612 N   0  0  0  0  0  0  0  0  0  0  0  0
   26.1434  -13.9834  -18.8770 C   0  0  1  0  0  0  0  0  0  0  0  0
   27.4053  -14.5692  -19.4665 C   0  0  0  0  0  0  0  0  0  0  0  0
   28.3837  -13.5038  -19.8835 C   0  0  0  0  0  0  0  0  0  0  0  0
   29.6556  -14.0985  -20.4201 C   0  0  0  0  0  0  0  0  0  0  0  0
   30.6875  -13.0532  -20.7905 C   0  0  0  0  0  0  0  0  0  0  0  0
   31.9457  -13.7033  -21.1912 N   0  0  0  0  0  0  0  0  0  0  0  0
   25.5021  -13.0192  -19.8100 C   0  0  0  0  0  0  0  0  0  0  0  0
   26.1330  -12.0043  -20.1987 O   0  0  0  0  0  0  0  0  0  0  0  0
   24.2089  -13.1781  -20.2919 O   0  0  0  0  0  0  0  0  0  0  0  0
  2  1  1  6
  2  3  1  0
  4  6  1  0
  4  2  1  0
  5  4  2  0
  7 11  1  0
  7  6  1  0
  7  8  1  1
  9 10  2  0
  9  8  1  0
 11 14  1  0
 12 11  2  0
 13  9  1  0
 14 15  1  0
 15 21  1  0
 15 16  1  6
 17 16  1  0
 18 19  1  0
 18 17  1  0
 20 19  1  0
 21 23  1  0
 22 21  2  0
M  END
$$$$
