ADK.pdb
     RDKit          3D

 23 22  0  0  1  0  0  0  0  0999 V2000
   13.8611  -12.1249  -14.6654 C   0  0  0  0  0  0  0  0  0  0  0  0
   15.1409  -12.0180  -15.4621 C   0  0  2  0  0  0  0  0  0  0  0  0
   15.6724  -13.3463  -15.6565 N   0  0  0  0  0  0  0  0  0  0  0  0
   16.1166  -11.1485  -14.7324 C   0  0  0  0  0  0  0  0  0  0  0  0
   16.2748  -11.2570  -13.4993 O   0  0  0  0  0  0  0  0  0  0  0  0
   16.8942  -10.1724  -15.4185 N   0  0  0  0  0  0  0  0  0  0  0  0
   17.8221   -9.2721  -14.7700 C   0  0  1  0  0  0  0  0  0  0  0  0
   19.0748   -9.0483  -15.5396 C   0  0  0  0  0  0  0  0  0  0  0  0
   20.0005   -8.1541  -14.8136 C   0  0  0  0  0  0  0  0  0  0  0  0
   20.2121   -6.9484  -15.1039 O   0  0  0  0  0  0  0  0  0  0  0  0
   17.1312   -7.9923  -14.3874 C   0  0  0  0  0  0  0  0  0  0  0  0
   16.3924   -7.4273  -15.2063 O   0  0  0  0  0  0  0  0  0  0  0  0
   20.7016   -8.6623  -13.7255 O   0  0  0  0  0  0  0  0  0  0  0  0
   17.3574   -7.4743  -13.0841 N   0  0  0  0  0  0  0  0  0  0  0  0
   16.8361   -6.1845  -12.6825 C   0  0  1  0  0  0  0  0  0  0  0  0
   16.4009   -6.1820  -11.2356 C   0  0  0  0  0  0  0  0  0  0  0  0
   15.8422   -4.8492  -10.8141 C   0  0  0  0  0  0  0  0  0  0  0  0
   15.3251   -4.8860   -9.4031 C   0  0  0  0  0  0  0  0  0  0  0  0
   14.6470   -3.5967   -8.9876 C   0  0  0  0  0  0  0  0  0  0  0  0
   13.9149   -3.7934   -7.7260 N   0  0  0  0  0  0  0  0  0  0  0  0
   17.8078   -5.0941  -12.9616 C   0  0  0  0  0  0  0  0  0  0  0  0
   19.0378   -5.2879  -12.7923 O   0  0  0  0  0  0  0  0  0  0  0  0
   17.4258   -3.8366  -13.4118 O   0  0  0  0  0  0  0  0  0  0  0  0
  2  1  1  1
  2  3  1  0
  4  6  1  0
  4  2  1  0
  5  4  2  0
  7 11  1  0
  7  6  1  0
  7  8  1  6
  9 10  2  0
  9  8  1  0
 11 14  1  0
 12 11  2  0
 13  9  1  0
 14 15  1  0
 15 21  1  0
 15 16  1  1
 17 16  1  0
 18 19  1  0
 18 17  1  0
 20 19  1  0
 21 23  1  0
 22 21  2  0
M  END
$$$$
