ADK.pdb
     RDKit          3D

 23 22  0  0  1  0  0  0  0  0999 V2000
   27.9308  -19.5205  -17.0779 C   0  0  0  0  0  0  0  0  0  0  0  0
   28.2362  -20.7036  -16.1884 C   0  0  2  0  0  0  0  0  0  0  0  0
   28.5594  -21.8351  -17.0251 N   0  0  0  0  0  0  0  0  0  0  0  0
   27.0542  -20.9969  -15.3181 C   0  0  0  0  0  0  0  0  0  0  0  0
   26.0396  -21.5563  -15.7818 O   0  0  0  0  0  0  0  0  0  0  0  0
   27.0485  -20.6490  -13.9371 N   0  0  0  0  0  0  0  0  0  0  0  0
   25.9595  -20.9418  -13.0313 C   0  0  1  0  0  0  0  0  0  0  0  0
   26.3658  -20.9829  -11.6014 C   0  0  0  0  0  0  0  0  0  0  0  0
   25.2602  -21.4519  -10.7404 C   0  0  0  0  0  0  0  0  0  0  0  0
   25.1947  -21.2801   -9.4959 O   0  0  0  0  0  0  0  0  0  0  0  0
   24.8015  -20.0169  -13.2866 C   0  0  0  0  0  0  0  0  0  0  0  0
   24.9486  -18.7959  -13.1352 O   0  0  0  0  0  0  0  0  0  0  0  0
   24.2028  -22.1375  -11.3283 O   0  0  0  0  0  0  0  0  0  0  0  0
   23.5669  -20.5886  -13.6956 N   0  0  0  0  0  0  0  0  0  0  0  0
   22.4022  -19.7676  -13.9528 C   0  0  1  0  0  0  0  0  0  0  0  0
   22.0793  -19.6995  -15.4272 C   0  0  0  0  0  0  0  0  0  0  0  0
   20.9498  -18.7472  -15.7166 C   0  0  0  0  0  0  0  0  0  0  0  0
   20.6319  -18.6941  -17.1848 C   0  0  0  0  0  0  0  0  0  0  0  0
   19.5345  -17.7043  -17.5173 C   0  0  0  0  0  0  0  0  0  0  0  0
   19.3622  -17.6102  -18.9760 N   0  0  0  0  0  0  0  0  0  0  0  0
   21.2303  -20.2218  -13.1581 C   0  0  0  0  0  0  0  0  0  0  0  0
   21.1829  -21.3995  -12.7224 O   0  0  0  0  0  0  0  0  0  0  0  0
   20.1526  -19.3974  -12.8597 O   0  0  0  0  0  0  0  0  0  0  0  0
  2  1  1  6
  2  3  1  0
  4  6  1  0
  4  2  1  0
  5  4  2  0
  7 11  1  0
  7  6  1  0
  7  8  1  1
  9 10  2  0
  9  8  1  0
 11 14  1  0
 12 11  2  0
 13  9  1  0
 14 15  1  0
 15 21  1  0
 15 16  1  6
 17 16  1  0
 18 19  1  0
 18 17  1  0
 20 19  1  0
 21 23  1  0
 22 21  2  0
M  END
$$$$
