ADK.pdb
     RDKit          3D

 23 22  0  0  1  0  0  0  0  0999 V2000
   26.9066  -15.5904  -18.1147 C   0  0  0  0  0  0  0  0  0  0  0  0
   26.0932  -16.8410  -18.3566 C   0  0  2  0  0  0  0  0  0  0  0  0
   25.5694  -16.7943  -19.7012 N   0  0  0  0  0  0  0  0  0  0  0  0
   24.9883  -16.9249  -17.3503 C   0  0  0  0  0  0  0  0  0  0  0  0
   25.2359  -17.0898  -16.1384 O   0  0  0  0  0  0  0  0  0  0  0  0
   23.6229  -16.8192  -17.7410 N   0  0  0  0  0  0  0  0  0  0  0  0
   22.5075  -16.9096  -16.8246 C   0  0  1  0  0  0  0  0  0  0  0  0
   21.3893  -15.9850  -17.1507 C   0  0  0  0  0  0  0  0  0  0  0  0
   20.3089  -16.0709  -16.1463 C   0  0  0  0  0  0  0  0  0  0  0  0
   19.1100  -15.7487  -16.3498 O   0  0  0  0  0  0  0  0  0  0  0  0
   22.0639  -18.3388  -16.6770 C   0  0  0  0  0  0  0  0  0  0  0  0
   21.5497  -18.9227  -17.6415 O   0  0  0  0  0  0  0  0  0  0  0  0
   20.6178  -16.5391  -14.8739 O   0  0  0  0  0  0  0  0  0  0  0  0
   22.2536  -18.9712  -15.4190 N   0  0  0  0  0  0  0  0  0  0  0  0
   21.9814  -20.3812  -15.2332 C   0  0  1  0  0  0  0  0  0  0  0  0
   23.2428  -21.2097  -15.3069 C   0  0  0  0  0  0  0  0  0  0  0  0
   22.9567  -22.6856  -15.2287 C   0  0  0  0  0  0  0  0  0  0  0  0
   24.2229  -23.4957  -15.2146 C   0  0  0  0  0  0  0  0  0  0  0  0
   23.9697  -24.9892  -15.1998 C   0  0  0  0  0  0  0  0  0  0  0  0
   25.2374  -25.7192  -15.3621 N   0  0  0  0  0  0  0  0  0  0  0  0
   21.2385  -20.6299  -13.9693 C   0  0  0  0  0  0  0  0  0  0  0  0
   21.3855  -19.8566  -12.9897 O   0  0  0  0  0  0  0  0  0  0  0  0
   20.3657  -21.6977  -13.8018 O   0  0  0  0  0  0  0  0  0  0  0  0
  2  1  1  1
  2  3  1  0
  4  6  1  0
  4  2  1  0
  5  4  2  0
  7 11  1  0
  7  6  1  0
  7  8  1  6
  9 10  2  0
  9  8  1  0
 11 14  1  0
 12 11  2  0
 13  9  1  0
 14 15  1  0
 15 21  1  0
 15 16  1  1
 17 16  1  0
 18 19  1  0
 18 17  1  0
 20 19  1  0
 21 23  1  0
 22 21  2  0
M  END
$$$$
