ADK.pdb
     RDKit          3D

 23 22  0  0  1  0  0  0  0  0999 V2000
   18.4243  -12.8375    4.0630 C   0  0  0  0  0  0  0  0  0  0  0  0
   17.1199  -13.5081    4.4275 C   0  0  2  0  0  0  0  0  0  0  0  0
   16.1804  -12.4912    4.8375 N   0  0  0  0  0  0  0  0  0  0  0  0
   17.3534  -14.4998    5.5241 C   0  0  0  0  0  0  0  0  0  0  0  0
   17.1959  -14.1818    6.7205 O   0  0  0  0  0  0  0  0  0  0  0  0
   17.7611  -15.8344    5.2395 N   0  0  0  0  0  0  0  0  0  0  0  0
   18.0010  -16.8420    6.2491 C   0  0  1  0  0  0  0  0  0  0  0  0
   17.6647  -18.2219    5.8082 C   0  0  0  0  0  0  0  0  0  0  0  0
   16.2046  -18.4025    5.6703 C   0  0  0  0  0  0  0  0  0  0  0  0
   15.3370  -17.7920    6.3465 O   0  0  0  0  0  0  0  0  0  0  0  0
   19.3997  -16.7222    6.7883 C   0  0  0  0  0  0  0  0  0  0  0  0
   20.3543  -16.6458    6.0019 O   0  0  0  0  0  0  0  0  0  0  0  0
   15.7315  -19.3107    4.7295 O   0  0  0  0  0  0  0  0  0  0  0  0
   19.5732  -16.7025    8.1982 N   0  0  0  0  0  0  0  0  0  0  0  0
   20.8876  -16.5968    8.7965 C   0  0  1  0  0  0  0  0  0  0  0  0
   21.0797  -15.2713    9.4959 C   0  0  0  0  0  0  0  0  0  0  0  0
   21.1589  -14.1241    8.5243 C   0  0  0  0  0  0  0  0  0  0  0  0
   21.3584  -12.8122    9.2305 C   0  0  0  0  0  0  0  0  0  0  0  0
   21.4739  -11.6394    8.2788 C   0  0  0  0  0  0  0  0  0  0  0  0
   21.6494  -10.3890    9.0351 N   0  0  0  0  0  0  0  0  0  0  0  0
   21.1642  -17.7392    9.7073 C   0  0  0  0  0  0  0  0  0  0  0  0
   20.2169  -18.4393   10.1451 O   0  0  0  0  0  0  0  0  0  0  0  0
   22.4452  -18.0891   10.1153 O   0  0  0  0  0  0  0  0  0  0  0  0
  2  1  1  1
  2  3  1  0
  4  6  1  0
  4  2  1  0
  5  4  2  0
  7 11  1  0
  7  6  1  0
  7  8  1  6
  9 10  2  0
  9  8  1  0
 11 14  1  0
 12 11  2  0
 13  9  1  0
 14 15  1  0
 15 21  1  0
 15 16  1  1
 17 16  1  0
 18 19  1  0
 18 17  1  0
 20 19  1  0
 21 23  1  0
 22 21  2  0
M  END
$$$$
