ADK.pdb
     RDKit          3D

 23 22  0  0  1  0  0  0  0  0999 V2000
   18.8534  -14.6198  -16.9408 C   0  0  0  0  0  0  0  0  0  0  0  0
   19.0337  -13.3913  -17.8025 C   0  0  2  0  0  0  0  0  0  0  0  0
   19.7867  -13.7618  -18.9774 N   0  0  0  0  0  0  0  0  0  0  0  0
   19.7416  -12.3285  -17.0215 C   0  0  0  0  0  0  0  0  0  0  0  0
   19.4141  -12.0718  -15.8451 O   0  0  0  0  0  0  0  0  0  0  0  0
   20.8088  -11.5782  -17.5929 N   0  0  0  0  0  0  0  0  0  0  0  0
   21.5552  -10.5612  -16.8852 C   0  0  1  0  0  0  0  0  0  0  0  0
   23.0102  -10.5647  -17.1930 C   0  0  0  0  0  0  0  0  0  0  0  0
   23.6525  -11.8179  -16.7453 C   0  0  0  0  0  0  0  0  0  0  0  0
   23.6611  -12.2384  -15.5596 O   0  0  0  0  0  0  0  0  0  0  0  0
   20.9174   -9.2130  -17.0772 C   0  0  0  0  0  0  0  0  0  0  0  0
   20.6929   -8.7999  -18.2238 O   0  0  0  0  0  0  0  0  0  0  0  0
   24.3027  -12.6070  -17.6878 O   0  0  0  0  0  0  0  0  0  0  0  0
   20.5944   -8.4553  -15.9197 N   0  0  0  0  0  0  0  0  0  0  0  0
   19.9806   -7.1476  -16.0194 C   0  0  1  0  0  0  0  0  0  0  0  0
   18.5485   -7.1628  -15.5381 C   0  0  0  0  0  0  0  0  0  0  0  0
   17.6632   -8.0025  -16.4197 C   0  0  0  0  0  0  0  0  0  0  0  0
   16.2450   -8.0240  -15.9218 C   0  0  0  0  0  0  0  0  0  0  0  0
   15.3814   -9.0412  -16.6389 C   0  0  0  0  0  0  0  0  0  0  0  0
   14.8567  -10.0262  -15.6794 N   0  0  0  0  0  0  0  0  0  0  0  0
   20.7830   -6.1148  -15.3118 C   0  0  0  0  0  0  0  0  0  0  0  0
   21.7982   -6.4493  -14.6511 O   0  0  0  0  0  0  0  0  0  0  0  0
   20.4679   -4.7620  -15.3382 O   0  0  0  0  0  0  0  0  0  0  0  0
  2  1  1  1
  2  3  1  0
  4  6  1  0
  4  2  1  0
  5  4  2  0
  7 11  1  0
  7  6  1  0
  7  8  1  6
  9 10  2  0
  9  8  1  0
 11 14  1  0
 12 11  2  0
 13  9  1  0
 14 15  1  0
 15 21  1  0
 15 16  1  1
 17 16  1  0
 18 19  1  0
 18 17  1  0
 20 19  1  0
 21 23  1  0
 22 21  2  0
M  END
$$$$
