ADK.pdb
     RDKit          3D

 23 22  0  0  1  0  0  0  0  0999 V2000
   14.5770  -13.4788  -14.2056 C   0  0  0  0  0  0  0  0  0  0  0  0
   14.2466  -12.1111  -14.7574 C   0  0  2  0  0  0  0  0  0  0  0  0
   14.3571  -12.1583  -16.1962 N   0  0  0  0  0  0  0  0  0  0  0  0
   15.1813  -11.0957  -14.1780 C   0  0  0  0  0  0  0  0  0  0  0  0
   15.1625  -10.8287  -12.9592 O   0  0  0  0  0  0  0  0  0  0  0  0
   16.1199  -10.4034  -14.9954 N   0  0  0  0  0  0  0  0  0  0  0  0
   16.9431   -9.3069  -14.5349 C   0  0  1  0  0  0  0  0  0  0  0  0
   18.3523   -9.3791  -15.0044 C   0  0  0  0  0  0  0  0  0  0  0  0
   19.1503   -8.2468  -14.4897 C   0  0  0  0  0  0  0  0  0  0  0  0
   19.3632   -8.0111  -13.2725 O   0  0  0  0  0  0  0  0  0  0  0  0
   16.2866   -7.9905  -14.8472 C   0  0  0  0  0  0  0  0  0  0  0  0
   15.9236   -7.7477  -16.0069 O   0  0  0  0  0  0  0  0  0  0  0  0
   19.7169   -7.3625  -15.4011 O   0  0  0  0  0  0  0  0  0  0  0  0
   16.1076   -7.0641  -13.7852 N   0  0  0  0  0  0  0  0  0  0  0  0
   15.5363   -5.7534  -14.0138 C   0  0  1  0  0  0  0  0  0  0  0  0
   14.5676   -5.3660  -12.9209 C   0  0  0  0  0  0  0  0  0  0  0  0
   13.2450   -6.0716  -13.0596 C   0  0  0  0  0  0  0  0  0  0  0  0
   12.3410   -5.7893  -11.8923 C   0  0  0  0  0  0  0  0  0  0  0  0
   10.9865   -6.4558  -12.0181 C   0  0  0  0  0  0  0  0  0  0  0  0
   10.5604   -6.4750  -13.4268 N   0  0  0  0  0  0  0  0  0  0  0  0
   16.5934   -4.7235  -14.1960 C   0  0  0  0  0  0  0  0  0  0  0  0
   17.6691   -4.8042  -13.5514 O   0  0  0  0  0  0  0  0  0  0  0  0
   16.4588   -3.6455  -15.0618 O   0  0  0  0  0  0  0  0  0  0  0  0
  2  1  1  1
  2  3  1  0
  4  6  1  0
  4  2  1  0
  5  4  2  0
  7 11  1  0
  7  6  1  0
  7  8  1  6
  9 10  2  0
  9  8  1  0
 11 14  1  0
 12 11  2  0
 13  9  1  0
 14 15  1  0
 15 21  1  0
 15 16  1  1
 17 16  1  0
 18 19  1  0
 18 17  1  0
 20 19  1  0
 21 23  1  0
 22 21  2  0
M  END
$$$$
