KLR.pdb
     RDKit          3D

 29 28  0  0  1  0  0  0  0  0999 V2000
   20.6323  -13.0327  -18.2682 N   0  0  0  0  0  0  0  0  0  0  0  0
   20.2525  -12.0558  -17.2899 C   0  0  1  0  0  0  0  0  0  0  0  0
   19.2642  -12.6457  -16.2739 C   0  0  0  0  0  0  0  0  0  0  0  0
   17.9112  -12.0406  -16.4887 C   0  0  0  0  0  0  0  0  0  0  0  0
   16.8522  -12.4799  -15.5454 C   0  0  0  0  0  0  0  0  0  0  0  0
   16.1694  -13.7675  -15.8661 C   0  0  0  0  0  0  0  0  0  0  0  0
   15.1910  -14.2007  -14.9195 N   0  0  0  0  0  0  0  0  0  0  0  0
   21.4138  -11.5182  -16.5679 C   0  0  0  0  0  0  0  0  0  0  0  0
   21.9507  -12.1748  -15.6397 O   0  0  0  0  0  0  0  0  0  0  0  0
   26.8394   -9.7816  -16.8295 C   0  0  0  0  0  0  0  0  0  0  0  0
   25.6209   -9.4957  -15.9317 C   0  0  2  0  0  0  0  0  0  0  0  0
   25.8669  -10.1955  -14.6310 C   0  0  0  0  0  0  0  0  0  0  0  0
   24.4349   -9.9833  -16.7013 C   0  0  0  0  0  0  0  0  0  0  0  0
   23.1028   -9.6930  -16.1208 C   0  0  2  0  0  0  0  0  0  0  0  0
   21.9932  -10.2412  -16.8697 N   0  0  0  0  0  0  0  0  0  0  0  0
   22.9302   -8.2226  -15.9172 C   0  0  0  0  0  0  0  0  0  0  0  0
   23.6950   -7.5900  -15.1599 O   0  0  0  0  0  0  0  0  0  0  0  0
   15.8276   -5.5609  -19.8109 N   0  0  0  0  0  0  0  0  0  0  0  0
   15.9954   -6.7528  -19.0249 C   0  0  0  0  0  0  0  0  0  0  0  0
   15.1300   -7.6942  -19.1256 N   0  0  0  0  0  0  0  0  0  0  0  0
   17.0854   -6.9112  -18.1464 N   0  0  0  0  0  0  0  0  0  0  0  0
   18.2094   -6.0365  -18.0863 C   0  0  0  0  0  0  0  0  0  0  0  0
   19.3159   -6.4990  -17.1904 C   0  0  0  0  0  0  0  0  0  0  0  0
   20.5460   -5.6019  -17.3001 C   0  0  0  0  0  0  0  0  0  0  0  0
   21.5736   -6.1490  -16.3500 C   0  0  2  0  0  0  0  0  0  0  0  0
   21.9078   -7.5149  -16.5698 N   0  0  0  0  0  0  0  0  0  0  0  0
   21.0982   -5.9935  -14.9569 C   0  0  0  0  0  0  0  0  0  0  0  0
   20.9861   -4.7295  -14.4046 O   0  0  0  0  0  0  0  0  0  0  0  0
   20.7795   -6.9681  -14.2205 O   0  0  0  0  0  0  0  0  0  0  0  0
  2  8  1  0
  2  1  1  6
  3  2  1  0
  4  5  1  0
  4  3  1  0
  5  6  1  0
  7  6  1  0
  8  9  2  0
 11 13  1  0
 11 10  1  6
 12 11  1  0
 14 13  1  6
 15 14  1  0
 15  8  1  0
 16 14  1  0
 16 17  2  0
 19 18  1  0
 20 19  2  0
 21 19  1  0
 22 21  1  0
 23 22  1  0
 23 24  1  0
 25 24  1  6
 25 26  1  0
 25 27  1  0
 26 16  1  0
 27 28  1  0
 29 27  2  0
M  END
$$$$
