KLR.pdb
     RDKit          3D

 29 28  0  0  1  0  0  0  0  0999 V2000
   19.8208  -20.3919   -9.2318 N   0  0  0  0  0  0  0  0  0  0  0  0
   20.8950  -21.3412   -9.2035 C   0  0  1  0  0  0  0  0  0  0  0  0
   20.6840  -22.4465  -10.2480 C   0  0  0  0  0  0  0  0  0  0  0  0
   19.3651  -23.1134  -10.0054 C   0  0  0  0  0  0  0  0  0  0  0  0
   19.4252  -24.5619   -9.6853 C   0  0  0  0  0  0  0  0  0  0  0  0
   18.1169  -25.2610   -9.5224 C   0  0  0  0  0  0  0  0  0  0  0  0
   18.1929  -26.6701   -9.2989 N   0  0  0  0  0  0  0  0  0  0  0  0
   22.1987  -20.7058   -9.4391 C   0  0  0  0  0  0  0  0  0  0  0  0
   22.3339  -19.8355  -10.3365 O   0  0  0  0  0  0  0  0  0  0  0  0
   27.8039  -20.1555   -6.8656 C   0  0  0  0  0  0  0  0  0  0  0  0
   26.9395  -19.8228   -8.0964 C   0  0  2  0  0  0  0  0  0  0  0  0
   26.8154  -18.3316   -8.1489 C   0  0  0  0  0  0  0  0  0  0  0  0
   25.6548  -20.5608   -7.8930 C   0  0  0  0  0  0  0  0  0  0  0  0
   24.6814  -20.5176   -9.0094 C   0  0  2  0  0  0  0  0  0  0  0  0
   23.3702  -21.0312   -8.6782 N   0  0  0  0  0  0  0  0  0  0  0  0
   25.2342  -21.2108  -10.2124 C   0  0  0  0  0  0  0  0  0  0  0  0
   25.3966  -22.4487  -10.2162 O   0  0  0  0  0  0  0  0  0  0  0  0
   25.3217  -25.8382  -15.3371 N   0  0  0  0  0  0  0  0  0  0  0  0
   25.9351  -24.9727  -16.3072 C   0  0  0  0  0  0  0  0  0  0  0  0
   26.3417  -25.4687  -17.4180 N   0  0  0  0  0  0  0  0  0  0  0  0
   26.1019  -23.5945  -16.0671 N   0  0  0  0  0  0  0  0  0  0  0  0
   25.4525  -22.8708  -15.0247 C   0  0  0  0  0  0  0  0  0  0  0  0
   25.7584  -21.4057  -14.9944 C   0  0  0  0  0  0  0  0  0  0  0  0
   25.1436  -20.7237  -13.7751 C   0  0  0  0  0  0  0  0  0  0  0  0
   26.0158  -21.0599  -12.5986 C   0  0  2  0  0  0  0  0  0  0  0  0
   25.5844  -20.4921  -11.3668 N   0  0  0  0  0  0  0  0  0  0  0  0
   27.4040  -20.6207  -12.8649 C   0  0  0  0  0  0  0  0  0  0  0  0
   28.2953  -21.4864  -13.4744 O   0  0  0  0  0  0  0  0  0  0  0  0
   27.8383  -19.4744  -12.5628 O   0  0  0  0  0  0  0  0  0  0  0  0
  2  8  1  0
  2  1  1  6
  3  2  1  0
  4  5  1  0
  4  3  1  0
  5  6  1  0
  7  6  1  0
  8  9  2  0
 11 13  1  0
 11 10  1  1
 12 11  1  0
 14 13  1  1
 15 14  1  0
 15  8  1  0
 16 14  1  0
 16 17  2  0
 19 18  1  0
 20 19  2  0
 21 19  1  0
 22 21  1  0
 23 22  1  0
 23 24  1  0
 25 24  1  6
 25 26  1  0
 25 27  1  0
 26 16  1  0
 27 28  1  0
 29 27  2  0
M  END
$$$$
