KLR.pdb
     RDKit          3D

 29 28  0  0  1  0  0  0  0  0999 V2000
   28.4920  -21.9625  -15.0911 N   0  0  0  0  0  0  0  0  0  0  0  0
   28.2523  -20.9081  -14.1496 C   0  0  1  0  0  0  0  0  0  0  0  0
   28.1853  -19.5444  -14.8518 C   0  0  0  0  0  0  0  0  0  0  0  0
   27.5043  -19.7011  -16.1764 C   0  0  0  0  0  0  0  0  0  0  0  0
   26.0276  -19.5480  -16.1633 C   0  0  0  0  0  0  0  0  0  0  0  0
   25.3365  -19.6589  -17.4813 C   0  0  0  0  0  0  0  0  0  0  0  0
   23.9144  -19.5271  -17.4464 N   0  0  0  0  0  0  0  0  0  0  0  0
   27.0098  -21.1159  -13.3934 C   0  0  0  0  0  0  0  0  0  0  0  0
   26.2027  -22.0215  -13.7244 O   0  0  0  0  0  0  0  0  0  0  0  0
   26.0738  -21.8923   -8.7858 C   0  0  0  0  0  0  0  0  0  0  0  0
   26.5282  -20.4799   -9.2000 C   0  0  2  0  0  0  0  0  0  0  0  0
   26.6992  -19.6920   -7.9383 C   0  0  0  0  0  0  0  0  0  0  0  0
   25.4678  -19.9751  -10.1258 C   0  0  0  0  0  0  0  0  0  0  0  0
   25.4467  -20.5555  -11.4891 C   0  0  2  0  0  0  0  0  0  0  0  0
   26.6488  -20.3176  -12.2577 N   0  0  0  0  0  0  0  0  0  0  0  0
   24.2387  -20.0911  -12.2365 C   0  0  0  0  0  0  0  0  0  0  0  0
   24.3365  -19.2263  -13.1316 O   0  0  0  0  0  0  0  0  0  0  0  0
   19.0559  -25.2995  -15.1395 N   0  0  0  0  0  0  0  0  0  0  0  0
   19.1288  -24.5058  -16.3358 C   0  0  0  0  0  0  0  0  0  0  0  0
   18.1834  -24.5884  -17.1987 N   0  0  0  0  0  0  0  0  0  0  0  0
   20.2132  -23.6413  -16.5840 N   0  0  0  0  0  0  0  0  0  0  0  0
   21.2896  -23.4133  -15.6777 C   0  0  0  0  0  0  0  0  0  0  0  0
   21.0716  -22.2861  -14.7169 C   0  0  0  0  0  0  0  0  0  0  0  0
   22.2632  -22.1008  -13.7812 C   0  0  0  0  0  0  0  0  0  0  0  0
   21.9596  -20.9110  -12.9151 C   0  0  2  0  0  0  0  0  0  0  0  0
   22.9659  -20.6126  -11.9539 N   0  0  0  0  0  0  0  0  0  0  0  0
   20.6753  -21.1219  -12.2099 C   0  0  0  0  0  0  0  0  0  0  0  0
   20.6457  -21.1491  -10.8266 O   0  0  0  0  0  0  0  0  0  0  0  0
   19.5749  -21.2829  -12.8073 O   0  0  0  0  0  0  0  0  0  0  0  0
  2  8  1  0
  2  1  1  6
  3  2  1  0
  4  5  1  0
  4  3  1  0
  5  6  1  0
  7  6  1  0
  8  9  2  0
 11 13  1  0
 11 10  1  1
 12 11  1  0
 14 13  1  1
 15 14  1  0
 15  8  1  0
 16 14  1  0
 16 17  2  0
 19 18  1  0
 20 19  2  0
 21 19  1  0
 22 21  1  0
 23 22  1  0
 23 24  1  0
 25 24  1  1
 25 26  1  0
 25 27  1  0
 26 16  1  0
 27 28  1  0
 29 27  2  0
M  END
$$$$
