KLR.pdb
     RDKit          3D

 29 28  0  0  1  0  0  0  0  0999 V2000
   26.7668  -21.9385  -14.1858 N   0  0  0  0  0  0  0  0  0  0  0  0
   26.0960  -20.8599  -13.5206 C   0  0  1  0  0  0  0  0  0  0  0  0
   24.9870  -20.2700  -14.4032 C   0  0  0  0  0  0  0  0  0  0  0  0
   25.5554  -19.9128  -15.7420 C   0  0  0  0  0  0  0  0  0  0  0  0
   26.1408  -18.5528  -15.8509 C   0  0  0  0  0  0  0  0  0  0  0  0
   26.0051  -17.8751  -17.1736 C   0  0  0  0  0  0  0  0  0  0  0  0
   25.9485  -18.7410  -18.3086 N   0  0  0  0  0  0  0  0  0  0  0  0
   25.5122  -21.2802  -12.2394 C   0  0  0  0  0  0  0  0  0  0  0  0
   25.1742  -22.4766  -12.0516 O   0  0  0  0  0  0  0  0  0  0  0  0
   26.9752  -21.2532   -7.8250 C   0  0  0  0  0  0  0  0  0  0  0  0
   26.6232  -19.8665   -8.3958 C   0  0  2  0  0  0  0  0  0  0  0  0
   26.9908  -18.8607   -7.3494 C   0  0  0  0  0  0  0  0  0  0  0  0
   25.1674  -19.9311   -8.7317 C   0  0  0  0  0  0  0  0  0  0  0  0
   24.7868  -20.8050   -9.8663 C   0  0  2  0  0  0  0  0  0  0  0  0
   25.2965  -20.3732  -11.1494 N   0  0  0  0  0  0  0  0  0  0  0  0
   23.3035  -20.9804   -9.9166 C   0  0  0  0  0  0  0  0  0  0  0  0
   22.6183  -20.3727  -10.7650 O   0  0  0  0  0  0  0  0  0  0  0  0
   18.4571  -26.0972   -5.2212 N   0  0  0  0  0  0  0  0  0  0  0  0
   17.4536  -25.6045   -6.1248 C   0  0  0  0  0  0  0  0  0  0  0  0
   16.4151  -26.3211   -6.3557 N   0  0  0  0  0  0  0  0  0  0  0  0
   17.5835  -24.3555   -6.7636 N   0  0  0  0  0  0  0  0  0  0  0  0
   18.6632  -23.4486   -6.5542 C   0  0  0  0  0  0  0  0  0  0  0  0
   19.2616  -22.8872   -7.8063 C   0  0  0  0  0  0  0  0  0  0  0  0
   20.7551  -22.6146   -7.6475 C   0  0  0  0  0  0  0  0  0  0  0  0
   21.2358  -22.0362   -8.9484 C   0  0  2  0  0  0  0  0  0  0  0  0
   22.6425  -21.8302   -9.0150 N   0  0  0  0  0  0  0  0  0  0  0  0
   20.5534  -20.7478   -9.2042 C   0  0  0  0  0  0  0  0  0  0  0  0
   19.5249  -20.6848  -10.1279 O   0  0  0  0  0  0  0  0  0  0  0  0
   20.8589  -19.6731   -8.6164 O   0  0  0  0  0  0  0  0  0  0  0  0
  2  8  1  0
  2  1  1  6
  3  2  1  0
  4  5  1  0
  4  3  1  0
  5  6  1  0
  7  6  1  0
  8  9  2  0
 11 13  1  0
 11 10  1  1
 12 11  1  0
 14 13  1  1
 15 14  1  0
 15  8  1  0
 16 14  1  0
 16 17  2  0
 19 18  1  0
 20 19  2  0
 21 19  1  0
 22 21  1  0
 23 22  1  0
 23 24  1  0
 25 24  1  1
 25 26  1  0
 25 27  1  0
 26 16  1  0
 27 28  1  0
 29 27  2  0
M  END
$$$$
