KLR.pdb
     RDKit          3D

 29 28  0  0  1  0  0  0  0  0999 V2000
   19.7303  -21.0454  -11.3892 N   0  0  0  0  0  0  0  0  0  0  0  0
   20.3792  -21.4297  -12.6087 C   0  0  1  0  0  0  0  0  0  0  0  0
   19.4811  -21.1554  -13.8233 C   0  0  0  0  0  0  0  0  0  0  0  0
   18.9291  -22.4502  -14.3349 C   0  0  0  0  0  0  0  0  0  0  0  0
   19.7554  -23.6538  -14.0652 C   0  0  0  0  0  0  0  0  0  0  0  0
   19.2377  -24.9480  -14.5980 C   0  0  0  0  0  0  0  0  0  0  0  0
   17.9143  -25.2992  -14.1900 N   0  0  0  0  0  0  0  0  0  0  0  0
   21.6591  -20.7327  -12.7956 C   0  0  0  0  0  0  0  0  0  0  0  0
   21.6982  -19.4793  -12.8877 O   0  0  0  0  0  0  0  0  0  0  0  0
   27.7324  -21.6790  -12.3211 C   0  0  0  0  0  0  0  0  0  0  0  0
   26.6776  -20.8267  -13.0519 C   0  0  2  0  0  0  0  0  0  0  0  0
   26.9671  -19.3966  -12.7158 C   0  0  0  0  0  0  0  0  0  0  0  0
   25.3542  -21.3359  -12.5767 C   0  0  0  0  0  0  0  0  0  0  0  0
   24.1510  -20.7496  -13.2127 C   0  0  2  0  0  0  0  0  0  0  0  0
   22.9137  -21.4225  -12.8827 N   0  0  0  0  0  0  0  0  0  0  0  0
   24.3307  -20.6661  -14.6940 C   0  0  0  0  0  0  0  0  0  0  0  0
   24.2846  -21.6944  -15.4005 O   0  0  0  0  0  0  0  0  0  0  0  0
   19.1087  -18.3600  -15.1577 N   0  0  0  0  0  0  0  0  0  0  0  0
   20.1796  -17.5040  -14.7254 C   0  0  0  0  0  0  0  0  0  0  0  0
   20.1435  -17.0070  -13.5435 N   0  0  0  0  0  0  0  0  0  0  0  0
   21.2661  -17.1967  -15.5681 N   0  0  0  0  0  0  0  0  0  0  0  0
   21.3853  -17.6251  -16.9225 C   0  0  0  0  0  0  0  0  0  0  0  0
   22.3645  -18.7354  -17.1445 C   0  0  0  0  0  0  0  0  0  0  0  0
   23.7870  -18.2098  -17.3190 C   0  0  0  0  0  0  0  0  0  0  0  0
   24.7099  -19.2392  -16.7305 C   0  0  2  0  0  0  0  0  0  0  0  0
   24.5548  -19.4340  -15.3292 N   0  0  0  0  0  0  0  0  0  0  0  0
   26.1153  -18.8653  -17.0065 C   0  0  0  0  0  0  0  0  0  0  0  0
   26.8066  -19.4920  -18.0285 O   0  0  0  0  0  0  0  0  0  0  0  0
   26.7403  -17.9865  -16.3501 O   0  0  0  0  0  0  0  0  0  0  0  0
  2  8  1  0
  2  1  1  1
  3  2  1  0
  4  5  1  0
  4  3  1  0
  5  6  1  0
  7  6  1  0
  8  9  2  0
 11 13  1  0
 11 10  1  1
 12 11  1  0
 14 13  1  1
 15 14  1  0
 15  8  1  0
 16 14  1  0
 16 17  2  0
 19 18  1  0
 20 19  2  0
 21 19  1  0
 22 21  1  0
 23 22  1  0
 23 24  1  0
 25 24  1  1
 25 26  1  0
 25 27  1  0
 26 16  1  0
 27 28  1  0
 29 27  2  0
M  END
$$$$
