KLR.pdb
     RDKit          3D

 29 28  0  0  1  0  0  0  0  0999 V2000
   27.9089  -21.8547  -16.1877 N   0  0  0  0  0  0  0  0  0  0  0  0
   27.9741  -20.8956  -15.1239 C   0  0  1  0  0  0  0  0  0  0  0  0
   27.7874  -19.4672  -15.6549 C   0  0  0  0  0  0  0  0  0  0  0  0
   26.7442  -19.4695  -16.7295 C   0  0  0  0  0  0  0  0  0  0  0  0
   26.4792  -18.1577  -17.3724 C   0  0  0  0  0  0  0  0  0  0  0  0
   25.4125  -18.1327  -18.4156 C   0  0  0  0  0  0  0  0  0  0  0  0
   25.1960  -16.8700  -19.0480 N   0  0  0  0  0  0  0  0  0  0  0  0
   26.9663  -21.1536  -14.0864 C   0  0  0  0  0  0  0  0  0  0  0  0
   25.8949  -21.7484  -14.3682 O   0  0  0  0  0  0  0  0  0  0  0  0
   26.0028  -19.8417   -8.0793 C   0  0  0  0  0  0  0  0  0  0  0  0
   25.4353  -20.5841   -9.3038 C   0  0  2  0  0  0  0  0  0  0  0  0
   25.1441  -21.9857   -8.8647 C   0  0  0  0  0  0  0  0  0  0  0  0
   26.4786  -20.4552  -10.3675 C   0  0  0  0  0  0  0  0  0  0  0  0
   26.1158  -20.9516  -11.7158 C   0  0  2  0  0  0  0  0  0  0  0  0
   27.1378  -20.7523  -12.7200 N   0  0  0  0  0  0  0  0  0  0  0  0
   24.8158  -20.3617  -12.1578 C   0  0  0  0  0  0  0  0  0  0  0  0
   24.7331  -19.1520  -12.4551 O   0  0  0  0  0  0  0  0  0  0  0  0
   19.9561  -20.0001  -18.5527 N   0  0  0  0  0  0  0  0  0  0  0  0
   21.2997  -20.5073  -18.4902 C   0  0  0  0  0  0  0  0  0  0  0  0
   22.0762  -20.3443  -19.4979 N   0  0  0  0  0  0  0  0  0  0  0  0
   21.7833  -21.1799  -17.3506 N   0  0  0  0  0  0  0  0  0  0  0  0
   21.0331  -21.3909  -16.1569 C   0  0  0  0  0  0  0  0  0  0  0  0
   21.5228  -20.6274  -14.9660 C   0  0  0  0  0  0  0  0  0  0  0  0
   21.7594  -21.5405  -13.7659 C   0  0  0  0  0  0  0  0  0  0  0  0
   22.3799  -20.6964  -12.6886 C   0  0  2  0  0  0  0  0  0  0  0  0
   23.6565  -21.1486  -12.2510 N   0  0  0  0  0  0  0  0  0  0  0  0
   21.4722  -20.6308  -11.5212 C   0  0  0  0  0  0  0  0  0  0  0  0
   20.3296  -19.8522  -11.5802 O   0  0  0  0  0  0  0  0  0  0  0  0
   21.6804  -21.2576  -10.4453 O   0  0  0  0  0  0  0  0  0  0  0  0
  2  8  1  0
  2  1  1  6
  3  2  1  0
  4  5  1  0
  4  3  1  0
  5  6  1  0
  7  6  1  0
  8  9  2  0
 11 13  1  0
 11 10  1  1
 12 11  1  0
 14 13  1  1
 15 14  1  0
 15  8  1  0
 16 14  1  0
 16 17  2  0
 19 18  1  0
 20 19  2  0
 21 19  1  0
 22 21  1  0
 23 22  1  0
 23 24  1  0
 25 24  1  6
 25 26  1  0
 25 27  1  0
 26 16  1  0
 27 28  1  0
 29 27  2  0
M  END
$$$$
