KLR.pdb
     RDKit          3D

 29 28  0  0  1  0  0  0  0  0999 V2000
   21.2618  -13.9239  -16.3117 N   0  0  0  0  0  0  0  0  0  0  0  0
   20.6986  -12.6342  -16.5857 C   0  0  1  0  0  0  0  0  0  0  0  0
   19.1775  -12.6393  -16.3771 C   0  0  0  0  0  0  0  0  0  0  0  0
   18.5699  -13.7462  -17.1824 C   0  0  0  0  0  0  0  0  0  0  0  0
   17.1056  -13.9308  -17.0212 C   0  0  0  0  0  0  0  0  0  0  0  0
   16.4707  -14.9798  -17.8717 C   0  0  0  0  0  0  0  0  0  0  0  0
   15.0817  -15.2130  -17.6316 N   0  0  0  0  0  0  0  0  0  0  0  0
   21.2909  -11.5841  -15.7458 C   0  0  0  0  0  0  0  0  0  0  0  0
   20.9338  -11.4446  -14.5483 O   0  0  0  0  0  0  0  0  0  0  0  0
   25.4641  -10.5264  -14.4930 C   0  0  0  0  0  0  0  0  0  0  0  0
   25.2270  -10.0611  -15.9421 C   0  0  2  0  0  0  0  0  0  0  0  0
   26.5309   -9.5219  -16.4433 C   0  0  0  0  0  0  0  0  0  0  0  0
   24.1149   -9.0644  -15.8643 C   0  0  0  0  0  0  0  0  0  0  0  0
   22.7937   -9.5774  -15.4316 C   0  0  2  0  0  0  0  0  0  0  0  0
   22.2895  -10.6745  -16.2284 N   0  0  0  0  0  0  0  0  0  0  0  0
   21.7965   -8.4661  -15.3678 C   0  0  0  0  0  0  0  0  0  0  0  0
   21.2046   -8.0812  -16.3974 O   0  0  0  0  0  0  0  0  0  0  0  0
   16.0032   -7.5413   -9.3842 N   0  0  0  0  0  0  0  0  0  0  0  0
   15.7630   -7.5452  -10.8015 C   0  0  0  0  0  0  0  0  0  0  0  0
   14.5825   -7.7989  -11.2342 N   0  0  0  0  0  0  0  0  0  0  0  0
   16.7922   -7.2788  -11.7261 N   0  0  0  0  0  0  0  0  0  0  0  0
   17.5326   -6.0620  -11.7837 C   0  0  0  0  0  0  0  0  0  0  0  0
   18.4892   -5.9645  -12.9309 C   0  0  0  0  0  0  0  0  0  0  0  0
   19.4617   -7.1408  -12.9592 C   0  0  0  0  0  0  0  0  0  0  0  0
   20.5230   -6.8079  -13.9694 C   0  0  2  0  0  0  0  0  0  0  0  0
   21.4989   -7.8274  -14.1532 N   0  0  0  0  0  0  0  0  0  0  0  0
   21.2100   -5.5566  -13.5776 C   0  0  0  0  0  0  0  0  0  0  0  0
   20.5087   -4.3636  -13.5564 O   0  0  0  0  0  0  0  0  0  0  0  0
   22.4288   -5.5076  -13.2525 O   0  0  0  0  0  0  0  0  0  0  0  0
  2  8  1  0
  2  1  1  1
  3  2  1  0
  4  5  1  0
  4  3  1  0
  5  6  1  0
  7  6  1  0
  8  9  2  0
 11 13  1  0
 11 10  1  1
 12 11  1  0
 14 13  1  6
 15 14  1  0
 15  8  1  0
 16 14  1  0
 16 17  2  0
 19 18  1  0
 20 19  2  0
 21 19  1  0
 22 21  1  0
 23 22  1  0
 23 24  1  0
 25 24  1  1
 25 26  1  0
 25 27  1  0
 26 16  1  0
 27 28  1  0
 29 27  2  0
M  END
$$$$
