KLR.pdb
     RDKit          3D

 29 28  0  0  1  0  0  0  0  0999 V2000
   20.9160  -19.3984   -9.3203 N   0  0  0  0  0  0  0  0  0  0  0  0
   21.7477  -20.5335   -9.0455 C   0  0  1  0  0  0  0  0  0  0  0  0
   21.2215  -21.7894   -9.7547 C   0  0  0  0  0  0  0  0  0  0  0  0
   19.8680  -22.1342   -9.2143 C   0  0  0  0  0  0  0  0  0  0  0  0
   19.7642  -23.4462   -8.5271 C   0  0  0  0  0  0  0  0  0  0  0  0
   18.4451  -23.7696   -7.9088 C   0  0  0  0  0  0  0  0  0  0  0  0
   18.3949  -24.9856   -7.1604 N   0  0  0  0  0  0  0  0  0  0  0  0
   23.1418  -20.3066   -9.4505 C   0  0  0  0  0  0  0  0  0  0  0  0
   23.4076  -19.7448  -10.5436 O   0  0  0  0  0  0  0  0  0  0  0  0
   26.6213  -18.4502   -7.0499 C   0  0  0  0  0  0  0  0  0  0  0  0
   26.4282  -19.9339   -6.6835 C   0  0  2  0  0  0  0  0  0  0  0  0
   27.4159  -20.2455   -5.6021 C   0  0  0  0  0  0  0  0  0  0  0  0
   26.6236  -20.6888   -7.9595 C   0  0  0  0  0  0  0  0  0  0  0  0
   25.6294  -20.4475   -9.0316 C   0  0  2  0  0  0  0  0  0  0  0  0
   24.2594  -20.7026   -8.6434 N   0  0  0  0  0  0  0  0  0  0  0  0
   25.9858  -21.2218  -10.2591 C   0  0  0  0  0  0  0  0  0  0  0  0
   26.0465  -22.4685  -10.2311 O   0  0  0  0  0  0  0  0  0  0  0  0
   22.0485  -21.2621  -17.8725 N   0  0  0  0  0  0  0  0  0  0  0  0
   21.9305  -21.7058  -16.5102 C   0  0  0  0  0  0  0  0  0  0  0  0
   20.7794  -22.0538  -16.0643 N   0  0  0  0  0  0  0  0  0  0  0  0
   23.0473  -21.7661  -15.6534 N   0  0  0  0  0  0  0  0  0  0  0  0
   24.3473  -21.2836  -15.9841 C   0  0  0  0  0  0  0  0  0  0  0  0
   25.4066  -21.5938  -14.9728 C   0  0  0  0  0  0  0  0  0  0  0  0
   25.1747  -20.8467  -13.6621 C   0  0  0  0  0  0  0  0  0  0  0  0
   26.3195  -21.1922  -12.7521 C   0  0  2  0  0  0  0  0  0  0  0  0
   26.2605  -20.5712  -11.4729 N   0  0  0  0  0  0  0  0  0  0  0  0
   27.5995  -20.8273  -13.3999 C   0  0  0  0  0  0  0  0  0  0  0  0
   28.4252  -19.8856  -12.8112 O   0  0  0  0  0  0  0  0  0  0  0  0
   27.9964  -21.3350  -14.4854 O   0  0  0  0  0  0  0  0  0  0  0  0
  2  8  1  0
  2  1  1  6
  3  2  1  0
  4  5  1  0
  4  3  1  0
  5  6  1  0
  7  6  1  0
  8  9  2  0
 11 13  1  0
 11 10  1  6
 12 11  1  0
 14 13  1  1
 15 14  1  0
 15  8  1  0
 16 14  1  0
 16 17  2  0
 19 18  1  0
 20 19  2  0
 21 19  1  0
 22 21  1  0
 23 22  1  0
 23 24  1  0
 25 24  1  6
 25 26  1  0
 25 27  1  0
 26 16  1  0
 27 28  1  0
 29 27  2  0
M  END
$$$$
