KLR.pdb
     RDKit          3D

 29 28  0  0  1  0  0  0  0  0999 V2000
   28.3349  -21.4994  -17.0028 N   0  0  0  0  0  0  0  0  0  0  0  0
   28.3106  -20.4319  -16.0458 C   0  0  1  0  0  0  0  0  0  0  0  0
   27.3027  -19.3476  -16.4523 C   0  0  0  0  0  0  0  0  0  0  0  0
   27.7510  -18.7069  -17.7296 C   0  0  0  0  0  0  0  0  0  0  0  0
   28.9065  -17.7817  -17.6149 C   0  0  0  0  0  0  0  0  0  0  0  0
   29.3295  -17.0889  -18.8671 C   0  0  0  0  0  0  0  0  0  0  0  0
   30.4224  -16.1788  -18.7309 N   0  0  0  0  0  0  0  0  0  0  0  0
   27.9789  -20.9088  -14.6962 C   0  0  0  0  0  0  0  0  0  0  0  0
   27.0441  -21.7308  -14.5194 O   0  0  0  0  0  0  0  0  0  0  0  0
   30.4843  -22.7729  -11.2226 C   0  0  0  0  0  0  0  0  0  0  0  0
   30.6899  -21.2555  -11.3898 C   0  0  2  0  0  0  0  0  0  0  0  0
   31.7492  -20.8510  -10.4120 C   0  0  0  0  0  0  0  0  0  0  0  0
   29.3452  -20.6428  -11.1596 C   0  0  0  0  0  0  0  0  0  0  0  0
   28.3137  -20.9004  -12.1919 C   0  0  2  0  0  0  0  0  0  0  0  0
   28.6840  -20.4762  -13.5244 N   0  0  0  0  0  0  0  0  0  0  0  0
   27.0073  -20.2978  -11.7874 C   0  0  0  0  0  0  0  0  0  0  0  0
   26.7981  -19.0753  -11.9294 O   0  0  0  0  0  0  0  0  0  0  0  0
   19.9525  -21.9511  -15.2760 N   0  0  0  0  0  0  0  0  0  0  0  0
   20.0212  -21.9215  -13.8404 C   0  0  0  0  0  0  0  0  0  0  0  0
   19.0199  -22.3428  -13.1585 N   0  0  0  0  0  0  0  0  0  0  0  0
   21.1600  -21.4400  -13.1649 N   0  0  0  0  0  0  0  0  0  0  0  0
   22.3324  -20.9453  -13.8073 C   0  0  0  0  0  0  0  0  0  0  0  0
   23.3556  -20.3635  -12.8823 C   0  0  0  0  0  0  0  0  0  0  0  0
   23.5625  -21.2351  -11.6463 C   0  0  0  0  0  0  0  0  0  0  0  0
   24.6906  -20.6248  -10.8635 C   0  0  2  0  0  0  0  0  0  0  0  0
   25.9832  -21.0870  -11.2393 N   0  0  0  0  0  0  0  0  0  0  0  0
   24.4936  -20.8840   -9.4195 C   0  0  0  0  0  0  0  0  0  0  0  0
   23.3890  -20.3608   -8.7704 O   0  0  0  0  0  0  0  0  0  0  0  0
   25.2916  -21.5713   -8.7236 O   0  0  0  0  0  0  0  0  0  0  0  0
  2  8  1  0
  2  1  1  6
  3  2  1  0
  4  5  1  0
  4  3  1  0
  5  6  1  0
  7  6  1  0
  8  9  2  0
 11 13  1  0
 11 10  1  1
 12 11  1  0
 14 13  1  1
 15 14  1  0
 15  8  1  0
 16 14  1  0
 16 17  2  0
 19 18  1  0
 20 19  2  0
 21 19  1  0
 22 21  1  0
 23 22  1  0
 23 24  1  0
 25 24  1  6
 25 26  1  0
 25 27  1  0
 26 16  1  0
 27 28  1  0
 29 27  2  0
M  END
$$$$
