KLR.pdb
     RDKit          3D

 29 28  0  0  1  0  0  0  0  0999 V2000
   24.5013  -18.8049  -14.8948 N   0  0  0  0  0  0  0  0  0  0  0  0
   24.0530  -20.1665  -14.8656 C   0  0  1  0  0  0  0  0  0  0  0  0
   24.8440  -21.0306  -15.8579 C   0  0  0  0  0  0  0  0  0  0  0  0
   25.0013  -20.2867  -17.1482 C   0  0  0  0  0  0  0  0  0  0  0  0
   26.3920  -20.1572  -17.6515 C   0  0  0  0  0  0  0  0  0  0  0  0
   26.5661  -19.4304  -18.9432 C   0  0  0  0  0  0  0  0  0  0  0  0
   25.4062  -19.3611  -19.7744 N   0  0  0  0  0  0  0  0  0  0  0  0
   24.1671  -20.7560  -13.5245 C   0  0  0  0  0  0  0  0  0  0  0  0
   23.9426  -21.9796  -13.3417 O   0  0  0  0  0  0  0  0  0  0  0  0
   26.6364  -19.4617   -8.0240 C   0  0  0  0  0  0  0  0  0  0  0  0
   25.6904  -20.4328   -8.7554 C   0  0  2  0  0  0  0  0  0  0  0  0
   26.2537  -21.8079   -8.5715 C   0  0  0  0  0  0  0  0  0  0  0  0
   25.6396  -19.9508  -10.1701 C   0  0  0  0  0  0  0  0  0  0  0  0
   24.6162  -20.5696  -11.0451 C   0  0  2  0  0  0  0  0  0  0  0  0
   24.5329  -19.9903  -12.3680 N   0  0  0  0  0  0  0  0  0  0  0  0
   23.2800  -20.5580  -10.3760 C   0  0  0  0  0  0  0  0  0  0  0  0
   22.6951  -19.4807  -10.1392 O   0  0  0  0  0  0  0  0  0  0  0  0
   17.8688  -25.7657   -6.5778 N   0  0  0  0  0  0  0  0  0  0  0  0
   16.9092  -24.8699   -7.1635 C   0  0  0  0  0  0  0  0  0  0  0  0
   15.7607  -24.7353   -6.6086 N   0  0  0  0  0  0  0  0  0  0  0  0
   17.1987  -24.1379   -8.3320 N   0  0  0  0  0  0  0  0  0  0  0  0
   18.4439  -24.1797   -9.0247 C   0  0  0  0  0  0  0  0  0  0  0  0
   19.3524  -23.0218   -8.7507 C   0  0  0  0  0  0  0  0  0  0  0  0
   20.6371  -23.1033   -9.5709 C   0  0  0  0  0  0  0  0  0  0  0  0
   21.4197  -21.8528   -9.2850 C   0  0  2  0  0  0  0  0  0  0  0  0
   22.6480  -21.7534   -9.9971 N   0  0  0  0  0  0  0  0  0  0  0  0
   21.7015  -21.7611   -7.8347 C   0  0  0  0  0  0  0  0  0  0  0  0
   20.7576  -21.2145   -6.9830 O   0  0  0  0  0  0  0  0  0  0  0  0
   22.7784  -22.1613   -7.3113 O   0  0  0  0  0  0  0  0  0  0  0  0
  2  8  1  0
  2  1  1  1
  3  2  1  0
  4  5  1  0
  4  3  1  0
  5  6  1  0
  7  6  1  0
  8  9  2  0
 11 13  1  0
 11 10  1  1
 12 11  1  0
 14 13  1  1
 15 14  1  0
 15  8  1  0
 16 14  1  0
 16 17  2  0
 19 18  1  0
 20 19  2  0
 21 19  1  0
 22 21  1  0
 23 22  1  0
 23 24  1  0
 25 24  1  1
 25 26  1  0
 25 27  1  0
 26 16  1  0
 27 28  1  0
 29 27  2  0
M  END
$$$$
