EPI.pdb
     RDKit          3D

 25 25  0  0  1  0  0  0  0  0999 V2000
   11.1413  -17.5026   18.9520 N   0  0  0  0  0  0  0  0  0  0  0  0
    9.8633  -17.2667   19.4994 C   0  0  1  0  0  0  0  0  0  0  0  0
    8.9456  -18.4566   19.5892 C   0  0  0  0  0  0  0  0  0  0  0  0
    8.9989  -19.2559   20.8290 C   0  0  0  0  0  0  0  0  0  0  0  0
    8.0041  -20.3249   20.9409 C   0  0  0  0  0  0  0  0  0  0  0  0
    7.6574  -20.9211   19.8658 O   0  0  0  0  0  0  0  0  0  0  0  0
    9.7594  -16.3758   20.6615 C   0  0  0  0  0  0  0  0  0  0  0  0
   10.9044  -16.0968   21.2050 O   0  0  0  0  0  0  0  0  0  0  0  0
    7.3903  -20.7713   22.0920 O   0  0  0  0  0  0  0  0  0  0  0  0
    8.6486  -15.7956   21.2654 N   0  0  0  0  0  0  0  0  0  0  0  0
    7.2635  -15.9747   20.9703 C   0  0  0  0  0  0  0  0  0  0  0  0
    6.6197  -14.6785   21.4147 C   0  0  0  0  0  0  0  0  0  0  0  0
    7.7015  -13.8430   22.0209 C   0  0  0  0  0  0  0  0  0  0  0  0
    8.7166  -14.8875   22.3990 C   0  0  1  0  0  0  0  0  0  0  0  0
    8.3212  -15.5477   23.6581 C   0  0  0  0  0  0  0  0  0  0  0  0
    7.7977  -16.6723   23.7706 O   0  0  0  0  0  0  0  0  0  0  0  0
   10.3606  -14.0570   29.3365 C   0  0  0  0  0  0  0  0  0  0  0  0
   10.2169  -15.1060   28.2482 C   0  0  0  0  0  0  0  0  0  0  0  0
    9.6243  -14.4011   27.0324 C   0  0  2  0  0  0  0  0  0  0  0  0
    8.3253  -13.7424   27.4604 C   0  0  0  0  0  0  0  0  0  0  0  0
    9.3814  -15.4068   25.9159 C   0  0  2  0  0  0  0  0  0  0  0  0
    8.5648  -14.8234   24.8643 N   0  0  0  0  0  0  0  0  0  0  0  0
    8.5598  -16.5132   26.5300 C   0  0  0  0  0  0  0  0  0  0  0  0
    9.1563  -17.5432   27.2427 O   0  0  0  0  0  0  0  0  0  0  0  0
    7.3085  -16.5398   26.4172 O   0  0  0  0  0  0  0  0  0  0  0  0
  2  7  1  0
  2  1  1  1
  3  2  1  0
  4  3  1  0
  5  9  1  0
  5  4  1  0
  6  5  2  0
  7  8  2  0
 10 14  1  0
 10  7  1  0
 11 10  1  0
 12 11  1  0
 12 13  1  0
 13 14  1  0
 15 22  1  0
 14 15  1  1
 16 15  2  0
 17 18  1  0
 19 18  1  0
 19 20  1  1
 21 22  1  6
 21 19  1  0
 23 21  1  0
 24 23  1  0
 25 23  2  0
M  END
$$$$
