EPI.pdb
     RDKit          3D

 25 25  0  0  1  0  0  0  0  0999 V2000
   11.9731  -15.9416   18.8804 N   0  0  0  0  0  0  0  0  0  0  0  0
   10.7433  -16.3169   19.4597 C   0  0  1  0  0  0  0  0  0  0  0  0
   10.4336  -17.7900   19.4725 C   0  0  0  0  0  0  0  0  0  0  0  0
   11.3404  -18.6620   20.2446 C   0  0  0  0  0  0  0  0  0  0  0  0
   10.7835  -19.9511   20.6605 C   0  0  0  0  0  0  0  0  0  0  0  0
   10.7072  -20.1822   21.9144 O   0  0  0  0  0  0  0  0  0  0  0  0
   10.3157  -15.6322   20.6857 C   0  0  0  0  0  0  0  0  0  0  0  0
   11.2766  -15.0038   21.2908 O   0  0  0  0  0  0  0  0  0  0  0  0
   10.3220  -20.9597   19.8415 O   0  0  0  0  0  0  0  0  0  0  0  0
    9.0674  -15.5537   21.2946 N   0  0  0  0  0  0  0  0  0  0  0  0
    7.8342  -16.1599   20.9080 C   0  0  0  0  0  0  0  0  0  0  0  0
    6.7751  -15.2340   21.4676 C   0  0  0  0  0  0  0  0  0  0  0  0
    7.4925  -14.1621   22.2242 C   0  0  0  0  0  0  0  0  0  0  0  0
    8.8051  -14.8319   22.5293 C   0  0  1  0  0  0  0  0  0  0  0  0
    8.6544  -15.7443   23.6793 C   0  0  0  0  0  0  0  0  0  0  0  0
    8.5865  -16.9871   23.6332 O   0  0  0  0  0  0  0  0  0  0  0  0
   10.3028  -13.9290   29.3799 C   0  0  0  0  0  0  0  0  0  0  0  0
   10.3942  -14.9787   28.2866 C   0  0  0  0  0  0  0  0  0  0  0  0
    9.5461  -14.4772   27.1224 C   0  0  2  0  0  0  0  0  0  0  0  0
    8.1457  -14.2109   27.6442 C   0  0  0  0  0  0  0  0  0  0  0  0
    9.5231  -15.5166   26.0106 C   0  0  2  0  0  0  0  0  0  0  0  0
    8.5802  -15.1394   24.9705 N   0  0  0  0  0  0  0  0  0  0  0  0
    8.9843  -16.7785   26.6380 C   0  0  0  0  0  0  0  0  0  0  0  0
    9.8143  -17.6540   27.3230 O   0  0  0  0  0  0  0  0  0  0  0  0
    7.7666  -17.0796   26.5616 O   0  0  0  0  0  0  0  0  0  0  0  0
  2  7  1  0
  2  1  1  1
  3  2  1  0
  4  3  1  0
  5  9  1  0
  5  4  1  0
  6  5  2  0
  7  8  2  0
 10 14  1  0
 10  7  1  0
 11 10  1  0
 12 11  1  0
 12 13  1  0
 13 14  1  0
 15 22  1  0
 14 15  1  1
 16 15  2  0
 17 18  1  0
 19 18  1  0
 19 20  1  1
 21 22  1  6
 21 19  1  0
 23 21  1  0
 24 23  1  0
 25 23  2  0
M  END
$$$$
