EPI.pdb
     RDKit          3D

 25 25  0  0  1  0  0  0  0  0999 V2000
   11.9820  -17.2518   19.5818 N   0  0  0  0  0  0  0  0  0  0  0  0
   10.5816  -17.2609   19.7480 C   0  0  1  0  0  0  0  0  0  0  0  0
    9.9270  -18.6145   19.8209 C   0  0  0  0  0  0  0  0  0  0  0  0
   10.3571  -19.5125   20.9106 C   0  0  0  0  0  0  0  0  0  0  0  0
    9.6024  -20.7608   21.0426 C   0  0  0  0  0  0  0  0  0  0  0  0
   10.0058  -21.6031   21.9139 O   0  0  0  0  0  0  0  0  0  0  0  0
    9.9857  -16.2873   20.6709 C   0  0  0  0  0  0  0  0  0  0  0  0
   10.8570  -15.6756   21.4131 O   0  0  0  0  0  0  0  0  0  0  0  0
    8.4867  -21.1368   20.3250 O   0  0  0  0  0  0  0  0  0  0  0  0
    8.6585  -15.9241   20.8763 N   0  0  0  0  0  0  0  0  0  0  0  0
    7.4709  -16.4917   20.3239 C   0  0  0  0  0  0  0  0  0  0  0  0
    6.4767  -15.3500   20.3316 C   0  0  0  0  0  0  0  0  0  0  0  0
    7.1593  -14.1854   20.9750 C   0  0  0  0  0  0  0  0  0  0  0  0
    8.2315  -14.8684   21.7803 C   0  0  1  0  0  0  0  0  0  0  0  0
    7.6613  -15.4098   23.0291 C   0  0  0  0  0  0  0  0  0  0  0  0
    7.6158  -16.6090   23.3622 O   0  0  0  0  0  0  0  0  0  0  0  0
    7.1926  -11.4780   27.8203 C   0  0  0  0  0  0  0  0  0  0  0  0
    7.8252  -12.7263   27.2311 C   0  0  0  0  0  0  0  0  0  0  0  0
    7.1579  -12.9628   25.8802 C   0  0  2  0  0  0  0  0  0  0  0  0
    5.6803  -13.2099   26.1251 C   0  0  0  0  0  0  0  0  0  0  0  0
    7.8002  -14.1548   25.1849 C   0  0  2  0  0  0  0  0  0  0  0  0
    7.1090  -14.4624   23.9436 N   0  0  0  0  0  0  0  0  0  0  0  0
    7.5789  -15.3336   26.1002 C   0  0  0  0  0  0  0  0  0  0  0  0
    6.7198  -16.3655   25.7514 O   0  0  0  0  0  0  0  0  0  0  0  0
    8.1644  -15.4210   27.2088 O   0  0  0  0  0  0  0  0  0  0  0  0
  2  7  1  0
  2  1  1  1
  3  2  1  0
  4  3  1  0
  5  9  1  0
  5  4  1  0
  6  5  2  0
  7  8  2  0
 10 14  1  0
 10  7  1  0
 11 10  1  0
 12 11  1  0
 12 13  1  0
 13 14  1  0
 15 22  1  0
 14 15  1  1
 16 15  2  0
 17 18  1  0
 19 18  1  0
 19 20  1  1
 21 22  1  6
 21 19  1  0
 23 21  1  0
 24 23  1  0
 25 23  2  0
M  END
$$$$
