EPI.pdb
     RDKit          3D

 25 25  0  0  1  0  0  0  0  0999 V2000
   11.8161  -16.8277   19.5801 N   0  0  0  0  0  0  0  0  0  0  0  0
   10.8216  -17.3060   20.4581 C   0  0  1  0  0  0  0  0  0  0  0  0
   11.1089  -18.6160   21.1418 C   0  0  0  0  0  0  0  0  0  0  0  0
   10.1096  -19.1016   22.1136 C   0  0  0  0  0  0  0  0  0  0  0  0
   10.3780  -20.4166   22.6999 C   0  0  0  0  0  0  0  0  0  0  0  0
    9.8007  -21.4258   22.1709 O   0  0  0  0  0  0  0  0  0  0  0  0
   10.1455  -16.3407   21.3333 C   0  0  0  0  0  0  0  0  0  0  0  0
   10.9617  -15.6288   22.0484 O   0  0  0  0  0  0  0  0  0  0  0  0
   11.1974  -20.6962   23.7730 O   0  0  0  0  0  0  0  0  0  0  0  0
    8.7928  -16.0740   21.5186 N   0  0  0  0  0  0  0  0  0  0  0  0
    7.6574  -16.8314   21.1003 C   0  0  0  0  0  0  0  0  0  0  0  0
    6.5577  -15.8008   20.9559 C   0  0  0  0  0  0  0  0  0  0  0  0
    7.1343  -14.4891   21.3840 C   0  0  0  0  0  0  0  0  0  0  0  0
    8.2794  -14.9301   22.2550 C   0  0  1  0  0  0  0  0  0  0  0  0
    7.7833  -15.3129   23.5910 C   0  0  0  0  0  0  0  0  0  0  0  0
    7.5907  -16.4719   24.0042 O   0  0  0  0  0  0  0  0  0  0  0  0
    5.5337  -11.6486   27.1818 C   0  0  0  0  0  0  0  0  0  0  0  0
    5.9583  -12.8198   26.3136 C   0  0  0  0  0  0  0  0  0  0  0  0
    7.4043  -13.1380   26.6795 C   0  0  2  0  0  0  0  0  0  0  0  0
    8.2475  -11.9169   26.3597 C   0  0  0  0  0  0  0  0  0  0  0  0
    7.8842  -14.3505   25.8943 C   0  0  2  0  0  0  0  0  0  0  0  0
    7.4974  -14.2468   24.4969 N   0  0  0  0  0  0  0  0  0  0  0  0
    7.1324  -15.5304   26.4589 C   0  0  0  0  0  0  0  0  0  0  0  0
    7.5524  -16.1642   27.6193 O   0  0  0  0  0  0  0  0  0  0  0  0
    6.1012  -15.9792   25.8980 O   0  0  0  0  0  0  0  0  0  0  0  0
  2  7  1  0
  2  1  1  1
  3  2  1  0
  4  3  1  0
  5  9  1  0
  5  4  1  0
  6  5  2  0
  7  8  2  0
 10 14  1  0
 10  7  1  0
 11 10  1  0
 12 11  1  0
 12 13  1  0
 13 14  1  0
 15 22  1  0
 14 15  1  1
 16 15  2  0
 17 18  1  0
 19 18  1  0
 19 20  1  6
 21 22  1  6
 21 19  1  0
 23 21  1  0
 24 23  1  0
 25 23  2  0
M  END
$$$$
