EPI.pdb
     RDKit          3D

 25 25  0  0  1  0  0  0  0  0999 V2000
   12.1194  -17.0278   19.8215 N   0  0  0  0  0  0  0  0  0  0  0  0
   10.8121  -17.3122   20.2671 C   0  0  1  0  0  0  0  0  0  0  0  0
   10.5692  -18.7081   20.7756 C   0  0  0  0  0  0  0  0  0  0  0  0
   11.0372  -19.8237   19.9298 C   0  0  0  0  0  0  0  0  0  0  0  0
   10.8910  -21.1631   20.5040 C   0  0  0  0  0  0  0  0  0  0  0  0
   11.5353  -21.4169   21.5772 O   0  0  0  0  0  0  0  0  0  0  0  0
   10.1065  -16.2887   21.0477 C   0  0  0  0  0  0  0  0  0  0  0  0
   10.8997  -15.5017   21.7079 O   0  0  0  0  0  0  0  0  0  0  0  0
   10.1234  -22.1980   20.0132 O   0  0  0  0  0  0  0  0  0  0  0  0
    8.7467  -16.0339   21.1935 N   0  0  0  0  0  0  0  0  0  0  0  0
    7.6320  -16.7400   20.6490 C   0  0  0  0  0  0  0  0  0  0  0  0
    6.5415  -15.6940   20.5546 C   0  0  0  0  0  0  0  0  0  0  0  0
    7.0980  -14.4341   21.1370 C   0  0  0  0  0  0  0  0  0  0  0  0
    8.1996  -14.9652   22.0138 C   0  0  1  0  0  0  0  0  0  0  0  0
    7.6395  -15.4748   23.2804 C   0  0  0  0  0  0  0  0  0  0  0  0
    7.5424  -16.6697   23.6183 O   0  0  0  0  0  0  0  0  0  0  0  0
    6.0321  -11.1586   26.3638 C   0  0  0  0  0  0  0  0  0  0  0  0
    7.0686  -12.0643   25.7229 C   0  0  0  0  0  0  0  0  0  0  0  0
    6.9425  -13.4256   26.3989 C   0  0  2  0  0  0  0  0  0  0  0  0
    7.5485  -13.3170   27.7865 C   0  0  0  0  0  0  0  0  0  0  0  0
    7.6607  -14.4841   25.5738 C   0  0  2  0  0  0  0  0  0  0  0  0
    7.1635  -14.4991   24.2079 N   0  0  0  0  0  0  0  0  0  0  0  0
    7.2773  -15.8105   26.1822 C   0  0  0  0  0  0  0  0  0  0  0  0
    6.1266  -16.4781   25.7887 O   0  0  0  0  0  0  0  0  0  0  0  0
    7.9862  -16.3553   27.0654 O   0  0  0  0  0  0  0  0  0  0  0  0
  2  7  1  0
  2  1  1  1
  3  2  1  0
  4  3  1  0
  5  9  1  0
  5  4  1  0
  6  5  2  0
  7  8  2  0
 10 14  1  0
 10  7  1  0
 11 10  1  0
 12 11  1  0
 12 13  1  0
 13 14  1  0
 15 22  1  0
 14 15  1  1
 16 15  2  0
 17 18  1  0
 19 18  1  0
 19 20  1  1
 21 22  1  6
 21 19  1  0
 23 21  1  0
 24 23  1  0
 25 23  2  0
M  END
$$$$
