MVE.pdb
     RDKit          3D

 25 24  0  0  1  0  0  0  0  0999 V2000
    6.5347  -11.1870   26.1980 C   0  0  0  0  0  0  0  0  0  0  0  0
    6.3893  -12.0925   27.7062 S   0  0  0  0  0  0  0  0  0  0  0  0
    6.1685  -13.8488   27.6037 C   0  0  0  0  0  0  0  0  0  0  0  0
    6.1536  -14.3931   26.2395 C   0  0  0  0  0  0  0  0  0  0  0  0
    7.2875  -15.2084   25.7733 C   0  0  2  0  0  0  0  0  0  0  0  0
    8.5969  -14.7993   26.1395 N   0  0  0  0  0  0  0  0  0  0  0  0
    7.1884  -15.4558   24.3204 C   0  0  0  0  0  0  0  0  0  0  0  0
    6.1718  -15.9499   23.7449 O   0  0  0  0  0  0  0  0  0  0  0  0
    8.5071  -14.3425   19.8034 C   0  0  0  0  0  0  0  0  0  0  0  0
    8.4184  -14.1832   21.2983 C   0  0  1  0  0  0  0  0  0  0  0  0
    7.2769  -13.2614   21.6050 C   0  0  0  0  0  0  0  0  0  0  0  0
    8.2577  -15.5033   22.0220 C   0  0  2  0  0  0  0  0  0  0  0  0
    8.2754  -15.1374   23.4530 N   0  0  0  0  0  0  0  0  0  0  0  0
    9.3947  -16.4039   21.7941 C   0  0  0  0  0  0  0  0  0  0  0  0
   10.5598  -16.0185   22.1648 O   0  0  0  0  0  0  0  0  0  0  0  0
    9.3261  -17.6779   21.1957 N   0  0  0  0  0  0  0  0  0  0  0  0
   10.5446  -18.4380   20.9246 C   0  0  1  0  0  0  0  0  0  0  0  0
   10.4878  -19.7330   21.6748 C   0  0  0  0  0  0  0  0  0  0  0  0
   10.3606  -19.6236   23.1521 C   0  0  0  0  0  0  0  0  0  0  0  0
   10.2971  -21.0052   23.7575 C   0  0  0  0  0  0  0  0  0  0  0  0
   10.3128  -22.0110   23.0085 O   0  0  0  0  0  0  0  0  0  0  0  0
   10.7862  -18.5614   19.4805 C   0  0  0  0  0  0  0  0  0  0  0  0
    9.8151  -18.6347   18.6878 O   0  0  0  0  0  0  0  0  0  0  0  0
   10.2212  -21.2136   25.1237 O   0  0  0  0  0  0  0  0  0  0  0  0
   12.0573  -18.5995   18.9494 O   0  0  0  0  0  0  0  0  0  0  0  0
  2  1  1  0
  3  2  1  0
  4  3  1  0
  5  7  1  0
  5  4  1  0
  5  6  1  6
  7  8  2  0
 10 12  1  0
 10  9  1  6
 11 10  1  0
 12 13  1  1
 13  7  1  0
 14 15  2  0
 14 12  1  0
 16 14  1  0
 17 22  1  0
 17 16  1  0
 17 18  1  6
 19 18  1  0
 20 19  1  0
 21 20  2  0
 22 25  1  0
 23 22  2  0
 24 20  1  0
M  END
$$$$
