MVE.pdb
     RDKit          3D

 25 24  0  0  1  0  0  0  0  0999 V2000
    8.3824  -11.1027   27.0725 C   0  0  0  0  0  0  0  0  0  0  0  0
    6.6296  -10.8983   27.0364 S   0  0  0  0  0  0  0  0  0  0  0  0
    5.6613  -12.1587   26.2506 C   0  0  0  0  0  0  0  0  0  0  0  0
    6.4358  -13.2629   25.6688 C   0  0  0  0  0  0  0  0  0  0  0  0
    5.7319  -14.3512   24.9701 C   0  0  2  0  0  0  0  0  0  0  0  0
    4.7648  -15.0937   25.6977 N   0  0  0  0  0  0  0  0  0  0  0  0
    6.6946  -15.2426   24.2913 C   0  0  0  0  0  0  0  0  0  0  0  0
    7.0560  -16.3758   24.7318 O   0  0  0  0  0  0  0  0  0  0  0  0
    9.3840  -15.8289   20.1051 C   0  0  0  0  0  0  0  0  0  0  0  0
    8.4030  -15.0990   20.9844 C   0  0  1  0  0  0  0  0  0  0  0  0
    7.0902  -15.0282   20.2644 C   0  0  0  0  0  0  0  0  0  0  0  0
    8.2402  -15.7430   22.3449 C   0  0  2  0  0  0  0  0  0  0  0  0
    7.2914  -14.8599   23.0533 N   0  0  0  0  0  0  0  0  0  0  0  0
    9.4901  -15.7377   23.1153 C   0  0  0  0  0  0  0  0  0  0  0  0
    9.9505  -14.6117   23.5198 O   0  0  0  0  0  0  0  0  0  0  0  0
   10.2468  -16.8753   23.4604 N   0  0  0  0  0  0  0  0  0  0  0  0
   11.4358  -16.7497   24.3009 C   0  0  1  0  0  0  0  0  0  0  0  0
   11.3542  -17.7497   25.4128 C   0  0  0  0  0  0  0  0  0  0  0  0
   12.5368  -17.8212   26.3111 C   0  0  0  0  0  0  0  0  0  0  0  0
   12.2872  -18.8426   27.3946 C   0  0  0  0  0  0  0  0  0  0  0  0
   11.9293  -20.0031   27.0814 O   0  0  0  0  0  0  0  0  0  0  0  0
   12.6651  -16.8056   23.4979 C   0  0  0  0  0  0  0  0  0  0  0  0
   13.7200  -16.2805   23.9317 O   0  0  0  0  0  0  0  0  0  0  0  0
   12.4385  -18.5499   28.7389 O   0  0  0  0  0  0  0  0  0  0  0  0
   12.7102  -17.4226   22.2665 O   0  0  0  0  0  0  0  0  0  0  0  0
  2  1  1  0
  3  2  1  0
  4  3  1  0
  5  7  1  0
  5  4  1  0
  5  6  1  1
  7  8  2  0
 10 12  1  0
 10  9  1  6
 11 10  1  0
 12 13  1  1
 13  7  1  0
 14 15  2  0
 14 12  1  0
 16 14  1  0
 17 22  1  0
 17 16  1  0
 17 18  1  1
 19 18  1  0
 20 19  1  0
 21 20  2  0
 22 25  1  0
 23 22  2  0
 24 20  1  0
M  END
$$$$
