MVE.pdb
     RDKit          3D

 25 24  0  0  1  0  0  0  0  0999 V2000
    7.0120  -11.2504   26.1933 C   0  0  0  0  0  0  0  0  0  0  0  0
    6.5986  -12.4841   27.3860 S   0  0  0  0  0  0  0  0  0  0  0  0
    6.5153  -14.1702   26.8439 C   0  0  0  0  0  0  0  0  0  0  0  0
    6.0932  -14.3527   25.4489 C   0  0  0  0  0  0  0  0  0  0  0  0
    5.9648  -15.7144   24.9038 C   0  0  2  0  0  0  0  0  0  0  0  0
    5.9093  -16.7965   25.8215 N   0  0  0  0  0  0  0  0  0  0  0  0
    6.9754  -15.9522   23.8531 C   0  0  0  0  0  0  0  0  0  0  0  0
    7.6685  -17.0096   23.7510 O   0  0  0  0  0  0  0  0  0  0  0  0
    8.9281  -14.0702   19.6417 C   0  0  0  0  0  0  0  0  0  0  0  0
    7.9538  -14.0784   20.7901 C   0  0  1  0  0  0  0  0  0  0  0  0
    6.5683  -14.1902   20.2290 C   0  0  0  0  0  0  0  0  0  0  0  0
    8.2262  -15.1868   21.7847 C   0  0  2  0  0  0  0  0  0  0  0  0
    7.2342  -14.9647   22.8565 N   0  0  0  0  0  0  0  0  0  0  0  0
    9.5553  -15.0693   22.3975 C   0  0  0  0  0  0  0  0  0  0  0  0
    9.6615  -14.4253   23.5009 O   0  0  0  0  0  0  0  0  0  0  0  0
   10.7493  -15.6085   21.8787 N   0  0  0  0  0  0  0  0  0  0  0  0
   11.8396  -15.9952   22.7719 C   0  0  1  0  0  0  0  0  0  0  0  0
   11.3339  -17.0160   23.7441 C   0  0  0  0  0  0  0  0  0  0  0  0
   12.3510  -17.6089   24.6522 C   0  0  0  0  0  0  0  0  0  0  0  0
   11.6936  -18.6300   25.5491 C   0  0  0  0  0  0  0  0  0  0  0  0
   11.1445  -19.6374   25.0426 O   0  0  0  0  0  0  0  0  0  0  0  0
   13.0350  -16.3905   22.0145 C   0  0  0  0  0  0  0  0  0  0  0  0
   12.9150  -16.8557   20.8544 O   0  0  0  0  0  0  0  0  0  0  0  0
   11.6701  -18.5013   26.9270 O   0  0  0  0  0  0  0  0  0  0  0  0
   14.3061  -16.2688   22.5328 O   0  0  0  0  0  0  0  0  0  0  0  0
  2  1  1  0
  3  2  1  0
  4  3  1  0
  5  7  1  0
  5  4  1  0
  5  6  1  1
  7  8  2  0
 10 12  1  0
 10  9  1  6
 11 10  1  0
 12 13  1  1
 13  7  1  0
 14 15  2  0
 14 12  1  0
 16 14  1  0
 17 22  1  0
 17 16  1  0
 17 18  1  6
 19 18  1  0
 20 19  1  0
 21 20  2  0
 22 25  1  0
 23 22  2  0
 24 20  1  0
M  END
$$$$
