MVE.pdb
     RDKit          3D

 25 24  0  0  1  0  0  0  0  0999 V2000
    3.5456  -18.4563   22.4463 C   0  0  0  0  0  0  0  0  0  0  0  0
    4.1112  -17.8462   20.8896 S   0  0  0  0  0  0  0  0  0  0  0  0
    5.8514  -17.5751   20.6851 C   0  0  0  0  0  0  0  0  0  0  0  0
    6.4976  -16.8419   21.7816 C   0  0  0  0  0  0  0  0  0  0  0  0
    6.6471  -15.3803   21.6855 C   0  0  2  0  0  0  0  0  0  0  0  0
    6.8637  -14.8161   20.4007 N   0  0  0  0  0  0  0  0  0  0  0  0
    7.6437  -14.8935   22.6611 C   0  0  0  0  0  0  0  0  0  0  0  0
    8.8793  -14.7500   22.4129 O   0  0  0  0  0  0  0  0  0  0  0  0
    7.1019  -11.9361   25.2473 C   0  0  0  0  0  0  0  0  0  0  0  0
    7.4929  -13.2213   25.9282 C   0  0  1  0  0  0  0  0  0  0  0  0
    6.2496  -13.8668   26.4614 C   0  0  0  0  0  0  0  0  0  0  0  0
    8.2443  -14.1661   25.0145 C   0  0  2  0  0  0  0  0  0  0  0  0
    7.2519  -14.5439   23.9876 N   0  0  0  0  0  0  0  0  0  0  0  0
    8.6451  -15.4009   25.7002 C   0  0  0  0  0  0  0  0  0  0  0  0
    7.7656  -16.3194   25.8628 O   0  0  0  0  0  0  0  0  0  0  0  0
    9.9306  -15.6791   26.2061 N   0  0  0  0  0  0  0  0  0  0  0  0
   10.3041  -17.0426   26.5768 C   0  0  1  0  0  0  0  0  0  0  0  0
   11.5058  -17.4515   25.7822 C   0  0  0  0  0  0  0  0  0  0  0  0
   12.0632  -18.7949   26.0910 C   0  0  0  0  0  0  0  0  0  0  0  0
   13.2293  -19.0808   25.1757 C   0  0  0  0  0  0  0  0  0  0  0  0
   14.3991  -19.0116   25.6226 O   0  0  0  0  0  0  0  0  0  0  0  0
   10.4402  -17.1811   28.0333 C   0  0  0  0  0  0  0  0  0  0  0  0
   10.4963  -16.1561   28.7566 O   0  0  0  0  0  0  0  0  0  0  0  0
   13.0614  -19.4211   23.8447 O   0  0  0  0  0  0  0  0  0  0  0  0
   10.5089  -18.4113   28.6507 O   0  0  0  0  0  0  0  0  0  0  0  0
  2  1  1  0
  3  2  1  0
  4  3  1  0
  5  7  1  0
  5  4  1  0
  5  6  1  6
  7  8  2  0
 10 12  1  0
 10  9  1  6
 11 10  1  0
 12 13  1  6
 13  7  1  0
 14 15  2  0
 14 12  1  0
 16 14  1  0
 17 22  1  0
 17 16  1  0
 17 18  1  6
 19 18  1  0
 20 19  1  0
 21 20  2  0
 22 25  1  0
 23 22  2  0
 24 20  1  0
M  END
$$$$
