MVE.pdb
     RDKit          3D

 25 24  0  0  1  0  0  0  0  0999 V2000
    7.3430  -11.3026   26.7824 C   0  0  0  0  0  0  0  0  0  0  0  0
    6.1665  -12.5210   27.2793 S   0  0  0  0  0  0  0  0  0  0  0  0
    6.7693  -14.1311   27.7128 C   0  0  0  0  0  0  0  0  0  0  0  0
    7.4624  -14.8451   26.6323 C   0  0  0  0  0  0  0  0  0  0  0  0
    6.7029  -15.7645   25.7687 C   0  0  2  0  0  0  0  0  0  0  0  0
    6.0801  -16.8867   26.3759 N   0  0  0  0  0  0  0  0  0  0  0  0
    7.5098  -16.1657   24.5983 C   0  0  0  0  0  0  0  0  0  0  0  0
    8.0395  -17.3086   24.4504 O   0  0  0  0  0  0  0  0  0  0  0  0
    9.0636  -14.7163   20.0686 C   0  0  0  0  0  0  0  0  0  0  0  0
    8.2259  -14.5912   21.3138 C   0  0  1  0  0  0  0  0  0  0  0  0
    6.7839  -14.7135   20.9234 C   0  0  0  0  0  0  0  0  0  0  0  0
    8.5888  -15.6114   22.3719 C   0  0  2  0  0  0  0  0  0  0  0  0
    7.7438  -15.2510   23.5287 N   0  0  0  0  0  0  0  0  0  0  0  0
    9.9863  -15.4894   22.8054 C   0  0  0  0  0  0  0  0  0  0  0  0
   10.3439  -14.4178   23.4114 O   0  0  0  0  0  0  0  0  0  0  0  0
   10.9923  -16.4578   22.6159 N   0  0  0  0  0  0  0  0  0  0  0  0
   12.3376  -16.2451   23.1462 C   0  0  1  0  0  0  0  0  0  0  0  0
   12.4958  -17.0397   24.4058 C   0  0  0  0  0  0  0  0  0  0  0  0
   12.1341  -18.4791   24.3163 C   0  0  0  0  0  0  0  0  0  0  0  0
   12.4033  -19.1509   25.6412 C   0  0  0  0  0  0  0  0  0  0  0  0
   11.9521  -18.6441   26.6959 O   0  0  0  0  0  0  0  0  0  0  0  0
   13.3603  -16.4891   22.1197 C   0  0  0  0  0  0  0  0  0  0  0  0
   14.5612  -16.2062   22.3536 O   0  0  0  0  0  0  0  0  0  0  0  0
   13.1375  -20.3197   25.7446 O   0  0  0  0  0  0  0  0  0  0  0  0
   13.0517  -17.0264   20.8888 O   0  0  0  0  0  0  0  0  0  0  0  0
  2  1  1  0
  3  2  1  0
  4  3  1  0
  5  7  1  0
  5  4  1  0
  5  6  1  1
  7  8  2  0
 10 12  1  0
 10  9  1  6
 11 10  1  0
 12 13  1  1
 13  7  1  0
 14 15  2  0
 14 12  1  0
 16 14  1  0
 17 22  1  0
 17 16  1  0
 17 18  1  1
 19 18  1  0
 20 19  1  0
 21 20  2  0
 22 25  1  0
 23 22  2  0
 24 20  1  0
M  END
$$$$
