MVE.pdb
     RDKit          3D

 25 24  0  0  1  0  0  0  0  0999 V2000
    8.2349  -11.3597   27.0645 C   0  0  0  0  0  0  0  0  0  0  0  0
    6.6933  -11.8606   27.7630 S   0  0  0  0  0  0  0  0  0  0  0  0
    5.8802  -13.2703   27.0592 C   0  0  0  0  0  0  0  0  0  0  0  0
    6.6954  -14.0506   26.1189 C   0  0  0  0  0  0  0  0  0  0  0  0
    6.0915  -15.1927   25.4125 C   0  0  2  0  0  0  0  0  0  0  0  0
    5.4854  -16.2129   26.1922 N   0  0  0  0  0  0  0  0  0  0  0  0
    7.0395  -15.7582   24.4309 C   0  0  0  0  0  0  0  0  0  0  0  0
    7.5895  -16.8960   24.5387 O   0  0  0  0  0  0  0  0  0  0  0  0
    9.2428  -14.9204   20.0067 C   0  0  0  0  0  0  0  0  0  0  0  0
    8.2706  -14.5950   21.1099 C   0  0  1  0  0  0  0  0  0  0  0  0
    6.8901  -14.5700   20.5265 C   0  0  0  0  0  0  0  0  0  0  0  0
    8.3508  -15.5651   22.2696 C   0  0  2  0  0  0  0  0  0  0  0  0
    7.3994  -15.0241   23.2618 N   0  0  0  0  0  0  0  0  0  0  0  0
    9.6762  -15.5676   22.9013 C   0  0  0  0  0  0  0  0  0  0  0  0
   10.0393  -14.5277   23.5573 O   0  0  0  0  0  0  0  0  0  0  0  0
   10.6056  -16.6258   22.8555 N   0  0  0  0  0  0  0  0  0  0  0  0
   11.8783  -16.5281   23.5674 C   0  0  1  0  0  0  0  0  0  0  0  0
   11.9695  -17.6476   24.5580 C   0  0  0  0  0  0  0  0  0  0  0  0
   13.2661  -17.7785   25.2736 C   0  0  0  0  0  0  0  0  0  0  0  0
   13.2362  -19.0054   26.1530 C   0  0  0  0  0  0  0  0  0  0  0  0
   12.1662  -19.6458   26.2866 O   0  0  0  0  0  0  0  0  0  0  0  0
   13.0067  -16.4271   22.6315 C   0  0  0  0  0  0  0  0  0  0  0  0
   12.8649  -16.7938   21.4390 O   0  0  0  0  0  0  0  0  0  0  0  0
   14.3550  -19.4614   26.8283 O   0  0  0  0  0  0  0  0  0  0  0  0
   14.2364  -15.9367   23.0142 O   0  0  0  0  0  0  0  0  0  0  0  0
  2  1  1  0
  3  2  1  0
  4  3  1  0
  5  7  1  0
  5  4  1  0
  5  6  1  1
  7  8  2  0
 10 12  1  0
 10  9  1  6
 11 10  1  0
 12 13  1  1
 13  7  1  0
 14 15  2  0
 14 12  1  0
 16 14  1  0
 17 22  1  0
 17 16  1  0
 17 18  1  6
 19 18  1  0
 20 19  1  0
 21 20  2  0
 22 25  1  0
 23 22  2  0
 24 20  1  0
M  END
$$$$
