MVE.pdb
     RDKit          3D

 25 24  0  0  1  0  0  0  0  0999 V2000
    5.7586  -11.9243   28.6570 C   0  0  0  0  0  0  0  0  0  0  0  0
    6.0951  -11.0980   27.1340 S   0  0  0  0  0  0  0  0  0  0  0  0
    7.0538  -11.9580   25.9154 C   0  0  0  0  0  0  0  0  0  0  0  0
    6.5852  -13.3145   25.6022 C   0  0  0  0  0  0  0  0  0  0  0  0
    7.5665  -14.3597   25.2670 C   0  0  2  0  0  0  0  0  0  0  0  0
    8.9377  -14.0917   25.5202 N   0  0  0  0  0  0  0  0  0  0  0  0
    7.3597  -14.8448   23.8871 C   0  0  0  0  0  0  0  0  0  0  0  0
    6.2841  -15.3675   23.4645 O   0  0  0  0  0  0  0  0  0  0  0  0
    8.0908  -14.4842   19.1967 C   0  0  0  0  0  0  0  0  0  0  0  0
    8.2551  -14.1149   20.6475 C   0  0  1  0  0  0  0  0  0  0  0  0
    7.1572  -13.1635   21.0166 C   0  0  0  0  0  0  0  0  0  0  0  0
    8.2585  -15.3196   21.5644 C   0  0  2  0  0  0  0  0  0  0  0  0
    8.4018  -14.7453   22.9179 N   0  0  0  0  0  0  0  0  0  0  0  0
    9.4224  -16.1859   21.3393 C   0  0  0  0  0  0  0  0  0  0  0  0
   10.3024  -15.8126   20.4851 O   0  0  0  0  0  0  0  0  0  0  0  0
    9.6701  -17.4130   21.9865 N   0  0  0  0  0  0  0  0  0  0  0  0
   11.0256  -17.9550   22.0576 C   0  0  1  0  0  0  0  0  0  0  0  0
   11.9572  -16.8778   22.5209 C   0  0  0  0  0  0  0  0  0  0  0  0
   13.3795  -17.2766   22.6899 C   0  0  0  0  0  0  0  0  0  0  0  0
   14.1682  -16.1136   23.2420 C   0  0  0  0  0  0  0  0  0  0  0  0
   14.2692  -15.9673   24.4835 O   0  0  0  0  0  0  0  0  0  0  0  0
   11.0633  -19.1958   22.8438 C   0  0  0  0  0  0  0  0  0  0  0  0
   11.8713  -20.1066   22.5366 O   0  0  0  0  0  0  0  0  0  0  0  0
   14.7942  -15.1877   22.4257 O   0  0  0  0  0  0  0  0  0  0  0  0
   10.2348  -19.4055   23.9249 O   0  0  0  0  0  0  0  0  0  0  0  0
  2  1  1  0
  3  2  1  0
  4  3  1  0
  5  7  1  0
  5  4  1  0
  5  6  1  6
  7  8  2  0
 10 12  1  0
 10  9  1  6
 11 10  1  0
 12 13  1  1
 13  7  1  0
 14 15  2  0
 14 12  1  0
 16 14  1  0
 17 22  1  0
 17 16  1  0
 17 18  1  1
 19 18  1  0
 20 19  1  0
 21 20  2  0
 22 25  1  0
 23 22  2  0
 24 20  1  0
M  END
$$$$
