IQV.pdb
     RDKit          3D

 25 24  0  0  1  0  0  0  0  0999 V2000
    7.6707  -11.9631   19.8978 C   0  0  0  0  0  0  0  0  0  0  0  0
    7.7922  -13.4123   19.5215 C   0  0  0  0  0  0  0  0  0  0  0  0
    8.5167  -14.1563   20.6033 C   0  0  2  0  0  0  0  0  0  0  0  0
    9.8368  -13.4620   20.8242 C   0  0  0  0  0  0  0  0  0  0  0  0
    8.6304  -15.5940   20.2822 C   0  0  2  0  0  0  0  0  0  0  0  0
    7.4664  -16.1239   19.6114 N   0  0  0  0  0  0  0  0  0  0  0  0
    8.9839  -16.4581   21.4084 C   0  0  0  0  0  0  0  0  0  0  0  0
    8.8827  -17.7176   21.3910 O   0  0  0  0  0  0  0  0  0  0  0  0
   11.0062  -20.3242   22.9486 N   0  0  0  0  0  0  0  0  0  0  0  0
   11.1760  -19.5919   24.1562 C   0  0  0  0  0  0  0  0  0  0  0  0
   10.6687  -20.0860   25.2017 O   0  0  0  0  0  0  0  0  0  0  0  0
   11.9194  -18.3124   24.1515 C   0  0  0  0  0  0  0  0  0  0  0  0
   11.3089  -17.4172   23.0950 C   0  0  0  0  0  0  0  0  0  0  0  0
   10.1089  -16.6739   23.6435 C   0  0  2  0  0  0  0  0  0  0  0  0
    9.4708  -15.8775   22.6035 N   0  0  0  0  0  0  0  0  0  0  0  0
   10.4627  -15.8232   24.7859 C   0  0  0  0  0  0  0  0  0  0  0  0
   11.6013  -15.2656   24.8228 O   0  0  0  0  0  0  0  0  0  0  0  0
    8.3270  -13.0230   26.2467 C   0  0  0  0  0  0  0  0  0  0  0  0
    8.7481  -13.9121   27.3701 C   0  0  1  0  0  0  0  0  0  0  0  0
    7.6844  -14.8471   27.8514 C   0  0  0  0  0  0  0  0  0  0  0  0
   10.0034  -14.7184   27.0091 C   0  0  2  0  0  0  0  0  0  0  0  0
    9.6100  -15.5640   25.8884 N   0  0  0  0  0  0  0  0  0  0  0  0
   10.4129  -15.5182   28.1782 C   0  0  0  0  0  0  0  0  0  0  0  0
   10.1931  -16.7438   28.1634 O   0  0  0  0  0  0  0  0  0  0  0  0
   11.0311  -14.9772   29.2961 O   0  0  0  0  0  0  0  0  0  0  0  0
  2  1  1  0
  3  2  1  0
  3  5  1  0
  3  4  1  6
  5  6  1  1
  7  5  1  0
  7  8  2  0
 10  9  1  0
 10 12  1  0
 11 10  2  0
 13 12  1  0
 14 13  1  6
 15 14  1  0
 15  7  1  0
 16 14  1  0
 17 16  2  0
 19 18  1  6
 19 21  1  0
 20 19  1  0
 21 22  1  6
 21 23  1  0
 22 16  1  0
 23 25  1  0
 24 23  2  0
M  END
$$$$
