IQV.pdb
     RDKit          3D

 25 24  0  0  1  0  0  0  0  0999 V2000
    7.7025  -12.2997   18.4123 C   0  0  0  0  0  0  0  0  0  0  0  0
    7.8202  -13.7843   18.6098 C   0  0  0  0  0  0  0  0  0  0  0  0
    7.7385  -14.1076   20.0718 C   0  0  2  0  0  0  0  0  0  0  0  0
    8.8333  -13.3387   20.7673 C   0  0  0  0  0  0  0  0  0  0  0  0
    7.7777  -15.5666   20.3017 C   0  0  2  0  0  0  0  0  0  0  0  0
    6.7915  -16.2927   19.5363 N   0  0  0  0  0  0  0  0  0  0  0  0
    7.7118  -15.9786   21.7038 C   0  0  0  0  0  0  0  0  0  0  0  0
    6.6470  -16.0016   22.3838 O   0  0  0  0  0  0  0  0  0  0  0  0
   12.1672  -19.2501   25.7944 N   0  0  0  0  0  0  0  0  0  0  0  0
   10.7849  -19.5116   25.5842 C   0  0  0  0  0  0  0  0  0  0  0  0
   10.4323  -20.7231   25.5347 O   0  0  0  0  0  0  0  0  0  0  0  0
    9.8305  -18.3906   25.4342 C   0  0  0  0  0  0  0  0  0  0  0  0
    9.8484  -17.9474   23.9874 C   0  0  0  0  0  0  0  0  0  0  0  0
    8.8960  -16.7914   23.7641 C   0  0  2  0  0  0  0  0  0  0  0  0
    8.8959  -16.3805   22.3662 N   0  0  0  0  0  0  0  0  0  0  0  0
    9.2077  -15.6462   24.6275 C   0  0  0  0  0  0  0  0  0  0  0  0
   10.3070  -15.0310   24.4795 O   0  0  0  0  0  0  0  0  0  0  0  0
    7.6089  -12.1429   27.7156 C   0  0  0  0  0  0  0  0  0  0  0  0
    7.4054  -13.2838   26.7739 C   0  0  1  0  0  0  0  0  0  0  0  0
    6.7822  -12.9048   25.4681 C   0  0  0  0  0  0  0  0  0  0  0  0
    8.7177  -14.0344   26.5080 C   0  0  2  0  0  0  0  0  0  0  0  0
    8.3546  -15.1536   25.6470 N   0  0  0  0  0  0  0  0  0  0  0  0
    9.2767  -14.4939   27.7928 C   0  0  0  0  0  0  0  0  0  0  0  0
    9.0368  -15.6595   28.1597 O   0  0  0  0  0  0  0  0  0  0  0  0
   10.0571  -13.6956   28.6162 O   0  0  0  0  0  0  0  0  0  0  0  0
  2  1  1  0
  3  2  1  0
  3  5  1  0
  3  4  1  1
  5  6  1  6
  7  5  1  0
  7  8  2  0
 10  9  1  0
 10 12  1  0
 11 10  2  0
 13 12  1  0
 14 13  1  6
 15 14  1  0
 15  7  1  0
 16 14  1  0
 17 16  2  0
 19 18  1  1
 19 21  1  0
 20 19  1  0
 21 22  1  6
 21 23  1  0
 22 16  1  0
 23 25  1  0
 24 23  2  0
M  END
$$$$
