IQV.pdb
     RDKit          3D

 25 24  0  0  1  0  0  0  0  0999 V2000
    7.9254  -12.3242   18.4253 C   0  0  0  0  0  0  0  0  0  0  0  0
    8.0647  -13.7881   18.7321 C   0  0  0  0  0  0  0  0  0  0  0  0
    7.6451  -14.0498   20.1477 C   0  0  2  0  0  0  0  0  0  0  0  0
    8.5698  -13.2676   21.0459 C   0  0  0  0  0  0  0  0  0  0  0  0
    7.5982  -15.4985   20.4344 C   0  0  2  0  0  0  0  0  0  0  0  0
    6.8218  -16.2467   19.4737 N   0  0  0  0  0  0  0  0  0  0  0  0
    7.1756  -15.8523   21.7895 C   0  0  0  0  0  0  0  0  0  0  0  0
    5.9918  -15.7303   22.2144 O   0  0  0  0  0  0  0  0  0  0  0  0
    7.1866  -20.3394   25.0651 N   0  0  0  0  0  0  0  0  0  0  0  0
    7.2419  -19.4479   26.1721 C   0  0  0  0  0  0  0  0  0  0  0  0
    6.6937  -19.8305   27.2434 O   0  0  0  0  0  0  0  0  0  0  0  0
    7.9194  -18.1390   26.0396 C   0  0  0  0  0  0  0  0  0  0  0  0
    8.2581  -17.9299   24.5796 C   0  0  0  0  0  0  0  0  0  0  0  0
    7.8165  -16.5586   24.1129 C   0  0  2  0  0  0  0  0  0  0  0  0
    8.1275  -16.3642   22.7028 N   0  0  0  0  0  0  0  0  0  0  0  0
    8.4143  -15.4847   24.9151 C   0  0  0  0  0  0  0  0  0  0  0  0
    9.6213  -15.1507   24.7144 O   0  0  0  0  0  0  0  0  0  0  0  0
    6.6528  -12.0676   25.8029 C   0  0  0  0  0  0  0  0  0  0  0  0
    7.2081  -12.7192   27.0264 C   0  0  1  0  0  0  0  0  0  0  0  0
    6.1948  -13.4393   27.8581 C   0  0  0  0  0  0  0  0  0  0  0  0
    8.3533  -13.6811   26.6807 C   0  0  2  0  0  0  0  0  0  0  0  0
    7.7329  -14.7656   25.9291 N   0  0  0  0  0  0  0  0  0  0  0  0
    8.9671  -14.1656   27.9308 C   0  0  0  0  0  0  0  0  0  0  0  0
    9.6135  -13.3584   28.6245 O   0  0  0  0  0  0  0  0  0  0  0  0
    8.8627  -15.4751   28.3764 O   0  0  0  0  0  0  0  0  0  0  0  0
  2  1  1  0
  3  2  1  0
  3  5  1  0
  3  4  1  1
  5  6  1  6
  7  5  1  0
  7  8  2  0
 10  9  1  0
 10 12  1  0
 11 10  2  0
 13 12  1  0
 14 13  1  1
 15 14  1  0
 15  7  1  0
 16 14  1  0
 17 16  2  0
 19 18  1  6
 19 21  1  0
 20 19  1  0
 21 22  1  1
 21 23  1  0
 22 16  1  0
 23 25  1  0
 24 23  2  0
M  END
$$$$
