IQV.pdb
     RDKit          3D

 25 24  0  0  1  0  0  0  0  0999 V2000
    7.7233  -12.2594   18.2669 C   0  0  0  0  0  0  0  0  0  0  0  0
    8.0210  -13.7072   18.5352 C   0  0  0  0  0  0  0  0  0  0  0  0
    7.8618  -13.9930   19.9986 C   0  0  2  0  0  0  0  0  0  0  0  0
    8.8324  -13.1093   20.7406 C   0  0  0  0  0  0  0  0  0  0  0  0
    8.0107  -15.4352   20.2829 C   0  0  2  0  0  0  0  0  0  0  0  0
    7.1802  -16.2713   19.4482 N   0  0  0  0  0  0  0  0  0  0  0  0
    7.8377  -15.8151   21.6850 C   0  0  0  0  0  0  0  0  0  0  0  0
    6.7138  -15.9458   22.2477 O   0  0  0  0  0  0  0  0  0  0  0  0
   11.5669  -19.4899   24.8884 N   0  0  0  0  0  0  0  0  0  0  0  0
   10.6878  -19.0585   25.9200 C   0  0  0  0  0  0  0  0  0  0  0  0
   10.7598  -19.6657   27.0249 O   0  0  0  0  0  0  0  0  0  0  0  0
    9.7441  -17.9452   25.6754 C   0  0  0  0  0  0  0  0  0  0  0  0
    9.8501  -17.5496   24.2186 C   0  0  0  0  0  0  0  0  0  0  0  0
    8.8715  -16.4428   23.8861 C   0  0  2  0  0  0  0  0  0  0  0  0
    8.9794  -16.0570   22.4853 N   0  0  0  0  0  0  0  0  0  0  0  0
    9.0529  -15.2694   24.7489 C   0  0  0  0  0  0  0  0  0  0  0  0
   10.0977  -14.5602   24.6303 O   0  0  0  0  0  0  0  0  0  0  0  0
    7.0751  -12.0314   27.9398 C   0  0  0  0  0  0  0  0  0  0  0  0
    6.9871  -13.1504   26.9550 C   0  0  1  0  0  0  0  0  0  0  0  0
    6.2756  -12.8034   25.6859 C   0  0  0  0  0  0  0  0  0  0  0  0
    8.3747  -13.7136   26.6180 C   0  0  2  0  0  0  0  0  0  0  0  0
    8.1272  -14.8483   25.7367 N   0  0  0  0  0  0  0  0  0  0  0  0
    9.0407  -14.1280   27.8666 C   0  0  0  0  0  0  0  0  0  0  0  0
    8.9893  -15.3282   28.1948 O   0  0  0  0  0  0  0  0  0  0  0  0
    9.7228  -13.2507   28.6969 O   0  0  0  0  0  0  0  0  0  0  0  0
  2  1  1  0
  3  2  1  0
  3  5  1  0
  3  4  1  1
  5  6  1  6
  7  5  1  0
  7  8  2  0
 10  9  1  0
 10 12  1  0
 11 10  2  0
 13 12  1  0
 14 13  1  1
 15 14  1  0
 15  7  1  0
 16 14  1  0
 17 16  2  0
 19 18  1  1
 19 21  1  0
 20 19  1  0
 21 22  1  6
 21 23  1  0
 22 16  1  0
 23 25  1  0
 24 23  2  0
M  END
$$$$
