IQV.pdb
     RDKit          3D

 25 24  0  0  1  0  0  0  0  0999 V2000
    7.4693  -12.3568   19.4243 C   0  0  0  0  0  0  0  0  0  0  0  0
    7.0868  -13.7687   19.7661 C   0  0  0  0  0  0  0  0  0  0  0  0
    8.3202  -14.6150   19.8714 C   0  0  2  0  0  0  0  0  0  0  0  0
    9.0548  -14.5097   18.5589 C   0  0  0  0  0  0  0  0  0  0  0  0
    7.9897  -15.9971   20.2758 C   0  0  2  0  0  0  0  0  0  0  0  0
    7.2525  -16.7263   19.2706 N   0  0  0  0  0  0  0  0  0  0  0  0
    7.3154  -16.1241   21.5678 C   0  0  0  0  0  0  0  0  0  0  0  0
    6.0622  -16.0647   21.7191 O   0  0  0  0  0  0  0  0  0  0  0  0
    5.8408  -20.2377   24.8924 N   0  0  0  0  0  0  0  0  0  0  0  0
    7.0746  -20.0317   24.2151 C   0  0  0  0  0  0  0  0  0  0  0  0
    7.8832  -21.0013   24.1905 O   0  0  0  0  0  0  0  0  0  0  0  0
    7.3649  -18.7274   23.5792 C   0  0  0  0  0  0  0  0  0  0  0  0
    7.4114  -17.6743   24.6649 C   0  0  0  0  0  0  0  0  0  0  0  0
    7.4942  -16.2851   24.0678 C   0  0  2  0  0  0  0  0  0  0  0  0
    8.0864  -16.3257   22.7371 N   0  0  0  0  0  0  0  0  0  0  0  0
    8.2434  -15.3601   24.9263 C   0  0  0  0  0  0  0  0  0  0  0  0
    9.5115  -15.3743   24.9060 O   0  0  0  0  0  0  0  0  0  0  0  0
    7.4650  -11.5141   25.8056 C   0  0  0  0  0  0  0  0  0  0  0  0
    7.5723  -12.3750   27.0210 C   0  0  1  0  0  0  0  0  0  0  0  0
    6.2587  -12.7893   27.6039 C   0  0  0  0  0  0  0  0  0  0  0  0
    8.4217  -13.6250   26.7516 C   0  0  2  0  0  0  0  0  0  0  0  0
    7.6484  -14.4207   25.8058 N   0  0  0  0  0  0  0  0  0  0  0  0
    8.6353  -14.3430   28.0217 C   0  0  0  0  0  0  0  0  0  0  0  0
    8.0258  -15.4131   28.2065 O   0  0  0  0  0  0  0  0  0  0  0  0
    9.4806  -13.8894   29.0237 O   0  0  0  0  0  0  0  0  0  0  0  0
  2  1  1  0
  3  2  1  0
  3  5  1  0
  3  4  1  6
  5  6  1  6
  7  5  1  0
  7  8  2  0
 10  9  1  0
 10 12  1  0
 11 10  2  0
 13 12  1  0
 14 13  1  1
 15 14  1  0
 15  7  1  0
 16 14  1  0
 17 16  2  0
 19 18  1  6
 19 21  1  0
 20 19  1  0
 21 22  1  6
 21 23  1  0
 22 16  1  0
 23 25  1  0
 24 23  2  0
M  END
$$$$
