KLK.pdb
     RDKit          3D

 27 26  0  0  1  0  0  0  0  0999 V2000
   19.9126  -14.5309  -17.7383 N   0  0  0  0  0  0  0  0  0  0  0  0
   20.0774  -13.1600  -18.1624 C   0  0  1  0  0  0  0  0  0  0  0  0
   18.7017  -12.6432  -18.5176 C   0  0  0  0  0  0  0  0  0  0  0  0
   18.1459  -13.5095  -19.6201 C   0  0  0  0  0  0  0  0  0  0  0  0
   16.7599  -13.1093  -20.0303 C   0  0  0  0  0  0  0  0  0  0  0  0
   16.2132  -14.0344  -21.0964 C   0  0  0  0  0  0  0  0  0  0  0  0
   16.9717  -13.9731  -22.3172 N   0  0  0  0  0  0  0  0  0  0  0  0
   20.6726  -12.3950  -17.0328 C   0  0  0  0  0  0  0  0  0  0  0  0
   20.2618  -12.6445  -15.8742 O   0  0  0  0  0  0  0  0  0  0  0  0
   25.9983  -10.5354  -15.5268 C   0  0  0  0  0  0  0  0  0  0  0  0
   24.5386  -10.0918  -15.3228 C   0  0  2  0  0  0  0  0  0  0  0  0
   24.1372  -10.2804  -13.8955 C   0  0  0  0  0  0  0  0  0  0  0  0
   23.6834  -10.9100  -16.2238 C   0  0  0  0  0  0  0  0  0  0  0  0
   22.2392  -10.5868  -16.2498 C   0  0  2  0  0  0  0  0  0  0  0  0
   21.6547  -11.4393  -17.3028 N   0  0  0  0  0  0  0  0  0  0  0  0
   21.8655   -9.2064  -16.6152 C   0  0  0  0  0  0  0  0  0  0  0  0
   22.1630   -8.7170  -17.7662 O   0  0  0  0  0  0  0  0  0  0  0  0
   21.1638   -8.3542  -15.7329 N   0  0  0  0  0  0  0  0  0  0  0  0
   20.8403   -6.9858  -16.1905 C   0  0  1  0  0  0  0  0  0  0  0  0
   19.3356   -6.8220  -16.1995 C   0  0  0  0  0  0  0  0  0  0  0  0
   18.9578   -5.4364  -16.5507 C   0  0  0  0  0  0  0  0  0  0  0  0
   17.5068   -5.1059  -16.5208 C   0  0  0  0  0  0  0  0  0  0  0  0
   17.1260   -3.7063  -16.8270 C   0  0  0  0  0  0  0  0  0  0  0  0
   15.7098   -3.4652  -16.6835 N   0  0  0  0  0  0  0  0  0  0  0  0
   21.5556   -6.0433  -15.3184 C   0  0  0  0  0  0  0  0  0  0  0  0
   22.0432   -4.8160  -15.6876 O   0  0  0  0  0  0  0  0  0  0  0  0
   21.7676   -6.3572  -14.0914 O   0  0  0  0  0  0  0  0  0  0  0  0
  2  1  1  1
  2  3  1  0
  4  3  1  0
  4  5  1  0
  5  6  1  0
  6  7  1  0
  8  2  1  0
  9  8  2  0
 11 10  1  1
 12 11  1  0
 13 11  1  0
 14 13  1  6
 14 15  1  0
 15  8  1  0
 16 14  1  0
 16 17  2  0
 18 16  1  0
 19 18  1  0
 19 20  1  1
 21 20  1  0
 22 21  1  0
 22 23  1  0
 24 23  1  0
 25 26  1  0
 25 19  1  0
 27 25  2  0
M  END
$$$$
