KLK.pdb
     RDKit          3D

 27 26  0  0  1  0  0  0  0  0999 V2000
   26.4355  -21.1093  -14.8812 N   0  0  0  0  0  0  0  0  0  0  0  0
   25.3420  -20.3824  -14.2792 C   0  0  1  0  0  0  0  0  0  0  0  0
   24.1585  -20.5221  -15.2096 C   0  0  0  0  0  0  0  0  0  0  0  0
   24.2413  -19.4251  -16.2413 C   0  0  0  0  0  0  0  0  0  0  0  0
   25.1961  -19.7442  -17.3530 C   0  0  0  0  0  0  0  0  0  0  0  0
   25.1686  -18.6761  -18.4251 C   0  0  0  0  0  0  0  0  0  0  0  0
   23.8576  -18.5001  -18.9905 N   0  0  0  0  0  0  0  0  0  0  0  0
   25.0632  -20.9859  -12.9475 C   0  0  0  0  0  0  0  0  0  0  0  0
   24.8295  -22.2173  -12.8986 O   0  0  0  0  0  0  0  0  0  0  0  0
   26.3458  -19.1417   -7.3221 C   0  0  0  0  0  0  0  0  0  0  0  0
   25.6427  -20.2613   -8.1104 C   0  0  2  0  0  0  0  0  0  0  0  0
   26.3453  -21.5628   -7.8951 C   0  0  0  0  0  0  0  0  0  0  0  0
   25.6588  -19.8850   -9.5494 C   0  0  0  0  0  0  0  0  0  0  0  0
   24.8138  -20.6895  -10.4601 C   0  0  2  0  0  0  0  0  0  0  0  0
   25.0723  -20.1674  -11.8157 N   0  0  0  0  0  0  0  0  0  0  0  0
   23.3518  -20.5956  -10.2795 C   0  0  0  0  0  0  0  0  0  0  0  0
   22.7156  -19.5095  -10.5411 O   0  0  0  0  0  0  0  0  0  0  0  0
   22.5755  -21.6825   -9.8181 N   0  0  0  0  0  0  0  0  0  0  0  0
   21.1076  -21.5166   -9.7529 C   0  0  1  0  0  0  0  0  0  0  0  0
   20.4976  -22.1121  -11.0036 C   0  0  0  0  0  0  0  0  0  0  0  0
   19.0209  -22.0750  -10.9395 C   0  0  0  0  0  0  0  0  0  0  0  0
   18.2821  -22.6324  -12.1053 C   0  0  0  0  0  0  0  0  0  0  0  0
   16.8020  -22.5598  -12.0649 C   0  0  0  0  0  0  0  0  0  0  0  0
   16.1818  -23.0635  -13.2674 N   0  0  0  0  0  0  0  0  0  0  0  0
   20.6458  -22.1225   -8.4958 C   0  0  0  0  0  0  0  0  0  0  0  0
   19.4400  -21.8906   -7.8856 O   0  0  0  0  0  0  0  0  0  0  0  0
   21.4096  -22.9487   -7.8770 O   0  0  0  0  0  0  0  0  0  0  0  0
  2  1  1  6
  2  3  1  0
  4  3  1  0
  4  5  1  0
  5  6  1  0
  6  7  1  0
  8  2  1  0
  9  8  2  0
 11 10  1  1
 12 11  1  0
 13 11  1  0
 14 13  1  1
 14 15  1  0
 15  8  1  0
 16 14  1  0
 16 17  2  0
 18 16  1  0
 19 18  1  0
 19 20  1  6
 21 20  1  0
 22 21  1  0
 22 23  1  0
 24 23  1  0
 25 26  1  0
 25 19  1  0
 27 25  2  0
M  END
$$$$
