KLK.pdb
     RDKit          3D

 27 26  0  0  1  0  0  0  0  0999 V2000
   24.0531  -18.0554  -15.6571 N   0  0  0  0  0  0  0  0  0  0  0  0
   23.9386  -17.2373  -16.8420 C   0  0  1  0  0  0  0  0  0  0  0  0
   22.5575  -17.4777  -17.4082 C   0  0  0  0  0  0  0  0  0  0  0  0
   22.4677  -18.9239  -17.8265 C   0  0  0  0  0  0  0  0  0  0  0  0
   21.1626  -19.2578  -18.4858 C   0  0  0  0  0  0  0  0  0  0  0  0
   21.0943  -20.7230  -18.8596 C   0  0  0  0  0  0  0  0  0  0  0  0
   19.8565  -21.0667  -19.5069 N   0  0  0  0  0  0  0  0  0  0  0  0
   24.1244  -15.8157  -16.4420 C   0  0  0  0  0  0  0  0  0  0  0  0
   23.5755  -15.4275  -15.3830 O   0  0  0  0  0  0  0  0  0  0  0  0
   27.1808  -13.1841  -14.7864 C   0  0  0  0  0  0  0  0  0  0  0  0
   27.4799  -13.8648  -16.1341 C   0  0  2  0  0  0  0  0  0  0  0  0
   28.9011  -13.6239  -16.5290 C   0  0  0  0  0  0  0  0  0  0  0  0
   26.5481  -13.3002  -17.1467 C   0  0  0  0  0  0  0  0  0  0  0  0
   25.1042  -13.5508  -16.9394 C   0  0  2  0  0  0  0  0  0  0  0  0
   24.8940  -14.9774  -17.2519 N   0  0  0  0  0  0  0  0  0  0  0  0
   24.1630  -12.8194  -17.8101 C   0  0  0  0  0  0  0  0  0  0  0  0
   24.0046  -13.1449  -19.0436 O   0  0  0  0  0  0  0  0  0  0  0  0
   23.3875  -11.7345  -17.3424 N   0  0  0  0  0  0  0  0  0  0  0  0
   22.4635  -11.0747  -18.2897 C   0  0  1  0  0  0  0  0  0  0  0  0
   21.0570  -11.1692  -17.7385 C   0  0  0  0  0  0  0  0  0  0  0  0
   20.0912  -10.5060  -18.6403 C   0  0  0  0  0  0  0  0  0  0  0  0
   18.6536  -10.5844  -18.2624 C   0  0  0  0  0  0  0  0  0  0  0  0
   17.6662  -10.0996  -19.2561 C   0  0  0  0  0  0  0  0  0  0  0  0
   16.3085  -10.1456  -18.7674 N   0  0  0  0  0  0  0  0  0  0  0  0
   22.9485   -9.7037  -18.5039 C   0  0  0  0  0  0  0  0  0  0  0  0
   23.8327   -9.0281  -17.7026 O   0  0  0  0  0  0  0  0  0  0  0  0
   22.5308   -9.0394  -19.5204 O   0  0  0  0  0  0  0  0  0  0  0  0
  2  1  1  1
  2  3  1  0
  4  3  1  0
  4  5  1  0
  5  6  1  0
  6  7  1  0
  8  2  1  0
  9  8  2  0
 11 10  1  1
 12 11  1  0
 13 11  1  0
 14 13  1  6
 14 15  1  0
 15  8  1  0
 16 14  1  0
 16 17  2  0
 18 16  1  0
 19 18  1  0
 19 20  1  1
 21 20  1  0
 22 21  1  0
 22 23  1  0
 24 23  1  0
 25 26  1  0
 25 19  1  0
 27 25  2  0
M  END
$$$$
