KLK.pdb
     RDKit          3D

 27 26  0  0  1  0  0  0  0  0999 V2000
   20.8676  -12.6628  -19.2256 N   0  0  0  0  0  0  0  0  0  0  0  0
   19.9958  -12.5199  -18.0829 C   0  0  1  0  0  0  0  0  0  0  0  0
   19.6815  -13.9159  -17.5946 C   0  0  0  0  0  0  0  0  0  0  0  0
   18.9909  -14.6585  -18.7110 C   0  0  0  0  0  0  0  0  0  0  0  0
   17.6520  -15.2000  -18.3071 C   0  0  0  0  0  0  0  0  0  0  0  0
   17.0333  -16.0217  -19.4175 C   0  0  0  0  0  0  0  0  0  0  0  0
   15.7657  -16.5874  -19.0403 N   0  0  0  0  0  0  0  0  0  0  0  0
   20.7162  -11.7292  -17.0478 C   0  0  0  0  0  0  0  0  0  0  0  0
   20.1402  -11.5365  -15.9503 O   0  0  0  0  0  0  0  0  0  0  0  0
   26.5866  -10.3273  -16.4054 C   0  0  0  0  0  0  0  0  0  0  0  0
   25.1945   -9.9697  -15.8545 C   0  0  2  0  0  0  0  0  0  0  0  0
   25.1156  -10.3004  -14.3991 C   0  0  0  0  0  0  0  0  0  0  0  0
   24.1860  -10.7438  -16.6267 C   0  0  0  0  0  0  0  0  0  0  0  0
   22.7627  -10.4288  -16.3709 C   0  0  2  0  0  0  0  0  0  0  0  0
   21.9917  -11.2376  -17.3346 N   0  0  0  0  0  0  0  0  0  0  0  0
   22.3306   -9.0360  -16.5990 C   0  0  0  0  0  0  0  0  0  0  0  0
   22.4886   -8.4668  -17.7408 O   0  0  0  0  0  0  0  0  0  0  0  0
   21.7217   -8.2580  -15.5886 N   0  0  0  0  0  0  0  0  0  0  0  0
   21.3253   -6.8716  -15.9158 C   0  0  1  0  0  0  0  0  0  0  0  0
   19.8341   -6.8431  -16.1742 C   0  0  0  0  0  0  0  0  0  0  0  0
   19.3561   -5.4556  -16.3532 C   0  0  0  0  0  0  0  0  0  0  0  0
   17.9269   -5.2791  -16.7300 C   0  0  0  0  0  0  0  0  0  0  0  0
   17.4473   -3.8908  -16.9305 C   0  0  0  0  0  0  0  0  0  0  0  0
   16.0467   -3.8244  -17.2745 N   0  0  0  0  0  0  0  0  0  0  0  0
   21.7744   -6.0077  -14.8145 C   0  0  0  0  0  0  0  0  0  0  0  0
   22.2302   -6.4321  -13.5929 O   0  0  0  0  0  0  0  0  0  0  0  0
   21.7532   -4.7327  -14.9654 O   0  0  0  0  0  0  0  0  0  0  0  0
  2  1  1  6
  2  3  1  0
  4  3  1  0
  4  5  1  0
  5  6  1  0
  6  7  1  0
  8  2  1  0
  9  8  2  0
 11 10  1  6
 12 11  1  0
 13 11  1  0
 14 13  1  6
 14 15  1  0
 15  8  1  0
 16 14  1  0
 16 17  2  0
 18 16  1  0
 19 18  1  0
 19 20  1  1
 21 20  1  0
 22 21  1  0
 22 23  1  0
 24 23  1  0
 25 26  1  0
 25 19  1  0
 27 25  2  0
M  END
$$$$
