KLK.pdb
     RDKit          3D

 27 26  0  0  1  0  0  0  0  0999 V2000
   23.3019  -14.6294  -18.1081 N   0  0  0  0  0  0  0  0  0  0  0  0
   23.0205  -13.3180  -18.6443 C   0  0  1  0  0  0  0  0  0  0  0  0
   21.6176  -13.3665  -19.2060 C   0  0  0  0  0  0  0  0  0  0  0  0
   21.6396  -14.2209  -20.4487 C   0  0  0  0  0  0  0  0  0  0  0  0
   20.2889  -14.3521  -21.0872 C   0  0  0  0  0  0  0  0  0  0  0  0
   20.3596  -15.1665  -22.3611 C   0  0  0  0  0  0  0  0  0  0  0  0
   19.0595  -15.4233  -22.9207 N   0  0  0  0  0  0  0  0  0  0  0  0
   23.1302  -12.3316  -17.5351 C   0  0  0  0  0  0  0  0  0  0  0  0
   22.3616  -12.4653  -16.5528 O   0  0  0  0  0  0  0  0  0  0  0  0
   26.3196  -10.9787  -14.5259 C   0  0  0  0  0  0  0  0  0  0  0  0
   26.6071  -10.8555  -16.0330 C   0  0  2  0  0  0  0  0  0  0  0  0
   28.0144  -10.4033  -16.2541 C   0  0  0  0  0  0  0  0  0  0  0  0
   25.6429   -9.8764  -16.6024 C   0  0  0  0  0  0  0  0  0  0  0  0
   24.2143  -10.2633  -16.5948 C   0  0  2  0  0  0  0  0  0  0  0  0
   24.0740  -11.3063  -17.6290 N   0  0  0  0  0  0  0  0  0  0  0  0
   23.2335   -9.2216  -16.9575 C   0  0  0  0  0  0  0  0  0  0  0  0
   23.2585   -8.6541  -18.1107 O   0  0  0  0  0  0  0  0  0  0  0  0
   22.2195   -8.7959  -16.0700 N   0  0  0  0  0  0  0  0  0  0  0  0
   21.2200   -7.8242  -16.5634 C   0  0  1  0  0  0  0  0  0  0  0  0
   19.8679   -8.5031  -16.6106 C   0  0  0  0  0  0  0  0  0  0  0  0
   18.8158   -7.5545  -17.0337 C   0  0  0  0  0  0  0  0  0  0  0  0
   17.4104   -8.0429  -16.9870 C   0  0  0  0  0  0  0  0  0  0  0  0
   16.3552   -7.1107  -17.4509 C   0  0  0  0  0  0  0  0  0  0  0  0
   16.6618   -5.7288  -17.1665 N   0  0  0  0  0  0  0  0  0  0  0  0
   21.2827   -6.6401  -15.6947 C   0  0  0  0  0  0  0  0  0  0  0  0
   20.9085   -5.3671  -16.0407 O   0  0  0  0  0  0  0  0  0  0  0  0
   21.7237   -6.7618  -14.4949 O   0  0  0  0  0  0  0  0  0  0  0  0
  2  1  1  1
  2  3  1  0
  4  3  1  0
  4  5  1  0
  5  6  1  0
  6  7  1  0
  8  2  1  0
  9  8  2  0
 11 10  1  1
 12 11  1  0
 13 11  1  0
 14 13  1  6
 14 15  1  0
 15  8  1  0
 16 14  1  0
 16 17  2  0
 18 16  1  0
 19 18  1  0
 19 20  1  1
 21 20  1  0
 22 21  1  0
 22 23  1  0
 24 23  1  0
 25 26  1  0
 25 19  1  0
 27 25  2  0
M  END
$$$$
