KLK.pdb
     RDKit          3D

 27 26  0  0  1  0  0  0  0  0999 V2000
-165142.453119110.013745369.0273 N   0  0  0  0  0  0  0  0  0  0  0  0
-165142.859419111.085945368.1641 C   0  0  1  0  0  0  0  0  0  0  0  0
-165142.578119110.683645366.7344 C   0  0  0  0  0  0  0  0  0  0  0  0
-165141.531219109.625045366.7656 C   0  0  0  0  0  0  0  0  0  0  0  0
-165140.640619109.693445367.9961 C   0  0  0  0  0  0  0  0  0  0  0  0
-165139.421919108.830145367.8203 C   0  0  0  0  0  0  0  0  0  0  0  0
-165139.625019107.910245366.7812 N   0  0  0  0  0  0  0  0  0  0  0  0
-165144.312519111.246145368.3594 C   0  0  0  0  0  0  0  0  0  0  0  0
-165144.968819110.318445368.9688 O   0  0  0  0  0  0  0  0  0  0  0  0
-165146.062519111.123045369.5586 C   0  0  0  0  0  0  0  0  0  0  0  0
-165145.531219112.076245370.7266 C   0  0  2  0  0  0  0  0  0  0  0  0
-165146.875019112.562545371.3711 C   0  0  0  0  0  0  0  0  0  0  0  0
-165144.859419113.134845370.1445 C   0  0  0  0  0  0  0  0  0  0  0  0
-165145.171919113.599645368.7734 C   0  0  2  0  0  0  0  0  0  0  0  0
-165144.953119112.419945367.9141 N   0  0  0  0  0  0  0  0  0  0  0  0
-165144.234419114.634845368.1953 C   0  0  0  0  0  0  0  0  0  0  0  0
-165144.625019115.365245367.2109 O   0  0  0  0  0  0  0  0  0  0  0  0
-165142.937519114.902345368.7500 N   0  0  0  0  0  0  0  0  0  0  0  0
-165141.828119115.255945367.8711 C   0  0  1  0  0  0  0  0  0  0  0  0
-165141.656219116.769545367.8906 C   0  0  0  0  0  0  0  0  0  0  0  0
-165142.406219117.414145366.8320 C   0  0  0  0  0  0  0  0  0  0  0  0
-165143.078119118.662145367.1094 C   0  0  0  0  0  0  0  0  0  0  0  0
-165143.593819119.488345365.9414 C   0  0  0  0  0  0  0  0  0  0  0  0
-165144.953119119.367245365.7109 N   0  0  0  0  0  0  0  0  0  0  0  0
-165140.703119114.466845368.2578 C   0  0  0  0  0  0  0  0  0  0  0  0
-165140.750019113.240245368.8594 O   0  0  0  0  0  0  0  0  0  0  0  0
-165139.546919114.937545367.9844 O   0  0  0  0  0  0  0  0  0  0  0  0
  2  1  1  1
  2  3  1  0
  4  3  1  0
  4  5  1  0
  5  6  1  0
  6  7  1  0
  8  2  1  0
  9  8  2  0
 11 10  1  6
 12 11  1  0
 13 11  1  0
 14 13  1  1
 14 15  1  0
 15  8  1  0
 16 14  1  0
 16 17  2  0
 18 16  1  0
 19 18  1  0
 19 20  1  1
 21 20  1  0
 22 21  1  0
 22 23  1  0
 24 23  1  0
 25 26  1  0
 25 19  1  0
 27 25  2  0
M  END
$$$$
