KLK.pdb
     RDKit          3D

 27 26  0  0  1  0  0  0  0  0999 V2000
   20.5836  -14.2732  -17.0778 N   0  0  0  0  0  0  0  0  0  0  0  0
   20.9070  -12.9925  -17.6622 C   0  0  1  0  0  0  0  0  0  0  0  0
   19.5961  -12.3376  -18.0345 C   0  0  0  0  0  0  0  0  0  0  0  0
   18.8889  -13.2322  -19.0215 C   0  0  0  0  0  0  0  0  0  0  0  0
   17.6426  -12.6113  -19.5788 C   0  0  0  0  0  0  0  0  0  0  0  0
   16.9296  -13.5585  -20.5198 C   0  0  0  0  0  0  0  0  0  0  0  0
   15.7677  -12.9617  -21.1224 N   0  0  0  0  0  0  0  0  0  0  0  0
   21.6464  -12.1943  -16.6466 C   0  0  0  0  0  0  0  0  0  0  0  0
   21.2711  -12.2722  -15.4522 O   0  0  0  0  0  0  0  0  0  0  0  0
   27.2481  -10.0301  -16.4247 C   0  0  0  0  0  0  0  0  0  0  0  0
   25.8672   -9.8186  -15.7785 C   0  0  2  0  0  0  0  0  0  0  0  0
   25.9225  -10.1532  -14.3229 C   0  0  0  0  0  0  0  0  0  0  0  0
   24.8945  -10.6948  -16.4846 C   0  0  0  0  0  0  0  0  0  0  0  0
   23.4681  -10.5379  -16.1221 C   0  0  2  0  0  0  0  0  0  0  0  0
   22.7179  -11.3981  -17.0573 N   0  0  0  0  0  0  0  0  0  0  0  0
   22.8796   -9.1928  -16.2740 C   0  0  0  0  0  0  0  0  0  0  0  0
   22.7505   -8.6477  -17.4311 O   0  0  0  0  0  0  0  0  0  0  0  0
   22.4257   -8.4368  -15.1697 N   0  0  0  0  0  0  0  0  0  0  0  0
   21.8865   -7.0833  -15.4219 C   0  0  1  0  0  0  0  0  0  0  0  0
   20.3885   -7.1873  -15.6124 C   0  0  0  0  0  0  0  0  0  0  0  0
   19.7956   -5.8573  -15.8683 C   0  0  0  0  0  0  0  0  0  0  0  0
   18.3122   -5.7898  -15.9712 C   0  0  0  0  0  0  0  0  0  0  0  0
   17.7210   -4.4913  -16.3737 C   0  0  0  0  0  0  0  0  0  0  0  0
   16.2897   -4.5568  -16.5515 N   0  0  0  0  0  0  0  0  0  0  0  0
   22.3056   -6.2215  -14.3074 C   0  0  0  0  0  0  0  0  0  0  0  0
   22.8644   -6.6443  -13.1288 O   0  0  0  0  0  0  0  0  0  0  0  0
   22.1512   -4.9502  -14.4017 O   0  0  0  0  0  0  0  0  0  0  0  0
  2  1  1  1
  2  3  1  0
  4  3  1  0
  4  5  1  0
  5  6  1  0
  6  7  1  0
  8  2  1  0
  9  8  2  0
 11 10  1  6
 12 11  1  0
 13 11  1  0
 14 13  1  6
 14 15  1  0
 15  8  1  0
 16 14  1  0
 16 17  2  0
 18 16  1  0
 19 18  1  0
 19 20  1  1
 21 20  1  0
 22 21  1  0
 22 23  1  0
 24 23  1  0
 25 26  1  0
 25 19  1  0
 27 25  2  0
M  END
$$$$
