TTG.pdb
     RDKit          3D

 19 18  0  0  1  0  0  0  0  0999 V2000
   25.9046  -13.2095  -15.0853 C   0  0  0  0  0  0  0  0  0  0  0  0
   25.1232  -14.4134  -15.5844 C   0  0  1  0  0  0  0  0  0  0  0  0
   24.1298  -14.0588  -16.4656 O   0  0  0  0  0  0  0  0  0  0  0  0
   26.0471  -15.4883  -16.1084 C   0  0  2  0  0  0  0  0  0  0  0  0
   26.6925  -14.9745  -17.3068 N   0  0  0  0  0  0  0  0  0  0  0  0
   25.3568  -16.7318  -16.4685 C   0  0  0  0  0  0  0  0  0  0  0  0
   25.1413  -17.1099  -17.6470 O   0  0  0  0  0  0  0  0  0  0  0  0
   26.3095  -19.8404  -16.5761 C   0  0  0  0  0  0  0  0  0  0  0  0
   25.2576  -19.9167  -15.4862 C   0  0  1  0  0  0  0  0  0  0  0  0
   25.8273  -19.8884  -14.2342 O   0  0  0  0  0  0  0  0  0  0  0  0
   24.2203  -18.8344  -15.7072 C   0  0  2  0  0  0  0  0  0  0  0  0
   24.8923  -17.5812  -15.4297 N   0  0  0  0  0  0  0  0  0  0  0  0
   23.1004  -19.0783  -14.7679 C   0  0  0  0  0  0  0  0  0  0  0  0
   23.2576  -18.8718  -13.5274 O   0  0  0  0  0  0  0  0  0  0  0  0
   21.8227  -19.5420  -15.1764 N   0  0  0  0  0  0  0  0  0  0  0  0
   20.7503  -19.8204  -14.2447 C   0  0  0  0  0  0  0  0  0  0  0  0
   20.2068  -21.1696  -14.3672 C   0  0  0  0  0  0  0  0  0  0  0  0
   20.7047  -21.9611  -15.1946 O   0  0  0  0  0  0  0  0  0  0  0  0
   19.1520  -21.5978  -13.5898 O   0  0  0  0  0  0  0  0  0  0  0  0
  2  4  1  0
  2  3  1  0
  2  1  1  6
  4  5  1  6
  6  4  1  0
  6 12  1  0
  7  6  2  0
  9  8  1  6
 10  9  1  0
 11 12  1  1
 11  9  1  0
 13 14  2  0
 13 11  1  0
 15 13  1  0
 16 15  1  0
 16 17  1  0
 17 19  1  0
 18 17  2  0
M  END
$$$$
