TTG.pdb
     RDKit          3D

 19 18  0  0  1  0  0  0  0  0999 V2000
   17.7729   -8.1806  -17.0262 C   0  0  0  0  0  0  0  0  0  0  0  0
   17.1709   -9.3809  -16.3148 C   0  0  1  0  0  0  0  0  0  0  0  0
   16.0377   -9.8415  -16.9414 O   0  0  0  0  0  0  0  0  0  0  0  0
   18.2092  -10.4512  -16.0700 C   0  0  2  0  0  0  0  0  0  0  0  0
   17.5373  -11.5936  -15.4696 N   0  0  0  0  0  0  0  0  0  0  0  0
   19.2815  -10.0324  -15.1604 C   0  0  0  0  0  0  0  0  0  0  0  0
   19.1386   -9.8604  -13.9242 O   0  0  0  0  0  0  0  0  0  0  0  0
   24.1363   -9.5758  -14.6526 C   0  0  0  0  0  0  0  0  0  0  0  0
   22.9062  -10.0732  -15.3873 C   0  0  1  0  0  0  0  0  0  0  0  0
   22.8094  -11.4446  -15.3357 O   0  0  0  0  0  0  0  0  0  0  0  0
   21.6787   -9.3565  -14.8621 C   0  0  2  0  0  0  0  0  0  0  0  0
   20.5774   -9.8000  -15.6925 N   0  0  0  0  0  0  0  0  0  0  0  0
   21.9126   -7.8989  -14.9905 C   0  0  0  0  0  0  0  0  0  0  0  0
   21.7820   -7.3331  -16.1170 O   0  0  0  0  0  0  0  0  0  0  0  0
   22.2846   -7.0668  -13.9026 N   0  0  0  0  0  0  0  0  0  0  0  0
   22.4502   -5.6341  -14.0268 C   0  0  0  0  0  0  0  0  0  0  0  0
   21.2102   -4.8856  -13.8452 C   0  0  0  0  0  0  0  0  0  0  0  0
   21.2321   -3.6380  -13.8898 O   0  0  0  0  0  0  0  0  0  0  0  0
   20.0073   -5.5215  -13.6243 O   0  0  0  0  0  0  0  0  0  0  0  0
  2  4  1  0
  2  3  1  0
  2  1  1  6
  4  5  1  1
  6  4  1  0
  6 12  1  0
  7  6  2  0
  9  8  1  1
 10  9  1  0
 11 12  1  6
 11  9  1  0
 13 14  2  0
 13 11  1  0
 15 13  1  0
 16 15  1  0
 16 17  1  0
 17 19  1  0
 18 17  2  0
M  END
$$$$
