TTG.pdb
     RDKit          3D

 19 18  0  0  1  0  0  0  0  0999 V2000
   21.7981   -9.9602  -14.6109 C   0  0  0  0  0  0  0  0  0  0  0  0
   21.7808  -10.8410  -15.8491 C   0  0  1  0  0  0  0  0  0  0  0  0
   21.8268  -12.1784  -15.5358 O   0  0  0  0  0  0  0  0  0  0  0  0
   20.6419  -10.4700  -16.7704 C   0  0  2  0  0  0  0  0  0  0  0  0
   20.7092  -11.3411  -17.9338 N   0  0  0  0  0  0  0  0  0  0  0  0
   20.6980   -9.0828  -17.2448 C   0  0  0  0  0  0  0  0  0  0  0  0
   21.4920   -8.6632  -18.1232 O   0  0  0  0  0  0  0  0  0  0  0  0
   18.2956   -4.8860  -17.6807 C   0  0  0  0  0  0  0  0  0  0  0  0
   18.3734   -6.3120  -17.1699 C   0  0  1  0  0  0  0  0  0  0  0  0
   17.5972   -7.1602  -17.9255 O   0  0  0  0  0  0  0  0  0  0  0  0
   19.8247   -6.7374  -17.0757 C   0  0  2  0  0  0  0  0  0  0  0  0
   19.8025   -8.1327  -16.6864 N   0  0  0  0  0  0  0  0  0  0  0  0
   20.4819   -5.8908  -16.0523 C   0  0  0  0  0  0  0  0  0  0  0  0
   19.9292   -5.7152  -14.9254 O   0  0  0  0  0  0  0  0  0  0  0  0
   21.7283   -5.2428  -16.2550 N   0  0  0  0  0  0  0  0  0  0  0  0
   22.3318   -4.3696  -15.2707 C   0  0  0  0  0  0  0  0  0  0  0  0
   22.4593   -4.9790  -13.9504 C   0  0  0  0  0  0  0  0  0  0  0  0
   22.2163   -4.2985  -12.9322 O   0  0  0  0  0  0  0  0  0  0  0  0
   22.8430   -6.2938  -13.7946 O   0  0  0  0  0  0  0  0  0  0  0  0
  2  4  1  0
  2  3  1  0
  2  1  1  1
  4  5  1  6
  6  4  1  0
  6 12  1  0
  7  6  2  0
  9  8  1  6
 10  9  1  0
 11 12  1  1
 11  9  1  0
 13 14  2  0
 13 11  1  0
 15 13  1  0
 16 15  1  0
 16 17  1  0
 17 19  1  0
 18 17  2  0
M  END
$$$$
