TTG.pdb
     RDKit          3D

 19 18  0  0  1  0  0  0  0  0999 V2000
   24.7000  -31.6297   -8.2226 C   0  0  0  0  0  0  0  0  0  0  0  0
   24.4747  -32.1435   -9.6348 C   0  0  1  0  0  0  0  0  0  0  0  0
   24.5814  -31.1455  -10.5738 O   0  0  0  0  0  0  0  0  0  0  0  0
   25.3399  -33.3479   -9.9250 C   0  0  2  0  0  0  0  0  0  0  0  0
   24.9771  -33.8492  -11.2418 N   0  0  0  0  0  0  0  0  0  0  0  0
   25.1644  -34.4426   -8.9642 C   0  0  0  0  0  0  0  0  0  0  0  0
   24.0741  -35.0261   -8.7423 O   0  0  0  0  0  0  0  0  0  0  0  0
   27.5416  -37.5598   -5.9631 C   0  0  0  0  0  0  0  0  0  0  0  0
   27.5767  -36.4385   -6.9838 C   0  0  1  0  0  0  0  0  0  0  0  0
   28.1894  -36.8377   -8.1491 O   0  0  0  0  0  0  0  0  0  0  0  0
   26.1767  -35.8956   -7.1876 C   0  0  2  0  0  0  0  0  0  0  0  0
   26.2906  -34.8892   -8.2235 N   0  0  0  0  0  0  0  0  0  0  0  0
   25.7222  -35.3139   -5.9027 C   0  0  0  0  0  0  0  0  0  0  0  0
   26.3715  -34.3632   -5.3728 O   0  0  0  0  0  0  0  0  0  0  0  0
   24.5721  -35.7636   -5.2029 N   0  0  0  0  0  0  0  0  0  0  0  0
   24.1294  -35.1776   -3.9554 C   0  0  0  0  0  0  0  0  0  0  0  0
   24.9023  -35.6173   -2.7978 C   0  0  0  0  0  0  0  0  0  0  0  0
   25.7571  -36.5171   -2.9340 O   0  0  0  0  0  0  0  0  0  0  0  0
   24.7140  -35.0634   -1.5496 O   0  0  0  0  0  0  0  0  0  0  0  0
  2  4  1  0
  2  3  1  0
  2  1  1  1
  4  5  1  6
  6  4  1  0
  6 12  1  0
  7  6  2  0
  9  8  1  1
 10  9  1  0
 11 12  1  6
 11  9  1  0
 13 14  2  0
 13 11  1  0
 15 13  1  0
 16 15  1  0
 16 17  1  0
 17 19  1  0
 18 17  2  0
M  END
$$$$
