TTG.pdb
     RDKit          3D

 19 18  0  0  1  0  0  0  0  0999 V2000
   30.2149  -22.3568  -17.4060 C   0  0  0  0  0  0  0  0  0  0  0  0
   28.8036  -22.0171  -17.8556 C   0  0  1  0  0  0  0  0  0  0  0  0
   28.1478  -23.1071  -18.3761 O   0  0  0  0  0  0  0  0  0  0  0  0
   28.0357  -21.3083  -16.7641 C   0  0  2  0  0  0  0  0  0  0  0  0
   27.8819  -22.2362  -15.6541 N   0  0  0  0  0  0  0  0  0  0  0  0
   26.6959  -20.8744  -17.1752 C   0  0  0  0  0  0  0  0  0  0  0  0
   26.4665  -20.0459  -18.0913 O   0  0  0  0  0  0  0  0  0  0  0  0
   21.9443  -21.8281  -17.1814 C   0  0  0  0  0  0  0  0  0  0  0  0
   23.4189  -22.1796  -17.1329 C   0  0  1  0  0  0  0  0  0  0  0  0
   23.8309  -22.7831  -18.2986 O   0  0  0  0  0  0  0  0  0  0  0  0
   24.2215  -20.9467  -16.7695 C   0  0  2  0  0  0  0  0  0  0  0  0
   25.5667  -21.4153  -16.5051 N   0  0  0  0  0  0  0  0  0  0  0  0
   23.6039  -20.3394  -15.5671 C   0  0  0  0  0  0  0  0  0  0  0  0
   24.1149  -20.5369  -14.4242 O   0  0  0  0  0  0  0  0  0  0  0  0
   22.4421  -19.5253  -15.6100 N   0  0  0  0  0  0  0  0  0  0  0  0
   21.9016  -18.8611  -14.4429 C   0  0  0  0  0  0  0  0  0  0  0  0
   20.7305  -18.0382  -14.7301 C   0  0  0  0  0  0  0  0  0  0  0  0
   20.3540  -17.8946  -15.9118 O   0  0  0  0  0  0  0  0  0  0  0  0
   20.0237  -17.4108  -13.7266 O   0  0  0  0  0  0  0  0  0  0  0  0
  2  4  1  0
  2  3  1  0
  2  1  1  1
  4  5  1  1
  6  4  1  0
  6 12  1  0
  7  6  2  0
  9  8  1  6
 10  9  1  0
 11 12  1  1
 11  9  1  0
 13 14  2  0
 13 11  1  0
 15 13  1  0
 16 15  1  0
 16 17  1  0
 17 19  1  0
 18 17  2  0
M  END
$$$$
