TTG.pdb
     RDKit          3D

 19 18  0  0  1  0  0  0  0  0999 V2000
   20.5975  -12.9029  -16.0274 C   0  0  0  0  0  0  0  0  0  0  0  0
   19.1467  -13.0644  -16.4494 C   0  0  1  0  0  0  0  0  0  0  0  0
   18.6527  -14.3103  -16.1444 O   0  0  0  0  0  0  0  0  0  0  0  0
   18.2951  -11.9282  -15.9323 C   0  0  2  0  0  0  0  0  0  0  0  0
   16.9273  -12.1633  -16.3689 N   0  0  0  0  0  0  0  0  0  0  0  0
   18.7058  -10.6115  -16.4324 C   0  0  0  0  0  0  0  0  0  0  0  0
   19.2304  -10.4095  -17.5559 O   0  0  0  0  0  0  0  0  0  0  0  0
   18.3317   -5.8366  -16.3443 C   0  0  0  0  0  0  0  0  0  0  0  0
   17.8749   -7.2146  -15.9049 C   0  0  1  0  0  0  0  0  0  0  0  0
   16.7864   -7.6392  -16.6314 O   0  0  0  0  0  0  0  0  0  0  0  0
   19.0469   -8.1740  -15.9481 C   0  0  2  0  0  0  0  0  0  0  0  0
   18.5056   -9.4738  -15.6065 N   0  0  0  0  0  0  0  0  0  0  0  0
   20.0472   -7.7161  -14.9552 C   0  0  0  0  0  0  0  0  0  0  0  0
   19.7928   -7.7967  -13.7162 O   0  0  0  0  0  0  0  0  0  0  0  0
   21.3113   -7.1764  -15.3090 N   0  0  0  0  0  0  0  0  0  0  0  0
   22.3019   -6.7821  -14.3298 C   0  0  0  0  0  0  0  0  0  0  0  0
   22.0236   -5.4924  -13.7052 C   0  0  0  0  0  0  0  0  0  0  0  0
   21.0311   -4.8310  -14.0746 O   0  0  0  0  0  0  0  0  0  0  0  0
   22.8311   -4.9803  -12.7122 O   0  0  0  0  0  0  0  0  0  0  0  0
  2  4  1  0
  2  3  1  0
  2  1  1  1
  4  5  1  6
  6  4  1  0
  6 12  1  0
  7  6  2  0
  9  8  1  6
 10  9  1  0
 11 12  1  1
 11  9  1  0
 13 14  2  0
 13 11  1  0
 15 13  1  0
 16 15  1  0
 16 17  1  0
 17 19  1  0
 18 17  2  0
M  END
$$$$
