TTG.pdb
     RDKit          3D

 19 18  0  0  1  0  0  0  0  0999 V2000
   21.1242  -11.2978  -18.9145 C   0  0  0  0  0  0  0  0  0  0  0  0
   19.8432  -12.1133  -18.8583 C   0  0  1  0  0  0  0  0  0  0  0  0
   20.0319  -13.4067  -19.2831 O   0  0  0  0  0  0  0  0  0  0  0  0
   19.1845  -12.0075  -17.5024 C   0  0  2  0  0  0  0  0  0  0  0  0
   17.9648  -12.8000  -17.5375 N   0  0  0  0  0  0  0  0  0  0  0  0
   18.8180  -10.6359  -17.1327 C   0  0  0  0  0  0  0  0  0  0  0  0
   18.1672   -9.8513  -17.8669 O   0  0  0  0  0  0  0  0  0  0  0  0
   17.7151   -7.3949  -13.8600 C   0  0  0  0  0  0  0  0  0  0  0  0
   17.9354   -8.7953  -14.3992 C   0  0  1  0  0  0  0  0  0  0  0  0
   16.7537   -9.3682  -14.8093 O   0  0  0  0  0  0  0  0  0  0  0  0
   19.0009   -8.7611  -15.4762 C   0  0  2  0  0  0  0  0  0  0  0  0
   19.2158  -10.1408  -15.8626 N   0  0  0  0  0  0  0  0  0  0  0  0
   20.2209   -8.1570  -14.8908 C   0  0  0  0  0  0  0  0  0  0  0  0
   20.8958   -8.7990  -14.0314 O   0  0  0  0  0  0  0  0  0  0  0  0
   20.7002   -6.8672  -15.2387 N   0  0  0  0  0  0  0  0  0  0  0  0
   21.8539   -6.2592  -14.6103 C   0  0  0  0  0  0  0  0  0  0  0  0
   21.5112   -5.3138  -13.5521 C   0  0  0  0  0  0  0  0  0  0  0  0
   20.3137   -5.0239  -13.3498 O   0  0  0  0  0  0  0  0  0  0  0  0
   22.4788   -4.7280  -12.7643 O   0  0  0  0  0  0  0  0  0  0  0  0
  2  4  1  0
  2  3  1  0
  2  1  1  1
  4  5  1  6
  6  4  1  0
  6 12  1  0
  7  6  2  0
  9  8  1  6
 10  9  1  0
 11 12  1  1
 11  9  1  0
 13 14  2  0
 13 11  1  0
 15 13  1  0
 16 15  1  0
 16 17  1  0
 17 19  1  0
 18 17  2  0
M  END
$$$$
