TTG.pdb
     RDKit          3D

 19 18  0  0  1  0  0  0  0  0999 V2000
   21.0482  -12.1610  -18.2052 C   0  0  0  0  0  0  0  0  0  0  0  0
   21.3636  -11.0812  -17.1836 C   0  0  1  0  0  0  0  0  0  0  0  0
   20.6510  -11.2434  -16.0196 O   0  0  0  0  0  0  0  0  0  0  0  0
   22.8535  -10.9448  -16.9716 C   0  0  2  0  0  0  0  0  0  0  0  0
   23.3351  -12.1870  -16.3868 N   0  0  0  0  0  0  0  0  0  0  0  0
   23.2203   -9.8506  -16.0658 C   0  0  0  0  0  0  0  0  0  0  0  0
   23.5385  -10.0020  -14.8599 O   0  0  0  0  0  0  0  0  0  0  0  0
   23.8843   -6.2342  -17.9401 C   0  0  0  0  0  0  0  0  0  0  0  0
   24.6105   -6.6094  -16.6625 C   0  0  1  0  0  0  0  0  0  0  0  0
   25.1570   -5.5047  -16.0513 O   0  0  0  0  0  0  0  0  0  0  0  0
   23.6812   -7.4030  -15.7665 C   0  0  2  0  0  0  0  0  0  0  0  0
   23.2225   -8.5213  -16.5653 N   0  0  0  0  0  0  0  0  0  0  0  0
   22.5633   -6.5151  -15.3693 C   0  0  0  0  0  0  0  0  0  0  0  0
   21.5687   -6.3652  -16.1403 O   0  0  0  0  0  0  0  0  0  0  0  0
   22.5297   -5.7985  -14.1446 N   0  0  0  0  0  0  0  0  0  0  0  0
   21.3940   -5.0038  -13.7274 C   0  0  0  0  0  0  0  0  0  0  0  0
   21.2378   -3.7663  -14.4858 C   0  0  0  0  0  0  0  0  0  0  0  0
   22.0349   -3.5067  -15.4111 O   0  0  0  0  0  0  0  0  0  0  0  0
   20.2283   -2.8698  -14.2074 O   0  0  0  0  0  0  0  0  0  0  0  0
  2  4  1  0
  2  3  1  0
  2  1  1  6
  4  5  1  1
  6  4  1  0
  6 12  1  0
  7  6  2  0
  9  8  1  6
 10  9  1  0
 11 12  1  6
 11  9  1  0
 13 14  2  0
 13 11  1  0
 15 13  1  0
 16 15  1  0
 16 17  1  0
 17 19  1  0
 18 17  2  0
M  END
$$$$
