TTG.pdb
     RDKit          3D

 19 18  0  0  1  0  0  0  0  0999 V2000
   23.7847  -12.5261  -14.4885 C   0  0  0  0  0  0  0  0  0  0  0  0
   23.3985  -13.3058  -15.7343 C   0  0  1  0  0  0  0  0  0  0  0  0
   23.3583  -14.6608  -15.5074 O   0  0  0  0  0  0  0  0  0  0  0  0
   22.1367  -12.7549  -16.3571 C   0  0  2  0  0  0  0  0  0  0  0  0
   21.8140  -13.5793  -17.5117 N   0  0  0  0  0  0  0  0  0  0  0  0
   22.2662  -11.3681  -16.8181 C   0  0  0  0  0  0  0  0  0  0  0  0
   23.0357  -10.9933  -17.7377 O   0  0  0  0  0  0  0  0  0  0  0  0
   19.7970   -9.3704  -18.3006 C   0  0  0  0  0  0  0  0  0  0  0  0
   20.1513   -8.5993  -17.0434 C   0  0  1  0  0  0  0  0  0  0  0  0
   19.1970   -8.7641  -16.0663 O   0  0  0  0  0  0  0  0  0  0  0  0
   21.5501   -8.9742  -16.5971 C   0  0  2  0  0  0  0  0  0  0  0  0
   21.4770  -10.3646  -16.1963 N   0  0  0  0  0  0  0  0  0  0  0  0
   21.9179   -8.0933  -15.4636 C   0  0  0  0  0  0  0  0  0  0  0  0
   21.6831   -8.4607  -14.2736 O   0  0  0  0  0  0  0  0  0  0  0  0
   22.5352   -6.8256  -15.6256 N   0  0  0  0  0  0  0  0  0  0  0  0
   22.9698   -6.0123  -14.5097 C   0  0  0  0  0  0  0  0  0  0  0  0
   21.9238   -5.1433  -13.9790 C   0  0  0  0  0  0  0  0  0  0  0  0
   20.7818   -5.1763  -14.4826 O   0  0  0  0  0  0  0  0  0  0  0  0
   22.1627   -4.2813  -12.9301 O   0  0  0  0  0  0  0  0  0  0  0  0
  2  4  1  0
  2  3  1  0
  2  1  1  1
  4  5  1  6
  6  4  1  0
  6 12  1  0
  7  6  2  0
  9  8  1  6
 10  9  1  0
 11 12  1  1
 11  9  1  0
 13 14  2  0
 13 11  1  0
 15 13  1  0
 16 15  1  0
 16 17  1  0
 17 19  1  0
 18 17  2  0
M  END
$$$$
