TTG.pdb
     RDKit          3D

 19 18  0  0  1  0  0  0  0  0999 V2000
   20.2109  -14.4285  -17.8404 C   0  0  0  0  0  0  0  0  0  0  0  0
   20.2858  -12.9367  -18.1198 C   0  0  1  0  0  0  0  0  0  0  0  0
   19.1458  -12.4637  -18.7246 O   0  0  0  0  0  0  0  0  0  0  0  0
   20.6833  -12.1660  -16.8822 C   0  0  2  0  0  0  0  0  0  0  0  0
   19.5794  -12.2418  -15.9374 N   0  0  0  0  0  0  0  0  0  0  0  0
   20.9594  -10.7478  -17.1368 C   0  0  0  0  0  0  0  0  0  0  0  0
   21.9044  -10.3237  -17.8477 O   0  0  0  0  0  0  0  0  0  0  0  0
   19.2217   -6.2106  -17.1344 C   0  0  0  0  0  0  0  0  0  0  0  0
   19.0333   -7.7018  -16.9315 C   0  0  1  0  0  0  0  0  0  0  0  0
   18.3363   -8.2674  -17.9742 O   0  0  0  0  0  0  0  0  0  0  0  0
   20.3781   -8.3517  -16.6753 C   0  0  2  0  0  0  0  0  0  0  0  0
   20.1131   -9.7705  -16.5493 N   0  0  0  0  0  0  0  0  0  0  0  0
   20.9284   -7.7811  -15.4232 C   0  0  0  0  0  0  0  0  0  0  0  0
   20.3488   -8.0022  -14.3180 O   0  0  0  0  0  0  0  0  0  0  0  0
   22.0980   -6.9785  -15.3763 N   0  0  0  0  0  0  0  0  0  0  0  0
   22.6621   -6.4792  -14.1402 C   0  0  0  0  0  0  0  0  0  0  0  0
   22.1464   -5.1703  -13.7504 C   0  0  0  0  0  0  0  0  0  0  0  0
   21.3252   -4.5875  -14.4886 O   0  0  0  0  0  0  0  0  0  0  0  0
   22.5430   -4.5552  -12.5823 O   0  0  0  0  0  0  0  0  0  0  0  0
  2  4  1  0
  2  3  1  0
  2  1  1  1
  4  5  1  1
  6  4  1  0
  6 12  1  0
  7  6  2  0
  9  8  1  6
 10  9  1  0
 11 12  1  1
 11  9  1  0
 13 14  2  0
 13 11  1  0
 15 13  1  0
 16 15  1  0
 16 17  1  0
 17 19  1  0
 18 17  2  0
M  END
$$$$
