MLK.pdb
     RDKit          3D

 26 25  0  0  1  0  0  0  0  0999 V2000
    7.1088  -11.1905   27.0623 C   0  0  0  0  0  0  0  0  0  0  0  0
    7.6612  -12.7445   27.8158 S   0  0  0  0  0  0  0  0  0  0  0  0
    6.8310  -14.1702   27.0590 C   0  0  0  0  0  0  0  0  0  0  0  0
    7.6598  -14.5988   25.8469 C   0  0  0  0  0  0  0  0  0  0  0  0
    6.8800  -15.7201   25.1926 C   0  0  2  0  0  0  0  0  0  0  0  0
    6.7962  -16.8607   26.0854 N   0  0  0  0  0  0  0  0  0  0  0  0
    7.4832  -16.1251   23.8847 C   0  0  0  0  0  0  0  0  0  0  0  0
    7.5471  -17.3382   23.5398 O   0  0  0  0  0  0  0  0  0  0  0  0
    7.7967  -12.1717   20.0029 C   0  0  0  0  0  0  0  0  0  0  0  0
    7.5482  -13.4429   20.7878 C   0  0  1  0  0  0  0  0  0  0  0  0
    6.4308  -14.1641   19.9940 C   0  0  0  0  0  0  0  0  0  0  0  0
    8.6998  -14.3629   20.8049 C   0  0  0  0  0  0  0  0  0  0  0  0
    8.5658  -15.5892   21.6602 C   0  0  2  0  0  0  0  0  0  0  0  0
    8.0066  -15.1746   22.9781 N   0  0  0  0  0  0  0  0  0  0  0  0
    9.9090  -16.1258   21.9458 C   0  0  0  0  0  0  0  0  0  0  0  0
   10.5164  -16.6708   20.9525 O   0  0  0  0  0  0  0  0  0  0  0  0
   10.5802  -16.0930   23.1800 N   0  0  0  0  0  0  0  0  0  0  0  0
   11.9130  -16.7906   23.2913 C   0  0  1  0  0  0  0  0  0  0  0  0
   12.8787  -15.6581   23.2295 C   0  0  0  0  0  0  0  0  0  0  0  0
   14.2938  -15.7943   23.5120 C   0  0  0  0  0  0  0  0  0  0  0  0
   15.3318  -15.6081   22.4833 C   0  0  0  0  0  0  0  0  0  0  0  0
   16.7178  -15.7793   23.1717 C   0  0  0  0  0  0  0  0  0  0  0  0
   17.7685  -15.6848   22.1728 N   0  0  0  0  0  0  0  0  0  0  0  0
   11.8239  -17.4928   24.5823 C   0  0  0  0  0  0  0  0  0  0  0  0
   12.7683  -18.5077   24.8570 O   0  0  0  0  0  0  0  0  0  0  0  0
   10.9463  -17.2540   25.4833 O   0  0  0  0  0  0  0  0  0  0  0  0
  2  1  1  0
  3  2  1  0
  4  3  1  0
  4  5  1  0
  5  6  1  1
  7  5  1  0
  7  8  2  0
 10 11  1  6
 10  9  1  0
 12 10  1  0
 13 12  1  6
 13 14  1  0
 14  7  1  0
 15 13  1  0
 16 15  2  0
 17 15  1  0
 18 24  1  0
 18 17  1  0
 18 19  1  1
 20 19  1  0
 21 20  1  0
 22 21  1  0
 23 22  1  0
 24 25  1  0
 26 24  2  0
M  END
$$$$
