MLK.pdb
     RDKit          3D

 26 25  0  0  1  0  0  0  0  0999 V2000
    5.9585  -10.8893   26.6810 C   0  0  0  0  0  0  0  0  0  0  0  0
    6.1445  -12.1094   28.0095 S   0  0  0  0  0  0  0  0  0  0  0  0
    5.8480  -13.7926   27.3984 C   0  0  0  0  0  0  0  0  0  0  0  0
    6.8283  -14.0484   26.2523 C   0  0  0  0  0  0  0  0  0  0  0  0
    6.3929  -15.3559   25.6244 C   0  0  2  0  0  0  0  0  0  0  0  0
    6.6028  -16.4523   26.5513 N   0  0  0  0  0  0  0  0  0  0  0  0
    7.1081  -15.6178   24.3366 C   0  0  0  0  0  0  0  0  0  0  0  0
    7.5925  -16.7544   24.0750 O   0  0  0  0  0  0  0  0  0  0  0  0
    7.6661  -14.5792   18.9019 C   0  0  0  0  0  0  0  0  0  0  0  0
    8.4780  -13.7448   19.8705 C   0  0  1  0  0  0  0  0  0  0  0  0
    8.4179  -12.3147   19.2788 C   0  0  0  0  0  0  0  0  0  0  0  0
    7.8858  -13.6576   21.2177 C   0  0  0  0  0  0  0  0  0  0  0  0
    7.9426  -14.9009   22.0569 C   0  0  2  0  0  0  0  0  0  0  0  0
    7.2744  -14.6115   23.3574 N   0  0  0  0  0  0  0  0  0  0  0  0
    9.3492  -15.1956   22.3859 C   0  0  0  0  0  0  0  0  0  0  0  0
    9.8913  -14.4276   23.2627 O   0  0  0  0  0  0  0  0  0  0  0  0
   10.1392  -16.2242   21.8449 N   0  0  0  0  0  0  0  0  0  0  0  0
   11.4904  -16.4910   22.4602 C   0  0  1  0  0  0  0  0  0  0  0  0
   11.2754  -17.7836   23.1686 C   0  0  0  0  0  0  0  0  0  0  0  0
   11.3230  -17.9258   24.6103 C   0  0  0  0  0  0  0  0  0  0  0  0
   11.2090  -19.2303   25.2852 C   0  0  0  0  0  0  0  0  0  0  0  0
   11.3609  -18.9874   26.8156 C   0  0  0  0  0  0  0  0  0  0  0  0
   10.4636  -19.8736   27.5370 N   0  0  0  0  0  0  0  0  0  0  0  0
   12.3922  -16.5350   21.2972 C   0  0  0  0  0  0  0  0  0  0  0  0
   13.7629  -16.2602   21.5044 O   0  0  0  0  0  0  0  0  0  0  0  0
   12.0261  -16.8032   20.1001 O   0  0  0  0  0  0  0  0  0  0  0  0
  2  1  1  0
  3  2  1  0
  4  3  1  0
  4  5  1  0
  5  6  1  1
  7  5  1  0
  7  8  2  0
 10 11  1  6
 10  9  1  0
 12 10  1  0
 13 12  1  6
 13 14  1  0
 14  7  1  0
 15 13  1  0
 16 15  2  0
 17 15  1  0
 18 24  1  0
 18 17  1  0
 18 19  1  6
 20 19  1  0
 21 20  1  0
 22 21  1  0
 23 22  1  0
 24 25  1  0
 26 24  2  0
M  END
$$$$
