MLK.pdb
     RDKit          3D

 26 25  0  0  1  0  0  0  0  0999 V2000
    8.3532  -11.6465   19.1623 C   0  0  0  0  0  0  0  0  0  0  0  0
    7.8223  -13.0463   18.1394 S   0  0  0  0  0  0  0  0  0  0  0  0
    7.6116  -14.5457   19.1405 C   0  0  0  0  0  0  0  0  0  0  0  0
    8.1438  -14.2448   20.5427 C   0  0  0  0  0  0  0  0  0  0  0  0
    7.9288  -15.5119   21.3436 C   0  0  2  0  0  0  0  0  0  0  0  0
    6.5295  -15.8941   21.3124 N   0  0  0  0  0  0  0  0  0  0  0  0
    8.3965  -15.3606   22.7567 C   0  0  0  0  0  0  0  0  0  0  0  0
    9.6082  -15.5323   23.0683 O   0  0  0  0  0  0  0  0  0  0  0  0
    5.7117  -11.8849   26.4328 C   0  0  0  0  0  0  0  0  0  0  0  0
    6.7769  -12.5777   25.6086 C   0  0  1  0  0  0  0  0  0  0  0  0
    8.0955  -11.8904   26.0419 C   0  0  0  0  0  0  0  0  0  0  0  0
    6.9349  -14.0082   25.9271 C   0  0  0  0  0  0  0  0  0  0  0  0
    8.0083  -14.7467   25.1816 C   0  0  2  0  0  0  0  0  0  0  0  0
    7.5096  -15.0200   23.8039 N   0  0  0  0  0  0  0  0  0  0  0  0
    8.2059  -16.0677   25.8057 C   0  0  0  0  0  0  0  0  0  0  0  0
    7.1846  -16.8484   25.7979 O   0  0  0  0  0  0  0  0  0  0  0  0
    9.3880  -16.5492   26.3934 N   0  0  0  0  0  0  0  0  0  0  0  0
    9.3883  -17.9444   26.9668 C   0  0  1  0  0  0  0  0  0  0  0  0
    9.9698  -18.7513   25.8579 C   0  0  0  0  0  0  0  0  0  0  0  0
   10.3193  -20.1524   25.9832 C   0  0  0  0  0  0  0  0  0  0  0  0
   11.0352  -20.8910   24.9286 C   0  0  0  0  0  0  0  0  0  0  0  0
   11.2266  -22.3555   25.4217 C   0  0  0  0  0  0  0  0  0  0  0  0
   11.9005  -23.1279   24.3922 N   0  0  0  0  0  0  0  0  0  0  0  0
   10.2189  -17.8163   28.1757 C   0  0  0  0  0  0  0  0  0  0  0  0
   10.1263  -18.8267   29.1596 O   0  0  0  0  0  0  0  0  0  0  0  0
   11.0248  -16.8490   28.4078 O   0  0  0  0  0  0  0  0  0  0  0  0
  2  1  1  0
  3  2  1  0
  4  3  1  0
  4  5  1  0
  5  6  1  1
  7  5  1  0
  7  8  2  0
 10 11  1  1
 10  9  1  0
 12 10  1  0
 13 12  1  1
 13 14  1  0
 14  7  1  0
 15 13  1  0
 16 15  2  0
 17 15  1  0
 18 24  1  0
 18 17  1  0
 18 19  1  6
 20 19  1  0
 21 20  1  0
 22 21  1  0
 23 22  1  0
 24 25  1  0
 26 24  2  0
M  END
$$$$
