MLK.pdb
     RDKit          3D

 26 25  0  0  1  0  0  0  0  0999 V2000
    7.2728  -11.9044   18.6412 C   0  0  0  0  0  0  0  0  0  0  0  0
    8.5212  -13.2090   18.8071 S   0  0  0  0  0  0  0  0  0  0  0  0
    8.1701  -14.2730   20.2351 C   0  0  0  0  0  0  0  0  0  0  0  0
    9.2316  -15.3741   20.2641 C   0  0  0  0  0  0  0  0  0  0  0  0
    8.9061  -16.2258   21.4732 C   0  0  2  0  0  0  0  0  0  0  0  0
    7.5289  -16.6782   21.4124 N   0  0  0  0  0  0  0  0  0  0  0  0
    9.1578  -15.4919   22.7524 C   0  0  0  0  0  0  0  0  0  0  0  0
   10.3307  -15.2131   23.1286 O   0  0  0  0  0  0  0  0  0  0  0  0
    8.2063  -11.6052   26.4562 C   0  0  0  0  0  0  0  0  0  0  0  0
    7.2195  -12.7541   26.4552 C   0  0  1  0  0  0  0  0  0  0  0  0
    5.8391  -12.0660   26.5955 C   0  0  0  0  0  0  0  0  0  0  0  0
    7.1801  -13.4996   25.1841 C   0  0  0  0  0  0  0  0  0  0  0  0
    8.3679  -14.3644   24.8767 C   0  0  2  0  0  0  0  0  0  0  0  0
    8.1010  -15.0778   23.5955 N   0  0  0  0  0  0  0  0  0  0  0  0
    8.4772  -15.4152   25.9051 C   0  0  0  0  0  0  0  0  0  0  0  0
    8.6268  -15.0020   27.1131 O   0  0  0  0  0  0  0  0  0  0  0  0
    8.4279  -16.8036   25.6940 N   0  0  0  0  0  0  0  0  0  0  0  0
    8.5003  -17.7154   26.8935 C   0  0  1  0  0  0  0  0  0  0  0  0
    7.6172  -18.8469   26.4954 C   0  0  0  0  0  0  0  0  0  0  0  0
    7.4464  -20.0484   27.2879 C   0  0  0  0  0  0  0  0  0  0  0  0
    6.7013  -21.2227   26.8020 C   0  0  0  0  0  0  0  0  0  0  0  0
    6.7446  -22.3071   27.9185 C   0  0  0  0  0  0  0  0  0  0  0  0
    6.1525  -23.5370   27.4208 N   0  0  0  0  0  0  0  0  0  0  0  0
    9.9358  -18.0242   27.0012 C   0  0  0  0  0  0  0  0  0  0  0  0
   10.7236  -17.9540   25.8300 O   0  0  0  0  0  0  0  0  0  0  0  0
   10.5309  -18.3573   28.0847 O   0  0  0  0  0  0  0  0  0  0  0  0
  2  1  1  0
  3  2  1  0
  4  3  1  0
  4  5  1  0
  5  6  1  6
  7  5  1  0
  7  8  2  0
 10 11  1  6
 10  9  1  0
 12 10  1  0
 13 12  1  1
 13 14  1  0
 14  7  1  0
 15 13  1  0
 16 15  2  0
 17 15  1  0
 18 24  1  0
 18 17  1  0
 18 19  1  6
 20 19  1  0
 21 20  1  0
 22 21  1  0
 23 22  1  0
 24 25  1  0
 26 24  2  0
M  END
$$$$
