MLK.pdb
     RDKit          3D

 26 25  0  0  1  0  0  0  0  0999 V2000
    4.5356  -19.5139   19.2316 C   0  0  0  0  0  0  0  0  0  0  0  0
    3.4952  -19.8153   20.6858 S   0  0  0  0  0  0  0  0  0  0  0  0
    4.4538  -19.6621   22.2195 C   0  0  0  0  0  0  0  0  0  0  0  0
    5.1343  -18.2922   22.2052 C   0  0  0  0  0  0  0  0  0  0  0  0
    6.1236  -18.3137   23.3517 C   0  0  2  0  0  0  0  0  0  0  0  0
    5.4675  -18.7422   24.5728 N   0  0  0  0  0  0  0  0  0  0  0  0
    6.7727  -16.9802   23.5490 C   0  0  0  0  0  0  0  0  0  0  0  0
    7.4699  -16.4494   22.6397 O   0  0  0  0  0  0  0  0  0  0  0  0
    7.0052  -11.7645   25.2048 C   0  0  0  0  0  0  0  0  0  0  0  0
    7.0199  -12.8166   26.2942 C   0  0  1  0  0  0  0  0  0  0  0  0
    6.0536  -12.2601   27.3692 C   0  0  0  0  0  0  0  0  0  0  0  0
    6.4622  -14.1141   25.8720 C   0  0  0  0  0  0  0  0  0  0  0  0
    7.3086  -14.9386   24.9462 C   0  0  2  0  0  0  0  0  0  0  0  0
    6.6368  -16.2553   24.7553 N   0  0  0  0  0  0  0  0  0  0  0  0
    8.5933  -15.2360   25.6054 C   0  0  0  0  0  0  0  0  0  0  0  0
    9.3691  -14.2294   25.7986 O   0  0  0  0  0  0  0  0  0  0  0  0
    9.0405  -16.4949   26.0413 N   0  0  0  0  0  0  0  0  0  0  0  0
   10.5063  -16.6678   26.3529 C   0  0  1  0  0  0  0  0  0  0  0  0
   11.1650  -16.0884   25.1491 C   0  0  0  0  0  0  0  0  0  0  0  0
   12.5875  -15.8239   25.0623 C   0  0  0  0  0  0  0  0  0  0  0  0
   13.4937  -16.6166   24.2134 C   0  0  0  0  0  0  0  0  0  0  0  0
   14.9439  -16.1082   24.4637 C   0  0  0  0  0  0  0  0  0  0  0  0
   15.8838  -16.9612   23.7566 N   0  0  0  0  0  0  0  0  0  0  0  0
   10.6793  -15.9168   27.6074 C   0  0  0  0  0  0  0  0  0  0  0  0
   11.8207  -16.1875   28.3957 O   0  0  0  0  0  0  0  0  0  0  0  0
    9.8659  -15.0302   28.0448 O   0  0  0  0  0  0  0  0  0  0  0  0
  2  1  1  0
  3  2  1  0
  4  3  1  0
  4  5  1  0
  5  6  1  1
  7  5  1  0
  7  8  2  0
 10 11  1  1
 10  9  1  0
 12 10  1  0
 13 12  1  1
 13 14  1  0
 14  7  1  0
 15 13  1  0
 16 15  2  0
 17 15  1  0
 18 24  1  0
 18 17  1  0
 18 19  1  6
 20 19  1  0
 21 20  1  0
 22 21  1  0
 23 22  1  0
 24 25  1  0
 26 24  2  0
M  END
$$$$
