MLK.pdb
     RDKit          3D

 26 25  0  0  1  0  0  0  0  0999 V2000
    6.5901  -18.8401   20.1219 C   0  0  0  0  0  0  0  0  0  0  0  0
    6.4446  -17.7504   18.6799 S   0  0  0  0  0  0  0  0  0  0  0  0
    6.6682  -16.0111   19.1487 C   0  0  0  0  0  0  0  0  0  0  0  0
    7.4647  -15.9823   20.4543 C   0  0  0  0  0  0  0  0  0  0  0  0
    7.4176  -14.5459   20.9319 C   0  0  2  0  0  0  0  0  0  0  0  0
    8.0147  -13.6683   19.9427 N   0  0  0  0  0  0  0  0  0  0  0  0
    8.0965  -14.3789   22.2546 C   0  0  0  0  0  0  0  0  0  0  0  0
    9.3454  -14.2088   22.3337 O   0  0  0  0  0  0  0  0  0  0  0  0
    5.4063  -12.2800   26.7594 C   0  0  0  0  0  0  0  0  0  0  0  0
    6.4715  -12.5632   25.7207 C   0  0  1  0  0  0  0  0  0  0  0  0
    7.6127  -11.5767   26.0719 C   0  0  0  0  0  0  0  0  0  0  0  0
    7.0512  -13.9149   25.8203 C   0  0  0  0  0  0  0  0  0  0  0  0
    8.0724  -14.2846   24.7840 C   0  0  2  0  0  0  0  0  0  0  0  0
    7.3766  -14.4031   23.4712 N   0  0  0  0  0  0  0  0  0  0  0  0
    8.5958  -15.6301   25.0829 C   0  0  0  0  0  0  0  0  0  0  0  0
    7.7593  -16.5974   24.9525 O   0  0  0  0  0  0  0  0  0  0  0  0
    9.9037  -15.9509   25.4846 N   0  0  0  0  0  0  0  0  0  0  0  0
   10.2563  -17.4034   25.6885 C   0  0  1  0  0  0  0  0  0  0  0  0
   11.4270  -17.5836   24.7853 C   0  0  0  0  0  0  0  0  0  0  0  0
   12.2164  -18.7978   24.7279 C   0  0  0  0  0  0  0  0  0  0  0  0
   13.4173  -18.9267   23.8845 C   0  0  0  0  0  0  0  0  0  0  0  0
   14.0037  -20.3515   24.1087 C   0  0  0  0  0  0  0  0  0  0  0  0
   15.1704  -20.5328   23.2621 N   0  0  0  0  0  0  0  0  0  0  0  0
   10.5359  -17.4872   27.1317 C   0  0  0  0  0  0  0  0  0  0  0  0
   10.4128  -16.3107   27.9050 O   0  0  0  0  0  0  0  0  0  0  0  0
   10.8879  -18.5540   27.7456 O   0  0  0  0  0  0  0  0  0  0  0  0
  2  1  1  0
  3  2  1  0
  4  3  1  0
  4  5  1  0
  5  6  1  6
  7  5  1  0
  7  8  2  0
 10 11  1  1
 10  9  1  0
 12 10  1  0
 13 12  1  1
 13 14  1  0
 14  7  1  0
 15 13  1  0
 16 15  2  0
 17 15  1  0
 18 24  1  0
 18 17  1  0
 18 19  1  6
 20 19  1  0
 21 20  1  0
 22 21  1  0
 23 22  1  0
 24 25  1  0
 26 24  2  0
M  END
$$$$
