MLK.pdb
     RDKit          3D

 26 25  0  0  1  0  0  0  0  0999 V2000
    7.3113  -12.4665   16.7181 C   0  0  0  0  0  0  0  0  0  0  0  0
    8.3455  -12.6519   18.1959 S   0  0  0  0  0  0  0  0  0  0  0  0
    7.6330  -13.8623   19.3457 C   0  0  0  0  0  0  0  0  0  0  0  0
    8.6161  -14.0341   20.5049 C   0  0  0  0  0  0  0  0  0  0  0  0
    8.0955  -15.2033   21.3144 C   0  0  2  0  0  0  0  0  0  0  0  0
    6.6488  -15.2697   21.2271 N   0  0  0  0  0  0  0  0  0  0  0  0
    8.5285  -15.1242   22.7443 C   0  0  0  0  0  0  0  0  0  0  0  0
    9.7491  -15.1773   23.0637 O   0  0  0  0  0  0  0  0  0  0  0  0
    5.5852  -12.1353   26.5457 C   0  0  0  0  0  0  0  0  0  0  0  0
    6.6813  -12.7411   25.6941 C   0  0  1  0  0  0  0  0  0  0  0  0
    7.9595  -11.9818   26.1281 C   0  0  0  0  0  0  0  0  0  0  0  0
    6.9328  -14.1656   25.9780 C   0  0  0  0  0  0  0  0  0  0  0  0
    8.0468  -14.8159   25.2102 C   0  0  2  0  0  0  0  0  0  0  0  0
    7.5973  -14.9868   23.7994 N   0  0  0  0  0  0  0  0  0  0  0  0
    8.2586  -16.1788   25.7311 C   0  0  0  0  0  0  0  0  0  0  0  0
    7.2114  -16.9214   25.7970 O   0  0  0  0  0  0  0  0  0  0  0  0
    9.4787  -16.7362   26.1500 N   0  0  0  0  0  0  0  0  0  0  0  0
    9.4660  -18.1158   26.7599 C   0  0  1  0  0  0  0  0  0  0  0  0
    9.9833  -18.9659   25.6515 C   0  0  0  0  0  0  0  0  0  0  0  0
   10.2827  -20.3768   25.7953 C   0  0  0  0  0  0  0  0  0  0  0  0
   10.9319  -21.1645   24.7331 C   0  0  0  0  0  0  0  0  0  0  0  0
   11.0206  -22.6396   25.2235 C   0  0  0  0  0  0  0  0  0  0  0  0
   11.7183  -23.4380   24.2302 N   0  0  0  0  0  0  0  0  0  0  0  0
   10.3460  -17.9786   27.9324 C   0  0  0  0  0  0  0  0  0  0  0  0
   10.2634  -18.9584   28.9475 O   0  0  0  0  0  0  0  0  0  0  0  0
   11.1869  -17.0290   28.1060 O   0  0  0  0  0  0  0  0  0  0  0  0
  2  1  1  0
  3  2  1  0
  4  3  1  0
  4  5  1  0
  5  6  1  1
  7  5  1  0
  7  8  2  0
 10 11  1  1
 10  9  1  0
 12 10  1  0
 13 12  1  1
 13 14  1  0
 14  7  1  0
 15 13  1  0
 16 15  2  0
 17 15  1  0
 18 24  1  0
 18 17  1  0
 18 19  1  6
 20 19  1  0
 21 20  1  0
 22 21  1  0
 23 22  1  0
 24 25  1  0
 26 24  2  0
M  END
$$$$
