MLK.pdb
     RDKit          3D

 26 25  0  0  1  0  0  0  0  0999 V2000
    8.2712  -11.4202   19.5195 C   0  0  0  0  0  0  0  0  0  0  0  0
    7.8221  -12.7784   18.4054 S   0  0  0  0  0  0  0  0  0  0  0  0
    7.8960  -14.3779   19.2604 C   0  0  0  0  0  0  0  0  0  0  0  0
    8.3532  -14.1146   20.6962 C   0  0  0  0  0  0  0  0  0  0  0  0
    8.3514  -15.4652   21.3813 C   0  0  2  0  0  0  0  0  0  0  0  0
    7.0269  -16.0549   21.3249 N   0  0  0  0  0  0  0  0  0  0  0  0
    8.8189  -15.3682   22.7992 C   0  0  0  0  0  0  0  0  0  0  0  0
   10.0454  -15.4386   23.0915 O   0  0  0  0  0  0  0  0  0  0  0  0
    5.7501  -12.4770   26.5781 C   0  0  0  0  0  0  0  0  0  0  0  0
    6.9316  -12.9879   25.7801 C   0  0  1  0  0  0  0  0  0  0  0  0
    8.1240  -12.1384   26.2856 C   0  0  0  0  0  0  0  0  0  0  0  0
    7.2767  -14.3921   26.0662 C   0  0  0  0  0  0  0  0  0  0  0  0
    8.4009  -14.9829   25.2659 C   0  0  2  0  0  0  0  0  0  0  0  0
    7.9152  -15.1938   23.8726 N   0  0  0  0  0  0  0  0  0  0  0  0
    8.7107  -16.3257   25.7898 C   0  0  0  0  0  0  0  0  0  0  0  0
    7.8695  -17.2506   25.4908 O   0  0  0  0  0  0  0  0  0  0  0  0
    9.8243  -16.6861   26.5676 N   0  0  0  0  0  0  0  0  0  0  0  0
   10.1107  -18.1524   26.7755 C   0  0  1  0  0  0  0  0  0  0  0  0
   11.0705  -18.4549   25.6772 C   0  0  0  0  0  0  0  0  0  0  0  0
   11.1251  -19.7288   24.9879 C   0  0  0  0  0  0  0  0  0  0  0  0
   12.3886  -20.3316   24.5293 C   0  0  0  0  0  0  0  0  0  0  0  0
   12.0378  -21.6333   23.7504 C   0  0  0  0  0  0  0  0  0  0  0  0
   13.2627  -22.2718   23.2998 N   0  0  0  0  0  0  0  0  0  0  0  0
   10.6570  -18.2030   28.1418 C   0  0  0  0  0  0  0  0  0  0  0  0
   10.9116  -16.9811   28.8047 O   0  0  0  0  0  0  0  0  0  0  0  0
   10.9242  -19.2795   28.7811 O   0  0  0  0  0  0  0  0  0  0  0  0
  2  1  1  0
  3  2  1  0
  4  3  1  0
  4  5  1  0
  5  6  1  1
  7  5  1  0
  7  8  2  0
 10 11  1  1
 10  9  1  0
 12 10  1  0
 13 12  1  1
 13 14  1  0
 14  7  1  0
 15 13  1  0
 16 15  2  0
 17 15  1  0
 18 24  1  0
 18 17  1  0
 18 19  1  6
 20 19  1  0
 21 20  1  0
 22 21  1  0
 23 22  1  0
 24 25  1  0
 26 24  2  0
M  END
$$$$
