LAH.pdb
     RDKit          3D

 24 24  0  0  1  0  0  0  0  0999 V2000
    8.3967  -12.3248   18.4030 C   0  0  0  0  0  0  0  0  0  0  0  0
    8.0484  -13.5043   19.2741 C   0  0  2  0  0  0  0  0  0  0  0  0
    7.2915  -13.0895   20.5146 C   0  0  0  0  0  0  0  0  0  0  0  0
    9.3469  -14.2066   19.6178 C   0  0  0  0  0  0  0  0  0  0  0  0
    9.9687  -14.6329   18.3074 C   0  0  2  0  0  0  0  0  0  0  0  0
    9.0740  -15.5998   17.7057 N   0  0  0  0  0  0  0  0  0  0  0  0
   11.2842  -15.2861   18.4975 C   0  0  0  0  0  0  0  0  0  0  0  0
   11.3152  -16.4815   18.8933 O   0  0  0  0  0  0  0  0  0  0  0  0
   14.9332  -14.5571   17.8009 C   0  0  0  0  0  0  0  0  0  0  0  0
   13.8062  -15.3039   18.5277 C   0  0  2  0  0  0  0  0  0  0  0  0
   12.5285  -14.6517   18.2622 N   0  0  0  0  0  0  0  0  0  0  0  0
   14.0951  -15.1828   19.9706 C   0  0  0  0  0  0  0  0  0  0  0  0
   13.9094  -14.0916   20.5536 O   0  0  0  0  0  0  0  0  0  0  0  0
   14.5905  -16.2668   20.7771 N   0  0  0  0  0  0  0  0  0  0  0  0
   14.9545  -16.0514   22.1635 C   0  0  1  0  0  0  0  0  0  0  0  0
   14.3680  -17.0118   23.1274 C   0  0  0  0  0  0  0  0  0  0  0  0
   12.9062  -16.9306   23.3091 C   0  0  0  0  0  0  0  0  0  0  0  0
   11.9998  -15.9544   23.0008 C   0  0  0  0  0  0  0  0  0  0  0  0
   10.7804  -16.4369   23.3684 N   0  0  0  0  0  0  0  0  0  0  0  0
   10.9120  -17.6610   23.8841 C   0  0  0  0  0  0  0  0  0  0  0  0
   12.1978  -17.9712   23.8531 N   0  0  0  0  0  0  0  0  0  0  0  0
   16.4360  -15.9705   22.3179 C   0  0  0  0  0  0  0  0  0  0  0  0
   17.0351  -15.6804   23.5279 O   0  0  0  0  0  0  0  0  0  0  0  0
   17.1346  -16.1775   21.2995 O   0  0  0  0  0  0  0  0  0  0  0  0
  2  1  1  6
  3  2  1  0
  4  5  1  0
  4  2  1  0
  5  6  1  1
  5  7  1  0
  7  8  2  0
 10  9  1  6
 10 12  1  0
 11  7  1  0
 11 10  1  0
 12 14  1  0
 13 12  2  0
 14 15  1  0
 15 22  1  0
 15 16  1  1
 17 16  1  0
 18 17  2  0
 19 18  1  0
 20 19  1  0
 20 21  2  0
 21 17  1  0
 22 23  1  0
 24 22  2  0
M  END
$$$$
