LAH.pdb
     RDKit          3D

 24 24  0  0  1  0  0  0  0  0999 V2000
    6.3855  -13.6971   18.2919 C   0  0  0  0  0  0  0  0  0  0  0  0
    7.7095  -14.3376   17.9630 C   0  0  2  0  0  0  0  0  0  0  0  0
    7.5543  -15.5112   17.0237 C   0  0  0  0  0  0  0  0  0  0  0  0
    8.3462  -14.7499   19.2754 C   0  0  0  0  0  0  0  0  0  0  0  0
    8.3816  -13.5148   20.1465 C   0  0  2  0  0  0  0  0  0  0  0  0
    9.3512  -12.6103   19.5642 N   0  0  0  0  0  0  0  0  0  0  0  0
    8.8141  -13.8171   21.5302 C   0  0  0  0  0  0  0  0  0  0  0  0
   10.0416  -13.9833   21.7585 O   0  0  0  0  0  0  0  0  0  0  0  0
    7.2377  -14.0235   24.9802 C   0  0  0  0  0  0  0  0  0  0  0  0
    8.3982  -14.1917   23.9897 C   0  0  2  0  0  0  0  0  0  0  0  0
    7.9312  -13.9344   22.6317 N   0  0  0  0  0  0  0  0  0  0  0  0
    8.8113  -15.6067   24.0752 C   0  0  0  0  0  0  0  0  0  0  0  0
    8.1335  -16.4892   23.5036 O   0  0  0  0  0  0  0  0  0  0  0  0
    9.9756  -16.0541   24.7929 N   0  0  0  0  0  0  0  0  0  0  0  0
   10.3145  -17.4623   24.8490 C   0  0  1  0  0  0  0  0  0  0  0  0
   11.6002  -17.8288   24.2102 C   0  0  0  0  0  0  0  0  0  0  0  0
   11.6924  -17.5805   22.7589 C   0  0  0  0  0  0  0  0  0  0  0  0
   10.8170  -17.8131   21.7345 C   0  0  0  0  0  0  0  0  0  0  0  0
   11.4226  -17.3544   20.6042 N   0  0  0  0  0  0  0  0  0  0  0  0
   12.6241  -16.8550   20.9024 C   0  0  0  0  0  0  0  0  0  0  0  0
   12.7986  -16.9867   22.2072 N   0  0  0  0  0  0  0  0  0  0  0  0
   10.2451  -17.9706   26.2497 C   0  0  0  0  0  0  0  0  0  0  0  0
   10.4787  -19.2948   26.5646 O   0  0  0  0  0  0  0  0  0  0  0  0
    9.9640  -17.1464   27.1495 O   0  0  0  0  0  0  0  0  0  0  0  0
  2  1  1  1
  3  2  1  0
  4  5  1  0
  4  2  1  0
  5  6  1  6
  5  7  1  0
  7  8  2  0
 10  9  1  1
 10 12  1  0
 11  7  1  0
 11 10  1  0
 12 14  1  0
 13 12  2  0
 14 15  1  0
 15 22  1  0
 15 16  1  1
 17 16  1  0
 18 17  2  0
 19 18  1  0
 20 19  1  0
 20 21  2  0
 21 17  1  0
 22 23  1  0
 24 22  2  0
M  END
$$$$
