LAH.pdb
     RDKit          3D

 24 24  0  0  1  0  0  0  0  0999 V2000
    8.6316  -13.4013   18.1461 C   0  0  0  0  0  0  0  0  0  0  0  0
    7.3999  -13.4535   19.0132 C   0  0  2  0  0  0  0  0  0  0  0  0
    6.4736  -12.2880   18.7537 C   0  0  0  0  0  0  0  0  0  0  0  0
    7.8676  -13.4883   20.4546 C   0  0  0  0  0  0  0  0  0  0  0  0
    8.7276  -14.7230   20.6012 C   0  0  2  0  0  0  0  0  0  0  0  0
    7.8802  -15.8667   20.3343 N   0  0  0  0  0  0  0  0  0  0  0  0
    9.2706  -14.8683   21.9714 C   0  0  0  0  0  0  0  0  0  0  0  0
    9.9120  -13.9076   22.4737 O   0  0  0  0  0  0  0  0  0  0  0  0
    8.6332  -17.0003   24.9657 C   0  0  0  0  0  0  0  0  0  0  0  0
    9.5719  -16.0975   24.1532 C   0  0  2  0  0  0  0  0  0  0  0  0
    9.1171  -16.0289   22.7687 N   0  0  0  0  0  0  0  0  0  0  0  0
   10.8942  -16.7542   24.1725 C   0  0  0  0  0  0  0  0  0  0  0  0
   11.5722  -16.7587   25.2239 O   0  0  0  0  0  0  0  0  0  0  0  0
   11.4745  -17.4093   23.0303 N   0  0  0  0  0  0  0  0  0  0  0  0
   12.8983  -17.6747   22.9735 C   0  0  1  0  0  0  0  0  0  0  0  0
   13.7530  -16.4888   22.7315 C   0  0  0  0  0  0  0  0  0  0  0  0
   13.5473  -15.7982   21.4442 C   0  0  0  0  0  0  0  0  0  0  0  0
   12.6106  -15.9580   20.4609 C   0  0  0  0  0  0  0  0  0  0  0  0
   12.8909  -15.0221   19.5120 N   0  0  0  0  0  0  0  0  0  0  0  0
   13.9547  -14.3050   19.8804 C   0  0  0  0  0  0  0  0  0  0  0  0
   14.3615  -14.7670   21.0516 N   0  0  0  0  0  0  0  0  0  0  0  0
   13.3480  -18.4248   24.1819 C   0  0  0  0  0  0  0  0  0  0  0  0
   14.6373  -18.9015   24.3148 O   0  0  0  0  0  0  0  0  0  0  0  0
   12.5070  -18.6135   25.0903 O   0  0  0  0  0  0  0  0  0  0  0  0
  2  1  1  6
  3  2  1  0
  4  5  1  0
  4  2  1  0
  5  6  1  1
  5  7  1  0
  7  8  2  0
 10  9  1  1
 10 12  1  0
 11  7  1  0
 11 10  1  0
 12 14  1  0
 13 12  2  0
 14 15  1  0
 15 22  1  0
 15 16  1  1
 17 16  1  0
 18 17  2  0
 19 18  1  0
 20 19  1  0
 20 21  2  0
 21 17  1  0
 22 23  1  0
 24 22  2  0
M  END
$$$$
