LAH.pdb
     RDKit          3D

 24 24  0  0  1  0  0  0  0  0999 V2000
    6.3515  -16.3692   14.2697 C   0  0  0  0  0  0  0  0  0  0  0  0
    7.5000  -17.3277   14.4527 C   0  0  2  0  0  0  0  0  0  0  0  0
    7.0503  -18.7694   14.3959 C   0  0  0  0  0  0  0  0  0  0  0  0
    8.1538  -16.9959   15.7795 C   0  0  0  0  0  0  0  0  0  0  0  0
    8.4776  -15.5196   15.7454 C   0  0  2  0  0  0  0  0  0  0  0  0
    9.6374  -15.3573   14.8934 N   0  0  0  0  0  0  0  0  0  0  0  0
    8.8191  -14.9897   17.0855 C   0  0  0  0  0  0  0  0  0  0  0  0
    9.9287  -15.2996   17.5946 O   0  0  0  0  0  0  0  0  0  0  0  0
    7.2044  -12.7859   19.7340 C   0  0  0  0  0  0  0  0  0  0  0  0
    8.3201  -13.6869   19.1869 C   0  0  2  0  0  0  0  0  0  0  0  0
    7.9729  -14.1463   17.8464 N   0  0  0  0  0  0  0  0  0  0  0  0
    8.3744  -14.8630   20.0781 C   0  0  0  0  0  0  0  0  0  0  0  0
    8.1164  -16.0002   19.6251 O   0  0  0  0  0  0  0  0  0  0  0  0
    8.7140  -14.7887   21.4745 N   0  0  0  0  0  0  0  0  0  0  0  0
    9.4676  -15.8512   22.1103 C   0  0  1  0  0  0  0  0  0  0  0  0
   10.7167  -16.2427   21.4162 C   0  0  0  0  0  0  0  0  0  0  0  0
   11.5153  -17.2956   22.0719 C   0  0  0  0  0  0  0  0  0  0  0  0
   11.8930  -17.4792   23.3732 C   0  0  0  0  0  0  0  0  0  0  0  0
   12.5995  -18.6432   23.4043 N   0  0  0  0  0  0  0  0  0  0  0  0
   12.6636  -19.1694   22.1793 C   0  0  0  0  0  0  0  0  0  0  0  0
   12.0089  -18.3603   21.3624 N   0  0  0  0  0  0  0  0  0  0  0  0
    9.7253  -15.5352   23.5452 C   0  0  0  0  0  0  0  0  0  0  0  0
    9.8038  -16.5176   24.5126 O   0  0  0  0  0  0  0  0  0  0  0  0
    9.8716  -14.3304   23.8536 O   0  0  0  0  0  0  0  0  0  0  0  0
  2  1  1  1
  3  2  1  0
  4  5  1  0
  4  2  1  0
  5  6  1  6
  5  7  1  0
  7  8  2  0
 10  9  1  1
 10 12  1  0
 11  7  1  0
 11 10  1  0
 12 14  1  0
 13 12  2  0
 14 15  1  0
 15 22  1  0
 15 16  1  6
 17 16  1  0
 18 17  2  0
 19 18  1  0
 20 19  1  0
 20 21  2  0
 21 17  1  0
 22 23  1  0
 24 22  2  0
M  END
$$$$
