LAH.pdb
     RDKit          3D

 24 24  0  0  1  0  0  0  0  0999 V2000
    9.0915  -13.0101   20.3428 C   0  0  0  0  0  0  0  0  0  0  0  0
    7.6813  -13.4621   20.0628 C   0  0  2  0  0  0  0  0  0  0  0  0
    6.8517  -12.3711   19.4262 C   0  0  0  0  0  0  0  0  0  0  0  0
    7.0881  -13.9218   21.3798 C   0  0  0  0  0  0  0  0  0  0  0  0
    8.0537  -14.9291   21.9616 C   0  0  2  0  0  0  0  0  0  0  0  0
    8.3574  -15.8823   20.9145 N   0  0  0  0  0  0  0  0  0  0  0  0
    7.4681  -15.6740   23.0998 C   0  0  0  0  0  0  0  0  0  0  0  0
    7.0456  -15.0265   24.0942 O   0  0  0  0  0  0  0  0  0  0  0  0
    5.9986  -19.0275   23.7886 C   0  0  0  0  0  0  0  0  0  0  0  0
    6.7495  -17.7830   24.2821 C   0  0  2  0  0  0  0  0  0  0  0  0
    7.3480  -17.0844   23.1497 N   0  0  0  0  0  0  0  0  0  0  0  0
    7.8389  -18.2755   25.1486 C   0  0  0  0  0  0  0  0  0  0  0  0
    7.6004  -19.1453   26.0155 O   0  0  0  0  0  0  0  0  0  0  0  0
    9.1977  -17.8097   25.0616 N   0  0  0  0  0  0  0  0  0  0  0  0
   10.2159  -18.3270   25.9542 C   0  0  1  0  0  0  0  0  0  0  0  0
   11.6132  -18.1150   25.5092 C   0  0  0  0  0  0  0  0  0  0  0  0
   11.8942  -18.4304   24.0957 C   0  0  0  0  0  0  0  0  0  0  0  0
   11.1506  -19.0561   23.1337 C   0  0  0  0  0  0  0  0  0  0  0  0
   11.9048  -19.0416   21.9998 N   0  0  0  0  0  0  0  0  0  0  0  0
   13.0698  -18.4344   22.2359 C   0  0  0  0  0  0  0  0  0  0  0  0
   13.0745  -18.0591   23.5046 N   0  0  0  0  0  0  0  0  0  0  0  0
   10.0110  -17.8236   27.3433 C   0  0  0  0  0  0  0  0  0  0  0  0
    9.0624  -16.8670   27.6470 O   0  0  0  0  0  0  0  0  0  0  0  0
   10.7374  -18.3026   28.2438 O   0  0  0  0  0  0  0  0  0  0  0  0
  2  1  1  1
  3  2  1  0
  4  5  1  0
  4  2  1  0
  5  6  1  6
  5  7  1  0
  7  8  2  0
 10  9  1  6
 10 12  1  0
 11  7  1  0
 11 10  1  0
 12 14  1  0
 13 12  2  0
 14 15  1  0
 15 22  1  0
 15 16  1  6
 17 16  1  0
 18 17  2  0
 19 18  1  0
 20 19  1  0
 20 21  2  0
 21 17  1  0
 22 23  1  0
 24 22  2  0
M  END
$$$$
