LAH.pdb
     RDKit          3D

 24 24  0  0  1  0  0  0  0  0999 V2000
    8.9583  -13.1571   18.2152 C   0  0  0  0  0  0  0  0  0  0  0  0
    7.9651  -13.3705   19.3285 C   0  0  2  0  0  0  0  0  0  0  0  0
    7.3039  -12.0799   19.7540 C   0  0  0  0  0  0  0  0  0  0  0  0
    8.7108  -14.0234   20.4754 C   0  0  0  0  0  0  0  0  0  0  0  0
    9.3081  -15.3014   19.9318 C   0  0  2  0  0  0  0  0  0  0  0  0
    8.2109  -16.1102   19.4424 N   0  0  0  0  0  0  0  0  0  0  0  0
   10.0158  -16.0776   20.9757 C   0  0  0  0  0  0  0  0  0  0  0  0
   10.9026  -15.5028   21.6611 O   0  0  0  0  0  0  0  0  0  0  0  0
    9.8603  -19.5683   22.4749 C   0  0  0  0  0  0  0  0  0  0  0  0
   10.4739  -18.1715   22.3053 C   0  0  2  0  0  0  0  0  0  0  0  0
    9.7619  -17.4414   21.2621 N   0  0  0  0  0  0  0  0  0  0  0  0
   11.8635  -18.3839   21.8535 C   0  0  0  0  0  0  0  0  0  0  0  0
   12.0832  -18.8752   20.7242 O   0  0  0  0  0  0  0  0  0  0  0  0
   13.0178  -18.0545   22.6472 N   0  0  0  0  0  0  0  0  0  0  0  0
   14.3552  -18.2287   22.1162 C   0  0  1  0  0  0  0  0  0  0  0  0
   15.0396  -16.9804   21.7053 C   0  0  0  0  0  0  0  0  0  0  0  0
   14.3524  -16.1777   20.6759 C   0  0  0  0  0  0  0  0  0  0  0  0
   13.5210  -16.5278   19.6483 C   0  0  0  0  0  0  0  0  0  0  0  0
   13.1605  -15.3653   19.0370 N   0  0  0  0  0  0  0  0  0  0  0  0
   13.7375  -14.3302   19.6513 C   0  0  0  0  0  0  0  0  0  0  0  0
   14.4631  -14.8111   20.6476 N   0  0  0  0  0  0  0  0  0  0  0  0
   15.2007  -19.0225   23.0545 C   0  0  0  0  0  0  0  0  0  0  0  0
   16.4820  -19.4233   22.7309 O   0  0  0  0  0  0  0  0  0  0  0  0
   14.7061  -19.3205   24.1656 O   0  0  0  0  0  0  0  0  0  0  0  0
  2  1  1  6
  3  2  1  0
  4  5  1  0
  4  2  1  0
  5  6  1  1
  5  7  1  0
  7  8  2  0
 10  9  1  6
 10 12  1  0
 11  7  1  0
 11 10  1  0
 12 14  1  0
 13 12  2  0
 14 15  1  0
 15 22  1  0
 15 16  1  1
 17 16  1  0
 18 17  2  0
 19 18  1  0
 20 19  1  0
 20 21  2  0
 21 17  1  0
 22 23  1  0
 24 22  2  0
M  END
$$$$
