LAH.pdb
     RDKit          3D

 24 24  0  0  1  0  0  0  0  0999 V2000
    5.5465  -19.6574   22.5364 C   0  0  0  0  0  0  0  0  0  0  0  0
    6.8868  -19.3265   21.9318 C   0  0  2  0  0  0  0  0  0  0  0  0
    7.7216  -20.5631   21.6914 C   0  0  0  0  0  0  0  0  0  0  0  0
    7.5762  -18.3584   22.8727 C   0  0  0  0  0  0  0  0  0  0  0  0
    7.0095  -16.9886   22.5762 C   0  0  2  0  0  0  0  0  0  0  0  0
    7.2716  -16.7124   21.1789 N   0  0  0  0  0  0  0  0  0  0  0  0
    7.6588  -15.9275   23.3799 C   0  0  0  0  0  0  0  0  0  0  0  0
    8.8586  -15.6317   23.1360 O   0  0  0  0  0  0  0  0  0  0  0  0
    6.7142  -13.4978   26.1446 C   0  0  0  0  0  0  0  0  0  0  0  0
    7.7205  -14.2584   25.2699 C   0  0  2  0  0  0  0  0  0  0  0  0
    7.0158  -15.2113   24.4191 N   0  0  0  0  0  0  0  0  0  0  0  0
    8.5820  -15.0178   26.1980 C   0  0  0  0  0  0  0  0  0  0  0  0
    8.2109  -16.1361   26.6185 O   0  0  0  0  0  0  0  0  0  0  0  0
    9.8581  -14.5456   26.6665 N   0  0  0  0  0  0  0  0  0  0  0  0
   10.6726  -15.3623   27.5443 C   0  0  1  0  0  0  0  0  0  0  0  0
   12.1081  -15.4382   27.1853 C   0  0  0  0  0  0  0  0  0  0  0  0
   12.4058  -15.8859   25.8115 C   0  0  0  0  0  0  0  0  0  0  0  0
   11.6984  -16.6510   24.9261 C   0  0  0  0  0  0  0  0  0  0  0  0
   12.4501  -16.7149   23.7923 N   0  0  0  0  0  0  0  0  0  0  0  0
   13.5791  -16.0217   23.9551 C   0  0  0  0  0  0  0  0  0  0  0  0
   13.5631  -15.5139   25.1767 N   0  0  0  0  0  0  0  0  0  0  0  0
   10.4945  -14.9535   28.9678 C   0  0  0  0  0  0  0  0  0  0  0  0
   10.9960  -15.6997   30.0161 O   0  0  0  0  0  0  0  0  0  0  0  0
    9.8655  -13.8937   29.1896 O   0  0  0  0  0  0  0  0  0  0  0  0
  2  1  1  1
  3  2  1  0
  4  5  1  0
  4  2  1  0
  5  6  1  6
  5  7  1  0
  7  8  2  0
 10  9  1  1
 10 12  1  0
 11  7  1  0
 11 10  1  0
 12 14  1  0
 13 12  2  0
 14 15  1  0
 15 22  1  0
 15 16  1  6
 17 16  1  0
 18 17  2  0
 19 18  1  0
 20 19  1  0
 20 21  2  0
 21 17  1  0
 22 23  1  0
 24 22  2  0
M  END
$$$$
