LAH.pdb
     RDKit          3D

 24 24  0  0  1  0  0  0  0  0999 V2000
    7.9213  -12.7331   19.2280 C   0  0  0  0  0  0  0  0  0  0  0  0
    7.7969  -14.2282   19.3711 C   0  0  2  0  0  0  0  0  0  0  0  0
    6.7459  -14.8010   18.4486 C   0  0  0  0  0  0  0  0  0  0  0  0
    7.4825  -14.5146   20.8261 C   0  0  0  0  0  0  0  0  0  0  0  0
    8.5455  -13.8173   21.6442 C   0  0  2  0  0  0  0  0  0  0  0  0
    9.8288  -14.2821   21.1604 N   0  0  0  0  0  0  0  0  0  0  0  0
    8.4533  -14.1514   23.0841 C   0  0  0  0  0  0  0  0  0  0  0  0
    9.1576  -15.0940   23.5335 O   0  0  0  0  0  0  0  0  0  0  0  0
    6.4650  -13.0139   26.1187 C   0  0  0  0  0  0  0  0  0  0  0  0
    7.5842  -13.8040   25.4264 C   0  0  2  0  0  0  0  0  0  0  0  0
    7.6163  -13.4752   24.0053 N   0  0  0  0  0  0  0  0  0  0  0  0
    7.2266  -15.2302   25.5620 C   0  0  0  0  0  0  0  0  0  0  0  0
    6.4113  -15.7464   24.7659 O   0  0  0  0  0  0  0  0  0  0  0  0
    7.7679  -16.0936   26.5781 N   0  0  0  0  0  0  0  0  0  0  0  0
    7.9386  -17.5115   26.3305 C   0  0  1  0  0  0  0  0  0  0  0  0
    8.5491  -17.8559   25.0251 C   0  0  0  0  0  0  0  0  0  0  0  0
    7.6091  -18.0440   23.9038 C   0  0  0  0  0  0  0  0  0  0  0  0
    6.2448  -17.9825   23.8348 C   0  0  0  0  0  0  0  0  0  0  0  0
    5.9183  -18.2122   22.5327 N   0  0  0  0  0  0  0  0  0  0  0  0
    7.0257  -18.4088   21.8139 C   0  0  0  0  0  0  0  0  0  0  0  0
    8.0580  -18.3089   22.6354 N   0  0  0  0  0  0  0  0  0  0  0  0
    8.6696  -18.1636   27.4555 C   0  0  0  0  0  0  0  0  0  0  0  0
    9.6611  -17.5137   28.1638 O   0  0  0  0  0  0  0  0  0  0  0  0
    8.3522  -19.3397   27.7452 O   0  0  0  0  0  0  0  0  0  0  0  0
  2  1  1  1
  3  2  1  0
  4  5  1  0
  4  2  1  0
  5  6  1  6
  5  7  1  0
  7  8  2  0
 10  9  1  1
 10 12  1  0
 11  7  1  0
 11 10  1  0
 12 14  1  0
 13 12  2  0
 14 15  1  0
 15 22  1  0
 15 16  1  6
 17 16  1  0
 18 17  2  0
 19 18  1  0
 20 19  1  0
 20 21  2  0
 21 17  1  0
 22 23  1  0
 24 22  2  0
M  END
$$$$
