LAH.pdb
     RDKit          3D

 24 24  0  0  1  0  0  0  0  0999 V2000
    6.5307  -15.4747   16.5775 C   0  0  0  0  0  0  0  0  0  0  0  0
    7.9316  -15.0032   16.2837 C   0  0  2  0  0  0  0  0  0  0  0  0
    8.5766  -15.7984   15.1722 C   0  0  0  0  0  0  0  0  0  0  0  0
    8.7187  -15.1042   17.5753 C   0  0  0  0  0  0  0  0  0  0  0  0
    8.0898  -14.1278   18.5431 C   0  0  2  0  0  0  0  0  0  0  0  0
    8.3980  -12.7958   18.0654 N   0  0  0  0  0  0  0  0  0  0  0  0
    8.6419  -14.2603   19.9109 C   0  0  0  0  0  0  0  0  0  0  0  0
    9.7562  -13.7324   20.1681 O   0  0  0  0  0  0  0  0  0  0  0  0
    7.5047  -15.5045   23.3019 C   0  0  0  0  0  0  0  0  0  0  0  0
    8.5835  -15.0832   22.2945 C   0  0  2  0  0  0  0  0  0  0  0  0
    7.9952  -14.9492   20.9662 N   0  0  0  0  0  0  0  0  0  0  0  0
    9.5644  -16.1862   22.2556 C   0  0  0  0  0  0  0  0  0  0  0  0
    9.4564  -17.0857   21.3929 O   0  0  0  0  0  0  0  0  0  0  0  0
   10.6698  -16.3012   23.1698 N   0  0  0  0  0  0  0  0  0  0  0  0
   11.9205  -16.8994   22.7471 C   0  0  1  0  0  0  0  0  0  0  0  0
   12.4645  -16.3886   21.4670 C   0  0  0  0  0  0  0  0  0  0  0  0
   12.1796  -17.2075   20.2734 C   0  0  0  0  0  0  0  0  0  0  0  0
   11.4751  -18.3677   20.1080 C   0  0  0  0  0  0  0  0  0  0  0  0
   11.5189  -18.6536   18.7771 N   0  0  0  0  0  0  0  0  0  0  0  0
   12.2183  -17.7165   18.1333 C   0  0  0  0  0  0  0  0  0  0  0  0
   12.6241  -16.8337   19.0312 N   0  0  0  0  0  0  0  0  0  0  0  0
   12.9399  -16.8242   23.8336 C   0  0  0  0  0  0  0  0  0  0  0  0
   14.0665  -17.6229   23.8423 O   0  0  0  0  0  0  0  0  0  0  0  0
   12.7415  -16.0000   24.7552 O   0  0  0  0  0  0  0  0  0  0  0  0
  2  1  1  1
  3  2  1  0
  4  5  1  0
  4  2  1  0
  5  6  1  6
  5  7  1  0
  7  8  2  0
 10  9  1  1
 10 12  1  0
 11  7  1  0
 11 10  1  0
 12 14  1  0
 13 12  2  0
 14 15  1  0
 15 22  1  0
 15 16  1  6
 17 16  1  0
 18 17  2  0
 19 18  1  0
 20 19  1  0
 20 21  2  0
 21 17  1  0
 22 23  1  0
 24 22  2  0
M  END
$$$$
