LAH.pdb
     RDKit          3D

 24 24  0  0  1  0  0  0  0  0999 V2000
    7.8219  -14.4802   18.0616 C   0  0  0  0  0  0  0  0  0  0  0  0
    7.6116  -13.7474   19.3616 C   0  0  2  0  0  0  0  0  0  0  0  0
    7.2496  -12.2965   19.1429 C   0  0  0  0  0  0  0  0  0  0  0  0
    8.8865  -13.8919   20.1689 C   0  0  0  0  0  0  0  0  0  0  0  0
    8.8727  -15.2857   20.7542 C   0  0  2  0  0  0  0  0  0  0  0  0
    7.4925  -15.7235   20.7798 N   0  0  0  0  0  0  0  0  0  0  0  0
    9.3858  -15.3152   22.1432 C   0  0  0  0  0  0  0  0  0  0  0  0
   10.6304  -15.2661   22.3302 O   0  0  0  0  0  0  0  0  0  0  0  0
    8.0290  -14.8557   25.6230 C   0  0  0  0  0  0  0  0  0  0  0  0
    9.1013  -15.3633   24.6490 C   0  0  2  0  0  0  0  0  0  0  0  0
    8.5630  -15.3959   23.2933 N   0  0  0  0  0  0  0  0  0  0  0  0
    9.4066  -16.7490   25.0576 C   0  0  0  0  0  0  0  0  0  0  0  0
    8.5399  -17.6419   24.9283 O   0  0  0  0  0  0  0  0  0  0  0  0
   10.6711  -17.1554   25.6114 N   0  0  0  0  0  0  0  0  0  0  0  0
   10.9317  -18.5480   25.9172 C   0  0  1  0  0  0  0  0  0  0  0  0
   12.0662  -19.1548   25.1822 C   0  0  0  0  0  0  0  0  0  0  0  0
   12.0034  -19.0637   23.7111 C   0  0  0  0  0  0  0  0  0  0  0  0
   10.9861  -19.2844   22.8244 C   0  0  0  0  0  0  0  0  0  0  0  0
   11.4932  -19.0182   21.5888 N   0  0  0  0  0  0  0  0  0  0  0  0
   12.7710  -18.6461   21.6918 C   0  0  0  0  0  0  0  0  0  0  0  0
   13.0915  -18.6699   22.9753 N   0  0  0  0  0  0  0  0  0  0  0  0
   11.0724  -18.7521   27.3882 C   0  0  0  0  0  0  0  0  0  0  0  0
   11.1711  -20.0095   27.9506 O   0  0  0  0  0  0  0  0  0  0  0  0
   11.0994  -17.7311   28.1125 O   0  0  0  0  0  0  0  0  0  0  0  0
  2  1  1  6
  3  2  1  0
  4  5  1  0
  4  2  1  0
  5  6  1  1
  5  7  1  0
  7  8  2  0
 10  9  1  1
 10 12  1  0
 11  7  1  0
 11 10  1  0
 12 14  1  0
 13 12  2  0
 14 15  1  0
 15 22  1  0
 15 16  1  6
 17 16  1  0
 18 17  2  0
 19 18  1  0
 20 19  1  0
 20 21  2  0
 21 17  1  0
 22 23  1  0
 24 22  2  0
M  END
$$$$
