LFV.pdb
     RDKit          3D

 27 27  0  0  1  0  0  0  0  0999 V2000
   10.7802  -21.0009   20.4617 C   0  0  0  0  0  0  0  0  0  0  0  0
   10.2737  -19.6260   20.0964 C   0  0  1  0  0  0  0  0  0  0  0  0
    9.1197  -19.7155   19.1196 C   0  0  0  0  0  0  0  0  0  0  0  0
    9.8017  -18.8572   21.3134 C   0  0  0  0  0  0  0  0  0  0  0  0
    9.4593  -17.4618   20.8527 C   0  0  2  0  0  0  0  0  0  0  0  0
   10.3055  -17.1257   19.7511 N   0  0  0  0  0  0  0  0  0  0  0  0
    9.5187  -16.4716   21.9574 C   0  0  0  0  0  0  0  0  0  0  0  0
   10.6110  -15.9361   22.2815 O   0  0  0  0  0  0  0  0  0  0  0  0
    8.3769  -16.0724   22.7032 N   0  0  0  0  0  0  0  0  0  0  0  0
    8.4495  -15.1448   23.8333 C   0  0  1  0  0  0  0  0  0  0  0  0
    7.2502  -14.2871   23.9524 C   0  0  0  0  0  0  0  0  0  0  0  0
    7.1886  -13.3706   25.0835 C   0  0  0  0  0  0  0  0  0  0  0  0
    6.3179  -13.6082   26.1243 C   0  0  0  0  0  0  0  0  0  0  0  0
    6.2385  -12.7392   27.2160 C   0  0  0  0  0  0  0  0  0  0  0  0
    7.0402  -11.6267   27.2583 C   0  0  0  0  0  0  0  0  0  0  0  0
    7.9131  -11.3703   26.2357 C   0  0  0  0  0  0  0  0  0  0  0  0
    7.9768  -12.2425   25.1638 C   0  0  0  0  0  0  0  0  0  0  0  0
    8.8140  -15.9351   25.0287 C   0  0  0  0  0  0  0  0  0  0  0  0
    8.1000  -16.9294   25.4117 O   0  0  0  0  0  0  0  0  0  0  0  0
   12.8031  -15.8176   26.8114 C   0  0  0  0  0  0  0  0  0  0  0  0
   11.8319  -16.9808   26.8284 C   0  0  2  0  0  0  0  0  0  0  0  0
   12.0569  -17.7379   25.5364 C   0  0  0  0  0  0  0  0  0  0  0  0
   10.4136  -16.5537   26.8988 C   0  0  2  0  0  0  0  0  0  0  0  0
    9.9499  -15.6952   25.8530 N   0  0  0  0  0  0  0  0  0  0  0  0
   10.1909  -15.8844   28.2307 C   0  0  0  0  0  0  0  0  0  0  0  0
   10.3658  -16.6586   29.3630 O   0  0  0  0  0  0  0  0  0  0  0  0
    9.8585  -14.6652   28.3178 O   0  0  0  0  0  0  0  0  0  0  0  0
  2  1  1  1
  3  2  1  0
  4  2  1  0
  5  4  1  0
  5  6  1  6
  7  8  2  0
  7  5  1  0
  9  7  1  0
 10  9  1  0
 11 12  1  0
 10 11  1  1
 12 17  2  0
 12 13  1  0
 13 14  2  0
 14 15  1  0
 16 15  2  0
 17 16  1  0
 18 19  2  0
 18 10  1  0
 21 20  1  6
 22 21  1  0
 23 21  1  0
 23 24  1  6
 24 18  1  0
 25 23  1  0
 26 25  1  0
 27 25  2  0
M  END
$$$$
