LFV.pdb
     RDKit          3D

 27 27  0  0  1  0  0  0  0  0999 V2000
    9.1699  -21.2858   20.1442 C   0  0  0  0  0  0  0  0  0  0  0  0
    8.9606  -19.8149   19.8738 C   0  0  1  0  0  0  0  0  0  0  0  0
    7.5877  -19.5620   19.2863 C   0  0  0  0  0  0  0  0  0  0  0  0
    9.0933  -18.9854   21.1344 C   0  0  0  0  0  0  0  0  0  0  0  0
    8.8426  -17.5483   20.7496 C   0  0  2  0  0  0  0  0  0  0  0  0
    9.6381  -17.2385   19.6034 N   0  0  0  0  0  0  0  0  0  0  0  0
    9.0623  -16.6135   21.8821 C   0  0  0  0  0  0  0  0  0  0  0  0
   10.2231  -16.2288   22.1809 O   0  0  0  0  0  0  0  0  0  0  0  0
    8.0050  -16.1040   22.6832 N   0  0  0  0  0  0  0  0  0  0  0  0
    8.2304  -15.2280   23.8341 C   0  0  1  0  0  0  0  0  0  0  0  0
    7.0863  -14.3313   24.1083 C   0  0  0  0  0  0  0  0  0  0  0  0
    7.1698  -13.4749   25.2841 C   0  0  0  0  0  0  0  0  0  0  0  0
    6.3226  -13.6752   26.3518 C   0  0  0  0  0  0  0  0  0  0  0  0
    6.3818  -12.8619   27.4869 C   0  0  0  0  0  0  0  0  0  0  0  0
    7.2988  -11.8432   27.5455 C   0  0  0  0  0  0  0  0  0  0  0  0
    8.1510  -11.6255   26.4969 C   0  0  0  0  0  0  0  0  0  0  0  0
    8.0767  -12.4413   25.3821 C   0  0  0  0  0  0  0  0  0  0  0  0
    8.6807  -16.0808   24.9550 C   0  0  0  0  0  0  0  0  0  0  0  0
    7.9168  -16.9829   25.4528 O   0  0  0  0  0  0  0  0  0  0  0  0
   12.8375  -16.1928   26.4934 C   0  0  0  0  0  0  0  0  0  0  0  0
   11.8401  -17.3338   26.4929 C   0  0  2  0  0  0  0  0  0  0  0  0
   12.0210  -18.0523   25.1722 C   0  0  0  0  0  0  0  0  0  0  0  0
   10.4338  -16.8776   26.6074 C   0  0  2  0  0  0  0  0  0  0  0  0
    9.9576  -16.0036   25.5802 N   0  0  0  0  0  0  0  0  0  0  0  0
   10.2647  -16.2114   27.9487 C   0  0  0  0  0  0  0  0  0  0  0  0
    9.9128  -14.8740   27.9491 O   0  0  0  0  0  0  0  0  0  0  0  0
   10.4349  -16.8424   29.0338 O   0  0  0  0  0  0  0  0  0  0  0  0
  2  1  1  1
  3  2  1  0
  4  2  1  0
  5  4  1  0
  5  6  1  6
  7  8  2  0
  7  5  1  0
  9  7  1  0
 10  9  1  0
 11 12  1  0
 10 11  1  1
 12 17  2  0
 12 13  1  0
 13 14  2  0
 14 15  1  0
 16 15  2  0
 17 16  1  0
 18 19  2  0
 18 10  1  0
 21 20  1  6
 22 21  1  0
 23 21  1  0
 23 24  1  6
 24 18  1  0
 25 23  1  0
 26 25  1  0
 27 25  2  0
M  END
$$$$
