LFV.pdb
     RDKit          3D

 27 27  0  0  1  0  0  0  0  0999 V2000
    8.3257  -16.5752   16.4936 C   0  0  0  0  0  0  0  0  0  0  0  0
    8.9273  -17.0242   17.8039 C   0  0  1  0  0  0  0  0  0  0  0  0
   10.4133  -17.2783   17.6590 C   0  0  0  0  0  0  0  0  0  0  0  0
    8.7303  -15.9943   18.8972 C   0  0  0  0  0  0  0  0  0  0  0  0
    9.3474  -16.5562   20.1540 C   0  0  2  0  0  0  0  0  0  0  0  0
    8.6983  -17.7904   20.4674 N   0  0  0  0  0  0  0  0  0  0  0  0
    9.3269  -15.5848   21.2767 C   0  0  0  0  0  0  0  0  0  0  0  0
    9.0926  -14.3659   21.0667 O   0  0  0  0  0  0  0  0  0  0  0  0
    9.5641  -15.9561   22.6277 N   0  0  0  0  0  0  0  0  0  0  0  0
    9.1248  -15.1449   23.7643 C   0  0  1  0  0  0  0  0  0  0  0  0
    7.6878  -14.7990   23.7038 C   0  0  0  0  0  0  0  0  0  0  0  0
    7.1634  -13.9204   24.7411 C   0  0  0  0  0  0  0  0  0  0  0  0
    7.4500  -12.5730   24.7214 C   0  0  0  0  0  0  0  0  0  0  0  0
    6.9622  -11.7134   25.7096 C   0  0  0  0  0  0  0  0  0  0  0  0
    6.1824  -12.2144   26.7210 C   0  0  0  0  0  0  0  0  0  0  0  0
    5.8843  -13.5496   26.7610 C   0  0  0  0  0  0  0  0  0  0  0  0
    6.3767  -14.3842   25.7737 C   0  0  0  0  0  0  0  0  0  0  0  0
    9.5865  -15.8235   24.9942 C   0  0  0  0  0  0  0  0  0  0  0  0
    9.6730  -17.1018   25.0558 O   0  0  0  0  0  0  0  0  0  0  0  0
    9.8957  -14.2015   29.1195 C   0  0  0  0  0  0  0  0  0  0  0  0
   11.0455  -14.8927   28.4146 C   0  0  2  0  0  0  0  0  0  0  0  0
   11.9084  -13.7918   27.8345 C   0  0  0  0  0  0  0  0  0  0  0  0
   10.6023  -15.7886   27.3192 C   0  0  2  0  0  0  0  0  0  0  0  0
    9.9732  -15.1653   26.1959 N   0  0  0  0  0  0  0  0  0  0  0  0
    9.6721  -16.8201   27.9042 C   0  0  0  0  0  0  0  0  0  0  0  0
   10.2082  -17.7052   28.8215 O   0  0  0  0  0  0  0  0  0  0  0  0
    8.4501  -16.8800   27.5758 O   0  0  0  0  0  0  0  0  0  0  0  0
  2  1  1  6
  3  2  1  0
  4  2  1  0
  5  4  1  0
  5  6  1  1
  7  8  2  0
  7  5  1  0
  9  7  1  0
 10  9  1  0
 11 12  1  0
 10 11  1  1
 12 17  2  0
 12 13  1  0
 13 14  2  0
 14 15  1  0
 16 15  2  0
 17 16  1  0
 18 19  2  0
 18 10  1  0
 21 20  1  6
 22 21  1  0
 23 21  1  0
 23 24  1  6
 24 18  1  0
 25 23  1  0
 26 25  1  0
 27 25  2  0
M  END
$$$$
