LFV.pdb
     RDKit          3D

 27 27  0  0  1  0  0  0  0  0999 V2000
    8.5946  -20.4308   18.8518 C   0  0  0  0  0  0  0  0  0  0  0  0
    8.3544  -18.9412   18.7922 C   0  0  1  0  0  0  0  0  0  0  0  0
    6.8726  -18.6330   18.7388 C   0  0  0  0  0  0  0  0  0  0  0  0
    8.9408  -18.2271   19.9926 C   0  0  0  0  0  0  0  0  0  0  0  0
    8.5915  -16.7657   19.8552 C   0  0  2  0  0  0  0  0  0  0  0  0
    9.2829  -16.2371   18.7216 N   0  0  0  0  0  0  0  0  0  0  0  0
    8.8488  -16.0034   21.1031 C   0  0  0  0  0  0  0  0  0  0  0  0
   10.0050  -15.5852   21.3729 O   0  0  0  0  0  0  0  0  0  0  0  0
    7.8339  -15.7029   22.0513 N   0  0  0  0  0  0  0  0  0  0  0  0
    8.0907  -14.9473   23.2785 C   0  0  1  0  0  0  0  0  0  0  0  0
    6.9376  -14.1213   23.6982 C   0  0  0  0  0  0  0  0  0  0  0  0
    7.0104  -13.4791   25.0041 C   0  0  0  0  0  0  0  0  0  0  0  0
    7.7822  -12.3520   25.1826 C   0  0  0  0  0  0  0  0  0  0  0  0
    7.8708  -11.7236   26.4278 C   0  0  0  0  0  0  0  0  0  0  0  0
    7.1784  -12.2335   27.4967 C   0  0  0  0  0  0  0  0  0  0  0  0
    6.4049  -13.3522   27.3431 C   0  0  0  0  0  0  0  0  0  0  0  0
    6.3303  -13.9599   26.1025 C   0  0  0  0  0  0  0  0  0  0  0  0
    8.6166  -15.8996   24.2799 C   0  0  0  0  0  0  0  0  0  0  0  0
    7.9209  -16.9029   24.6731 O   0  0  0  0  0  0  0  0  0  0  0  0
   12.8525  -16.0772   25.5520 C   0  0  0  0  0  0  0  0  0  0  0  0
   11.8581  -17.2186   25.4803 C   0  0  2  0  0  0  0  0  0  0  0  0
   11.9303  -17.7534   24.0654 C   0  0  0  0  0  0  0  0  0  0  0  0
   10.4660  -16.7965   25.7680 C   0  0  2  0  0  0  0  0  0  0  0  0
    9.8990  -15.8173   24.8929 N   0  0  0  0  0  0  0  0  0  0  0  0
   10.4132  -16.2895   27.1863 C   0  0  0  0  0  0  0  0  0  0  0  0
   10.7387  -17.1846   28.1889 O   0  0  0  0  0  0  0  0  0  0  0  0
   10.0865  -15.0959   27.4570 O   0  0  0  0  0  0  0  0  0  0  0  0
  2  1  1  1
  3  2  1  0
  4  2  1  0
  5  4  1  0
  5  6  1  6
  7  8  2  0
  7  5  1  0
  9  7  1  0
 10  9  1  0
 11 12  1  0
 10 11  1  1
 12 17  2  0
 12 13  1  0
 13 14  2  0
 14 15  1  0
 16 15  2  0
 17 16  1  0
 18 19  2  0
 18 10  1  0
 21 20  1  6
 22 21  1  0
 23 21  1  0
 23 24  1  6
 24 18  1  0
 25 23  1  0
 26 25  1  0
 27 25  2  0
M  END
$$$$
