LFV.pdb
     RDKit          3D

 27 27  0  0  1  0  0  0  0  0999 V2000
   12.0224  -17.3254   17.2829 C   0  0  0  0  0  0  0  0  0  0  0  0
   11.7465  -17.8580   18.6687 C   0  0  1  0  0  0  0  0  0  0  0  0
   12.9732  -18.5358   19.2428 C   0  0  0  0  0  0  0  0  0  0  0  0
   11.3267  -16.7582   19.6222 C   0  0  0  0  0  0  0  0  0  0  0  0
   11.0533  -17.4069   20.9566 C   0  0  2  0  0  0  0  0  0  0  0  0
   10.0940  -18.4494   20.7681 N   0  0  0  0  0  0  0  0  0  0  0  0
   10.6488  -16.4220   21.9914 C   0  0  0  0  0  0  0  0  0  0  0  0
   11.3779  -15.4297   22.2530 O   0  0  0  0  0  0  0  0  0  0  0  0
    9.4434  -16.5306   22.7362 N   0  0  0  0  0  0  0  0  0  0  0  0
    9.0614  -15.5726   23.7750 C   0  0  1  0  0  0  0  0  0  0  0  0
    7.6165  -15.2558   23.7631 C   0  0  0  0  0  0  0  0  0  0  0  0
    7.1572  -14.1786   24.6301 C   0  0  0  0  0  0  0  0  0  0  0  0
    6.3884  -14.4580   25.7386 C   0  0  0  0  0  0  0  0  0  0  0  0
    5.9324  -13.4397   26.5802 C   0  0  0  0  0  0  0  0  0  0  0  0
    6.2531  -12.1349   26.3031 C   0  0  0  0  0  0  0  0  0  0  0  0
    7.0159  -11.8333   25.2074 C   0  0  0  0  0  0  0  0  0  0  0  0
    7.4576  -12.8554   24.3864 C   0  0  0  0  0  0  0  0  0  0  0  0
    9.6159  -16.0657   25.0540 C   0  0  0  0  0  0  0  0  0  0  0  0
    9.9092  -17.3035   25.2184 O   0  0  0  0  0  0  0  0  0  0  0  0
    9.3999  -14.1305   29.0079 C   0  0  0  0  0  0  0  0  0  0  0  0
   10.7000  -14.6901   28.4662 C   0  0  2  0  0  0  0  0  0  0  0  0
   11.4570  -13.5138   27.8863 C   0  0  0  0  0  0  0  0  0  0  0  0
   10.4988  -15.7069   27.4057 C   0  0  2  0  0  0  0  0  0  0  0  0
    9.8786  -15.2587   26.1971 N   0  0  0  0  0  0  0  0  0  0  0  0
    9.6952  -16.8405   27.9893 C   0  0  0  0  0  0  0  0  0  0  0  0
   10.2866  -17.5798   28.9972 O   0  0  0  0  0  0  0  0  0  0  0  0
    8.5271  -17.1107   27.5802 O   0  0  0  0  0  0  0  0  0  0  0  0
  2  1  1  6
  3  2  1  0
  4  2  1  0
  5  4  1  0
  5  6  1  6
  7  8  2  0
  7  5  1  0
  9  7  1  0
 10  9  1  0
 11 12  1  0
 10 11  1  1
 12 17  2  0
 12 13  1  0
 13 14  2  0
 14 15  1  0
 16 15  2  0
 17 16  1  0
 18 19  2  0
 18 10  1  0
 21 20  1  6
 22 21  1  0
 23 21  1  0
 23 24  1  6
 24 18  1  0
 25 23  1  0
 26 25  1  0
 27 25  2  0
M  END
$$$$
