LFV.pdb
     RDKit          3D

 27 27  0  0  1  0  0  0  0  0999 V2000
    7.4668  -13.2733   17.9904 C   0  0  0  0  0  0  0  0  0  0  0  0
    8.2538  -14.4951   18.4003 C   0  0  1  0  0  0  0  0  0  0  0  0
    8.9972  -15.0824   17.2186 C   0  0  0  0  0  0  0  0  0  0  0  0
    9.2656  -14.1774   19.4821 C   0  0  0  0  0  0  0  0  0  0  0  0
    9.3394  -15.3807   20.3893 C   0  0  2  0  0  0  0  0  0  0  0  0
    8.2504  -16.2525   20.0787 N   0  0  0  0  0  0  0  0  0  0  0  0
    9.3942  -15.0039   21.8244 C   0  0  0  0  0  0  0  0  0  0  0  0
   10.2745  -14.2091   22.2462 O   0  0  0  0  0  0  0  0  0  0  0  0
    8.4809  -15.5022   22.7923 N   0  0  0  0  0  0  0  0  0  0  0  0
    8.3083  -14.8914   24.1114 C   0  0  1  0  0  0  0  0  0  0  0  0
    6.8917  -14.6192   24.4391 C   0  0  0  0  0  0  0  0  0  0  0  0
    6.6198  -13.7427   25.5708 C   0  0  0  0  0  0  0  0  0  0  0  0
    6.2973  -12.4194   25.3637 C   0  0  0  0  0  0  0  0  0  0  0  0
    6.0385  -11.5599   26.4350 C   0  0  0  0  0  0  0  0  0  0  0  0
    6.1050  -12.0366   27.7196 C   0  0  0  0  0  0  0  0  0  0  0  0
    6.4233  -13.3478   27.9497 C   0  0  0  0  0  0  0  0  0  0  0  0
    6.6762  -14.1827   26.8760 C   0  0  0  0  0  0  0  0  0  0  0  0
    9.0604  -15.7169   25.0805 C   0  0  0  0  0  0  0  0  0  0  0  0
    9.2711  -16.9643   24.8692 O   0  0  0  0  0  0  0  0  0  0  0  0
   10.2534  -14.4545   29.1589 C   0  0  0  0  0  0  0  0  0  0  0  0
   11.1579  -15.2547   28.2433 C   0  0  2  0  0  0  0  0  0  0  0  0
   12.0684  -14.2514   27.5668 C   0  0  0  0  0  0  0  0  0  0  0  0
   10.4146  -16.0103   27.2063 C   0  0  2  0  0  0  0  0  0  0  0  0
    9.6145  -15.2422   26.3031 N   0  0  0  0  0  0  0  0  0  0  0  0
    9.5472  -17.0292   27.8998 C   0  0  0  0  0  0  0  0  0  0  0  0
   10.1888  -18.0028   28.6432 O   0  0  0  0  0  0  0  0  0  0  0  0
    8.2838  -17.0015   27.8113 O   0  0  0  0  0  0  0  0  0  0  0  0
  2  1  1  6
  3  2  1  0
  4  2  1  0
  5  4  1  0
  5  6  1  1
  7  8  2  0
  7  5  1  0
  9  7  1  0
 10  9  1  0
 11 12  1  0
 10 11  1  1
 12 17  2  0
 12 13  1  0
 13 14  2  0
 14 15  1  0
 16 15  2  0
 17 16  1  0
 18 19  2  0
 18 10  1  0
 21 20  1  1
 22 21  1  0
 23 21  1  0
 23 24  1  1
 24 18  1  0
 25 23  1  0
 26 25  1  0
 27 25  2  0
M  END
$$$$
