LFV.pdb
     RDKit          3D

 27 27  0  0  1  0  0  0  0  0999 V2000
    9.2116  -21.1558   19.4796 C   0  0  0  0  0  0  0  0  0  0  0  0
    8.7559  -19.7224   19.3458 C   0  0  1  0  0  0  0  0  0  0  0  0
    7.2592  -19.6479   19.1259 C   0  0  0  0  0  0  0  0  0  0  0  0
    9.0919  -18.9065   20.5772 C   0  0  0  0  0  0  0  0  0  0  0  0
    8.6625  -17.4868   20.3009 C   0  0  2  0  0  0  0  0  0  0  0  0
    9.2809  -17.0520   19.0880 N   0  0  0  0  0  0  0  0  0  0  0  0
    8.9287  -16.5825   21.4481 C   0  0  0  0  0  0  0  0  0  0  0  0
   10.0859  -16.1327   21.6559 O   0  0  0  0  0  0  0  0  0  0  0  0
    7.9216  -16.1751   22.3641 N   0  0  0  0  0  0  0  0  0  0  0  0
    8.1888  -15.2864   23.4963 C   0  0  1  0  0  0  0  0  0  0  0  0
    7.0427  -14.4104   23.8238 C   0  0  0  0  0  0  0  0  0  0  0  0
    7.1639  -13.5551   24.9972 C   0  0  0  0  0  0  0  0  0  0  0  0
    6.6184  -13.9445   26.2008 C   0  0  0  0  0  0  0  0  0  0  0  0
    6.7180  -13.1369   27.3371 C   0  0  0  0  0  0  0  0  0  0  0  0
    7.3702  -11.9325   27.2594 C   0  0  0  0  0  0  0  0  0  0  0  0
    7.9202  -11.5249   26.0742 C   0  0  0  0  0  0  0  0  0  0  0  0
    7.8109  -12.3384   24.9606 C   0  0  0  0  0  0  0  0  0  0  0  0
    8.7135  -16.1220   24.5976 C   0  0  0  0  0  0  0  0  0  0  0  0
    8.0929  -17.1746   24.9875 O   0  0  0  0  0  0  0  0  0  0  0  0
   12.7747  -18.0252   26.6201 C   0  0  0  0  0  0  0  0  0  0  0  0
   12.0727  -17.0141   25.7361 C   0  0  2  0  0  0  0  0  0  0  0  0
   12.8039  -15.7025   25.9313 C   0  0  0  0  0  0  0  0  0  0  0  0
   10.6436  -16.8285   26.0856 C   0  0  2  0  0  0  0  0  0  0  0  0
    9.9152  -15.8668   25.3172 N   0  0  0  0  0  0  0  0  0  0  0  0
   10.5612  -16.4671   27.5464 C   0  0  0  0  0  0  0  0  0  0  0  0
   10.1558  -15.1819   27.8566 O   0  0  0  0  0  0  0  0  0  0  0  0
   10.8485  -17.2992   28.4573 O   0  0  0  0  0  0  0  0  0  0  0  0
  2  1  1  1
  3  2  1  0
  4  2  1  0
  5  4  1  0
  5  6  1  6
  7  8  2  0
  7  5  1  0
  9  7  1  0
 10  9  1  0
 11 12  1  0
 10 11  1  1
 12 17  2  0
 12 13  1  0
 13 14  2  0
 14 15  1  0
 16 15  2  0
 17 16  1  0
 18 19  2  0
 18 10  1  0
 21 20  1  1
 22 21  1  0
 23 21  1  0
 23 24  1  6
 24 18  1  0
 25 23  1  0
 26 25  1  0
 27 25  2  0
M  END
$$$$
