LFV.pdb
     RDKit          3D

 27 27  0  0  1  0  0  0  0  0999 V2000
    7.4685  -12.2149   19.0169 C   0  0  0  0  0  0  0  0  0  0  0  0
    7.7172  -13.6721   19.3253 C   0  0  1  0  0  0  0  0  0  0  0  0
    7.8841  -14.4747   18.0517 C   0  0  0  0  0  0  0  0  0  0  0  0
    8.9598  -13.8656   20.1699 C   0  0  0  0  0  0  0  0  0  0  0  0
    8.8295  -15.2048   20.8524 C   0  0  2  0  0  0  0  0  0  0  0  0
    7.4481  -15.5700   20.8787 N   0  0  0  0  0  0  0  0  0  0  0  0
    9.4622  -15.2184   22.1956 C   0  0  0  0  0  0  0  0  0  0  0  0
   10.6950  -15.0002   22.3267 O   0  0  0  0  0  0  0  0  0  0  0  0
    8.7376  -15.4719   23.3914 N   0  0  0  0  0  0  0  0  0  0  0  0
    9.3661  -15.4905   24.7133 C   0  0  1  0  0  0  0  0  0  0  0  0
    8.5113  -14.8992   25.7659 C   0  0  0  0  0  0  0  0  0  0  0  0
    9.0706  -14.7966   27.1074 C   0  0  0  0  0  0  0  0  0  0  0  0
    9.6146  -13.6090   27.5451 C   0  0  0  0  0  0  0  0  0  0  0  0
   10.1615  -13.4904   28.8257 C   0  0  0  0  0  0  0  0  0  0  0  0
   10.1595  -14.5732   29.6681 C   0  0  0  0  0  0  0  0  0  0  0  0
    9.6243  -15.7632   29.2552 C   0  0  0  0  0  0  0  0  0  0  0  0
    9.0878  -15.8607   27.9838 C   0  0  0  0  0  0  0  0  0  0  0  0
    9.8461  -16.8684   24.9532 C   0  0  0  0  0  0  0  0  0  0  0  0
    9.0584  -17.8750   24.8466 O   0  0  0  0  0  0  0  0  0  0  0  0
   13.3093  -20.3549   24.9054 C   0  0  0  0  0  0  0  0  0  0  0  0
   12.8301  -18.9422   24.6383 C   0  0  2  0  0  0  0  0  0  0  0  0
   13.9980  -18.0326   24.9574 C   0  0  0  0  0  0  0  0  0  0  0  0
   11.6702  -18.5530   25.4762 C   0  0  2  0  0  0  0  0  0  0  0  0
   11.1785  -17.2199   25.3111 N   0  0  0  0  0  0  0  0  0  0  0  0
   12.0397  -18.7742   26.9205 C   0  0  0  0  0  0  0  0  0  0  0  0
   12.2047  -20.0826   27.3363 O   0  0  0  0  0  0  0  0  0  0  0  0
   12.1952  -17.8084   27.7253 O   0  0  0  0  0  0  0  0  0  0  0  0
  2  1  1  6
  3  2  1  0
  4  2  1  0
  5  4  1  0
  5  6  1  1
  7  8  2  0
  7  5  1  0
  9  7  1  0
 10  9  1  0
 11 12  1  0
 10 11  1  1
 12 17  2  0
 12 13  1  0
 13 14  2  0
 14 15  1  0
 16 15  2  0
 17 16  1  0
 18 19  2  0
 18 10  1  0
 21 20  1  1
 22 21  1  0
 23 21  1  0
 23 24  1  1
 24 18  1  0
 25 23  1  0
 26 25  1  0
 27 25  2  0
M  END
$$$$
