LFV.pdb
     RDKit          3D

 27 27  0  0  1  0  0  0  0  0999 V2000
    7.9485  -13.4804   17.6694 C   0  0  0  0  0  0  0  0  0  0  0  0
    8.4786  -14.7260   18.3385 C   0  0  1  0  0  0  0  0  0  0  0  0
    8.9874  -15.7174   17.3128 C   0  0  0  0  0  0  0  0  0  0  0  0
    9.6119  -14.4139   19.2941 C   0  0  0  0  0  0  0  0  0  0  0  0
    9.6990  -15.5609   20.2704 C   0  0  2  0  0  0  0  0  0  0  0  0
    8.6431  -16.4813   19.9869 N   0  0  0  0  0  0  0  0  0  0  0  0
    9.7092  -15.1016   21.6823 C   0  0  0  0  0  0  0  0  0  0  0  0
   10.6048  -14.3201   22.0967 O   0  0  0  0  0  0  0  0  0  0  0  0
    8.7344  -15.5029   22.6353 N   0  0  0  0  0  0  0  0  0  0  0  0
    8.5217  -14.7979   23.9004 C   0  0  1  0  0  0  0  0  0  0  0  0
    7.0944  -14.5201   24.1721 C   0  0  0  0  0  0  0  0  0  0  0  0
    6.7825  -13.6204   25.2749 C   0  0  0  0  0  0  0  0  0  0  0  0
    6.0052  -14.0531   26.3268 C   0  0  0  0  0  0  0  0  0  0  0  0
    5.6892  -13.2050   27.3918 C   0  0  0  0  0  0  0  0  0  0  0  0
    6.1589  -11.9161   27.3961 C   0  0  0  0  0  0  0  0  0  0  0  0
    6.9332  -11.4641   26.3619 C   0  0  0  0  0  0  0  0  0  0  0  0
    7.2349  -12.3189   25.3168 C   0  0  0  0  0  0  0  0  0  0  0  0
    9.2580  -15.5392   24.9466 C   0  0  0  0  0  0  0  0  0  0  0  0
    9.6738  -16.7358   24.7460 O   0  0  0  0  0  0  0  0  0  0  0  0
   11.2794  -13.6617   28.2486 C   0  0  0  0  0  0  0  0  0  0  0  0
   10.5926  -14.9892   28.4994 C   0  0  2  0  0  0  0  0  0  0  0  0
   11.5446  -15.8032   29.3504 C   0  0  0  0  0  0  0  0  0  0  0  0
   10.2977  -15.7364   27.2529 C   0  0  2  0  0  0  0  0  0  0  0  0
    9.5779  -15.0313   26.2377 N   0  0  0  0  0  0  0  0  0  0  0  0
    9.5431  -16.9873   27.6234 C   0  0  0  0  0  0  0  0  0  0  0  0
   10.2648  -18.0076   28.2154 O   0  0  0  0  0  0  0  0  0  0  0  0
    8.3008  -17.1067   27.4061 O   0  0  0  0  0  0  0  0  0  0  0  0
  2  1  1  6
  3  2  1  0
  4  2  1  0
  5  4  1  0
  5  6  1  1
  7  8  2  0
  7  5  1  0
  9  7  1  0
 10  9  1  0
 11 12  1  0
 10 11  1  1
 12 17  2  0
 12 13  1  0
 13 14  2  0
 14 15  1  0
 16 15  2  0
 17 16  1  0
 18 19  2  0
 18 10  1  0
 21 20  1  6
 22 21  1  0
 23 21  1  0
 23 24  1  6
 24 18  1  0
 25 23  1  0
 26 25  1  0
 27 25  2  0
M  END
$$$$
