LFV.pdb
     RDKit          3D

 27 27  0  0  1  0  0  0  0  0999 V2000
   10.1089  -12.9691   19.0850 C   0  0  0  0  0  0  0  0  0  0  0  0
    8.6601  -13.3209   19.3243 C   0  0  1  0  0  0  0  0  0  0  0  0
    7.7492  -12.4993   18.4360 C   0  0  0  0  0  0  0  0  0  0  0  0
    8.3836  -14.7858   19.0556 C   0  0  0  0  0  0  0  0  0  0  0  0
    8.9800  -15.5682   20.1995 C   0  0  2  0  0  0  0  0  0  0  0  0
    8.4621  -16.8995   20.1595 N   0  0  0  0  0  0  0  0  0  0  0  0
    8.7726  -14.9006   21.5095 C   0  0  0  0  0  0  0  0  0  0  0  0
    8.2229  -13.7700   21.5738 O   0  0  0  0  0  0  0  0  0  0  0  0
    9.1703  -15.4780   22.7455 N   0  0  0  0  0  0  0  0  0  0  0  0
    8.8097  -14.9050   24.0434 C   0  0  1  0  0  0  0  0  0  0  0  0
    7.3528  -14.7003   24.1980 C   0  0  0  0  0  0  0  0  0  0  0  0
    6.9088  -13.7955   25.2501 C   0  0  0  0  0  0  0  0  0  0  0  0
    7.1545  -12.4434   25.1539 C   0  0  0  0  0  0  0  0  0  0  0  0
    6.7425  -11.5586   26.1543 C   0  0  0  0  0  0  0  0  0  0  0  0
    6.0802  -12.0391   27.2554 C   0  0  0  0  0  0  0  0  0  0  0  0
    5.8248  -13.3786   27.3726 C   0  0  0  0  0  0  0  0  0  0  0  0
    6.2408  -14.2383   26.3717 C   0  0  0  0  0  0  0  0  0  0  0  0
    9.4732  -15.7196   25.0839 C   0  0  0  0  0  0  0  0  0  0  0  0
    9.8282  -16.9306   24.8545 O   0  0  0  0  0  0  0  0  0  0  0  0
    9.5766  -15.0358   29.4411 C   0  0  0  0  0  0  0  0  0  0  0  0
   10.8379  -15.2982   28.6429 C   0  0  2  0  0  0  0  0  0  0  0  0
   11.4541  -13.9424   28.3688 C   0  0  0  0  0  0  0  0  0  0  0  0
   10.5784  -15.9820   27.3529 C   0  0  2  0  0  0  0  0  0  0  0  0
    9.7827  -15.2721   26.3996 N   0  0  0  0  0  0  0  0  0  0  0  0
    9.9357  -17.3128   27.6484 C   0  0  0  0  0  0  0  0  0  0  0  0
   10.6995  -18.2461   28.3251 O   0  0  0  0  0  0  0  0  0  0  0  0
    8.7470  -17.5730   27.2963 O   0  0  0  0  0  0  0  0  0  0  0  0
  2  1  1  6
  3  2  1  0
  4  2  1  0
  5  4  1  0
  5  6  1  1
  7  8  2  0
  7  5  1  0
  9  7  1  0
 10  9  1  0
 11 12  1  0
 10 11  1  1
 12 17  2  0
 12 13  1  0
 13 14  2  0
 14 15  1  0
 16 15  2  0
 17 16  1  0
 18 19  2  0
 18 10  1  0
 21 20  1  6
 22 21  1  0
 23 21  1  0
 23 24  1  6
 24 18  1  0
 25 23  1  0
 26 25  1  0
 27 25  2  0
M  END
$$$$
