LFV.pdb
     RDKit          3D

 27 27  0  0  1  0  0  0  0  0999 V2000
    7.5165  -12.9968   16.8202 C   0  0  0  0  0  0  0  0  0  0  0  0
    7.9820  -14.1803   17.6343 C   0  0  1  0  0  0  0  0  0  0  0  0
    9.3132  -14.6960   17.1286 C   0  0  0  0  0  0  0  0  0  0  0  0
    8.1389  -13.8301   19.0998 C   0  0  0  0  0  0  0  0  0  0  0  0
    8.4393  -15.1134   19.8341 C   0  0  2  0  0  0  0  0  0  0  0  0
    7.3825  -16.0414   19.5801 N   0  0  0  0  0  0  0  0  0  0  0  0
    8.6859  -14.8918   21.2814 C   0  0  0  0  0  0  0  0  0  0  0  0
    9.7058  -14.2647   21.6702 O   0  0  0  0  0  0  0  0  0  0  0  0
    7.8103  -15.3605   22.2978 N   0  0  0  0  0  0  0  0  0  0  0  0
    7.9445  -14.9743   23.7034 C   0  0  1  0  0  0  0  0  0  0  0  0
    6.9654  -13.9442   24.1137 C   0  0  0  0  0  0  0  0  0  0  0  0
    7.0806  -13.4065   25.4630 C   0  0  0  0  0  0  0  0  0  0  0  0
    8.1892  -12.6744   25.8275 C   0  0  0  0  0  0  0  0  0  0  0  0
    8.3225  -12.1545   27.1179 C   0  0  0  0  0  0  0  0  0  0  0  0
    7.3344  -12.3735   28.0439 C   0  0  0  0  0  0  0  0  0  0  0  0
    6.2237  -13.0978   27.7045 C   0  0  0  0  0  0  0  0  0  0  0  0
    6.1103  -13.6042   26.4221 C   0  0  0  0  0  0  0  0  0  0  0  0
    7.9634  -16.2186   24.5019 C   0  0  0  0  0  0  0  0  0  0  0  0
    7.1596  -16.3889   25.4869 O   0  0  0  0  0  0  0  0  0  0  0  0
   11.6564  -17.5045   23.2096 C   0  0  0  0  0  0  0  0  0  0  0  0
   11.2792  -17.0819   24.6152 C   0  0  2  0  0  0  0  0  0  0  0  0
   12.3816  -17.5917   25.5197 C   0  0  0  0  0  0  0  0  0  0  0  0
    9.9839  -17.6466   25.0649 C   0  0  2  0  0  0  0  0  0  0  0  0
    8.8349  -17.3218   24.2774 N   0  0  0  0  0  0  0  0  0  0  0  0
    9.7524  -17.2128   26.4895 C   0  0  0  0  0  0  0  0  0  0  0  0
    9.6112  -18.2094   27.4377 O   0  0  0  0  0  0  0  0  0  0  0  0
    9.6893  -15.9896   26.8131 O   0  0  0  0  0  0  0  0  0  0  0  0
  2  1  1  6
  3  2  1  0
  4  2  1  0
  5  4  1  0
  5  6  1  1
  7  8  2  0
  7  5  1  0
  9  7  1  0
 10  9  1  0
 11 12  1  0
 10 11  1  1
 12 17  2  0
 12 13  1  0
 13 14  2  0
 14 15  1  0
 16 15  2  0
 17 16  1  0
 18 19  2  0
 18 10  1  0
 21 20  1  6
 22 21  1  0
 23 21  1  0
 23 24  1  6
 24 18  1  0
 25 23  1  0
 26 25  1  0
 27 25  2  0
M  END
$$$$
