LFV.pdb
     RDKit          3D

 27 27  0  0  1  0  0  0  0  0999 V2000
    7.7251  -20.9664   18.4390 C   0  0  0  0  0  0  0  0  0  0  0  0
    7.0827  -20.5105   19.7273 C   0  0  1  0  0  0  0  0  0  0  0  0
    7.0812  -21.6229   20.7553 C   0  0  0  0  0  0  0  0  0  0  0  0
    7.8014  -19.3184   20.3248 C   0  0  0  0  0  0  0  0  0  0  0  0
    6.7460  -18.3161   20.7222 C   0  0  2  0  0  0  0  0  0  0  0  0
    6.1280  -17.8114   19.5365 N   0  0  0  0  0  0  0  0  0  0  0  0
    7.2845  -17.2465   21.6000 C   0  0  0  0  0  0  0  0  0  0  0  0
    8.0172  -16.3378   21.1289 O   0  0  0  0  0  0  0  0  0  0  0  0
    7.0159  -17.1787   22.9938 N   0  0  0  0  0  0  0  0  0  0  0  0
    7.5071  -16.0950   23.8465 C   0  0  1  0  0  0  0  0  0  0  0  0
    6.4357  -15.4585   24.6435 C   0  0  0  0  0  0  0  0  0  0  0  0
    6.8228  -14.3993   25.5661 C   0  0  0  0  0  0  0  0  0  0  0  0
    6.4930  -13.0888   25.2982 C   0  0  0  0  0  0  0  0  0  0  0  0
    6.8594  -12.0568   26.1665 C   0  0  0  0  0  0  0  0  0  0  0  0
    7.5607  -12.3475   27.3092 C   0  0  0  0  0  0  0  0  0  0  0  0
    7.8993  -13.6422   27.5963 C   0  0  0  0  0  0  0  0  0  0  0  0
    7.5276  -14.6496   26.7241 C   0  0  0  0  0  0  0  0  0  0  0  0
    8.6650  -16.6195   24.6018 C   0  0  0  0  0  0  0  0  0  0  0  0
    8.5357  -17.5950   25.4245 O   0  0  0  0  0  0  0  0  0  0  0  0
   12.8413  -15.0421   24.3496 C   0  0  0  0  0  0  0  0  0  0  0  0
   12.4437  -16.5042   24.3753 C   0  0  2  0  0  0  0  0  0  0  0  0
   12.3127  -16.9318   22.9285 C   0  0  0  0  0  0  0  0  0  0  0  0
   11.1558  -16.7449   25.0699 C   0  0  2  0  0  0  0  0  0  0  0  0
    9.9969  -16.1258   24.5045 N   0  0  0  0  0  0  0  0  0  0  0  0
   11.3073  -16.3067   26.5039 C   0  0  0  0  0  0  0  0  0  0  0  0
   12.2770  -16.9411   27.2585 O   0  0  0  0  0  0  0  0  0  0  0  0
   10.5821  -15.3964   27.0040 O   0  0  0  0  0  0  0  0  0  0  0  0
  2  1  1  6
  3  2  1  0
  4  2  1  0
  5  4  1  0
  5  6  1  6
  7  8  2  0
  7  5  1  0
  9  7  1  0
 10  9  1  0
 11 12  1  0
 10 11  1  1
 12 17  2  0
 12 13  1  0
 13 14  2  0
 14 15  1  0
 16 15  2  0
 17 16  1  0
 18 19  2  0
 18 10  1  0
 21 20  1  6
 22 21  1  0
 23 21  1  0
 23 24  1  6
 24 18  1  0
 25 23  1  0
 26 25  1  0
 27 25  2  0
M  END
$$$$
