NDF.pdb
     RDKit          3D

 28 28  0  0  1  0  0  0  0  0999 V2000
   32.0122  -23.7269  -17.5372 N   0  0  0  0  0  0  0  0  0  0  0  0
   30.9797  -24.1028  -18.4205 C   0  0  0  0  0  0  0  0  0  0  0  0
   31.1374  -25.1461  -19.0981 O   0  0  0  0  0  0  0  0  0  0  0  0
   29.7723  -23.2434  -18.4946 C   0  0  0  0  0  0  0  0  0  0  0  0
   28.9100  -23.4028  -17.2575 C   0  0  2  0  0  0  0  0  0  0  0  0
   28.6580  -24.7977  -16.9703 N   0  0  0  0  0  0  0  0  0  0  0  0
   27.6149  -22.7458  -17.5442 C   0  0  0  0  0  0  0  0  0  0  0  0
   27.6211  -21.6016  -18.0564 O   0  0  0  0  0  0  0  0  0  0  0  0
   26.3645  -23.3485  -17.2674 N   0  0  0  0  0  0  0  0  0  0  0  0
   25.1631  -22.6005  -17.4833 C   0  0  1  0  0  0  0  0  0  0  0  0
   24.0955  -23.5208  -18.0150 C   0  0  0  0  0  0  0  0  0  0  0  0
   24.3687  -23.8291  -19.4302 C   0  0  0  0  0  0  0  0  0  0  0  0
   24.7099  -24.9862  -19.7551 O   0  0  0  0  0  0  0  0  0  0  0  0
   24.6816  -22.0461  -16.1628 C   0  0  0  0  0  0  0  0  0  0  0  0
   24.9063  -22.7066  -15.1255 O   0  0  0  0  0  0  0  0  0  0  0  0
   24.2676  -22.8908  -20.4476 O   0  0  0  0  0  0  0  0  0  0  0  0
   23.9952  -20.8174  -16.0840 N   0  0  0  0  0  0  0  0  0  0  0  0
   23.6276  -20.2476  -14.7856 C   0  0  1  0  0  0  0  0  0  0  0  0
   24.8200  -20.0202  -13.9252 C   0  0  0  0  0  0  0  0  0  0  0  0
   25.8791  -19.2090  -14.5550 C   0  0  0  0  0  0  0  0  0  0  0  0
   27.0752  -19.7666  -14.9645 C   0  0  0  0  0  0  0  0  0  0  0  0
   28.0727  -19.0069  -15.5717 C   0  0  0  0  0  0  0  0  0  0  0  0
   27.8395  -17.6588  -15.7608 C   0  0  0  0  0  0  0  0  0  0  0  0
   26.6595  -17.0686  -15.3655 C   0  0  0  0  0  0  0  0  0  0  0  0
   25.7163  -17.8655  -14.7743 C   0  0  0  0  0  0  0  0  0  0  0  0
   22.7375  -19.0865  -14.9347 C   0  0  0  0  0  0  0  0  0  0  0  0
   22.2211  -18.5587  -13.9363 O   0  0  0  0  0  0  0  0  0  0  0  0
   22.4737  -18.5822  -16.1855 O   0  0  0  0  0  0  0  0  0  0  0  0
  1  2  1  0
  2  3  2  0
  2  4  1  0
  4  5  1  0
  5  7  1  0
  5  6  1  6
  7  8  2  0
  9 10  1  0
  9  7  1  0
 10 11  1  1
 12 11  1  0
 13 12  2  0
 14 15  2  0
 14 10  1  0
 16 12  1  0
 17 14  1  0
 18 17  1  0
 18 26  1  0
 18 19  1  6
 20 19  1  0
 21 20  2  0
 22 21  1  0
 23 22  2  0
 23 24  1  0
 24 25  2  0
 25 20  1  0
 26 28  1  0
 27 26  2  0
M  END
$$$$
