NDF.pdb
     RDKit          3D

 28 28  0  0  1  0  0  0  0  0999 V2000
   16.7665  -13.8333  -15.7301 N   0  0  0  0  0  0  0  0  0  0  0  0
   17.6667  -13.3748  -14.7467 C   0  0  0  0  0  0  0  0  0  0  0  0
   17.6098  -13.8983  -13.6086 O   0  0  0  0  0  0  0  0  0  0  0  0
   18.6243  -12.3034  -15.1170 C   0  0  0  0  0  0  0  0  0  0  0  0
   18.4057  -11.8434  -16.5453 C   0  0  2  0  0  0  0  0  0  0  0  0
   18.9925  -12.7682  -17.4897 N   0  0  0  0  0  0  0  0  0  0  0  0
   19.0871  -10.5372  -16.6890 C   0  0  0  0  0  0  0  0  0  0  0  0
   20.3381  -10.5166  -16.7680 O   0  0  0  0  0  0  0  0  0  0  0  0
   18.3928   -9.3049  -16.7419 N   0  0  0  0  0  0  0  0  0  0  0  0
   19.1354   -8.0870  -16.8631 C   0  0  1  0  0  0  0  0  0  0  0  0
   18.2134   -6.9888  -17.3252 C   0  0  0  0  0  0  0  0  0  0  0  0
   17.8455   -7.2128  -18.7348 C   0  0  0  0  0  0  0  0  0  0  0  0
   18.6902   -7.0105  -19.6329 O   0  0  0  0  0  0  0  0  0  0  0  0
   19.6745   -7.6992  -15.5060 C   0  0  0  0  0  0  0  0  0  0  0  0
   19.2461   -8.3084  -14.5019 O   0  0  0  0  0  0  0  0  0  0  0  0
   16.5889   -7.6448  -19.1348 O   0  0  0  0  0  0  0  0  0  0  0  0
   20.6361   -6.6792  -15.3573 N   0  0  0  0  0  0  0  0  0  0  0  0
   21.2578   -6.4209  -14.0564 C   0  0  1  0  0  0  0  0  0  0  0  0
   21.9120   -7.6386  -13.5059 C   0  0  0  0  0  0  0  0  0  0  0  0
   23.0109   -8.1672  -14.3362 C   0  0  0  0  0  0  0  0  0  0  0  0
   23.3903   -9.4947  -14.2803 C   0  0  0  0  0  0  0  0  0  0  0  0
   24.4185  -10.0011  -15.0724 C   0  0  0  0  0  0  0  0  0  0  0  0
   25.0647   -9.1345  -15.9319 C   0  0  0  0  0  0  0  0  0  0  0  0
   24.7136   -7.8052  -16.0146 C   0  0  0  0  0  0  0  0  0  0  0  0
   23.6958   -7.3649  -15.2118 C   0  0  0  0  0  0  0  0  0  0  0  0
   22.1058   -5.2199  -14.0889 C   0  0  0  0  0  0  0  0  0  0  0  0
   22.6251   -4.7892  -13.0463 O   0  0  0  0  0  0  0  0  0  0  0  0
   22.3250   -4.5685  -15.2789 O   0  0  0  0  0  0  0  0  0  0  0  0
  1  2  1  0
  2  3  2  0
  2  4  1  0
  4  5  1  0
  5  7  1  0
  5  6  1  6
  7  8  2  0
  9 10  1  0
  9  7  1  0
 10 11  1  1
 12 11  1  0
 13 12  2  0
 14 15  2  0
 14 10  1  0
 16 12  1  0
 17 14  1  0
 18 17  1  0
 18 26  1  0
 18 19  1  6
 20 19  1  0
 21 20  2  0
 22 21  1  0
 23 22  2  0
 23 24  1  0
 24 25  2  0
 25 20  1  0
 26 28  1  0
 27 26  2  0
M  END
$$$$
