NDF.pdb
     RDKit          3D

 28 28  0  0  1  0  0  0  0  0999 V2000
   18.6115  -13.1056  -16.9691 N   0  0  0  0  0  0  0  0  0  0  0  0
   19.1740  -12.4757  -15.8402 C   0  0  0  0  0  0  0  0  0  0  0  0
   18.7714  -12.8321  -14.7073 O   0  0  0  0  0  0  0  0  0  0  0  0
   20.2057  -11.4321  -16.0605 C   0  0  0  0  0  0  0  0  0  0  0  0
   20.4140  -11.1718  -17.5398 C   0  0  2  0  0  0  0  0  0  0  0  0
   21.4938  -11.9767  -18.0668 N   0  0  0  0  0  0  0  0  0  0  0  0
   20.7853   -9.7459  -17.6808 C   0  0  0  0  0  0  0  0  0  0  0  0
   21.9775   -9.4121  -17.4834 O   0  0  0  0  0  0  0  0  0  0  0  0
   19.8566   -8.7362  -18.0292 N   0  0  0  0  0  0  0  0  0  0  0  0
   20.3179   -7.3937  -18.2148 C   0  0  1  0  0  0  0  0  0  0  0  0
   19.3319   -6.6455  -19.0736 C   0  0  0  0  0  0  0  0  0  0  0  0
   19.4526   -7.0960  -20.4717 C   0  0  0  0  0  0  0  0  0  0  0  0
   18.4244   -7.3985  -21.1137 O   0  0  0  0  0  0  0  0  0  0  0  0
   20.3818   -6.7026  -16.8728 C   0  0  0  0  0  0  0  0  0  0  0  0
   19.4928   -6.9578  -16.0318 O   0  0  0  0  0  0  0  0  0  0  0  0
   20.6668   -7.2072  -21.1342 O   0  0  0  0  0  0  0  0  0  0  0  0
   21.4103   -5.7907  -16.5600 N   0  0  0  0  0  0  0  0  0  0  0  0
   21.4351   -5.1062  -15.2652 C   0  0  1  0  0  0  0  0  0  0  0  0
   22.6680   -5.4250  -14.4959 C   0  0  0  0  0  0  0  0  0  0  0  0
   22.8895   -6.8661  -14.2710 C   0  0  0  0  0  0  0  0  0  0  0  0
   22.2708   -7.5440  -13.2381 C   0  0  0  0  0  0  0  0  0  0  0  0
   22.4665   -8.9077  -13.0302 C   0  0  0  0  0  0  0  0  0  0  0  0
   23.3074   -9.5832  -13.8928 C   0  0  0  0  0  0  0  0  0  0  0  0
   23.9410   -8.9404  -14.9332 C   0  0  0  0  0  0  0  0  0  0  0  0
   23.7102   -7.5999  -15.0879 C   0  0  0  0  0  0  0  0  0  0  0  0
   21.1418   -3.6718  -15.4038 C   0  0  0  0  0  0  0  0  0  0  0  0
   21.0238   -3.1607  -16.5294 O   0  0  0  0  0  0  0  0  0  0  0  0
   20.9985   -2.8907  -14.2823 O   0  0  0  0  0  0  0  0  0  0  0  0
  1  2  1  0
  2  3  2  0
  2  4  1  0
  4  5  1  0
  5  7  1  0
  5  6  1  1
  7  8  2  0
  9 10  1  0
  9  7  1  0
 10 11  1  6
 12 11  1  0
 13 12  2  0
 14 15  2  0
 14 10  1  0
 16 12  1  0
 17 14  1  0
 18 17  1  0
 18 26  1  0
 18 19  1  6
 20 19  1  0
 21 20  2  0
 22 21  1  0
 23 22  2  0
 23 24  1  0
 24 25  2  0
 25 20  1  0
 26 28  1  0
 27 26  2  0
M  END
$$$$
