NDF.pdb
     RDKit          3D

 28 28  0  0  1  0  0  0  0  0999 V2000
   37.7202  -10.7638  -16.2538 N   0  0  0  0  0  0  0  0  0  0  0  0
   36.5101  -11.2538  -16.7858 C   0  0  0  0  0  0  0  0  0  0  0  0
   36.5130  -12.4013  -17.2919 O   0  0  0  0  0  0  0  0  0  0  0  0
   35.3095  -10.3845  -16.7149 C   0  0  0  0  0  0  0  0  0  0  0  0
   34.1243  -11.0305  -17.4059 C   0  0  2  0  0  0  0  0  0  0  0  0
   34.3957  -11.2596  -18.8079 N   0  0  0  0  0  0  0  0  0  0  0  0
   32.9919  -10.0831  -17.3003 C   0  0  0  0  0  0  0  0  0  0  0  0
   32.8067   -9.4854  -16.2140 O   0  0  0  0  0  0  0  0  0  0  0  0
   32.1041   -9.8176  -18.3701 N   0  0  0  0  0  0  0  0  0  0  0  0
   31.0569   -8.8582  -18.1900 C   0  0  1  0  0  0  0  0  0  0  0  0
   31.3483   -7.6429  -19.0313 C   0  0  0  0  0  0  0  0  0  0  0  0
   30.2767   -6.6474  -18.8496 C   0  0  0  0  0  0  0  0  0  0  0  0
   29.5017   -6.3950  -19.7965 O   0  0  0  0  0  0  0  0  0  0  0  0
   29.7535   -9.4527  -18.6701 C   0  0  0  0  0  0  0  0  0  0  0  0
   29.7862  -10.2605  -19.6235 O   0  0  0  0  0  0  0  0  0  0  0  0
   30.0711   -5.9573  -17.6634 O   0  0  0  0  0  0  0  0  0  0  0  0
   28.5230   -9.1163  -18.0701 N   0  0  0  0  0  0  0  0  0  0  0  0
   27.2653   -9.6624  -18.5854 C   0  0  1  0  0  0  0  0  0  0  0  0
   26.5488  -10.4635  -17.5564 C   0  0  0  0  0  0  0  0  0  0  0  0
   27.2107  -11.7342  -17.2048 C   0  0  0  0  0  0  0  0  0  0  0  0
   27.5423  -12.6709  -18.1649 C   0  0  0  0  0  0  0  0  0  0  0  0
   28.1794  -13.8663  -17.8390 C   0  0  0  0  0  0  0  0  0  0  0  0
   28.4796  -14.1027  -16.5118 C   0  0  0  0  0  0  0  0  0  0  0  0
   28.1642  -13.1921  -15.5278 C   0  0  0  0  0  0  0  0  0  0  0  0
   27.5387  -12.0353  -15.9082 C   0  0  0  0  0  0  0  0  0  0  0  0
   26.4540   -8.6281  -19.2446 C   0  0  0  0  0  0  0  0  0  0  0  0
   26.8271   -7.4436  -19.2465 O   0  0  0  0  0  0  0  0  0  0  0  0
   25.2752   -8.9723  -19.8613 O   0  0  0  0  0  0  0  0  0  0  0  0
  1  2  1  0
  2  3  2  0
  2  4  1  0
  4  5  1  0
  5  7  1  0
  5  6  1  6
  7  8  2  0
  9 10  1  0
  9  7  1  0
 10 11  1  6
 12 11  1  0
 13 12  2  0
 14 15  2  0
 14 10  1  0
 16 12  1  0
 17 14  1  0
 18 17  1  0
 18 26  1  0
 18 19  1  1
 20 19  1  0
 21 20  2  0
 22 21  1  0
 23 22  2  0
 23 24  1  0
 24 25  2  0
 25 20  1  0
 26 28  1  0
 27 26  2  0
M  END
$$$$
