NDF.pdb
     RDKit          3D

 28 28  0  0  1  0  0  0  0  0999 V2000
   20.1115  -18.3020  -13.2940 N   0  0  0  0  0  0  0  0  0  0  0  0
   20.2272  -19.3982  -12.4150 C   0  0  0  0  0  0  0  0  0  0  0  0
   19.1715  -19.9076  -11.9695 O   0  0  0  0  0  0  0  0  0  0  0  0
   21.5875  -19.8813  -12.0713 C   0  0  0  0  0  0  0  0  0  0  0  0
   22.3944  -20.1795  -13.3201 C   0  0  2  0  0  0  0  0  0  0  0  0
   21.7529  -21.1919  -14.1295 N   0  0  0  0  0  0  0  0  0  0  0  0
   23.7055  -20.7025  -12.8744 C   0  0  0  0  0  0  0  0  0  0  0  0
   23.7860  -21.9027  -12.5213 O   0  0  0  0  0  0  0  0  0  0  0  0
   24.8777  -19.9108  -12.8270 N   0  0  0  0  0  0  0  0  0  0  0  0
   26.1173  -20.5165  -12.4448 C   0  0  1  0  0  0  0  0  0  0  0  0
   27.2520  -19.7907  -13.1197 C   0  0  0  0  0  0  0  0  0  0  0  0
   28.5276  -20.4501  -12.7873 C   0  0  0  0  0  0  0  0  0  0  0  0
   28.5697  -21.6941  -12.6794 O   0  0  0  0  0  0  0  0  0  0  0  0
   26.2982  -20.3732  -10.9516 C   0  0  0  0  0  0  0  0  0  0  0  0
   26.0765  -19.2580  -10.4322 O   0  0  0  0  0  0  0  0  0  0  0  0
   29.7124  -19.7575  -12.5821 O   0  0  0  0  0  0  0  0  0  0  0  0
   26.7059  -21.4584  -10.1497 N   0  0  0  0  0  0  0  0  0  0  0  0
   26.9558  -21.2782   -8.7177 C   0  0  1  0  0  0  0  0  0  0  0  0
   28.1605  -20.4411   -8.4688 C   0  0  0  0  0  0  0  0  0  0  0  0
   28.4417  -20.1881   -7.0429 C   0  0  0  0  0  0  0  0  0  0  0  0
   27.8423  -19.1490   -6.3571 C   0  0  0  0  0  0  0  0  0  0  0  0
   28.0947  -18.9145   -5.0072 C   0  0  0  0  0  0  0  0  0  0  0  0
   28.9729  -19.7567   -4.3537 C   0  0  0  0  0  0  0  0  0  0  0  0
   29.5888  -20.8025   -5.0048 C   0  0  0  0  0  0  0  0  0  0  0  0
   29.3019  -20.9836   -6.3311 C   0  0  0  0  0  0  0  0  0  0  0  0
   25.7430  -20.8503   -8.0045 C   0  0  0  0  0  0  0  0  0  0  0  0
   24.9664  -20.0308   -8.5216 O   0  0  0  0  0  0  0  0  0  0  0  0
   25.4665  -21.3585   -6.7581 O   0  0  0  0  0  0  0  0  0  0  0  0
  1  2  1  0
  2  3  2  0
  2  4  1  0
  4  5  1  0
  5  7  1  0
  5  6  1  6
  7  8  2  0
  9 10  1  0
  9  7  1  0
 10 11  1  6
 12 11  1  0
 13 12  2  0
 14 15  2  0
 14 10  1  0
 16 12  1  0
 17 14  1  0
 18 17  1  0
 18 26  1  0
 18 19  1  6
 20 19  1  0
 21 20  2  0
 22 21  1  0
 23 22  2  0
 23 24  1  0
 24 25  2  0
 25 20  1  0
 26 28  1  0
 27 26  2  0
M  END
$$$$
