NDF.pdb
     RDKit          3D

 28 28  0  0  1  0  0  0  0  0999 V2000
   15.5158  -22.3772   -0.7336 N   0  0  0  0  0  0  0  0  0  0  0  0
   15.8216  -22.7531    0.5903 C   0  0  0  0  0  0  0  0  0  0  0  0
   16.1020  -23.9555    0.8096 O   0  0  0  0  0  0  0  0  0  0  0  0
   15.7932  -21.7058    1.6413 C   0  0  0  0  0  0  0  0  0  0  0  0
   14.6939  -21.9733    2.6510 C   0  0  2  0  0  0  0  0  0  0  0  0
   13.3854  -21.8172    2.0552 N   0  0  0  0  0  0  0  0  0  0  0  0
   14.8384  -20.9661    3.7260 C   0  0  0  0  0  0  0  0  0  0  0  0
   14.2229  -19.8792    3.6190 O   0  0  0  0  0  0  0  0  0  0  0  0
   15.6409  -21.1705    4.8739 N   0  0  0  0  0  0  0  0  0  0  0  0
   15.6474  -20.1820    5.9094 C   0  0  1  0  0  0  0  0  0  0  0  0
   16.2288  -20.7818    7.1631 C   0  0  0  0  0  0  0  0  0  0  0  0
   16.2008  -19.7839    8.2474 C   0  0  0  0  0  0  0  0  0  0  0  0
   17.2714  -19.4186    8.7778 O   0  0  0  0  0  0  0  0  0  0  0  0
   16.5346  -19.0329    5.4907 C   0  0  0  0  0  0  0  0  0  0  0  0
   17.5919  -19.2936    4.8769 O   0  0  0  0  0  0  0  0  0  0  0  0
   15.0308  -19.2120    8.7265 O   0  0  0  0  0  0  0  0  0  0  0  0
   16.1943  -17.6951    5.7766 N   0  0  0  0  0  0  0  0  0  0  0  0
   17.1160  -16.6034    5.4538 C   0  0  1  0  0  0  0  0  0  0  0  0
   16.6859  -15.8588    4.2395 C   0  0  0  0  0  0  0  0  0  0  0  0
   17.6008  -14.7747    3.8345 C   0  0  0  0  0  0  0  0  0  0  0  0
   17.5151  -13.5089    4.3817 C   0  0  0  0  0  0  0  0  0  0  0  0
   18.3855  -12.4858    4.0120 C   0  0  0  0  0  0  0  0  0  0  0  0
   19.3553  -12.7656    3.0693 C   0  0  0  0  0  0  0  0  0  0  0  0
   19.4706  -14.0155    2.5024 C   0  0  0  0  0  0  0  0  0  0  0  0
   18.5872  -14.9808    2.9050 C   0  0  0  0  0  0  0  0  0  0  0  0
   17.3987  -15.7661    6.6292 C   0  0  0  0  0  0  0  0  0  0  0  0
   18.2383  -14.8535    6.5632 O   0  0  0  0  0  0  0  0  0  0  0  0
   16.7316  -15.9943    7.8088 O   0  0  0  0  0  0  0  0  0  0  0  0
  1  2  1  0
  2  3  2  0
  2  4  1  0
  4  5  1  0
  5  7  1  0
  5  6  1  6
  7  8  2  0
  9 10  1  0
  9  7  1  0
 10 11  1  1
 12 11  1  0
 13 12  2  0
 14 15  2  0
 14 10  1  0
 16 12  1  0
 17 14  1  0
 18 17  1  0
 18 26  1  0
 18 19  1  6
 20 19  1  0
 21 20  2  0
 22 21  1  0
 23 22  2  0
 23 24  1  0
 24 25  2  0
 25 20  1  0
 26 28  1  0
 27 26  2  0
M  END
$$$$
