NDF.pdb
     RDKit          3D

 28 28  0  0  1  0  0  0  0  0999 V2000
   29.1613  -16.5936  -16.2839 N   0  0  0  0  0  0  0  0  0  0  0  0
   27.7705  -16.4034  -16.4149 C   0  0  0  0  0  0  0  0  0  0  0  0
   27.3597  -15.7218  -17.3841 O   0  0  0  0  0  0  0  0  0  0  0  0
   26.8796  -17.0195  -15.4007 C   0  0  0  0  0  0  0  0  0  0  0  0
   27.6783  -17.7806  -14.3604 C   0  0  2  0  0  0  0  0  0  0  0  0
   28.6552  -18.6479  -14.9808 N   0  0  0  0  0  0  0  0  0  0  0  0
   26.7202  -18.6222  -13.6089 C   0  0  0  0  0  0  0  0  0  0  0  0
   25.6097  -18.1339  -13.2926 O   0  0  0  0  0  0  0  0  0  0  0  0
   26.9972  -19.9569  -13.2281 N   0  0  0  0  0  0  0  0  0  0  0  0
   26.0227  -20.6877  -12.4759 C   0  0  1  0  0  0  0  0  0  0  0  0
   25.7697  -22.0122  -13.1477 C   0  0  0  0  0  0  0  0  0  0  0  0
   24.6828  -22.7212  -12.4488 C   0  0  0  0  0  0  0  0  0  0  0  0
   23.9959  -22.1145  -11.5997 O   0  0  0  0  0  0  0  0  0  0  0  0
   26.5700  -20.9652  -11.0952 C   0  0  0  0  0  0  0  0  0  0  0  0
   27.8076  -21.0772  -10.9597 O   0  0  0  0  0  0  0  0  0  0  0  0
   24.3684  -24.0525  -12.6817 O   0  0  0  0  0  0  0  0  0  0  0  0
   25.7214  -21.0974   -9.9773 N   0  0  0  0  0  0  0  0  0  0  0  0
   26.2735  -21.1583   -8.6219 C   0  0  1  0  0  0  0  0  0  0  0  0
   27.2046  -20.0291   -8.3540 C   0  0  0  0  0  0  0  0  0  0  0  0
   27.6756  -19.9467   -6.9584 C   0  0  0  0  0  0  0  0  0  0  0  0
   28.5394  -20.8847   -6.4263 C   0  0  0  0  0  0  0  0  0  0  0  0
   28.9973  -20.8034   -5.1130 C   0  0  0  0  0  0  0  0  0  0  0  0
   28.5631  -19.7467   -4.3369 C   0  0  0  0  0  0  0  0  0  0  0  0
   27.7023  -18.7930   -4.8335 C   0  0  0  0  0  0  0  0  0  0  0  0
   27.2862  -18.9253   -6.1310 C   0  0  0  0  0  0  0  0  0  0  0  0
   25.2192  -21.3477   -7.6143 C   0  0  0  0  0  0  0  0  0  0  0  0
   25.4432  -22.0091   -6.5875 O   0  0  0  0  0  0  0  0  0  0  0  0
   23.9779  -20.7913   -7.8093 O   0  0  0  0  0  0  0  0  0  0  0  0
  1  2  1  0
  2  3  2  0
  2  4  1  0
  4  5  1  0
  5  7  1  0
  5  6  1  6
  7  8  2  0
  9 10  1  0
  9  7  1  0
 10 11  1  6
 12 11  1  0
 13 12  2  0
 14 15  2  0
 14 10  1  0
 16 12  1  0
 17 14  1  0
 18 17  1  0
 18 26  1  0
 18 19  1  1
 20 19  1  0
 21 20  2  0
 22 21  1  0
 23 22  2  0
 23 24  1  0
 24 25  2  0
 25 20  1  0
 26 28  1  0
 27 26  2  0
M  END
$$$$
