NDF.pdb
     RDKit          3D

 28 28  0  0  1  0  0  0  0  0999 V2000
   16.4267  -11.0562  -17.9203 N   0  0  0  0  0  0  0  0  0  0  0  0
   16.1743  -10.2514  -16.7906 C   0  0  0  0  0  0  0  0  0  0  0  0
   14.9991   -9.8566  -16.6015 O   0  0  0  0  0  0  0  0  0  0  0  0
   17.3115   -9.9211  -15.8963 C   0  0  0  0  0  0  0  0  0  0  0  0
   18.5939  -10.5711  -16.3786 C   0  0  2  0  0  0  0  0  0  0  0  0
   18.7007  -11.9339  -15.9064 N   0  0  0  0  0  0  0  0  0  0  0  0
   19.7157   -9.7921  -15.8079 C   0  0  0  0  0  0  0  0  0  0  0  0
   19.9682   -9.9078  -14.5854 O   0  0  0  0  0  0  0  0  0  0  0  0
   20.5210   -8.9192  -16.5779 N   0  0  0  0  0  0  0  0  0  0  0  0
   21.6390   -8.2709  -15.9619 C   0  0  1  0  0  0  0  0  0  0  0  0
   22.8769   -8.5362  -16.7784 C   0  0  0  0  0  0  0  0  0  0  0  0
   23.3119   -9.9301  -16.5780 C   0  0  0  0  0  0  0  0  0  0  0  0
   23.5960  -10.3289  -15.4285 O   0  0  0  0  0  0  0  0  0  0  0  0
   21.4014   -6.7788  -15.9515 C   0  0  0  0  0  0  0  0  0  0  0  0
   21.2798   -6.1904  -17.0477 O   0  0  0  0  0  0  0  0  0  0  0  0
   23.4278  -10.8482  -17.6120 O   0  0  0  0  0  0  0  0  0  0  0  0
   21.3162   -6.0531  -14.7461 N   0  0  0  0  0  0  0  0  0  0  0  0
   21.1662   -4.5960  -14.7590 C   0  0  1  0  0  0  0  0  0  0  0  0
   19.7949   -4.1788  -14.3601 C   0  0  0  0  0  0  0  0  0  0  0  0
   18.7417   -4.5476  -15.3251 C   0  0  0  0  0  0  0  0  0  0  0  0
   17.8737   -5.5962  -15.0881 C   0  0  0  0  0  0  0  0  0  0  0  0
   16.8692   -5.9396  -15.9904 C   0  0  0  0  0  0  0  0  0  0  0  0
   16.7546   -5.1975  -17.1497 C   0  0  0  0  0  0  0  0  0  0  0  0
   17.6018   -4.1456  -17.4194 C   0  0  0  0  0  0  0  0  0  0  0  0
   18.5695   -3.8551  -16.4957 C   0  0  0  0  0  0  0  0  0  0  0  0
   22.2558   -3.9316  -14.0282 C   0  0  0  0  0  0  0  0  0  0  0  0
   23.1027   -4.6029  -13.4166 O   0  0  0  0  0  0  0  0  0  0  0  0
   22.3380   -2.5599  -14.0201 O   0  0  0  0  0  0  0  0  0  0  0  0
  1  2  1  0
  2  3  2  0
  2  4  1  0
  4  5  1  0
  5  7  1  0
  5  6  1  1
  7  8  2  0
  9 10  1  0
  9  7  1  0
 10 11  1  6
 12 11  1  0
 13 12  2  0
 14 15  2  0
 14 10  1  0
 16 12  1  0
 17 14  1  0
 18 17  1  0
 18 26  1  0
 18 19  1  1
 20 19  1  0
 21 20  2  0
 22 21  1  0
 23 22  2  0
 23 24  1  0
 24 25  2  0
 25 20  1  0
 26 28  1  0
 27 26  2  0
M  END
$$$$
