NDF.pdb
     RDKit          3D

 28 28  0  0  1  0  0  0  0  0999 V2000
   23.8768  -16.5386  -18.0226 N   0  0  0  0  0  0  0  0  0  0  0  0
   24.6406  -15.3879  -18.3057 C   0  0  0  0  0  0  0  0  0  0  0  0
   25.8749  -15.5297  -18.4763 O   0  0  0  0  0  0  0  0  0  0  0  0
   23.9396  -14.0824  -18.3844 C   0  0  0  0  0  0  0  0  0  0  0  0
   22.4463  -14.2496  -18.1803 C   0  0  2  0  0  0  0  0  0  0  0  0
   21.8375  -14.9332  -19.2999 N   0  0  0  0  0  0  0  0  0  0  0  0
   21.8659  -12.8907  -18.0938 C   0  0  0  0  0  0  0  0  0  0  0  0
   21.6905  -12.2428  -19.1526 O   0  0  0  0  0  0  0  0  0  0  0  0
   21.4976  -12.2841  -16.8692 N   0  0  0  0  0  0  0  0  0  0  0  0
   20.8625  -11.0012  -16.8858 C   0  0  1  0  0  0  0  0  0  0  0  0
   19.4999  -11.1149  -16.2534 C   0  0  0  0  0  0  0  0  0  0  0  0
   18.8049   -9.8180  -16.3404 C   0  0  0  0  0  0  0  0  0  0  0  0
   18.4301   -9.2471  -15.2943 O   0  0  0  0  0  0  0  0  0  0  0  0
   21.6782  -10.0348  -16.0590 C   0  0  0  0  0  0  0  0  0  0  0  0
   21.9183  -10.3297  -14.8682 O   0  0  0  0  0  0  0  0  0  0  0  0
   18.5350   -9.1775  -17.5415 O   0  0  0  0  0  0  0  0  0  0  0  0
   22.1640   -8.8273  -16.6003 N   0  0  0  0  0  0  0  0  0  0  0  0
   22.9478   -7.9013  -15.7795 C   0  0  1  0  0  0  0  0  0  0  0  0
   24.3131   -7.6933  -16.3330 C   0  0  0  0  0  0  0  0  0  0  0  0
   25.1075   -8.9284  -16.4735 C   0  0  0  0  0  0  0  0  0  0  0  0
   25.7596   -9.4995  -15.3975 C   0  0  0  0  0  0  0  0  0  0  0  0
   26.4999  -10.6731  -15.5227 C   0  0  0  0  0  0  0  0  0  0  0  0
   26.5715  -11.2673  -16.7675 C   0  0  0  0  0  0  0  0  0  0  0  0
   25.9346  -10.7267  -17.8625 C   0  0  0  0  0  0  0  0  0  0  0  0
   25.2220   -9.5723  -17.6784 C   0  0  0  0  0  0  0  0  0  0  0  0
   22.2005   -6.6688  -15.4875 C   0  0  0  0  0  0  0  0  0  0  0  0
   21.1415   -6.4196  -16.0862 O   0  0  0  0  0  0  0  0  0  0  0  0
   22.6762   -5.7861  -14.5478 O   0  0  0  0  0  0  0  0  0  0  0  0
  1  2  1  0
  2  3  2  0
  2  4  1  0
  4  5  1  0
  5  7  1  0
  5  6  1  6
  7  8  2  0
  9 10  1  0
  9  7  1  0
 10 11  1  1
 12 11  1  0
 13 12  2  0
 14 15  2  0
 14 10  1  0
 16 12  1  0
 17 14  1  0
 18 17  1  0
 18 26  1  0
 18 19  1  6
 20 19  1  0
 21 20  2  0
 22 21  1  0
 23 22  2  0
 23 24  1  0
 24 25  2  0
 25 20  1  0
 26 28  1  0
 27 26  2  0
M  END
$$$$
