NDF.pdb
     RDKit          3D

 28 28  0  0  1  0  0  0  0  0999 V2000
   32.5332  -32.1011  -17.3867 N   0  0  0  0  0  0  0  0  0  0  0  0
   32.2934  -30.9132  -18.1072 C   0  0  0  0  0  0  0  0  0  0  0  0
   33.2001  -30.4924  -18.8644 O   0  0  0  0  0  0  0  0  0  0  0  0
   30.9861  -30.2347  -17.9263 C   0  0  0  0  0  0  0  0  0  0  0  0
   30.0466  -31.0730  -17.0812 C   0  0  2  0  0  0  0  0  0  0  0  0
   29.8532  -32.3853  -17.6573 N   0  0  0  0  0  0  0  0  0  0  0  0
   28.7409  -30.3759  -17.0638 C   0  0  0  0  0  0  0  0  0  0  0  0
   28.6990  -29.1864  -16.6700 O   0  0  0  0  0  0  0  0  0  0  0  0
   27.5320  -30.9888  -17.4715 N   0  0  0  0  0  0  0  0  0  0  0  0
   26.3028  -30.2658  -17.3462 C   0  0  1  0  0  0  0  0  0  0  0  0
   25.8877  -29.7557  -18.7017 C   0  0  0  0  0  0  0  0  0  0  0  0
   24.5893  -29.0666  -18.5941 C   0  0  0  0  0  0  0  0  0  0  0  0
   24.3296  -28.3950  -17.5731 O   0  0  0  0  0  0  0  0  0  0  0  0
   25.2253  -31.2037  -16.8540 C   0  0  0  0  0  0  0  0  0  0  0  0
   25.1568  -32.3449  -17.3595 O   0  0  0  0  0  0  0  0  0  0  0  0
   23.6147  -29.1194  -19.5805 O   0  0  0  0  0  0  0  0  0  0  0  0
   24.3125  -30.8183  -15.8513 N   0  0  0  0  0  0  0  0  0  0  0  0
   23.2767  -31.7440  -15.3867 C   0  0  1  0  0  0  0  0  0  0  0  0
   23.6531  -32.3937  -14.1021 C   0  0  0  0  0  0  0  0  0  0  0  0
   24.6675  -33.4569  -14.2322 C   0  0  0  0  0  0  0  0  0  0  0  0
   24.3401  -34.7231  -14.6781 C   0  0  0  0  0  0  0  0  0  0  0  0
   25.2971  -35.7263  -14.8151 C   0  0  0  0  0  0  0  0  0  0  0  0
   26.6056  -35.4260  -14.4907 C   0  0  0  0  0  0  0  0  0  0  0  0
   26.9687  -34.1750  -14.0432 C   0  0  0  0  0  0  0  0  0  0  0  0
   25.9849  -33.2299  -13.9286 C   0  0  0  0  0  0  0  0  0  0  0  0
   21.9450  -31.1204  -15.4016 C   0  0  0  0  0  0  0  0  0  0  0  0
   21.8150  -29.9240  -15.7081 O   0  0  0  0  0  0  0  0  0  0  0  0
   20.8369  -31.8640  -15.0734 O   0  0  0  0  0  0  0  0  0  0  0  0
  1  2  1  0
  2  3  2  0
  2  4  1  0
  4  5  1  0
  5  7  1  0
  5  6  1  6
  7  8  2  0
  9 10  1  0
  9  7  1  0
 10 11  1  6
 12 11  1  0
 13 12  2  0
 14 15  2  0
 14 10  1  0
 16 12  1  0
 17 14  1  0
 18 17  1  0
 18 26  1  0
 18 19  1  1
 20 19  1  0
 21 20  2  0
 22 21  1  0
 23 22  2  0
 23 24  1  0
 24 25  2  0
 25 20  1  0
 26 28  1  0
 27 26  2  0
M  END
$$$$
