WIE.pdb
     RDKit          3D

 32 33  0  0  1  0  0  0  0  0999 V2000
   61.9545   -6.3347    7.7558 N   0  0  0  0  0  0  0  0  0  0  0  0
   63.1235   -5.9898    8.5167 C   0  0  1  0  0  0  0  0  0  0  0  0
   63.1066   -4.5417    8.9594 C   0  0  0  0  0  0  0  0  0  0  0  0
   62.8699   -3.6122    7.8323 C   0  0  0  0  0  0  0  0  0  0  0  0
   63.4877   -2.3958    7.5721 C   0  0  0  0  0  0  0  0  0  0  0  0
   62.9821   -1.8573    6.4465 N   0  0  0  0  0  0  0  0  0  0  0  0
   62.0406   -2.6809    5.9439 C   0  0  0  0  0  0  0  0  0  0  0  0
   61.2374   -2.5913    4.8216 C   0  0  0  0  0  0  0  0  0  0  0  0
   60.3613   -3.6321    4.5904 C   0  0  0  0  0  0  0  0  0  0  0  0
   60.2715   -4.7360    5.4363 C   0  0  0  0  0  0  0  0  0  0  0  0
   61.0780   -4.8022    6.5427 C   0  0  0  0  0  0  0  0  0  0  0  0
   61.9643   -3.7681    6.7933 C   0  0  0  0  0  0  0  0  0  0  0  0
   63.1684   -6.8025    9.7530 C   0  0  0  0  0  0  0  0  0  0  0  0
   64.0485   -6.5444   10.6073 O   0  0  0  0  0  0  0  0  0  0  0  0
   60.3061  -11.1107    7.6200 C   0  0  0  0  0  0  0  0  0  0  0  0
   60.2730   -9.7190    8.2279 C   0  0  0  0  0  0  0  0  0  0  0  0
   61.6481   -9.1372    8.1161 C   0  0  2  0  0  0  0  0  0  0  0  0
   62.4243   -9.6833    6.9433 C   0  0  0  0  0  0  0  0  0  0  0  0
   62.4476   -9.1779    9.3916 C   0  0  2  0  0  0  0  0  0  0  0  0
   62.2637   -7.8623   10.0227 N   0  0  0  0  0  0  0  0  0  0  0  0
   63.8774   -9.4401    9.2164 C   0  0  0  0  0  0  0  0  0  0  0  0
   64.6482   -9.3406   10.1998 O   0  0  0  0  0  0  0  0  0  0  0  0
   64.4007   -9.8062    7.9422 N   0  0  0  0  0  0  0  0  0  0  0  0
   63.4216  -10.0537    6.8568 C   0  0  1  0  0  0  0  0  0  0  0  0
   63.3844   -8.8692    5.9815 C   0  0  0  0  0  0  0  0  0  0  0  0
   63.1974   -9.0490    4.5210 C   0  0  0  0  0  0  0  0  0  0  0  0
   64.3886   -9.4583    3.7525 C   0  0  0  0  0  0  0  0  0  0  0  0
   65.3779   -8.6931    3.5947 O   0  0  0  0  0  0  0  0  0  0  0  0
   63.5834  -11.3766    6.2952 C   0  0  0  0  0  0  0  0  0  0  0  0
   62.6049  -11.8452    5.6005 O   0  0  0  0  0  0  0  0  0  0  0  0
   64.4507  -10.7171    3.1798 O   0  0  0  0  0  0  0  0  0  0  0  0
   64.6615  -12.2224    6.3955 O   0  0  0  0  0  0  0  0  0  0  0  0
  2  1  1  1
  2  3  1  0
  3  4  1  0
  4  5  2  0
  6  5  1  0
  7  6  1  0
  8  7  2  0
  9  8  1  0
 10  9  2  0
 10 11  1  0
 11 12  2  0
 12  7  1  0
 12  4  1  0
 13 14  2  0
 13  2  1  0
 15 16  1  0
 16 17  1  0
 17 19  1  0
 17 18  1  6
 19 20  1  6
 19 21  1  0
 20 13  1  0
 21 23  1  0
 22 21  2  0
 23 24  1  0
 24 25  1  6
 24 29  1  0
 26 25  1  0
 27 26  1  0
 28 27  2  0
 29 30  2  0
 29 32  1  0
 31 27  1  0
M  END
$$$$
