WIE.pdb
     RDKit          3D

 32 33  0  0  1  0  0  0  0  0999 V2000
    6.3247  -17.3852   25.3594 N   0  0  0  0  0  0  0  0  0  0  0  0
    7.0098  -16.1917   24.9465 C   0  0  1  0  0  0  0  0  0  0  0  0
    8.1513  -15.8405   25.8776 C   0  0  0  0  0  0  0  0  0  0  0  0
    7.7845  -14.7780   26.8404 C   0  0  0  0  0  0  0  0  0  0  0  0
    7.6871  -14.8623   28.2233 C   0  0  0  0  0  0  0  0  0  0  0  0
    7.3198  -13.6701   28.7296 N   0  0  0  0  0  0  0  0  0  0  0  0
    7.1680  -12.7872   27.7224 C   0  0  0  0  0  0  0  0  0  0  0  0
    6.8084  -11.4518   27.7096 C   0  0  0  0  0  0  0  0  0  0  0  0
    6.7481  -10.8284   26.4800 C   0  0  0  0  0  0  0  0  0  0  0  0
    7.0327  -11.4941   25.2891 C   0  0  0  0  0  0  0  0  0  0  0  0
    7.3867  -12.8178   25.3273 C   0  0  0  0  0  0  0  0  0  0  0  0
    7.4532  -13.4625   26.5511 C   0  0  0  0  0  0  0  0  0  0  0  0
    7.6120  -16.4022   23.6107 C   0  0  0  0  0  0  0  0  0  0  0  0
    7.7489  -17.5763   23.1942 O   0  0  0  0  0  0  0  0  0  0  0  0
    7.1599  -12.4733   19.9316 C   0  0  0  0  0  0  0  0  0  0  0  0
    7.1108  -13.8739   20.5174 C   0  0  0  0  0  0  0  0  0  0  0  0
    8.5199  -14.3588   20.6647 C   0  0  2  0  0  0  0  0  0  0  0  0
    9.2547  -14.4391   19.3495 C   0  0  0  0  0  0  0  0  0  0  0  0
    8.6629  -15.6229   21.4705 C   0  0  2  0  0  0  0  0  0  0  0  0
    8.0437  -15.3401   22.7741 N   0  0  0  0  0  0  0  0  0  0  0  0
   10.0411  -16.0744   21.6719 C   0  0  0  0  0  0  0  0  0  0  0  0
   10.8081  -15.4076   22.4056 O   0  0  0  0  0  0  0  0  0  0  0  0
   10.5186  -17.2614   21.0437 N   0  0  0  0  0  0  0  0  0  0  0  0
   11.8927  -17.6998   21.3864 C   0  0  1  0  0  0  0  0  0  0  0  0
   11.8627  -19.1420   21.6855 C   0  0  0  0  0  0  0  0  0  0  0  0
   13.1316  -19.8504   21.9828 C   0  0  0  0  0  0  0  0  0  0  0  0
   13.0263  -21.2953   22.2632 C   0  0  0  0  0  0  0  0  0  0  0  0
   11.9150  -21.8886   22.3065 O   0  0  0  0  0  0  0  0  0  0  0  0
   12.8623  -17.1629   20.4572 C   0  0  0  0  0  0  0  0  0  0  0  0
   12.4449  -16.8701   19.2741 O   0  0  0  0  0  0  0  0  0  0  0  0
   14.1668  -22.0478   22.4852 O   0  0  0  0  0  0  0  0  0  0  0  0
   14.1967  -16.9095   20.6647 O   0  0  0  0  0  0  0  0  0  0  0  0
  2  1  1  1
  2  3  1  0
  3  4  1  0
  4  5  2  0
  6  5  1  0
  7  6  1  0
  8  7  2  0
  9  8  1  0
 10  9  2  0
 10 11  1  0
 11 12  2  0
 12  7  1  0
 12  4  1  0
 13 14  2  0
 13  2  1  0
 15 16  1  0
 16 17  1  0
 17 19  1  0
 17 18  1  6
 19 20  1  1
 19 21  1  0
 20 13  1  0
 21 23  1  0
 22 21  2  0
 23 24  1  0
 24 25  1  6
 24 29  1  0
 26 25  1  0
 27 26  1  0
 28 27  2  0
 29 30  2  0
 29 32  1  0
 31 27  1  0
M  END
$$$$
