WIE.pdb
     RDKit          3D

 32 33  0  0  1  0  0  0  0  0999 V2000
    6.2687  -17.3388   25.6355 N   0  0  0  0  0  0  0  0  0  0  0  0
    6.9673  -16.2165   25.0726 C   0  0  1  0  0  0  0  0  0  0  0  0
    8.3293  -16.0195   25.7046 C   0  0  0  0  0  0  0  0  0  0  0  0
    8.3389  -14.9104   26.6845 C   0  0  0  0  0  0  0  0  0  0  0  0
    8.8407  -14.9070   27.9796 C   0  0  0  0  0  0  0  0  0  0  0  0
    8.6489  -13.6987   28.5414 N   0  0  0  0  0  0  0  0  0  0  0  0
    8.0313  -12.8903   27.6569 C   0  0  0  0  0  0  0  0  0  0  0  0
    7.6181  -11.5730   27.7400 C   0  0  0  0  0  0  0  0  0  0  0  0
    7.0052  -11.0347   26.6270 C   0  0  0  0  0  0  0  0  0  0  0  0
    6.8003  -11.7663   25.4587 C   0  0  0  0  0  0  0  0  0  0  0  0
    7.2184  -13.0704   25.4004 C   0  0  0  0  0  0  0  0  0  0  0  0
    7.8357  -13.6301   26.5064 C   0  0  0  0  0  0  0  0  0  0  0  0
    7.2076  -16.4537   23.6314 C   0  0  0  0  0  0  0  0  0  0  0  0
    6.8216  -17.5358   23.1303 O   0  0  0  0  0  0  0  0  0  0  0  0
    7.2815  -12.2588   20.3955 C   0  0  0  0  0  0  0  0  0  0  0  0
    6.9620  -13.6443   20.9299 C   0  0  0  0  0  0  0  0  0  0  0  0
    8.1363  -14.5281   20.6435 C   0  0  2  0  0  0  0  0  0  0  0  0
    8.3939  -14.7039   19.1674 C   0  0  0  0  0  0  0  0  0  0  0  0
    8.1189  -15.8442   21.3752 C   0  0  2  0  0  0  0  0  0  0  0  0
    7.8543  -15.5165   22.7843 N   0  0  0  0  0  0  0  0  0  0  0  0
    9.3561  -16.6212   21.2783 C   0  0  0  0  0  0  0  0  0  0  0  0
    9.5614  -17.3309   20.2656 O   0  0  0  0  0  0  0  0  0  0  0  0
   10.3268  -16.5796   22.3211 N   0  0  0  0  0  0  0  0  0  0  0  0
   11.6248  -17.2470   22.0612 C   0  0  1  0  0  0  0  0  0  0  0  0
   12.7067  -16.2779   22.3080 C   0  0  0  0  0  0  0  0  0  0  0  0
   14.1171  -16.7359   22.2693 C   0  0  0  0  0  0  0  0  0  0  0  0
   15.1454  -15.7194   22.5636 C   0  0  0  0  0  0  0  0  0  0  0  0
   15.2637  -14.6695   21.8760 O   0  0  0  0  0  0  0  0  0  0  0  0
   11.6677  -18.5631   22.6593 C   0  0  0  0  0  0  0  0  0  0  0  0
   10.8196  -18.8120   23.5966 O   0  0  0  0  0  0  0  0  0  0  0  0
   16.0175  -15.8960   23.6241 O   0  0  0  0  0  0  0  0  0  0  0  0
   12.5015  -19.6127   22.3580 O   0  0  0  0  0  0  0  0  0  0  0  0
  2  1  1  1
  2  3  1  0
  3  4  1  0
  4  5  2  0
  6  5  1  0
  7  6  1  0
  8  7  2  0
  9  8  1  0
 10  9  2  0
 10 11  1  0
 11 12  2  0
 12  7  1  0
 12  4  1  0
 13 14  2  0
 13  2  1  0
 15 16  1  0
 16 17  1  0
 17 19  1  0
 17 18  1  6
 19 20  1  1
 19 21  1  0
 20 13  1  0
 21 23  1  0
 22 21  2  0
 23 24  1  0
 24 25  1  1
 24 29  1  0
 26 25  1  0
 27 26  1  0
 28 27  2  0
 29 30  2  0
 29 32  1  0
 31 27  1  0
M  END
$$$$
