WIE.pdb
     RDKit          3D

 32 33  0  0  1  0  0  0  0  0999 V2000
    6.2023  -18.2790   24.5122 N   0  0  0  0  0  0  0  0  0  0  0  0
    6.5786  -16.9091   24.2980 C   0  0  1  0  0  0  0  0  0  0  0  0
    7.2607  -16.3107   25.5104 C   0  0  0  0  0  0  0  0  0  0  0  0
    6.5381  -15.1310   26.0365 C   0  0  0  0  0  0  0  0  0  0  0  0
    5.2227  -15.0491   26.4749 C   0  0  0  0  0  0  0  0  0  0  0  0
    4.9502  -13.7919   26.8718 N   0  0  0  0  0  0  0  0  0  0  0  0
    6.0487  -13.0272   26.7115 C   0  0  0  0  0  0  0  0  0  0  0  0
    6.2893  -11.6894   26.9666 C   0  0  0  0  0  0  0  0  0  0  0  0
    7.5532  -11.2127   26.6844 C   0  0  0  0  0  0  0  0  0  0  0  0
    8.5599  -12.0243   26.1646 C   0  0  0  0  0  0  0  0  0  0  0  0
    8.2972  -13.3472   25.9200 C   0  0  0  0  0  0  0  0  0  0  0  0
    7.0352  -13.8459   26.1960 C   0  0  0  0  0  0  0  0  0  0  0  0
    7.5564  -16.8306   23.1894 C   0  0  0  0  0  0  0  0  0  0  0  0
    8.2061  -17.8599   22.8904 O   0  0  0  0  0  0  0  0  0  0  0  0
    7.0094  -12.5566   19.8550 C   0  0  0  0  0  0  0  0  0  0  0  0
    7.0792  -14.0289   20.2220 C   0  0  0  0  0  0  0  0  0  0  0  0
    8.4970  -14.3437   20.5868 C   0  0  2  0  0  0  0  0  0  0  0  0
    9.4550  -14.1599   19.4359 C   0  0  0  0  0  0  0  0  0  0  0  0
    8.6842  -15.6716   21.2718 C   0  0  2  0  0  0  0  0  0  0  0  0
    7.7972  -15.6467   22.4447 N   0  0  0  0  0  0  0  0  0  0  0  0
   10.0544  -15.9574   21.7015 C   0  0  0  0  0  0  0  0  0  0  0  0
   10.5656  -15.2809   22.6247 O   0  0  0  0  0  0  0  0  0  0  0  0
   10.8114  -16.9942   21.0821 N   0  0  0  0  0  0  0  0  0  0  0  0
   12.1802  -17.2311   21.5998 C   0  0  1  0  0  0  0  0  0  0  0  0
   12.2353  -18.5871   22.1731 C   0  0  0  0  0  0  0  0  0  0  0  0
   11.8866  -19.7515   21.3229 C   0  0  0  0  0  0  0  0  0  0  0  0
   12.0326  -21.0830   21.9419 C   0  0  0  0  0  0  0  0  0  0  0  0
   12.5424  -21.2368   23.0845 O   0  0  0  0  0  0  0  0  0  0  0  0
   13.1826  -16.7928   20.6538 C   0  0  0  0  0  0  0  0  0  0  0  0
   12.7841  -16.5108   19.4616 O   0  0  0  0  0  0  0  0  0  0  0  0
   11.6012  -22.2150   21.2719 O   0  0  0  0  0  0  0  0  0  0  0  0
   14.5317  -16.6252   20.8533 O   0  0  0  0  0  0  0  0  0  0  0  0
  2  1  1  1
  2  3  1  0
  3  4  1  0
  4  5  2  0
  6  5  1  0
  7  6  1  0
  8  7  2  0
  9  8  1  0
 10  9  2  0
 10 11  1  0
 11 12  2  0
 12  7  1  0
 12  4  1  0
 13 14  2  0
 13  2  1  0
 15 16  1  0
 16 17  1  0
 17 19  1  0
 17 18  1  6
 19 20  1  1
 19 21  1  0
 20 13  1  0
 21 23  1  0
 22 21  2  0
 23 24  1  0
 24 25  1  6
 24 29  1  0
 26 25  1  0
 27 26  1  0
 28 27  2  0
 29 30  2  0
 29 32  1  0
 31 27  1  0
M  END
$$$$
