WIE.pdb
     RDKit          3D

 32 33  0  0  1  0  0  0  0  0999 V2000
   10.1379  -15.7702   21.6420 N   0  0  0  0  0  0  0  0  0  0  0  0
    9.0894  -15.3443   22.5273 C   0  0  1  0  0  0  0  0  0  0  0  0
    7.8036  -16.1100   22.2953 C   0  0  0  0  0  0  0  0  0  0  0  0
    7.1349  -15.7166   21.0349 C   0  0  0  0  0  0  0  0  0  0  0  0
    6.1574  -16.4026   20.3258 C   0  0  0  0  0  0  0  0  0  0  0  0
    5.8159  -15.7052   19.2259 N   0  0  0  0  0  0  0  0  0  0  0  0
    6.5388  -14.5684   19.1782 C   0  0  0  0  0  0  0  0  0  0  0  0
    6.5649  -13.5267   18.2689 C   0  0  0  0  0  0  0  0  0  0  0  0
    7.4403  -12.4909   18.5240 C   0  0  0  0  0  0  0  0  0  0  0  0
    8.2719  -12.4727   19.6422 C   0  0  0  0  0  0  0  0  0  0  0  0
    8.2281  -13.5168   20.5292 C   0  0  0  0  0  0  0  0  0  0  0  0
    7.3567  -14.5665   20.2919 C   0  0  0  0  0  0  0  0  0  0  0  0
    9.4849  -15.6100   23.9287 C   0  0  0  0  0  0  0  0  0  0  0  0
   10.5292  -16.2696   24.1412 O   0  0  0  0  0  0  0  0  0  0  0  0
    7.1788  -11.9091   26.9335 C   0  0  0  0  0  0  0  0  0  0  0  0
    8.2537  -12.7018   26.2099 C   0  0  0  0  0  0  0  0  0  0  0  0
    8.5919  -13.8917   27.0537 C   0  0  2  0  0  0  0  0  0  0  0  0
    9.1924  -13.5163   28.3859 C   0  0  0  0  0  0  0  0  0  0  0  0
    9.3998  -14.9477   26.3467 C   0  0  2  0  0  0  0  0  0  0  0  0
    8.7409  -15.1548   25.0483 N   0  0  0  0  0  0  0  0  0  0  0  0
    9.4991  -16.2260   27.0537 C   0  0  0  0  0  0  0  0  0  0  0  0
    8.4525  -16.8351   27.3776 O   0  0  0  0  0  0  0  0  0  0  0  0
   10.7704  -16.7836   27.3769 N   0  0  0  0  0  0  0  0  0  0  0  0
   10.7759  -18.1033   28.0524 C   0  0  1  0  0  0  0  0  0  0  0  0
   11.8652  -18.9155   27.4831 C   0  0  0  0  0  0  0  0  0  0  0  0
   12.1090  -18.8837   26.0202 C   0  0  0  0  0  0  0  0  0  0  0  0
   13.2148  -19.7234   25.5209 C   0  0  0  0  0  0  0  0  0  0  0  0
   13.8462  -20.5139   26.2729 O   0  0  0  0  0  0  0  0  0  0  0  0
   10.6383  -17.9605   29.4850 C   0  0  0  0  0  0  0  0  0  0  0  0
   10.7468  -16.7727   29.9717 O   0  0  0  0  0  0  0  0  0  0  0  0
   13.5889  -19.6649   24.1894 O   0  0  0  0  0  0  0  0  0  0  0  0
   10.3966  -18.9356   30.4224 O   0  0  0  0  0  0  0  0  0  0  0  0
  2  1  1  6
  2  3  1  0
  3  4  1  0
  4  5  2  0
  6  5  1  0
  7  6  1  0
  8  7  2  0
  9  8  1  0
 10  9  2  0
 10 11  1  0
 11 12  2  0
 12  7  1  0
 12  4  1  0
 13 14  2  0
 13  2  1  0
 15 16  1  0
 16 17  1  0
 17 19  1  0
 17 18  1  1
 19 20  1  6
 19 21  1  0
 20 13  1  0
 21 23  1  0
 22 21  2  0
 23 24  1  0
 24 25  1  1
 24 29  1  0
 26 25  1  0
 27 26  1  0
 28 27  2  0
 29 30  2  0
 29 32  1  0
 31 27  1  0
M  END
$$$$
