WIE.pdb
     RDKit          3D

 32 33  0  0  1  0  0  0  0  0999 V2000
    6.0778  -18.2351   24.9488 N   0  0  0  0  0  0  0  0  0  0  0  0
    6.4843  -16.8846   24.6747 C   0  0  1  0  0  0  0  0  0  0  0  0
    7.1802  -16.2488   25.8600 C   0  0  0  0  0  0  0  0  0  0  0  0
    6.5663  -14.9588   26.2465 C   0  0  0  0  0  0  0  0  0  0  0  0
    5.2399  -14.6943   26.5622 C   0  0  0  0  0  0  0  0  0  0  0  0
    5.0909  -13.3886   26.8548 N   0  0  0  0  0  0  0  0  0  0  0  0
    6.2831  -12.7694   26.7439 C   0  0  0  0  0  0  0  0  0  0  0  0
    6.6629  -11.4534   26.9353 C   0  0  0  0  0  0  0  0  0  0  0  0
    7.9936  -11.1474   26.7355 C   0  0  0  0  0  0  0  0  0  0  0  0
    8.9327  -12.1051   26.3573 C   0  0  0  0  0  0  0  0  0  0  0  0
    8.5321  -13.4031   26.1734 C   0  0  0  0  0  0  0  0  0  0  0  0
    7.2011  -13.7315   26.3686 C   0  0  0  0  0  0  0  0  0  0  0  0
    7.4629  -16.8766   23.5641 C   0  0  0  0  0  0  0  0  0  0  0  0
    8.0535  -17.9447   23.2791 O   0  0  0  0  0  0  0  0  0  0  0  0
    7.0410  -13.0546   19.7080 C   0  0  0  0  0  0  0  0  0  0  0  0
    7.1552  -14.4095   20.3853 C   0  0  0  0  0  0  0  0  0  0  0  0
    8.5576  -14.5528   20.8901 C   0  0  2  0  0  0  0  0  0  0  0  0
    9.5916  -14.4213   19.7994 C   0  0  0  0  0  0  0  0  0  0  0  0
    8.7904  -15.7695   21.7464 C   0  0  2  0  0  0  0  0  0  0  0  0
    7.7682  -15.7187   22.8024 N   0  0  0  0  0  0  0  0  0  0  0  0
   10.1191  -15.8507   22.3561 C   0  0  0  0  0  0  0  0  0  0  0  0
   10.4775  -14.9714   23.1745 O   0  0  0  0  0  0  0  0  0  0  0  0
   11.0073  -16.9165   22.0293 N   0  0  0  0  0  0  0  0  0  0  0  0
   12.3199  -16.9357   22.7182 C   0  0  1  0  0  0  0  0  0  0  0  0
   12.5476  -18.2894   23.2532 C   0  0  0  0  0  0  0  0  0  0  0  0
   11.5756  -18.8651   24.2146 C   0  0  0  0  0  0  0  0  0  0  0  0
   11.9171  -20.1835   24.7827 C   0  0  0  0  0  0  0  0  0  0  0  0
   13.0598  -20.4333   25.2526 O   0  0  0  0  0  0  0  0  0  0  0  0
   13.3373  -16.2779   21.9284 C   0  0  0  0  0  0  0  0  0  0  0  0
   13.1621  -16.2439   20.6525 O   0  0  0  0  0  0  0  0  0  0  0  0
   10.9718  -21.1942   24.8175 O   0  0  0  0  0  0  0  0  0  0  0  0
   14.4894  -15.6642   22.3573 O   0  0  0  0  0  0  0  0  0  0  0  0
  2  1  1  1
  2  3  1  0
  3  4  1  0
  4  5  2  0
  6  5  1  0
  7  6  1  0
  8  7  2  0
  9  8  1  0
 10  9  2  0
 10 11  1  0
 11 12  2  0
 12  7  1  0
 12  4  1  0
 13 14  2  0
 13  2  1  0
 15 16  1  0
 16 17  1  0
 17 19  1  0
 17 18  1  6
 19 20  1  1
 19 21  1  0
 20 13  1  0
 21 23  1  0
 22 21  2  0
 23 24  1  0
 24 25  1  6
 24 29  1  0
 26 25  1  0
 27 26  1  0
 28 27  2  0
 29 30  2  0
 29 32  1  0
 31 27  1  0
M  END
$$$$
