VFH.pdb
     RDKit          3D

 29 30  0  0  1  0  0  0  0  0999 V2000
   24.9264  -23.0958  -17.7295 C   0  0  0  0  0  0  0  0  0  0  0  0
   26.1197  -22.3831  -17.1394 C   0  0  2  0  0  0  0  0  0  0  0  0
   27.2533  -22.4826  -18.1281 C   0  0  0  0  0  0  0  0  0  0  0  0
   26.5832  -23.0308  -15.8536 C   0  0  2  0  0  0  0  0  0  0  0  0
   26.9327  -24.3856  -16.1413 N   0  0  0  0  0  0  0  0  0  0  0  0
   25.5723  -22.9124  -14.7722 C   0  0  0  0  0  0  0  0  0  0  0  0
   24.7411  -23.7835  -14.4918 O   0  0  0  0  0  0  0  0  0  0  0  0
   25.5659  -21.7185  -14.0153 N   0  0  0  0  0  0  0  0  0  0  0  0
   24.5953  -21.4121  -12.9783 C   0  0  1  0  0  0  0  0  0  0  0  0
   25.0848  -20.4391  -11.9798 C   0  0  0  0  0  0  0  0  0  0  0  0
   24.1348  -20.2435  -10.8614 C   0  0  0  0  0  0  0  0  0  0  0  0
   24.3780  -20.7845   -9.6140 C   0  0  0  0  0  0  0  0  0  0  0  0
   23.5052  -20.6118   -8.5633 C   0  0  0  0  0  0  0  0  0  0  0  0
   22.3701  -19.8879   -8.7574 C   0  0  0  0  0  0  0  0  0  0  0  0
   22.0728  -19.3235   -9.9795 C   0  0  0  0  0  0  0  0  0  0  0  0
   22.9606  -19.5110  -11.0111 C   0  0  0  0  0  0  0  0  0  0  0  0
   23.3290  -21.1098  -13.6435 C   0  0  0  0  0  0  0  0  0  0  0  0
   23.3407  -20.4468  -14.7387 O   0  0  0  0  0  0  0  0  0  0  0  0
   22.0605  -21.4923  -13.1761 N   0  0  0  0  0  0  0  0  0  0  0  0
   20.8351  -21.0942  -13.9054 C   0  0  1  0  0  0  0  0  0  0  0  0
   20.4527  -22.2657  -14.7350 C   0  0  0  0  0  0  0  0  0  0  0  0
   20.8204  -22.1139  -16.1598 C   0  0  0  0  0  0  0  0  0  0  0  0
   21.3909  -21.0620  -16.8034 C   0  0  0  0  0  0  0  0  0  0  0  0
   21.6027  -21.4151  -18.0999 N   0  0  0  0  0  0  0  0  0  0  0  0
   21.1760  -22.6613  -18.2660 C   0  0  0  0  0  0  0  0  0  0  0  0
   20.6992  -23.0949  -17.0933 N   0  0  0  0  0  0  0  0  0  0  0  0
   19.8164  -20.8999  -12.8172 C   0  0  0  0  0  0  0  0  0  0  0  0
   20.0540  -21.0910  -11.4886 O   0  0  0  0  0  0  0  0  0  0  0  0
   18.6508  -20.5296  -13.1557 O   0  0  0  0  0  0  0  0  0  0  0  0
  2  1  1  6
  2  3  1  0
  4  2  1  0
  4  5  1  6
  6  7  2  0
  6  4  1  0
  8  6  1  0
  9  8  1  0
  9 10  1  6
 10 11  1  0
 11 16  1  0
 11 12  2  0
 12 13  1  0
 13 14  2  0
 15 14  1  0
 16 15  2  0
 17  9  1  0
 18 17  2  0
 19 17  1  0
 20 21  1  6
 20 19  1  0
 22 21  1  0
 22 26  1  0
 23 24  1  0
 23 22  2  0
 24 25  1  0
 25 26  2  0
 27 28  1  0
 27 20  1  0
 29 27  2  0
M  END
$$$$
