VFH.pdb
     RDKit          3D

 29 30  0  0  1  0  0  0  0  0999 V2000
   25.8796  -21.0355  -18.1783 C   0  0  0  0  0  0  0  0  0  0  0  0
   27.2719  -20.6890  -17.7073 C   0  0  2  0  0  0  0  0  0  0  0  0
   28.1676  -20.6268  -18.9182 C   0  0  0  0  0  0  0  0  0  0  0  0
   27.8332  -21.7470  -16.7836 C   0  0  2  0  0  0  0  0  0  0  0  0
   27.9747  -22.9566  -17.5301 N   0  0  0  0  0  0  0  0  0  0  0  0
   27.0078  -21.9163  -15.5608 C   0  0  0  0  0  0  0  0  0  0  0  0
   26.0630  -22.7069  -15.4573 O   0  0  0  0  0  0  0  0  0  0  0  0
   27.3304  -21.1148  -14.4419 N   0  0  0  0  0  0  0  0  0  0  0  0
   26.5752  -21.1003  -13.2006 C   0  0  1  0  0  0  0  0  0  0  0  0
   27.3409  -20.5796  -12.0492 C   0  0  0  0  0  0  0  0  0  0  0  0
   26.5273  -20.4945  -10.8153 C   0  0  0  0  0  0  0  0  0  0  0  0
   26.1695  -19.2734  -10.2778 C   0  0  0  0  0  0  0  0  0  0  0  0
   25.4133  -19.1766   -9.1314 C   0  0  0  0  0  0  0  0  0  0  0  0
   25.0058  -20.3152   -8.5087 C   0  0  0  0  0  0  0  0  0  0  0  0
   25.3315  -21.5625   -8.9973 C   0  0  0  0  0  0  0  0  0  0  0  0
   26.0870  -21.6309  -10.1427 C   0  0  0  0  0  0  0  0  0  0  0  0
   25.2843  -20.4754  -13.4844 C   0  0  0  0  0  0  0  0  0  0  0  0
   25.2565  -19.3207  -14.0368 O   0  0  0  0  0  0  0  0  0  0  0  0
   24.0320  -21.0440  -13.1973 N   0  0  0  0  0  0  0  0  0  0  0  0
   22.7826  -20.3026  -13.4822 C   0  0  1  0  0  0  0  0  0  0  0  0
   22.1201  -21.0284  -14.5964 C   0  0  0  0  0  0  0  0  0  0  0  0
   20.7971  -20.4687  -14.9494 C   0  0  0  0  0  0  0  0  0  0  0  0
   20.1243  -19.4194  -14.4086 C   0  0  0  0  0  0  0  0  0  0  0  0
   18.9745  -19.2375  -15.1123 N   0  0  0  0  0  0  0  0  0  0  0  0
   18.9273  -20.1513  -16.0742 C   0  0  0  0  0  0  0  0  0  0  0  0
   20.0299  -20.9040  -15.9842 N   0  0  0  0  0  0  0  0  0  0  0  0
   21.9720  -20.4685  -12.2272 C   0  0  0  0  0  0  0  0  0  0  0  0
   21.2585  -19.4741  -11.6270 O   0  0  0  0  0  0  0  0  0  0  0  0
   21.9463  -21.6158  -11.6855 O   0  0  0  0  0  0  0  0  0  0  0  0
  2  1  1  6
  2  3  1  0
  4  2  1  0
  4  5  1  6
  6  7  2  0
  6  4  1  0
  8  6  1  0
  9  8  1  0
  9 10  1  1
 10 11  1  0
 11 16  1  0
 11 12  2  0
 12 13  1  0
 13 14  2  0
 15 14  1  0
 16 15  2  0
 17  9  1  0
 18 17  2  0
 19 17  1  0
 20 21  1  6
 20 19  1  0
 22 21  1  0
 22 26  1  0
 23 24  1  0
 23 22  2  0
 24 25  1  0
 25 26  2  0
 27 28  1  0
 27 20  1  0
 29 27  2  0
M  END
$$$$
