VFH.pdb
     RDKit          3D

 29 30  0  0  1  0  0  0  0  0999 V2000
   19.9604  -15.3049  -16.9222 C   0  0  0  0  0  0  0  0  0  0  0  0
   20.4693  -14.0210  -16.3115 C   0  0  2  0  0  0  0  0  0  0  0  0
   19.7991  -12.8731  -17.0226 C   0  0  0  0  0  0  0  0  0  0  0  0
   21.9613  -13.8605  -16.5002 C   0  0  2  0  0  0  0  0  0  0  0  0
   22.6046  -15.0036  -15.9346 N   0  0  0  0  0  0  0  0  0  0  0  0
   22.4610  -12.5798  -15.9388 C   0  0  0  0  0  0  0  0  0  0  0  0
   22.5577  -12.3348  -14.7309 O   0  0  0  0  0  0  0  0  0  0  0  0
   22.8514  -11.5761  -16.8546 N   0  0  0  0  0  0  0  0  0  0  0  0
   23.4244  -10.2969  -16.4717 C   0  0  1  0  0  0  0  0  0  0  0  0
   24.7740  -10.0643  -17.0264 C   0  0  0  0  0  0  0  0  0  0  0  0
   25.7863  -10.9900  -16.4696 C   0  0  0  0  0  0  0  0  0  0  0  0
   26.3642  -10.7595  -15.2364 C   0  0  0  0  0  0  0  0  0  0  0  0
   27.3067  -11.6103  -14.7041 C   0  0  0  0  0  0  0  0  0  0  0  0
   27.6808  -12.7101  -15.4117 C   0  0  0  0  0  0  0  0  0  0  0  0
   27.1396  -12.9932  -16.6475 C   0  0  0  0  0  0  0  0  0  0  0  0
   26.2011  -12.1279  -17.1557 C   0  0  0  0  0  0  0  0  0  0  0  0
   22.4110   -9.2737  -16.7238 C   0  0  0  0  0  0  0  0  0  0  0  0
   21.6713   -9.3693  -17.7644 O   0  0  0  0  0  0  0  0  0  0  0  0
   22.1670   -8.1600  -15.9028 N   0  0  0  0  0  0  0  0  0  0  0  0
   21.0499   -7.2343  -16.1978 C   0  0  1  0  0  0  0  0  0  0  0  0
   19.8044   -8.0234  -16.0154 C   0  0  0  0  0  0  0  0  0  0  0  0
   18.5793   -7.1960  -16.0676 C   0  0  0  0  0  0  0  0  0  0  0  0
   17.8515   -6.6549  -15.0557 C   0  0  0  0  0  0  0  0  0  0  0  0
   16.8476   -5.9137  -15.5972 N   0  0  0  0  0  0  0  0  0  0  0  0
   16.9440   -5.9867  -16.9193 C   0  0  0  0  0  0  0  0  0  0  0  0
   17.9929   -6.7630  -17.2153 N   0  0  0  0  0  0  0  0  0  0  0  0
   21.1466   -6.1974  -15.1138 C   0  0  0  0  0  0  0  0  0  0  0  0
   20.6430   -4.9337  -15.2015 O   0  0  0  0  0  0  0  0  0  0  0  0
   21.7373   -6.5183  -14.0375 O   0  0  0  0  0  0  0  0  0  0  0  0
  2  1  1  6
  2  3  1  0
  4  2  1  0
  4  5  1  1
  6  7  2  0
  6  4  1  0
  8  6  1  0
  9  8  1  0
  9 10  1  6
 10 11  1  0
 11 16  1  0
 11 12  2  0
 12 13  1  0
 13 14  2  0
 15 14  1  0
 16 15  2  0
 17  9  1  0
 18 17  2  0
 19 17  1  0
 20 21  1  1
 20 19  1  0
 22 21  1  0
 22 26  1  0
 23 24  1  0
 23 22  2  0
 24 25  1  0
 25 26  2  0
 27 28  1  0
 27 20  1  0
 29 27  2  0
M  END
$$$$
