VFH.pdb
     RDKit          3D

 29 30  0  0  1  0  0  0  0  0999 V2000
   27.7012  -18.7365  -19.6265 C   0  0  0  0  0  0  0  0  0  0  0  0
   26.8992  -19.2714  -18.4642 C   0  0  2  0  0  0  0  0  0  0  0  0
   26.4630  -18.0980  -17.6243 C   0  0  0  0  0  0  0  0  0  0  0  0
   27.7258  -20.1780  -17.5796 C   0  0  2  0  0  0  0  0  0  0  0  0
   28.2138  -21.2544  -18.3818 N   0  0  0  0  0  0  0  0  0  0  0  0
   26.9670  -20.6419  -16.3904 C   0  0  0  0  0  0  0  0  0  0  0  0
   25.9882  -21.3959  -16.4344 O   0  0  0  0  0  0  0  0  0  0  0  0
   27.3993  -20.1860  -15.1241 N   0  0  0  0  0  0  0  0  0  0  0  0
   26.7422  -20.5105  -13.8694 C   0  0  1  0  0  0  0  0  0  0  0  0
   27.5587  -20.2005  -12.6775 C   0  0  0  0  0  0  0  0  0  0  0  0
   26.8201  -20.4076  -11.4112 C   0  0  0  0  0  0  0  0  0  0  0  0
   26.5362  -21.6778  -10.9489 C   0  0  0  0  0  0  0  0  0  0  0  0
   25.8507  -21.8878   -9.7735 C   0  0  0  0  0  0  0  0  0  0  0  0
   25.4405  -20.8147   -9.0452 C   0  0  0  0  0  0  0  0  0  0  0  0
   25.6943  -19.5233   -9.4552 C   0  0  0  0  0  0  0  0  0  0  0  0
   26.3800  -19.3416  -10.6317 C   0  0  0  0  0  0  0  0  0  0  0  0
   25.3956  -19.9442  -13.9246 C   0  0  0  0  0  0  0  0  0  0  0  0
   25.2519  -18.6948  -14.1649 O   0  0  0  0  0  0  0  0  0  0  0  0
   24.2071  -20.6683  -13.7322 N   0  0  0  0  0  0  0  0  0  0  0  0
   22.8935  -19.9860  -13.7621 C   0  0  1  0  0  0  0  0  0  0  0  0
   22.2878  -20.3200  -15.0769 C   0  0  0  0  0  0  0  0  0  0  0  0
   22.1488  -19.1472  -15.9675 C   0  0  0  0  0  0  0  0  0  0  0  0
   22.5249  -17.8564  -15.7710 C   0  0  0  0  0  0  0  0  0  0  0  0
   22.2534  -17.1526  -16.9029 N   0  0  0  0  0  0  0  0  0  0  0  0
   21.7202  -17.9833  -17.7907 C   0  0  0  0  0  0  0  0  0  0  0  0
   21.6526  -19.1975  -17.2324 N   0  0  0  0  0  0  0  0  0  0  0  0
   22.1135  -20.6600  -12.6681 C   0  0  0  0  0  0  0  0  0  0  0  0
   22.4288  -21.8681  -12.1211 O   0  0  0  0  0  0  0  0  0  0  0  0
   21.0879  -20.0637  -12.2174 O   0  0  0  0  0  0  0  0  0  0  0  0
  2  1  1  6
  2  3  1  0
  4  2  1  0
  4  5  1  6
  6  7  2  0
  6  4  1  0
  8  6  1  0
  9  8  1  0
  9 10  1  1
 10 11  1  0
 11 16  1  0
 11 12  2  0
 12 13  1  0
 13 14  2  0
 15 14  1  0
 16 15  2  0
 17  9  1  0
 18 17  2  0
 19 17  1  0
 20 21  1  6
 20 19  1  0
 22 21  1  0
 22 26  1  0
 23 24  1  0
 23 22  2  0
 24 25  1  0
 25 26  2  0
 27 28  1  0
 27 20  1  0
 29 27  2  0
M  END
$$$$
