FYE.pdb
     RDKit          3D

 33 34  0  0  1  0  0  0  0  0999 V2000
   28.7225  -34.9236   -6.2866 N   0  0  0  0  0  0  0  0  0  0  0  0
   29.7822  -34.3079   -5.5386 C   0  0  1  0  0  0  0  0  0  0  0  0
   29.4411  -32.9095   -5.1184 C   0  0  0  0  0  0  0  0  0  0  0  0
   28.1154  -32.9026   -4.4637 C   0  0  0  0  0  0  0  0  0  0  0  0
   27.9882  -33.2524   -3.1379 C   0  0  0  0  0  0  0  0  0  0  0  0
   26.7612  -33.2642   -2.5085 C   0  0  0  0  0  0  0  0  0  0  0  0
   25.6446  -32.9186   -3.2242 C   0  0  0  0  0  0  0  0  0  0  0  0
   25.7626  -32.5652   -4.5577 C   0  0  0  0  0  0  0  0  0  0  0  0
   26.9939  -32.5568   -5.1771 C   0  0  0  0  0  0  0  0  0  0  0  0
   30.2199  -35.1889   -4.4354 C   0  0  0  0  0  0  0  0  0  0  0  0
   29.6172  -36.2744   -4.1657 O   0  0  0  0  0  0  0  0  0  0  0  0
   36.3860  -38.6881   -6.1040 O   0  0  0  0  0  0  0  0  0  0  0  0
   35.6522  -37.8974   -5.2259 C   0  0  0  0  0  0  0  0  0  0  0  0
   35.4239  -38.2716   -3.9203 C   0  0  0  0  0  0  0  0  0  0  0  0
   34.7012  -37.5024   -3.0402 C   0  0  0  0  0  0  0  0  0  0  0  0
   34.1492  -36.2723   -3.4378 C   0  0  0  0  0  0  0  0  0  0  0  0
   33.3942  -35.4327   -2.5105 C   0  0  0  0  0  0  0  0  0  0  0  0
   31.8940  -35.5731   -2.5911 C   0  0  2  0  0  0  0  0  0  0  0  0
   31.3491  -34.7921   -3.6605 N   0  0  0  0  0  0  0  0  0  0  0  0
   31.2009  -35.2697   -1.3206 C   0  0  0  0  0  0  0  0  0  0  0  0
   31.0033  -34.1074   -0.8795 O   0  0  0  0  0  0  0  0  0  0  0  0
   34.3777  -35.9016   -4.7365 C   0  0  0  0  0  0  0  0  0  0  0  0
   35.1166  -36.6937   -5.6278 C   0  0  0  0  0  0  0  0  0  0  0  0
   30.6891  -36.3178   -0.4772 N   0  0  0  0  0  0  0  0  0  0  0  0
   30.0134  -36.0519    0.7885 C   0  0  1  0  0  0  0  0  0  0  0  0
   28.8910  -37.0491    0.8845 C   0  0  0  0  0  0  0  0  0  0  0  0
   27.7121  -36.7639    0.0207 C   0  0  0  0  0  0  0  0  0  0  0  0
   26.7599  -35.7810    0.5354 C   0  0  0  0  0  0  0  0  0  0  0  0
   26.8883  -35.4648    1.7675 O   0  0  0  0  0  0  0  0  0  0  0  0
   30.9730  -36.1892    1.9100 C   0  0  0  0  0  0  0  0  0  0  0  0
   30.6053  -36.0076    3.0917 O   0  0  0  0  0  0  0  0  0  0  0  0
   25.7712  -35.2052   -0.2163 O   0  0  0  0  0  0  0  0  0  0  0  0
   32.2980  -36.5217    1.6784 O   0  0  0  0  0  0  0  0  0  0  0  0
  2  1  1  1
  3  2  1  0
  4  5  2  0
  4  3  1  0
  6  5  1  0
  7  6  2  0
  8  7  1  0
  8  9  2  0
  9  4  1  0
 10  2  1  0
 11 10  2  0
 13 12  1  0
 13 14  2  0
 15 14  1  0
 16 15  2  0
 17 16  1  0
 18 17  1  1
 18 19  1  0
 19 10  1  0
 20 18  1  0
 21 20  2  0
 22 23  2  0
 22 16  1  0
 23 13  1  0
 24 20  1  0
 25 24  1  0
 26 27  1  0
 25 26  1  1
 27 28  1  0
 28 32  1  0
 28 29  2  0
 30 25  1  0
 30 33  1  0
 31 30  2  0
M  END
$$$$
