FYE.pdb
     RDKit          3D

 33 34  0  0  1  0  0  0  0  0999 V2000
   26.5711  -18.4748   -7.6714 N   0  0  0  0  0  0  0  0  0  0  0  0
   27.0401  -19.7312   -8.1846 C   0  0  1  0  0  0  0  0  0  0  0  0
   26.9471  -20.8290   -7.1674 C   0  0  0  0  0  0  0  0  0  0  0  0
   27.7900  -20.4907   -6.0007 C   0  0  0  0  0  0  0  0  0  0  0  0
   29.1582  -20.4020   -6.1284 C   0  0  0  0  0  0  0  0  0  0  0  0
   29.9660  -20.0989   -5.0525 C   0  0  0  0  0  0  0  0  0  0  0  0
   29.3881  -19.8817   -3.8289 C   0  0  0  0  0  0  0  0  0  0  0  0
   28.0132  -19.9684   -3.6907 C   0  0  0  0  0  0  0  0  0  0  0  0
   27.2150  -20.2720   -4.7727 C   0  0  0  0  0  0  0  0  0  0  0  0
   26.3937  -20.0386   -9.4777 C   0  0  0  0  0  0  0  0  0  0  0  0
   25.1367  -19.9447   -9.6372 O   0  0  0  0  0  0  0  0  0  0  0  0
   27.3539  -18.9664  -18.3034 O   0  0  0  0  0  0  0  0  0  0  0  0
   27.5465  -19.2417  -16.9537 C   0  0  0  0  0  0  0  0  0  0  0  0
   27.6621  -20.5292  -16.4784 C   0  0  0  0  0  0  0  0  0  0  0  0
   27.8524  -20.8183  -15.1486 C   0  0  0  0  0  0  0  0  0  0  0  0
   27.9403  -19.7938  -14.1901 C   0  0  0  0  0  0  0  0  0  0  0  0
   28.1613  -20.0819  -12.7748 C   0  0  0  0  0  0  0  0  0  0  0  0
   26.9105  -20.1996  -11.9392 C   0  0  2  0  0  0  0  0  0  0  0  0
   27.2183  -20.4543  -10.5641 N   0  0  0  0  0  0  0  0  0  0  0  0
   25.9479  -21.1992  -12.4499 C   0  0  0  0  0  0  0  0  0  0  0  0
   26.0784  -22.4440  -12.3153 O   0  0  0  0  0  0  0  0  0  0  0  0
   27.8256  -18.5141  -14.6646 C   0  0  0  0  0  0  0  0  0  0  0  0
   27.6311  -18.2287  -16.0242 C   0  0  0  0  0  0  0  0  0  0  0  0
   24.7589  -20.8017  -13.1571 N   0  0  0  0  0  0  0  0  0  0  0  0
   23.8284  -21.7641  -13.7379 C   0  0  1  0  0  0  0  0  0  0  0  0
   22.4751  -21.1075  -13.7160 C   0  0  0  0  0  0  0  0  0  0  0  0
   21.8684  -20.9472  -12.3656 C   0  0  0  0  0  0  0  0  0  0  0  0
   20.5452  -20.3265  -12.3240 C   0  0  0  0  0  0  0  0  0  0  0  0
   19.6285  -20.9105  -12.9971 O   0  0  0  0  0  0  0  0  0  0  0  0
   24.2544  -22.1078  -15.1155 C   0  0  0  0  0  0  0  0  0  0  0  0
   25.0099  -21.3469  -15.7596 O   0  0  0  0  0  0  0  0  0  0  0  0
   20.2547  -19.1876  -11.6223 O   0  0  0  0  0  0  0  0  0  0  0  0
   23.8280  -23.2778  -15.7230 O   0  0  0  0  0  0  0  0  0  0  0  0
  2  1  1  1
  3  2  1  0
  4  5  2  0
  4  3  1  0
  6  5  1  0
  7  6  2  0
  8  7  1  0
  8  9  2  0
  9  4  1  0
 10  2  1  0
 11 10  2  0
 13 12  1  0
 13 14  2  0
 15 14  1  0
 16 15  2  0
 17 16  1  0
 18 17  1  6
 18 19  1  0
 19 10  1  0
 20 18  1  0
 21 20  2  0
 22 23  2  0
 22 16  1  0
 23 13  1  0
 24 20  1  0
 25 24  1  0
 26 27  1  0
 25 26  1  6
 27 28  1  0
 28 32  1  0
 28 29  2  0
 30 25  1  0
 30 33  1  0
 31 30  2  0
M  END
$$$$
