FYE.pdb
     RDKit          3D

 33 34  0  0  1  0  0  0  0  0999 V2000
   19.6823  -13.4095  -16.9077 N   0  0  0  0  0  0  0  0  0  0  0  0
   20.3027  -12.2717  -17.5258 C   0  0  1  0  0  0  0  0  0  0  0  0
   19.8920  -12.1112  -18.9590 C   0  0  0  0  0  0  0  0  0  0  0  0
   20.2679  -13.3238  -19.7168 C   0  0  0  0  0  0  0  0  0  0  0  0
   19.3112  -14.2434  -20.0847 C   0  0  0  0  0  0  0  0  0  0  0  0
   19.6391  -15.3872  -20.7819 C   0  0  0  0  0  0  0  0  0  0  0  0
   20.9501  -15.6093  -21.1143 C   0  0  0  0  0  0  0  0  0  0  0  0
   21.9191  -14.6902  -20.7489 C   0  0  0  0  0  0  0  0  0  0  0  0
   21.5805  -13.5502  -20.0521 C   0  0  0  0  0  0  0  0  0  0  0  0
   20.1154  -11.0627  -16.6964 C   0  0  0  0  0  0  0  0  0  0  0  0
   19.0049  -10.7987  -16.1384 O   0  0  0  0  0  0  0  0  0  0  0  0
   22.6971   -3.0721  -13.4839 O   0  0  0  0  0  0  0  0  0  0  0  0
   22.6405   -4.3806  -13.9521 C   0  0  0  0  0  0  0  0  0  0  0  0
   23.1864   -4.7496  -15.1615 C   0  0  0  0  0  0  0  0  0  0  0  0
   23.1390   -6.0375  -15.6385 C   0  0  0  0  0  0  0  0  0  0  0  0
   22.5190   -7.0608  -14.9006 C   0  0  0  0  0  0  0  0  0  0  0  0
   22.4757   -8.4391  -15.3835 C   0  0  0  0  0  0  0  0  0  0  0  0
   21.1304   -8.9034  -15.8845 C   0  0  2  0  0  0  0  0  0  0  0  0
   21.2210  -10.1775  -16.5319 N   0  0  0  0  0  0  0  0  0  0  0  0
   20.4528   -7.9229  -16.7598 C   0  0  0  0  0  0  0  0  0  0  0  0
   20.7697   -7.7027  -17.9581 O   0  0  0  0  0  0  0  0  0  0  0  0
   21.9771   -6.6921  -13.6979 C   0  0  0  0  0  0  0  0  0  0  0  0
   22.0302   -5.3745  -13.2192 C   0  0  0  0  0  0  0  0  0  0  0  0
   19.3496   -7.1302  -16.2841 N   0  0  0  0  0  0  0  0  0  0  0  0
   18.7327   -6.0773  -17.0842 C   0  0  1  0  0  0  0  0  0  0  0  0
   17.2617   -6.3895  -17.1289 C   0  0  0  0  0  0  0  0  0  0  0  0
   16.8679   -7.4589  -18.0874 C   0  0  0  0  0  0  0  0  0  0  0  0
   15.4382   -7.7528  -18.1719 C   0  0  0  0  0  0  0  0  0  0  0  0
   14.6511   -6.8531  -17.7186 O   0  0  0  0  0  0  0  0  0  0  0  0
   18.9994   -4.7555  -16.4685 C   0  0  0  0  0  0  0  0  0  0  0  0
   19.0410   -3.7205  -17.1697 O   0  0  0  0  0  0  0  0  0  0  0  0
   14.9229   -8.9081  -18.6952 O   0  0  0  0  0  0  0  0  0  0  0  0
   19.2085   -4.6331  -15.1043 O   0  0  0  0  0  0  0  0  0  0  0  0
  2  1  1  1
  3  2  1  0
  4  5  2  0
  4  3  1  0
  6  5  1  0
  7  6  2  0
  8  7  1  0
  8  9  2  0
  9  4  1  0
 10  2  1  0
 11 10  2  0
 13 12  1  0
 13 14  2  0
 15 14  1  0
 16 15  2  0
 17 16  1  0
 18 17  1  6
 18 19  1  0
 19 10  1  0
 20 18  1  0
 21 20  2  0
 22 23  2  0
 22 16  1  0
 23 13  1  0
 24 20  1  0
 25 24  1  0
 26 27  1  0
 25 26  1  1
 27 28  1  0
 28 32  1  0
 28 29  2  0
 30 25  1  0
 30 33  1  0
 31 30  2  0
M  END
$$$$
