DHQ.pdb
     RDKit          3D

 28 28  0  0  1  0  0  0  0  0999 V2000
   25.9214  -19.6524  -16.4300 N   0  0  0  0  0  0  0  0  0  0  0  0
   25.5528  -21.0567  -16.4782 C   0  0  1  0  0  0  0  0  0  0  0  0
   26.7632  -21.8488  -16.0166 C   0  0  0  0  0  0  0  0  0  0  0  0
   27.8739  -21.6356  -16.9760 C   0  0  0  0  0  0  0  0  0  0  0  0
   27.6926  -21.0047  -18.0443 O   0  0  0  0  0  0  0  0  0  0  0  0
   24.3658  -21.3228  -15.6453 C   0  0  0  0  0  0  0  0  0  0  0  0
   23.9829  -22.4983  -15.4612 O   0  0  0  0  0  0  0  0  0  0  0  0
   29.1534  -22.1318  -16.7172 O   0  0  0  0  0  0  0  0  0  0  0  0
   23.6381  -20.2663  -15.0434 N   0  0  0  0  0  0  0  0  0  0  0  0
   22.4925  -20.4962  -14.2009 C   0  0  1  0  0  0  0  0  0  0  0  0
   22.7128  -19.8737  -12.8524 C   0  0  0  0  0  0  0  0  0  0  0  0
   23.6287  -20.6832  -12.0027 C   0  0  0  0  0  0  0  0  0  0  0  0
   24.2925  -21.8507  -12.3428 C   0  0  0  0  0  0  0  0  0  0  0  0
   25.0250  -22.2717  -11.3158 N   0  0  0  0  0  0  0  0  0  0  0  0
   24.8458  -21.3903  -10.3095 C   0  0  0  0  0  0  0  0  0  0  0  0
   23.9997  -20.4304  -10.7287 N   0  0  0  0  0  0  0  0  0  0  0  0
   21.2385  -20.0005  -14.8355 C   0  0  0  0  0  0  0  0  0  0  0  0
   21.3514  -19.0232  -15.6519 O   0  0  0  0  0  0  0  0  0  0  0  0
   16.5131  -23.2815  -16.8787 N   0  0  0  0  0  0  0  0  0  0  0  0
   16.1775  -21.9563  -17.2714 C   0  0  0  0  0  0  0  0  0  0  0  0
   15.0634  -21.8040  -17.8669 O   0  0  0  0  0  0  0  0  0  0  0  0
   17.0747  -20.8084  -16.9963 C   0  0  0  0  0  0  0  0  0  0  0  0
   18.2816  -21.0975  -16.1925 C   0  0  0  0  0  0  0  0  0  0  0  0
   18.7446  -20.1008  -15.1994 C   0  0  2  0  0  0  0  0  0  0  0  0
   19.9864  -20.5780  -14.5517 N   0  0  0  0  0  0  0  0  0  0  0  0
   17.8135  -19.5673  -14.2212 C   0  0  0  0  0  0  0  0  0  0  0  0
   17.8134  -20.0614  -13.0509 O   0  0  0  0  0  0  0  0  0  0  0  0
   16.9202  -18.5477  -14.4607 O   0  0  0  0  0  0  0  0  0  0  0  0
  2  1  1  1
  3  2  1  0
  3  4  1  0
  4  5  2  0
  6  2  1  0
  6  7  2  0
  8  4  1  0
  9  6  1  0
 10  9  1  0
 10 11  1  1
 11 12  1  0
 12 16  1  0
 13 12  2  0
 13 14  1  0
 14 15  1  0
 16 15  2  0
 17 10  1  0
 18 17  2  0
 20 21  2  0
 20 19  1  0
 22 20  1  0
 23 22  1  0
 24 23  1  1
 24 25  1  0
 25 17  1  0
 26 28  1  0
 26 24  1  0
 27 26  2  0
M  END
$$$$
