DHQ.pdb
     RDKit          3D

 28 28  0  0  1  0  0  0  0  0999 V2000
   16.7754  -14.4539  -16.2651 N   0  0  0  0  0  0  0  0  0  0  0  0
   17.8918  -13.7104  -15.7073 C   0  0  1  0  0  0  0  0  0  0  0  0
   19.1590  -14.3077  -16.2931 C   0  0  0  0  0  0  0  0  0  0  0  0
   19.3446  -15.6746  -15.7485 C   0  0  0  0  0  0  0  0  0  0  0  0
   18.9445  -16.6814  -16.3799 O   0  0  0  0  0  0  0  0  0  0  0  0
   17.7705  -12.2708  -16.0012 C   0  0  0  0  0  0  0  0  0  0  0  0
   17.5961  -11.8862  -17.1776 O   0  0  0  0  0  0  0  0  0  0  0  0
   19.9701  -15.8796  -14.5168 O   0  0  0  0  0  0  0  0  0  0  0  0
   17.8505  -11.3008  -14.9713 N   0  0  0  0  0  0  0  0  0  0  0  0
   17.7178   -9.8890  -15.2247 C   0  0  1  0  0  0  0  0  0  0  0  0
   16.5054   -9.3520  -14.5202 C   0  0  0  0  0  0  0  0  0  0  0  0
   16.3555   -7.8820  -14.7011 C   0  0  0  0  0  0  0  0  0  0  0  0
   17.1727   -7.0277  -15.4233 C   0  0  0  0  0  0  0  0  0  0  0  0
   16.7043   -5.7849  -15.3534 N   0  0  0  0  0  0  0  0  0  0  0  0
   15.5898   -5.8204  -14.5930 C   0  0  0  0  0  0  0  0  0  0  0  0
   15.3819   -7.0912  -14.1997 N   0  0  0  0  0  0  0  0  0  0  0  0
   18.9504   -9.1456  -14.8387 C   0  0  0  0  0  0  0  0  0  0  0  0
   19.4482   -9.4088  -13.6910 O   0  0  0  0  0  0  0  0  0  0  0  0
   22.3210   -9.9043  -18.3671 N   0  0  0  0  0  0  0  0  0  0  0  0
   22.4514   -8.5014  -18.5613 C   0  0  0  0  0  0  0  0  0  0  0  0
   22.7325   -8.1136  -19.7402 O   0  0  0  0  0  0  0  0  0  0  0  0
   22.2633   -7.5374  -17.4506 C   0  0  0  0  0  0  0  0  0  0  0  0
   21.9230   -8.1143  -16.1324 C   0  0  0  0  0  0  0  0  0  0  0  0
   20.8131   -7.5233  -15.3494 C   0  0  2  0  0  0  0  0  0  0  0  0
   19.5418   -8.1971  -15.6946 N   0  0  0  0  0  0  0  0  0  0  0  0
   20.6478   -6.0815  -15.3028 C   0  0  0  0  0  0  0  0  0  0  0  0
   19.5740   -5.5787  -15.7590 O   0  0  0  0  0  0  0  0  0  0  0  0
   21.5724   -5.2004  -14.7895 O   0  0  0  0  0  0  0  0  0  0  0  0
  2  1  1  6
  3  2  1  0
  3  4  1  0
  4  5  2  0
  6  2  1  0
  6  7  2  0
  8  4  1  0
  9  6  1  0
 10  9  1  0
 10 11  1  1
 11 12  1  0
 12 16  1  0
 13 12  2  0
 13 14  1  0
 14 15  1  0
 16 15  2  0
 17 10  1  0
 18 17  2  0
 20 21  2  0
 20 19  1  0
 22 20  1  0
 23 22  1  0
 24 23  1  6
 24 25  1  0
 25 17  1  0
 26 28  1  0
 26 24  1  0
 27 26  2  0
M  END
$$$$
