DHQ.pdb
     RDKit          3D

 28 28  0  0  1  0  0  0  0  0999 V2000
   16.3037  -11.4499  -15.4495 N   0  0  0  0  0  0  0  0  0  0  0  0
   16.2460  -10.0065  -15.2960 C   0  0  1  0  0  0  0  0  0  0  0  0
   14.7815   -9.6117  -15.3656 C   0  0  0  0  0  0  0  0  0  0  0  0
   14.2320  -10.0254  -16.6795 C   0  0  0  0  0  0  0  0  0  0  0  0
   14.9557  -10.0514  -17.7031 O   0  0  0  0  0  0  0  0  0  0  0  0
   16.8751   -9.5815  -14.0323 C   0  0  0  0  0  0  0  0  0  0  0  0
   16.8351  -10.3301  -13.0321 O   0  0  0  0  0  0  0  0  0  0  0  0
   12.8927  -10.3974  -16.8144 O   0  0  0  0  0  0  0  0  0  0  0  0
   17.5294   -8.3294  -13.9213 N   0  0  0  0  0  0  0  0  0  0  0  0
   18.1845   -7.9023  -12.7116 C   0  0  1  0  0  0  0  0  0  0  0  0
   19.4664   -7.1945  -13.0436 C   0  0  0  0  0  0  0  0  0  0  0  0
   20.5089   -8.1286  -13.5506 C   0  0  0  0  0  0  0  0  0  0  0  0
   20.3927   -9.4911  -13.7723 C   0  0  0  0  0  0  0  0  0  0  0  0
   21.5414   -9.9748  -14.2364 N   0  0  0  0  0  0  0  0  0  0  0  0
   22.4053   -8.9412  -14.3197 C   0  0  0  0  0  0  0  0  0  0  0  0
   21.7770   -7.8254  -13.9035 N   0  0  0  0  0  0  0  0  0  0  0  0
   17.2898   -7.0527  -11.8756 C   0  0  0  0  0  0  0  0  0  0  0  0
   16.7800   -6.0236  -12.4371 O   0  0  0  0  0  0  0  0  0  0  0  0
   13.1196   -9.4614   -8.0611 N   0  0  0  0  0  0  0  0  0  0  0  0
   13.0316   -8.0841   -7.7170 C   0  0  0  0  0  0  0  0  0  0  0  0
   12.1441   -7.7666   -6.8622 O   0  0  0  0  0  0  0  0  0  0  0  0
   13.9310   -7.0693   -8.3166 C   0  0  0  0  0  0  0  0  0  0  0  0
   15.0360   -7.5849   -9.1528 C   0  0  0  0  0  0  0  0  0  0  0  0
   15.9955   -6.6290   -9.7525 C   0  0  2  0  0  0  0  0  0  0  0  0
   17.0166   -7.3651  -10.5303 N   0  0  0  0  0  0  0  0  0  0  0  0
   16.6040   -5.6007   -8.9275 C   0  0  0  0  0  0  0  0  0  0  0  0
   17.7810   -5.7918   -8.4893 O   0  0  0  0  0  0  0  0  0  0  0  0
   16.0020   -4.4123   -8.5811 O   0  0  0  0  0  0  0  0  0  0  0  0
  2  1  1  1
  3  2  1  0
  3  4  1  0
  4  5  2  0
  6  2  1  0
  6  7  2  0
  8  4  1  0
  9  6  1  0
 10  9  1  0
 10 11  1  6
 11 12  1  0
 12 16  1  0
 13 12  2  0
 13 14  1  0
 14 15  1  0
 16 15  2  0
 17 10  1  0
 18 17  2  0
 20 21  2  0
 20 19  1  0
 22 20  1  0
 23 22  1  0
 24 23  1  1
 24 25  1  0
 25 17  1  0
 26 28  1  0
 26 24  1  0
 27 26  2  0
M  END
$$$$
