DHQ.pdb
     RDKit          3D

 28 28  0  0  1  0  0  0  0  0999 V2000
   25.2960  -20.1465  -17.3539 N   0  0  0  0  0  0  0  0  0  0  0  0
   23.8667  -19.9165  -17.2337 C   0  0  1  0  0  0  0  0  0  0  0  0
   23.2331  -20.3744  -18.5354 C   0  0  0  0  0  0  0  0  0  0  0  0
   23.5311  -19.3789  -19.5936 C   0  0  0  0  0  0  0  0  0  0  0  0
   23.7608  -19.7385  -20.7726 O   0  0  0  0  0  0  0  0  0  0  0  0
   23.3112  -20.6264  -16.0671 C   0  0  0  0  0  0  0  0  0  0  0  0
   23.4403  -21.8659  -15.9708 O   0  0  0  0  0  0  0  0  0  0  0  0
   23.5647  -18.0125  -19.3070 O   0  0  0  0  0  0  0  0  0  0  0  0
   22.6240  -19.9305  -15.0417 N   0  0  0  0  0  0  0  0  0  0  0  0
   22.1871  -20.5723  -13.8283 C   0  0  1  0  0  0  0  0  0  0  0  0
   22.4169  -19.6641  -12.6549 C   0  0  0  0  0  0  0  0  0  0  0  0
   22.0095  -20.2937  -11.3689 C   0  0  0  0  0  0  0  0  0  0  0  0
   21.5481  -21.5838  -11.1637 C   0  0  0  0  0  0  0  0  0  0  0  0
   21.2949  -21.7750   -9.8722 N   0  0  0  0  0  0  0  0  0  0  0  0
   21.5868  -20.6227   -9.2332 C   0  0  0  0  0  0  0  0  0  0  0  0
   22.0187  -19.7282  -10.1422 N   0  0  0  0  0  0  0  0  0  0  0  0
   20.7629  -21.0017  -13.9188 C   0  0  0  0  0  0  0  0  0  0  0  0
   19.9447  -20.1796  -14.4565 O   0  0  0  0  0  0  0  0  0  0  0  0
   16.5135  -19.7923  -12.4567 N   0  0  0  0  0  0  0  0  0  0  0  0
   15.9388  -21.0654  -12.1888 C   0  0  0  0  0  0  0  0  0  0  0  0
   14.6780  -21.0965  -12.0193 O   0  0  0  0  0  0  0  0  0  0  0  0
   16.7628  -22.2959  -12.1171 C   0  0  0  0  0  0  0  0  0  0  0  0
   18.2239  -22.1153  -12.2543 C   0  0  0  0  0  0  0  0  0  0  0  0
   18.9085  -22.6475  -13.4552 C   0  0  2  0  0  0  0  0  0  0  0  0
   20.3344  -22.2527  -13.4357 N   0  0  0  0  0  0  0  0  0  0  0  0
   18.3256  -22.4459  -14.7696 C   0  0  0  0  0  0  0  0  0  0  0  0
   18.7545  -23.1475  -15.7379 O   0  0  0  0  0  0  0  0  0  0  0  0
   17.3241  -21.5458  -15.0558 O   0  0  0  0  0  0  0  0  0  0  0  0
  2  1  1  6
  3  2  1  0
  3  4  1  0
  4  5  2  0
  6  2  1  0
  6  7  2  0
  8  4  1  0
  9  6  1  0
 10  9  1  0
 10 11  1  1
 11 12  1  0
 12 16  1  0
 13 12  2  0
 13 14  1  0
 14 15  1  0
 16 15  2  0
 17 10  1  0
 18 17  2  0
 20 21  2  0
 20 19  1  0
 22 20  1  0
 23 22  1  0
 24 23  1  1
 24 25  1  0
 25 17  1  0
 26 28  1  0
 26 24  1  0
 27 26  2  0
M  END
$$$$
