DHQ.pdb
     RDKit          3D

 28 28  0  0  1  0  0  0  0  0999 V2000
   26.8779  -11.9448  -19.6072 N   0  0  0  0  0  0  0  0  0  0  0  0
   26.4917  -10.9311  -18.6409 C   0  0  1  0  0  0  0  0  0  0  0  0
   26.9801   -9.5976  -19.1783 C   0  0  0  0  0  0  0  0  0  0  0  0
   28.4610   -9.6215  -19.2552 C   0  0  0  0  0  0  0  0  0  0  0  0
   29.1063  -10.6569  -18.9659 O   0  0  0  0  0  0  0  0  0  0  0  0
   25.0344  -10.9385  -18.4178 C   0  0  0  0  0  0  0  0  0  0  0  0
   24.2781  -11.4846  -19.2497 O   0  0  0  0  0  0  0  0  0  0  0  0
   29.1792   -8.4913  -19.6517 O   0  0  0  0  0  0  0  0  0  0  0  0
   24.4630  -10.3324  -17.2714 N   0  0  0  0  0  0  0  0  0  0  0  0
   23.0606  -10.4346  -16.9588 C   0  0  1  0  0  0  0  0  0  0  0  0
   22.6855  -11.8724  -16.7430 C   0  0  0  0  0  0  0  0  0  0  0  0
   21.2260  -12.0425  -16.5040 C   0  0  0  0  0  0  0  0  0  0  0  0
   20.2493  -11.0603  -16.4802 C   0  0  0  0  0  0  0  0  0  0  0  0
   19.0608  -11.6079  -16.2432 N   0  0  0  0  0  0  0  0  0  0  0  0
   19.2527  -12.9374  -16.1124 C   0  0  0  0  0  0  0  0  0  0  0  0
   20.5644  -13.1968  -16.2705 N   0  0  0  0  0  0  0  0  0  0  0  0
   22.6991   -9.5914  -15.7843 C   0  0  0  0  0  0  0  0  0  0  0  0
   23.3977   -9.7465  -14.7249 O   0  0  0  0  0  0  0  0  0  0  0  0
   22.5368   -3.6911  -15.9465 N   0  0  0  0  0  0  0  0  0  0  0  0
   22.0922   -3.9123  -14.6137 C   0  0  0  0  0  0  0  0  0  0  0  0
   22.0370   -2.8920  -13.8554 O   0  0  0  0  0  0  0  0  0  0  0  0
   21.7055   -5.2602  -14.1319 C   0  0  0  0  0  0  0  0  0  0  0  0
   21.8614   -6.3705  -15.0957 C   0  0  0  0  0  0  0  0  0  0  0  0
   21.3775   -7.7211  -14.7271 C   0  0  2  0  0  0  0  0  0  0  0  0
   21.6386   -8.6668  -15.8347 N   0  0  0  0  0  0  0  0  0  0  0  0
   20.0361   -7.8897  -14.1976 C   0  0  0  0  0  0  0  0  0  0  0  0
   19.0986   -8.1853  -15.0024 O   0  0  0  0  0  0  0  0  0  0  0  0
   19.6925   -7.7599  -12.8710 O   0  0  0  0  0  0  0  0  0  0  0  0
  2  1  1  6
  3  2  1  0
  3  4  1  0
  4  5  2  0
  6  2  1  0
  6  7  2  0
  8  4  1  0
  9  6  1  0
 10  9  1  0
 10 11  1  1
 11 12  1  0
 12 16  1  0
 13 12  2  0
 13 14  1  0
 14 15  1  0
 16 15  2  0
 17 10  1  0
 18 17  2  0
 20 21  2  0
 20 19  1  0
 22 20  1  0
 23 22  1  0
 24 23  1  6
 24 25  1  0
 25 17  1  0
 26 28  1  0
 26 24  1  0
 27 26  2  0
M  END
$$$$
