DHQ.pdb
     RDKit          3D

 28 28  0  0  1  0  0  0  0  0999 V2000
   30.1404  -10.5628  -19.0508 N   0  0  0  0  0  0  0  0  0  0  0  0
   29.7738  -10.2732  -17.6752 C   0  0  1  0  0  0  0  0  0  0  0  0
   30.2358   -8.8567  -17.3823 C   0  0  0  0  0  0  0  0  0  0  0  0
   31.7178   -8.8146  -17.4218 C   0  0  0  0  0  0  0  0  0  0  0  0
   32.4049   -9.6534  -16.7922 O   0  0  0  0  0  0  0  0  0  0  0  0
   28.3237  -10.4375  -17.4665 C   0  0  0  0  0  0  0  0  0  0  0  0
   27.5304  -10.2397  -18.4120 O   0  0  0  0  0  0  0  0  0  0  0  0
   32.3904   -7.8391  -18.1610 O   0  0  0  0  0  0  0  0  0  0  0  0
   27.8006  -10.8158  -16.2051 N   0  0  0  0  0  0  0  0  0  0  0  0
   26.3921  -11.0153  -15.9787 C   0  0  1  0  0  0  0  0  0  0  0  0
   26.1845  -12.0515  -14.9121 C   0  0  0  0  0  0  0  0  0  0  0  0
   26.3999  -13.4335  -15.4218 C   0  0  0  0  0  0  0  0  0  0  0  0
   26.7206  -13.8222  -16.7123 C   0  0  0  0  0  0  0  0  0  0  0  0
   26.8381  -15.1456  -16.7715 N   0  0  0  0  0  0  0  0  0  0  0  0
   26.5975  -15.6237  -15.5325 C   0  0  0  0  0  0  0  0  0  0  0  0
   26.3323  -14.5846  -14.7183 N   0  0  0  0  0  0  0  0  0  0  0  0
   25.7056   -9.7362  -15.6415 C   0  0  0  0  0  0  0  0  0  0  0  0
   26.4518   -8.7302  -15.3854 O   0  0  0  0  0  0  0  0  0  0  0  0
   22.3246   -7.2869  -19.0651 N   0  0  0  0  0  0  0  0  0  0  0  0
   22.6618   -6.1433  -18.2895 C   0  0  0  0  0  0  0  0  0  0  0  0
   22.1103   -5.0463  -18.6236 O   0  0  0  0  0  0  0  0  0  0  0  0
   23.6018   -6.2236  -17.1457 C   0  0  0  0  0  0  0  0  0  0  0  0
   24.1573   -7.5607  -16.8463 C   0  0  0  0  0  0  0  0  0  0  0  0
   23.6118   -8.3311  -15.7047 C   0  0  2  0  0  0  0  0  0  0  0  0
   24.3018   -9.6362  -15.6052 N   0  0  0  0  0  0  0  0  0  0  0  0
   22.1757   -8.4833  -15.5545 C   0  0  0  0  0  0  0  0  0  0  0  0
   21.6083   -9.4724  -16.1146 O   0  0  0  0  0  0  0  0  0  0  0  0
   21.3658   -7.6326  -14.8367 O   0  0  0  0  0  0  0  0  0  0  0  0
  2  1  1  6
  3  2  1  0
  3  4  1  0
  4  5  2  0
  6  2  1  0
  6  7  2  0
  8  4  1  0
  9  6  1  0
 10  9  1  0
 10 11  1  1
 11 12  1  0
 12 16  1  0
 13 12  2  0
 13 14  1  0
 14 15  1  0
 16 15  2  0
 17 10  1  0
 18 17  2  0
 20 21  2  0
 20 19  1  0
 22 20  1  0
 23 22  1  0
 24 23  1  6
 24 25  1  0
 25 17  1  0
 26 28  1  0
 26 24  1  0
 27 26  2  0
M  END
$$$$
