DHQ.pdb
     RDKit          3D

 28 28  0  0  1  0  0  0  0  0999 V2000
   43.3828  -10.0108   -4.1999 N   0  0  0  0  0  0  0  0  0  0  0  0
   43.8888   -9.4084   -5.4211 C   0  0  1  0  0  0  0  0  0  0  0  0
   44.5679  -10.5126   -6.2117 C   0  0  0  0  0  0  0  0  0  0  0  0
   45.8219  -10.8996   -5.5208 C   0  0  0  0  0  0  0  0  0  0  0  0
   46.2816  -10.2082   -4.5813 O   0  0  0  0  0  0  0  0  0  0  0  0
   42.8038   -8.7664   -6.1854 C   0  0  0  0  0  0  0  0  0  0  0  0
   43.0612   -8.1664   -7.2512 O   0  0  0  0  0  0  0  0  0  0  0  0
   46.5268  -12.0449   -5.8973 O   0  0  0  0  0  0  0  0  0  0  0  0
   41.4610   -8.8109   -5.7348 N   0  0  0  0  0  0  0  0  0  0  0  0
   40.3795   -8.1957   -6.4607 C   0  0  1  0  0  0  0  0  0  0  0  0
   39.1553   -9.0623   -6.3915 C   0  0  0  0  0  0  0  0  0  0  0  0
   39.2022  -10.1804   -7.3733 C   0  0  0  0  0  0  0  0  0  0  0  0
   40.2314  -10.5051   -8.2420 C   0  0  0  0  0  0  0  0  0  0  0  0
   39.9012  -11.5773   -8.9560 N   0  0  0  0  0  0  0  0  0  0  0  0
   38.6671  -11.9552   -8.5615 C   0  0  0  0  0  0  0  0  0  0  0  0
   38.2469  -11.1073   -7.6037 N   0  0  0  0  0  0  0  0  0  0  0  0
   40.1038   -6.8168   -5.9670 C   0  0  0  0  0  0  0  0  0  0  0  0
   39.9711   -6.6712   -4.7039 O   0  0  0  0  0  0  0  0  0  0  0  0
   42.6640   -3.5948   -3.1110 N   0  0  0  0  0  0  0  0  0  0  0  0
   41.7964   -2.5495   -3.5322 C   0  0  0  0  0  0  0  0  0  0  0  0
   41.8842   -1.4479   -2.9014 O   0  0  0  0  0  0  0  0  0  0  0  0
   40.8425   -2.7289   -4.6531 C   0  0  0  0  0  0  0  0  0  0  0  0
   40.7733   -4.0822   -5.2447 C   0  0  0  0  0  0  0  0  0  0  0  0
   39.8227   -4.3398   -6.3511 C   0  0  2  0  0  0  0  0  0  0  0  0
   39.9935   -5.7234   -6.8469 N   0  0  0  0  0  0  0  0  0  0  0  0
   39.7188   -3.3969   -7.4504 C   0  0  0  0  0  0  0  0  0  0  0  0
   39.3934   -2.1965   -7.1917 O   0  0  0  0  0  0  0  0  0  0  0  0
   39.9549   -3.7012   -8.7720 O   0  0  0  0  0  0  0  0  0  0  0  0
  2  1  1  1
  3  2  1  0
  3  4  1  0
  4  5  2  0
  6  2  1  0
  6  7  2  0
  8  4  1  0
  9  6  1  0
 10  9  1  0
 10 11  1  1
 11 12  1  0
 12 16  1  0
 13 12  2  0
 13 14  1  0
 14 15  1  0
 16 15  2  0
 17 10  1  0
 18 17  2  0
 20 21  2  0
 20 19  1  0
 22 20  1  0
 23 22  1  0
 24 23  1  1
 24 25  1  0
 25 17  1  0
 26 28  1  0
 26 24  1  0
 27 26  2  0
M  END
$$$$
