DHQ.pdb
     RDKit          3D

 28 28  0  0  1  0  0  0  0  0999 V2000
   20.9811   -6.2112  -15.2163 N   0  0  0  0  0  0  0  0  0  0  0  0
   21.8104   -5.7138  -16.3004 C   0  0  1  0  0  0  0  0  0  0  0  0
   22.4523   -4.4271  -15.8128 C   0  0  0  0  0  0  0  0  0  0  0  0
   21.3926   -3.4140  -15.5883 C   0  0  0  0  0  0  0  0  0  0  0  0
   20.1965   -3.6556  -15.8765 O   0  0  0  0  0  0  0  0  0  0  0  0
   22.8140   -6.7157  -16.7035 C   0  0  0  0  0  0  0  0  0  0  0  0
   23.6059   -6.4654  -17.6375 O   0  0  0  0  0  0  0  0  0  0  0  0
   21.6968   -2.1619  -15.0497 O   0  0  0  0  0  0  0  0  0  0  0  0
   22.9022   -7.9713  -16.0525 N   0  0  0  0  0  0  0  0  0  0  0  0
   23.7883   -9.0153  -16.4998 C   0  0  1  0  0  0  0  0  0  0  0  0
   24.7464   -9.3812  -15.4031 C   0  0  0  0  0  0  0  0  0  0  0  0
   25.7265  -10.4150  -15.8352 C   0  0  0  0  0  0  0  0  0  0  0  0
   25.8563  -10.9909  -17.0885 C   0  0  0  0  0  0  0  0  0  0  0  0
   26.8550  -11.8691  -17.0830 N   0  0  0  0  0  0  0  0  0  0  0  0
   27.3780  -11.8714  -15.8388 C   0  0  0  0  0  0  0  0  0  0  0  0
   26.6923  -10.9903  -15.0861 N   0  0  0  0  0  0  0  0  0  0  0  0
   23.0319  -10.2036  -16.9863 C   0  0  0  0  0  0  0  0  0  0  0  0
   21.9928  -10.5390  -16.3214 O   0  0  0  0  0  0  0  0  0  0  0  0
   18.4899  -11.5392  -17.8138 N   0  0  0  0  0  0  0  0  0  0  0  0
   18.8196  -12.2539  -18.9985 C   0  0  0  0  0  0  0  0  0  0  0  0
   17.8972  -12.9670  -19.5084 O   0  0  0  0  0  0  0  0  0  0  0  0
   20.1658  -12.1689  -19.6140 C   0  0  0  0  0  0  0  0  0  0  0  0
   21.1820  -11.3998  -18.8642 C   0  0  0  0  0  0  0  0  0  0  0  0
   22.5612  -11.9305  -18.7636 C   0  0  2  0  0  0  0  0  0  0  0  0
   23.4394  -10.9261  -18.1239 N   0  0  0  0  0  0  0  0  0  0  0  0
   23.1974  -12.5183  -19.9289 C   0  0  0  0  0  0  0  0  0  0  0  0
   23.0353  -13.7591  -20.1478 O   0  0  0  0  0  0  0  0  0  0  0  0
   23.9696  -11.8276  -20.8353 O   0  0  0  0  0  0  0  0  0  0  0  0
  2  1  1  1
  3  2  1  0
  3  4  1  0
  4  5  2  0
  6  2  1  0
  6  7  2  0
  8  4  1  0
  9  6  1  0
 10  9  1  0
 10 11  1  1
 11 12  1  0
 12 16  1  0
 13 12  2  0
 13 14  1  0
 14 15  1  0
 16 15  2  0
 17 10  1  0
 18 17  2  0
 20 21  2  0
 20 19  1  0
 22 20  1  0
 23 22  1  0
 24 23  1  6
 24 25  1  0
 25 17  1  0
 26 28  1  0
 26 24  1  0
 27 26  2  0
M  END
$$$$
