DHQ.pdb
     RDKit          3D

 28 28  0  0  1  0  0  0  0  0999 V2000
   18.6171  -12.8680  -16.9020 N   0  0  0  0  0  0  0  0  0  0  0  0
   18.1010  -11.5245  -16.7045 C   0  0  1  0  0  0  0  0  0  0  0  0
   17.8093  -11.3754  -15.2218 C   0  0  0  0  0  0  0  0  0  0  0  0
   16.5121  -12.0267  -14.9173 C   0  0  0  0  0  0  0  0  0  0  0  0
   16.4333  -13.2685  -14.7631 O   0  0  0  0  0  0  0  0  0  0  0  0
   19.0586  -10.5120  -17.1855 C   0  0  0  0  0  0  0  0  0  0  0  0
   20.2860  -10.7442  -17.1444 O   0  0  0  0  0  0  0  0  0  0  0  0
   15.3413  -11.2755  -14.7940 O   0  0  0  0  0  0  0  0  0  0  0  0
   18.6167   -9.2665  -17.6967 N   0  0  0  0  0  0  0  0  0  0  0  0
   19.5291   -8.2371  -18.1245 C   0  0  1  0  0  0  0  0  0  0  0  0
   19.0102   -7.5745  -19.3680 C   0  0  0  0  0  0  0  0  0  0  0  0
   19.0644   -8.4776  -20.5503 C   0  0  0  0  0  0  0  0  0  0  0  0
   20.1450   -8.7247  -21.3812 C   0  0  0  0  0  0  0  0  0  0  0  0
   19.8024   -9.5987  -22.3232 N   0  0  0  0  0  0  0  0  0  0  0  0
   18.5093   -9.9242  -22.1147 C   0  0  0  0  0  0  0  0  0  0  0  0
   18.0657   -9.2435  -21.0410 N   0  0  0  0  0  0  0  0  0  0  0  0
   19.7833   -7.2463  -17.0407 C   0  0  0  0  0  0  0  0  0  0  0  0
   18.8253   -7.0257  -16.2233 O   0  0  0  0  0  0  0  0  0  0  0  0
   21.0696   -8.5522  -12.2804 N   0  0  0  0  0  0  0  0  0  0  0  0
   21.6436   -7.2642  -12.0948 C   0  0  0  0  0  0  0  0  0  0  0  0
   22.1045   -7.0080  -10.9368 O   0  0  0  0  0  0  0  0  0  0  0  0
   21.7091   -6.2715  -13.1942 C   0  0  0  0  0  0  0  0  0  0  0  0
   21.1871   -6.7107  -14.5060 C   0  0  0  0  0  0  0  0  0  0  0  0
   21.3881   -5.8447  -15.6907 C   0  0  2  0  0  0  0  0  0  0  0  0
   21.0186   -6.5821  -16.9192 N   0  0  0  0  0  0  0  0  0  0  0  0
   22.6419   -5.1327  -15.8625 C   0  0  0  0  0  0  0  0  0  0  0  0
   23.3724   -5.4222  -16.8607 O   0  0  0  0  0  0  0  0  0  0  0  0
   23.1083   -4.1480  -15.0214 O   0  0  0  0  0  0  0  0  0  0  0  0
  2  1  1  1
  3  2  1  0
  3  4  1  0
  4  5  2  0
  6  2  1  0
  6  7  2  0
  8  4  1  0
  9  6  1  0
 10  9  1  0
 10 11  1  6
 11 12  1  0
 12 16  1  0
 13 12  2  0
 13 14  1  0
 14 15  1  0
 16 15  2  0
 17 10  1  0
 18 17  2  0
 20 21  2  0
 20 19  1  0
 22 20  1  0
 23 22  1  0
 24 23  1  1
 24 25  1  0
 25 17  1  0
 26 28  1  0
 26 24  1  0
 27 26  2  0
M  END
$$$$
