DHQ.pdb
     RDKit          3D

 28 28  0  0  1  0  0  0  0  0999 V2000
   13.2552  -18.1997    3.2747 N   0  0  0  0  0  0  0  0  0  0  0  0
   14.4667  -17.5896    3.7947 C   0  0  1  0  0  0  0  0  0  0  0  0
   14.0544  -16.7114    4.9628 C   0  0  0  0  0  0  0  0  0  0  0  0
   13.3616  -15.5083    4.4411 C   0  0  0  0  0  0  0  0  0  0  0  0
   13.1295  -15.3769    3.2160 O   0  0  0  0  0  0  0  0  0  0  0  0
   15.4491  -18.6146    4.1917 C   0  0  0  0  0  0  0  0  0  0  0  0
   15.0979  -19.5665    4.9218 O   0  0  0  0  0  0  0  0  0  0  0  0
   12.9483  -14.4872    5.2995 O   0  0  0  0  0  0  0  0  0  0  0  0
   16.7980  -18.5452    3.7634 N   0  0  0  0  0  0  0  0  0  0  0  0
   17.8078  -19.4593    4.2324 C   0  0  1  0  0  0  0  0  0  0  0  0
   18.5003  -20.1030    3.0659 C   0  0  0  0  0  0  0  0  0  0  0  0
   17.6205  -21.0701    2.3540 C   0  0  0  0  0  0  0  0  0  0  0  0
   16.8724  -20.8533    1.2084 C   0  0  0  0  0  0  0  0  0  0  0  0
   16.2225  -21.9643    0.8739 N   0  0  0  0  0  0  0  0  0  0  0  0
   16.5394  -22.9035    1.7899 C   0  0  0  0  0  0  0  0  0  0  0  0
   17.3855  -22.3586    2.6844 N   0  0  0  0  0  0  0  0  0  0  0  0
   18.7771  -18.7843    5.1412 C   0  0  0  0  0  0  0  0  0  0  0  0
   19.2153  -17.6414    4.7724 O   0  0  0  0  0  0  0  0  0  0  0  0
   18.0108  -16.0703    9.9947 N   0  0  0  0  0  0  0  0  0  0  0  0
   19.4158  -16.2342   10.1432 C   0  0  0  0  0  0  0  0  0  0  0  0
   19.9648  -15.6004   11.1003 O   0  0  0  0  0  0  0  0  0  0  0  0
   20.2019  -17.1038    9.2353 C   0  0  0  0  0  0  0  0  0  0  0  0
   19.4419  -17.8059    8.1791 C   0  0  0  0  0  0  0  0  0  0  0  0
   20.1607  -18.7069    7.2488 C   0  0  2  0  0  0  0  0  0  0  0  0
   19.1935  -19.3744    6.3497 N   0  0  0  0  0  0  0  0  0  0  0  0
   21.1364  -19.6506    7.7643 C   0  0  0  0  0  0  0  0  0  0  0  0
   20.8715  -20.8916    7.7034 O   0  0  0  0  0  0  0  0  0  0  0  0
   22.3488  -19.3048    8.3169 O   0  0  0  0  0  0  0  0  0  0  0  0
  2  1  1  1
  3  2  1  0
  3  4  1  0
  4  5  2  0
  6  2  1  0
  6  7  2  0
  8  4  1  0
  9  6  1  0
 10  9  1  0
 10 11  1  6
 11 12  1  0
 12 16  1  0
 13 12  2  0
 13 14  1  0
 14 15  1  0
 16 15  2  0
 17 10  1  0
 18 17  2  0
 20 21  2  0
 20 19  1  0
 22 20  1  0
 23 22  1  0
 24 23  1  1
 24 25  1  0
 25 17  1  0
 26 28  1  0
 26 24  1  0
 27 26  2  0
M  END
$$$$
