QMP.pdb
     RDKit          3D

 25 25  0  0  1  0  0  0  0  0999 V2000
   27.3903  -15.6998  -14.7261 N   0  0  0  0  0  0  0  0  0  0  0  0
   26.7556  -16.0329  -15.9485 C   0  0  0  0  0  0  0  0  0  0  0  0
   25.6447  -15.5270  -16.1990 O   0  0  0  0  0  0  0  0  0  0  0  0
   27.4700  -16.9694  -16.8475 C   0  0  0  0  0  0  0  0  0  0  0  0
   27.0434  -18.4102  -16.6294 C   0  0  0  0  0  0  0  0  0  0  0  0
   27.9683  -18.9927  -15.6025 C   0  0  2  0  0  0  0  0  0  0  0  0
   29.1584  -19.4614  -16.2664 N   0  0  0  0  0  0  0  0  0  0  0  0
   27.3359  -20.0669  -14.7899 C   0  0  0  0  0  0  0  0  0  0  0  0
   27.1123  -21.1516  -15.3488 O   0  0  0  0  0  0  0  0  0  0  0  0
   26.9044  -19.8139   -8.2622 C   0  0  0  0  0  0  0  0  0  0  0  0
   25.6695  -21.1008   -8.5354 S   0  0  0  0  0  0  0  0  0  0  0  0
   25.2740  -21.2221  -10.3397 C   0  0  0  0  0  0  0  0  0  0  0  0
   26.2745  -20.4590  -11.1299 C   0  0  0  0  0  0  0  0  0  0  0  0
   26.0763  -20.5861  -12.6411 C   0  0  2  0  0  0  0  0  0  0  0  0
   27.0053  -19.8460  -13.4257 N   0  0  0  0  0  0  0  0  0  0  0  0
   24.6890  -20.5875  -12.9941 C   0  0  0  0  0  0  0  0  0  0  0  0
   24.0328  -19.4879  -12.9244 O   0  0  0  0  0  0  0  0  0  0  0  0
   23.8979  -21.7214  -13.4382 N   0  0  0  0  0  0  0  0  0  0  0  0
   24.4068  -23.0616  -13.5758 C   0  0  0  0  0  0  0  0  0  0  0  0
   23.4137  -23.7213  -14.5238 C   0  0  0  0  0  0  0  0  0  0  0  0
   22.1101  -23.0582  -14.1952 C   0  0  0  0  0  0  0  0  0  0  0  0
   22.5111  -21.6890  -13.7991 C   0  0  1  0  0  0  0  0  0  0  0  0
   21.6723  -21.1473  -12.6897 C   0  0  0  0  0  0  0  0  0  0  0  0
   22.1356  -21.0505  -11.5440 O   0  0  0  0  0  0  0  0  0  0  0  0
   20.3851  -20.7597  -12.9576 O   0  0  0  0  0  0  0  0  0  0  0  0
  1  2  1  0
  2  3  2  0
  4  5  1  0
  4  2  1  0
  6  5  1  0
  6  8  1  0
  6  7  1  6
  8  9  2  0
 11 10  1  0
 11 12  1  0
 12 13  1  0
 14 13  1  1
 15  8  1  0
 15 14  1  0
 16 14  1  0
 16 17  2  0
 18 16  1  0
 19 18  1  0
 20 19  1  0
 21 20  1  0
 21 22  1  0
 22 18  1  0
 22 23  1  1
 23 25  1  0
 24 23  2  0
M  END
$$$$
