QMP.pdb
     RDKit          3D

 25 25  0  0  1  0  0  0  0  0999 V2000
   18.3759  -19.9831  -14.7253 N   0  0  0  0  0  0  0  0  0  0  0  0
   18.3521  -21.3746  -14.9920 C   0  0  0  0  0  0  0  0  0  0  0  0
   17.2475  -21.9369  -15.1201 O   0  0  0  0  0  0  0  0  0  0  0  0
   19.6591  -22.0643  -15.0997 C   0  0  0  0  0  0  0  0  0  0  0  0
   20.8249  -21.0926  -15.0527 C   0  0  0  0  0  0  0  0  0  0  0  0
   21.3077  -21.0524  -13.6333 C   0  0  2  0  0  0  0  0  0  0  0  0
   20.3353  -20.3498  -12.8348 N   0  0  0  0  0  0  0  0  0  0  0  0
   22.6637  -20.4554  -13.4949 C   0  0  0  0  0  0  0  0  0  0  0  0
   22.7616  -19.2238  -13.6068 O   0  0  0  0  0  0  0  0  0  0  0  0
   25.6688  -20.3922   -7.7238 C   0  0  0  0  0  0  0  0  0  0  0  0
   26.3038  -21.2003   -9.2069 S   0  0  0  0  0  0  0  0  0  0  0  0
   25.4042  -20.5757  -10.6993 C   0  0  0  0  0  0  0  0  0  0  0  0
   25.8979  -21.2710  -11.9161 C   0  0  0  0  0  0  0  0  0  0  0  0
   25.1568  -20.8613  -13.1897 C   0  0  2  0  0  0  0  0  0  0  0  0
   23.7961  -21.2763  -13.2440 N   0  0  0  0  0  0  0  0  0  0  0  0
   25.9867  -20.9903  -14.3491 C   0  0  0  0  0  0  0  0  0  0  0  0
   25.9622  -22.0908  -15.0069 O   0  0  0  0  0  0  0  0  0  0  0  0
   26.8899  -19.9936  -14.8966 N   0  0  0  0  0  0  0  0  0  0  0  0
   27.1182  -18.6973  -14.3121 C   0  0  0  0  0  0  0  0  0  0  0  0
   27.6817  -17.8823  -15.4691 C   0  0  0  0  0  0  0  0  0  0  0  0
   28.4496  -18.8867  -16.2744 C   0  0  0  0  0  0  0  0  0  0  0  0
   27.6853  -20.1399  -16.0799 C   0  0  1  0  0  0  0  0  0  0  0  0
   28.5689  -21.3400  -15.9971 C   0  0  0  0  0  0  0  0  0  0  0  0
   28.7767  -21.8908  -14.9062 O   0  0  0  0  0  0  0  0  0  0  0  0
   29.1452  -21.8218  -17.1437 O   0  0  0  0  0  0  0  0  0  0  0  0
  1  2  1  0
  2  3  2  0
  4  5  1  0
  4  2  1  0
  6  5  1  0
  6  8  1  0
  6  7  1  1
  8  9  2  0
 11 10  1  0
 11 12  1  0
 12 13  1  0
 14 13  1  1
 15  8  1  0
 15 14  1  0
 16 14  1  0
 16 17  2  0
 18 16  1  0
 19 18  1  0
 20 19  1  0
 21 20  1  0
 21 22  1  0
 22 18  1  0
 22 23  1  1
 23 25  1  0
 24 23  2  0
M  END
$$$$
