QMP.pdb
     RDKit          3D

 25 25  0  0  1  0  0  0  0  0999 V2000
   27.3242  -17.1518  -16.1510 N   0  0  0  0  0  0  0  0  0  0  0  0
   28.2258  -17.2614  -17.2387 C   0  0  0  0  0  0  0  0  0  0  0  0
   28.9267  -16.2738  -17.5322 O   0  0  0  0  0  0  0  0  0  0  0  0
   28.2673  -18.5586  -17.9538 C   0  0  0  0  0  0  0  0  0  0  0  0
   27.2975  -19.5679  -17.3655 C   0  0  0  0  0  0  0  0  0  0  0  0
   28.0405  -20.3274  -16.3070 C   0  0  2  0  0  0  0  0  0  0  0  0
   28.9097  -21.2816  -16.9479 N   0  0  0  0  0  0  0  0  0  0  0  0
   27.1412  -20.9832  -15.3195 C   0  0  0  0  0  0  0  0  0  0  0  0
   26.6088  -22.0533  -15.6518 O   0  0  0  0  0  0  0  0  0  0  0  0
   26.5412  -21.4731   -8.1282 C   0  0  0  0  0  0  0  0  0  0  0  0
   25.6058  -20.1953   -8.9931 S   0  0  0  0  0  0  0  0  0  0  0  0
   25.1678  -20.7775  -10.6948 C   0  0  0  0  0  0  0  0  0  0  0  0
   26.1970  -20.3240  -11.6658 C   0  0  0  0  0  0  0  0  0  0  0  0
   25.9144  -20.7721  -13.1005 C   0  0  2  0  0  0  0  0  0  0  0  0
   26.9093  -20.3958  -14.0466 N   0  0  0  0  0  0  0  0  0  0  0  0
   24.5286  -20.6370  -13.4333 C   0  0  0  0  0  0  0  0  0  0  0  0
   24.0411  -19.4602  -13.5821 O   0  0  0  0  0  0  0  0  0  0  0  0
   23.5657  -21.7057  -13.6310 N   0  0  0  0  0  0  0  0  0  0  0  0
   23.8479  -23.1018  -13.4181 C   0  0  0  0  0  0  0  0  0  0  0  0
   22.7685  -23.8083  -14.2280 C   0  0  0  0  0  0  0  0  0  0  0  0
   21.5890  -22.8881  -14.1325 C   0  0  0  0  0  0  0  0  0  0  0  0
   22.2066  -21.5444  -14.0569 C   0  0  1  0  0  0  0  0  0  0  0  0
   21.4583  -20.6227  -13.1524 C   0  0  0  0  0  0  0  0  0  0  0  0
   21.9016  -20.3534  -12.0265 O   0  0  0  0  0  0  0  0  0  0  0  0
   20.2764  -20.0803  -13.5856 O   0  0  0  0  0  0  0  0  0  0  0  0
  1  2  1  0
  2  3  2  0
  4  5  1  0
  4  2  1  0
  6  5  1  0
  6  8  1  0
  6  7  1  6
  8  9  2  0
 11 10  1  0
 11 12  1  0
 12 13  1  0
 14 13  1  1
 15  8  1  0
 15 14  1  0
 16 14  1  0
 16 17  2  0
 18 16  1  0
 19 18  1  0
 20 19  1  0
 21 20  1  0
 21 22  1  0
 22 18  1  0
 22 23  1  1
 23 25  1  0
 24 23  2  0
M  END
$$$$
