QMP.pdb
     RDKit          3D

 25 25  0  0  1  0  0  0  0  0999 V2000
   20.3422  -16.1271  -18.5185 N   0  0  0  0  0  0  0  0  0  0  0  0
   19.5040  -15.6034  -19.5339 C   0  0  0  0  0  0  0  0  0  0  0  0
   19.0708  -16.3799  -20.4069 O   0  0  0  0  0  0  0  0  0  0  0  0
   19.2023  -14.1537  -19.4799 C   0  0  0  0  0  0  0  0  0  0  0  0
   19.8163  -13.4860  -18.2623 C   0  0  0  0  0  0  0  0  0  0  0  0
   20.9533  -12.6388  -18.7510 C   0  0  2  0  0  0  0  0  0  0  0  0
   21.9795  -13.5028  -19.2775 N   0  0  0  0  0  0  0  0  0  0  0  0
   21.4902  -11.7243  -17.7072 C   0  0  0  0  0  0  0  0  0  0  0  0
   20.7913  -11.5306  -16.7007 O   0  0  0  0  0  0  0  0  0  0  0  0
   27.5039  -11.8455  -16.0531 C   0  0  0  0  0  0  0  0  0  0  0  0
   27.2331  -10.2123  -15.3353 S   0  0  0  0  0  0  0  0  0  0  0  0
   25.5125   -9.6386  -15.7050 C   0  0  0  0  0  0  0  0  0  0  0  0
   24.8770  -10.5477  -16.6938 C   0  0  0  0  0  0  0  0  0  0  0  0
   23.4036  -10.2277  -16.9501 C   0  0  2  0  0  0  0  0  0  0  0  0
   22.7576  -11.1024  -17.8690 N   0  0  0  0  0  0  0  0  0  0  0  0
   23.1751   -8.8168  -17.0303 C   0  0  0  0  0  0  0  0  0  0  0  0
   23.5214   -8.1946  -18.0969 O   0  0  0  0  0  0  0  0  0  0  0  0
   22.5779   -7.9658  -16.0164 N   0  0  0  0  0  0  0  0  0  0  0  0
   22.0956   -8.4363  -14.7436 C   0  0  0  0  0  0  0  0  0  0  0  0
   21.1355   -7.3392  -14.3020 C   0  0  0  0  0  0  0  0  0  0  0  0
   21.7376   -6.0878  -14.8661 C   0  0  0  0  0  0  0  0  0  0  0  0
   22.3813   -6.5496  -16.1171 C   0  0  1  0  0  0  0  0  0  0  0  0
   23.6648   -5.8400  -16.3940 C   0  0  0  0  0  0  0  0  0  0  0  0
   24.7407   -6.4547  -16.3586 O   0  0  0  0  0  0  0  0  0  0  0  0
   23.6347   -4.5013  -16.6871 O   0  0  0  0  0  0  0  0  0  0  0  0
  1  2  1  0
  2  3  2  0
  4  5  1  0
  4  2  1  0
  6  5  1  0
  6  8  1  0
  6  7  1  1
  8  9  2  0
 11 10  1  0
 11 12  1  0
 12 13  1  0
 14 13  1  6
 15  8  1  0
 15 14  1  0
 16 14  1  0
 16 17  2  0
 18 16  1  0
 19 18  1  0
 20 19  1  0
 21 20  1  0
 21 22  1  0
 22 18  1  0
 22 23  1  1
 23 25  1  0
 24 23  2  0
M  END
$$$$
