QMP.pdb
     RDKit          3D

 25 25  0  0  1  0  0  0  0  0999 V2000
   30.1275  -23.0859  -17.4021 N   0  0  0  0  0  0  0  0  0  0  0  0
   30.1615  -21.9545  -18.2547 C   0  0  0  0  0  0  0  0  0  0  0  0
   30.4027  -22.1286  -19.4647 O   0  0  0  0  0  0  0  0  0  0  0  0
   29.9044  -20.6334  -17.6347 C   0  0  0  0  0  0  0  0  0  0  0  0
   29.5816  -20.7481  -16.1556 C   0  0  0  0  0  0  0  0  0  0  0  0
   28.1124  -20.4874  -16.0040 C   0  0  2  0  0  0  0  0  0  0  0  0
   27.9058  -19.0662  -15.8851 N   0  0  0  0  0  0  0  0  0  0  0  0
   27.5032  -21.2262  -14.8650 C   0  0  0  0  0  0  0  0  0  0  0  0
   27.5191  -22.4658  -14.9121 O   0  0  0  0  0  0  0  0  0  0  0  0
   27.1797  -20.7925   -8.4782 C   0  0  0  0  0  0  0  0  0  0  0  0
   25.4031  -20.6924   -8.7775 S   0  0  0  0  0  0  0  0  0  0  0  0
   25.0342  -21.1362  -10.5364 C   0  0  0  0  0  0  0  0  0  0  0  0
   26.1181  -20.6381  -11.4224 C   0  0  0  0  0  0  0  0  0  0  0  0
   25.9104  -20.9989  -12.8940 C   0  0  2  0  0  0  0  0  0  0  0  0
   26.9280  -20.5264  -13.7702 N   0  0  0  0  0  0  0  0  0  0  0  0
   24.5351  -20.8892  -13.2762 C   0  0  0  0  0  0  0  0  0  0  0  0
   23.9984  -19.7255  -13.3248 O   0  0  0  0  0  0  0  0  0  0  0  0
   23.6338  -21.9717  -13.6293 N   0  0  0  0  0  0  0  0  0  0  0  0
   24.0150  -23.3593  -13.6853 C   0  0  0  0  0  0  0  0  0  0  0  0
   22.9439  -23.9848  -14.5695 C   0  0  0  0  0  0  0  0  0  0  0  0
   21.7143  -23.1839  -14.2637 C   0  0  0  0  0  0  0  0  0  0  0  0
   22.2477  -21.8347  -13.9675 C   0  0  1  0  0  0  0  0  0  0  0  0
   21.4880  -21.1464  -12.8827 C   0  0  0  0  0  0  0  0  0  0  0  0
   21.9463  -21.0957  -11.7320 O   0  0  0  0  0  0  0  0  0  0  0  0
   20.2787  -20.5729  -13.1786 O   0  0  0  0  0  0  0  0  0  0  0  0
  1  2  1  0
  2  3  2  0
  4  5  1  0
  4  2  1  0
  6  5  1  0
  6  8  1  0
  6  7  1  1
  8  9  2  0
 11 10  1  0
 11 12  1  0
 12 13  1  0
 14 13  1  1
 15  8  1  0
 15 14  1  0
 16 14  1  0
 16 17  2  0
 18 16  1  0
 19 18  1  0
 20 19  1  0
 21 20  1  0
 21 22  1  0
 22 18  1  0
 22 23  1  1
 23 25  1  0
 24 23  2  0
M  END
$$$$
