QMP.pdb
     RDKit          3D

 25 25  0  0  1  0  0  0  0  0999 V2000
   30.6018  -22.4500  -17.6251 N   0  0  0  0  0  0  0  0  0  0  0  0
   30.5459  -21.2031  -18.2959 C   0  0  0  0  0  0  0  0  0  0  0  0
   31.5924  -20.7509  -18.7990 O   0  0  0  0  0  0  0  0  0  0  0  0
   29.2306  -20.5227  -18.3489 C   0  0  0  0  0  0  0  0  0  0  0  0
   28.1474  -21.3145  -17.6382 C   0  0  0  0  0  0  0  0  0  0  0  0
   27.4790  -20.3796  -16.6745 C   0  0  2  0  0  0  0  0  0  0  0  0
   28.4334  -19.3813  -16.2629 N   0  0  0  0  0  0  0  0  0  0  0  0
   26.8786  -21.0776  -15.5056 C   0  0  0  0  0  0  0  0  0  0  0  0
   26.5770  -22.2728  -15.6450 O   0  0  0  0  0  0  0  0  0  0  0  0
   27.4664  -20.9742   -8.7197 C   0  0  0  0  0  0  0  0  0  0  0  0
   25.8655  -20.2450   -9.1215 S   0  0  0  0  0  0  0  0  0  0  0  0
   25.2915  -20.8549  -10.7723 C   0  0  0  0  0  0  0  0  0  0  0  0
   26.2251  -20.3975  -11.8338 C   0  0  0  0  0  0  0  0  0  0  0  0
   25.7558  -20.7512  -13.2458 C   0  0  2  0  0  0  0  0  0  0  0  0
   26.6639  -20.3897  -14.2809 N   0  0  0  0  0  0  0  0  0  0  0  0
   24.3544  -20.5112  -13.4129 C   0  0  0  0  0  0  0  0  0  0  0  0
   23.9246  -19.3039  -13.3650 O   0  0  0  0  0  0  0  0  0  0  0  0
   23.3157  -21.5007  -13.6377 N   0  0  0  0  0  0  0  0  0  0  0  0
   23.5618  -22.9074  -13.8238 C   0  0  0  0  0  0  0  0  0  0  0  0
   22.2982  -23.3984  -14.5184 C   0  0  0  0  0  0  0  0  0  0  0  0
   21.2172  -22.5268  -13.9540 C   0  0  0  0  0  0  0  0  0  0  0  0
   21.9077  -21.2408  -13.7047 C   0  0  1  0  0  0  0  0  0  0  0  0
   21.4199  -20.5617  -12.4683 C   0  0  0  0  0  0  0  0  0  0  0  0
   22.0908  -20.5997  -11.4266 O   0  0  0  0  0  0  0  0  0  0  0  0
   20.2216  -19.8971  -12.5033 O   0  0  0  0  0  0  0  0  0  0  0  0
  1  2  1  0
  2  3  2  0
  4  5  1  0
  4  2  1  0
  6  5  1  0
  6  8  1  0
  6  7  1  1
  8  9  2  0
 11 10  1  0
 11 12  1  0
 12 13  1  0
 14 13  1  1
 15  8  1  0
 15 14  1  0
 16 14  1  0
 16 17  2  0
 18 16  1  0
 19 18  1  0
 20 19  1  0
 21 20  1  0
 21 22  1  0
 22 18  1  0
 22 23  1  1
 23 25  1  0
 24 23  2  0
M  END
$$$$
