CLM.pdb
     RDKit          3D

 23 22  0  0  1  0  0  0  0  0999 V2000
   18.7607  -11.2799  -19.2278 N   0  0  0  0  0  0  0  0  0  0  0  0
   19.4191   -9.9822  -19.4412 C   0  0  1  0  0  0  0  0  0  0  0  0
   18.3915   -9.1321  -20.1442 C   0  0  0  0  0  0  0  0  0  0  0  0
   18.9971   -7.4724  -20.5106 S   0  0  0  0  0  0  0  0  0  0  0  0
   19.8257   -9.4438  -18.1461 C   0  0  0  0  0  0  0  0  0  0  0  0
   18.9420   -9.3548  -17.2300 O   0  0  0  0  0  0  0  0  0  0  0  0
   23.4065  -10.5832  -13.7983 C   0  0  0  0  0  0  0  0  0  0  0  0
   22.2275   -9.8432  -14.3744 C   0  0  2  0  0  0  0  0  0  0  0  0
   21.0478  -10.8295  -14.3986 C   0  0  0  0  0  0  0  0  0  0  0  0
   22.5081   -9.3208  -15.7271 C   0  0  0  0  0  0  0  0  0  0  0  0
   21.4411   -8.5666  -16.4322 C   0  0  2  0  0  0  0  0  0  0  0  0
   21.1189   -8.9950  -17.7614 N   0  0  0  0  0  0  0  0  0  0  0  0
   21.6583   -7.0968  -16.3043 C   0  0  0  0  0  0  0  0  0  0  0  0
   22.4988   -6.5232  -17.0717 O   0  0  0  0  0  0  0  0  0  0  0  0
   18.6200    0.0215  -14.5003 C   0  0  0  0  0  0  0  0  0  0  0  0
   18.3623   -1.7791  -14.6769 S   0  0  0  0  0  0  0  0  0  0  0  0
   19.8167   -2.7185  -14.9010 C   0  0  0  0  0  0  0  0  0  0  0  0
   19.8816   -4.1552  -15.1519 C   0  0  0  0  0  0  0  0  0  0  0  0
   21.1875   -4.7935  -15.3395 C   0  0  2  0  0  0  0  0  0  0  0  0
   20.9943   -6.2912  -15.3874 N   0  0  0  0  0  0  0  0  0  0  0  0
   21.9667   -4.6647  -14.0343 C   0  0  0  0  0  0  0  0  0  0  0  0
   22.6653   -3.5958  -13.8900 O   0  0  0  0  0  0  0  0  0  0  0  0
   21.9914   -5.5557  -13.0368 O   0  0  0  0  0  0  0  0  0  0  0  0
  2  3  1  0
  2  1  1  1
  4  3  1  0
  5  2  1  0
  6  5  2  0
  8  7  1  6
  8 10  1  0
  9  8  1  0
 11 10  1  6
 11 12  1  0
 12  5  1  0
 13 11  1  0
 13 20  1  0
 14 13  2  0
 16 15  1  0
 17 16  1  0
 18 17  1  0
 19 20  1  0
 19 18  1  1
 19 21  1  0
 21 23  1  0
 22 21  2  0
M  END
$$$$
