CLM.pdb
     RDKit          3D

 23 22  0  0  1  0  0  0  0  0999 V2000
   28.1757  -21.3587  -15.8187 N   0  0  0  0  0  0  0  0  0  0  0  0
   27.6549  -20.2205  -15.0464 C   0  0  1  0  0  0  0  0  0  0  0  0
   27.4091  -19.1357  -16.0640 C   0  0  0  0  0  0  0  0  0  0  0  0
   26.7813  -17.6161  -15.3208 S   0  0  0  0  0  0  0  0  0  0  0  0
   26.4437  -20.6422  -14.3480 C   0  0  0  0  0  0  0  0  0  0  0  0
   25.6981  -21.5104  -14.9125 O   0  0  0  0  0  0  0  0  0  0  0  0
   26.3645  -22.1389  -10.2227 C   0  0  0  0  0  0  0  0  0  0  0  0
   25.8640  -20.7192  -10.1616 C   0  0  2  0  0  0  0  0  0  0  0  0
   25.5669  -20.4121   -8.6843 C   0  0  0  0  0  0  0  0  0  0  0  0
   24.6618  -20.5190  -10.9958 C   0  0  0  0  0  0  0  0  0  0  0  0
   24.7798  -20.6957  -12.4652 C   0  0  2  0  0  0  0  0  0  0  0  0
   25.9752  -20.1993  -13.0808 N   0  0  0  0  0  0  0  0  0  0  0  0
   23.5244  -20.2760  -13.1518 C   0  0  0  0  0  0  0  0  0  0  0  0
   23.3790  -19.0561  -13.4913 O   0  0  0  0  0  0  0  0  0  0  0  0
   20.7447  -22.6901  -18.5647 C   0  0  0  0  0  0  0  0  0  0  0  0
   19.3351  -22.0636  -17.5848 S   0  0  0  0  0  0  0  0  0  0  0  0
   19.7663  -21.2406  -16.1069 C   0  0  0  0  0  0  0  0  0  0  0  0
   20.9972  -21.4306  -15.3451 C   0  0  0  0  0  0  0  0  0  0  0  0
   21.2041  -20.6664  -14.1118 C   0  0  2  0  0  0  0  0  0  0  0  0
   22.4792  -21.1402  -13.4543 N   0  0  0  0  0  0  0  0  0  0  0  0
   20.1801  -21.1416  -13.0857 C   0  0  0  0  0  0  0  0  0  0  0  0
   18.9845  -20.6905  -13.2216 O   0  0  0  0  0  0  0  0  0  0  0  0
   20.4114  -21.9749  -12.0651 O   0  0  0  0  0  0  0  0  0  0  0  0
  2  3  1  0
  2  1  1  6
  4  3  1  0
  5  2  1  0
  6  5  2  0
  8  7  1  1
  8 10  1  0
  9  8  1  0
 11 10  1  1
 11 12  1  0
 12  5  1  0
 13 11  1  0
 13 20  1  0
 14 13  2  0
 16 15  1  0
 17 16  1  0
 18 17  1  0
 19 20  1  0
 19 18  1  6
 19 21  1  0
 21 23  1  0
 22 21  2  0
M  END
$$$$
