CLM.pdb
     RDKit          3D

 23 22  0  0  1  0  0  0  0  0999 V2000
   27.8305  -20.3483  -16.2594 N   0  0  0  0  0  0  0  0  0  0  0  0
   27.0345  -19.3937  -15.4732 C   0  0  1  0  0  0  0  0  0  0  0  0
   26.4836  -18.4180  -16.4820 C   0  0  0  0  0  0  0  0  0  0  0  0
   27.7673  -17.3947  -17.2305 S   0  0  0  0  0  0  0  0  0  0  0  0
   25.9971  -20.1280  -14.7541 C   0  0  0  0  0  0  0  0  0  0  0  0
   25.5499  -21.2017  -15.2788 O   0  0  0  0  0  0  0  0  0  0  0  0
   26.3107  -22.1858  -10.7858 C   0  0  0  0  0  0  0  0  0  0  0  0
   25.7858  -20.7800  -10.6518 C   0  0  2  0  0  0  0  0  0  0  0  0
   25.6515  -20.4935   -9.1468 C   0  0  0  0  0  0  0  0  0  0  0  0
   24.4918  -20.6034  -11.3415 C   0  0  0  0  0  0  0  0  0  0  0  0
   24.4680  -20.6375  -12.8257 C   0  0  2  0  0  0  0  0  0  0  0  0
   25.4051  -19.7927  -13.5056 N   0  0  0  0  0  0  0  0  0  0  0  0
   23.0711  -20.5280  -13.3357 C   0  0  0  0  0  0  0  0  0  0  0  0
   22.5714  -19.3730  -13.5375 O   0  0  0  0  0  0  0  0  0  0  0  0
   19.5904  -25.5718  -16.5036 C   0  0  0  0  0  0  0  0  0  0  0  0
   18.3778  -24.3208  -15.9520 S   0  0  0  0  0  0  0  0  0  0  0  0
   19.0663  -22.8859  -15.2345 C   0  0  0  0  0  0  0  0  0  0  0  0
   20.4120  -22.7624  -14.6818 C   0  0  0  0  0  0  0  0  0  0  0  0
   20.8590  -21.4672  -14.1616 C   0  0  2  0  0  0  0  0  0  0  0  0
   22.2582  -21.6203  -13.6127 N   0  0  0  0  0  0  0  0  0  0  0  0
   20.0935  -21.1879  -12.8719 C   0  0  0  0  0  0  0  0  0  0  0  0
   20.5681  -21.7162  -11.8009 O   0  0  0  0  0  0  0  0  0  0  0  0
   18.9822  -20.4525  -12.7554 O   0  0  0  0  0  0  0  0  0  0  0  0
  2  3  1  0
  2  1  1  6
  4  3  1  0
  5  2  1  0
  6  5  2  0
  8  7  1  1
  8 10  1  0
  9  8  1  0
 11 10  1  1
 11 12  1  0
 12  5  1  0
 13 11  1  0
 13 20  1  0
 14 13  2  0
 16 15  1  0
 17 16  1  0
 18 17  1  0
 19 20  1  0
 19 18  1  1
 19 21  1  0
 21 23  1  0
 22 21  2  0
M  END
$$$$
