CLM.pdb
     RDKit          3D

 23 22  0  0  1  0  0  0  0  0999 V2000
   27.7632  -19.7001  -18.0325 N   0  0  0  0  0  0  0  0  0  0  0  0
   27.0099  -20.8454  -17.4997 C   0  0  1  0  0  0  0  0  0  0  0  0
   27.9166  -21.4648  -16.4667 C   0  0  0  0  0  0  0  0  0  0  0  0
   29.2851  -22.3807  -17.2042 S   0  0  0  0  0  0  0  0  0  0  0  0
   25.7491  -20.3605  -16.9449 C   0  0  0  0  0  0  0  0  0  0  0  0
   25.7962  -19.4254  -16.0779 O   0  0  0  0  0  0  0  0  0  0  0  0
   22.0271  -17.9184  -18.0781 C   0  0  0  0  0  0  0  0  0  0  0  0
   21.9414  -19.3592  -18.5100 C   0  0  2  0  0  0  0  0  0  0  0  0
   20.6152  -19.5203  -19.2720 C   0  0  0  0  0  0  0  0  0  0  0  0
   22.0084  -20.2867  -17.3627 C   0  0  0  0  0  0  0  0  0  0  0  0
   23.2637  -20.3485  -16.5722 C   0  0  2  0  0  0  0  0  0  0  0  0
   24.4359  -20.8071  -17.2574 N   0  0  0  0  0  0  0  0  0  0  0  0
   23.0299  -21.0132  -15.2580 C   0  0  0  0  0  0  0  0  0  0  0  0
   22.7082  -22.2462  -15.2331 O   0  0  0  0  0  0  0  0  0  0  0  0
   24.7071  -21.1511   -7.4882 C   0  0  0  0  0  0  0  0  0  0  0  0
   24.5292  -20.0915   -8.9665 S   0  0  0  0  0  0  0  0  0  0  0  0
   23.6959  -20.8286  -10.3118 C   0  0  0  0  0  0  0  0  0  0  0  0
   23.8421  -20.4632  -11.7177 C   0  0  0  0  0  0  0  0  0  0  0  0
   22.9807  -21.0988  -12.7186 C   0  0  2  0  0  0  0  0  0  0  0  0
   23.1406  -20.3690  -14.0319 N   0  0  0  0  0  0  0  0  0  0  0  0
   21.5341  -20.7443  -12.3887 C   0  0  0  0  0  0  0  0  0  0  0  0
   20.9219  -21.5367  -11.5833 O   0  0  0  0  0  0  0  0  0  0  0  0
   20.8499  -19.6954  -12.8591 O   0  0  0  0  0  0  0  0  0  0  0  0
  2  3  1  0
  2  1  1  1
  4  3  1  0
  5  2  1  0
  6  5  2  0
  8  7  1  1
  8 10  1  0
  9  8  1  0
 11 10  1  6
 11 12  1  0
 12  5  1  0
 13 11  1  0
 13 20  1  0
 14 13  2  0
 16 15  1  0
 17 16  1  0
 18 17  1  0
 19 20  1  0
 19 18  1  1
 19 21  1  0
 21 23  1  0
 22 21  2  0
M  END
$$$$
