CLM.pdb
     RDKit          3D

 23 22  0  0  1  0  0  0  0  0999 V2000
   21.2396  -11.4393  -19.7999 N   0  0  0  0  0  0  0  0  0  0  0  0
   19.9427  -10.8349  -19.4593 C   0  0  1  0  0  0  0  0  0  0  0  0
   19.0472  -11.9972  -19.1132 C   0  0  0  0  0  0  0  0  0  0  0  0
   18.6610  -13.0261  -20.5442 S   0  0  0  0  0  0  0  0  0  0  0  0
   20.1355   -9.9044  -18.3505 C   0  0  0  0  0  0  0  0  0  0  0  0
   19.1195   -9.2596  -17.9257 O   0  0  0  0  0  0  0  0  0  0  0  0
   21.4840  -10.5067  -13.9846 C   0  0  0  0  0  0  0  0  0  0  0  0
   22.6151  -10.2476  -14.9455 C   0  0  2  0  0  0  0  0  0  0  0  0
   23.9215  -10.3740  -14.1441 C   0  0  0  0  0  0  0  0  0  0  0  0
   22.5100   -8.9180  -15.5797 C   0  0  0  0  0  0  0  0  0  0  0  0
   21.4298   -8.6883  -16.5722 C   0  0  2  0  0  0  0  0  0  0  0  0
   21.3449   -9.6174  -17.6602 N   0  0  0  0  0  0  0  0  0  0  0  0
   21.3910   -7.2577  -16.9914 C   0  0  0  0  0  0  0  0  0  0  0  0
   22.3003   -6.8115  -17.7649 O   0  0  0  0  0  0  0  0  0  0  0  0
   17.1561   -1.2803  -19.7354 C   0  0  0  0  0  0  0  0  0  0  0  0
   17.2467   -3.0069  -19.1435 S   0  0  0  0  0  0  0  0  0  0  0  0
   18.7220   -3.4296  -18.3115 C   0  0  0  0  0  0  0  0  0  0  0  0
   19.0909   -4.7607  -17.8387 C   0  0  0  0  0  0  0  0  0  0  0  0
   20.3517   -4.9420  -17.1140 C   0  0  2  0  0  0  0  0  0  0  0  0
   20.4119   -6.3576  -16.5893 N   0  0  0  0  0  0  0  0  0  0  0  0
   20.2549   -4.1725  -15.8003 C   0  0  0  0  0  0  0  0  0  0  0  0
   20.5274   -2.9177  -15.8527 O   0  0  0  0  0  0  0  0  0  0  0  0
   19.9183   -4.6802  -14.6093 O   0  0  0  0  0  0  0  0  0  0  0  0
  2  3  1  0
  2  1  1  1
  4  3  1  0
  5  2  1  0
  6  5  2  0
  8  7  1  1
  8 10  1  0
  9  8  1  0
 11 10  1  6
 11 12  1  0
 12  5  1  0
 13 11  1  0
 13 20  1  0
 14 13  2  0
 16 15  1  0
 17 16  1  0
 18 17  1  0
 19 20  1  0
 19 18  1  6
 19 21  1  0
 21 23  1  0
 22 21  2  0
M  END
$$$$
