CLM.pdb
     RDKit          3D

 23 22  0  0  1  0  0  0  0  0999 V2000
   31.1924   -6.9072  -18.7284 N   0  0  0  0  0  0  0  0  0  0  0  0
   30.7615   -8.0917  -17.9704 C   0  0  1  0  0  0  0  0  0  0  0  0
   29.2614   -8.1265  -18.1167 C   0  0  0  0  0  0  0  0  0  0  0  0
   28.5101   -9.5101  -17.2355 S   0  0  0  0  0  0  0  0  0  0  0  0
   31.4231   -9.2697  -18.5248 C   0  0  0  0  0  0  0  0  0  0  0  0
   32.4047   -9.0872  -19.3194 O   0  0  0  0  0  0  0  0  0  0  0  0
   34.5181  -11.1445  -20.2812 C   0  0  0  0  0  0  0  0  0  0  0  0
   34.3179  -10.7269  -18.8476 C   0  0  2  0  0  0  0  0  0  0  0  0
   35.7038  -10.7348  -18.1810 C   0  0  0  0  0  0  0  0  0  0  0  0
   33.3831  -11.6213  -18.1352 C   0  0  0  0  0  0  0  0  0  0  0  0
   31.9835  -11.7177  -18.6212 C   0  0  2  0  0  0  0  0  0  0  0  0
   31.1072  -10.6349  -18.2840 N   0  0  0  0  0  0  0  0  0  0  0  0
   31.4164  -13.0677  -18.3387 C   0  0  0  0  0  0  0  0  0  0  0  0
   31.6781  -13.6319  -17.2263 O   0  0  0  0  0  0  0  0  0  0  0  0
   26.4532  -14.8165  -14.7804 C   0  0  0  0  0  0  0  0  0  0  0  0
   27.0894  -15.4769  -16.3612 S   0  0  0  0  0  0  0  0  0  0  0  0
   27.1858  -14.3188  -17.6639 C   0  0  0  0  0  0  0  0  0  0  0  0
   28.4091  -13.7347  -18.2058 C   0  0  0  0  0  0  0  0  0  0  0  0
   29.4441  -14.6153  -18.7544 C   0  0  2  0  0  0  0  0  0  0  0  0
   30.6050  -13.7689  -19.2222 N   0  0  0  0  0  0  0  0  0  0  0  0
   28.9458  -15.1511  -20.0930 C   0  0  0  0  0  0  0  0  0  0  0  0
   28.3170  -14.3181  -20.8427 O   0  0  0  0  0  0  0  0  0  0  0  0
   29.0995  -16.3981  -20.5524 O   0  0  0  0  0  0  0  0  0  0  0  0
  2  3  1  0
  2  1  1  6
  4  3  1  0
  5  2  1  0
  6  5  2  0
  8  7  1  6
  8 10  1  0
  9  8  1  0
 11 10  1  1
 11 12  1  0
 12  5  1  0
 13 11  1  0
 13 20  1  0
 14 13  2  0
 16 15  1  0
 17 16  1  0
 18 17  1  0
 19 20  1  0
 19 18  1  6
 19 21  1  0
 21 23  1  0
 22 21  2  0
M  END
$$$$
