CLM.pdb
     RDKit          3D

 23 22  0  0  1  0  0  0  0  0999 V2000
   28.0592  -19.2613  -15.6866 N   0  0  0  0  0  0  0  0  0  0  0  0
   28.2016  -18.9062  -14.2664 C   0  0  1  0  0  0  0  0  0  0  0  0
   27.0596  -17.9643  -13.9813 C   0  0  0  0  0  0  0  0  0  0  0  0
   26.8844  -17.5981  -12.2232 S   0  0  0  0  0  0  0  0  0  0  0  0
   28.1539  -20.1293  -13.4699 C   0  0  0  0  0  0  0  0  0  0  0  0
   27.4493  -21.1003  -13.9046 O   0  0  0  0  0  0  0  0  0  0  0  0
   32.3825  -22.3308  -10.5035 C   0  0  0  0  0  0  0  0  0  0  0  0
   31.0613  -21.6068  -10.5007 C   0  0  2  0  0  0  0  0  0  0  0  0
   30.6366  -21.4553   -9.0304 C   0  0  0  0  0  0  0  0  0  0  0  0
   30.0325  -22.3279  -11.2770 C   0  0  0  0  0  0  0  0  0  0  0  0
   28.7435  -21.6448  -11.5537 C   0  0  2  0  0  0  0  0  0  0  0  0
   28.8134  -20.3869  -12.2370 N   0  0  0  0  0  0  0  0  0  0  0  0
   27.8813  -21.6275  -10.3371 C   0  0  0  0  0  0  0  0  0  0  0  0
   27.5576  -22.7313   -9.7884 O   0  0  0  0  0  0  0  0  0  0  0  0
   28.8940  -18.7912   -4.6440 C   0  0  0  0  0  0  0  0  0  0  0  0
   27.1844  -19.4077   -4.8369 S   0  0  0  0  0  0  0  0  0  0  0  0
   26.4289  -19.0336   -6.3656 C   0  0  0  0  0  0  0  0  0  0  0  0
   27.0070  -19.2571   -7.6875 C   0  0  0  0  0  0  0  0  0  0  0  0
   26.6674  -20.4784   -8.4230 C   0  0  2  0  0  0  0  0  0  0  0  0
   27.3956  -20.4672   -9.7468 N   0  0  0  0  0  0  0  0  0  0  0  0
   25.2266  -20.3512   -8.9079 C   0  0  0  0  0  0  0  0  0  0  0  0
   25.0605  -19.8416  -10.0759 O   0  0  0  0  0  0  0  0  0  0  0  0
   24.1302  -20.7154   -8.2336 O   0  0  0  0  0  0  0  0  0  0  0  0
  2  3  1  0
  2  1  1  6
  4  3  1  0
  5  2  1  0
  6  5  2  0
  8  7  1  1
  8 10  1  0
  9  8  1  0
 11 10  1  1
 11 12  1  0
 12  5  1  0
 13 11  1  0
 13 20  1  0
 14 13  2  0
 16 15  1  0
 17 16  1  0
 18 17  1  0
 19 20  1  0
 19 18  1  1
 19 21  1  0
 21 23  1  0
 22 21  2  0
M  END
$$$$
