CLM.pdb
     RDKit          3D

 23 22  0  0  1  0  0  0  0  0999 V2000
   12.7295  -15.3230    5.7433 N   0  0  0  0  0  0  0  0  0  0  0  0
   13.9019  -15.3103    6.6313 C   0  0  1  0  0  0  0  0  0  0  0  0
   13.6772  -16.4489    7.5936 C   0  0  0  0  0  0  0  0  0  0  0  0
   12.5920  -15.9969    8.9623 S   0  0  0  0  0  0  0  0  0  0  0  0
   15.1062  -15.4686    5.8206 C   0  0  0  0  0  0  0  0  0  0  0  0
   15.0045  -16.0923    4.7121 O   0  0  0  0  0  0  0  0  0  0  0  0
   17.3207  -12.4733    3.7312 C   0  0  0  0  0  0  0  0  0  0  0  0
   18.0249  -12.7086    5.0422 C   0  0  2  0  0  0  0  0  0  0  0  0
   19.1811  -11.6973    5.1174 C   0  0  0  0  0  0  0  0  0  0  0  0
   18.5245  -14.0932    5.1622 C   0  0  0  0  0  0  0  0  0  0  0  0
   17.5375  -15.1994    5.2438 C   0  0  2  0  0  0  0  0  0  0  0  0
   16.4164  -15.0010    6.1144 N   0  0  0  0  0  0  0  0  0  0  0  0
   18.2246  -16.5099    5.4285 C   0  0  0  0  0  0  0  0  0  0  0  0
   19.1007  -16.8780    4.5791 O   0  0  0  0  0  0  0  0  0  0  0  0
   23.5982  -19.2161    8.8190 C   0  0  0  0  0  0  0  0  0  0  0  0
   22.7196  -17.6954    8.3140 S   0  0  0  0  0  0  0  0  0  0  0  0
   21.0235  -17.6473    8.7245 C   0  0  0  0  0  0  0  0  0  0  0  0
   19.9453  -17.1624    7.8678 C   0  0  0  0  0  0  0  0  0  0  0  0
   19.0733  -18.1286    7.1941 C   0  0  2  0  0  0  0  0  0  0  0  0
   17.9715  -17.3769    6.4844 N   0  0  0  0  0  0  0  0  0  0  0  0
   18.2595  -18.8533    8.2618 C   0  0  0  0  0  0  0  0  0  0  0  0
   18.8883  -19.7279    8.9626 O   0  0  0  0  0  0  0  0  0  0  0  0
   16.9627  -18.6654    8.5308 O   0  0  0  0  0  0  0  0  0  0  0  0
  2  3  1  0
  2  1  1  6
  4  3  1  0
  5  2  1  0
  6  5  2  0
  8  7  1  6
  8 10  1  0
  9  8  1  0
 11 10  1  1
 11 12  1  0
 12  5  1  0
 13 11  1  0
 13 20  1  0
 14 13  2  0
 16 15  1  0
 17 16  1  0
 18 17  1  0
 19 20  1  0
 19 18  1  1
 19 21  1  0
 21 23  1  0
 22 21  2  0
M  END
$$$$
