VMC.pdb
     RDKit          3D

 22 21  0  0  1  0  0  0  0  0999 V2000
    7.2269  -14.8526   18.0171 C   0  0  0  0  0  0  0  0  0  0  0  0
    7.9512  -14.8621   19.3409 C   0  0  2  0  0  0  0  0  0  0  0  0
    7.4490  -16.1019   20.0931 C   0  0  0  0  0  0  0  0  0  0  0  0
    7.5959  -13.6748   20.1961 C   0  0  2  0  0  0  0  0  0  0  0  0
    7.9369  -12.4787   19.4707 N   0  0  0  0  0  0  0  0  0  0  0  0
    8.2070  -13.7296   21.5391 C   0  0  0  0  0  0  0  0  0  0  0  0
    9.4384  -13.5652   21.6393 O   0  0  0  0  0  0  0  0  0  0  0  0
    7.4613  -11.6018   27.8693 C   0  0  0  0  0  0  0  0  0  0  0  0
    6.0332  -12.0388   26.8525 S   0  0  0  0  0  0  0  0  0  0  0  0
    6.5522  -12.5059   25.1545 C   0  0  0  0  0  0  0  0  0  0  0  0
    6.7829  -13.9699   25.0606 C   0  0  0  0  0  0  0  0  0  0  0  0
    7.8526  -14.2424   24.0056 C   0  0  2  0  0  0  0  0  0  0  0  0
    7.3807  -13.9651   22.6597 N   0  0  0  0  0  0  0  0  0  0  0  0
    8.3760  -15.6195   24.0872 C   0  0  0  0  0  0  0  0  0  0  0  0
    7.6640  -16.6452   23.8709 O   0  0  0  0  0  0  0  0  0  0  0  0
    9.7547  -15.7969   24.4276 N   0  0  0  0  0  0  0  0  0  0  0  0
   10.4012  -17.0777   24.4874 C   0  0  1  0  0  0  0  0  0  0  0  0
   11.4464  -17.1059   23.3636 C   0  0  0  0  0  0  0  0  0  0  0  0
   12.3186  -18.6951   23.3531 S   0  0  0  0  0  0  0  0  0  0  0  0
   11.1129  -17.3177   25.7472 C   0  0  0  0  0  0  0  0  0  0  0  0
   11.2513  -16.4545   26.6574 O   0  0  0  0  0  0  0  0  0  0  0  0
   11.6728  -18.5692   25.9617 O   0  0  0  0  0  0  0  0  0  0  0  0
  2  1  1  6
  2  4  1  0
  2  3  1  0
  4  6  1  0
  4  5  1  6
  6  7  2  0
  8  9  1  0
 10 11  1  0
 10  9  1  0
 12 11  1  1
 12 14  1  0
 13 12  1  0
 13  6  1  0
 14 16  1  0
 14 15  2  0
 16 17  1  0
 17 20  1  0
 17 18  1  6
 19 18  1  0
 20 21  2  0
 20 22  1  0
M  END
$$$$
