VMC.pdb
     RDKit          3D

 22 21  0  0  1  0  0  0  0  0999 V2000
    8.9243  -18.2093   20.5635 C   0  0  0  0  0  0  0  0  0  0  0  0
    7.8339  -17.1673   20.5168 C   0  0  2  0  0  0  0  0  0  0  0  0
    7.1578  -17.3184   19.1474 C   0  0  0  0  0  0  0  0  0  0  0  0
    8.3800  -15.7649   20.5672 C   0  0  2  0  0  0  0  0  0  0  0  0
    9.3456  -15.6189   19.5091 N   0  0  0  0  0  0  0  0  0  0  0  0
    8.9183  -15.4044   21.8940 C   0  0  0  0  0  0  0  0  0  0  0  0
   10.1465  -15.4996   22.0833 O   0  0  0  0  0  0  0  0  0  0  0  0
    6.0830  -11.1888   26.3017 C   0  0  0  0  0  0  0  0  0  0  0  0
    6.5413  -12.6173   27.3085 S   0  0  0  0  0  0  0  0  0  0  0  0
    7.7369  -13.6917   26.4214 C   0  0  0  0  0  0  0  0  0  0  0  0
    7.3565  -13.8315   24.9927 C   0  0  0  0  0  0  0  0  0  0  0  0
    8.3905  -14.7012   24.2812 C   0  0  2  0  0  0  0  0  0  0  0  0
    8.0288  -14.9660   22.8992 N   0  0  0  0  0  0  0  0  0  0  0  0
    8.6359  -15.9693   24.9945 C   0  0  0  0  0  0  0  0  0  0  0  0
    7.7408  -16.8485   25.1725 O   0  0  0  0  0  0  0  0  0  0  0  0
    9.9502  -16.2103   25.5069 N   0  0  0  0  0  0  0  0  0  0  0  0
   10.3089  -17.3796   26.2594 C   0  0  1  0  0  0  0  0  0  0  0  0
   11.7654  -17.7115   25.9062 C   0  0  0  0  0  0  0  0  0  0  0  0
   11.9366  -17.9776   24.1212 S   0  0  0  0  0  0  0  0  0  0  0  0
   10.2490  -17.1839   27.7118 C   0  0  0  0  0  0  0  0  0  0  0  0
    9.8658  -16.1174   28.2671 O   0  0  0  0  0  0  0  0  0  0  0  0
   10.6358  -18.2312   28.5360 O   0  0  0  0  0  0  0  0  0  0  0  0
  2  1  1  6
  2  4  1  0
  2  3  1  0
  4  6  1  0
  4  5  1  6
  6  7  2  0
  8  9  1  0
 10 11  1  0
 10  9  1  0
 12 11  1  1
 12 14  1  0
 13 12  1  0
 13  6  1  0
 14 16  1  0
 14 15  2  0
 16 17  1  0
 17 20  1  0
 17 18  1  6
 19 18  1  0
 20 21  2  0
 20 22  1  0
M  END
$$$$
