VMC.pdb
     RDKit          3D

 22 21  0  0  1  0  0  0  0  0999 V2000
    9.7620  -18.9847   21.0095 C   0  0  0  0  0  0  0  0  0  0  0  0
    8.4261  -18.3165   20.7949 C   0  0  2  0  0  0  0  0  0  0  0  0
    7.8495  -18.9195   19.5069 C   0  0  0  0  0  0  0  0  0  0  0  0
    8.5595  -16.8372   20.5474 C   0  0  2  0  0  0  0  0  0  0  0  0
    9.4073  -16.6470   19.3993 N   0  0  0  0  0  0  0  0  0  0  0  0
    9.0222  -16.0942   21.7364 C   0  0  0  0  0  0  0  0  0  0  0  0
   10.2279  -15.7882   21.8143 O   0  0  0  0  0  0  0  0  0  0  0  0
    6.9396  -11.4037   27.6195 C   0  0  0  0  0  0  0  0  0  0  0  0
    6.2845  -12.7299   26.5821 S   0  0  0  0  0  0  0  0  0  0  0  0
    7.6410  -13.7557   25.8904 C   0  0  0  0  0  0  0  0  0  0  0  0
    7.2423  -14.3419   24.5856 C   0  0  0  0  0  0  0  0  0  0  0  0
    8.4144  -15.1357   24.0132 C   0  0  2  0  0  0  0  0  0  0  0  0
    8.0887  -15.7566   22.7406 N   0  0  0  0  0  0  0  0  0  0  0  0
    8.9144  -16.1502   24.9607 C   0  0  0  0  0  0  0  0  0  0  0  0
    8.2009  -17.1026   25.3963 O   0  0  0  0  0  0  0  0  0  0  0  0
   10.2710  -16.0466   25.4044 N   0  0  0  0  0  0  0  0  0  0  0  0
   10.9079  -17.0167   26.2503 C   0  0  1  0  0  0  0  0  0  0  0  0
   12.4208  -16.7801   26.1446 C   0  0  0  0  0  0  0  0  0  0  0  0
   12.9874  -17.0697   24.4471 S   0  0  0  0  0  0  0  0  0  0  0  0
   10.5470  -16.8878   27.6661 C   0  0  0  0  0  0  0  0  0  0  0  0
    9.7642  -16.0080   28.1197 O   0  0  0  0  0  0  0  0  0  0  0  0
   11.0955  -17.7847   28.5720 O   0  0  0  0  0  0  0  0  0  0  0  0
  2  1  1  6
  2  4  1  0
  2  3  1  0
  4  6  1  0
  4  5  1  6
  6  7  2  0
  8  9  1  0
 10 11  1  0
 10  9  1  0
 12 11  1  1
 12 14  1  0
 13 12  1  0
 13  6  1  0
 14 16  1  0
 14 15  2  0
 16 17  1  0
 17 20  1  0
 17 18  1  1
 19 18  1  0
 20 21  2  0
 20 22  1  0
M  END
$$$$
