VMC.pdb
     RDKit          3D

 22 21  0  0  1  0  0  0  0  0999 V2000
    7.2546  -20.7184   22.5977 C   0  0  0  0  0  0  0  0  0  0  0  0
    6.0032  -20.1876   23.2529 C   0  0  2  0  0  0  0  0  0  0  0  0
    4.9149  -21.2424   23.0114 C   0  0  0  0  0  0  0  0  0  0  0  0
    5.5137  -18.9183   22.6077 C   0  0  2  0  0  0  0  0  0  0  0  0
    5.2343  -19.1955   21.2226 N   0  0  0  0  0  0  0  0  0  0  0  0
    6.4400  -17.7837   22.7941 C   0  0  0  0  0  0  0  0  0  0  0  0
    7.2876  -17.5565   21.9090 O   0  0  0  0  0  0  0  0  0  0  0  0
    7.8811  -11.2771   27.1470 C   0  0  0  0  0  0  0  0  0  0  0  0
    6.7740  -12.6707   26.8364 S   0  0  0  0  0  0  0  0  0  0  0  0
    7.5112  -13.8405   25.6287 C   0  0  0  0  0  0  0  0  0  0  0  0
    6.5687  -14.9484   25.3291 C   0  0  0  0  0  0  0  0  0  0  0  0
    7.2049  -15.8849   24.3045 C   0  0  2  0  0  0  0  0  0  0  0  0
    6.3356  -16.9976   23.9624 N   0  0  0  0  0  0  0  0  0  0  0  0
    8.5198  -16.3850   24.7493 C   0  0  0  0  0  0  0  0  0  0  0  0
    8.6670  -17.1592   25.7417 O   0  0  0  0  0  0  0  0  0  0  0  0
    9.6795  -15.9713   24.0200 N   0  0  0  0  0  0  0  0  0  0  0  0
   11.0114  -16.4121   24.3264 C   0  0  1  0  0  0  0  0  0  0  0  0
   11.9621  -15.6527   23.3905 C   0  0  0  0  0  0  0  0  0  0  0  0
   13.6351  -16.3428   23.4954 S   0  0  0  0  0  0  0  0  0  0  0  0
   11.4267  -16.1135   25.7011 C   0  0  0  0  0  0  0  0  0  0  0  0
   11.0516  -15.0975   26.3489 O   0  0  0  0  0  0  0  0  0  0  0  0
   12.2858  -16.9976   26.3384 O   0  0  0  0  0  0  0  0  0  0  0  0
  2  1  1  6
  2  4  1  0
  2  3  1  0
  4  6  1  0
  4  5  1  6
  6  7  2  0
  8  9  1  0
 10 11  1  0
 10  9  1  0
 12 11  1  1
 12 14  1  0
 13 12  1  0
 13  6  1  0
 14 16  1  0
 14 15  2  0
 16 17  1  0
 17 20  1  0
 17 18  1  6
 19 18  1  0
 20 21  2  0
 20 22  1  0
M  END
$$$$
