VMC.pdb
     RDKit          3D

 22 21  0  0  1  0  0  0  0  0999 V2000
    7.2656  -17.2782   18.5789 C   0  0  0  0  0  0  0  0  0  0  0  0
    7.7695  -17.0995   19.9900 C   0  0  2  0  0  0  0  0  0  0  0  0
    6.5895  -17.4388   20.9106 C   0  0  0  0  0  0  0  0  0  0  0  0
    8.1423  -15.6713   20.2879 C   0  0  2  0  0  0  0  0  0  0  0  0
    9.0999  -15.2406   19.3026 N   0  0  0  0  0  0  0  0  0  0  0  0
    8.6125  -15.4765   21.6739 C   0  0  0  0  0  0  0  0  0  0  0  0
    9.7433  -15.8998   21.9833 O   0  0  0  0  0  0  0  0  0  0  0  0
    6.3568  -10.6812   26.1909 C   0  0  0  0  0  0  0  0  0  0  0  0
    6.2846  -12.3286   26.9292 S   0  0  0  0  0  0  0  0  0  0  0  0
    7.4482  -13.4764   26.0931 C   0  0  0  0  0  0  0  0  0  0  0  0
    7.0865  -13.6396   24.6621 C   0  0  0  0  0  0  0  0  0  0  0  0
    8.0831  -14.5868   23.9977 C   0  0  2  0  0  0  0  0  0  0  0  0
    7.7704  -14.8206   22.5982 N   0  0  0  0  0  0  0  0  0  0  0  0
    8.1930  -15.8711   24.7156 C   0  0  0  0  0  0  0  0  0  0  0  0
    7.2182  -16.6669   24.8651 O   0  0  0  0  0  0  0  0  0  0  0  0
    9.4647  -16.2279   25.2666 N   0  0  0  0  0  0  0  0  0  0  0  0
    9.7066  -17.4472   25.9856 C   0  0  1  0  0  0  0  0  0  0  0  0
   10.5828  -18.3316   25.0876 C   0  0  0  0  0  0  0  0  0  0  0  0
    9.5609  -19.2002   23.8678 S   0  0  0  0  0  0  0  0  0  0  0  0
   10.4343  -17.2519   27.2440 C   0  0  0  0  0  0  0  0  0  0  0  0
   10.7343  -18.1840   28.0401 O   0  0  0  0  0  0  0  0  0  0  0  0
   10.8218  -15.9651   27.5902 O   0  0  0  0  0  0  0  0  0  0  0  0
  2  1  1  6
  2  4  1  0
  2  3  1  0
  4  6  1  0
  4  5  1  6
  6  7  2  0
  8  9  1  0
 10 11  1  0
 10  9  1  0
 12 11  1  1
 12 14  1  0
 13 12  1  0
 13  6  1  0
 14 16  1  0
 14 15  2  0
 16 17  1  0
 17 20  1  0
 17 18  1  6
 19 18  1  0
 20 21  2  0
 20 22  1  0
M  END
$$$$
