VMC.pdb
     RDKit          3D

 22 21  0  0  1  0  0  0  0  0999 V2000
    4.9479  -20.2641   21.9951 C   0  0  0  0  0  0  0  0  0  0  0  0
    6.0781  -19.4280   22.5435 C   0  0  2  0  0  0  0  0  0  0  0  0
    5.8942  -19.4090   24.0670 C   0  0  0  0  0  0  0  0  0  0  0  0
    6.0019  -17.9943   22.0896 C   0  0  2  0  0  0  0  0  0  0  0  0
    5.9866  -17.9777   20.6499 N   0  0  0  0  0  0  0  0  0  0  0  0
    7.0683  -17.1509   22.6655 C   0  0  0  0  0  0  0  0  0  0  0  0
    8.2167  -17.2364   22.1888 O   0  0  0  0  0  0  0  0  0  0  0  0
    5.4837  -12.3617   26.9460 C   0  0  0  0  0  0  0  0  0  0  0  0
    7.2749  -12.1424   26.8590 S   0  0  0  0  0  0  0  0  0  0  0  0
    8.0555  -13.4842   25.8787 C   0  0  0  0  0  0  0  0  0  0  0  0
    7.0212  -14.3336   25.2353 C   0  0  0  0  0  0  0  0  0  0  0  0
    7.7065  -15.4403   24.4370 C   0  0  2  0  0  0  0  0  0  0  0  0
    6.7536  -16.2801   23.7315 N   0  0  0  0  0  0  0  0  0  0  0  0
    8.5886  -16.2696   25.2802 C   0  0  0  0  0  0  0  0  0  0  0  0
    8.1583  -17.0098   26.2145 O   0  0  0  0  0  0  0  0  0  0  0  0
    9.9961  -16.2307   25.0245 N   0  0  0  0  0  0  0  0  0  0  0  0
   10.9538  -17.0447   25.7190 C   0  0  1  0  0  0  0  0  0  0  0  0
   12.3220  -16.7736   25.0782 C   0  0  0  0  0  0  0  0  0  0  0  0
   12.2604  -17.1028   23.2965 S   0  0  0  0  0  0  0  0  0  0  0  0
   11.0722  -16.7237   27.1453 C   0  0  0  0  0  0  0  0  0  0  0  0
   10.4132  -15.8160   27.7236 O   0  0  0  0  0  0  0  0  0  0  0  0
   11.9618  -17.4586   27.9163 O   0  0  0  0  0  0  0  0  0  0  0  0
  2  1  1  6
  2  4  1  0
  2  3  1  0
  4  6  1  0
  4  5  1  6
  6  7  2  0
  8  9  1  0
 10 11  1  0
 10  9  1  0
 12 11  1  1
 12 14  1  0
 13 12  1  0
 13  6  1  0
 14 16  1  0
 14 15  2  0
 16 17  1  0
 17 20  1  0
 17 18  1  6
 19 18  1  0
 20 21  2  0
 20 22  1  0
M  END
$$$$
