DLG.pdb
     RDKit          3D

 21 20  0  0  1  0  0  0  0  0999 V2000
    7.8509  -16.3869   21.9566 N   0  0  0  0  0  0  0  0  0  0  0  0
    9.2467  -16.2081   22.2043 C   0  0  1  0  0  0  0  0  0  0  0  0
    9.9413  -15.3955   21.1273 C   0  0  0  0  0  0  0  0  0  0  0  0
    9.8141  -16.0955   19.8357 C   0  0  0  0  0  0  0  0  0  0  0  0
    9.9145  -17.3368   19.7874 O   0  0  0  0  0  0  0  0  0  0  0  0
    9.4314  -15.5964   23.5456 C   0  0  0  0  0  0  0  0  0  0  0  0
   10.5738  -15.1499   23.9135 O   0  0  0  0  0  0  0  0  0  0  0  0
    9.5844  -15.3888   18.6795 O   0  0  0  0  0  0  0  0  0  0  0  0
    8.0414  -11.8145   25.8236 C   0  0  0  0  0  0  0  0  0  0  0  0
    7.0470  -12.8949   25.5036 C   0  0  2  0  0  0  0  0  0  0  0  0
    5.6723  -12.4285   26.0192 C   0  0  0  0  0  0  0  0  0  0  0  0
    7.3903  -14.1652   26.1526 C   0  0  0  0  0  0  0  0  0  0  0  0
    8.6328  -14.8948   25.8507 C   0  0  2  0  0  0  0  0  0  0  0  0
    8.3778  -15.4707   24.4837 N   0  0  0  0  0  0  0  0  0  0  0  0
    9.1470  -15.9125   26.7278 C   0  0  0  0  0  0  0  0  0  0  0  0
    9.4155  -15.6052   27.9299 O   0  0  0  0  0  0  0  0  0  0  0  0
    9.3862  -17.2675   26.3876 N   0  0  0  0  0  0  0  0  0  0  0  0
    9.7151  -18.2545   27.4014 C   0  0  0  0  0  0  0  0  0  0  0  0
   11.1647  -18.5367   27.3846 C   0  0  0  0  0  0  0  0  0  0  0  0
   11.7286  -19.4616   28.2441 O   0  0  0  0  0  0  0  0  0  0  0  0
   11.9197  -17.9349   26.5802 O   0  0  0  0  0  0  0  0  0  0  0  0
  2  1  1  6
  2  3  1  0
  3  4  1  0
  4  8  1  0
  4  5  2  0
  6  2  1  0
  7  6  2  0
 10  9  1  1
 10 12  1  0
 11 10  1  0
 13 12  1  1
 13 14  1  0
 14  6  1  0
 15 16  2  0
 15 13  1  0
 17 15  1  0
 18 17  1  0
 19 18  1  0
 20 19  1  0
 21 19  2  0
M  END
$$$$
