DLG.pdb
     RDKit          3D

 21 20  0  0  1  0  0  0  0  0999 V2000
    9.7314  -15.7673   20.5792 N   0  0  0  0  0  0  0  0  0  0  0  0
    8.6658  -16.0461   21.4895 C   0  0  1  0  0  0  0  0  0  0  0  0
    8.4722  -17.5301   21.7400 C   0  0  0  0  0  0  0  0  0  0  0  0
    8.3443  -18.2262   20.4463 C   0  0  0  0  0  0  0  0  0  0  0  0
    8.7341  -17.6727   19.3999 O   0  0  0  0  0  0  0  0  0  0  0  0
    8.9014  -15.3107   22.7587 C   0  0  0  0  0  0  0  0  0  0  0  0
   10.0837  -14.9656   23.1094 O   0  0  0  0  0  0  0  0  0  0  0  0
    7.7970  -19.4854   20.3834 O   0  0  0  0  0  0  0  0  0  0  0  0
    5.2899  -12.3111   26.6361 C   0  0  0  0  0  0  0  0  0  0  0  0
    6.7335  -12.6494   26.3914 C   0  0  2  0  0  0  0  0  0  0  0  0
    7.4909  -11.3254   26.1758 C   0  0  0  0  0  0  0  0  0  0  0  0
    6.9047  -13.4920   25.2025 C   0  0  0  0  0  0  0  0  0  0  0  0
    8.1526  -14.2228   24.9265 C   0  0  2  0  0  0  0  0  0  0  0  0
    7.8555  -14.9517   23.6437 N   0  0  0  0  0  0  0  0  0  0  0  0
    8.7309  -15.1256   25.8856 C   0  0  0  0  0  0  0  0  0  0  0  0
    9.1206  -14.6642   27.0022 O   0  0  0  0  0  0  0  0  0  0  0  0
    8.9108  -16.5215   25.7180 N   0  0  0  0  0  0  0  0  0  0  0  0
    9.3216  -17.3688   26.8242 C   0  0  0  0  0  0  0  0  0  0  0  0
   10.7119  -17.8256   26.6253 C   0  0  0  0  0  0  0  0  0  0  0  0
   11.4490  -17.4316   25.5236 O   0  0  0  0  0  0  0  0  0  0  0  0
   11.2559  -18.5886   27.4627 O   0  0  0  0  0  0  0  0  0  0  0  0
  2  1  1  6
  2  3  1  0
  3  4  1  0
  4  8  1  0
  4  5  2  0
  6  2  1  0
  7  6  2  0
 10  9  1  6
 10 12  1  0
 11 10  1  0
 13 12  1  1
 13 14  1  0
 14  6  1  0
 15 16  2  0
 15 13  1  0
 17 15  1  0
 18 17  1  0
 19 18  1  0
 20 19  1  0
 21 19  2  0
M  END
$$$$
