DLG.pdb
     RDKit          3D

 21 20  0  0  1  0  0  0  0  0999 V2000
    6.7694  -16.8657   21.7687 N   0  0  0  0  0  0  0  0  0  0  0  0
    8.1946  -16.8208   21.8609 C   0  0  1  0  0  0  0  0  0  0  0  0
    8.8609  -16.4140   20.5596 C   0  0  0  0  0  0  0  0  0  0  0  0
    8.5560  -17.4197   19.5252 C   0  0  0  0  0  0  0  0  0  0  0  0
    7.8157  -18.3855   19.7943 O   0  0  0  0  0  0  0  0  0  0  0  0
    8.5848  -15.9163   22.9730 C   0  0  0  0  0  0  0  0  0  0  0  0
    9.7812  -15.4698   23.0690 O   0  0  0  0  0  0  0  0  0  0  0  0
    9.0827  -17.3013   18.2612 O   0  0  0  0  0  0  0  0  0  0  0  0
    5.6265  -12.2408   26.7251 C   0  0  0  0  0  0  0  0  0  0  0  0
    7.0194  -12.6613   26.3488 C   0  0  2  0  0  0  0  0  0  0  0  0
    7.7540  -11.4149   25.8199 C   0  0  0  0  0  0  0  0  0  0  0  0
    7.0172  -13.6896   25.3023 C   0  0  0  0  0  0  0  0  0  0  0  0
    8.1391  -14.6236   25.1116 C   0  0  2  0  0  0  0  0  0  0  0  0
    7.6778  -15.4988   23.9775 N   0  0  0  0  0  0  0  0  0  0  0  0
    8.6428  -15.4340   26.1882 C   0  0  0  0  0  0  0  0  0  0  0  0
    9.2389  -14.8657   27.1542 O   0  0  0  0  0  0  0  0  0  0  0  0
    8.5347  -16.8431   26.2960 N   0  0  0  0  0  0  0  0  0  0  0  0
    8.9088  -17.5388   27.5151 C   0  0  0  0  0  0  0  0  0  0  0  0
   10.2876  -18.0560   27.4024 C   0  0  0  0  0  0  0  0  0  0  0  0
   10.8675  -18.7892   28.4214 O   0  0  0  0  0  0  0  0  0  0  0  0
   10.9657  -17.8368   26.3673 O   0  0  0  0  0  0  0  0  0  0  0  0
  2  1  1  6
  2  3  1  0
  3  4  1  0
  4  8  1  0
  4  5  2  0
  6  2  1  0
  7  6  2  0
 10  9  1  6
 10 12  1  0
 11 10  1  0
 13 12  1  1
 13 14  1  0
 14  6  1  0
 15 16  2  0
 15 13  1  0
 17 15  1  0
 18 17  1  0
 19 18  1  0
 20 19  1  0
 21 19  2  0
M  END
$$$$
