EFA.pdb
     RDKit          3D

 26 26  0  0  1  0  0  0  0  0999 V2000
    9.0431  -17.6150   20.3839 N   0  0  0  0  0  0  0  0  0  0  0  0
   10.1818  -17.5801   21.2432 C   0  0  1  0  0  0  0  0  0  0  0  0
   11.5071  -17.6310   20.5181 C   0  0  0  0  0  0  0  0  0  0  0  0
   11.5485  -18.6955   19.4491 C   0  0  0  0  0  0  0  0  0  0  0  0
   12.6233  -18.3688   18.4889 C   0  0  0  0  0  0  0  0  0  0  0  0
   12.3865  -18.1038   17.2920 O   0  0  0  0  0  0  0  0  0  0  0  0
   10.0890  -16.4649   22.1857 C   0  0  0  0  0  0  0  0  0  0  0  0
   11.0888  -15.7196   22.3586 O   0  0  0  0  0  0  0  0  0  0  0  0
   13.9319  -18.3562   18.9277 O   0  0  0  0  0  0  0  0  0  0  0  0
    8.8665  -16.2551   22.8814 N   0  0  0  0  0  0  0  0  0  0  0  0
    8.7517  -15.3282   23.9625 C   0  0  1  0  0  0  0  0  0  0  0  0
    7.4310  -14.6130   23.8614 C   0  0  0  0  0  0  0  0  0  0  0  0
    7.2313  -13.6785   24.9914 C   0  0  0  0  0  0  0  0  0  0  0  0
    7.9249  -12.4784   24.9772 C   0  0  0  0  0  0  0  0  0  0  0  0
    7.7867  -11.5591   26.0074 C   0  0  0  0  0  0  0  0  0  0  0  0
    6.9434  -11.8524   27.0583 C   0  0  0  0  0  0  0  0  0  0  0  0
    6.2436  -13.0310   27.1010 C   0  0  0  0  0  0  0  0  0  0  0  0
    6.4053  -13.9271   26.0547 C   0  0  0  0  0  0  0  0  0  0  0  0
    8.9062  -16.0039   25.2876 C   0  0  0  0  0  0  0  0  0  0  0  0
    8.1306  -16.9451   25.5848 O   0  0  0  0  0  0  0  0  0  0  0  0
   11.7807  -16.8544   27.1130 C   0  0  0  0  0  0  0  0  0  0  0  0
   10.3280  -16.4365   27.2566 C   0  0  2  0  0  0  0  0  0  0  0  0
    9.9212  -15.5695   26.1772 N   0  0  0  0  0  0  0  0  0  0  0  0
   10.1305  -15.7266   28.5334 C   0  0  0  0  0  0  0  0  0  0  0  0
    9.7095  -14.4105   28.5379 O   0  0  0  0  0  0  0  0  0  0  0  0
   10.3441  -16.3163   29.6140 O   0  0  0  0  0  0  0  0  0  0  0  0
  2  7  1  0
  2  1  1  6
  3  2  1  0
  4  3  1  0
  5  6  2  0
  5  4  1  0
  7  8  2  0
  9  5  1  0
 10 11  1  0
 10  7  1  0
 11 12  1  1
 12 13  1  0
 13 18  2  0
 14 13  1  0
 14 15  2  0
 15 16  1  0
 16 17  2  0
 18 17  1  0
 19 23  1  0
 19 11  1  0
 20 19  2  0
 22 23  1  0
 22 21  1  6
 24 22  1  0
 25 24  1  0
 26 24  2  0
M  END
$$$$
