EFA.pdb
     RDKit          3D

 26 26  0  0  1  0  0  0  0  0999 V2000
    8.8780  -18.8197   20.0621 N   0  0  0  0  0  0  0  0  0  0  0  0
   10.1038  -18.1498   19.7708 C   0  0  1  0  0  0  0  0  0  0  0  0
   10.2345  -17.6925   18.3360 C   0  0  0  0  0  0  0  0  0  0  0  0
    8.9174  -17.6947   17.5992 C   0  0  0  0  0  0  0  0  0  0  0  0
    9.1436  -17.2386   16.2118 C   0  0  0  0  0  0  0  0  0  0  0  0
    8.3806  -17.5558   15.2758 O   0  0  0  0  0  0  0  0  0  0  0  0
   10.3545  -17.0795   20.7364 C   0  0  0  0  0  0  0  0  0  0  0  0
   11.4078  -16.3966   20.6394 O   0  0  0  0  0  0  0  0  0  0  0  0
   10.2332  -16.4361   15.9403 O   0  0  0  0  0  0  0  0  0  0  0  0
    9.3965  -16.8413   21.7600 N   0  0  0  0  0  0  0  0  0  0  0  0
    9.5823  -15.8408   22.7628 C   0  0  1  0  0  0  0  0  0  0  0  0
    8.2925  -15.0889   22.9549 C   0  0  0  0  0  0  0  0  0  0  0  0
    7.8495  -14.4404   21.7007 C   0  0  0  0  0  0  0  0  0  0  0  0
    8.4250  -13.2282   21.3532 C   0  0  0  0  0  0  0  0  0  0  0  0
    8.0522  -12.5648   20.1928 C   0  0  0  0  0  0  0  0  0  0  0  0
    7.0929  -13.1280   19.3780 C   0  0  0  0  0  0  0  0  0  0  0  0
    6.5052  -14.3259   19.6944 C   0  0  0  0  0  0  0  0  0  0  0  0
    6.9015  -14.9619   20.8616 C   0  0  0  0  0  0  0  0  0  0  0  0
   10.0663  -16.4313   24.0486 C   0  0  0  0  0  0  0  0  0  0  0  0
   10.1593  -15.6938   25.0600 O   0  0  0  0  0  0  0  0  0  0  0  0
   10.3893  -19.7779   25.5469 C   0  0  0  0  0  0  0  0  0  0  0  0
   10.9000  -18.3636   25.3357 C   0  0  2  0  0  0  0  0  0  0  0  0
   10.4086  -17.8064   24.0987 N   0  0  0  0  0  0  0  0  0  0  0  0
   12.3738  -18.3583   25.3042 C   0  0  0  0  0  0  0  0  0  0  0  0
   13.0935  -18.6790   26.4393 O   0  0  0  0  0  0  0  0  0  0  0  0
   12.9737  -18.0634   24.2485 O   0  0  0  0  0  0  0  0  0  0  0  0
  2  7  1  0
  2  1  1  6
  3  2  1  0
  4  3  1  0
  5  6  2  0
  5  4  1  0
  7  8  2  0
  9  5  1  0
 10 11  1  0
 10  7  1  0
 11 12  1  1
 12 13  1  0
 13 18  2  0
 14 13  1  0
 14 15  2  0
 15 16  1  0
 16 17  2  0
 18 17  1  0
 19 23  1  0
 19 11  1  0
 20 19  2  0
 22 23  1  0
 22 21  1  6
 24 22  1  0
 25 24  1  0
 26 24  2  0
M  END
$$$$
