EFA.pdb
     RDKit          3D

 26 26  0  0  1  0  0  0  0  0999 V2000
   11.0482  -16.4512   20.1532 N   0  0  0  0  0  0  0  0  0  0  0  0
   10.3504  -17.0488   21.2451 C   0  0  1  0  0  0  0  0  0  0  0  0
   10.8973  -18.3926   21.6691 C   0  0  0  0  0  0  0  0  0  0  0  0
   12.0835  -18.8281   20.8439 C   0  0  0  0  0  0  0  0  0  0  0  0
   12.5296  -20.1576   21.3103 C   0  0  0  0  0  0  0  0  0  0  0  0
   13.1768  -20.3077   22.3675 O   0  0  0  0  0  0  0  0  0  0  0  0
   10.2211  -16.1079   22.3579 C   0  0  0  0  0  0  0  0  0  0  0  0
   11.2115  -15.4038   22.6875 O   0  0  0  0  0  0  0  0  0  0  0  0
   12.2219  -21.2703   20.5539 O   0  0  0  0  0  0  0  0  0  0  0  0
    8.9750  -16.0161   23.0371 N   0  0  0  0  0  0  0  0  0  0  0  0
    8.7617  -15.1140   24.1242 C   0  0  1  0  0  0  0  0  0  0  0  0
    7.2920  -14.8055   24.2286 C   0  0  0  0  0  0  0  0  0  0  0  0
    7.0350  -13.7001   25.1783 C   0  0  0  0  0  0  0  0  0  0  0  0
    6.1540  -13.9285   26.2238 C   0  0  0  0  0  0  0  0  0  0  0  0
    5.8652  -12.9339   27.1474 C   0  0  0  0  0  0  0  0  0  0  0  0
    6.4691  -11.7012   27.0152 C   0  0  0  0  0  0  0  0  0  0  0  0
    7.3451  -11.4446   25.9918 C   0  0  0  0  0  0  0  0  0  0  0  0
    7.6111  -12.4614   25.0866 C   0  0  0  0  0  0  0  0  0  0  0  0
    9.2968  -15.6615   25.4088 C   0  0  0  0  0  0  0  0  0  0  0  0
    9.2627  -16.9011   25.6030 O   0  0  0  0  0  0  0  0  0  0  0  0
   10.8768  -14.2259   28.5189 C   0  0  0  0  0  0  0  0  0  0  0  0
   10.5269  -15.3134   27.5187 C   0  0  2  0  0  0  0  0  0  0  0  0
    9.8296  -14.7729   26.3768 N   0  0  0  0  0  0  0  0  0  0  0  0
    9.6717  -16.3305   28.1569 C   0  0  0  0  0  0  0  0  0  0  0  0
    8.3735  -16.5177   27.7223 O   0  0  0  0  0  0  0  0  0  0  0  0
   10.1219  -17.0251   29.0929 O   0  0  0  0  0  0  0  0  0  0  0  0
  2  7  1  0
  2  1  1  6
  3  2  1  0
  4  3  1  0
  5  6  2  0
  5  4  1  0
  7  8  2  0
  9  5  1  0
 10 11  1  0
 10  7  1  0
 11 12  1  1
 12 13  1  0
 13 18  2  0
 14 13  1  0
 14 15  2  0
 15 16  1  0
 16 17  2  0
 18 17  1  0
 19 23  1  0
 19 11  1  0
 20 19  2  0
 22 23  1  0
 22 21  1  1
 24 22  1  0
 25 24  1  0
 26 24  2  0
M  END
$$$$
