EFA.pdb
     RDKit          3D

 26 26  0  0  1  0  0  0  0  0999 V2000
    8.4048  -17.8106   20.3826 N   0  0  0  0  0  0  0  0  0  0  0  0
    9.7491  -17.4127   20.6488 C   0  0  1  0  0  0  0  0  0  0  0  0
   10.5175  -16.9678   19.4255 C   0  0  0  0  0  0  0  0  0  0  0  0
   10.5449  -18.0150   18.3391 C   0  0  0  0  0  0  0  0  0  0  0  0
   11.2601  -17.4701   17.1663 C   0  0  0  0  0  0  0  0  0  0  0  0
   10.6818  -17.2397   16.0840 O   0  0  0  0  0  0  0  0  0  0  0  0
    9.7976  -16.4384   21.7393 C   0  0  0  0  0  0  0  0  0  0  0  0
   10.8909  -15.8800   22.0183 O   0  0  0  0  0  0  0  0  0  0  0  0
   12.6112  -17.2072   17.2688 O   0  0  0  0  0  0  0  0  0  0  0  0
    8.6027  -16.1498   22.4544 N   0  0  0  0  0  0  0  0  0  0  0  0
    8.5926  -15.3363   23.6288 C   0  0  1  0  0  0  0  0  0  0  0  0
    7.2973  -14.5717   23.6885 C   0  0  0  0  0  0  0  0  0  0  0  0
    7.2386  -13.6943   24.8788 C   0  0  0  0  0  0  0  0  0  0  0  0
    6.3760  -14.0437   25.9061 C   0  0  0  0  0  0  0  0  0  0  0  0
    6.2691  -13.2628   27.0482 C   0  0  0  0  0  0  0  0  0  0  0  0
    7.0372  -12.1225   27.1544 C   0  0  0  0  0  0  0  0  0  0  0  0
    7.8996  -11.7504   26.1554 C   0  0  0  0  0  0  0  0  0  0  0  0
    7.9816  -12.5539   25.0277 C   0  0  0  0  0  0  0  0  0  0  0  0
    8.8032  -16.1500   24.8657 C   0  0  0  0  0  0  0  0  0  0  0  0
    7.9183  -16.9696   25.2129 O   0  0  0  0  0  0  0  0  0  0  0  0
   11.8561  -17.2547   26.5604 C   0  0  0  0  0  0  0  0  0  0  0  0
   10.3623  -16.9835   26.5862 C   0  0  2  0  0  0  0  0  0  0  0  0
    9.9933  -15.9797   25.6176 N   0  0  0  0  0  0  0  0  0  0  0  0
    9.9562  -16.5202   27.9254 C   0  0  0  0  0  0  0  0  0  0  0  0
    9.4776  -15.2358   28.0999 O   0  0  0  0  0  0  0  0  0  0  0  0
   10.0448  -17.2908   28.9050 O   0  0  0  0  0  0  0  0  0  0  0  0
  2  7  1  0
  2  1  1  6
  3  2  1  0
  4  3  1  0
  5  6  2  0
  5  4  1  0
  7  8  2  0
  9  5  1  0
 10 11  1  0
 10  7  1  0
 11 12  1  1
 12 13  1  0
 13 18  2  0
 14 13  1  0
 14 15  2  0
 15 16  1  0
 16 17  2  0
 18 17  1  0
 19 23  1  0
 19 11  1  0
 20 19  2  0
 22 23  1  0
 22 21  1  1
 24 22  1  0
 25 24  1  0
 26 24  2  0
M  END
$$$$
