EFA.pdb
     RDKit          3D

 26 26  0  0  1  0  0  0  0  0999 V2000
    9.6866  -16.4424   19.6055 N   0  0  0  0  0  0  0  0  0  0  0  0
    9.1168  -17.0254   20.7768 C   0  0  1  0  0  0  0  0  0  0  0  0
    9.5214  -18.4624   21.0134 C   0  0  0  0  0  0  0  0  0  0  0  0
    8.8739  -19.4198   20.0430 C   0  0  0  0  0  0  0  0  0  0  0  0
    9.2783  -20.7987   20.3883 C   0  0  0  0  0  0  0  0  0  0  0  0
    9.5128  -21.1471   21.5641 O   0  0  0  0  0  0  0  0  0  0  0  0
    9.3368  -16.1705   21.9436 C   0  0  0  0  0  0  0  0  0  0  0  0
   10.4568  -15.6171   22.0993 O   0  0  0  0  0  0  0  0  0  0  0  0
    9.4013  -21.7327   19.3796 O   0  0  0  0  0  0  0  0  0  0  0  0
    8.2740  -15.9893   22.8709 N   0  0  0  0  0  0  0  0  0  0  0  0
    8.4318  -15.2409   24.0776 C   0  0  1  0  0  0  0  0  0  0  0  0
    7.1272  -14.5714   24.4175 C   0  0  0  0  0  0  0  0  0  0  0  0
    7.2368  -13.7628   25.6521 C   0  0  0  0  0  0  0  0  0  0  0  0
    6.9157  -14.3654   26.8584 C   0  0  0  0  0  0  0  0  0  0  0  0
    6.9928  -13.6631   28.0528 C   0  0  0  0  0  0  0  0  0  0  0  0
    7.3964  -12.3447   28.0298 C   0  0  0  0  0  0  0  0  0  0  0  0
    7.7207  -11.7207   26.8525 C   0  0  0  0  0  0  0  0  0  0  0  0
    7.6326  -12.4523   25.6774 C   0  0  0  0  0  0  0  0  0  0  0  0
    8.9125  -16.1017   25.2020 C   0  0  0  0  0  0  0  0  0  0  0  0
    8.2653  -17.1362   25.4960 O   0  0  0  0  0  0  0  0  0  0  0  0
   12.1993  -16.6758   26.6996 C   0  0  0  0  0  0  0  0  0  0  0  0
   10.6854  -16.6814   26.8164 C   0  0  2  0  0  0  0  0  0  0  0  0
   10.0846  -15.7332   25.9098 N   0  0  0  0  0  0  0  0  0  0  0  0
   10.2838  -16.3394   28.1930 C   0  0  0  0  0  0  0  0  0  0  0  0
   10.7333  -17.0989   29.2562 O   0  0  0  0  0  0  0  0  0  0  0  0
    9.5354  -15.3603   28.3988 O   0  0  0  0  0  0  0  0  0  0  0  0
  2  7  1  0
  2  1  1  6
  3  2  1  0
  4  3  1  0
  5  6  2  0
  5  4  1  0
  7  8  2  0
  9  5  1  0
 10 11  1  0
 10  7  1  0
 11 12  1  1
 12 13  1  0
 13 18  2  0
 14 13  1  0
 14 15  2  0
 15 16  1  0
 16 17  2  0
 18 17  1  0
 19 23  1  0
 19 11  1  0
 20 19  2  0
 22 23  1  0
 22 21  1  1
 24 22  1  0
 25 24  1  0
 26 24  2  0
M  END
$$$$
