EFA.pdb
     RDKit          3D

 26 26  0  0  1  0  0  0  0  0999 V2000
    9.5801  -17.9178   20.8586 N   0  0  0  0  0  0  0  0  0  0  0  0
   10.7806  -17.5132   21.5155 C   0  0  1  0  0  0  0  0  0  0  0  0
   11.9355  -17.2362   20.5806 C   0  0  0  0  0  0  0  0  0  0  0  0
   11.9694  -18.1742   19.3988 C   0  0  0  0  0  0  0  0  0  0  0  0
   13.1294  -17.8329   18.5492 C   0  0  0  0  0  0  0  0  0  0  0  0
   14.1440  -17.2670   19.0068 O   0  0  0  0  0  0  0  0  0  0  0  0
   10.5205  -16.4126   22.4438 C   0  0  0  0  0  0  0  0  0  0  0  0
   11.3720  -15.4927   22.5626 O   0  0  0  0  0  0  0  0  0  0  0  0
   13.0916  -18.1490   17.2062 O   0  0  0  0  0  0  0  0  0  0  0  0
    9.3083  -16.4145   23.1873 N   0  0  0  0  0  0  0  0  0  0  0  0
    8.9886  -15.3903   24.1305 C   0  0  1  0  0  0  0  0  0  0  0  0
    7.5119  -15.1050   24.0679 C   0  0  0  0  0  0  0  0  0  0  0  0
    7.1343  -13.9943   24.9700 C   0  0  0  0  0  0  0  0  0  0  0  0
    6.3545  -14.2885   26.0777 C   0  0  0  0  0  0  0  0  0  0  0  0
    5.9616  -13.2936   26.9617 C   0  0  0  0  0  0  0  0  0  0  0  0
    6.3580  -11.9939   26.7266 C   0  0  0  0  0  0  0  0  0  0  0  0
    7.1295  -11.6712   25.6398 C   0  0  0  0  0  0  0  0  0  0  0  0
    7.5043  -12.6903   24.7767 C   0  0  0  0  0  0  0  0  0  0  0  0
    9.4141  -15.7625   25.5149 C   0  0  0  0  0  0  0  0  0  0  0  0
    9.5121  -16.9773   25.8154 O   0  0  0  0  0  0  0  0  0  0  0  0
   10.7602  -13.8180   28.4566 C   0  0  0  0  0  0  0  0  0  0  0  0
   10.4892  -15.0556   27.6197 C   0  0  2  0  0  0  0  0  0  0  0  0
    9.6970  -14.7400   26.4557 N   0  0  0  0  0  0  0  0  0  0  0  0
    9.7700  -16.0609   28.4229 C   0  0  0  0  0  0  0  0  0  0  0  0
    8.4791  -16.4225   28.0881 O   0  0  0  0  0  0  0  0  0  0  0  0
   10.3290  -16.5875   29.4085 O   0  0  0  0  0  0  0  0  0  0  0  0
  2  7  1  0
  2  1  1  6
  3  2  1  0
  4  3  1  0
  5  6  2  0
  5  4  1  0
  7  8  2  0
  9  5  1  0
 10 11  1  0
 10  7  1  0
 11 12  1  1
 12 13  1  0
 13 18  2  0
 14 13  1  0
 14 15  2  0
 15 16  1  0
 16 17  2  0
 18 17  1  0
 19 23  1  0
 19 11  1  0
 20 19  2  0
 22 23  1  0
 22 21  1  1
 24 22  1  0
 25 24  1  0
 26 24  2  0
M  END
$$$$
