EFA.pdb
     RDKit          3D

 26 26  0  0  1  0  0  0  0  0999 V2000
    9.9604  -16.7155   19.6097 N   0  0  0  0  0  0  0  0  0  0  0  0
    9.1341  -17.1056   20.7058 C   0  0  1  0  0  0  0  0  0  0  0  0
    9.2061  -18.5772   21.0431 C   0  0  0  0  0  0  0  0  0  0  0  0
    8.7303  -19.4599   19.9151 C   0  0  0  0  0  0  0  0  0  0  0  0
    8.8357  -20.8728   20.3351 C   0  0  0  0  0  0  0  0  0  0  0  0
    9.9358  -21.4537   20.4414 O   0  0  0  0  0  0  0  0  0  0  0  0
    9.3641  -16.2422   21.8643 C   0  0  0  0  0  0  0  0  0  0  0  0
   10.5452  -15.9970   22.2251 O   0  0  0  0  0  0  0  0  0  0  0  0
    7.6816  -21.5746   20.6191 O   0  0  0  0  0  0  0  0  0  0  0  0
    8.2417  -15.7031   22.5513 N   0  0  0  0  0  0  0  0  0  0  0  0
    8.3757  -14.9257   23.7424 C   0  0  1  0  0  0  0  0  0  0  0  0
    7.1912  -14.0051   23.8670 C   0  0  0  0  0  0  0  0  0  0  0  0
    7.2556  -13.2016   25.1080 C   0  0  0  0  0  0  0  0  0  0  0  0
    6.2241  -13.3317   26.0249 C   0  0  0  0  0  0  0  0  0  0  0  0
    6.2204  -12.6046   27.2067 C   0  0  0  0  0  0  0  0  0  0  0  0
    7.2638  -11.7408   27.4651 C   0  0  0  0  0  0  0  0  0  0  0  0
    8.2986  -11.5902   26.5780 C   0  0  0  0  0  0  0  0  0  0  0  0
    8.2706  -12.3325   25.4066 C   0  0  0  0  0  0  0  0  0  0  0  0
    8.5236  -15.7913   24.9528 C   0  0  0  0  0  0  0  0  0  0  0  0
    7.6101  -16.6048   25.2344 O   0  0  0  0  0  0  0  0  0  0  0  0
   11.2661  -17.3991   26.4779 C   0  0  0  0  0  0  0  0  0  0  0  0
    9.9561  -16.6823   26.7527 C   0  0  2  0  0  0  0  0  0  0  0  0
    9.6878  -15.6760   25.7539 N   0  0  0  0  0  0  0  0  0  0  0  0
   10.0028  -16.0343   28.0761 C   0  0  0  0  0  0  0  0  0  0  0  0
   10.0838  -16.8019   29.2222 O   0  0  0  0  0  0  0  0  0  0  0  0
    9.9694  -14.7882   28.1615 O   0  0  0  0  0  0  0  0  0  0  0  0
  2  7  1  0
  2  1  1  6
  3  2  1  0
  4  3  1  0
  5  6  2  0
  5  4  1  0
  7  8  2  0
  9  5  1  0
 10 11  1  0
 10  7  1  0
 11 12  1  1
 12 13  1  0
 13 18  2  0
 14 13  1  0
 14 15  2  0
 15 16  1  0
 16 17  2  0
 18 17  1  0
 19 23  1  0
 19 11  1  0
 20 19  2  0
 22 23  1  0
 22 21  1  6
 24 22  1  0
 25 24  1  0
 26 24  2  0
M  END
$$$$
