VEI.pdb
     RDKit          3D

 25 24  0  0  1  0  0  0  0  0999 V2000
   17.3374  -11.0444  -16.3990 C   0  0  0  0  0  0  0  0  0  0  0  0
   18.4587  -10.9376  -17.3819 C   0  0  2  0  0  0  0  0  0  0  0  0
   18.5662  -12.2305  -18.1740 C   0  0  0  0  0  0  0  0  0  0  0  0
   19.7980  -10.6614  -16.7337 C   0  0  2  0  0  0  0  0  0  0  0  0
   20.1054  -11.7869  -15.8856 N   0  0  0  0  0  0  0  0  0  0  0  0
   19.7895   -9.4100  -15.9385 C   0  0  0  0  0  0  0  0  0  0  0  0
   19.1749   -9.3364  -14.8489 O   0  0  0  0  0  0  0  0  0  0  0  0
   20.4811   -8.2627  -16.3974 N   0  0  0  0  0  0  0  0  0  0  0  0
   20.5174   -7.0032  -15.6833 C   0  0  1  0  0  0  0  0  0  0  0  0
   21.9267   -6.4723  -15.6493 C   0  0  0  0  0  0  0  0  0  0  0  0
   22.0272   -5.1345  -14.9647 C   0  0  0  0  0  0  0  0  0  0  0  0
   22.0810   -5.3744  -13.4990 C   0  0  0  0  0  0  0  0  0  0  0  0
   22.1204   -6.5578  -13.0571 O   0  0  0  0  0  0  0  0  0  0  0  0
   19.5450   -6.0646  -16.2412 C   0  0  0  0  0  0  0  0  0  0  0  0
   19.5193   -5.8320  -17.4680 O   0  0  0  0  0  0  0  0  0  0  0  0
   22.0903   -4.3389  -12.5749 O   0  0  0  0  0  0  0  0  0  0  0  0
   14.3566   -6.3113  -15.7423 C   0  0  0  0  0  0  0  0  0  0  0  0
   15.7117   -5.8453  -16.2251 C   0  0  0  0  0  0  0  0  0  0  0  0
   16.2710   -4.7507  -15.3428 C   0  0  2  0  0  0  0  0  0  0  0  0
   15.4488   -3.4943  -15.4072 C   0  0  0  0  0  0  0  0  0  0  0  0
   17.6623   -4.4323  -15.8644 C   0  0  2  0  0  0  0  0  0  0  0  0
   18.6239   -5.4119  -15.3907 N   0  0  0  0  0  0  0  0  0  0  0  0
   18.0505   -3.0562  -15.4808 C   0  0  0  0  0  0  0  0  0  0  0  0
   17.6993   -1.9359  -16.2048 O   0  0  0  0  0  0  0  0  0  0  0  0
   18.7341   -2.9026  -14.4433 O   0  0  0  0  0  0  0  0  0  0  0  0
  2  1  1  1
  2  3  1  0
  4  5  1  1
  4  2  1  0
  6  4  1  0
  7  6  2  0
  8  6  1  0
  9 14  1  0
  9  8  1  0
  9 10  1  6
 11 10  1  0
 12 11  1  0
 13 12  2  0
 14 15  2  0
 16 12  1  0
 17 18  1  0
 19 18  1  0
 19 20  1  6
 21 19  1  0
 21 22  1  1
 22 14  1  0
 23 21  1  0
 24 23  1  0
 25 23  2  0
M  END
$$$$
