VEI.pdb
     RDKit          3D

 25 24  0  0  1  0  0  0  0  0999 V2000
   23.0771  -12.4607  -18.0663 C   0  0  0  0  0  0  0  0  0  0  0  0
   24.0120  -12.0548  -16.9727 C   0  0  2  0  0  0  0  0  0  0  0  0
   24.8898  -13.2349  -16.5891 C   0  0  0  0  0  0  0  0  0  0  0  0
   23.3015  -11.5637  -15.7300 C   0  0  2  0  0  0  0  0  0  0  0  0
   22.5196  -12.6629  -15.2192 N   0  0  0  0  0  0  0  0  0  0  0  0
   22.4260  -10.3995  -16.0069 C   0  0  0  0  0  0  0  0  0  0  0  0
   22.8877   -9.3393  -16.4897 O   0  0  0  0  0  0  0  0  0  0  0  0
   21.0388  -10.4620  -15.7294 N   0  0  0  0  0  0  0  0  0  0  0  0
   20.1090   -9.3900  -16.0190 C   0  0  1  0  0  0  0  0  0  0  0  0
   18.7200   -9.9470  -16.1905 C   0  0  0  0  0  0  0  0  0  0  0  0
   17.7070   -8.8865  -16.5334 C   0  0  0  0  0  0  0  0  0  0  0  0
   16.3984   -9.5573  -16.7485 C   0  0  0  0  0  0  0  0  0  0  0  0
   15.3312   -8.8819  -16.7033 O   0  0  0  0  0  0  0  0  0  0  0  0
   20.2036   -8.3370  -15.0090 C   0  0  0  0  0  0  0  0  0  0  0  0
   20.4316   -8.6220  -13.8146 O   0  0  0  0  0  0  0  0  0  0  0  0
   16.2919  -10.9178  -17.0016 O   0  0  0  0  0  0  0  0  0  0  0  0
   22.7817   -3.0279  -14.2718 C   0  0  0  0  0  0  0  0  0  0  0  0
   21.5994   -3.9092  -13.9370 C   0  0  0  0  0  0  0  0  0  0  0  0
   21.4799   -5.0700  -14.9001 C   0  0  2  0  0  0  0  0  0  0  0  0
   21.2603   -4.6132  -16.3150 C   0  0  0  0  0  0  0  0  0  0  0  0
   20.2655   -5.8760  -14.4700 C   0  0  2  0  0  0  0  0  0  0  0  0
   20.0366   -6.9836  -15.3808 N   0  0  0  0  0  0  0  0  0  0  0  0
   19.0779   -4.9979  -14.3686 C   0  0  0  0  0  0  0  0  0  0  0  0
   18.0149   -5.0504  -15.2460 O   0  0  0  0  0  0  0  0  0  0  0  0
   19.0377   -4.1636  -13.4361 O   0  0  0  0  0  0  0  0  0  0  0  0
  2  1  1  6
  2  3  1  0
  4  5  1  6
  4  2  1  0
  6  4  1  0
  7  6  2  0
  8  6  1  0
  9 14  1  0
  9  8  1  0
  9 10  1  1
 11 10  1  0
 12 11  1  0
 13 12  2  0
 14 15  2  0
 16 12  1  0
 17 18  1  0
 19 18  1  0
 19 20  1  6
 21 19  1  0
 21 22  1  6
 22 14  1  0
 23 21  1  0
 24 23  1  0
 25 23  2  0
M  END
$$$$
