VEI.pdb
     RDKit          3D

 25 24  0  0  1  0  0  0  0  0999 V2000
   17.1903  -15.0648  -17.5479 C   0  0  0  0  0  0  0  0  0  0  0  0
   15.9925  -14.3617  -16.9950 C   0  0  2  0  0  0  0  0  0  0  0  0
   15.3404  -13.5308  -18.0880 C   0  0  0  0  0  0  0  0  0  0  0  0
   16.3181  -13.4502  -15.8317 C   0  0  2  0  0  0  0  0  0  0  0  0
   15.0664  -13.0347  -15.2475 N   0  0  0  0  0  0  0  0  0  0  0  0
   17.1048  -12.2651  -16.2501 C   0  0  0  0  0  0  0  0  0  0  0  0
   18.2321  -12.3884  -16.7833 O   0  0  0  0  0  0  0  0  0  0  0  0
   16.5945  -10.9587  -16.0543 N   0  0  0  0  0  0  0  0  0  0  0  0
   17.3294   -9.7503  -16.3666 C   0  0  1  0  0  0  0  0  0  0  0  0
   16.3716   -8.6464  -16.7311 C   0  0  0  0  0  0  0  0  0  0  0  0
   17.0722   -7.3536  -17.0572 C   0  0  0  0  0  0  0  0  0  0  0  0
   16.2318   -6.2380  -16.5493 C   0  0  0  0  0  0  0  0  0  0  0  0
   15.3215   -5.7540  -17.2802 O   0  0  0  0  0  0  0  0  0  0  0  0
   18.2431   -9.4055  -15.2786 C   0  0  0  0  0  0  0  0  0  0  0  0
   17.8798   -9.5083  -14.0881 O   0  0  0  0  0  0  0  0  0  0  0  0
   16.4037   -5.6923  -15.2848 O   0  0  0  0  0  0  0  0  0  0  0  0
   23.5826  -10.5987  -13.2374 C   0  0  0  0  0  0  0  0  0  0  0  0
   22.5434   -9.5124  -13.4003 C   0  0  0  0  0  0  0  0  0  0  0  0
   21.5507   -9.8506  -14.4909 C   0  0  2  0  0  0  0  0  0  0  0  0
   22.2056   -9.9655  -15.8387 C   0  0  0  0  0  0  0  0  0  0  0  0
   20.5515   -8.7071  -14.5471 C   0  0  2  0  0  0  0  0  0  0  0  0
   19.5497   -8.9515  -15.5696 N   0  0  0  0  0  0  0  0  0  0  0  0
   21.2546   -7.4230  -14.7673 C   0  0  0  0  0  0  0  0  0  0  0  0
   21.8354   -6.6893  -13.7541 O   0  0  0  0  0  0  0  0  0  0  0  0
   21.3248   -6.9807  -15.9364 O   0  0  0  0  0  0  0  0  0  0  0  0
  2  1  1  6
  2  3  1  0
  4  5  1  6
  4  2  1  0
  6  4  1  0
  7  6  2  0
  8  6  1  0
  9 14  1  0
  9  8  1  0
  9 10  1  1
 11 10  1  0
 12 11  1  0
 13 12  2  0
 14 15  2  0
 16 12  1  0
 17 18  1  0
 19 18  1  0
 19 20  1  6
 21 19  1  0
 21 22  1  6
 22 14  1  0
 23 21  1  0
 24 23  1  0
 25 23  2  0
M  END
$$$$
