VEI.pdb
     RDKit          3D

 25 24  0  0  1  0  0  0  0  0999 V2000
   19.7441  -12.0573  -18.1713 C   0  0  0  0  0  0  0  0  0  0  0  0
   19.5794  -10.9371  -17.1951 C   0  0  2  0  0  0  0  0  0  0  0  0
   18.6217   -9.9028  -17.7640 C   0  0  0  0  0  0  0  0  0  0  0  0
   20.8813  -10.2457  -16.8529 C   0  0  2  0  0  0  0  0  0  0  0  0
   21.7305  -11.2206  -16.2133 N   0  0  0  0  0  0  0  0  0  0  0  0
   20.6799   -9.0795  -15.9597 C   0  0  0  0  0  0  0  0  0  0  0  0
   20.1404   -9.2070  -14.8359 O   0  0  0  0  0  0  0  0  0  0  0  0
   21.0963   -7.7869  -16.3612 N   0  0  0  0  0  0  0  0  0  0  0  0
   20.7995   -6.5776  -15.6215 C   0  0  1  0  0  0  0  0  0  0  0  0
   22.0405   -5.7327  -15.4991 C   0  0  0  0  0  0  0  0  0  0  0  0
   21.7823   -4.4173  -14.8123 C   0  0  0  0  0  0  0  0  0  0  0  0
   21.6614   -4.6793  -13.3544 C   0  0  0  0  0  0  0  0  0  0  0  0
   20.7301   -4.1376  -12.6938 O   0  0  0  0  0  0  0  0  0  0  0  0
   19.6619   -5.8757  -16.2138 C   0  0  0  0  0  0  0  0  0  0  0  0
   19.6197   -5.6597  -17.4432 O   0  0  0  0  0  0  0  0  0  0  0  0
   22.5410   -5.5076  -12.6713 O   0  0  0  0  0  0  0  0  0  0  0  0
   14.5294   -7.0747  -16.0814 C   0  0  0  0  0  0  0  0  0  0  0  0
   15.8248   -6.3800  -16.4361 C   0  0  0  0  0  0  0  0  0  0  0  0
   16.1587   -5.2854  -15.4462 C   0  0  2  0  0  0  0  0  0  0  0  0
   15.1169   -4.2024  -15.4250 C   0  0  0  0  0  0  0  0  0  0  0  0
   17.4722   -4.6688  -15.8978 C   0  0  2  0  0  0  0  0  0  0  0  0
   18.5981   -5.4352  -15.3940 N   0  0  0  0  0  0  0  0  0  0  0  0
   17.5441   -3.2514  -15.4765 C   0  0  0  0  0  0  0  0  0  0  0  0
   18.3207   -2.8074  -14.4267 O   0  0  0  0  0  0  0  0  0  0  0  0
   16.8630   -2.4120  -16.1080 O   0  0  0  0  0  0  0  0  0  0  0  0
  2  1  1  6
  2  3  1  0
  4  5  1  1
  4  2  1  0
  6  4  1  0
  7  6  2  0
  8  6  1  0
  9 14  1  0
  9  8  1  0
  9 10  1  6
 11 10  1  0
 12 11  1  0
 13 12  2  0
 14 15  2  0
 16 12  1  0
 17 18  1  0
 19 18  1  0
 19 20  1  6
 21 19  1  0
 21 22  1  1
 22 14  1  0
 23 21  1  0
 24 23  1  0
 25 23  2  0
M  END
$$$$
