VEI.pdb
     RDKit          3D

 25 24  0  0  1  0  0  0  0  0999 V2000
   16.1658  -13.5146  -15.9443 C   0  0  0  0  0  0  0  0  0  0  0  0
   16.9650  -12.2969  -16.2810 C   0  0  2  0  0  0  0  0  0  0  0  0
   18.0028  -12.0535  -15.1975 C   0  0  0  0  0  0  0  0  0  0  0  0
   16.1215  -11.0486  -16.4241 C   0  0  2  0  0  0  0  0  0  0  0  0
   15.2590  -11.2409  -17.5641 N   0  0  0  0  0  0  0  0  0  0  0  0
   16.9473   -9.8310  -16.6081 C   0  0  0  0  0  0  0  0  0  0  0  0
   17.7266   -9.7153  -17.5827 O   0  0  0  0  0  0  0  0  0  0  0  0
   16.8721   -8.7649  -15.6791 N   0  0  0  0  0  0  0  0  0  0  0  0
   17.7202   -7.5919  -15.7268 C   0  0  1  0  0  0  0  0  0  0  0  0
   16.8873   -6.3485  -15.5558 C   0  0  0  0  0  0  0  0  0  0  0  0
   16.0257   -6.0568  -16.7563 C   0  0  0  0  0  0  0  0  0  0  0  0
   15.2844   -4.7963  -16.4910 C   0  0  0  0  0  0  0  0  0  0  0  0
   15.8215   -3.6837  -16.7571 O   0  0  0  0  0  0  0  0  0  0  0  0
   18.8157   -7.7069  -14.7653 C   0  0  0  0  0  0  0  0  0  0  0  0
   18.5902   -8.0409  -13.5833 O   0  0  0  0  0  0  0  0  0  0  0  0
   14.0047   -4.7840  -15.9541 O   0  0  0  0  0  0  0  0  0  0  0  0
   22.6735  -10.7856  -15.0683 C   0  0  0  0  0  0  0  0  0  0  0  0
   21.6731   -9.6986  -14.7457 C   0  0  0  0  0  0  0  0  0  0  0  0
   22.3422   -8.3482  -14.6108 C   0  0  2  0  0  0  0  0  0  0  0  0
   23.3786   -8.3346  -13.5225 C   0  0  0  0  0  0  0  0  0  0  0  0
   21.2551   -7.3530  -14.2406 C   0  0  2  0  0  0  0  0  0  0  0  0
   20.1431   -7.4392  -15.1706 N   0  0  0  0  0  0  0  0  0  0  0  0
   21.8133   -5.9831  -14.1822 C   0  0  0  0  0  0  0  0  0  0  0  0
   21.5240   -5.0027  -15.1082 O   0  0  0  0  0  0  0  0  0  0  0  0
   22.5894   -5.7009  -13.2412 O   0  0  0  0  0  0  0  0  0  0  0  0
  2  1  1  1
  2  3  1  0
  4  5  1  6
  4  2  1  0
  6  4  1  0
  7  6  2  0
  8  6  1  0
  9 14  1  0
  9  8  1  0
  9 10  1  1
 11 10  1  0
 12 11  1  0
 13 12  2  0
 14 15  2  0
 16 12  1  0
 17 18  1  0
 19 18  1  0
 19 20  1  1
 21 19  1  0
 21 22  1  6
 22 14  1  0
 23 21  1  0
 24 23  1  0
 25 23  2  0
M  END
$$$$
