VEI.pdb
     RDKit          3D

 25 24  0  0  1  0  0  0  0  0999 V2000
   17.0821  -11.2178  -19.1821 C   0  0  0  0  0  0  0  0  0  0  0  0
   17.0029  -10.1111  -18.1802 C   0  0  2  0  0  0  0  0  0  0  0  0
   16.9119   -8.7766  -18.9019 C   0  0  0  0  0  0  0  0  0  0  0  0
   18.1898  -10.0674  -17.2424 C   0  0  2  0  0  0  0  0  0  0  0  0
   18.1722  -11.2851  -16.4694 N   0  0  0  0  0  0  0  0  0  0  0  0
   18.1507   -8.8902  -16.3417 C   0  0  0  0  0  0  0  0  0  0  0  0
   17.2023   -8.7152  -15.5415 O   0  0  0  0  0  0  0  0  0  0  0  0
   19.1924   -7.9313  -16.3673 N   0  0  0  0  0  0  0  0  0  0  0  0
   19.2518   -6.7810  -15.4893 C   0  0  1  0  0  0  0  0  0  0  0  0
   20.6827   -6.4918  -15.1176 C   0  0  0  0  0  0  0  0  0  0  0  0
   20.8127   -5.3312  -14.1666 C   0  0  0  0  0  0  0  0  0  0  0  0
   22.2468   -5.1998  -13.7997 C   0  0  0  0  0  0  0  0  0  0  0  0
   23.0938   -6.0077  -14.2761 O   0  0  0  0  0  0  0  0  0  0  0  0
   18.5528   -5.6418  -16.0820 C   0  0  0  0  0  0  0  0  0  0  0  0
   18.6527   -5.4017  -17.3035 O   0  0  0  0  0  0  0  0  0  0  0  0
   22.7083   -4.2116  -12.9412 O   0  0  0  0  0  0  0  0  0  0  0  0
   13.5642   -4.9601  -16.5011 C   0  0  0  0  0  0  0  0  0  0  0  0
   15.0475   -4.7046  -16.6460 C   0  0  0  0  0  0  0  0  0  0  0  0
   15.5594   -3.7714  -15.5706 C   0  0  2  0  0  0  0  0  0  0  0  0
   14.9471   -2.4024  -15.6688 C   0  0  0  0  0  0  0  0  0  0  0  0
   17.0580   -3.6351  -15.7824 C   0  0  2  0  0  0  0  0  0  0  0  0
   17.7559   -4.8016  -15.2716 N   0  0  0  0  0  0  0  0  0  0  0  0
   17.5519   -2.3866  -15.1588 C   0  0  0  0  0  0  0  0  0  0  0  0
   17.8463   -1.2436  -15.8724 O   0  0  0  0  0  0  0  0  0  0  0  0
   17.7103   -2.3689  -13.9171 O   0  0  0  0  0  0  0  0  0  0  0  0
  2  1  1  6
  2  3  1  0
  4  5  1  1
  4  2  1  0
  6  4  1  0
  7  6  2  0
  8  6  1  0
  9 14  1  0
  9  8  1  0
  9 10  1  6
 11 10  1  0
 12 11  1  0
 13 12  2  0
 14 15  2  0
 16 12  1  0
 17 18  1  0
 19 18  1  0
 19 20  1  6
 21 19  1  0
 21 22  1  1
 22 14  1  0
 23 21  1  0
 24 23  1  0
 25 23  2  0
M  END
$$$$
