HTE.pdb
     RDKit          3D

 27 27  0  0  1  0  0  0  0  0999 V2000
   18.6841  -14.0692  -17.9761 N   0  0  0  0  0  0  0  0  0  0  0  0
   18.1278  -12.9380  -17.2260 C   0  0  1  0  0  0  0  0  0  0  0  0
   18.5543  -13.1463  -15.7762 C   0  0  0  0  0  0  0  0  0  0  0  0
   17.7853  -14.2380  -15.1286 C   0  0  0  0  0  0  0  0  0  0  0  0
   18.2009  -15.5024  -14.7701 C   0  0  0  0  0  0  0  0  0  0  0  0
   17.1735  -16.1506  -14.2143 N   0  0  0  0  0  0  0  0  0  0  0  0
   16.1321  -15.3204  -14.2192 C   0  0  0  0  0  0  0  0  0  0  0  0
   16.4969  -14.1516  -14.7753 N   0  0  0  0  0  0  0  0  0  0  0  0
   18.8113  -11.7010  -17.6881 C   0  0  0  0  0  0  0  0  0  0  0  0
   20.0045  -11.7980  -18.0344 O   0  0  0  0  0  0  0  0  0  0  0  0
   18.7983   -7.4756  -20.1002 C   0  0  0  0  0  0  0  0  0  0  0  0
   18.1051   -8.7297  -19.5603 C   0  0  1  0  0  0  0  0  0  0  0  0
   17.8794   -9.6543  -20.5502 O   0  0  0  0  0  0  0  0  0  0  0  0
   18.7664   -9.2533  -18.3395 C   0  0  2  0  0  0  0  0  0  0  0  0
   18.2141  -10.4364  -17.7629 N   0  0  0  0  0  0  0  0  0  0  0  0
   18.8570   -8.1606  -17.3182 C   0  0  0  0  0  0  0  0  0  0  0  0
   17.9217   -8.0261  -16.4782 O   0  0  0  0  0  0  0  0  0  0  0  0
   19.9439   -7.2617  -17.2414 N   0  0  0  0  0  0  0  0  0  0  0  0
   20.0326   -6.2132  -16.2373 C   0  0  1  0  0  0  0  0  0  0  0  0
   21.0830   -6.5105  -15.2370 C   0  0  0  0  0  0  0  0  0  0  0  0
   21.3446   -5.4746  -14.2061 C   0  0  0  0  0  0  0  0  0  0  0  0
   22.2503   -5.7532  -13.1226 C   0  0  0  0  0  0  0  0  0  0  0  0
   22.4301   -6.8329  -12.5417 O   0  0  0  0  0  0  0  0  0  0  0  0
   20.0125   -4.9090  -16.8655 C   0  0  0  0  0  0  0  0  0  0  0  0
   20.3920   -4.7863  -18.0860 O   0  0  0  0  0  0  0  0  0  0  0  0
   23.0527   -4.6886  -12.6313 O   0  0  0  0  0  0  0  0  0  0  0  0
   19.5918   -3.7702  -16.1848 O   0  0  0  0  0  0  0  0  0  0  0  0
  2  9  1  0
  2  1  1  6
  3  2  1  0
  4  8  1  0
  4  3  1  0
  5  4  2  0
  6  5  1  0
  6  7  1  0
  7  8  2  0
  9 10  2  0
 12 11  1  6
 13 12  1  0
 14 12  1  0
 15  9  1  0
 14 15  1  1
 16 17  2  0
 16 14  1  0
 18 16  1  0
 19 18  1  0
 19 20  1  6
 21 20  1  0
 22 21  1  0
 22 23  2  0
 24 19  1  0
 24 27  1  0
 25 24  2  0
 26 22  1  0
M  END
$$$$
