HTE.pdb
     RDKit          3D

 27 27  0  0  1  0  0  0  0  0999 V2000
   23.4388  -11.8771  -16.4612 N   0  0  0  0  0  0  0  0  0  0  0  0
   23.3297  -10.6017  -15.7449 C   0  0  1  0  0  0  0  0  0  0  0  0
   24.2380   -9.6258  -16.4863 C   0  0  0  0  0  0  0  0  0  0  0  0
   25.6669  -10.0102  -16.3726 C   0  0  0  0  0  0  0  0  0  0  0  0
   26.6238  -10.1088  -17.3599 C   0  0  0  0  0  0  0  0  0  0  0  0
   27.7774  -10.4884  -16.8033 N   0  0  0  0  0  0  0  0  0  0  0  0
   27.5600  -10.6276  -15.4967 C   0  0  0  0  0  0  0  0  0  0  0  0
   26.2750  -10.3378  -15.2258 N   0  0  0  0  0  0  0  0  0  0  0  0
   21.9427  -10.0952  -15.9194 C   0  0  0  0  0  0  0  0  0  0  0  0
   21.3232  -10.4537  -16.9395 O   0  0  0  0  0  0  0  0  0  0  0  0
   18.8237  -11.0183  -14.4524 C   0  0  0  0  0  0  0  0  0  0  0  0
   18.9879   -9.5321  -14.1220 C   0  0  1  0  0  0  0  0  0  0  0  0
   19.2492   -9.3315  -12.7888 O   0  0  0  0  0  0  0  0  0  0  0  0
   19.9113   -8.8485  -15.0611 C   0  0  2  0  0  0  0  0  0  0  0  0
   21.2817   -9.2459  -15.0232 N   0  0  0  0  0  0  0  0  0  0  0  0
   19.7863   -7.3655  -14.8865 C   0  0  0  0  0  0  0  0  0  0  0  0
   20.7975   -6.7036  -14.5152 O   0  0  0  0  0  0  0  0  0  0  0  0
   18.5859   -6.6579  -15.1174 N   0  0  0  0  0  0  0  0  0  0  0  0
   18.5327   -5.2091  -15.2341 C   0  0  1  0  0  0  0  0  0  0  0  0
   19.5720   -4.7030  -16.1594 C   0  0  0  0  0  0  0  0  0  0  0  0
   19.5833   -3.2426  -16.4266 C   0  0  0  0  0  0  0  0  0  0  0  0
   20.5314   -2.6910  -17.3587 C   0  0  0  0  0  0  0  0  0  0  0  0
   21.0691   -3.2584  -18.3202 O   0  0  0  0  0  0  0  0  0  0  0  0
   17.1652   -4.7659  -15.4066 C   0  0  0  0  0  0  0  0  0  0  0  0
   16.2948   -5.5703  -15.9002 O   0  0  0  0  0  0  0  0  0  0  0  0
   20.9238   -1.3360  -17.1903 O   0  0  0  0  0  0  0  0  0  0  0  0
   16.7567   -3.4834  -15.0523 O   0  0  0  0  0  0  0  0  0  0  0  0
  2  9  1  0
  2  1  1  6
  3  2  1  0
  4  8  1  0
  4  3  1  0
  5  4  2  0
  6  5  1  0
  6  7  1  0
  7  8  2  0
  9 10  2  0
 12 11  1  1
 13 12  1  0
 14 12  1  0
 15  9  1  0
 14 15  1  1
 16 17  2  0
 16 14  1  0
 18 16  1  0
 19 18  1  0
 19 20  1  6
 21 20  1  0
 22 21  1  0
 22 23  2  0
 24 19  1  0
 24 27  1  0
 25 24  2  0
 26 22  1  0
M  END
$$$$
