HTE.pdb
     RDKit          3D

 27 27  0  0  1  0  0  0  0  0999 V2000
   22.3070   -7.7071  -13.9887 N   0  0  0  0  0  0  0  0  0  0  0  0
   21.3825   -8.0968  -15.0588 C   0  0  1  0  0  0  0  0  0  0  0  0
   21.5246   -9.6086  -15.2054 C   0  0  0  0  0  0  0  0  0  0  0  0
   22.8166   -9.9808  -15.8334 C   0  0  0  0  0  0  0  0  0  0  0  0
   23.1703   -9.9788  -17.1658 C   0  0  0  0  0  0  0  0  0  0  0  0
   24.4370  -10.3889  -17.2743 N   0  0  0  0  0  0  0  0  0  0  0  0
   24.8773  -10.6450  -16.0438 C   0  0  0  0  0  0  0  0  0  0  0  0
   23.8949  -10.3987  -15.1590 N   0  0  0  0  0  0  0  0  0  0  0  0
   19.9966   -7.8528  -14.5786 C   0  0  0  0  0  0  0  0  0  0  0  0
   19.7885   -7.9400  -13.3530 O   0  0  0  0  0  0  0  0  0  0  0  0
   15.7054   -5.5174  -14.9077 C   0  0  0  0  0  0  0  0  0  0  0  0
   17.1487   -5.7852  -15.3436 C   0  0  1  0  0  0  0  0  0  0  0  0
   17.9935   -4.7721  -14.9619 O   0  0  0  0  0  0  0  0  0  0  0  0
   17.5961   -7.1546  -14.9878 C   0  0  2  0  0  0  0  0  0  0  0  0
   18.9090   -7.5328  -15.4008 N   0  0  0  0  0  0  0  0  0  0  0  0
   16.5835   -8.1475  -15.4717 C   0  0  0  0  0  0  0  0  0  0  0  0
   16.5124   -8.3987  -16.7088 O   0  0  0  0  0  0  0  0  0  0  0  0
   15.6935   -8.8269  -14.6108 N   0  0  0  0  0  0  0  0  0  0  0  0
   14.6883   -9.7618  -15.0914 C   0  0  1  0  0  0  0  0  0  0  0  0
   14.9657  -11.1399  -14.6262 C   0  0  0  0  0  0  0  0  0  0  0  0
   14.0135  -12.1981  -15.0478 C   0  0  0  0  0  0  0  0  0  0  0  0
   14.2102  -13.5556  -14.6114 C   0  0  0  0  0  0  0  0  0  0  0  0
   15.1132  -13.9969  -13.8865 O   0  0  0  0  0  0  0  0  0  0  0  0
   13.3605   -9.2145  -14.9081 C   0  0  0  0  0  0  0  0  0  0  0  0
   13.1300   -8.4244  -13.9227 O   0  0  0  0  0  0  0  0  0  0  0  0
   13.2786  -14.5380  -15.0419 O   0  0  0  0  0  0  0  0  0  0  0  0
   12.3129   -9.5188  -15.7726 O   0  0  0  0  0  0  0  0  0  0  0  0
  2  9  1  0
  2  1  1  1
  3  2  1  0
  4  8  1  0
  4  3  1  0
  5  4  2  0
  6  5  1  0
  6  7  1  0
  7  8  2  0
  9 10  2  0
 12 11  1  1
 13 12  1  0
 14 12  1  0
 15  9  1  0
 14 15  1  6
 16 17  2  0
 16 14  1  0
 18 16  1  0
 19 18  1  0
 19 20  1  1
 21 20  1  0
 22 21  1  0
 22 23  2  0
 24 19  1  0
 24 27  1  0
 25 24  2  0
 26 22  1  0
M  END
$$$$
