HTE.pdb
     RDKit          3D

 27 27  0  0  1  0  0  0  0  0999 V2000
   16.4575  -14.2234  -17.2300 N   0  0  0  0  0  0  0  0  0  0  0  0
   17.1352  -13.4350  -16.1952 C   0  0  1  0  0  0  0  0  0  0  0  0
   18.5814  -13.9202  -16.1788 C   0  0  0  0  0  0  0  0  0  0  0  0
   18.6861  -15.3199  -15.6967 C   0  0  0  0  0  0  0  0  0  0  0  0
   18.4603  -15.8256  -14.4344 C   0  0  0  0  0  0  0  0  0  0  0  0
   18.6740  -17.1442  -14.4557 N   0  0  0  0  0  0  0  0  0  0  0  0
   19.0262  -17.4684  -15.6985 C   0  0  0  0  0  0  0  0  0  0  0  0
   19.0360  -16.3612  -16.4617 N   0  0  0  0  0  0  0  0  0  0  0  0
   17.1752  -12.0199  -16.6498 C   0  0  0  0  0  0  0  0  0  0  0  0
   17.4886  -11.8055  -17.8367 O   0  0  0  0  0  0  0  0  0  0  0  0
   14.7467   -9.7532  -17.7180 C   0  0  0  0  0  0  0  0  0  0  0  0
   15.3981   -9.0476  -16.5253 C   0  0  1  0  0  0  0  0  0  0  0  0
   14.5620   -9.0083  -15.4366 O   0  0  0  0  0  0  0  0  0  0  0  0
   16.7682   -9.5506  -16.2574 C   0  0  2  0  0  0  0  0  0  0  0  0
   16.8871  -10.9115  -15.8438 N   0  0  0  0  0  0  0  0  0  0  0  0
   17.4473   -8.6401  -15.2800 C   0  0  0  0  0  0  0  0  0  0  0  0
   17.5432   -8.9986  -14.0713 O   0  0  0  0  0  0  0  0  0  0  0  0
   17.9934   -7.3882  -15.6396 N   0  0  0  0  0  0  0  0  0  0  0  0
   18.5605   -6.4653  -14.6690 C   0  0  1  0  0  0  0  0  0  0  0  0
   20.0340   -6.3891  -14.7926 C   0  0  0  0  0  0  0  0  0  0  0  0
   20.7360   -5.4270  -13.9061 C   0  0  0  0  0  0  0  0  0  0  0  0
   22.1624   -5.2649  -14.0099 C   0  0  0  0  0  0  0  0  0  0  0  0
   22.9727   -6.0137  -14.5741 O   0  0  0  0  0  0  0  0  0  0  0  0
   17.7959   -5.2363  -14.6337 C   0  0  0  0  0  0  0  0  0  0  0  0
   17.7794   -4.5296  -13.5619 O   0  0  0  0  0  0  0  0  0  0  0  0
   22.7512   -4.1216  -13.4060 O   0  0  0  0  0  0  0  0  0  0  0  0
   17.0697   -4.7891  -15.7336 O   0  0  0  0  0  0  0  0  0  0  0  0
  2  9  1  0
  2  1  1  6
  3  2  1  0
  4  8  1  0
  4  3  1  0
  5  4  2  0
  6  5  1  0
  6  7  1  0
  7  8  2  0
  9 10  2  0
 12 11  1  6
 13 12  1  0
 14 12  1  0
 15  9  1  0
 14 15  1  1
 16 17  2  0
 16 14  1  0
 18 16  1  0
 19 18  1  0
 19 20  1  6
 21 20  1  0
 22 21  1  0
 22 23  2  0
 24 19  1  0
 24 27  1  0
 25 24  2  0
 26 22  1  0
M  END
$$$$
