HTE.pdb
     RDKit          3D

 27 27  0  0  1  0  0  0  0  0999 V2000
   18.8017  -12.8165  -17.5389 N   0  0  0  0  0  0  0  0  0  0  0  0
   19.9294  -11.9165  -17.8040 C   0  0  1  0  0  0  0  0  0  0  0  0
   19.4445  -10.9403  -18.8712 C   0  0  0  0  0  0  0  0  0  0  0  0
   19.3287  -11.5913  -20.1997 C   0  0  0  0  0  0  0  0  0  0  0  0
   20.3137  -11.8659  -21.1242 C   0  0  0  0  0  0  0  0  0  0  0  0
   19.7559  -12.4623  -22.1815 N   0  0  0  0  0  0  0  0  0  0  0  0
   18.4509  -12.5642  -21.9361 C   0  0  0  0  0  0  0  0  0  0  0  0
   18.1821  -12.0352  -20.7292 N   0  0  0  0  0  0  0  0  0  0  0  0
   20.1695  -11.1093  -16.5785 C   0  0  0  0  0  0  0  0  0  0  0  0
   19.1743  -10.7637  -15.9130 O   0  0  0  0  0  0  0  0  0  0  0  0
   23.1411   -9.5630  -12.9037 C   0  0  0  0  0  0  0  0  0  0  0  0
   22.9138  -10.4234  -14.1497 C   0  0  1  0  0  0  0  0  0  0  0  0
   22.9705  -11.7648  -13.8610 O   0  0  0  0  0  0  0  0  0  0  0  0
   21.7230   -9.9885  -14.9209 C   0  0  2  0  0  0  0  0  0  0  0  0
   21.4300  -10.7092  -16.1175 N   0  0  0  0  0  0  0  0  0  0  0  0
   21.8234   -8.5197  -15.2000 C   0  0  0  0  0  0  0  0  0  0  0  0
   22.4613   -8.1308  -16.2200 O   0  0  0  0  0  0  0  0  0  0  0  0
   21.2369   -7.5338  -14.3760 N   0  0  0  0  0  0  0  0  0  0  0  0
   21.3679   -6.1084  -14.6338 C   0  0  1  0  0  0  0  0  0  0  0  0
   20.0567   -5.4917  -14.9383 C   0  0  0  0  0  0  0  0  0  0  0  0
   20.0326   -4.0198  -15.1314 C   0  0  0  0  0  0  0  0  0  0  0  0
   18.7826   -3.3481  -15.3725 C   0  0  0  0  0  0  0  0  0  0  0  0
   17.6546   -3.8528  -15.4639 O   0  0  0  0  0  0  0  0  0  0  0  0
   22.2182   -5.4907  -13.6380 C   0  0  0  0  0  0  0  0  0  0  0  0
   22.3179   -6.0195  -12.4723 O   0  0  0  0  0  0  0  0  0  0  0  0
   18.8017   -1.9363  -15.5303 O   0  0  0  0  0  0  0  0  0  0  0  0
   22.9393   -4.3302  -13.9031 O   0  0  0  0  0  0  0  0  0  0  0  0
  2  9  1  0
  2  1  1  1
  3  2  1  0
  4  8  1  0
  4  3  1  0
  5  4  2  0
  6  5  1  0
  6  7  1  0
  7  8  2  0
  9 10  2  0
 12 11  1  1
 13 12  1  0
 14 12  1  0
 15  9  1  0
 14 15  1  6
 16 17  2  0
 16 14  1  0
 18 16  1  0
 19 18  1  0
 19 20  1  1
 21 20  1  0
 22 21  1  0
 22 23  2  0
 24 19  1  0
 24 27  1  0
 25 24  2  0
 26 22  1  0
M  END
$$$$
