HTE.pdb
     RDKit          3D

 27 27  0  0  1  0  0  0  0  0999 V2000
   18.1614  -12.1385  -15.1954 N   0  0  0  0  0  0  0  0  0  0  0  0
   18.2059  -11.0551  -16.1833 C   0  0  1  0  0  0  0  0  0  0  0  0
   16.7799  -10.5232  -16.2863 C   0  0  0  0  0  0  0  0  0  0  0  0
   15.8746  -11.5006  -16.9402 C   0  0  0  0  0  0  0  0  0  0  0  0
   14.8536  -12.2456  -16.3901 C   0  0  0  0  0  0  0  0  0  0  0  0
   14.3039  -12.9951  -17.3497 N   0  0  0  0  0  0  0  0  0  0  0  0
   14.9580  -12.7338  -18.4799 C   0  0  0  0  0  0  0  0  0  0  0  0
   15.9177  -11.8231  -18.2387 N   0  0  0  0  0  0  0  0  0  0  0  0
   19.0231   -9.9503  -15.6154 C   0  0  0  0  0  0  0  0  0  0  0  0
   18.9157   -9.7238  -14.3947 O   0  0  0  0  0  0  0  0  0  0  0  0
   22.1480   -9.5171  -14.2667 C   0  0  0  0  0  0  0  0  0  0  0  0
   22.1492   -8.5676  -15.4680 C   0  0  1  0  0  0  0  0  0  0  0  0
   22.9192   -9.0489  -16.4983 O   0  0  0  0  0  0  0  0  0  0  0  0
   20.7793   -8.1389  -15.8443 C   0  0  2  0  0  0  0  0  0  0  0  0
   19.9035   -9.1462  -16.3500 N   0  0  0  0  0  0  0  0  0  0  0  0
   20.8657   -6.9865  -16.7981 C   0  0  0  0  0  0  0  0  0  0  0  0
   21.0008   -7.2206  -18.0332 O   0  0  0  0  0  0  0  0  0  0  0  0
   20.8033   -5.6365  -16.3878 N   0  0  0  0  0  0  0  0  0  0  0  0
   20.8559   -4.5234  -17.3225 C   0  0  1  0  0  0  0  0  0  0  0  0
   19.5708   -3.7889  -17.3610 C   0  0  0  0  0  0  0  0  0  0  0  0
   19.3477   -2.7652  -16.3090 C   0  0  0  0  0  0  0  0  0  0  0  0
   18.0986   -2.0521  -16.2551 C   0  0  0  0  0  0  0  0  0  0  0  0
   17.1424   -2.1350  -17.0391 O   0  0  0  0  0  0  0  0  0  0  0  0
   22.0846   -3.7770  -17.1508 C   0  0  0  0  0  0  0  0  0  0  0  0
   22.8389   -4.0198  -16.1407 O   0  0  0  0  0  0  0  0  0  0  0  0
   17.8985   -1.1332  -15.1903 O   0  0  0  0  0  0  0  0  0  0  0  0
   22.4809   -2.7938  -18.0527 O   0  0  0  0  0  0  0  0  0  0  0  0
  2  9  1  0
  2  1  1  1
  3  2  1  0
  4  8  1  0
  4  3  1  0
  5  4  2  0
  6  5  1  0
  6  7  1  0
  7  8  2  0
  9 10  2  0
 12 11  1  1
 13 12  1  0
 14 12  1  0
 15  9  1  0
 14 15  1  6
 16 17  2  0
 16 14  1  0
 18 16  1  0
 19 18  1  0
 19 20  1  1
 21 20  1  0
 22 21  1  0
 22 23  2  0
 24 19  1  0
 24 27  1  0
 25 24  2  0
 26 22  1  0
M  END
$$$$
