HTE.pdb
     RDKit          3D

 27 27  0  0  1  0  0  0  0  0999 V2000
   23.8311  -17.8615  -17.8711 N   0  0  0  0  0  0  0  0  0  0  0  0
   22.5018  -17.2851  -18.1000 C   0  0  1  0  0  0  0  0  0  0  0  0
   21.8878  -18.0885  -19.2423 C   0  0  0  0  0  0  0  0  0  0  0  0
   22.6008  -17.8560  -20.5230 C   0  0  0  0  0  0  0  0  0  0  0  0
   22.2733  -17.0108  -21.5614 C   0  0  0  0  0  0  0  0  0  0  0  0
   23.2008  -17.1244  -22.5162 N   0  0  0  0  0  0  0  0  0  0  0  0
   24.0943  -18.0182  -22.0961 C   0  0  0  0  0  0  0  0  0  0  0  0
   23.7356  -18.4693  -20.8811 N   0  0  0  0  0  0  0  0  0  0  0  0
   21.6689  -17.5629  -16.9000 C   0  0  0  0  0  0  0  0  0  0  0  0
   22.0198  -18.5029  -16.1611 O   0  0  0  0  0  0  0  0  0  0  0  0
   19.0775  -15.9391  -13.1241 C   0  0  0  0  0  0  0  0  0  0  0  0
   19.9189  -15.7612  -14.3911 C   0  0  1  0  0  0  0  0  0  0  0  0
   21.2004  -15.3618  -14.1008 O   0  0  0  0  0  0  0  0  0  0  0  0
   19.8068  -16.9244  -15.3056 C   0  0  2  0  0  0  0  0  0  0  0  0
   20.5205  -16.8470  -16.5392 N   0  0  0  0  0  0  0  0  0  0  0  0
   18.3591  -17.2236  -15.5507 C   0  0  0  0  0  0  0  0  0  0  0  0
   17.6998  -16.4732  -16.3259 O   0  0  0  0  0  0  0  0  0  0  0  0
   17.6826  -18.3116  -14.9562 N   0  0  0  0  0  0  0  0  0  0  0  0
   16.2719  -18.5838  -15.1824 C   0  0  1  0  0  0  0  0  0  0  0  0
   15.9056  -19.9462  -14.7328 C   0  0  0  0  0  0  0  0  0  0  0  0
   16.7851  -21.0596  -15.1700 C   0  0  0  0  0  0  0  0  0  0  0  0
   16.5352  -22.3976  -14.7020 C   0  0  0  0  0  0  0  0  0  0  0  0
   16.6380  -22.8290  -13.5449 O   0  0  0  0  0  0  0  0  0  0  0  0
   15.4650  -17.4625  -14.7490 C   0  0  0  0  0  0  0  0  0  0  0  0
   14.4749  -17.0768  -15.4697 O   0  0  0  0  0  0  0  0  0  0  0  0
   16.1186  -23.3706  -15.6497 O   0  0  0  0  0  0  0  0  0  0  0  0
   15.7285  -16.7799  -13.5651 O   0  0  0  0  0  0  0  0  0  0  0  0
  2  9  1  0
  2  1  1  1
  3  2  1  0
  4  8  1  0
  4  3  1  0
  5  4  2  0
  6  5  1  0
  6  7  1  0
  7  8  2  0
  9 10  2  0
 12 11  1  1
 13 12  1  0
 14 12  1  0
 15  9  1  0
 14 15  1  6
 16 17  2  0
 16 14  1  0
 18 16  1  0
 19 18  1  0
 19 20  1  1
 21 20  1  0
 22 21  1  0
 22 23  2  0
 24 19  1  0
 24 27  1  0
 25 24  2  0
 26 22  1  0
M  END
$$$$
