HTE.pdb
     RDKit          3D

 27 27  0  0  1  0  0  0  0  0999 V2000
   27.3405  -20.5631  -16.2616 N   0  0  0  0  0  0  0  0  0  0  0  0
   26.2043  -21.4112  -15.8853 C   0  0  1  0  0  0  0  0  0  0  0  0
   26.7520  -22.4269  -14.8876 C   0  0  0  0  0  0  0  0  0  0  0  0
   27.7045  -23.3677  -15.5280 C   0  0  0  0  0  0  0  0  0  0  0  0
   27.4557  -24.5781  -16.1390 C   0  0  0  0  0  0  0  0  0  0  0  0
   28.6121  -25.0838  -16.5766 N   0  0  0  0  0  0  0  0  0  0  0  0
   29.5709  -24.2181  -16.2527 C   0  0  0  0  0  0  0  0  0  0  0  0
   29.0256  -23.1685  -15.6127 N   0  0  0  0  0  0  0  0  0  0  0  0
   25.2339  -20.5709  -15.1347 C   0  0  0  0  0  0  0  0  0  0  0  0
   25.6708  -19.5450  -14.5784 O   0  0  0  0  0  0  0  0  0  0  0  0
   23.9469  -17.7719  -15.1324 C   0  0  0  0  0  0  0  0  0  0  0  0
   22.7222  -18.6696  -15.3297 C   0  0  1  0  0  0  0  0  0  0  0  0
   22.3843  -18.7877  -16.6556 O   0  0  0  0  0  0  0  0  0  0  0  0
   22.8402  -19.9488  -14.5869 C   0  0  2  0  0  0  0  0  0  0  0  0
   23.8669  -20.8470  -15.0068 N   0  0  0  0  0  0  0  0  0  0  0  0
   21.5093  -20.6373  -14.5726 C   0  0  0  0  0  0  0  0  0  0  0  0
   21.2400  -21.4721  -15.4831 O   0  0  0  0  0  0  0  0  0  0  0  0
   20.5273  -20.4021  -13.5849 N   0  0  0  0  0  0  0  0  0  0  0  0
   19.2370  -21.0732  -13.5782 C   0  0  1  0  0  0  0  0  0  0  0  0
   18.9576  -21.6939  -12.2632 C   0  0  0  0  0  0  0  0  0  0  0  0
   17.6493  -22.3777  -12.1049 C   0  0  0  0  0  0  0  0  0  0  0  0
   17.4669  -23.7072  -12.6257 C   0  0  0  0  0  0  0  0  0  0  0  0
   18.3159  -24.6033  -12.7343 O   0  0  0  0  0  0  0  0  0  0  0  0
   18.2267  -20.2318  -14.1845 C   0  0  0  0  0  0  0  0  0  0  0  0
   18.2617  -18.9622  -13.9968 O   0  0  0  0  0  0  0  0  0  0  0  0
   16.1722  -24.0756  -13.0801 O   0  0  0  0  0  0  0  0  0  0  0  0
   17.2068  -20.7573  -14.9724 O   0  0  0  0  0  0  0  0  0  0  0  0
  2  9  1  0
  2  1  1  1
  3  2  1  0
  4  8  1  0
  4  3  1  0
  5  4  2  0
  6  5  1  0
  6  7  1  0
  7  8  2  0
  9 10  2  0
 12 11  1  6
 13 12  1  0
 14 12  1  0
 15  9  1  0
 14 15  1  6
 16 17  2  0
 16 14  1  0
 18 16  1  0
 19 18  1  0
 19 20  1  1
 21 20  1  0
 22 21  1  0
 22 23  2  0
 24 19  1  0
 24 27  1  0
 25 24  2  0
 26 22  1  0
M  END
$$$$
