HTE.pdb
     RDKit          3D

 27 27  0  0  1  0  0  0  0  0999 V2000
   18.7591  -13.1089  -15.8762 N   0  0  0  0  0  0  0  0  0  0  0  0
   18.4015  -11.7033  -16.0953 C   0  0  1  0  0  0  0  0  0  0  0  0
   17.1380  -11.4598  -15.2759 C   0  0  0  0  0  0  0  0  0  0  0  0
   15.9556  -12.1239  -15.8786 C   0  0  0  0  0  0  0  0  0  0  0  0
   15.5200  -12.1085  -17.1863 C   0  0  0  0  0  0  0  0  0  0  0  0
   14.4099  -12.8459  -17.2778 N   0  0  0  0  0  0  0  0  0  0  0  0
   14.1464  -13.3178  -16.0607 C   0  0  0  0  0  0  0  0  0  0  0  0
   15.0845  -12.8820  -15.2013 N   0  0  0  0  0  0  0  0  0  0  0  0
   19.4631  -10.8597  -15.4852 C   0  0  0  0  0  0  0  0  0  0  0  0
   19.6213  -10.9367  -14.2515 O   0  0  0  0  0  0  0  0  0  0  0  0
   23.1193  -10.9151  -15.2882 C   0  0  0  0  0  0  0  0  0  0  0  0
   22.7402   -9.6051  -15.9845 C   0  0  1  0  0  0  0  0  0  0  0  0
   23.0577   -9.6267  -17.3204 O   0  0  0  0  0  0  0  0  0  0  0  0
   21.3535   -9.1831  -15.6669 C   0  0  2  0  0  0  0  0  0  0  0  0
   20.2976   -9.9861  -16.1937 N   0  0  0  0  0  0  0  0  0  0  0  0
   21.1711   -7.7480  -16.0575 C   0  0  0  0  0  0  0  0  0  0  0  0
   20.4755   -7.4728  -17.0768 O   0  0  0  0  0  0  0  0  0  0  0  0
   21.7403   -6.6727  -15.3401 N   0  0  0  0  0  0  0  0  0  0  0  0
   21.5738   -5.2830  -15.7355 C   0  0  1  0  0  0  0  0  0  0  0  0
   21.0939   -4.4538  -14.6064 C   0  0  0  0  0  0  0  0  0  0  0  0
   20.8789   -3.0095  -14.8745 C   0  0  0  0  0  0  0  0  0  0  0  0
   20.4888   -2.1311  -13.8030 C   0  0  0  0  0  0  0  0  0  0  0  0
   21.1889   -1.2967  -13.2120 O   0  0  0  0  0  0  0  0  0  0  0  0
   22.7200   -4.8334  -16.4971 C   0  0  0  0  0  0  0  0  0  0  0  0
   23.8982   -5.2100  -16.1529 O   0  0  0  0  0  0  0  0  0  0  0  0
   19.1479   -2.1979  -13.3382 O   0  0  0  0  0  0  0  0  0  0  0  0
   22.5879   -3.9974  -17.6020 O   0  0  0  0  0  0  0  0  0  0  0  0
  2  9  1  0
  2  1  1  1
  3  2  1  0
  4  8  1  0
  4  3  1  0
  5  4  2  0
  6  5  1  0
  6  7  1  0
  7  8  2  0
  9 10  2  0
 12 11  1  6
 13 12  1  0
 14 12  1  0
 15  9  1  0
 14 15  1  6
 16 17  2  0
 16 14  1  0
 18 16  1  0
 19 18  1  0
 19 20  1  1
 21 20  1  0
 22 21  1  0
 22 23  2  0
 24 19  1  0
 24 27  1  0
 25 24  2  0
 26 22  1  0
M  END
$$$$
