HTE.pdb
     RDKit          3D

 27 27  0  0  1  0  0  0  0  0999 V2000
   28.1357  -21.0379  -10.2419 N   0  0  0  0  0  0  0  0  0  0  0  0
   26.7095  -20.8646   -9.9460 C   0  0  1  0  0  0  0  0  0  0  0  0
   26.6087  -19.6033   -9.0937 C   0  0  0  0  0  0  0  0  0  0  0  0
   27.4038  -19.7183   -7.8459 C   0  0  0  0  0  0  0  0  0  0  0  0
   28.1511  -20.7804   -7.3838 C   0  0  0  0  0  0  0  0  0  0  0  0
   28.6993  -20.4426   -6.2133 N   0  0  0  0  0  0  0  0  0  0  0  0
   28.3110  -19.1987   -5.9383 C   0  0  0  0  0  0  0  0  0  0  0  0
   27.5205  -18.7496   -6.9293 N   0  0  0  0  0  0  0  0  0  0  0  0
   26.0098  -20.5621  -11.2227 C   0  0  0  0  0  0  0  0  0  0  0  0
   26.5483  -19.7452  -11.9944 O   0  0  0  0  0  0  0  0  0  0  0  0
   25.7861  -22.2988  -14.2369 C   0  0  0  0  0  0  0  0  0  0  0  0
   24.3173  -22.0848  -13.8604 C   0  0  1  0  0  0  0  0  0  0  0  0
   23.6983  -23.2650  -13.5286 O   0  0  0  0  0  0  0  0  0  0  0  0
   24.1446  -20.9798  -12.8851 C   0  0  2  0  0  0  0  0  0  0  0  0
   24.7919  -21.1267  -11.6215 N   0  0  0  0  0  0  0  0  0  0  0  0
   22.6829  -20.7058  -12.7014 C   0  0  0  0  0  0  0  0  0  0  0  0
   22.1067  -21.1231  -11.6562 O   0  0  0  0  0  0  0  0  0  0  0  0
   21.9042  -19.9978  -13.6433 N   0  0  0  0  0  0  0  0  0  0  0  0
   20.4628  -19.8459  -13.5222 C   0  0  1  0  0  0  0  0  0  0  0  0
   19.9476  -18.8178  -14.4550 C   0  0  0  0  0  0  0  0  0  0  0  0
   19.8389  -19.1994  -15.8857 C   0  0  0  0  0  0  0  0  0  0  0  0
   19.3504  -18.2464  -16.8474 C   0  0  0  0  0  0  0  0  0  0  0  0
   18.9783  -17.0824  -16.6415 O   0  0  0  0  0  0  0  0  0  0  0  0
   19.8195  -21.1424  -13.4839 C   0  0  0  0  0  0  0  0  0  0  0  0
   18.7052  -21.2800  -12.8613 O   0  0  0  0  0  0  0  0  0  0  0  0
   19.2698  -18.6499  -18.2072 O   0  0  0  0  0  0  0  0  0  0  0  0
   20.3735  -22.2579  -14.1053 O   0  0  0  0  0  0  0  0  0  0  0  0
  2  9  1  0
  2  1  1  6
  3  2  1  0
  4  8  1  0
  4  3  1  0
  5  4  2  0
  6  5  1  0
  6  7  1  0
  7  8  2  0
  9 10  2  0
 12 11  1  1
 13 12  1  0
 14 12  1  0
 15  9  1  0
 14 15  1  1
 16 17  2  0
 16 14  1  0
 18 16  1  0
 19 18  1  0
 19 20  1  6
 21 20  1  0
 22 21  1  0
 22 23  2  0
 24 19  1  0
 24 27  1  0
 25 24  2  0
 26 22  1  0
M  END
$$$$
