GLA.pdb
     RDKit          3D

 18 17  0  0  1  0  0  0  0  0999 V2000
   20.7173  -13.0466  -18.6332 N   0  0  0  0  0  0  0  0  0  0  0  0
   21.0547  -11.6568  -18.8197 C   0  0  0  0  0  0  0  0  0  0  0  0
   21.9195  -11.2170  -17.7215 C   0  0  0  0  0  0  0  0  0  0  0  0
   21.5214  -11.3069  -16.5462 O   0  0  0  0  0  0  0  0  0  0  0  0
   27.7004   -9.7760  -16.5477 C   0  0  0  0  0  0  0  0  0  0  0  0
   26.4019  -10.2779  -15.8885 C   0  0  2  0  0  0  0  0  0  0  0  0
   26.7741  -11.4565  -15.0522 C   0  0  0  0  0  0  0  0  0  0  0  0
   25.4744  -10.5905  -17.0102 C   0  0  0  0  0  0  0  0  0  0  0  0
   24.0359  -10.2852  -16.7807 C   0  0  2  0  0  0  0  0  0  0  0  0
   23.2223  -10.6776  -17.9077 N   0  0  0  0  0  0  0  0  0  0  0  0
   23.8121   -8.8443  -16.4437 C   0  0  0  0  0  0  0  0  0  0  0  0
   24.2680   -8.3210  -15.3982 O   0  0  0  0  0  0  0  0  0  0  0  0
   22.6002   -5.7908  -18.1670 C   0  0  0  0  0  0  0  0  0  0  0  0
   22.7596   -6.6675  -16.9235 C   0  0  2  0  0  0  0  0  0  0  0  0
   23.0667   -8.0254  -17.3146 N   0  0  0  0  0  0  0  0  0  0  0  0
   21.5298   -6.5877  -16.1093 C   0  0  0  0  0  0  0  0  0  0  0  0
   20.7344   -7.6843  -15.8284 O   0  0  0  0  0  0  0  0  0  0  0  0
   21.1832   -5.4737  -15.6464 O   0  0  0  0  0  0  0  0  0  0  0  0
  1  2  1  0
  2  3  1  0
  3  4  2  0
  3 10  1  0
  6  5  1  6
  7  6  1  0
  8  6  1  0
  9  8  1  6
 10  9  1  0
 11  9  1  0
 11 15  1  0
 12 11  2  0
 14 13  1  6
 14 15  1  0
 14 16  1  0
 16 17  1  0
 18 16  2  0
M  END
$$$$
