GLA.pdb
     RDKit          3D

 18 17  0  0  1  0  0  0  0  0999 V2000
   19.4604  -13.4525  -19.7906 N   0  0  0  0  0  0  0  0  0  0  0  0
   20.4229  -12.3879  -19.9340 C   0  0  0  0  0  0  0  0  0  0  0  0
   20.9357  -12.0176  -18.6122 C   0  0  0  0  0  0  0  0  0  0  0  0
   20.1814  -12.0539  -17.6234 O   0  0  0  0  0  0  0  0  0  0  0  0
   26.0436  -11.4504  -15.3519 C   0  0  0  0  0  0  0  0  0  0  0  0
   24.5512  -11.0715  -15.3910 C   0  0  2  0  0  0  0  0  0  0  0  0
   23.8954  -11.7975  -14.2641 C   0  0  0  0  0  0  0  0  0  0  0  0
   24.0684  -11.4714  -16.7414 C   0  0  0  0  0  0  0  0  0  0  0  0
   22.6743  -11.0801  -17.0856 C   0  0  2  0  0  0  0  0  0  0  0  0
   22.2756  -11.6068  -18.3699 N   0  0  0  0  0  0  0  0  0  0  0  0
   22.4768   -9.5973  -17.0381 C   0  0  0  0  0  0  0  0  0  0  0  0
   23.0865   -8.8141  -17.8058 O   0  0  0  0  0  0  0  0  0  0  0  0
   20.0626   -7.2236  -16.6981 C   0  0  0  0  0  0  0  0  0  0  0  0
   21.4040   -7.6016  -16.0672 C   0  0  2  0  0  0  0  0  0  0  0  0
   21.5802   -9.0363  -16.1074 N   0  0  0  0  0  0  0  0  0  0  0  0
   21.4615   -7.0725  -14.6893 C   0  0  0  0  0  0  0  0  0  0  0  0
   21.5250   -7.8816  -13.5689 O   0  0  0  0  0  0  0  0  0  0  0  0
   21.4527   -5.8290  -14.5191 O   0  0  0  0  0  0  0  0  0  0  0  0
  1  2  1  0
  2  3  1  0
  3  4  2  0
  3 10  1  0
  6  5  1  6
  7  6  1  0
  8  6  1  0
  9  8  1  6
 10  9  1  0
 11  9  1  0
 11 15  1  0
 12 11  2  0
 14 13  1  1
 14 15  1  0
 14 16  1  0
 16 17  1  0
 18 16  2  0
M  END
$$$$
