GLA.pdb
     RDKit          3D

 18 17  0  0  1  0  0  0  0  0999 V2000
   17.6301  -23.3893   -9.2251 N   0  0  0  0  0  0  0  0  0  0  0  0
   18.9908  -23.8250   -9.4222 C   0  0  0  0  0  0  0  0  0  0  0  0
   19.8051  -22.6871   -9.8577 C   0  0  0  0  0  0  0  0  0  0  0  0
   19.2536  -21.6219  -10.1881 O   0  0  0  0  0  0  0  0  0  0  0  0
   25.6941  -20.9264  -10.2289 C   0  0  0  0  0  0  0  0  0  0  0  0
   24.2462  -20.5137  -10.5541 C   0  0  2  0  0  0  0  0  0  0  0  0
   24.0141  -19.2010   -9.8834 C   0  0  0  0  0  0  0  0  0  0  0  0
   23.3879  -21.6204  -10.0491 C   0  0  0  0  0  0  0  0  0  0  0  0
   21.9642  -21.6007  -10.4825 C   0  0  2  0  0  0  0  0  0  0  0  0
   21.2252  -22.7130   -9.9325 N   0  0  0  0  0  0  0  0  0  0  0  0
   21.8289  -21.5615  -11.9725 C   0  0  0  0  0  0  0  0  0  0  0  0
   21.9767  -22.5823  -12.6870 O   0  0  0  0  0  0  0  0  0  0  0  0
   20.5986  -19.0848  -14.4865 C   0  0  0  0  0  0  0  0  0  0  0  0
   21.3839  -20.3261  -14.0587 C   0  0  2  0  0  0  0  0  0  0  0  0
   21.5252  -20.3475  -12.6197 N   0  0  0  0  0  0  0  0  0  0  0  0
   22.6911  -20.3374  -14.7462 C   0  0  0  0  0  0  0  0  0  0  0  0
   22.8595  -20.7772  -16.0471 O   0  0  0  0  0  0  0  0  0  0  0  0
   23.7032  -19.9293  -14.1260 O   0  0  0  0  0  0  0  0  0  0  0  0
  1  2  1  0
  2  3  1  0
  3  4  2  0
  3 10  1  0
  6  5  1  1
  7  6  1  0
  8  6  1  0
  9  8  1  6
 10  9  1  0
 11  9  1  0
 11 15  1  0
 12 11  2  0
 14 13  1  1
 14 15  1  0
 14 16  1  0
 16 17  1  0
 18 16  2  0
M  END
$$$$
