GLA.pdb
     RDKit          3D

 18 17  0  0  1  0  0  0  0  0999 V2000
   18.7662  -11.1002  -18.8810 N   0  0  0  0  0  0  0  0  0  0  0  0
   20.1800  -11.2399  -19.1295 C   0  0  0  0  0  0  0  0  0  0  0  0
   20.9277  -10.6762  -18.0023 C   0  0  0  0  0  0  0  0  0  0  0  0
   20.3864  -10.5817  -16.8860 O   0  0  0  0  0  0  0  0  0  0  0  0
   25.3372   -8.7763  -15.3394 C   0  0  0  0  0  0  0  0  0  0  0  0
   25.0797  -10.2760  -15.5787 C   0  0  2  0  0  0  0  0  0  0  0  0
   26.4125  -10.9471  -15.5632 C   0  0  0  0  0  0  0  0  0  0  0  0
   24.3661  -10.3601  -16.8826 C   0  0  0  0  0  0  0  0  0  0  0  0
   22.9939   -9.7850  -16.9213 C   0  0  2  0  0  0  0  0  0  0  0  0
   22.2698  -10.2147  -18.0946 N   0  0  0  0  0  0  0  0  0  0  0  0
   23.0056   -8.2915  -16.8250 C   0  0  0  0  0  0  0  0  0  0  0  0
   23.6845   -7.5744  -17.5992 O   0  0  0  0  0  0  0  0  0  0  0  0
   20.7758   -5.7265  -16.2001 C   0  0  0  0  0  0  0  0  0  0  0  0
   22.1795   -6.1991  -15.8171 C   0  0  2  0  0  0  0  0  0  0  0  0
   22.2356   -7.6439  -15.8389 N   0  0  0  0  0  0  0  0  0  0  0  0
   22.5355   -5.6484  -14.4936 C   0  0  0  0  0  0  0  0  0  0  0  0
   22.8526   -4.3177  -14.2867 O   0  0  0  0  0  0  0  0  0  0  0  0
   22.5534   -6.4197  -13.5036 O   0  0  0  0  0  0  0  0  0  0  0  0
  1  2  1  0
  2  3  1  0
  3  4  2  0
  3 10  1  0
  6  5  1  6
  7  6  1  0
  8  6  1  0
  9  8  1  6
 10  9  1  0
 11  9  1  0
 11 15  1  0
 12 11  2  0
 14 13  1  1
 14 15  1  0
 14 16  1  0
 16 17  1  0
 18 16  2  0
M  END
$$$$
