GLA.pdb
     RDKit          3D

 18 17  0  0  1  0  0  0  0  0999 V2000
   28.5190  -20.7928  -15.4629 N   0  0  0  0  0  0  0  0  0  0  0  0
   27.7181  -19.8562  -14.7135 C   0  0  0  0  0  0  0  0  0  0  0  0
   26.6475  -20.5793  -14.0220 C   0  0  0  0  0  0  0  0  0  0  0  0
   26.2975  -21.7024  -14.4270 O   0  0  0  0  0  0  0  0  0  0  0  0
   26.5176  -22.0789  -10.0153 C   0  0  0  0  0  0  0  0  0  0  0  0
   26.1037  -20.5953  -10.0318 C   0  0  2  0  0  0  0  0  0  0  0  0
   25.9903  -20.1665   -8.6069 C   0  0  0  0  0  0  0  0  0  0  0  0
   24.8246  -20.5416  -10.7919 C   0  0  0  0  0  0  0  0  0  0  0  0
   24.9102  -20.8376  -12.2479 C   0  0  2  0  0  0  0  0  0  0  0  0
   25.9576  -20.0744  -12.8853 N   0  0  0  0  0  0  0  0  0  0  0  0
   23.6027  -20.6247  -12.9443 C   0  0  0  0  0  0  0  0  0  0  0  0
   23.1789  -19.4816  -13.2416 O   0  0  0  0  0  0  0  0  0  0  0  0
   21.1043  -22.7326  -14.7228 C   0  0  0  0  0  0  0  0  0  0  0  0
   21.5092  -21.5079  -13.9003 C   0  0  2  0  0  0  0  0  0  0  0  0
   22.8007  -21.7305  -13.2890 N   0  0  0  0  0  0  0  0  0  0  0  0
   20.4612  -21.2247  -12.8987 C   0  0  0  0  0  0  0  0  0  0  0  0
   19.2027  -20.7556  -13.2305 O   0  0  0  0  0  0  0  0  0  0  0  0
   20.7179  -21.4168  -11.6852 O   0  0  0  0  0  0  0  0  0  0  0  0
  1  2  1  0
  2  3  1  0
  3  4  2  0
  3 10  1  0
  6  5  1  1
  7  6  1  0
  8  6  1  0
  9  8  1  1
 10  9  1  0
 11  9  1  0
 11 15  1  0
 12 11  2  0
 14 13  1  1
 14 15  1  0
 14 16  1  0
 16 17  1  0
 18 16  2  0
M  END
$$$$
