GLA.pdb
     RDKit          3D

 18 17  0  0  1  0  0  0  0  0999 V2000
   17.4968  -10.5475  -15.9780 N   0  0  0  0  0  0  0  0  0  0  0  0
   16.7795   -9.3958  -15.4887 C   0  0  0  0  0  0  0  0  0  0  0  0
   17.1684   -9.1375  -14.0997 C   0  0  0  0  0  0  0  0  0  0  0  0
   16.8727   -9.9570  -13.2116 O   0  0  0  0  0  0  0  0  0  0  0  0
   21.0249   -9.0396  -12.3165 C   0  0  0  0  0  0  0  0  0  0  0  0
   20.7047   -7.6838  -12.9737 C   0  0  2  0  0  0  0  0  0  0  0  0
   21.9611   -6.8798  -12.9308 C   0  0  0  0  0  0  0  0  0  0  0  0
   19.5811   -7.1081  -12.1846 C   0  0  0  0  0  0  0  0  0  0  0  0
   18.2703   -7.8033  -12.3002 C   0  0  2  0  0  0  0  0  0  0  0  0
   17.8821   -7.9810  -13.6799 N   0  0  0  0  0  0  0  0  0  0  0  0
   17.1917   -7.1041  -11.5336 C   0  0  0  0  0  0  0  0  0  0  0  0
   16.6473   -6.0524  -11.9486 O   0  0  0  0  0  0  0  0  0  0  0  0
   15.0563   -7.8809   -8.5710 C   0  0  0  0  0  0  0  0  0  0  0  0
   15.7312   -6.9244   -9.5559 C   0  0  2  0  0  0  0  0  0  0  0  0
   16.7545   -7.6250  -10.2998 N   0  0  0  0  0  0  0  0  0  0  0  0
   16.2749   -5.7668   -8.8169 C   0  0  0  0  0  0  0  0  0  0  0  0
   15.4813   -4.7637   -8.2896 O   0  0  0  0  0  0  0  0  0  0  0  0
   17.5167   -5.6824   -8.6557 O   0  0  0  0  0  0  0  0  0  0  0  0
  1  2  1  0
  2  3  1  0
  3  4  2  0
  3 10  1  0
  6  5  1  1
  7  6  1  0
  8  6  1  0
  9  8  1  6
 10  9  1  0
 11  9  1  0
 11 15  1  0
 12 11  2  0
 14 13  1  1
 14 15  1  0
 14 16  1  0
 16 17  1  0
 18 16  2  0
M  END
$$$$
