GLA.pdb
     RDKit          3D

 18 17  0  0  1  0  0  0  0  0999 V2000
   22.9106  -13.3294  -19.4765 N   0  0  0  0  0  0  0  0  0  0  0  0
   22.6590  -11.9440  -19.7887 C   0  0  0  0  0  0  0  0  0  0  0  0
   22.6592  -11.1609  -18.5501 C   0  0  0  0  0  0  0  0  0  0  0  0
   21.8880  -11.4684  -17.6235 O   0  0  0  0  0  0  0  0  0  0  0  0
   24.6590  -10.5762  -14.6791 C   0  0  0  0  0  0  0  0  0  0  0  0
   25.4072  -10.1739  -15.9640 C   0  0  2  0  0  0  0  0  0  0  0  0
   26.8238   -9.9163  -15.5718 C   0  0  0  0  0  0  0  0  0  0  0  0
   24.6904   -8.9804  -16.4916 C   0  0  0  0  0  0  0  0  0  0  0  0
   23.3710   -9.2336  -17.1320 C   0  0  2  0  0  0  0  0  0  0  0  0
   23.5037  -10.0392  -18.3233 N   0  0  0  0  0  0  0  0  0  0  0  0
   22.6368   -7.9643  -17.4314 C   0  0  0  0  0  0  0  0  0  0  0  0
   23.0120   -7.1666  -18.3243 O   0  0  0  0  0  0  0  0  0  0  0  0
   19.3581   -6.6932  -17.4432 C   0  0  0  0  0  0  0  0  0  0  0  0
   20.7882   -6.3947  -16.9892 C   0  0  2  0  0  0  0  0  0  0  0  0
   21.4806   -7.6306  -16.6989 N   0  0  0  0  0  0  0  0  0  0  0  0
   20.7508   -5.4906  -15.8218 C   0  0  0  0  0  0  0  0  0  0  0  0
   20.3772   -4.1610  -15.9045 O   0  0  0  0  0  0  0  0  0  0  0  0
   21.0723   -5.9438  -14.6964 O   0  0  0  0  0  0  0  0  0  0  0  0
  1  2  1  0
  2  3  1  0
  3  4  2  0
  3 10  1  0
  6  5  1  1
  7  6  1  0
  8  6  1  0
  9  8  1  6
 10  9  1  0
 11  9  1  0
 11 15  1  0
 12 11  2  0
 14 13  1  1
 14 15  1  0
 14 16  1  0
 16 17  1  0
 18 16  2  0
M  END
$$$$
