GLA.pdb
     RDKit          3D

 18 17  0  0  1  0  0  0  0  0999 V2000
   22.8308  -14.1619  -18.5998 N   0  0  0  0  0  0  0  0  0  0  0  0
   22.2114  -12.9321  -19.0292 C   0  0  0  0  0  0  0  0  0  0  0  0
   22.4169  -11.9036  -18.0058 C   0  0  0  0  0  0  0  0  0  0  0  0
   21.7407  -11.9256  -16.9617 O   0  0  0  0  0  0  0  0  0  0  0  0
   25.5866  -11.0698  -15.1897 C   0  0  0  0  0  0  0  0  0  0  0  0
   25.9388  -10.5939  -16.6117 C   0  0  2  0  0  0  0  0  0  0  0  0
   27.3687  -10.1679  -16.5788 C   0  0  0  0  0  0  0  0  0  0  0  0
   24.9795   -9.4979  -16.9198 C   0  0  0  0  0  0  0  0  0  0  0  0
   23.5510   -9.8917  -17.0579 C   0  0  2  0  0  0  0  0  0  0  0  0
   23.3634  -10.8485  -18.1233 N   0  0  0  0  0  0  0  0  0  0  0  0
   22.6554   -8.7076  -17.2472 C   0  0  0  0  0  0  0  0  0  0  0  0
   22.6866   -8.0016  -18.2841 O   0  0  0  0  0  0  0  0  0  0  0  0
   19.4470   -7.6132  -15.8522 C   0  0  0  0  0  0  0  0  0  0  0  0
   20.8004   -7.2765  -16.4809 C   0  0  2  0  0  0  0  0  0  0  0  0
   21.7363   -8.3524  -16.2404 N   0  0  0  0  0  0  0  0  0  0  0  0
   21.2823   -5.9889  -15.9411 C   0  0  0  0  0  0  0  0  0  0  0  0
   20.6674   -4.7782  -16.2060 O   0  0  0  0  0  0  0  0  0  0  0  0
   22.2991   -5.9853  -15.2051 O   0  0  0  0  0  0  0  0  0  0  0  0
  1  2  1  0
  2  3  1  0
  3  4  2  0
  3 10  1  0
  6  5  1  1
  7  6  1  0
  8  6  1  0
  9  8  1  6
 10  9  1  0
 11  9  1  0
 11 15  1  0
 12 11  2  0
 14 13  1  1
 14 15  1  0
 14 16  1  0
 16 17  1  0
 18 16  2  0
M  END
$$$$
