QDC.pdb
     RDKit          3D

 24 23  0  0  1  0  0  0  0  0999 V2000
   15.7845  -24.8612   -2.1771 N   0  0  0  0  0  0  0  0  0  0  0  0
   15.0115  -24.2824   -3.2090 C   0  0  0  0  0  0  0  0  0  0  0  0
   14.5534  -25.0144   -4.1039 O   0  0  0  0  0  0  0  0  0  0  0  0
   14.7557  -22.8318   -3.2198 C   0  0  0  0  0  0  0  0  0  0  0  0
   15.2291  -22.1422   -1.9817 C   0  0  0  0  0  0  0  0  0  0  0  0
   14.6097  -22.5950   -0.7033 C   0  0  2  0  0  0  0  0  0  0  0  0
   13.2998  -21.8972   -0.6427 N   0  0  0  0  0  0  0  0  0  0  0  0
   15.3803  -22.0790    0.4634 C   0  0  0  0  0  0  0  0  0  0  0  0
   16.6068  -22.3766    0.6340 O   0  0  0  0  0  0  0  0  0  0  0  0
   14.8355  -21.2287    1.4660 N   0  0  0  0  0  0  0  0  0  0  0  0
   15.6090  -20.6875    2.5384 C   0  0  1  0  0  0  0  0  0  0  0  0
   15.0243  -19.4511    3.1447 C   0  0  0  0  0  0  0  0  0  0  0  0
   15.9526  -18.6030    3.8606 C   0  0  0  0  0  0  0  0  0  0  0  0
   15.5882  -17.4934    4.2936 O   0  0  0  0  0  0  0  0  0  0  0  0
   15.9520  -21.7166    3.5694 C   0  0  0  0  0  0  0  0  0  0  0  0
   15.0772  -22.4563    4.0920 O   0  0  0  0  0  0  0  0  0  0  0  0
   17.2527  -18.9857    4.0857 O   0  0  0  0  0  0  0  0  0  0  0  0
   17.2875  -21.9130    4.0136 N   0  0  0  0  0  0  0  0  0  0  0  0
   17.6677  -22.8592    5.0199 C   0  0  1  0  0  0  0  0  0  0  0  0
   18.9655  -23.5445    4.7508 C   0  0  0  0  0  0  0  0  0  0  0  0
   18.8630  -24.3705    3.1465 S   0  0  0  0  0  0  0  0  0  0  0  0
   17.6987  -22.2723    6.3796 C   0  0  0  0  0  0  0  0  0  0  0  0
   17.5408  -20.9075    6.5464 O   0  0  0  0  0  0  0  0  0  0  0  0
   17.8655  -22.9892    7.3832 O   0  0  0  0  0  0  0  0  0  0  0  0
  1  2  1  0
  2  4  1  0
  3  2  2  0
  4  5  1  0
  6  5  1  0
  6  7  1  1
  8  6  1  0
  8  9  2  0
 10  8  1  0
 11 10  1  0
 11 15  1  0
 11 12  1  1
 13 12  1  0
 13 17  1  0
 14 13  2  0
 15 16  2  0
 15 18  1  0
 18 19  1  0
 19 20  1  6
 21 20  1  0
 22 23  1  0
 22 19  1  0
 24 22  2  0
M  END
$$$$
