QDC.pdb
     RDKit          3D

 24 23  0  0  1  0  0  0  0  0999 V2000
   28.9088  -18.6469  -16.8618 N   0  0  0  0  0  0  0  0  0  0  0  0
   27.5899  -19.1238  -17.0364 C   0  0  0  0  0  0  0  0  0  0  0  0
   27.2014  -19.4206  -18.1799 O   0  0  0  0  0  0  0  0  0  0  0  0
   26.6924  -19.2646  -15.8771 C   0  0  0  0  0  0  0  0  0  0  0  0
   27.3374  -18.8832  -14.5844 C   0  0  0  0  0  0  0  0  0  0  0  0
   27.6369  -20.0035  -13.6473 C   0  0  2  0  0  0  0  0  0  0  0  0
   26.9161  -21.1755  -14.2068 N   0  0  0  0  0  0  0  0  0  0  0  0
   27.0079  -19.7572  -12.3188 C   0  0  0  0  0  0  0  0  0  0  0  0
   27.2013  -18.6707  -11.6830 O   0  0  0  0  0  0  0  0  0  0  0  0
   26.1556  -20.6839  -11.6557 N   0  0  0  0  0  0  0  0  0  0  0  0
   25.6079  -20.4527  -10.3566 C   0  0  1  0  0  0  0  0  0  0  0  0
   24.3419  -21.2037  -10.0892 C   0  0  0  0  0  0  0  0  0  0  0  0
   23.1571  -20.6904  -10.7421 C   0  0  0  0  0  0  0  0  0  0  0  0
   23.1993  -19.6171  -11.3726 O   0  0  0  0  0  0  0  0  0  0  0  0
   26.6194  -20.6418   -9.2699 C   0  0  0  0  0  0  0  0  0  0  0  0
   27.5573  -21.4762   -9.3681 O   0  0  0  0  0  0  0  0  0  0  0  0
   21.9584  -21.3595  -10.6910 O   0  0  0  0  0  0  0  0  0  0  0  0
   26.5735  -19.8870   -8.0669 N   0  0  0  0  0  0  0  0  0  0  0  0
   27.5106  -20.0309   -6.9928 C   0  0  1  0  0  0  0  0  0  0  0  0
   28.3428  -18.8174   -6.7453 C   0  0  0  0  0  0  0  0  0  0  0  0
   29.2707  -19.0538   -5.2124 S   0  0  0  0  0  0  0  0  0  0  0  0
   26.8720  -20.4515   -5.7242 C   0  0  0  0  0  0  0  0  0  0  0  0
   27.6468  -20.6565   -4.5959 O   0  0  0  0  0  0  0  0  0  0  0  0
   25.6417  -20.6255   -5.6531 O   0  0  0  0  0  0  0  0  0  0  0  0
  1  2  1  0
  2  4  1  0
  3  2  2  0
  4  5  1  0
  6  5  1  0
  6  7  1  6
  8  6  1  0
  8  9  2  0
 10  8  1  0
 11 10  1  0
 11 15  1  0
 11 12  1  1
 13 12  1  0
 13 17  1  0
 14 13  2  0
 15 16  2  0
 15 18  1  0
 18 19  1  0
 19 20  1  1
 21 20  1  0
 22 23  1  0
 22 19  1  0
 24 22  2  0
M  END
$$$$
