QDC.pdb
     RDKit          3D

 24 23  0  0  1  0  0  0  0  0999 V2000
   13.1205  -12.5837   -9.7324 N   0  0  0  0  0  0  0  0  0  0  0  0
   12.9349  -13.0565  -11.0513 C   0  0  0  0  0  0  0  0  0  0  0  0
   12.1633  -14.0120  -11.2475 O   0  0  0  0  0  0  0  0  0  0  0  0
   13.6481  -12.4232  -12.1737 C   0  0  0  0  0  0  0  0  0  0  0  0
   14.5201  -11.2865  -11.7497 C   0  0  0  0  0  0  0  0  0  0  0  0
   15.2665  -10.5932  -12.8384 C   0  0  2  0  0  0  0  0  0  0  0  0
   16.2997  -11.5667  -13.2760 N   0  0  0  0  0  0  0  0  0  0  0  0
   16.0291   -9.4340  -12.2945 C   0  0  0  0  0  0  0  0  0  0  0  0
   16.1303   -9.2343  -11.0408 O   0  0  0  0  0  0  0  0  0  0  0  0
   16.6980   -8.4705  -13.1003 N   0  0  0  0  0  0  0  0  0  0  0  0
   17.4353   -7.3732  -12.5585 C   0  0  1  0  0  0  0  0  0  0  0  0
   18.3923   -6.7491  -13.5245 C   0  0  0  0  0  0  0  0  0  0  0  0
   19.5652   -7.5343  -13.8427 C   0  0  0  0  0  0  0  0  0  0  0  0
   19.4477   -8.6812  -14.3142 O   0  0  0  0  0  0  0  0  0  0  0  0
   16.5500   -6.3600  -11.9033 C   0  0  0  0  0  0  0  0  0  0  0  0
   15.5042   -5.9291  -12.4566 O   0  0  0  0  0  0  0  0  0  0  0  0
   20.8344   -7.0496  -13.6391 O   0  0  0  0  0  0  0  0  0  0  0  0
   16.8448   -5.8299  -10.6182 N   0  0  0  0  0  0  0  0  0  0  0  0
   16.0939   -4.7842   -9.9898 C   0  0  1  0  0  0  0  0  0  0  0  0
   16.3010   -4.6886   -8.5153 C   0  0  0  0  0  0  0  0  0  0  0  0
   15.9387   -6.2965   -7.7737 S   0  0  0  0  0  0  0  0  0  0  0  0
   16.3313   -3.4567  -10.6028 C   0  0  0  0  0  0  0  0  0  0  0  0
   15.5672   -2.3702  -10.2144 O   0  0  0  0  0  0  0  0  0  0  0  0
   17.2123   -3.2987  -11.4677 O   0  0  0  0  0  0  0  0  0  0  0  0
  1  2  1  0
  2  4  1  0
  3  2  2  0
  4  5  1  0
  6  5  1  0
  6  7  1  1
  8  6  1  0
  8  9  2  0
 10  8  1  0
 11 10  1  0
 11 15  1  0
 11 12  1  6
 13 12  1  0
 13 17  1  0
 14 13  2  0
 15 16  2  0
 15 18  1  0
 18 19  1  0
 19 20  1  1
 21 20  1  0
 22 23  1  0
 22 19  1  0
 24 22  2  0
M  END
$$$$
