QDC.pdb
     RDKit          3D

 24 23  0  0  1  0  0  0  0  0999 V2000
   22.9539  -12.0074  -18.6302 N   0  0  0  0  0  0  0  0  0  0  0  0
   22.4270  -13.2127  -19.1469 C   0  0  0  0  0  0  0  0  0  0  0  0
   23.2073  -14.1328  -19.4486 O   0  0  0  0  0  0  0  0  0  0  0  0
   20.9733  -13.3711  -19.3241 C   0  0  0  0  0  0  0  0  0  0  0  0
   20.1975  -12.1554  -18.9334 C   0  0  0  0  0  0  0  0  0  0  0  0
   19.8334  -12.0472  -17.4916 C   0  0  2  0  0  0  0  0  0  0  0  0
   18.8508  -13.1371  -17.2607 N   0  0  0  0  0  0  0  0  0  0  0  0
   19.0831  -10.7855  -17.2343 C   0  0  0  0  0  0  0  0  0  0  0  0
   18.0250  -10.4975  -17.8819 O   0  0  0  0  0  0  0  0  0  0  0  0
   19.4653   -9.8131  -16.2682 N   0  0  0  0  0  0  0  0  0  0  0  0
   18.7301   -8.6105  -16.0347 C   0  0  1  0  0  0  0  0  0  0  0  0
   17.2825   -8.8337  -15.7297 C   0  0  0  0  0  0  0  0  0  0  0  0
   16.5215   -7.6499  -15.3936 C   0  0  0  0  0  0  0  0  0  0  0  0
   16.6886   -6.5913  -16.0282 O   0  0  0  0  0  0  0  0  0  0  0  0
   19.3918   -7.7249  -15.0260 C   0  0  0  0  0  0  0  0  0  0  0  0
   19.6908   -8.1328  -13.8728 O   0  0  0  0  0  0  0  0  0  0  0  0
   15.5991   -7.6506  -14.3756 O   0  0  0  0  0  0  0  0  0  0  0  0
   19.7182   -6.3732  -15.3183 N   0  0  0  0  0  0  0  0  0  0  0  0
   20.6052   -5.5726  -14.5280 C   0  0  1  0  0  0  0  0  0  0  0  0
   22.0489   -5.7631  -14.8532 C   0  0  0  0  0  0  0  0  0  0  0  0
   23.0346   -4.7406  -13.7354 S   0  0  0  0  0  0  0  0  0  0  0  0
   20.2795   -4.1286  -14.5817 C   0  0  0  0  0  0  0  0  0  0  0  0
   20.4952   -3.3303  -13.4719 O   0  0  0  0  0  0  0  0  0  0  0  0
   19.8117   -3.6153  -15.6145 O   0  0  0  0  0  0  0  0  0  0  0  0
  1  2  1  0
  2  4  1  0
  3  2  2  0
  4  5  1  0
  6  5  1  0
  6  7  1  6
  8  6  1  0
  8  9  2  0
 10  8  1  0
 11 10  1  0
 11 15  1  0
 11 12  1  1
 13 12  1  0
 13 17  1  0
 14 13  2  0
 15 16  2  0
 15 18  1  0
 18 19  1  0
 19 20  1  6
 21 20  1  0
 22 23  1  0
 22 19  1  0
 24 22  2  0
M  END
$$$$
