QDC.pdb
     RDKit          3D

 24 23  0  0  1  0  0  0  0  0999 V2000
   22.4027  -13.3124  -19.9809 N   0  0  0  0  0  0  0  0  0  0  0  0
   21.6536  -14.3726  -19.4222 C   0  0  0  0  0  0  0  0  0  0  0  0
   21.9344  -15.5423  -19.7374 O   0  0  0  0  0  0  0  0  0  0  0  0
   20.5565  -14.0902  -18.4808 C   0  0  0  0  0  0  0  0  0  0  0  0
   20.3674  -12.6313  -18.2189 C   0  0  0  0  0  0  0  0  0  0  0  0
   20.2115  -12.2383  -16.7891 C   0  0  2  0  0  0  0  0  0  0  0  0
   19.1418  -13.1237  -16.2618 N   0  0  0  0  0  0  0  0  0  0  0  0
   19.6617  -10.8572  -16.6828 C   0  0  0  0  0  0  0  0  0  0  0  0
   18.5172  -10.5591  -17.1554 O   0  0  0  0  0  0  0  0  0  0  0  0
   20.3420   -9.7736  -16.0599 N   0  0  0  0  0  0  0  0  0  0  0  0
   19.7937   -8.4579  -15.9613 C   0  0  1  0  0  0  0  0  0  0  0  0
   18.3638   -8.4278  -15.5223 C   0  0  0  0  0  0  0  0  0  0  0  0
   17.7980   -7.1124  -15.3147 C   0  0  0  0  0  0  0  0  0  0  0  0
   17.7847   -6.2783  -16.2396 O   0  0  0  0  0  0  0  0  0  0  0  0
   20.6550   -7.5410  -15.1507 C   0  0  0  0  0  0  0  0  0  0  0  0
   20.8381   -7.7134  -13.9168 O   0  0  0  0  0  0  0  0  0  0  0  0
   17.2620   -6.7406  -14.1057 O   0  0  0  0  0  0  0  0  0  0  0  0
   21.3130   -6.4245  -15.7334 N   0  0  0  0  0  0  0  0  0  0  0  0
   22.1849   -5.5425  -15.0162 C   0  0  1  0  0  0  0  0  0  0  0  0
   23.0775   -4.7267  -15.8901 C   0  0  0  0  0  0  0  0  0  0  0  0
   23.9714   -5.8360  -17.0023 S   0  0  0  0  0  0  0  0  0  0  0  0
   21.4592   -4.6455  -14.0872 C   0  0  0  0  0  0  0  0  0  0  0  0
   22.1664   -3.8354  -13.2160 O   0  0  0  0  0  0  0  0  0  0  0  0
   20.2153   -4.6062  -14.0752 O   0  0  0  0  0  0  0  0  0  0  0  0
  1  2  1  0
  2  4  1  0
  3  2  2  0
  4  5  1  0
  6  5  1  0
  6  7  1  1
  8  6  1  0
  8  9  2  0
 10  8  1  0
 11 10  1  0
 11 15  1  0
 11 12  1  1
 13 12  1  0
 13 17  1  0
 14 13  2  0
 15 16  2  0
 15 18  1  0
 18 19  1  0
 19 20  1  6
 21 20  1  0
 22 23  1  0
 22 19  1  0
 24 22  2  0
M  END
$$$$
