QDC.pdb
     RDKit          3D

 24 23  0  0  1  0  0  0  0  0999 V2000
   13.8486  -14.2541  -16.0068 N   0  0  0  0  0  0  0  0  0  0  0  0
   15.2205  -14.4250  -15.7135 C   0  0  0  0  0  0  0  0  0  0  0  0
   15.5832  -14.4688  -14.5247 O   0  0  0  0  0  0  0  0  0  0  0  0
   16.2025  -14.5484  -16.8043 C   0  0  0  0  0  0  0  0  0  0  0  0
   17.4014  -13.6764  -16.6175 C   0  0  0  0  0  0  0  0  0  0  0  0
   17.1507  -12.2068  -16.6372 C   0  0  2  0  0  0  0  0  0  0  0  0
   16.6510  -11.9206  -18.0065 N   0  0  0  0  0  0  0  0  0  0  0  0
   18.4329  -11.4554  -16.5255 C   0  0  0  0  0  0  0  0  0  0  0  0
   19.2125  -11.6151  -15.5312 O   0  0  0  0  0  0  0  0  0  0  0  0
   18.8947  -10.5179  -17.4913 N   0  0  0  0  0  0  0  0  0  0  0  0
   20.0828   -9.7422  -17.3238 C   0  0  1  0  0  0  0  0  0  0  0  0
   20.6072   -9.1531  -18.5951 C   0  0  0  0  0  0  0  0  0  0  0  0
   21.8195   -8.3728  -18.4727 C   0  0  0  0  0  0  0  0  0  0  0  0
   22.8117   -8.8375  -17.8803 O   0  0  0  0  0  0  0  0  0  0  0  0
   19.9479   -8.7204  -16.2388 C   0  0  0  0  0  0  0  0  0  0  0  0
   18.9365   -7.9764  -16.1438 O   0  0  0  0  0  0  0  0  0  0  0  0
   21.9189   -7.1076  -18.9986 O   0  0  0  0  0  0  0  0  0  0  0  0
   20.9577   -8.5361  -15.2562 N   0  0  0  0  0  0  0  0  0  0  0  0
   20.8582   -7.6113  -14.1666 C   0  0  1  0  0  0  0  0  0  0  0  0
   21.0674   -8.2285  -12.8243 C   0  0  0  0  0  0  0  0  0  0  0  0
   20.8472   -6.9555  -11.5604 S   0  0  0  0  0  0  0  0  0  0  0  0
   21.7626   -6.4476  -14.3147 C   0  0  0  0  0  0  0  0  0  0  0  0
   21.4654   -5.2564  -13.6759 O   0  0  0  0  0  0  0  0  0  0  0  0
   22.7933   -6.5214  -15.0085 O   0  0  0  0  0  0  0  0  0  0  0  0
  1  2  1  0
  2  4  1  0
  3  2  2  0
  4  5  1  0
  6  5  1  0
  6  7  1  6
  8  6  1  0
  8  9  2  0
 10  8  1  0
 11 10  1  0
 11 15  1  0
 11 12  1  6
 13 12  1  0
 13 17  1  0
 14 13  2  0
 15 16  2  0
 15 18  1  0
 18 19  1  0
 19 20  1  1
 21 20  1  0
 22 23  1  0
 22 19  1  0
 24 22  2  0
M  END
$$$$
