QDC.pdb
     RDKit          3D

 24 23  0  0  1  0  0  0  0  0999 V2000
   27.3033  -22.0908  -15.2238 N   0  0  0  0  0  0  0  0  0  0  0  0
   28.1718  -21.1984  -15.8923 C   0  0  0  0  0  0  0  0  0  0  0  0
   29.2107  -21.6422  -16.4120 O   0  0  0  0  0  0  0  0  0  0  0  0
   27.8462  -19.7640  -15.9688 C   0  0  0  0  0  0  0  0  0  0  0  0
   26.5553  -19.4177  -15.3008 C   0  0  0  0  0  0  0  0  0  0  0  0
   25.3514  -20.1536  -15.7827 C   0  0  2  0  0  0  0  0  0  0  0  0
   25.1502  -19.6884  -17.1789 N   0  0  0  0  0  0  0  0  0  0  0  0
   24.1355  -19.7085  -15.0447 C   0  0  0  0  0  0  0  0  0  0  0  0
   24.2130  -18.9063  -14.0586 O   0  0  0  0  0  0  0  0  0  0  0  0
   22.8123  -20.1236  -15.3637 N   0  0  0  0  0  0  0  0  0  0  0  0
   21.6583  -19.6782  -14.6486 C   0  0  1  0  0  0  0  0  0  0  0  0
   20.4228  -19.5864  -15.4873 C   0  0  0  0  0  0  0  0  0  0  0  0
   20.4620  -18.6156  -16.5595 C   0  0  0  0  0  0  0  0  0  0  0  0
   20.9468  -17.4843  -16.3687 O   0  0  0  0  0  0  0  0  0  0  0  0
   21.4326  -20.4559  -13.3901 C   0  0  0  0  0  0  0  0  0  0  0  0
   21.4422  -21.7149  -13.3719 O   0  0  0  0  0  0  0  0  0  0  0  0
   19.9724  -18.9028  -17.8105 O   0  0  0  0  0  0  0  0  0  0  0  0
   21.1949  -19.8115  -12.1461 N   0  0  0  0  0  0  0  0  0  0  0  0
   20.8643  -20.5015  -10.9350 C   0  0  1  0  0  0  0  0  0  0  0  0
   20.9644  -19.6584   -9.7081 C   0  0  0  0  0  0  0  0  0  0  0  0
   20.6216  -20.6915   -8.2653 S   0  0  0  0  0  0  0  0  0  0  0  0
   19.5275  -21.1381  -10.9817 C   0  0  0  0  0  0  0  0  0  0  0  0
   19.3486  -22.4076  -10.4605 O   0  0  0  0  0  0  0  0  0  0  0  0
   18.5541  -20.5479  -11.4849 O   0  0  0  0  0  0  0  0  0  0  0  0
  1  2  1  0
  2  4  1  0
  3  2  2  0
  4  5  1  0
  6  5  1  0
  6  7  1  6
  8  6  1  0
  8  9  2  0
 10  8  1  0
 11 10  1  0
 11 15  1  0
 11 12  1  6
 13 12  1  0
 13 17  1  0
 14 13  2  0
 15 16  2  0
 15 18  1  0
 18 19  1  0
 19 20  1  1
 21 20  1  0
 22 23  1  0
 22 19  1  0
 24 22  2  0
M  END
$$$$
