HYD.pdb
     RDKit          3D

 31 32  0  0  1  0  0  0  0  0999 V2000
   11.6686  -14.6963   19.3768 N   0  0  0  0  0  0  0  0  0  0  0  0
   10.3335  -14.7057   19.8588 C   0  0  1  0  0  0  0  0  0  0  0  0
    9.3853  -15.5414   19.0262 C   0  0  0  0  0  0  0  0  0  0  0  0
    8.7560  -14.6920   18.0112 C   0  0  0  0  0  0  0  0  0  0  0  0
    9.0053  -13.3630   17.7969 C   0  0  0  0  0  0  0  0  0  0  0  0
    8.2271  -12.9341   16.7715 N   0  0  0  0  0  0  0  0  0  0  0  0
    7.5149  -14.0029   16.3740 C   0  0  0  0  0  0  0  0  0  0  0  0
    7.8321  -15.0645   17.1202 N   0  0  0  0  0  0  0  0  0  0  0  0
   10.1804  -15.0717   21.2885 C   0  0  0  0  0  0  0  0  0  0  0  0
   11.2175  -15.4229   21.9418 O   0  0  0  0  0  0  0  0  0  0  0  0
    6.1191  -11.7750   28.5495 O   0  0  0  0  0  0  0  0  0  0  0  0
    6.4886  -12.2656   27.2873 C   0  0  0  0  0  0  0  0  0  0  0  0
    7.4594  -11.6388   26.5370 C   0  0  0  0  0  0  0  0  0  0  0  0
    7.8285  -12.1143   25.2958 C   0  0  0  0  0  0  0  0  0  0  0  0
    7.2468  -13.2348   24.7476 C   0  0  0  0  0  0  0  0  0  0  0  0
    7.6128  -13.7661   23.4369 C   0  0  0  0  0  0  0  0  0  0  0  0
    8.8960  -14.5517   23.3894 C   0  0  2  0  0  0  0  0  0  0  0  0
    8.9742  -15.0694   22.0106 N   0  0  0  0  0  0  0  0  0  0  0  0
    8.9048  -15.7012   24.3225 C   0  0  0  0  0  0  0  0  0  0  0  0
    8.7710  -15.5290   25.5552 O   0  0  0  0  0  0  0  0  0  0  0  0
    6.2728  -13.8642   25.4995 C   0  0  0  0  0  0  0  0  0  0  0  0
    5.8962  -13.3891   26.7528 C   0  0  0  0  0  0  0  0  0  0  0  0
    9.0641  -17.0223   23.8397 N   0  0  0  0  0  0  0  0  0  0  0  0
    9.8679  -17.9998   24.5469 C   0  0  1  0  0  0  0  0  0  0  0  0
   11.3384  -17.8368   24.2579 C   0  0  0  0  0  0  0  0  0  0  0  0
   12.1856  -18.8113   24.9849 C   0  0  0  0  0  0  0  0  0  0  0  0
   12.3600  -19.9955   24.6363 O   0  0  0  0  0  0  0  0  0  0  0  0
    9.6694  -17.9525   26.0054 C   0  0  0  0  0  0  0  0  0  0  0  0
   10.0201  -19.0715   26.7440 O   0  0  0  0  0  0  0  0  0  0  0  0
   12.8359  -18.3670   26.1470 O   0  0  0  0  0  0  0  0  0  0  0  0
    9.2071  -16.9723   26.6187 O   0  0  0  0  0  0  0  0  0  0  0  0
  2  1  1  6
  3  2  1  0
  3  4  1  0
  4  5  2  0
  5  6  1  0
  7  6  1  0
  8  4  1  0
  8  7  2  0
  9 18  1  0
  9  2  1  0
 10  9  2  0
 11 12  1  0
 12 13  2  0
 13 14  1  0
 15 16  1  0
 15 14  2  0
 17 16  1  6
 17 18  1  0
 19 17  1  0
 20 19  2  0
 21 15  1  0
 22 21  2  0
 22 12  1  0
 23 19  1  0
 24 23  1  0
 25 26  1  0
 24 25  1  1
 26 27  2  0
 28 29  1  0
 28 24  1  0
 30 26  1  0
 31 28  2  0
M  END
$$$$
