HYD.pdb
     RDKit          3D

 31 32  0  0  1  0  0  0  0  0999 V2000
    8.5705  -17.8511   19.3147 N   0  0  0  0  0  0  0  0  0  0  0  0
    9.5867  -16.8621   19.3790 C   0  0  1  0  0  0  0  0  0  0  0  0
    9.6516  -15.9672   18.1601 C   0  0  0  0  0  0  0  0  0  0  0  0
    9.8136  -16.7940   16.9611 C   0  0  0  0  0  0  0  0  0  0  0  0
   10.1839  -18.1117   16.9277 C   0  0  0  0  0  0  0  0  0  0  0  0
   10.2219  -18.5204   15.6345 N   0  0  0  0  0  0  0  0  0  0  0  0
    9.8757  -17.4508   14.8970 C   0  0  0  0  0  0  0  0  0  0  0  0
    9.6289  -16.4083   15.6949 N   0  0  0  0  0  0  0  0  0  0  0  0
    9.5744  -16.0218   20.6018 C   0  0  0  0  0  0  0  0  0  0  0  0
   10.4961  -15.1540   20.7538 O   0  0  0  0  0  0  0  0  0  0  0  0
    6.6702  -12.0085   28.0528 O   0  0  0  0  0  0  0  0  0  0  0  0
    6.8486  -12.6724   26.8289 C   0  0  0  0  0  0  0  0  0  0  0  0
    7.4296  -12.0370   25.7533 C   0  0  0  0  0  0  0  0  0  0  0  0
    7.6087  -12.6820   24.5471 C   0  0  0  0  0  0  0  0  0  0  0  0
    7.2168  -13.9881   24.3596 C   0  0  0  0  0  0  0  0  0  0  0  0
    7.3908  -14.7019   23.0970 C   0  0  0  0  0  0  0  0  0  0  0  0
    8.7562  -15.2930   22.8675 C   0  0  2  0  0  0  0  0  0  0  0  0
    8.6228  -16.0909   21.6343 N   0  0  0  0  0  0  0  0  0  0  0  0
    9.1885  -16.1912   23.9622 C   0  0  0  0  0  0  0  0  0  0  0  0
    8.6087  -17.2821   24.1648 O   0  0  0  0  0  0  0  0  0  0  0  0
    6.6337  -14.6262   25.4380 C   0  0  0  0  0  0  0  0  0  0  0  0
    6.4505  -13.9805   26.6578 C   0  0  0  0  0  0  0  0  0  0  0  0
   10.2693  -15.8356   24.8043 N   0  0  0  0  0  0  0  0  0  0  0  0
   10.7317  -16.7131   25.8615 C   0  0  1  0  0  0  0  0  0  0  0  0
   12.2335  -16.8429   25.8709 C   0  0  0  0  0  0  0  0  0  0  0  0
   12.8049  -17.0854   24.5253 C   0  0  0  0  0  0  0  0  0  0  0  0
   12.4325  -17.9888   23.7509 O   0  0  0  0  0  0  0  0  0  0  0  0
   10.2912  -16.2766   27.1973 C   0  0  0  0  0  0  0  0  0  0  0  0
   10.5595  -17.1089   28.2725 O   0  0  0  0  0  0  0  0  0  0  0  0
   13.8375  -16.2371   24.0954 O   0  0  0  0  0  0  0  0  0  0  0  0
    9.6932  -15.2082   27.4241 O   0  0  0  0  0  0  0  0  0  0  0  0
  2  1  1  6
  3  2  1  0
  3  4  1  0
  4  5  2  0
  5  6  1  0
  7  6  1  0
  8  4  1  0
  8  7  2  0
  9 18  1  0
  9  2  1  0
 10  9  2  0
 11 12  1  0
 12 13  2  0
 13 14  1  0
 15 16  1  0
 15 14  2  0
 17 16  1  1
 17 18  1  0
 19 17  1  0
 20 19  2  0
 21 15  1  0
 22 21  2  0
 22 12  1  0
 23 19  1  0
 24 23  1  0
 25 26  1  0
 24 25  1  1
 26 27  2  0
 28 29  1  0
 28 24  1  0
 30 26  1  0
 31 28  2  0
M  END
$$$$
