HYD.pdb
     RDKit          3D

 31 32  0  0  1  0  0  0  0  0999 V2000
   10.0553  -16.4669   18.0790 N   0  0  0  0  0  0  0  0  0  0  0  0
    8.9640  -16.6359   18.9709 C   0  0  1  0  0  0  0  0  0  0  0  0
    8.5436  -18.0772   19.1618 C   0  0  0  0  0  0  0  0  0  0  0  0
    7.8366  -18.5375   17.9635 C   0  0  0  0  0  0  0  0  0  0  0  0
    7.6526  -17.8283   16.8069 C   0  0  0  0  0  0  0  0  0  0  0  0
    6.9516  -18.5943   15.9336 N   0  0  0  0  0  0  0  0  0  0  0  0
    6.7169  -19.7575   16.5658 C   0  0  0  0  0  0  0  0  0  0  0  0
    7.2498  -19.7257   17.7903 N   0  0  0  0  0  0  0  0  0  0  0  0
    9.1283  -15.9950   20.2991 C   0  0  0  0  0  0  0  0  0  0  0  0
   10.2969  -15.9337   20.8053 O   0  0  0  0  0  0  0  0  0  0  0  0
    6.8327  -12.1117   28.0768 O   0  0  0  0  0  0  0  0  0  0  0  0
    6.8861  -12.6260   26.7718 C   0  0  0  0  0  0  0  0  0  0  0  0
    7.4684  -11.9102   25.7487 C   0  0  0  0  0  0  0  0  0  0  0  0
    7.5252  -12.4081   24.4635 C   0  0  0  0  0  0  0  0  0  0  0  0
    7.0044  -13.6408   24.1412 C   0  0  0  0  0  0  0  0  0  0  0  0
    7.0469  -14.1991   22.7919 C   0  0  0  0  0  0  0  0  0  0  0  0
    8.3585  -14.8156   22.3847 C   0  0  2  0  0  0  0  0  0  0  0  0
    8.0963  -15.4357   21.0725 N   0  0  0  0  0  0  0  0  0  0  0  0
    8.8159  -15.8700   23.3180 C   0  0  0  0  0  0  0  0  0  0  0  0
    8.2486  -16.9854   23.3550 O   0  0  0  0  0  0  0  0  0  0  0  0
    6.4200  -14.3595   25.1669 C   0  0  0  0  0  0  0  0  0  0  0  0
    6.3598  -13.8623   26.4659 C   0  0  0  0  0  0  0  0  0  0  0  0
    9.9072  -15.6395   24.1897 N   0  0  0  0  0  0  0  0  0  0  0  0
   10.3868  -16.6636   25.0968 C   0  0  1  0  0  0  0  0  0  0  0  0
   11.8878  -16.6383   25.2338 C   0  0  0  0  0  0  0  0  0  0  0  0
   12.5013  -17.9853   25.1622 C   0  0  0  0  0  0  0  0  0  0  0  0
   11.8597  -19.0528   25.1063 O   0  0  0  0  0  0  0  0  0  0  0  0
    9.7923  -16.5584   26.4401 C   0  0  0  0  0  0  0  0  0  0  0  0
    9.8934  -17.6551   27.2814 O   0  0  0  0  0  0  0  0  0  0  0  0
   13.9030  -18.0613   25.1573 O   0  0  0  0  0  0  0  0  0  0  0  0
    9.2045  -15.5482   26.8696 O   0  0  0  0  0  0  0  0  0  0  0  0
  2  1  1  1
  3  2  1  0
  3  4  1  0
  4  5  2  0
  5  6  1  0
  7  6  1  0
  8  4  1  0
  8  7  2  0
  9 18  1  0
  9  2  1  0
 10  9  2  0
 11 12  1  0
 12 13  2  0
 13 14  1  0
 15 16  1  0
 15 14  2  0
 17 16  1  1
 17 18  1  0
 19 17  1  0
 20 19  2  0
 21 15  1  0
 22 21  2  0
 22 12  1  0
 23 19  1  0
 24 23  1  0
 25 26  1  0
 24 25  1  1
 26 27  2  0
 28 29  1  0
 28 24  1  0
 30 26  1  0
 31 28  2  0
M  END
$$$$
