HYD.pdb
     RDKit          3D

 31 32  0  0  1  0  0  0  0  0999 V2000
    8.5719  -18.0512   18.1454 N   0  0  0  0  0  0  0  0  0  0  0  0
    9.0787  -16.7685   18.4811 C   0  0  1  0  0  0  0  0  0  0  0  0
    8.3170  -16.0780   19.5918 C   0  0  0  0  0  0  0  0  0  0  0  0
    8.1637  -14.6581   19.2631 C   0  0  0  0  0  0  0  0  0  0  0  0
    8.6326  -14.0296   18.1408 C   0  0  0  0  0  0  0  0  0  0  0  0
    8.2905  -12.7180   18.2016 N   0  0  0  0  0  0  0  0  0  0  0  0
    7.6195  -12.5627   19.3563 C   0  0  0  0  0  0  0  0  0  0  0  0
    7.5417  -13.7316   19.9983 N   0  0  0  0  0  0  0  0  0  0  0  0
   10.5308  -16.7216   18.7820 C   0  0  0  0  0  0  0  0  0  0  0  0
   11.1228  -17.8060   19.0973 O   0  0  0  0  0  0  0  0  0  0  0  0
   18.9362  -13.8930   17.6462 O   0  0  0  0  0  0  0  0  0  0  0  0
   17.5446  -14.0093   17.7889 C   0  0  0  0  0  0  0  0  0  0  0  0
   16.7989  -14.7567   16.9036 C   0  0  0  0  0  0  0  0  0  0  0  0
   15.4311  -14.8762   17.0366 C   0  0  0  0  0  0  0  0  0  0  0  0
   14.7462  -14.2567   18.0572 C   0  0  0  0  0  0  0  0  0  0  0  0
   13.2992  -14.3615   18.2284 C   0  0  0  0  0  0  0  0  0  0  0  0
   12.8078  -15.6507   18.8305 C   0  0  2  0  0  0  0  0  0  0  0  0
   11.3372  -15.5704   18.7531 N   0  0  0  0  0  0  0  0  0  0  0  0
   13.1941  -15.8094   20.2510 C   0  0  0  0  0  0  0  0  0  0  0  0
   14.3986  -15.8751   20.5856 O   0  0  0  0  0  0  0  0  0  0  0  0
   15.4934  -13.5067   18.9457 C   0  0  0  0  0  0  0  0  0  0  0  0
   16.8741  -13.3825   18.8167 C   0  0  0  0  0  0  0  0  0  0  0  0
   12.2078  -15.8894   21.2632 N   0  0  0  0  0  0  0  0  0  0  0  0
   12.5611  -15.9411   22.6683 C   0  0  1  0  0  0  0  0  0  0  0  0
   11.3548  -15.7897   23.5595 C   0  0  0  0  0  0  0  0  0  0  0  0
   10.4782  -16.9845   23.5599 C   0  0  0  0  0  0  0  0  0  0  0  0
   10.6613  -17.9965   22.8552 O   0  0  0  0  0  0  0  0  0  0  0  0
   13.2605  -17.1843   23.0344 C   0  0  0  0  0  0  0  0  0  0  0  0
   13.2505  -18.2267   22.1212 O   0  0  0  0  0  0  0  0  0  0  0  0
    9.3645  -16.9729   24.4145 O   0  0  0  0  0  0  0  0  0  0  0  0
   13.8607  -17.3602   24.1111 O   0  0  0  0  0  0  0  0  0  0  0  0
  2  1  1  1
  3  2  1  0
  3  4  1  0
  4  5  2  0
  5  6  1  0
  7  6  1  0
  8  4  1  0
  8  7  2  0
  9 18  1  0
  9  2  1  0
 10  9  2  0
 11 12  1  0
 12 13  2  0
 13 14  1  0
 15 16  1  0
 15 14  2  0
 17 16  1  1
 17 18  1  0
 19 17  1  0
 20 19  2  0
 21 15  1  0
 22 21  2  0
 22 12  1  0
 23 19  1  0
 24 23  1  0
 25 26  1  0
 24 25  1  1
 26 27  2  0
 28 29  1  0
 28 24  1  0
 30 26  1  0
 31 28  2  0
M  END
$$$$
