HYD.pdb
     RDKit          3D

 31 32  0  0  1  0  0  0  0  0999 V2000
    7.2634  -16.6288   18.2562 N   0  0  0  0  0  0  0  0  0  0  0  0
    8.3221  -15.6872   18.3428 C   0  0  1  0  0  0  0  0  0  0  0  0
    8.2342  -14.5683   17.3274 C   0  0  0  0  0  0  0  0  0  0  0  0
    8.0890  -15.1420   15.9867 C   0  0  0  0  0  0  0  0  0  0  0  0
    7.8683  -16.4596   15.6872 C   0  0  0  0  0  0  0  0  0  0  0  0
    7.7924  -16.5926   14.3391 N   0  0  0  0  0  0  0  0  0  0  0  0
    7.9673  -15.3589   13.8341 C   0  0  0  0  0  0  0  0  0  0  0  0
    8.1463  -14.4822   14.8260 N   0  0  0  0  0  0  0  0  0  0  0  0
    8.5438  -15.1076   19.6905 C   0  0  0  0  0  0  0  0  0  0  0  0
    9.6062  -14.4333   19.8962 O   0  0  0  0  0  0  0  0  0  0  0  0
    7.1667  -12.8528   28.2621 O   0  0  0  0  0  0  0  0  0  0  0  0
    7.0639  -13.2545   26.9211 C   0  0  0  0  0  0  0  0  0  0  0  0
    6.8916  -14.5801   26.5870 C   0  0  0  0  0  0  0  0  0  0  0  0
    6.7895  -14.9833   25.2718 C   0  0  0  0  0  0  0  0  0  0  0  0
    6.8548  -14.0840   24.2318 C   0  0  0  0  0  0  0  0  0  0  0  0
    6.7505  -14.4754   22.8282 C   0  0  0  0  0  0  0  0  0  0  0  0
    8.0555  -14.7638   22.1353 C   0  0  2  0  0  0  0  0  0  0  0  0
    7.6760  -15.2325   20.7894 N   0  0  0  0  0  0  0  0  0  0  0  0
    8.8389  -15.8304   22.7991 C   0  0  0  0  0  0  0  0  0  0  0  0
    8.5221  -17.0347   22.6707 O   0  0  0  0  0  0  0  0  0  0  0  0
    7.0277  -12.7542   24.5660 C   0  0  0  0  0  0  0  0  0  0  0  0
    7.1311  -12.3411   25.8915 C   0  0  0  0  0  0  0  0  0  0  0  0
    9.9657  -15.5107   23.5940 N   0  0  0  0  0  0  0  0  0  0  0  0
   10.7750  -16.5398   24.2167 C   0  0  1  0  0  0  0  0  0  0  0  0
   12.2429  -16.3555   23.9276 C   0  0  0  0  0  0  0  0  0  0  0  0
   13.0957  -17.3845   24.5678 C   0  0  0  0  0  0  0  0  0  0  0  0
   12.8958  -18.6131   24.4968 O   0  0  0  0  0  0  0  0  0  0  0  0
   10.5900  -16.6045   25.6764 C   0  0  0  0  0  0  0  0  0  0  0  0
   10.9931  -17.7579   26.3304 O   0  0  0  0  0  0  0  0  0  0  0  0
   14.2052  -16.9419   25.3052 O   0  0  0  0  0  0  0  0  0  0  0  0
   10.0948  -15.6901   26.3616 O   0  0  0  0  0  0  0  0  0  0  0  0
  2  1  1  1
  3  2  1  0
  3  4  1  0
  4  5  2  0
  5  6  1  0
  7  6  1  0
  8  4  1  0
  8  7  2  0
  9 18  1  0
  9  2  1  0
 10  9  2  0
 11 12  1  0
 12 13  2  0
 13 14  1  0
 15 16  1  0
 15 14  2  0
 17 16  1  1
 17 18  1  0
 19 17  1  0
 20 19  2  0
 21 15  1  0
 22 21  2  0
 22 12  1  0
 23 19  1  0
 24 23  1  0
 25 26  1  0
 24 25  1  1
 26 27  2  0
 28 29  1  0
 28 24  1  0
 30 26  1  0
 31 28  2  0
M  END
$$$$
