HYD.pdb
     RDKit          3D

 31 32  0  0  1  0  0  0  0  0999 V2000
   10.9548  -16.1304   18.8507 N   0  0  0  0  0  0  0  0  0  0  0  0
    9.6996  -15.6421   19.2991 C   0  0  1  0  0  0  0  0  0  0  0  0
    8.5132  -16.4188   18.7700 C   0  0  0  0  0  0  0  0  0  0  0  0
    8.2302  -15.9933   17.3964 C   0  0  0  0  0  0  0  0  0  0  0  0
    8.2250  -14.7060   16.9303 C   0  0  0  0  0  0  0  0  0  0  0  0
    7.9190  -14.7231   15.6086 N   0  0  0  0  0  0  0  0  0  0  0  0
    7.7418  -16.0161   15.2854 C   0  0  0  0  0  0  0  0  0  0  0  0
    7.9290  -16.7842   16.3622 N   0  0  0  0  0  0  0  0  0  0  0  0
    9.5687  -15.4919   20.7694 C   0  0  0  0  0  0  0  0  0  0  0  0
   10.4372  -16.0492   21.5183 O   0  0  0  0  0  0  0  0  0  0  0  0
    6.6488  -12.2643   28.6322 O   0  0  0  0  0  0  0  0  0  0  0  0
    6.8309  -12.6174   27.2859 C   0  0  0  0  0  0  0  0  0  0  0  0
    6.2776  -13.7699   26.7720 C   0  0  0  0  0  0  0  0  0  0  0  0
    6.4516  -14.1243   25.4502 C   0  0  0  0  0  0  0  0  0  0  0  0
    7.1843  -13.3465   24.5826 C   0  0  0  0  0  0  0  0  0  0  0  0
    7.3889  -13.6909   23.1778 C   0  0  0  0  0  0  0  0  0  0  0  0
    8.6245  -14.4976   22.8798 C   0  0  2  0  0  0  0  0  0  0  0  0
    8.5559  -14.7780   21.4334 N   0  0  0  0  0  0  0  0  0  0  0  0
    8.6616  -15.7874   23.6057 C   0  0  0  0  0  0  0  0  0  0  0  0
    8.1022  -16.8046   23.1371 O   0  0  0  0  0  0  0  0  0  0  0  0
    7.7397  -12.1903   25.0974 C   0  0  0  0  0  0  0  0  0  0  0  0
    7.5675  -11.8273   26.4304 C   0  0  0  0  0  0  0  0  0  0  0  0
    9.3323  -15.8985   24.8473 N   0  0  0  0  0  0  0  0  0  0  0  0
    9.5213  -17.1798   25.4988 C   0  0  1  0  0  0  0  0  0  0  0  0
   10.6112  -17.9902   24.8448 C   0  0  0  0  0  0  0  0  0  0  0  0
   10.0909  -19.1016   24.0141 C   0  0  0  0  0  0  0  0  0  0  0  0
    8.8826  -19.3752   23.8749 O   0  0  0  0  0  0  0  0  0  0  0  0
    9.8311  -17.0494   26.9327 C   0  0  0  0  0  0  0  0  0  0  0  0
    9.8793  -18.2069   27.6933 O   0  0  0  0  0  0  0  0  0  0  0  0
   11.0266  -19.9005   23.3381 O   0  0  0  0  0  0  0  0  0  0  0  0
   10.0527  -15.9668   27.5065 O   0  0  0  0  0  0  0  0  0  0  0  0
  2  1  1  1
  3  2  1  0
  3  4  1  0
  4  5  2  0
  5  6  1  0
  7  6  1  0
  8  4  1  0
  8  7  2  0
  9 18  1  0
  9  2  1  0
 10  9  2  0
 11 12  1  0
 12 13  2  0
 13 14  1  0
 15 16  1  0
 15 14  2  0
 17 16  1  1
 17 18  1  0
 19 17  1  0
 20 19  2  0
 21 15  1  0
 22 21  2  0
 22 12  1  0
 23 19  1  0
 24 23  1  0
 25 26  1  0
 24 25  1  6
 26 27  2  0
 28 29  1  0
 28 24  1  0
 30 26  1  0
 31 28  2  0
M  END
$$$$
