HYD.pdb
     RDKit          3D

 31 32  0  0  1  0  0  0  0  0999 V2000
    8.2746  -16.1238   20.5111 N   0  0  0  0  0  0  0  0  0  0  0  0
    8.9141  -14.9056   20.8604 C   0  0  1  0  0  0  0  0  0  0  0  0
    8.2185  -13.6714   20.3279 C   0  0  0  0  0  0  0  0  0  0  0  0
    8.0724  -13.7878   18.8744 C   0  0  0  0  0  0  0  0  0  0  0  0
    8.6033  -12.9449   17.9352 C   0  0  0  0  0  0  0  0  0  0  0  0
    8.2462  -13.3863   16.7029 N   0  0  0  0  0  0  0  0  0  0  0  0
    7.5042  -14.4892   16.9044 C   0  0  0  0  0  0  0  0  0  0  0  0
    7.3980  -14.7335   18.2134 N   0  0  0  0  0  0  0  0  0  0  0  0
    9.1858  -14.7270   22.3081 C   0  0  0  0  0  0  0  0  0  0  0  0
    9.9300  -13.7581   22.6731 O   0  0  0  0  0  0  0  0  0  0  0  0
    5.9011  -10.2254   26.8585 O   0  0  0  0  0  0  0  0  0  0  0  0
    6.3909  -11.5012   26.5381 C   0  0  0  0  0  0  0  0  0  0  0  0
    5.5414  -12.5789   26.4149 C   0  0  0  0  0  0  0  0  0  0  0  0
    6.0144  -13.8360   26.1003 C   0  0  0  0  0  0  0  0  0  0  0  0
    7.3543  -14.0746   25.8947 C   0  0  0  0  0  0  0  0  0  0  0  0
    7.8900  -15.3919   25.5603 C   0  0  0  0  0  0  0  0  0  0  0  0
    9.1493  -15.3910   24.7353 C   0  0  2  0  0  0  0  0  0  0  0  0
    8.6910  -15.5414   23.3416 N   0  0  0  0  0  0  0  0  0  0  0  0
   10.0512  -16.5204   25.0563 C   0  0  0  0  0  0  0  0  0  0  0  0
   10.4380  -16.7200   26.2301 O   0  0  0  0  0  0  0  0  0  0  0  0
    8.2073  -12.9941   26.0182 C   0  0  0  0  0  0  0  0  0  0  0  0
    7.7357  -11.7232   26.3353 C   0  0  0  0  0  0  0  0  0  0  0  0
   10.4958  -17.4009   24.0411 N   0  0  0  0  0  0  0  0  0  0  0  0
   11.3269  -18.5505   24.3402 C   0  0  1  0  0  0  0  0  0  0  0  0
   10.7445  -19.8268   23.7886 C   0  0  0  0  0  0  0  0  0  0  0  0
   11.2891  -21.0427   24.4373 C   0  0  0  0  0  0  0  0  0  0  0  0
   12.1528  -21.0384   25.3364 O   0  0  0  0  0  0  0  0  0  0  0  0
   12.7022  -18.4062   23.8338 C   0  0  0  0  0  0  0  0  0  0  0  0
   13.7375  -18.4249   24.7550 O   0  0  0  0  0  0  0  0  0  0  0  0
   10.7962  -22.2848   24.0071 O   0  0  0  0  0  0  0  0  0  0  0  0
   12.9959  -18.2687   22.6315 O   0  0  0  0  0  0  0  0  0  0  0  0
  2  1  1  1
  3  2  1  0
  3  4  1  0
  4  5  2  0
  5  6  1  0
  7  6  1  0
  8  4  1  0
  8  7  2  0
  9 18  1  0
  9  2  1  0
 10  9  2  0
 11 12  1  0
 12 13  2  0
 13 14  1  0
 15 16  1  0
 15 14  2  0
 17 16  1  1
 17 18  1  0
 19 17  1  0
 20 19  2  0
 21 15  1  0
 22 21  2  0
 22 12  1  0
 23 19  1  0
 24 23  1  0
 25 26  1  0
 24 25  1  6
 26 27  2  0
 28 29  1  0
 28 24  1  0
 30 26  1  0
 31 28  2  0
M  END
$$$$
