HYD.pdb
     RDKit          3D

 31 32  0  0  1  0  0  0  0  0999 V2000
   10.5927  -18.4319   19.7624 N   0  0  0  0  0  0  0  0  0  0  0  0
   10.4389  -17.0721   19.3853 C   0  0  1  0  0  0  0  0  0  0  0  0
    9.4047  -16.8474   18.3033 C   0  0  0  0  0  0  0  0  0  0  0  0
    9.6748  -17.7505   17.1812 C   0  0  0  0  0  0  0  0  0  0  0  0
   10.8465  -18.4157   16.9384 C   0  0  0  0  0  0  0  0  0  0  0  0
   10.7032  -19.1510   15.8072 N   0  0  0  0  0  0  0  0  0  0  0  0
    9.4501  -18.9261   15.3748 C   0  0  0  0  0  0  0  0  0  0  0  0
    8.8278  -18.0817   16.2020 N   0  0  0  0  0  0  0  0  0  0  0  0
   10.1877  -16.1305   20.5042 C   0  0  0  0  0  0  0  0  0  0  0  0
    9.6722  -14.9946   20.2402 O   0  0  0  0  0  0  0  0  0  0  0  0
    7.1468  -12.2818   18.0609 O   0  0  0  0  0  0  0  0  0  0  0  0
    7.5314  -12.9739   19.2199 C   0  0  0  0  0  0  0  0  0  0  0  0
    8.6850  -12.6424   19.8964 C   0  0  0  0  0  0  0  0  0  0  0  0
    9.0702  -13.3174   21.0361 C   0  0  0  0  0  0  0  0  0  0  0  0
    8.3232  -14.3521   21.5519 C   0  0  0  0  0  0  0  0  0  0  0  0
    8.7006  -15.0884   22.7559 C   0  0  0  0  0  0  0  0  0  0  0  0
   10.1700  -15.3790   22.9060 C   0  0  2  0  0  0  0  0  0  0  0  0
   10.4697  -16.3743   21.8597 N   0  0  0  0  0  0  0  0  0  0  0  0
   10.5115  -15.9655   24.2219 C   0  0  0  0  0  0  0  0  0  0  0  0
    9.8893  -15.6308   25.2554 O   0  0  0  0  0  0  0  0  0  0  0  0
    7.1659  -14.6854   20.8739 C   0  0  0  0  0  0  0  0  0  0  0  0
    6.7719  -14.0078   19.7233 C   0  0  0  0  0  0  0  0  0  0  0  0
   11.5504  -16.9197   24.3397 N   0  0  0  0  0  0  0  0  0  0  0  0
   11.5168  -17.9616   25.3472 C   0  0  1  0  0  0  0  0  0  0  0  0
   10.3183  -18.8620   25.1885 C   0  0  0  0  0  0  0  0  0  0  0  0
   10.1936  -19.8617   26.2751 C   0  0  0  0  0  0  0  0  0  0  0  0
   10.9506  -19.9306   27.2633 O   0  0  0  0  0  0  0  0  0  0  0  0
   12.7314  -18.7945   25.3460 C   0  0  0  0  0  0  0  0  0  0  0  0
   13.3463  -19.0458   26.5623 O   0  0  0  0  0  0  0  0  0  0  0  0
    9.1492  -20.7952   26.1825 O   0  0  0  0  0  0  0  0  0  0  0  0
   13.2422  -19.2879   24.3232 O   0  0  0  0  0  0  0  0  0  0  0  0
  2  1  1  1
  3  2  1  0
  3  4  1  0
  4  5  2  0
  5  6  1  0
  7  6  1  0
  8  4  1  0
  8  7  2  0
  9 18  1  0
  9  2  1  0
 10  9  2  0
 11 12  1  0
 12 13  2  0
 13 14  1  0
 15 16  1  0
 15 14  2  0
 17 16  1  1
 17 18  1  0
 19 17  1  0
 20 19  2  0
 21 15  1  0
 22 21  2  0
 22 12  1  0
 23 19  1  0
 24 23  1  0
 25 26  1  0
 24 25  1  6
 26 27  2  0
 28 29  1  0
 28 24  1  0
 30 26  1  0
 31 28  2  0
M  END
$$$$
