HYD.pdb
     RDKit          3D

 31 32  0  0  1  0  0  0  0  0999 V2000
   10.4742  -13.4873   20.4476 N   0  0  0  0  0  0  0  0  0  0  0  0
    9.3143  -14.1466   20.9321 C   0  0  1  0  0  0  0  0  0  0  0  0
    8.8062  -15.2446   20.0228 C   0  0  0  0  0  0  0  0  0  0  0  0
    8.4434  -14.6686   18.7250 C   0  0  0  0  0  0  0  0  0  0  0  0
    8.6895  -13.3880   18.3080 C   0  0  0  0  0  0  0  0  0  0  0  0
    8.2028  -13.2388   17.0503 N   0  0  0  0  0  0  0  0  0  0  0  0
    7.6673  -14.4260   16.7164 C   0  0  0  0  0  0  0  0  0  0  0  0
    7.8112  -15.2901   17.7249 N   0  0  0  0  0  0  0  0  0  0  0  0
    9.4160  -14.6678   22.3176 C   0  0  0  0  0  0  0  0  0  0  0  0
   10.5722  -14.7773   22.8438 O   0  0  0  0  0  0  0  0  0  0  0  0
    6.3909   -9.8703   26.7751 O   0  0  0  0  0  0  0  0  0  0  0  0
    6.5991  -11.2036   26.3888 C   0  0  0  0  0  0  0  0  0  0  0  0
    7.2150  -12.1009   27.2337 C   0  0  0  0  0  0  0  0  0  0  0  0
    7.4235  -13.4128   26.8620 C   0  0  0  0  0  0  0  0  0  0  0  0
    7.0277  -13.8885   25.6325 C   0  0  0  0  0  0  0  0  0  0  0  0
    7.2322  -15.2706   25.2059 C   0  0  0  0  0  0  0  0  0  0  0  0
    8.5350  -15.5482   24.5045 C   0  0  2  0  0  0  0  0  0  0  0  0
    8.3359  -15.0625   23.1262 N   0  0  0  0  0  0  0  0  0  0  0  0
    8.8660  -16.9903   24.4497 C   0  0  0  0  0  0  0  0  0  0  0  0
    8.6343  -17.6639   23.4202 O   0  0  0  0  0  0  0  0  0  0  0  0
    6.4099  -12.9890   24.7843 C   0  0  0  0  0  0  0  0  0  0  0  0
    6.1966  -11.6638   25.1538 C   0  0  0  0  0  0  0  0  0  0  0  0
    9.4534  -17.6393   25.5621 N   0  0  0  0  0  0  0  0  0  0  0  0
   10.4956  -18.6340   25.4004 C   0  0  1  0  0  0  0  0  0  0  0  0
   11.6321  -18.1276   24.5493 C   0  0  0  0  0  0  0  0  0  0  0  0
   12.7344  -19.1078   24.4076 C   0  0  0  0  0  0  0  0  0  0  0  0
   13.9448  -18.8330   24.5245 O   0  0  0  0  0  0  0  0  0  0  0  0
   11.0442  -19.0982   26.6859 C   0  0  0  0  0  0  0  0  0  0  0  0
   11.8338  -20.2372   26.6803 O   0  0  0  0  0  0  0  0  0  0  0  0
   12.3882  -20.4379   24.1215 O   0  0  0  0  0  0  0  0  0  0  0  0
   10.8450  -18.5341   27.7780 O   0  0  0  0  0  0  0  0  0  0  0  0
  2  1  1  6
  3  2  1  0
  3  4  1  0
  4  5  2  0
  5  6  1  0
  7  6  1  0
  8  4  1  0
  8  7  2  0
  9 18  1  0
  9  2  1  0
 10  9  2  0
 11 12  1  0
 12 13  2  0
 13 14  1  0
 15 16  1  0
 15 14  2  0
 17 16  1  1
 17 18  1  0
 19 17  1  0
 20 19  2  0
 21 15  1  0
 22 21  2  0
 22 12  1  0
 23 19  1  0
 24 23  1  0
 25 26  1  0
 24 25  1  6
 26 27  2  0
 28 29  1  0
 28 24  1  0
 30 26  1  0
 31 28  2  0
M  END
$$$$
