YAM.pdb
     RDKit          3D

 26 26  0  0  1  0  0  0  0  0999 V2000
    6.6386  -22.9354   29.2384 O   0  0  0  0  0  0  0  0  0  0  0  0
    6.9249  -21.9924   28.2506 C   0  0  0  0  0  0  0  0  0  0  0  0
    8.2411  -21.9135   27.8241 C   0  0  0  0  0  0  0  0  0  0  0  0
    8.5851  -21.0005   26.8501 C   0  0  0  0  0  0  0  0  0  0  0  0
    7.5931  -20.1879   26.3287 C   0  0  0  0  0  0  0  0  0  0  0  0
    7.9464  -19.2113   25.2911 C   0  0  0  0  0  0  0  0  0  0  0  0
    6.9638  -19.2383   24.1163 C   0  0  2  0  0  0  0  0  0  0  0  0
    7.0181  -20.5853   23.5846 N   0  0  0  0  0  0  0  0  0  0  0  0
    7.4612  -18.2385   23.1382 C   0  0  0  0  0  0  0  0  0  0  0  0
    8.6985  -18.1942   22.9330 O   0  0  0  0  0  0  0  0  0  0  0  0
    6.2802  -20.2565   26.7443 C   0  0  0  0  0  0  0  0  0  0  0  0
    5.9575  -21.1735   27.7164 C   0  0  0  0  0  0  0  0  0  0  0  0
    5.8889  -15.6330   20.9184 C   0  0  0  0  0  0  0  0  0  0  0  0
    7.1058  -16.3049   21.5635 C   0  0  2  0  0  0  0  0  0  0  0  0
    6.6290  -17.3391   22.4288 N   0  0  0  0  0  0  0  0  0  0  0  0
    7.8310  -15.2489   22.3719 C   0  0  0  0  0  0  0  0  0  0  0  0
    8.4155  -14.3057   21.8173 O   0  0  0  0  0  0  0  0  0  0  0  0
    5.9767  -10.5778   26.3270 C   0  0  0  0  0  0  0  0  0  0  0  0
    6.7480  -11.7637   27.4594 S   0  0  0  0  0  0  0  0  0  0  0  0
    8.0171  -12.6731   26.4933 C   0  0  0  0  0  0  0  0  0  0  0  0
    7.3736  -13.6705   25.5702 C   0  0  0  0  0  0  0  0  0  0  0  0
    8.3888  -14.3328   24.6854 C   0  0  2  0  0  0  0  0  0  0  0  0
    7.8668  -15.3008   23.7759 N   0  0  0  0  0  0  0  0  0  0  0  0
    9.3826  -15.0228   25.5250 C   0  0  0  0  0  0  0  0  0  0  0  0
   10.0925  -14.3973   26.3855 O   0  0  0  0  0  0  0  0  0  0  0  0
    9.6343  -16.3963   25.4583 O   0  0  0  0  0  0  0  0  0  0  0  0
  1  2  1  0
  2 12  2  0
  3  4  2  0
  3  2  1  0
  4  5  1  0
  5  6  1  0
  5 11  2  0
  7  8  1  6
  7  6  1  0
  7  9  1  0
  9 10  2  0
 12 11  1  0
 14 13  1  1
 14 16  1  0
 15  9  1  0
 15 14  1  0
 16 17  2  0
 18 19  1  0
 20 19  1  0
 21 20  1  0
 22 21  1  1
 22 24  1  0
 23 16  1  0
 23 22  1  0
 24 26  1  0
 25 24  2  0
M  END
$$$$
