YAM.pdb
     RDKit          3D

 26 26  0  0  1  0  0  0  0  0999 V2000
    7.6276  -13.3994   15.1628 O   0  0  0  0  0  0  0  0  0  0  0  0
    7.5024  -13.7099   16.5173 C   0  0  0  0  0  0  0  0  0  0  0  0
    6.9592  -14.9465   16.8277 C   0  0  0  0  0  0  0  0  0  0  0  0
    6.8104  -15.3097   18.1493 C   0  0  0  0  0  0  0  0  0  0  0  0
    7.2131  -14.4168   19.1275 C   0  0  0  0  0  0  0  0  0  0  0  0
    7.0597  -14.7915   20.5386 C   0  0  0  0  0  0  0  0  0  0  0  0
    8.4044  -15.1115   21.1989 C   0  0  2  0  0  0  0  0  0  0  0  0
    8.9899  -16.1771   20.4106 N   0  0  0  0  0  0  0  0  0  0  0  0
    8.0914  -15.5551   22.5806 C   0  0  0  0  0  0  0  0  0  0  0  0
    7.4047  -14.7851   23.2949 O   0  0  0  0  0  0  0  0  0  0  0  0
    7.7549  -13.1839   18.8320 C   0  0  0  0  0  0  0  0  0  0  0  0
    7.8950  -12.8405   17.5082 C   0  0  0  0  0  0  0  0  0  0  0  0
    8.4974  -18.6983   24.5784 C   0  0  0  0  0  0  0  0  0  0  0  0
    8.3021  -17.1807   24.4931 C   0  0  2  0  0  0  0  0  0  0  0  0
    8.5182  -16.7858   23.1356 N   0  0  0  0  0  0  0  0  0  0  0  0
    9.3414  -16.5390   25.3891 C   0  0  0  0  0  0  0  0  0  0  0  0
   10.5469  -16.5709   25.0982 O   0  0  0  0  0  0  0  0  0  0  0  0
    6.5940  -10.8953   25.9936 C   0  0  0  0  0  0  0  0  0  0  0  0
    7.3977  -11.6709   27.4206 S   0  0  0  0  0  0  0  0  0  0  0  0
    8.3801  -13.0816   26.7757 C   0  0  0  0  0  0  0  0  0  0  0  0
    9.0914  -13.7932   27.8931 C   0  0  0  0  0  0  0  0  0  0  0  0
    9.7737  -15.0371   27.4041 C   0  0  2  0  0  0  0  0  0  0  0  0
    8.9767  -15.8863   26.5791 N   0  0  0  0  0  0  0  0  0  0  0  0
   10.2004  -15.8397   28.5627 C   0  0  0  0  0  0  0  0  0  0  0  0
    9.6065  -16.9239   28.8905 O   0  0  0  0  0  0  0  0  0  0  0  0
   11.2719  -15.4954   29.3921 O   0  0  0  0  0  0  0  0  0  0  0  0
  1  2  1  0
  2 12  2  0
  3  4  2  0
  3  2  1  0
  4  5  1  0
  5  6  1  0
  5 11  2  0
  7  8  1  6
  7  6  1  0
  7  9  1  0
  9 10  2  0
 12 11  1  0
 14 13  1  6
 14 16  1  0
 15  9  1  0
 15 14  1  0
 16 17  2  0
 18 19  1  0
 20 19  1  0
 21 20  1  0
 22 21  1  1
 22 24  1  0
 23 16  1  0
 23 22  1  0
 24 26  1  0
 25 24  2  0
M  END
$$$$
