YAM.pdb
     RDKit          3D

 26 26  0  0  1  0  0  0  0  0999 V2000
    7.2524  -11.6755   26.2022 O   0  0  0  0  0  0  0  0  0  0  0  0
    6.8795  -12.8562   25.5591 C   0  0  0  0  0  0  0  0  0  0  0  0
    6.3601  -13.8647   26.3552 C   0  0  0  0  0  0  0  0  0  0  0  0
    5.9739  -15.0549   25.7766 C   0  0  0  0  0  0  0  0  0  0  0  0
    6.1205  -15.2003   24.4077 C   0  0  0  0  0  0  0  0  0  0  0  0
    5.7132  -16.4631   23.7793 C   0  0  0  0  0  0  0  0  0  0  0  0
    6.7633  -17.5630   23.9639 C   0  0  2  0  0  0  0  0  0  0  0  0
    7.2889  -17.3892   25.3030 N   0  0  0  0  0  0  0  0  0  0  0  0
    7.7998  -17.3229   22.9287 C   0  0  0  0  0  0  0  0  0  0  0  0
    8.0905  -18.2772   22.1673 O   0  0  0  0  0  0  0  0  0  0  0  0
    6.6356  -14.2050   23.6047 C   0  0  0  0  0  0  0  0  0  0  0  0
    7.0148  -13.0257   24.2008 C   0  0  0  0  0  0  0  0  0  0  0  0
    9.5597  -14.4211   21.4191 C   0  0  0  0  0  0  0  0  0  0  0  0
    9.5720  -15.8898   21.8563 C   0  0  2  0  0  0  0  0  0  0  0  0
    8.4745  -16.0909   22.7509 N   0  0  0  0  0  0  0  0  0  0  0  0
   10.8798  -16.1363   22.5800 C   0  0  0  0  0  0  0  0  0  0  0  0
   11.9577  -15.7424   22.1090 O   0  0  0  0  0  0  0  0  0  0  0  0
    9.3609  -13.9359   28.4007 C   0  0  0  0  0  0  0  0  0  0  0  0
   10.3199  -15.4192   28.8053 S   0  0  0  0  0  0  0  0  0  0  0  0
   11.4484  -15.7252   27.3898 C   0  0  0  0  0  0  0  0  0  0  0  0
   10.6692  -16.0359   26.1419 C   0  0  0  0  0  0  0  0  0  0  0  0
   11.5759  -16.4354   25.0149 C   0  0  2  0  0  0  0  0  0  0  0  0
   10.9173  -16.8186   23.8081 N   0  0  0  0  0  0  0  0  0  0  0  0
   12.3968  -17.5818   25.4400 C   0  0  0  0  0  0  0  0  0  0  0  0
   12.2764  -18.7363   24.9032 O   0  0  0  0  0  0  0  0  0  0  0  0
   13.3621  -17.5124   26.4488 O   0  0  0  0  0  0  0  0  0  0  0  0
  1  2  1  0
  2 12  2  0
  3  4  2  0
  3  2  1  0
  4  5  1  0
  5  6  1  0
  5 11  2  0
  7  8  1  1
  7  6  1  0
  7  9  1  0
  9 10  2  0
 12 11  1  0
 14 13  1  1
 14 16  1  0
 15  9  1  0
 15 14  1  0
 16 17  2  0
 18 19  1  0
 20 19  1  0
 21 20  1  0
 22 21  1  1
 22 24  1  0
 23 16  1  0
 23 22  1  0
 24 26  1  0
 25 24  2  0
M  END
$$$$
