YAM.pdb
     RDKit          3D

 26 26  0  0  1  0  0  0  0  0999 V2000
    7.4335  -11.9484   25.5150 O   0  0  0  0  0  0  0  0  0  0  0  0
    7.2109  -13.2970   25.2345 C   0  0  0  0  0  0  0  0  0  0  0  0
    6.6657  -14.0653   26.2510 C   0  0  0  0  0  0  0  0  0  0  0  0
    6.4231  -15.4048   26.0333 C   0  0  0  0  0  0  0  0  0  0  0  0
    6.7361  -15.9385   24.7950 C   0  0  0  0  0  0  0  0  0  0  0  0
    6.4828  -17.3638   24.5506 C   0  0  0  0  0  0  0  0  0  0  0  0
    7.3247  -17.9079   23.3923 C   0  0  2  0  0  0  0  0  0  0  0  0
    6.8725  -19.2678   23.1777 N   0  0  0  0  0  0  0  0  0  0  0  0
    8.7362  -17.8613   23.8497 C   0  0  0  0  0  0  0  0  0  0  0  0
    9.0889  -18.6870   24.7264 O   0  0  0  0  0  0  0  0  0  0  0  0
    7.2787  -15.1852   23.7757 C   0  0  0  0  0  0  0  0  0  0  0  0
    7.5131  -13.8514   24.0126 C   0  0  0  0  0  0  0  0  0  0  0  0
   11.8279  -16.1930   22.5567 C   0  0  0  0  0  0  0  0  0  0  0  0
   11.1055  -17.0407   23.6093 C   0  0  2  0  0  0  0  0  0  0  0  0
    9.7004  -16.9479   23.3592 N   0  0  0  0  0  0  0  0  0  0  0  0
   11.4284  -16.4501   24.9664 C   0  0  0  0  0  0  0  0  0  0  0  0
   12.6015  -16.2475   25.3151 O   0  0  0  0  0  0  0  0  0  0  0  0
    7.3097  -11.3113   26.1647 C   0  0  0  0  0  0  0  0  0  0  0  0
    7.5247  -12.7238   27.2792 S   0  0  0  0  0  0  0  0  0  0  0  0
    9.0379  -13.6076   26.7315 C   0  0  0  0  0  0  0  0  0  0  0  0
    9.3496  -14.7553   27.6516 C   0  0  0  0  0  0  0  0  0  0  0  0
   10.5411  -15.5326   27.1740 C   0  0  2  0  0  0  0  0  0  0  0  0
   10.4119  -16.1116   25.8760 N   0  0  0  0  0  0  0  0  0  0  0  0
   10.8046  -16.6358   28.1133 C   0  0  0  0  0  0  0  0  0  0  0  0
   10.6729  -17.8613   27.7718 O   0  0  0  0  0  0  0  0  0  0  0  0
   11.2143  -16.4465   29.4364 O   0  0  0  0  0  0  0  0  0  0  0  0
  1  2  1  0
  2 12  2  0
  3  4  2  0
  3  2  1  0
  4  5  1  0
  5  6  1  0
  5 11  2  0
  7  8  1  1
  7  6  1  0
  7  9  1  0
  9 10  2  0
 12 11  1  0
 14 13  1  6
 14 16  1  0
 15  9  1  0
 15 14  1  0
 16 17  2  0
 18 19  1  0
 20 19  1  0
 21 20  1  0
 22 21  1  1
 22 24  1  0
 23 16  1  0
 23 22  1  0
 24 26  1  0
 25 24  2  0
M  END
$$$$
