YAM.pdb
     RDKit          3D

 26 26  0  0  1  0  0  0  0  0999 V2000
    7.8863  -12.8960   16.6132 O   0  0  0  0  0  0  0  0  0  0  0  0
    7.8434  -13.3656   17.9264 C   0  0  0  0  0  0  0  0  0  0  0  0
    8.9005  -14.1600   18.3413 C   0  0  0  0  0  0  0  0  0  0  0  0
    8.9138  -14.6538   19.6284 C   0  0  0  0  0  0  0  0  0  0  0  0
    7.8601  -14.3346   20.4675 C   0  0  0  0  0  0  0  0  0  0  0  0
    7.8621  -14.8543   21.8405 C   0  0  0  0  0  0  0  0  0  0  0  0
    7.9411  -16.3837   21.8771 C   0  0  2  0  0  0  0  0  0  0  0  0
    6.6045  -16.8573   21.5784 N   0  0  0  0  0  0  0  0  0  0  0  0
    8.3588  -16.7433   23.2555 C   0  0  0  0  0  0  0  0  0  0  0  0
    7.5548  -16.4981   24.1873 O   0  0  0  0  0  0  0  0  0  0  0  0
    6.8028  -13.5454   20.0672 C   0  0  0  0  0  0  0  0  0  0  0  0
    6.8082  -13.0628   18.7799 C   0  0  0  0  0  0  0  0  0  0  0  0
   11.3042  -18.4919   24.8094 C   0  0  0  0  0  0  0  0  0  0  0  0
   10.0367  -17.6362   24.9084 C   0  0  2  0  0  0  0  0  0  0  0  0
    9.6007  -17.3418   23.5785 N   0  0  0  0  0  0  0  0  0  0  0  0
   10.4098  -16.3549   25.6250 C   0  0  0  0  0  0  0  0  0  0  0  0
   11.0921  -15.4826   25.0660 O   0  0  0  0  0  0  0  0  0  0  0  0
    7.2435  -11.3826   25.2361 C   0  0  0  0  0  0  0  0  0  0  0  0
    7.5392  -12.1306   26.8599 S   0  0  0  0  0  0  0  0  0  0  0  0
    8.8907  -13.3542   26.6435 C   0  0  0  0  0  0  0  0  0  0  0  0
    9.2660  -13.9752   27.9604 C   0  0  0  0  0  0  0  0  0  0  0  0
   10.3375  -15.0123   27.7918 C   0  0  2  0  0  0  0  0  0  0  0  0
    9.9967  -16.1100   26.9459 N   0  0  0  0  0  0  0  0  0  0  0  0
   10.6762  -15.5739   29.1104 C   0  0  0  0  0  0  0  0  0  0  0  0
   11.2184  -14.8670   30.0279 O   0  0  0  0  0  0  0  0  0  0  0  0
   10.4401  -16.9039   29.4705 O   0  0  0  0  0  0  0  0  0  0  0  0
  1  2  1  0
  2 12  2  0
  3  4  2  0
  3  2  1  0
  4  5  1  0
  5  6  1  0
  5 11  2  0
  7  8  1  1
  7  6  1  0
  7  9  1  0
  9 10  2  0
 12 11  1  0
 14 13  1  6
 14 16  1  0
 15  9  1  0
 15 14  1  0
 16 17  2  0
 18 19  1  0
 20 19  1  0
 21 20  1  0
 22 21  1  1
 22 24  1  0
 23 16  1  0
 23 22  1  0
 24 26  1  0
 25 24  2  0
M  END
$$$$
