YAM.pdb
     RDKit          3D

 26 26  0  0  1  0  0  0  0  0999 V2000
    7.0261  -20.9923   29.2662 O   0  0  0  0  0  0  0  0  0  0  0  0
    7.2792  -20.5231   27.9768 C   0  0  0  0  0  0  0  0  0  0  0  0
    8.1121  -21.2953   27.1826 C   0  0  0  0  0  0  0  0  0  0  0  0
    8.3992  -20.8829   25.8989 C   0  0  0  0  0  0  0  0  0  0  0  0
    7.8393  -19.7007   25.4458 C   0  0  0  0  0  0  0  0  0  0  0  0
    8.1375  -19.2503   24.0806 C   0  0  0  0  0  0  0  0  0  0  0  0
    6.8837  -19.2078   23.2016 C   0  0  2  0  0  0  0  0  0  0  0  0
    6.7932  -20.5117   22.5760 N   0  0  0  0  0  0  0  0  0  0  0  0
    7.1141  -18.1322   22.2046 C   0  0  0  0  0  0  0  0  0  0  0  0
    8.0038  -18.3237   21.3407 O   0  0  0  0  0  0  0  0  0  0  0  0
    7.0094  -18.9235   26.2256 C   0  0  0  0  0  0  0  0  0  0  0  0
    6.7353  -19.3520   27.5028 C   0  0  0  0  0  0  0  0  0  0  0  0
    5.5745  -14.8357   21.3042 C   0  0  0  0  0  0  0  0  0  0  0  0
    6.7919  -15.7585   21.4260 C   0  0  2  0  0  0  0  0  0  0  0  0
    6.3950  -16.9129   22.1711 N   0  0  0  0  0  0  0  0  0  0  0  0
    7.8624  -14.9989   22.1821 C   0  0  0  0  0  0  0  0  0  0  0  0
    8.4853  -14.0676   21.6498 O   0  0  0  0  0  0  0  0  0  0  0  0
    6.2779  -10.8329   26.0288 C   0  0  0  0  0  0  0  0  0  0  0  0
    7.7468  -11.6661   26.6858 S   0  0  0  0  0  0  0  0  0  0  0  0
    8.5457  -12.5268   25.2746 C   0  0  0  0  0  0  0  0  0  0  0  0
    8.6671  -14.0007   25.5463 C   0  0  0  0  0  0  0  0  0  0  0  0
    9.1853  -14.7384   24.3466 C   0  0  2  0  0  0  0  0  0  0  0  0
    8.1866  -15.3224   23.5109 N   0  0  0  0  0  0  0  0  0  0  0  0
   10.0640  -15.8315   24.7956 C   0  0  0  0  0  0  0  0  0  0  0  0
    9.6043  -16.8738   25.3771 O   0  0  0  0  0  0  0  0  0  0  0  0
   11.4521  -15.8283   24.6301 O   0  0  0  0  0  0  0  0  0  0  0  0
  1  2  1  0
  2 12  2  0
  3  4  2  0
  3  2  1  0
  4  5  1  0
  5  6  1  0
  5 11  2  0
  7  8  1  6
  7  6  1  0
  7  9  1  0
  9 10  2  0
 12 11  1  0
 14 13  1  1
 14 16  1  0
 15  9  1  0
 15 14  1  0
 16 17  2  0
 18 19  1  0
 20 19  1  0
 21 20  1  0
 22 21  1  1
 22 24  1  0
 23 16  1  0
 23 22  1  0
 24 26  1  0
 25 24  2  0
M  END
$$$$
