YAM.pdb
     RDKit          3D

 26 26  0  0  1  0  0  0  0  0999 V2000
   10.3066  -19.7328   30.5018 O   0  0  0  0  0  0  0  0  0  0  0  0
    9.4026  -19.3380   29.5150 C   0  0  0  0  0  0  0  0  0  0  0  0
    9.6323  -18.1121   28.9109 C   0  0  0  0  0  0  0  0  0  0  0  0
    8.7728  -17.6681   27.9286 C   0  0  0  0  0  0  0  0  0  0  0  0
    7.7012  -18.4715   27.5783 C   0  0  0  0  0  0  0  0  0  0  0  0
    6.7785  -18.0100   26.5339 C   0  0  0  0  0  0  0  0  0  0  0  0
    6.4997  -19.0966   25.4907 C   0  0  2  0  0  0  0  0  0  0  0  0
    7.3428  -20.2186   25.8514 N   0  0  0  0  0  0  0  0  0  0  0  0
    6.8829  -18.5179   24.1784 C   0  0  0  0  0  0  0  0  0  0  0  0
    8.0863  -18.6081   23.8344 O   0  0  0  0  0  0  0  0  0  0  0  0
    7.4618  -19.6929   28.1714 C   0  0  0  0  0  0  0  0  0  0  0  0
    8.3303  -20.1177   29.1487 C   0  0  0  0  0  0  0  0  0  0  0  0
    5.0763  -16.7466   21.3879 C   0  0  0  0  0  0  0  0  0  0  0  0
    6.3567  -17.2105   22.0907 C   0  0  2  0  0  0  0  0  0  0  0  0
    5.9781  -17.8754   23.2990 N   0  0  0  0  0  0  0  0  0  0  0  0
    7.1693  -15.9738   22.4147 C   0  0  0  0  0  0  0  0  0  0  0  0
    6.6592  -14.8436   22.3790 O   0  0  0  0  0  0  0  0  0  0  0  0
    5.9588  -12.5838   26.9851 C   0  0  0  0  0  0  0  0  0  0  0  0
    7.3037  -13.7974   26.9405 S   0  0  0  0  0  0  0  0  0  0  0  0
    7.7305  -14.0533   25.1732 C   0  0  0  0  0  0  0  0  0  0  0  0
    8.8020  -15.0980   25.0275 C   0  0  0  0  0  0  0  0  0  0  0  0
    9.2834  -15.1954   23.6095 C   0  0  2  0  0  0  0  0  0  0  0  0
    8.5270  -16.0637   22.7664 N   0  0  0  0  0  0  0  0  0  0  0  0
   10.6702  -15.6908   23.6044 C   0  0  0  0  0  0  0  0  0  0  0  0
   11.6452  -14.9771   24.0236 O   0  0  0  0  0  0  0  0  0  0  0  0
   11.0383  -16.9605   23.1499 O   0  0  0  0  0  0  0  0  0  0  0  0
  1  2  1  0
  2 12  2  0
  3  4  2  0
  3  2  1  0
  4  5  1  0
  5  6  1  0
  5 11  2  0
  7  8  1  1
  7  6  1  0
  7  9  1  0
  9 10  2  0
 12 11  1  0
 14 13  1  1
 14 16  1  0
 15  9  1  0
 15 14  1  0
 16 17  2  0
 18 19  1  0
 20 19  1  0
 21 20  1  0
 22 21  1  1
 22 24  1  0
 23 16  1  0
 23 22  1  0
 24 26  1  0
 25 24  2  0
M  END
$$$$
