YAM.pdb
     RDKit          3D

 26 26  0  0  1  0  0  0  0  0999 V2000
   11.4421  -15.8951   31.3694 O   0  0  0  0  0  0  0  0  0  0  0  0
   11.0534  -15.9269   30.0297 C   0  0  0  0  0  0  0  0  0  0  0  0
   10.8547  -17.1773   29.4658 C   0  0  0  0  0  0  0  0  0  0  0  0
   10.4700  -17.2726   28.1454 C   0  0  0  0  0  0  0  0  0  0  0  0
   10.2943  -16.1041   27.4242 C   0  0  0  0  0  0  0  0  0  0  0  0
    9.8850  -16.1921   26.0171 C   0  0  0  0  0  0  0  0  0  0  0  0
   10.5690  -17.3539   25.2899 C   0  0  2  0  0  0  0  0  0  0  0  0
   11.9869  -17.0560   25.3118 N   0  0  0  0  0  0  0  0  0  0  0  0
   10.0263  -17.3537   23.9081 C   0  0  0  0  0  0  0  0  0  0  0  0
   10.5238  -16.5425   23.0902 O   0  0  0  0  0  0  0  0  0  0  0  0
   10.4886  -14.8545   27.9733 C   0  0  0  0  0  0  0  0  0  0  0  0
   10.8721  -14.7807   29.2914 C   0  0  0  0  0  0  0  0  0  0  0  0
    7.5509  -19.3836   21.9489 C   0  0  0  0  0  0  0  0  0  0  0  0
    8.3228  -18.0843   22.2026 C   0  0  2  0  0  0  0  0  0  0  0  0
    8.9889  -18.2079   23.4621 N   0  0  0  0  0  0  0  0  0  0  0  0
    7.3097  -16.9597   22.2625 C   0  0  0  0  0  0  0  0  0  0  0  0
    6.2997  -17.0437   22.9779 O   0  0  0  0  0  0  0  0  0  0  0  0
    6.2459  -10.5543   25.4834 C   0  0  0  0  0  0  0  0  0  0  0  0
    6.8218  -12.2635   25.3086 S   0  0  0  0  0  0  0  0  0  0  0  0
    6.8414  -12.6367   23.5110 C   0  0  0  0  0  0  0  0  0  0  0  0
    7.3059  -14.0450   23.2622 C   0  0  0  0  0  0  0  0  0  0  0  0
    7.0692  -14.4567   21.8386 C   0  0  2  0  0  0  0  0  0  0  0  0
    7.4783  -15.7841   21.5110 N   0  0  0  0  0  0  0  0  0  0  0  0
    7.8054  -13.5464   20.9452 C   0  0  0  0  0  0  0  0  0  0  0  0
    8.9093  -13.8845   20.3950 O   0  0  0  0  0  0  0  0  0  0  0  0
    7.3723  -12.2565   20.6245 O   0  0  0  0  0  0  0  0  0  0  0  0
  1  2  1  0
  2 12  2  0
  3  4  2  0
  3  2  1  0
  4  5  1  0
  5  6  1  0
  5 11  2  0
  7  8  1  6
  7  6  1  0
  7  9  1  0
  9 10  2  0
 12 11  1  0
 14 13  1  1
 14 16  1  0
 15  9  1  0
 15 14  1  0
 16 17  2  0
 18 19  1  0
 20 19  1  0
 21 20  1  0
 22 21  1  1
 22 24  1  0
 23 16  1  0
 23 22  1  0
 24 26  1  0
 25 24  2  0
M  END
$$$$
