WQD.pdb
     RDKit          3D

 32 33  0  0  1  0  0  0  0  0999 V2000
    6.3560  -17.0304   25.0107 N   0  0  0  0  0  0  0  0  0  0  0  0
    7.1963  -16.0706   24.3190 C   0  0  1  0  0  0  0  0  0  0  0  0
    8.1247  -15.3557   25.2295 C   0  0  0  0  0  0  0  0  0  0  0  0
    7.5155  -14.5141   26.2530 C   0  0  0  0  0  0  0  0  0  0  0  0
    7.2059  -14.9911   27.5344 C   0  0  0  0  0  0  0  0  0  0  0  0
    6.6759  -13.9904   28.2537 N   0  0  0  0  0  0  0  0  0  0  0  0
    6.6148  -12.8571   27.5099 C   0  0  0  0  0  0  0  0  0  0  0  0
    6.1522  -11.5963   27.8110 C   0  0  0  0  0  0  0  0  0  0  0  0
    6.1974  -10.6051   26.8603 C   0  0  0  0  0  0  0  0  0  0  0  0
    6.7145  -10.9280   25.6249 C   0  0  0  0  0  0  0  0  0  0  0  0
    7.1771  -12.1911   25.3257 C   0  0  0  0  0  0  0  0  0  0  0  0
    7.1390  -13.2004   26.2729 C   0  0  0  0  0  0  0  0  0  0  0  0
    7.7997  -16.5945   23.0856 C   0  0  0  0  0  0  0  0  0  0  0  0
    8.3394  -17.7302   23.1056 O   0  0  0  0  0  0  0  0  0  0  0  0
    9.2027  -13.3246   17.0383 N   0  0  0  0  0  0  0  0  0  0  0  0
    8.1609  -13.5237   18.0196 C   0  0  0  0  0  0  0  0  0  0  0  0
    7.0226  -13.1303   17.6867 O   0  0  0  0  0  0  0  0  0  0  0  0
    8.4807  -14.1605   19.3104 C   0  0  0  0  0  0  0  0  0  0  0  0
    8.1321  -15.5972   19.4211 C   0  0  0  0  0  0  0  0  0  0  0  0
    8.5389  -16.2757   20.6940 C   0  0  2  0  0  0  0  0  0  0  0  0
    7.8026  -15.8784   21.8522 N   0  0  0  0  0  0  0  0  0  0  0  0
   10.0138  -16.1070   20.9413 C   0  0  0  0  0  0  0  0  0  0  0  0
   10.5079  -14.9964   21.2632 O   0  0  0  0  0  0  0  0  0  0  0  0
   10.9042  -17.2146   20.8164 N   0  0  0  0  0  0  0  0  0  0  0  0
   12.3079  -17.0072   20.9744 C   0  0  1  0  0  0  0  0  0  0  0  0
   12.9856  -18.2530   21.5289 C   0  0  0  0  0  0  0  0  0  0  0  0
   12.6585  -18.4695   22.9557 C   0  0  0  0  0  0  0  0  0  0  0  0
   12.3372  -17.4711   23.6328 O   0  0  0  0  0  0  0  0  0  0  0  0
   12.9229  -16.6267   19.6759 C   0  0  0  0  0  0  0  0  0  0  0  0
   12.1001  -16.5519   18.5594 O   0  0  0  0  0  0  0  0  0  0  0  0
   12.6846  -19.6974   23.5873 O   0  0  0  0  0  0  0  0  0  0  0  0
   14.1370  -16.3726   19.5421 O   0  0  0  0  0  0  0  0  0  0  0  0
  2  1  1  1
  2  3  1  0
  3  4  1  0
  4  5  2  0
  5  6  1  0
  7  6  1  0
  8  7  2  0
  9  8  1  0
 10 11  1  0
 10  9  2  0
 11 12  2  0
 12  4  1  0
 12  7  1  0
 13 21  1  0
 13  2  1  0
 14 13  2  0
 16 17  2  0
 16 15  1  0
 18 16  1  0
 19 18  1  0
 20 21  1  0
 20 19  1  6
 22 20  1  0
 23 22  2  0
 24 22  1  0
 25 29  1  0
 25 24  1  0
 26 27  1  0
 25 26  1  6
 27 28  2  0
 29 30  1  0
 31 27  1  0
 32 29  2  0
M  END
$$$$
