WQD.pdb
     RDKit          3D

 32 33  0  0  1  0  0  0  0  0999 V2000
    6.6296  -17.2028   24.6185 N   0  0  0  0  0  0  0  0  0  0  0  0
    7.2723  -16.0796   23.9619 C   0  0  1  0  0  0  0  0  0  0  0  0
    8.2851  -15.4139   24.8181 C   0  0  0  0  0  0  0  0  0  0  0  0
    7.7804  -14.6646   25.9630 C   0  0  0  0  0  0  0  0  0  0  0  0
    7.5769  -15.2538   27.2186 C   0  0  0  0  0  0  0  0  0  0  0  0
    7.1269  -14.3190   28.0690 N   0  0  0  0  0  0  0  0  0  0  0  0
    7.0181  -13.1224   27.4386 C   0  0  0  0  0  0  0  0  0  0  0  0
    6.6027  -11.8909   27.8915 C   0  0  0  0  0  0  0  0  0  0  0  0
    6.5795  -10.8177   27.0336 C   0  0  0  0  0  0  0  0  0  0  0  0
    6.9817  -11.0306   25.7333 C   0  0  0  0  0  0  0  0  0  0  0  0
    7.3973  -12.2645   25.2820 C   0  0  0  0  0  0  0  0  0  0  0  0
    7.4269  -13.3555   26.1342 C   0  0  0  0  0  0  0  0  0  0  0  0
    7.6987  -16.3652   22.5847 C   0  0  0  0  0  0  0  0  0  0  0  0
    7.8850  -17.5600   22.2397 O   0  0  0  0  0  0  0  0  0  0  0  0
    7.9888  -12.2544   17.5295 N   0  0  0  0  0  0  0  0  0  0  0  0
    8.4168  -13.5326   17.0091 C   0  0  0  0  0  0  0  0  0  0  0  0
    8.6305  -13.5710   15.7786 O   0  0  0  0  0  0  0  0  0  0  0  0
    8.5782  -14.6795   17.9216 C   0  0  0  0  0  0  0  0  0  0  0  0
    8.2469  -14.4202   19.3432 C   0  0  0  0  0  0  0  0  0  0  0  0
    8.3206  -15.6026   20.2611 C   0  0  2  0  0  0  0  0  0  0  0  0
    7.9109  -15.3495   21.6062 N   0  0  0  0  0  0  0  0  0  0  0  0
    9.7009  -16.2023   20.2497 C   0  0  0  0  0  0  0  0  0  0  0  0
   10.0409  -17.0639   19.3994 O   0  0  0  0  0  0  0  0  0  0  0  0
   10.6747  -15.8061   21.2142 N   0  0  0  0  0  0  0  0  0  0  0  0
   11.9497  -16.4483   21.2279 C   0  0  1  0  0  0  0  0  0  0  0  0
   13.0731  -15.4375   21.0409 C   0  0  0  0  0  0  0  0  0  0  0  0
   13.0996  -14.8911   19.6660 C   0  0  0  0  0  0  0  0  0  0  0  0
   12.8215  -15.6687   18.7298 O   0  0  0  0  0  0  0  0  0  0  0  0
   12.1392  -17.1924   22.5005 C   0  0  0  0  0  0  0  0  0  0  0  0
   13.3130  -17.9164   22.6664 O   0  0  0  0  0  0  0  0  0  0  0  0
   13.4103  -13.5833   19.3491 O   0  0  0  0  0  0  0  0  0  0  0  0
   11.2983  -17.1975   23.4221 O   0  0  0  0  0  0  0  0  0  0  0  0
  2  1  1  1
  2  3  1  0
  3  4  1  0
  4  5  2  0
  5  6  1  0
  7  6  1  0
  8  7  2  0
  9  8  1  0
 10 11  1  0
 10  9  2  0
 11 12  2  0
 12  4  1  0
 12  7  1  0
 13 21  1  0
 13  2  1  0
 14 13  2  0
 16 17  2  0
 16 15  1  0
 18 16  1  0
 19 18  1  0
 20 21  1  0
 20 19  1  6
 22 20  1  0
 23 22  2  0
 24 22  1  0
 25 29  1  0
 25 24  1  0
 26 27  1  0
 25 26  1  1
 27 28  2  0
 29 30  1  0
 31 27  1  0
 32 29  2  0
M  END
$$$$
