VLW.pdb
     RDKit          3D

 30 31  0  0  1  0  0  0  0  0999 V2000
    6.6952  -18.6147   18.6240 C   0  0  0  0  0  0  0  0  0  0  0  0
    7.6073  -18.0223   19.6744 C   0  0  1  0  0  0  0  0  0  0  0  0
    9.0413  -18.4774   19.4862 C   0  0  0  0  0  0  0  0  0  0  0  0
    7.5201  -16.4964   19.6568 C   0  0  2  0  0  0  0  0  0  0  0  0
    8.0162  -15.9775   18.4197 N   0  0  0  0  0  0  0  0  0  0  0  0
    8.3578  -16.0258   20.8225 C   0  0  0  0  0  0  0  0  0  0  0  0
    9.5397  -15.6923   20.6739 O   0  0  0  0  0  0  0  0  0  0  0  0
    7.6606  -12.6876   23.9979 C   0  0  0  0  0  0  0  0  0  0  0  0
    6.7663  -13.8888   24.2896 C   0  0  2  0  0  0  0  0  0  0  0  0
    5.7940  -13.5644   25.3434 C   0  0  0  0  0  0  0  0  0  0  0  0
    7.5847  -15.1030   24.4280 C   0  0  0  0  0  0  0  0  0  0  0  0
    8.4776  -15.5074   23.3131 C   0  0  2  0  0  0  0  0  0  0  0  0
    7.8031  -15.9554   22.1272 N   0  0  0  0  0  0  0  0  0  0  0  0
    9.6123  -16.3581   23.7129 C   0  0  0  0  0  0  0  0  0  0  0  0
    9.4959  -17.5970   23.6035 O   0  0  0  0  0  0  0  0  0  0  0  0
   10.8364  -15.8672   24.2175 N   0  0  0  0  0  0  0  0  0  0  0  0
   11.8332  -16.7179   24.9038 C   0  0  1  0  0  0  0  0  0  0  0  0
   12.2634  -16.1131   26.1765 C   0  0  0  0  0  0  0  0  0  0  0  0
   11.1697  -15.9971   27.1406 C   0  0  0  0  0  0  0  0  0  0  0  0
    9.9229  -16.5963   27.0399 C   0  0  0  0  0  0  0  0  0  0  0  0
    9.1553  -16.2416   28.0752 N   0  0  0  0  0  0  0  0  0  0  0  0
    9.8498  -15.4197   28.8727 C   0  0  0  0  0  0  0  0  0  0  0  0
    9.5649  -14.7802   30.0624 C   0  0  0  0  0  0  0  0  0  0  0  0
   10.4795  -13.9981   30.6941 C   0  0  0  0  0  0  0  0  0  0  0  0
   11.7339  -13.8220   30.1529 C   0  0  0  0  0  0  0  0  0  0  0  0
   12.0366  -14.4469   28.9721 C   0  0  0  0  0  0  0  0  0  0  0  0
   11.1234  -15.2414   28.3188 C   0  0  0  0  0  0  0  0  0  0  0  0
   11.3590  -18.0933   24.9948 C   0  0  0  0  0  0  0  0  0  0  0  0
   10.2099  -18.5200   24.7474 O   0  0  0  0  0  0  0  0  0  0  0  0
   12.2739  -19.0855   25.4060 O   0  0  0  0  0  0  0  0  0  0  0  0
  2  1  1  6
  3  2  1  0
  4  2  1  0
  4  5  1  6
  6  7  2  0
  6  4  1  0
  9  8  1  1
  9 11  1  0
 10  9  1  0
 12 11  1  1
 12 13  1  0
 13  6  1  0
 14 12  1  0
 14 16  1  0
 15 14  2  0
 17 16  1  0
 17 28  1  0
 17 18  1  1
 19 18  1  0
 20 19  2  0
 21 22  1  0
 21 20  1  0
 22 27  2  0
 23 24  2  0
 23 22  1  0
 24 25  1  0
 25 26  2  0
 27 19  1  0
 27 26  1  0
 28 29  2  0
 28 30  1  0
M  END
$$$$
