VLW.pdb
     RDKit          3D

 30 31  0  0  1  0  0  0  0  0999 V2000
    8.7801  -20.3691   17.9096 C   0  0  0  0  0  0  0  0  0  0  0  0
    9.2334  -19.0300   18.4457 C   0  0  1  0  0  0  0  0  0  0  0  0
    8.5063  -17.8849   17.7683 C   0  0  0  0  0  0  0  0  0  0  0  0
    9.0402  -18.9691   19.9607 C   0  0  2  0  0  0  0  0  0  0  0  0
    7.6502  -19.0228   20.2940 N   0  0  0  0  0  0  0  0  0  0  0  0
    9.6577  -17.6620   20.3992 C   0  0  0  0  0  0  0  0  0  0  0  0
   10.8763  -17.4656   20.3184 O   0  0  0  0  0  0  0  0  0  0  0  0
    9.0311  -13.5052   19.0901 C   0  0  0  0  0  0  0  0  0  0  0  0
    7.8697  -13.8846   20.0039 C   0  0  2  0  0  0  0  0  0  0  0  0
    6.7840  -12.8993   19.8946 C   0  0  0  0  0  0  0  0  0  0  0  0
    8.3753  -14.2387   21.3389 C   0  0  0  0  0  0  0  0  0  0  0  0
    9.3110  -15.3825   21.4806 C   0  0  2  0  0  0  0  0  0  0  0  0
    8.8464  -16.6199   20.9194 N   0  0  0  0  0  0  0  0  0  0  0  0
    9.9125  -15.5215   22.8186 C   0  0  0  0  0  0  0  0  0  0  0  0
   10.7992  -14.7108   23.1605 O   0  0  0  0  0  0  0  0  0  0  0  0
    9.5546  -16.5180   23.7528 N   0  0  0  0  0  0  0  0  0  0  0  0
   10.1428  -16.6129   25.1067 C   0  0  1  0  0  0  0  0  0  0  0  0
    9.9036  -15.3813   25.8790 C   0  0  0  0  0  0  0  0  0  0  0  0
    8.4825  -15.0508   25.9820 C   0  0  0  0  0  0  0  0  0  0  0  0
    7.4223  -15.9044   25.7154 C   0  0  0  0  0  0  0  0  0  0  0  0
    6.2611  -15.2606   25.8705 N   0  0  0  0  0  0  0  0  0  0  0  0
    6.5081  -13.9957   26.2351 C   0  0  0  0  0  0  0  0  0  0  0  0
    5.7024  -12.9172   26.5408 C   0  0  0  0  0  0  0  0  0  0  0  0
    6.2201  -11.7172   26.9135 C   0  0  0  0  0  0  0  0  0  0  0  0
    7.5843  -11.5455   26.9966 C   0  0  0  0  0  0  0  0  0  0  0  0
    8.4016  -12.6030   26.6964 C   0  0  0  0  0  0  0  0  0  0  0  0
    7.8954  -13.8242   26.3168 C   0  0  0  0  0  0  0  0  0  0  0  0
    9.7313  -17.8495   25.7599 C   0  0  0  0  0  0  0  0  0  0  0  0
    8.9215  -18.7020   25.3342 O   0  0  0  0  0  0  0  0  0  0  0  0
   10.2903  -18.1533   27.0192 O   0  0  0  0  0  0  0  0  0  0  0  0
  2  1  1  6
  3  2  1  0
  4  2  1  0
  4  5  1  6
  6  7  2  0
  6  4  1  0
  9  8  1  6
  9 11  1  0
 10  9  1  0
 12 11  1  1
 12 13  1  0
 13  6  1  0
 14 12  1  0
 14 16  1  0
 15 14  2  0
 17 16  1  0
 17 28  1  0
 17 18  1  1
 19 18  1  0
 20 19  2  0
 21 22  1  0
 21 20  1  0
 22 27  2  0
 23 24  2  0
 23 22  1  0
 24 25  1  0
 25 26  2  0
 27 19  1  0
 27 26  1  0
 28 29  2  0
 28 30  1  0
M  END
$$$$
