VLW.pdb
     RDKit          3D

 30 31  0  0  1  0  0  0  0  0999 V2000
    8.2189  -19.5808   21.3147 C   0  0  0  0  0  0  0  0  0  0  0  0
    9.2630  -19.8743   20.2612 C   0  0  1  0  0  0  0  0  0  0  0  0
    8.9673  -21.1697   19.5311 C   0  0  0  0  0  0  0  0  0  0  0  0
    9.3660  -18.7116   19.2743 C   0  0  2  0  0  0  0  0  0  0  0  0
   10.3071  -19.0108   18.2395 N   0  0  0  0  0  0  0  0  0  0  0  0
    9.8109  -17.5209   20.0906 C   0  0  0  0  0  0  0  0  0  0  0  0
   10.9760  -17.4137   20.4921 O   0  0  0  0  0  0  0  0  0  0  0  0
    9.1727  -12.9318   19.3737 C   0  0  0  0  0  0  0  0  0  0  0  0
    7.8989  -13.6063   19.8739 C   0  0  2  0  0  0  0  0  0  0  0  0
    6.7510  -12.6959   19.7522 C   0  0  0  0  0  0  0  0  0  0  0  0
    8.1513  -14.2618   21.1661 C   0  0  0  0  0  0  0  0  0  0  0  0
    9.1632  -15.3451   21.2449 C   0  0  2  0  0  0  0  0  0  0  0  0
    8.8937  -16.4886   20.4192 N   0  0  0  0  0  0  0  0  0  0  0  0
    9.5949  -15.6838   22.6125 C   0  0  0  0  0  0  0  0  0  0  0  0
   10.4724  -14.9775   23.1524 O   0  0  0  0  0  0  0  0  0  0  0  0
    9.0820  -16.7628   23.3650 N   0  0  0  0  0  0  0  0  0  0  0  0
    9.4235  -16.9998   24.7847 C   0  0  1  0  0  0  0  0  0  0  0  0
    9.3534  -15.7521   25.5649 C   0  0  0  0  0  0  0  0  0  0  0  0
    7.9896  -15.2352   25.6750 C   0  0  0  0  0  0  0  0  0  0  0  0
    6.8242  -15.9362   25.4031 C   0  0  0  0  0  0  0  0  0  0  0  0
    5.7600  -15.1442   25.5676 N   0  0  0  0  0  0  0  0  0  0  0  0
    6.1748  -13.9276   25.9439 C   0  0  0  0  0  0  0  0  0  0  0  0
    5.5215  -12.7539   26.2622 C   0  0  0  0  0  0  0  0  0  0  0  0
    6.1958  -11.6379   26.6451 C   0  0  0  0  0  0  0  0  0  0  0  0
    7.5708  -11.6514   26.7261 C   0  0  0  0  0  0  0  0  0  0  0  0
    8.2387  -12.8058   26.4134 C   0  0  0  0  0  0  0  0  0  0  0  0
    7.5727  -13.9443   26.0234 C   0  0  0  0  0  0  0  0  0  0  0  0
    8.6517  -18.1149   25.3193 C   0  0  0  0  0  0  0  0  0  0  0  0
    8.6856  -18.5762   26.4812 O   0  0  0  0  0  0  0  0  0  0  0  0
    7.7520  -18.7746   24.4556 O   0  0  0  0  0  0  0  0  0  0  0  0
  2  1  1  1
  3  2  1  0
  4  2  1  0
  4  5  1  6
  6  7  2  0
  6  4  1  0
  9  8  1  1
  9 11  1  0
 10  9  1  0
 12 11  1  1
 12 13  1  0
 13  6  1  0
 14 12  1  0
 14 16  1  0
 15 14  2  0
 17 16  1  0
 17 28  1  0
 17 18  1  1
 19 18  1  0
 20 19  2  0
 21 22  1  0
 21 20  1  0
 22 27  2  0
 23 24  2  0
 23 22  1  0
 24 25  1  0
 25 26  2  0
 27 19  1  0
 27 26  1  0
 28 29  2  0
 28 30  1  0
M  END
$$$$
