VLW.pdb
     RDKit          3D

 30 31  0  0  1  0  0  0  0  0999 V2000
    8.3266  -19.6709   22.1537 C   0  0  0  0  0  0  0  0  0  0  0  0
    9.1583  -19.8748   20.9076 C   0  0  1  0  0  0  0  0  0  0  0  0
    8.8635  -21.2112   20.2549 C   0  0  0  0  0  0  0  0  0  0  0  0
    8.9283  -18.7311   19.9200 C   0  0  2  0  0  0  0  0  0  0  0  0
    9.6588  -18.9548   18.7108 N   0  0  0  0  0  0  0  0  0  0  0  0
    9.4045  -17.4819   20.6235 C   0  0  0  0  0  0  0  0  0  0  0  0
   10.5796  -17.3560   20.9889 O   0  0  0  0  0  0  0  0  0  0  0  0
    9.2265  -13.4038   19.0085 C   0  0  0  0  0  0  0  0  0  0  0  0
    7.8917  -13.7846   19.6418 C   0  0  2  0  0  0  0  0  0  0  0  0
    6.8258  -12.8834   19.1803 C   0  0  0  0  0  0  0  0  0  0  0  0
    8.0639  -13.9995   21.0866 C   0  0  0  0  0  0  0  0  0  0  0  0
    8.8204  -15.1862   21.5588 C   0  0  2  0  0  0  0  0  0  0  0  0
    8.5061  -16.4143   20.8842 N   0  0  0  0  0  0  0  0  0  0  0  0
    8.9090  -15.3149   23.0240 C   0  0  0  0  0  0  0  0  0  0  0  0
    7.9303  -14.9587   23.7137 O   0  0  0  0  0  0  0  0  0  0  0  0
   10.0347  -15.8173   23.7125 N   0  0  0  0  0  0  0  0  0  0  0  0
   10.1678  -15.7873   25.1855 C   0  0  1  0  0  0  0  0  0  0  0  0
    9.0302  -16.4595   25.8370 C   0  0  0  0  0  0  0  0  0  0  0  0
    7.8066  -15.6593   25.7947 C   0  0  0  0  0  0  0  0  0  0  0  0
    6.5737  -16.0738   25.3132 C   0  0  0  0  0  0  0  0  0  0  0  0
    5.6896  -15.0740   25.3864 N   0  0  0  0  0  0  0  0  0  0  0  0
    6.2915  -13.9955   25.9046 C   0  0  0  0  0  0  0  0  0  0  0  0
    5.8618  -12.7208   26.2146 C   0  0  0  0  0  0  0  0  0  0  0  0
    6.6919  -11.7980   26.7680 C   0  0  0  0  0  0  0  0  0  0  0  0
    8.0043  -12.1181   27.0375 C   0  0  0  0  0  0  0  0  0  0  0  0
    8.4512  -13.3775   26.7365 C   0  0  0  0  0  0  0  0  0  0  0  0
    7.6255  -14.3238   26.1756 C   0  0  0  0  0  0  0  0  0  0  0  0
   11.4867  -16.2570   25.5916 C   0  0  0  0  0  0  0  0  0  0  0  0
   12.4152  -16.6508   24.8524 O   0  0  0  0  0  0  0  0  0  0  0  0
   11.7866  -16.2844   26.9701 O   0  0  0  0  0  0  0  0  0  0  0  0
  2  1  1  1
  3  2  1  0
  4  2  1  0
  4  5  1  6
  6  7  2  0
  6  4  1  0
  9  8  1  1
  9 11  1  0
 10  9  1  0
 12 11  1  1
 12 13  1  0
 13  6  1  0
 14 12  1  0
 14 16  1  0
 15 14  2  0
 17 16  1  0
 17 28  1  0
 17 18  1  1
 19 18  1  0
 20 19  2  0
 21 22  1  0
 21 20  1  0
 22 27  2  0
 23 24  2  0
 23 22  1  0
 24 25  1  0
 25 26  2  0
 27 19  1  0
 27 26  1  0
 28 29  2  0
 28 30  1  0
M  END
$$$$
