VLW.pdb
     RDKit          3D

 30 31  0  0  1  0  0  0  0  0999 V2000
    9.0892  -19.7984   22.2898 C   0  0  0  0  0  0  0  0  0  0  0  0
    9.7317  -19.9676   20.9316 C   0  0  1  0  0  0  0  0  0  0  0  0
    9.5168  -21.3655   20.3851 C   0  0  0  0  0  0  0  0  0  0  0  0
    9.1977  -18.9200   19.9550 C   0  0  2  0  0  0  0  0  0  0  0  0
    9.7342  -19.1314   18.6461 N   0  0  0  0  0  0  0  0  0  0  0  0
    9.6283  -17.5839   20.5134 C   0  0  0  0  0  0  0  0  0  0  0  0
   10.8134  -17.2297   20.4960 O   0  0  0  0  0  0  0  0  0  0  0  0
    8.7376  -13.5479   19.1641 C   0  0  0  0  0  0  0  0  0  0  0  0
    7.5639  -14.1291   19.9468 C   0  0  2  0  0  0  0  0  0  0  0  0
    6.3334  -13.3745   19.6676 C   0  0  0  0  0  0  0  0  0  0  0  0
    7.9557  -14.3557   21.3461 C   0  0  0  0  0  0  0  0  0  0  0  0
    8.9493  -15.4133   21.6594 C   0  0  2  0  0  0  0  0  0  0  0  0
    8.6742  -16.6964   21.0764 N   0  0  0  0  0  0  0  0  0  0  0  0
    9.3554  -15.4744   23.0745 C   0  0  0  0  0  0  0  0  0  0  0  0
    9.9856  -14.5093   23.5559 O   0  0  0  0  0  0  0  0  0  0  0  0
    9.0806  -16.5593   23.9355 N   0  0  0  0  0  0  0  0  0  0  0  0
    9.6308  -16.6717   25.3041 C   0  0  1  0  0  0  0  0  0  0  0  0
    8.5541  -16.7350   26.3076 C   0  0  0  0  0  0  0  0  0  0  0  0
    7.5811  -15.6536   26.1555 C   0  0  0  0  0  0  0  0  0  0  0  0
    6.3008  -15.7717   25.6354 C   0  0  0  0  0  0  0  0  0  0  0  0
    5.7030  -14.5765   25.6045 N   0  0  0  0  0  0  0  0  0  0  0  0
    6.5444  -13.6544   26.0900 C   0  0  0  0  0  0  0  0  0  0  0  0
    6.4480  -12.2938   26.3027 C   0  0  0  0  0  0  0  0  0  0  0  0
    7.4683  -11.5777   26.8442 C   0  0  0  0  0  0  0  0  0  0  0  0
    8.6430  -12.2031   27.1996 C   0  0  0  0  0  0  0  0  0  0  0  0
    8.7597  -13.5526   26.9957 C   0  0  0  0  0  0  0  0  0  0  0  0
    7.7379  -14.2931   26.4484 C   0  0  0  0  0  0  0  0  0  0  0  0
   10.6150  -17.7447   25.3754 C   0  0  0  0  0  0  0  0  0  0  0  0
   11.3207  -18.0661   26.3564 O   0  0  0  0  0  0  0  0  0  0  0  0
   10.8226  -18.5332   24.2239 O   0  0  0  0  0  0  0  0  0  0  0  0
  2  1  1  1
  3  2  1  0
  4  2  1  0
  4  5  1  6
  6  7  2  0
  6  4  1  0
  9  8  1  6
  9 11  1  0
 10  9  1  0
 12 11  1  1
 12 13  1  0
 13  6  1  0
 14 12  1  0
 14 16  1  0
 15 14  2  0
 17 16  1  0
 17 28  1  0
 17 18  1  1
 19 18  1  0
 20 19  2  0
 21 22  1  0
 21 20  1  0
 22 27  2  0
 23 24  2  0
 23 22  1  0
 24 25  1  0
 25 26  2  0
 27 19  1  0
 27 26  1  0
 28 29  2  0
 28 30  1  0
M  END
$$$$
