VLW.pdb
     RDKit          3D

 30 31  0  0  1  0  0  0  0  0999 V2000
   12.1027  -17.8587   18.8688 C   0  0  0  0  0  0  0  0  0  0  0  0
   10.6250  -18.1775   18.9025 C   0  0  1  0  0  0  0  0  0  0  0  0
   10.2863  -19.3412   17.9916 C   0  0  0  0  0  0  0  0  0  0  0  0
   10.1744  -18.4657   20.3343 C   0  0  2  0  0  0  0  0  0  0  0  0
    8.8136  -18.9057   20.3555 N   0  0  0  0  0  0  0  0  0  0  0  0
   10.3404  -17.1652   21.0847 C   0  0  0  0  0  0  0  0  0  0  0  0
   11.4604  -16.7009   21.3301 O   0  0  0  0  0  0  0  0  0  0  0  0
    8.8050  -13.0533   19.8876 C   0  0  0  0  0  0  0  0  0  0  0  0
    7.7346  -13.9735   20.4664 C   0  0  2  0  0  0  0  0  0  0  0  0
    6.3917  -13.4753   20.1352 C   0  0  0  0  0  0  0  0  0  0  0  0
    8.0485  -14.2908   21.8678 C   0  0  0  0  0  0  0  0  0  0  0  0
    9.2163  -15.1553   22.1722 C   0  0  2  0  0  0  0  0  0  0  0  0
    9.2045  -16.4395   21.5299 N   0  0  0  0  0  0  0  0  0  0  0  0
    9.5903  -15.2028   23.5967 C   0  0  0  0  0  0  0  0  0  0  0  0
    9.7917  -14.1256   24.1962 O   0  0  0  0  0  0  0  0  0  0  0  0
    9.7399  -16.3932   24.3412 N   0  0  0  0  0  0  0  0  0  0  0  0
   10.1439  -16.4177   25.7641 C   0  0  1  0  0  0  0  0  0  0  0  0
    8.9969  -16.7183   26.6384 C   0  0  0  0  0  0  0  0  0  0  0  0
    7.8817  -15.7932   26.4387 C   0  0  0  0  0  0  0  0  0  0  0  0
    6.6488  -16.1050   25.8850 C   0  0  0  0  0  0  0  0  0  0  0  0
    5.8843  -15.0107   25.8149 N   0  0  0  0  0  0  0  0  0  0  0  0
    6.5669  -13.9685   26.3065 C   0  0  0  0  0  0  0  0  0  0  0  0
    6.2665  -12.6338   26.4909 C   0  0  0  0  0  0  0  0  0  0  0  0
    7.1544  -11.7683   27.0473 C   0  0  0  0  0  0  0  0  0  0  0  0
    8.3963  -12.2098   27.4474 C   0  0  0  0  0  0  0  0  0  0  0  0
    8.7148  -13.5305   27.2722 C   0  0  0  0  0  0  0  0  0  0  0  0
    7.8292  -14.4203   26.7103 C   0  0  0  0  0  0  0  0  0  0  0  0
   11.3122  -17.2691   25.9517 C   0  0  0  0  0  0  0  0  0  0  0  0
   11.9289  -17.4912   27.0166 O   0  0  0  0  0  0  0  0  0  0  0  0
   11.8360  -17.9360   24.8240 O   0  0  0  0  0  0  0  0  0  0  0  0
  2  1  1  1
  3  2  1  0
  4  2  1  0
  4  5  1  6
  6  7  2  0
  6  4  1  0
  9  8  1  1
  9 11  1  0
 10  9  1  0
 12 11  1  1
 12 13  1  0
 13  6  1  0
 14 12  1  0
 14 16  1  0
 15 14  2  0
 17 16  1  0
 17 28  1  0
 17 18  1  1
 19 18  1  0
 20 19  2  0
 21 22  1  0
 21 20  1  0
 22 27  2  0
 23 24  2  0
 23 22  1  0
 24 25  1  0
 25 26  2  0
 27 19  1  0
 27 26  1  0
 28 29  2  0
 28 30  1  0
M  END
$$$$
