VLW.pdb
     RDKit          3D

 30 31  0  0  1  0  0  0  0  0999 V2000
    7.3163  -19.2206   23.4603 C   0  0  0  0  0  0  0  0  0  0  0  0
    7.6556  -19.9625   22.1873 C   0  0  1  0  0  0  0  0  0  0  0  0
    6.8319  -21.2273   22.0445 C   0  0  0  0  0  0  0  0  0  0  0  0
    7.4623  -19.0542   20.9732 C   0  0  2  0  0  0  0  0  0  0  0  0
    7.6630  -19.7849   19.7601 N   0  0  0  0  0  0  0  0  0  0  0  0
    8.4827  -17.9503   21.1221 C   0  0  0  0  0  0  0  0  0  0  0  0
    9.6888  -18.1589   20.9426 O   0  0  0  0  0  0  0  0  0  0  0  0
    8.7615  -14.1483   18.9993 C   0  0  0  0  0  0  0  0  0  0  0  0
    7.7355  -13.9803   20.1159 C   0  0  2  0  0  0  0  0  0  0  0  0
    6.9381  -12.7633   19.9050 C   0  0  0  0  0  0  0  0  0  0  0  0
    8.3758  -14.1919   21.4230 C   0  0  0  0  0  0  0  0  0  0  0  0
    8.9452  -15.5246   21.7449 C   0  0  2  0  0  0  0  0  0  0  0  0
    8.0775  -16.6365   21.4751 N   0  0  0  0  0  0  0  0  0  0  0  0
    9.6282  -15.6019   23.0482 C   0  0  0  0  0  0  0  0  0  0  0  0
   10.5341  -14.7782   23.2961 O   0  0  0  0  0  0  0  0  0  0  0  0
    9.3291  -16.5523   24.0487 N   0  0  0  0  0  0  0  0  0  0  0  0
    9.9995  -16.5844   25.3670 C   0  0  1  0  0  0  0  0  0  0  0  0
    9.7835  -15.3279   26.1052 C   0  0  0  0  0  0  0  0  0  0  0  0
    8.3817  -14.9106   26.1045 C   0  0  0  0  0  0  0  0  0  0  0  0
    7.2911  -15.7060   25.7854 C   0  0  0  0  0  0  0  0  0  0  0  0
    6.1639  -14.9902   25.8473 N   0  0  0  0  0  0  0  0  0  0  0  0
    6.4632  -13.7333   26.2001 C   0  0  0  0  0  0  0  0  0  0  0  0
    5.7067  -12.6011   26.4267 C   0  0  0  0  0  0  0  0  0  0  0  0
    6.2711  -11.4248   26.8073 C   0  0  0  0  0  0  0  0  0  0  0  0
    7.6348  -11.3328   26.9789 C   0  0  0  0  0  0  0  0  0  0  0  0
    8.4039  -12.4446   26.7580 C   0  0  0  0  0  0  0  0  0  0  0  0
    7.8500  -13.6429   26.3718 C   0  0  0  0  0  0  0  0  0  0  0  0
    9.6519  -17.8014   26.0903 C   0  0  0  0  0  0  0  0  0  0  0  0
   10.0661  -18.1639   27.2132 O   0  0  0  0  0  0  0  0  0  0  0  0
    8.7464  -18.6982   25.4849 O   0  0  0  0  0  0  0  0  0  0  0  0
  2  1  1  1
  3  2  1  0
  4  2  1  0
  4  5  1  6
  6  7  2  0
  6  4  1  0
  9  8  1  6
  9 11  1  0
 10  9  1  0
 12 11  1  1
 12 13  1  0
 13  6  1  0
 14 12  1  0
 14 16  1  0
 15 14  2  0
 17 16  1  0
 17 28  1  0
 17 18  1  1
 19 18  1  0
 20 19  2  0
 21 22  1  0
 21 20  1  0
 22 27  2  0
 23 24  2  0
 23 22  1  0
 24 25  1  0
 25 26  2  0
 27 19  1  0
 27 26  1  0
 28 29  2  0
 28 30  1  0
M  END
$$$$
