VLW.pdb
     RDKit          3D

 30 31  0  0  1  0  0  0  0  0999 V2000
    6.7450  -19.2596   23.0455 C   0  0  0  0  0  0  0  0  0  0  0  0
    7.3679  -19.8228   21.7882 C   0  0  1  0  0  0  0  0  0  0  0  0
    6.7192  -21.1325   21.3848 C   0  0  0  0  0  0  0  0  0  0  0  0
    7.2825  -18.8066   20.6496 C   0  0  2  0  0  0  0  0  0  0  0  0
    7.6978  -19.3971   19.4148 N   0  0  0  0  0  0  0  0  0  0  0  0
    8.1951  -17.6702   21.0468 C   0  0  0  0  0  0  0  0  0  0  0  0
    9.4054  -17.8492   21.2294 O   0  0  0  0  0  0  0  0  0  0  0  0
    8.9994  -13.6650   19.0645 C   0  0  0  0  0  0  0  0  0  0  0  0
    7.6726  -13.7101   19.8164 C   0  0  2  0  0  0  0  0  0  0  0  0
    6.7996  -12.6070   19.3890 C   0  0  0  0  0  0  0  0  0  0  0  0
    7.9155  -13.9073   21.2535 C   0  0  0  0  0  0  0  0  0  0  0  0
    8.3989  -15.2263   21.7335 C   0  0  2  0  0  0  0  0  0  0  0  0
    7.6800  -16.3591   21.2217 N   0  0  0  0  0  0  0  0  0  0  0  0
    8.6666  -15.2924   23.1809 C   0  0  0  0  0  0  0  0  0  0  0  0
    7.7733  -14.9182   23.9699 O   0  0  0  0  0  0  0  0  0  0  0  0
    9.8753  -15.7535   23.7468 N   0  0  0  0  0  0  0  0  0  0  0  0
   10.1854  -15.6611   25.1903 C   0  0  1  0  0  0  0  0  0  0  0  0
    9.1077  -16.2485   26.0052 C   0  0  0  0  0  0  0  0  0  0  0  0
    7.9054  -15.4160   26.0295 C   0  0  0  0  0  0  0  0  0  0  0  0
    6.6378  -15.7967   25.6148 C   0  0  0  0  0  0  0  0  0  0  0  0
    5.7858  -14.7739   25.7362 N   0  0  0  0  0  0  0  0  0  0  0  0
    6.4431  -13.7129   26.2221 C   0  0  0  0  0  0  0  0  0  0  0  0
    6.0647  -12.4279   26.5557 C   0  0  0  0  0  0  0  0  0  0  0  0
    6.9477  -11.5287   27.0643 C   0  0  0  0  0  0  0  0  0  0  0  0
    8.2637  -11.8840   27.2625 C   0  0  0  0  0  0  0  0  0  0  0  0
    8.6601  -13.1542   26.9370 C   0  0  0  0  0  0  0  0  0  0  0  0
    7.7806  -14.0770   26.4206 C   0  0  0  0  0  0  0  0  0  0  0  0
   11.5233  -16.1723   25.4619 C   0  0  0  0  0  0  0  0  0  0  0  0
   12.0747  -16.3071   26.5761 O   0  0  0  0  0  0  0  0  0  0  0  0
   12.3172  -16.5710   24.3658 O   0  0  0  0  0  0  0  0  0  0  0  0
  2  1  1  1
  3  2  1  0
  4  2  1  0
  4  5  1  6
  6  7  2  0
  6  4  1  0
  9  8  1  6
  9 11  1  0
 10  9  1  0
 12 11  1  1
 12 13  1  0
 13  6  1  0
 14 12  1  0
 14 16  1  0
 15 14  2  0
 17 16  1  0
 17 28  1  0
 17 18  1  1
 19 18  1  0
 20 19  2  0
 21 22  1  0
 21 20  1  0
 22 27  2  0
 23 24  2  0
 23 22  1  0
 24 25  1  0
 25 26  2  0
 27 19  1  0
 27 26  1  0
 28 29  2  0
 28 30  1  0
M  END
$$$$
