WNY.pdb
     RDKit          3D

 35 37  0  0  1  0  0  0  0  0999 V2000
   28.2855  -21.8666  -10.6745 N   0  0  0  0  0  0  0  0  0  0  0  0
   26.9886  -21.3740  -10.3063 C   0  0  1  0  0  0  0  0  0  0  0  0
   27.0440  -20.1838   -9.3859 C   0  0  0  0  0  0  0  0  0  0  0  0
   28.2029  -20.2646   -8.4827 C   0  0  0  0  0  0  0  0  0  0  0  0
   29.5278  -20.5180   -8.8880 C   0  0  0  0  0  0  0  0  0  0  0  0
   30.3204  -20.4870   -7.8147 N   0  0  0  0  0  0  0  0  0  0  0  0
   29.5743  -20.2247   -6.7195 C   0  0  0  0  0  0  0  0  0  0  0  0
   29.8901  -20.0947   -5.3924 C   0  0  0  0  0  0  0  0  0  0  0  0
   28.9203  -19.8301   -4.4639 C   0  0  0  0  0  0  0  0  0  0  0  0
   27.6096  -19.6904   -4.8491 C   0  0  0  0  0  0  0  0  0  0  0  0
   27.2741  -19.8180   -6.1805 C   0  0  0  0  0  0  0  0  0  0  0  0
   28.2592  -20.0851   -7.1200 C   0  0  0  0  0  0  0  0  0  0  0  0
   26.2363  -20.9613  -11.5197 C   0  0  0  0  0  0  0  0  0  0  0  0
   26.7677  -20.1411  -12.3194 O   0  0  0  0  0  0  0  0  0  0  0  0
   25.8334  -22.6939  -15.2863 N   0  0  0  0  0  0  0  0  0  0  0  0
   25.1095  -23.2634  -14.2194 C   0  0  0  0  0  0  0  0  0  0  0  0
   25.4728  -24.3654  -13.7602 O   0  0  0  0  0  0  0  0  0  0  0  0
   23.9480  -22.5778  -13.6541 C   0  0  0  0  0  0  0  0  0  0  0  0
   24.2697  -21.2270  -13.0683 C   0  0  2  0  0  0  0  0  0  0  0  0
   24.9603  -21.4614  -11.7875 N   0  0  0  0  0  0  0  0  0  0  0  0
   22.9981  -20.5039  -12.7143 C   0  0  0  0  0  0  0  0  0  0  0  0
   22.2804  -20.8483  -11.7239 O   0  0  0  0  0  0  0  0  0  0  0  0
   15.8952  -15.2056  -13.1423 O   0  0  0  0  0  0  0  0  0  0  0  0
   17.1555  -15.7606  -13.3466 C   0  0  0  0  0  0  0  0  0  0  0  0
   18.1512  -15.5718  -12.4132 C   0  0  0  0  0  0  0  0  0  0  0  0
   19.4140  -16.1203  -12.6046 C   0  0  0  0  0  0  0  0  0  0  0  0
   19.7237  -16.8672  -13.7202 C   0  0  0  0  0  0  0  0  0  0  0  0
   21.0763  -17.4487  -13.9127 C   0  0  0  0  0  0  0  0  0  0  0  0
   21.2362  -18.7733  -13.1818 C   0  0  2  0  0  0  0  0  0  0  0  0
   22.5141  -19.3954  -13.4550 N   0  0  0  0  0  0  0  0  0  0  0  0
   20.1749  -19.6642  -13.7010 C   0  0  0  0  0  0  0  0  0  0  0  0
   20.2639  -20.3227  -14.9183 O   0  0  0  0  0  0  0  0  0  0  0  0
   18.7231  -17.0515  -14.6488 C   0  0  0  0  0  0  0  0  0  0  0  0
   17.4581  -16.5063  -14.4644 C   0  0  0  0  0  0  0  0  0  0  0  0
   19.1370  -19.8465  -13.0240 O   0  0  0  0  0  0  0  0  0  0  0  0
  2  1  1  6
  3  2  1  0
  4  3  1  0
  4  5  2  0
  6  5  1  0
  7  6  1  0
  8  7  2  0
  9  8  1  0
 10  9  2  0
 10 11  1  0
 11 12  2  0
 12  7  1  0
 12  4  1  0
 13 20  1  0
 13  2  1  0
 14 13  2  0
 16 18  1  0
 16 15  1  0
 17 16  2  0
 19 18  1  1
 19 20  1  0
 21 22  2  0
 21 19  1  0
 23 24  1  0
 24 34  2  0
 24 25  1  0
 25 26  2  0
 26 27  1  0
 27 28  1  0
 29 28  1  6
 29 30  1  0
 30 21  1  0
 31 29  1  0
 31 32  1  0
 33 27  2  0
 34 33  1  0
 35 31  2  0
M  END
$$$$
