WNY.pdb
     RDKit          3D

 35 37  0  0  1  0  0  0  0  0999 V2000
   21.0814  -12.9442  -16.3890 N   0  0  0  0  0  0  0  0  0  0  0  0
   21.9020  -11.8521  -15.9483 C   0  0  1  0  0  0  0  0  0  0  0  0
   23.0245  -11.5305  -16.8987 C   0  0  0  0  0  0  0  0  0  0  0  0
   24.1172  -12.5090  -16.7802 C   0  0  0  0  0  0  0  0  0  0  0  0
   24.0356  -13.8623  -17.1618 C   0  0  0  0  0  0  0  0  0  0  0  0
   25.2178  -14.4430  -16.9464 N   0  0  0  0  0  0  0  0  0  0  0  0
   26.0746  -13.5303  -16.4387 C   0  0  0  0  0  0  0  0  0  0  0  0
   27.3845  -13.6081  -16.0437 C   0  0  0  0  0  0  0  0  0  0  0  0
   28.0321  -12.5109  -15.5442 C   0  0  0  0  0  0  0  0  0  0  0  0
   27.3766  -11.3096  -15.4302 C   0  0  0  0  0  0  0  0  0  0  0  0
   26.0583  -11.2135  -15.8231 C   0  0  0  0  0  0  0  0  0  0  0  0
   25.4044  -12.3269  -16.3302 C   0  0  0  0  0  0  0  0  0  0  0  0
   21.0795  -10.6230  -15.8016 C   0  0  0  0  0  0  0  0  0  0  0  0
   20.1802  -10.3834  -16.6550 O   0  0  0  0  0  0  0  0  0  0  0  0
   17.7999   -8.9169  -15.1836 N   0  0  0  0  0  0  0  0  0  0  0  0
   18.1606   -8.8773  -13.8216 C   0  0  0  0  0  0  0  0  0  0  0  0
   17.2685   -8.9795  -12.9550 O   0  0  0  0  0  0  0  0  0  0  0  0
   19.5586   -8.7188  -13.4228 C   0  0  0  0  0  0  0  0  0  0  0  0
   20.4965   -8.4996  -14.5819 C   0  0  2  0  0  0  0  0  0  0  0  0
   21.2843   -9.7347  -14.7438 N   0  0  0  0  0  0  0  0  0  0  0  0
   21.4948   -7.4265  -14.2400 C   0  0  0  0  0  0  0  0  0  0  0  0
   22.4206   -7.6135  -13.3900 O   0  0  0  0  0  0  0  0  0  0  0  0
   21.8783   -5.3806  -20.9855 O   0  0  0  0  0  0  0  0  0  0  0  0
   22.3113   -5.3359  -19.6630 C   0  0  0  0  0  0  0  0  0  0  0  0
   22.6304   -6.5023  -19.0027 C   0  0  0  0  0  0  0  0  0  0  0  0
   23.0640   -6.4721  -17.6823 C   0  0  0  0  0  0  0  0  0  0  0  0
   23.1927   -5.2919  -16.9834 C   0  0  0  0  0  0  0  0  0  0  0  0
   23.6579   -5.2727  -15.5733 C   0  0  0  0  0  0  0  0  0  0  0  0
   22.5007   -5.1503  -14.5934 C   0  0  2  0  0  0  0  0  0  0  0  0
   21.4734   -6.1402  -14.8373 N   0  0  0  0  0  0  0  0  0  0  0  0
   21.9079   -3.8131  -14.8167 C   0  0  0  0  0  0  0  0  0  0  0  0
   20.6222   -3.6232  -15.3008 O   0  0  0  0  0  0  0  0  0  0  0  0
   22.8718   -4.1301  -17.6502 C   0  0  0  0  0  0  0  0  0  0  0  0
   22.4376   -4.1523  -18.9703 C   0  0  0  0  0  0  0  0  0  0  0  0
   22.5829   -2.7890  -14.5626 O   0  0  0  0  0  0  0  0  0  0  0  0
  2  1  1  6
  3  2  1  0
  4  3  1  0
  4  5  2  0
  6  5  1  0
  7  6  1  0
  8  7  2  0
  9  8  1  0
 10  9  2  0
 10 11  1  0
 11 12  2  0
 12  7  1  0
 12  4  1  0
 13 20  1  0
 13  2  1  0
 14 13  2  0
 16 18  1  0
 16 15  1  0
 17 16  2  0
 19 18  1  1
 19 20  1  0
 21 22  2  0
 21 19  1  0
 23 24  1  0
 24 34  2  0
 24 25  1  0
 25 26  2  0
 26 27  1  0
 27 28  1  0
 29 28  1  6
 29 30  1  0
 30 21  1  0
 31 29  1  0
 31 32  1  0
 33 27  2  0
 34 33  1  0
 35 31  2  0
M  END
$$$$
