WNY.pdb
     RDKit          3D

 35 37  0  0  1  0  0  0  0  0999 V2000
   23.3514  -14.7860  -18.7220 N   0  0  0  0  0  0  0  0  0  0  0  0
   23.5911  -13.5075  -18.1149 C   0  0  1  0  0  0  0  0  0  0  0  0
   24.8405  -12.8352  -18.6185 C   0  0  0  0  0  0  0  0  0  0  0  0
   26.0362  -13.6341  -18.3061 C   0  0  0  0  0  0  0  0  0  0  0  0
   26.6959  -14.4895  -19.2099 C   0  0  0  0  0  0  0  0  0  0  0  0
   27.7562  -15.0246  -18.6013 N   0  0  0  0  0  0  0  0  0  0  0  0
   27.8231  -14.5589  -17.3351 C   0  0  0  0  0  0  0  0  0  0  0  0
   28.6969  -14.7941  -16.3061 C   0  0  0  0  0  0  0  0  0  0  0  0
   28.5292  -14.1863  -15.0915 C   0  0  0  0  0  0  0  0  0  0  0  0
   27.4778  -13.3277  -14.8837 C   0  0  0  0  0  0  0  0  0  0  0  0
   26.5890  -13.0795  -15.9084 C   0  0  0  0  0  0  0  0  0  0  0  0
   26.7618  -13.6960  -17.1390 C   0  0  0  0  0  0  0  0  0  0  0  0
   22.4535  -12.5915  -18.3890 C   0  0  0  0  0  0  0  0  0  0  0  0
   21.7380  -12.7931  -19.4097 O   0  0  0  0  0  0  0  0  0  0  0  0
   17.7497  -10.5270  -18.5333 N   0  0  0  0  0  0  0  0  0  0  0  0
   18.5594  -10.5742  -17.3807 C   0  0  0  0  0  0  0  0  0  0  0  0
   18.2231   -9.9146  -16.3761 O   0  0  0  0  0  0  0  0  0  0  0  0
   19.7779  -11.3826  -17.3557 C   0  0  0  0  0  0  0  0  0  0  0  0
   21.0151  -10.6235  -17.7609 C   0  0  2  0  0  0  0  0  0  0  0  0
   22.1657  -11.5185  -17.5429 N   0  0  0  0  0  0  0  0  0  0  0  0
   21.2299   -9.4575  -16.8337 C   0  0  0  0  0  0  0  0  0  0  0  0
   21.5929   -9.6148  -15.6262 O   0  0  0  0  0  0  0  0  0  0  0  0
   22.3551   -1.1354  -13.9558 O   0  0  0  0  0  0  0  0  0  0  0  0
   22.3457   -2.3300  -14.6707 C   0  0  0  0  0  0  0  0  0  0  0  0
   22.7836   -3.4928  -14.0755 C   0  0  0  0  0  0  0  0  0  0  0  0
   22.7795   -4.6925  -14.7777 C   0  0  0  0  0  0  0  0  0  0  0  0
   22.3437   -4.7728  -16.0822 C   0  0  0  0  0  0  0  0  0  0  0  0
   22.3433   -6.0607  -16.8214 C   0  0  0  0  0  0  0  0  0  0  0  0
   21.2411   -6.9928  -16.3410 C   0  0  2  0  0  0  0  0  0  0  0  0
   21.0439   -8.1110  -17.2385 N   0  0  0  0  0  0  0  0  0  0  0  0
   19.9968   -6.1923  -16.3292 C   0  0  0  0  0  0  0  0  0  0  0  0
   19.1748   -6.0493  -17.4371 O   0  0  0  0  0  0  0  0  0  0  0  0
   21.9073   -3.6062  -16.6704 C   0  0  0  0  0  0  0  0  0  0  0  0
   21.9084   -2.4030  -15.9747 C   0  0  0  0  0  0  0  0  0  0  0  0
   19.6501   -5.6068  -15.2776 O   0  0  0  0  0  0  0  0  0  0  0  0
  2  1  1  6
  3  2  1  0
  4  3  1  0
  4  5  2  0
  6  5  1  0
  7  6  1  0
  8  7  2  0
  9  8  1  0
 10  9  2  0
 10 11  1  0
 11 12  2  0
 12  7  1  0
 12  4  1  0
 13 20  1  0
 13  2  1  0
 14 13  2  0
 16 18  1  0
 16 15  1  0
 17 16  2  0
 19 18  1  1
 19 20  1  0
 21 22  2  0
 21 19  1  0
 23 24  1  0
 24 34  2  0
 24 25  1  0
 25 26  2  0
 26 27  1  0
 27 28  1  0
 29 28  1  6
 29 30  1  0
 30 21  1  0
 31 29  1  0
 31 32  1  0
 33 27  2  0
 34 33  1  0
 35 31  2  0
M  END
$$$$
