WNY.pdb
     RDKit          3D

 35 37  0  0  1  0  0  0  0  0999 V2000
   27.1901  -21.7304  -10.7348 N   0  0  0  0  0  0  0  0  0  0  0  0
   26.2093  -20.9149  -10.0764 C   0  0  1  0  0  0  0  0  0  0  0  0
   26.8131  -19.8495   -9.2006 C   0  0  0  0  0  0  0  0  0  0  0  0
   27.9109  -20.3922   -8.3846 C   0  0  0  0  0  0  0  0  0  0  0  0
   29.0205  -21.0982   -8.8887 C   0  0  0  0  0  0  0  0  0  0  0  0
   29.8304  -21.4094   -7.8747 N   0  0  0  0  0  0  0  0  0  0  0  0
   29.3017  -20.9392   -6.7240 C   0  0  0  0  0  0  0  0  0  0  0  0
   29.7217  -20.9939   -5.4207 C   0  0  0  0  0  0  0  0  0  0  0  0
   28.9765  -20.4316   -4.4201 C   0  0  0  0  0  0  0  0  0  0  0  0
   27.7908  -19.8013   -4.7074 C   0  0  0  0  0  0  0  0  0  0  0  0
   27.3531  -19.7369   -6.0135 C   0  0  0  0  0  0  0  0  0  0  0  0
   28.1110  -20.3067   -7.0262 C   0  0  0  0  0  0  0  0  0  0  0  0
   25.3563  -20.2307  -11.0827 C   0  0  0  0  0  0  0  0  0  0  0  0
   24.4076  -19.4989  -10.6843 O   0  0  0  0  0  0  0  0  0  0  0  0
   25.3879  -16.9540  -13.9698 N   0  0  0  0  0  0  0  0  0  0  0  0
   26.0411  -17.9125  -14.7705 C   0  0  0  0  0  0  0  0  0  0  0  0
   26.8622  -17.5280  -15.6280 O   0  0  0  0  0  0  0  0  0  0  0  0
   25.7652  -19.3389  -14.6039 C   0  0  0  0  0  0  0  0  0  0  0  0
   24.8193  -19.6431  -13.4708 C   0  0  2  0  0  0  0  0  0  0  0  0
   25.5847  -20.3836  -12.4518 N   0  0  0  0  0  0  0  0  0  0  0  0
   23.7464  -20.5903  -13.9365 C   0  0  0  0  0  0  0  0  0  0  0  0
   24.0039  -21.5850  -14.6842 O   0  0  0  0  0  0  0  0  0  0  0  0
   24.8859  -26.3557  -16.1167 O   0  0  0  0  0  0  0  0  0  0  0  0
   24.1761  -25.4654  -15.3155 C   0  0  0  0  0  0  0  0  0  0  0  0
   22.8120  -25.6004  -15.1766 C   0  0  0  0  0  0  0  0  0  0  0  0
   22.0910  -24.7185  -14.3799 C   0  0  0  0  0  0  0  0  0  0  0  0
   22.6984  -23.6841  -13.7022 C   0  0  0  0  0  0  0  0  0  0  0  0
   21.9173  -22.7492  -12.8532 C   0  0  0  0  0  0  0  0  0  0  0  0
   21.4371  -21.5357  -13.6351 C   0  0  2  0  0  0  0  0  0  0  0  0
   22.3825  -20.4414  -13.5770 N   0  0  0  0  0  0  0  0  0  0  0  0
   20.1848  -21.0918  -12.9838 C   0  0  0  0  0  0  0  0  0  0  0  0
   19.0151  -21.8367  -12.9989 O   0  0  0  0  0  0  0  0  0  0  0  0
   24.0623  -23.5557  -13.8460 C   0  0  0  0  0  0  0  0  0  0  0  0
   24.7899  -24.4335  -14.6408 C   0  0  0  0  0  0  0  0  0  0  0  0
   20.1579  -19.9925  -12.3840 O   0  0  0  0  0  0  0  0  0  0  0  0
  2  1  1  6
  3  2  1  0
  4  3  1  0
  4  5  2  0
  6  5  1  0
  7  6  1  0
  8  7  2  0
  9  8  1  0
 10  9  2  0
 10 11  1  0
 11 12  2  0
 12  7  1  0
 12  4  1  0
 13 20  1  0
 13  2  1  0
 14 13  2  0
 16 18  1  0
 16 15  1  0
 17 16  2  0
 19 18  1  6
 19 20  1  0
 21 22  2  0
 21 19  1  0
 23 24  1  0
 24 34  2  0
 24 25  1  0
 25 26  2  0
 26 27  1  0
 27 28  1  0
 29 28  1  1
 29 30  1  0
 30 21  1  0
 31 29  1  0
 31 32  1  0
 33 27  2  0
 34 33  1  0
 35 31  2  0
M  END
$$$$
