WNY.pdb
     RDKit          3D

 35 37  0  0  1  0  0  0  0  0999 V2000
   28.4325  -20.1733   -9.5713 N   0  0  0  0  0  0  0  0  0  0  0  0
   27.3369  -21.0975   -9.6493 C   0  0  1  0  0  0  0  0  0  0  0  0
   26.4424  -21.0625   -8.4388 C   0  0  0  0  0  0  0  0  0  0  0  0
   26.8908  -20.0435   -7.4765 C   0  0  0  0  0  0  0  0  0  0  0  0
   26.7810  -18.6517   -7.6627 C   0  0  0  0  0  0  0  0  0  0  0  0
   27.2550  -18.0331   -6.5794 N   0  0  0  0  0  0  0  0  0  0  0  0
   27.6730  -18.9576   -5.6876 C   0  0  0  0  0  0  0  0  0  0  0  0
   28.2369  -18.8561   -4.4428 C   0  0  0  0  0  0  0  0  0  0  0  0
   28.5836  -19.9760   -3.7370 C   0  0  0  0  0  0  0  0  0  0  0  0
   28.3714  -21.2247   -4.2676 C   0  0  0  0  0  0  0  0  0  0  0  0
   27.8049  -21.3453   -5.5190 C   0  0  0  0  0  0  0  0  0  0  0  0
   27.4532  -20.2085   -6.2319 C   0  0  0  0  0  0  0  0  0  0  0  0
   26.4931  -20.7893  -10.8331 C   0  0  0  0  0  0  0  0  0  0  0  0
   26.1016  -19.6024  -11.0130 O   0  0  0  0  0  0  0  0  0  0  0  0
   24.2568  -21.2637  -15.5251 N   0  0  0  0  0  0  0  0  0  0  0  0
   25.2743  -22.2235  -15.3513 C   0  0  0  0  0  0  0  0  0  0  0  0
   25.6121  -22.9314  -16.3220 O   0  0  0  0  0  0  0  0  0  0  0  0
   25.9289  -22.3926  -14.0546 C   0  0  0  0  0  0  0  0  0  0  0  0
   25.3792  -21.4922  -12.9783 C   0  0  2  0  0  0  0  0  0  0  0  0
   26.1278  -21.7840  -11.7426 N   0  0  0  0  0  0  0  0  0  0  0  0
   23.9504  -21.8596  -12.6803 C   0  0  0  0  0  0  0  0  0  0  0  0
   23.6048  -22.3778  -11.5728 O   0  0  0  0  0  0  0  0  0  0  0  0
   16.4039  -18.3598  -10.7026 O   0  0  0  0  0  0  0  0  0  0  0  0
   17.6763  -18.7233  -11.1352 C   0  0  0  0  0  0  0  0  0  0  0  0
   18.1905  -19.9576  -10.8031 C   0  0  0  0  0  0  0  0  0  0  0  0
   19.4595  -20.3334  -11.2284 C   0  0  0  0  0  0  0  0  0  0  0  0
   20.2499  -19.5010  -11.9903 C   0  0  0  0  0  0  0  0  0  0  0  0
   21.6036  -19.9144  -12.4393 C   0  0  0  0  0  0  0  0  0  0  0  0
   21.5735  -21.2304  -13.2021 C   0  0  2  0  0  0  0  0  0  0  0  0
   22.8964  -21.6554  -13.6071 N   0  0  0  0  0  0  0  0  0  0  0  0
   20.7794  -20.9824  -14.4257 C   0  0  0  0  0  0  0  0  0  0  0  0
   19.4115  -21.1985  -14.5005 O   0  0  0  0  0  0  0  0  0  0  0  0
   19.7290  -18.2687  -12.3182 C   0  0  0  0  0  0  0  0  0  0  0  0
   18.4610  -17.8860  -11.8968 C   0  0  0  0  0  0  0  0  0  0  0  0
   21.3506  -20.5563  -15.4558 O   0  0  0  0  0  0  0  0  0  0  0  0
  2  1  1  1
  3  2  1  0
  4  3  1  0
  4  5  2  0
  6  5  1  0
  7  6  1  0
  8  7  2  0
  9  8  1  0
 10  9  2  0
 10 11  1  0
 11 12  2  0
 12  7  1  0
 12  4  1  0
 13 20  1  0
 13  2  1  0
 14 13  2  0
 16 18  1  0
 16 15  1  0
 17 16  2  0
 19 18  1  6
 19 20  1  0
 21 22  2  0
 21 19  1  0
 23 24  1  0
 24 34  2  0
 24 25  1  0
 25 26  2  0
 26 27  1  0
 27 28  1  0
 29 28  1  6
 29 30  1  0
 30 21  1  0
 31 29  1  0
 31 32  1  0
 33 27  2  0
 34 33  1  0
 35 31  2  0
M  END
$$$$
