WNY.pdb
     RDKit          3D

 35 37  0  0  1  0  0  0  0  0999 V2000
   23.5401  -10.5451  -19.6813 N   0  0  0  0  0  0  0  0  0  0  0  0
   23.3388  -10.0122  -18.3638 C   0  0  1  0  0  0  0  0  0  0  0  0
   24.2356   -8.8438  -18.0517 C   0  0  0  0  0  0  0  0  0  0  0  0
   25.6469   -9.2570  -17.9989 C   0  0  0  0  0  0  0  0  0  0  0  0
   26.6708   -8.7442  -18.8191 C   0  0  0  0  0  0  0  0  0  0  0  0
   27.8259   -9.3177  -18.4760 N   0  0  0  0  0  0  0  0  0  0  0  0
   27.6070  -10.1868  -17.4654 C   0  0  0  0  0  0  0  0  0  0  0  0
   28.4377  -11.0214  -16.7644 C   0  0  0  0  0  0  0  0  0  0  0  0
   27.9481  -11.8246  -15.7705 C   0  0  0  0  0  0  0  0  0  0  0  0
   26.6108  -11.8071  -15.4588 C   0  0  0  0  0  0  0  0  0  0  0  0
   25.7606  -10.9732  -16.1540 C   0  0  0  0  0  0  0  0  0  0  0  0
   26.2596  -10.1591  -17.1603 C   0  0  0  0  0  0  0  0  0  0  0  0
   21.9356   -9.5474  -18.2106 C   0  0  0  0  0  0  0  0  0  0  0  0
   21.2487   -9.3240  -19.2463 O   0  0  0  0  0  0  0  0  0  0  0  0
   17.7976  -11.3015  -17.6526 N   0  0  0  0  0  0  0  0  0  0  0  0
   18.9892  -11.2236  -16.9039 C   0  0  0  0  0  0  0  0  0  0  0  0
   19.8136  -12.1576  -16.9776 O   0  0  0  0  0  0  0  0  0  0  0  0
   19.2619  -10.0675  -16.0509 C   0  0  0  0  0  0  0  0  0  0  0  0
   19.9657   -8.9423  -16.7650 C   0  0  2  0  0  0  0  0  0  0  0  0
   21.3689   -9.3540  -16.9491 N   0  0  0  0  0  0  0  0  0  0  0  0
   20.0153   -7.7242  -15.8824 C   0  0  0  0  0  0  0  0  0  0  0  0
   18.9634   -7.1067  -15.5264 O   0  0  0  0  0  0  0  0  0  0  0  0
   26.7890   -6.0223  -17.8787 O   0  0  0  0  0  0  0  0  0  0  0  0
   25.7790   -5.9769  -16.9215 C   0  0  0  0  0  0  0  0  0  0  0  0
   25.2477   -4.7651  -16.5374 C   0  0  0  0  0  0  0  0  0  0  0  0
   24.2389   -4.7052  -15.5828 C   0  0  0  0  0  0  0  0  0  0  0  0
   23.7314   -5.8383  -14.9856 C   0  0  0  0  0  0  0  0  0  0  0  0
   22.6529   -5.7613  -13.9678 C   0  0  0  0  0  0  0  0  0  0  0  0
   21.2773   -5.9858  -14.5774 C   0  0  2  0  0  0  0  0  0  0  0  0
   21.2300   -7.1832  -15.3890 N   0  0  0  0  0  0  0  0  0  0  0  0
   21.0206   -4.8261  -15.4599 C   0  0  0  0  0  0  0  0  0  0  0  0
   20.8448   -4.9389  -16.8310 O   0  0  0  0  0  0  0  0  0  0  0  0
   24.2676   -7.0460  -15.3748 C   0  0  0  0  0  0  0  0  0  0  0  0
   25.2763   -7.1138  -16.3285 C   0  0  0  0  0  0  0  0  0  0  0  0
   20.9549   -3.6773  -14.9651 O   0  0  0  0  0  0  0  0  0  0  0  0
  2  1  1  6
  3  2  1  0
  4  3  1  0
  4  5  2  0
  6  5  1  0
  7  6  1  0
  8  7  2  0
  9  8  1  0
 10  9  2  0
 10 11  1  0
 11 12  2  0
 12  7  1  0
 12  4  1  0
 13 20  1  0
 13  2  1  0
 14 13  2  0
 16 18  1  0
 16 15  1  0
 17 16  2  0
 19 18  1  1
 19 20  1  0
 21 22  2  0
 21 19  1  0
 23 24  1  0
 24 34  2  0
 24 25  1  0
 25 26  2  0
 26 27  1  0
 27 28  1  0
 29 28  1  6
 29 30  1  0
 30 21  1  0
 31 29  1  0
 31 32  1  0
 33 27  2  0
 34 33  1  0
 35 31  2  0
M  END
$$$$
