WNY.pdb
     RDKit          3D

 35 37  0  0  1  0  0  0  0  0999 V2000
   25.6808   -8.2355  -21.4804 N   0  0  0  0  0  0  0  0  0  0  0  0
   24.6728   -8.7716  -20.6104 C   0  0  1  0  0  0  0  0  0  0  0  0
   25.2364   -9.4003  -19.3639 C   0  0  0  0  0  0  0  0  0  0  0  0
   26.0448  -10.5868  -19.6866 C   0  0  0  0  0  0  0  0  0  0  0  0
   27.4231  -10.7205  -19.4291 C   0  0  0  0  0  0  0  0  0  0  0  0
   27.8188  -11.9339  -19.8191 N   0  0  0  0  0  0  0  0  0  0  0  0
   26.7604  -12.6052  -20.3230 C   0  0  0  0  0  0  0  0  0  0  0  0
   26.6277  -13.8605  -20.8562 C   0  0  0  0  0  0  0  0  0  0  0  0
   25.4161  -14.3034  -21.3130 C   0  0  0  0  0  0  0  0  0  0  0  0
   24.3095  -13.4931  -21.2443 C   0  0  0  0  0  0  0  0  0  0  0  0
   24.4251  -12.2269  -20.7106 C   0  0  0  0  0  0  0  0  0  0  0  0
   25.6542  -11.7807  -20.2472 C   0  0  0  0  0  0  0  0  0  0  0  0
   23.7433   -7.6940  -20.1820 C   0  0  0  0  0  0  0  0  0  0  0  0
   24.1623   -6.5034  -20.1455 O   0  0  0  0  0  0  0  0  0  0  0  0
   19.4459   -4.9899  -19.4165 N   0  0  0  0  0  0  0  0  0  0  0  0
   19.1397   -6.2358  -19.9998 C   0  0  0  0  0  0  0  0  0  0  0  0
   18.0112   -6.4081  -20.5041 O   0  0  0  0  0  0  0  0  0  0  0  0
   20.1257   -7.3157  -20.0173 C   0  0  0  0  0  0  0  0  0  0  0  0
   21.4633   -6.9218  -19.4457 C   0  0  2  0  0  0  0  0  0  0  0  0
   22.4239   -7.9749  -19.8208 N   0  0  0  0  0  0  0  0  0  0  0  0
   21.4070   -6.9445  -17.9419 C   0  0  0  0  0  0  0  0  0  0  0  0
   20.8595   -7.8963  -17.3024 O   0  0  0  0  0  0  0  0  0  0  0  0
   26.1040  -10.7394  -15.9165 O   0  0  0  0  0  0  0  0  0  0  0  0
   25.3916   -9.5653  -15.6878 C   0  0  0  0  0  0  0  0  0  0  0  0
   25.7357   -8.4096  -16.3543 C   0  0  0  0  0  0  0  0  0  0  0  0
   25.0328   -7.2304  -16.1355 C   0  0  0  0  0  0  0  0  0  0  0  0
   23.9752   -7.1640  -15.2551 C   0  0  0  0  0  0  0  0  0  0  0  0
   23.2316   -5.8984  -15.0308 C   0  0  0  0  0  0  0  0  0  0  0  0
   21.8624   -5.9171  -15.6936 C   0  0  2  0  0  0  0  0  0  0  0  0
   21.9564   -5.9133  -17.1379 N   0  0  0  0  0  0  0  0  0  0  0  0
   21.1832   -4.6702  -15.2774 C   0  0  0  0  0  0  0  0  0  0  0  0
   20.8638   -4.3827  -13.9588 O   0  0  0  0  0  0  0  0  0  0  0  0
   23.6371   -8.3234  -14.5926 C   0  0  0  0  0  0  0  0  0  0  0  0
   24.3351   -9.5062  -14.8061 C   0  0  0  0  0  0  0  0  0  0  0  0
   20.8725   -3.8190  -16.1422 O   0  0  0  0  0  0  0  0  0  0  0  0
  2  1  1  6
  3  2  1  0
  4  3  1  0
  4  5  2  0
  6  5  1  0
  7  6  1  0
  8  7  2  0
  9  8  1  0
 10  9  2  0
 10 11  1  0
 11 12  2  0
 12  7  1  0
 12  4  1  0
 13 20  1  0
 13  2  1  0
 14 13  2  0
 16 18  1  0
 16 15  1  0
 17 16  2  0
 19 18  1  6
 19 20  1  0
 21 22  2  0
 21 19  1  0
 23 24  1  0
 24 34  2  0
 24 25  1  0
 25 26  2  0
 26 27  1  0
 27 28  1  0
 29 28  1  1
 29 30  1  0
 30 21  1  0
 31 29  1  0
 31 32  1  0
 33 27  2  0
 34 33  1  0
 35 31  2  0
M  END
$$$$
