WNY.pdb
     RDKit          3D

 35 37  0  0  1  0  0  0  0  0999 V2000
   27.2995  -23.3328  -24.2523 N   0  0  0  0  0  0  0  0  0  0  0  0
   25.9056  -23.4809  -23.9430 C   0  0  1  0  0  0  0  0  0  0  0  0
   25.2994  -24.7342  -24.5163 C   0  0  0  0  0  0  0  0  0  0  0  0
   25.1274  -24.6222  -25.9735 C   0  0  0  0  0  0  0  0  0  0  0  0
   25.8943  -25.3107  -26.9335 C   0  0  0  0  0  0  0  0  0  0  0  0
   25.4442  -24.9976  -28.1502 N   0  0  0  0  0  0  0  0  0  0  0  0
   24.4140  -24.1318  -28.0330 C   0  0  0  0  0  0  0  0  0  0  0  0
   23.6188  -23.5069  -28.9577 C   0  0  0  0  0  0  0  0  0  0  0  0
   22.6275  -22.6494  -28.5643 C   0  0  0  0  0  0  0  0  0  0  0  0
   22.4134  -22.4002  -27.2310 C   0  0  0  0  0  0  0  0  0  0  0  0
   23.2042  -23.0206  -26.2869 C   0  0  0  0  0  0  0  0  0  0  0  0
   24.2077  -23.8903  -26.6882 C   0  0  0  0  0  0  0  0  0  0  0  0
   25.7123  -23.5286  -22.4703 C   0  0  0  0  0  0  0  0  0  0  0  0
   25.6949  -24.6508  -21.8917 O   0  0  0  0  0  0  0  0  0  0  0  0
   28.6946  -21.1318  -20.5254 N   0  0  0  0  0  0  0  0  0  0  0  0
   27.7463  -21.7841  -19.7119 C   0  0  0  0  0  0  0  0  0  0  0  0
   28.1141  -22.7406  -18.9998 O   0  0  0  0  0  0  0  0  0  0  0  0
   26.3495  -21.3512  -19.6979 C   0  0  0  0  0  0  0  0  0  0  0  0
   25.3942  -22.3745  -20.2560 C   0  0  2  0  0  0  0  0  0  0  0  0
   25.5497  -22.3612  -21.7216 N   0  0  0  0  0  0  0  0  0  0  0  0
   23.9744  -21.9475  -19.9973 C   0  0  0  0  0  0  0  0  0  0  0  0
   23.4536  -20.9481  -20.5842 O   0  0  0  0  0  0  0  0  0  0  0  0
   15.3963  -21.4547  -18.4113 O   0  0  0  0  0  0  0  0  0  0  0  0
   16.7023  -21.8638  -18.6670 C   0  0  0  0  0  0  0  0  0  0  0  0
   17.3515  -22.6920  -17.7777 C   0  0  0  0  0  0  0  0  0  0  0  0
   18.6555  -23.1080  -18.0205 C   0  0  0  0  0  0  0  0  0  0  0  0
   19.3484  -22.7172  -19.1453 C   0  0  0  0  0  0  0  0  0  0  0  0
   20.7409  -23.1693  -19.3940 C   0  0  0  0  0  0  0  0  0  0  0  0
   21.7650  -22.1988  -18.8252 C   0  0  2  0  0  0  0  0  0  0  0  0
   23.1232  -22.6249  -19.0871 N   0  0  0  0  0  0  0  0  0  0  0  0
   21.5629  -22.1944  -17.3594 C   0  0  0  0  0  0  0  0  0  0  0  0
   20.6984  -21.3227  -16.7143 O   0  0  0  0  0  0  0  0  0  0  0  0
   18.6928  -21.8894  -20.0297 C   0  0  0  0  0  0  0  0  0  0  0  0
   17.3891  -21.4692  -19.7937 C   0  0  0  0  0  0  0  0  0  0  0  0
   22.1934  -23.0096  -16.6476 O   0  0  0  0  0  0  0  0  0  0  0  0
  2  1  1  1
  3  2  1  0
  4  3  1  0
  4  5  2  0
  6  5  1  0
  7  6  1  0
  8  7  2  0
  9  8  1  0
 10  9  2  0
 10 11  1  0
 11 12  2  0
 12  7  1  0
 12  4  1  0
 13 20  1  0
 13  2  1  0
 14 13  2  0
 16 18  1  0
 16 15  1  0
 17 16  2  0
 19 18  1  1
 19 20  1  0
 21 22  2  0
 21 19  1  0
 23 24  1  0
 24 34  2  0
 24 25  1  0
 25 26  2  0
 26 27  1  0
 27 28  1  0
 29 28  1  6
 29 30  1  0
 30 21  1  0
 31 29  1  0
 31 32  1  0
 33 27  2  0
 34 33  1  0
 35 31  2  0
M  END
$$$$
