WNY.pdb
     RDKit          3D

 35 37  0  0  1  0  0  0  0  0999 V2000
   20.9270  -16.0122  -21.8391 N   0  0  0  0  0  0  0  0  0  0  0  0
   20.6870  -15.8162  -20.4375 C   0  0  1  0  0  0  0  0  0  0  0  0
   20.0609  -14.4837  -20.1222 C   0  0  0  0  0  0  0  0  0  0  0  0
   20.9461  -13.3753  -20.5136 C   0  0  0  0  0  0  0  0  0  0  0  0
   22.2558  -13.5231  -21.0102 C   0  0  0  0  0  0  0  0  0  0  0  0
   22.7487  -12.3155  -21.2924 N   0  0  0  0  0  0  0  0  0  0  0  0
   21.8201  -11.3783  -21.0025 C   0  0  0  0  0  0  0  0  0  0  0  0
   21.8216  -10.0113  -21.0987 C   0  0  0  0  0  0  0  0  0  0  0  0
   20.7278   -9.2810  -20.7208 C   0  0  0  0  0  0  0  0  0  0  0  0
   19.6067   -9.9092  -20.2367 C   0  0  0  0  0  0  0  0  0  0  0  0
   19.5879  -11.2841  -20.1333 C   0  0  0  0  0  0  0  0  0  0  0  0
   20.6977  -12.0223  -20.5181 C   0  0  0  0  0  0  0  0  0  0  0  0
   19.7715  -16.8686  -19.9248 C   0  0  0  0  0  0  0  0  0  0  0  0
   18.6398  -17.0118  -20.4664 O   0  0  0  0  0  0  0  0  0  0  0  0
   18.2326  -21.3414  -18.0345 N   0  0  0  0  0  0  0  0  0  0  0  0
   19.5451  -21.1109  -17.5755 C   0  0  0  0  0  0  0  0  0  0  0  0
   20.1862  -22.0561  -17.0724 O   0  0  0  0  0  0  0  0  0  0  0  0
   20.1531  -19.7854  -17.6841 C   0  0  0  0  0  0  0  0  0  0  0  0
   19.2651  -18.7660  -18.3501 C   0  0  2  0  0  0  0  0  0  0  0  0
   20.1392  -17.6948  -18.8608 N   0  0  0  0  0  0  0  0  0  0  0  0
   18.3784  -18.1093  -17.3266 C   0  0  0  0  0  0  0  0  0  0  0  0
   18.8517  -17.4907  -16.3226 O   0  0  0  0  0  0  0  0  0  0  0  0
   11.9075  -19.1755  -20.9982 O   0  0  0  0  0  0  0  0  0  0  0  0
   12.7115  -18.5153  -20.0730 C   0  0  0  0  0  0  0  0  0  0  0  0
   12.3035  -18.4029  -18.7618 C   0  0  0  0  0  0  0  0  0  0  0  0
   13.0964  -17.7465  -17.8276 C   0  0  0  0  0  0  0  0  0  0  0  0
   14.3091  -17.1862  -18.1650 C   0  0  0  0  0  0  0  0  0  0  0  0
   15.1475  -16.4883  -17.1575 C   0  0  0  0  0  0  0  0  0  0  0  0
   16.1146  -17.4371  -16.4655 C   0  0  2  0  0  0  0  0  0  0  0  0
   16.9627  -18.1340  -17.4089 N   0  0  0  0  0  0  0  0  0  0  0  0
   15.2821  -18.4437  -15.7705 C   0  0  0  0  0  0  0  0  0  0  0  0
   15.3647  -19.8046  -16.0249 O   0  0  0  0  0  0  0  0  0  0  0  0
   14.7101  -17.3027  -19.4776 C   0  0  0  0  0  0  0  0  0  0  0  0
   13.9228  -17.9576  -20.4172 C   0  0  0  0  0  0  0  0  0  0  0  0
   14.4558  -18.0702  -14.9064 O   0  0  0  0  0  0  0  0  0  0  0  0
  2  1  1  6
  3  2  1  0
  4  3  1  0
  4  5  2  0
  6  5  1  0
  7  6  1  0
  8  7  2  0
  9  8  1  0
 10  9  2  0
 10 11  1  0
 11 12  2  0
 12  7  1  0
 12  4  1  0
 13 20  1  0
 13  2  1  0
 14 13  2  0
 16 18  1  0
 16 15  1  0
 17 16  2  0
 19 18  1  1
 19 20  1  0
 21 22  2  0
 21 19  1  0
 23 24  1  0
 24 34  2  0
 24 25  1  0
 25 26  2  0
 26 27  1  0
 27 28  1  0
 29 28  1  6
 29 30  1  0
 30 21  1  0
 31 29  1  0
 31 32  1  0
 33 27  2  0
 34 33  1  0
 35 31  2  0
M  END
$$$$
