HIV.pdb
     RDKit          3D

 26 26  0  0  1  0  0  0  0  0999 V2000
   26.0413  -20.0401  -14.7306 N   0  0  0  0  0  0  0  0  0  0  0  0
   26.8112  -20.5484  -13.6409 C   0  0  1  0  0  0  0  0  0  0  0  0
   28.2850  -20.1955  -13.8365 C   0  0  0  0  0  0  0  0  0  0  0  0
   28.8179  -20.8827  -15.0510 C   0  0  0  0  0  0  0  0  0  0  0  0
   29.1967  -22.1928  -15.1724 C   0  0  0  0  0  0  0  0  0  0  0  0
   29.6140  -22.3745  -16.4459 N   0  0  0  0  0  0  0  0  0  0  0  0
   29.5088  -21.2293  -17.1187 C   0  0  0  0  0  0  0  0  0  0  0  0
   29.0195  -20.3247  -16.2499 N   0  0  0  0  0  0  0  0  0  0  0  0
   26.3369  -20.1214  -12.3217 C   0  0  0  0  0  0  0  0  0  0  0  0
   26.3112  -18.8714  -12.0806 O   0  0  0  0  0  0  0  0  0  0  0  0
   21.5487  -20.5164  -10.9261 C   0  0  0  0  0  0  0  0  0  0  0  0
   23.0210  -20.2318  -11.0862 C   0  0  0  0  0  0  0  0  0  0  0  0
   23.8499  -20.8026   -9.9857 C   0  0  2  0  0  0  0  0  0  0  0  0
   23.2895  -20.3146   -8.6670 C   0  0  0  0  0  0  0  0  0  0  0  0
   25.3186  -20.4405  -10.0767 C   0  0  2  0  0  0  0  0  0  0  0  0
   25.9065  -20.9729  -11.2958 N   0  0  0  0  0  0  0  0  0  0  0  0
   26.0938  -20.8724   -8.8837 C   0  0  0  0  0  0  0  0  0  0  0  0
   26.3419  -22.0646   -8.5887 O   0  0  0  0  0  0  0  0  0  0  0  0
   28.6111  -19.5415   -4.7803 C   0  0  0  0  0  0  0  0  0  0  0  0
   27.9884  -19.1182   -6.0906 C   0  0  1  0  0  0  0  0  0  0  0  0
   29.0683  -18.5498   -6.9621 C   0  0  0  0  0  0  0  0  0  0  0  0
   27.2769  -20.2837   -6.7501 C   0  0  2  0  0  0  0  0  0  0  0  0
   26.6176  -19.8864   -7.9722 N   0  0  0  0  0  0  0  0  0  0  0  0
   26.2558  -20.7599   -5.8040 C   0  0  0  0  0  0  0  0  0  0  0  0
   26.5969  -21.6192   -4.7821 O   0  0  0  0  0  0  0  0  0  0  0  0
   25.0745  -20.3885   -5.9213 O   0  0  0  0  0  0  0  0  0  0  0  0
  2  1  1  6
  2  3  1  0
  2  9  1  0
  3  4  1  0
  4  5  2  0
  6  5  1  0
  7  6  1  0
  8  7  2  0
  8  4  1  0
  9 10  2  0
 12 11  1  0
 13 12  1  0
 13 14  1  1
 15 13  1  0
 16  9  1  0
 15 16  1  6
 17 18  2  0
 17 15  1  0
 20 19  1  1
 20 21  1  0
 20 22  1  0
 22 23  1  6
 23 17  1  0
 24 22  1  0
 24 25  1  0
 26 24  2  0
M  END
$$$$
