HIV.pdb
     RDKit          3D

 26 26  0  0  1  0  0  0  0  0999 V2000
   21.7334  -16.2405  -18.8510 N   0  0  0  0  0  0  0  0  0  0  0  0
   21.5338  -16.8822  -17.5912 C   0  0  1  0  0  0  0  0  0  0  0  0
   20.2688  -17.7381  -17.6385 C   0  0  0  0  0  0  0  0  0  0  0  0
   19.0678  -16.8657  -17.8045 C   0  0  0  0  0  0  0  0  0  0  0  0
   18.2634  -16.7504  -18.9065 C   0  0  0  0  0  0  0  0  0  0  0  0
   17.3010  -15.8478  -18.6093 N   0  0  0  0  0  0  0  0  0  0  0  0
   17.4769  -15.3992  -17.3672 C   0  0  0  0  0  0  0  0  0  0  0  0
   18.5637  -16.0325  -16.8873 N   0  0  0  0  0  0  0  0  0  0  0  0
   22.6833  -17.6647  -17.1286 C   0  0  0  0  0  0  0  0  0  0  0  0
   23.1278  -18.5732  -17.9020 O   0  0  0  0  0  0  0  0  0  0  0  0
   26.3053  -14.9414  -15.1986 C   0  0  0  0  0  0  0  0  0  0  0  0
   26.0951  -16.2661  -15.8879 C   0  0  0  0  0  0  0  0  0  0  0  0
   25.5939  -17.3296  -14.9704 C   0  0  2  0  0  0  0  0  0  0  0  0
   26.7761  -18.1548  -14.5094 C   0  0  0  0  0  0  0  0  0  0  0  0
   24.5561  -18.2383  -15.5981 C   0  0  2  0  0  0  0  0  0  0  0  0
   23.3405  -17.4999  -15.9023 N   0  0  0  0  0  0  0  0  0  0  0  0
   24.2549  -19.4318  -14.7640 C   0  0  0  0  0  0  0  0  0  0  0  0
   23.6301  -19.4029  -13.6784 O   0  0  0  0  0  0  0  0  0  0  0  0
   24.4351  -24.4015  -14.3123 C   0  0  0  0  0  0  0  0  0  0  0  0
   24.6383  -23.1872  -15.1888 C   0  0  1  0  0  0  0  0  0  0  0  0
   23.7214  -23.3015  -16.3699 C   0  0  0  0  0  0  0  0  0  0  0  0
   24.4024  -21.9111  -14.4044 C   0  0  2  0  0  0  0  0  0  0  0  0
   24.6922  -20.7364  -15.1931 N   0  0  0  0  0  0  0  0  0  0  0  0
   25.3169  -21.9352  -13.2520 C   0  0  0  0  0  0  0  0  0  0  0  0
   24.8655  -22.3262  -12.0101 O   0  0  0  0  0  0  0  0  0  0  0  0
   26.5069  -21.6016  -13.3924 O   0  0  0  0  0  0  0  0  0  0  0  0
  2  1  1  6
  2  3  1  0
  2  9  1  0
  3  4  1  0
  4  5  2  0
  6  5  1  0
  7  6  1  0
  8  7  2  0
  8  4  1  0
  9 10  2  0
 12 11  1  0
 13 12  1  0
 13 14  1  6
 15 13  1  0
 16  9  1  0
 15 16  1  1
 17 18  2  0
 17 15  1  0
 20 19  1  1
 20 21  1  0
 20 22  1  0
 22 23  1  6
 23 17  1  0
 24 22  1  0
 24 25  1  0
 26 24  2  0
M  END
$$$$
