HIV.pdb
     RDKit          3D

 26 26  0  0  1  0  0  0  0  0999 V2000
   21.9306  -19.5170  -15.2119 N   0  0  0  0  0  0  0  0  0  0  0  0
   21.9568  -18.5356  -16.2486 C   0  0  1  0  0  0  0  0  0  0  0  0
   20.6109  -18.5072  -16.9717 C   0  0  0  0  0  0  0  0  0  0  0  0
   20.3533  -19.8265  -17.6231 C   0  0  0  0  0  0  0  0  0  0  0  0
   20.5051  -20.1507  -18.9447 C   0  0  0  0  0  0  0  0  0  0  0  0
   20.1581  -21.4506  -19.0823 N   0  0  0  0  0  0  0  0  0  0  0  0
   19.7974  -21.9449  -17.8988 C   0  0  0  0  0  0  0  0  0  0  0  0
   19.9225  -20.9372  -17.0148 N   0  0  0  0  0  0  0  0  0  0  0  0
   22.3407  -17.1958  -15.7955 C   0  0  0  0  0  0  0  0  0  0  0  0
   21.8239  -16.7688  -14.7130 O   0  0  0  0  0  0  0  0  0  0  0  0
   27.0464  -16.1899  -15.8287 C   0  0  0  0  0  0  0  0  0  0  0  0
   25.7803  -15.7556  -15.1340 C   0  0  0  0  0  0  0  0  0  0  0  0
   25.0050  -14.7450  -15.9097 C   0  0  2  0  0  0  0  0  0  0  0  0
   25.2680  -13.3810  -15.3085 C   0  0  0  0  0  0  0  0  0  0  0  0
   23.5127  -15.0081  -15.9347 C   0  0  2  0  0  0  0  0  0  0  0  0
   23.2320  -16.3377  -16.4529 N   0  0  0  0  0  0  0  0  0  0  0  0
   22.7579  -13.9752  -16.6925 C   0  0  0  0  0  0  0  0  0  0  0  0
   22.9087  -13.7350  -17.9129 O   0  0  0  0  0  0  0  0  0  0  0  0
   18.6670  -11.3650  -17.1961 C   0  0  0  0  0  0  0  0  0  0  0  0
   19.4852  -12.4227  -16.4921 C   0  0  1  0  0  0  0  0  0  0  0  0
   19.0107  -13.7683  -16.9537 C   0  0  0  0  0  0  0  0  0  0  0  0
   20.9654  -12.2197  -16.7513 C   0  0  2  0  0  0  0  0  0  0  0  0
   21.7723  -13.1677  -16.0189 N   0  0  0  0  0  0  0  0  0  0  0  0
   21.3047  -10.8647  -16.2889 C   0  0  0  0  0  0  0  0  0  0  0  0
   21.2780   -9.8008  -17.1643 O   0  0  0  0  0  0  0  0  0  0  0  0
   21.6186  -10.6708  -15.1011 O   0  0  0  0  0  0  0  0  0  0  0  0
  2  1  1  1
  2  3  1  0
  2  9  1  0
  3  4  1  0
  4  5  2  0
  6  5  1  0
  7  6  1  0
  8  7  2  0
  8  4  1  0
  9 10  2  0
 12 11  1  0
 13 12  1  0
 13 14  1  1
 15 13  1  0
 16  9  1  0
 15 16  1  6
 17 18  2  0
 17 15  1  0
 20 19  1  6
 20 21  1  0
 20 22  1  0
 22 23  1  1
 23 17  1  0
 24 22  1  0
 24 25  1  0
 26 24  2  0
M  END
$$$$
