HIV.pdb
     RDKit          3D

 26 26  0  0  1  0  0  0  0  0999 V2000
   19.7188  -20.3554  -12.3438 N   0  0  0  0  0  0  0  0  0  0  0  0
   20.6331  -21.3743  -12.7495 C   0  0  1  0  0  0  0  0  0  0  0  0
   20.1486  -22.0210  -14.0465 C   0  0  0  0  0  0  0  0  0  0  0  0
   18.8606  -22.7391  -13.8089 C   0  0  0  0  0  0  0  0  0  0  0  0
   18.6877  -24.0157  -13.3453 C   0  0  0  0  0  0  0  0  0  0  0  0
   17.3563  -24.2456  -13.2870 N   0  0  0  0  0  0  0  0  0  0  0  0
   16.6971  -23.1624  -13.6960 C   0  0  0  0  0  0  0  0  0  0  0  0
   17.6331  -22.2479  -14.0124 N   0  0  0  0  0  0  0  0  0  0  0  0
   22.0207  -20.9194  -12.8729 C   0  0  0  0  0  0  0  0  0  0  0  0
   22.2287  -19.8178  -13.4766 O   0  0  0  0  0  0  0  0  0  0  0  0
   25.4674  -20.7257   -8.8190 C   0  0  0  0  0  0  0  0  0  0  0  0
   24.7032  -20.4867  -10.0970 C   0  0  0  0  0  0  0  0  0  0  0  0
   25.2865  -21.2004  -11.2693 C   0  0  2  0  0  0  0  0  0  0  0  0
   26.6911  -20.6813  -11.4904 C   0  0  0  0  0  0  0  0  0  0  0  0
   24.4815  -21.0414  -12.5434 C   0  0  2  0  0  0  0  0  0  0  0  0
   23.1460  -21.5944  -12.3820 N   0  0  0  0  0  0  0  0  0  0  0  0
   25.1576  -21.6302  -13.7296 C   0  0  0  0  0  0  0  0  0  0  0  0
   25.4448  -22.8431  -13.8569 O   0  0  0  0  0  0  0  0  0  0  0  0
   26.9070  -20.9286  -18.3519 C   0  0  0  0  0  0  0  0  0  0  0  0
   26.1269  -20.3799  -17.1795 C   0  0  1  0  0  0  0  0  0  0  0  0
   24.7224  -20.1141  -17.6329 C   0  0  0  0  0  0  0  0  0  0  0  0
   26.1760  -21.3372  -16.0046 C   0  0  2  0  0  0  0  0  0  0  0  0
   25.5286  -20.7858  -14.8372 N   0  0  0  0  0  0  0  0  0  0  0  0
   27.5950  -21.5619  -15.6873 C   0  0  0  0  0  0  0  0  0  0  0  0
   28.2873  -20.6618  -14.9068 O   0  0  0  0  0  0  0  0  0  0  0  0
   28.1801  -22.5693  -16.1232 O   0  0  0  0  0  0  0  0  0  0  0  0
  2  1  1  6
  2  3  1  0
  2  9  1  0
  3  4  1  0
  4  5  2  0
  6  5  1  0
  7  6  1  0
  8  7  2  0
  8  4  1  0
  9 10  2  0
 12 11  1  0
 13 12  1  0
 13 14  1  6
 15 13  1  0
 16  9  1  0
 15 16  1  1
 17 18  2  0
 17 15  1  0
 20 19  1  6
 20 21  1  0
 20 22  1  0
 22 23  1  1
 23 17  1  0
 24 22  1  0
 24 25  1  0
 26 24  2  0
M  END
$$$$
