HIV.pdb
     RDKit          3D

 26 26  0  0  1  0  0  0  0  0999 V2000
   21.9496  -14.0233  -19.6022 N   0  0  0  0  0  0  0  0  0  0  0  0
   22.5349  -12.7275  -19.7324 C   0  0  1  0  0  0  0  0  0  0  0  0
   21.7957  -11.9287  -20.8050 C   0  0  0  0  0  0  0  0  0  0  0  0
   22.0257  -12.5417  -22.1476 C   0  0  0  0  0  0  0  0  0  0  0  0
   22.7621  -12.0339  -23.1841 C   0  0  0  0  0  0  0  0  0  0  0  0
   22.6937  -12.9239  -24.2001 N   0  0  0  0  0  0  0  0  0  0  0  0
   21.9442  -13.9630  -23.8346 C   0  0  0  0  0  0  0  0  0  0  0  0
   21.5422  -13.7138  -22.5741 N   0  0  0  0  0  0  0  0  0  0  0  0
   22.6140  -11.9769  -18.4762 C   0  0  0  0  0  0  0  0  0  0  0  0
   21.6240  -12.0552  -17.6792 O   0  0  0  0  0  0  0  0  0  0  0  0
   27.1238  -11.8761  -15.5547 C   0  0  0  0  0  0  0  0  0  0  0  0
   25.6999  -11.9011  -16.0507 C   0  0  0  0  0  0  0  0  0  0  0  0
   25.1021  -10.5411  -16.1807 C   0  0  2  0  0  0  0  0  0  0  0  0
   25.0786   -9.8997  -14.8098 C   0  0  0  0  0  0  0  0  0  0  0  0
   23.7030  -10.5422  -16.7631 C   0  0  2  0  0  0  0  0  0  0  0  0
   23.6898  -11.1756  -18.0723 N   0  0  0  0  0  0  0  0  0  0  0  0
   23.1044   -9.1827  -16.8277 C   0  0  0  0  0  0  0  0  0  0  0  0
   23.4679   -8.2810  -17.6180 O   0  0  0  0  0  0  0  0  0  0  0  0
   19.1979   -6.3557  -16.3201 C   0  0  0  0  0  0  0  0  0  0  0  0
   19.8907   -7.6986  -16.3469 C   0  0  1  0  0  0  0  0  0  0  0  0
   19.6507   -8.3244  -17.6885 C   0  0  0  0  0  0  0  0  0  0  0  0
   21.3687   -7.5483  -16.0434 C   0  0  2  0  0  0  0  0  0  0  0  0
   22.0267   -8.8297  -15.9379 N   0  0  0  0  0  0  0  0  0  0  0  0
   21.4775   -6.8612  -14.7469 C   0  0  0  0  0  0  0  0  0  0  0  0
   21.7092   -7.5785  -13.5934 O   0  0  0  0  0  0  0  0  0  0  0  0
   21.3605   -5.6245  -14.6842 O   0  0  0  0  0  0  0  0  0  0  0  0
  2  1  1  1
  2  3  1  0
  2  9  1  0
  3  4  1  0
  4  5  2  0
  6  5  1  0
  7  6  1  0
  8  7  2  0
  8  4  1  0
  9 10  2  0
 12 11  1  0
 13 12  1  0
 13 14  1  1
 15 13  1  0
 16  9  1  0
 15 16  1  6
 17 18  2  0
 17 15  1  0
 20 19  1  6
 20 21  1  0
 20 22  1  0
 22 23  1  1
 23 17  1  0
 24 22  1  0
 24 25  1  0
 26 24  2  0
M  END
$$$$
