HIV.pdb
     RDKit          3D

 26 26  0  0  1  0  0  0  0  0999 V2000
   18.9534  -14.1379  -17.7932 N   0  0  0  0  0  0  0  0  0  0  0  0
   19.2281  -12.7818  -18.1455 C   0  0  1  0  0  0  0  0  0  0  0  0
   17.9563  -12.1114  -18.6633 C   0  0  0  0  0  0  0  0  0  0  0  0
   17.4759  -12.8092  -19.8936 C   0  0  0  0  0  0  0  0  0  0  0  0
   16.2939  -13.4777  -20.0685 C   0  0  0  0  0  0  0  0  0  0  0  0
   16.2823  -13.9493  -21.3360 N   0  0  0  0  0  0  0  0  0  0  0  0
   17.4100  -13.5998  -21.9535 C   0  0  0  0  0  0  0  0  0  0  0  0
   18.1310  -12.9015  -21.0562 N   0  0  0  0  0  0  0  0  0  0  0  0
   19.8387  -11.9954  -17.0701 C   0  0  0  0  0  0  0  0  0  0  0  0
   19.2998  -12.0537  -15.9180 O   0  0  0  0  0  0  0  0  0  0  0  0
   24.4494  -12.6499  -15.1548 C   0  0  0  0  0  0  0  0  0  0  0  0
   23.0228  -12.2498  -15.4358 C   0  0  0  0  0  0  0  0  0  0  0  0
   22.8669  -10.7916  -15.7063 C   0  0  2  0  0  0  0  0  0  0  0  0
   23.3010  -10.0306  -14.4719 C   0  0  0  0  0  0  0  0  0  0  0  0
   21.4549  -10.3873  -16.0797 C   0  0  2  0  0  0  0  0  0  0  0  0
   20.9705  -11.1798  -17.1989 N   0  0  0  0  0  0  0  0  0  0  0  0
   21.3283   -8.9340  -16.3671 C   0  0  0  0  0  0  0  0  0  0  0  0
   22.0100   -8.3136  -17.2158 O   0  0  0  0  0  0  0  0  0  0  0  0
   18.3301   -7.1772  -17.6135 C   0  0  0  0  0  0  0  0  0  0  0  0
   18.7110   -6.4696  -16.3336 C   0  0  1  0  0  0  0  0  0  0  0  0
   17.7654   -6.9076  -15.2552 C   0  0  0  0  0  0  0  0  0  0  0  0
   20.1570   -6.7497  -15.9731 C   0  0  2  0  0  0  0  0  0  0  0  0
   20.3671   -8.1401  -15.6437 N   0  0  0  0  0  0  0  0  0  0  0  0
   20.4735   -5.9376  -14.7876 C   0  0  0  0  0  0  0  0  0  0  0  0
   20.6659   -6.5366  -13.5616 O   0  0  0  0  0  0  0  0  0  0  0  0
   20.5695   -4.7014  -14.8855 O   0  0  0  0  0  0  0  0  0  0  0  0
  2  1  1  1
  2  3  1  0
  2  9  1  0
  3  4  1  0
  4  5  2  0
  6  5  1  0
  7  6  1  0
  8  7  2  0
  8  4  1  0
  9 10  2  0
 12 11  1  0
 13 12  1  0
 13 14  1  1
 15 13  1  0
 16  9  1  0
 15 16  1  6
 17 18  2  0
 17 15  1  0
 20 19  1  6
 20 21  1  0
 20 22  1  0
 22 23  1  1
 23 17  1  0
 24 22  1  0
 24 25  1  0
 26 24  2  0
M  END
$$$$
