HIV.pdb
     RDKit          3D

 26 26  0  0  1  0  0  0  0  0999 V2000
   28.2969  -21.3438  -16.6913 N   0  0  0  0  0  0  0  0  0  0  0  0
   27.7003  -20.3199  -15.8949 C   0  0  1  0  0  0  0  0  0  0  0  0
   27.0362  -19.2805  -16.7969 C   0  0  0  0  0  0  0  0  0  0  0  0
   28.0742  -18.5498  -17.5842 C   0  0  0  0  0  0  0  0  0  0  0  0
   28.9742  -17.6251  -17.1265 C   0  0  0  0  0  0  0  0  0  0  0  0
   29.7170  -17.2287  -18.1849 N   0  0  0  0  0  0  0  0  0  0  0  0
   29.3133  -17.8708  -19.2802 C   0  0  0  0  0  0  0  0  0  0  0  0
   28.3058  -18.6768  -18.8956 N   0  0  0  0  0  0  0  0  0  0  0  0
   26.7631  -20.8170  -14.8839 C   0  0  0  0  0  0  0  0  0  0  0  0
   25.9829  -21.7659  -15.2189 O   0  0  0  0  0  0  0  0  0  0  0  0
   27.9655  -21.1662   -9.5905 C   0  0  0  0  0  0  0  0  0  0  0  0
   27.4188  -21.4415  -10.9687 C   0  0  0  0  0  0  0  0  0  0  0  0
   26.1146  -20.7656  -11.2262 C   0  0  2  0  0  0  0  0  0  0  0  0
   25.0749  -21.3753  -10.3104 C   0  0  0  0  0  0  0  0  0  0  0  0
   25.6463  -20.8695  -12.6638 C   0  0  2  0  0  0  0  0  0  0  0  0
   26.6493  -20.3371  -13.5726 N   0  0  0  0  0  0  0  0  0  0  0  0
   24.3292  -20.2175  -12.8895 C   0  0  0  0  0  0  0  0  0  0  0  0
   24.1252  -18.9829  -12.8258 O   0  0  0  0  0  0  0  0  0  0  0  0
   22.2760  -19.8166  -15.7796 C   0  0  0  0  0  0  0  0  0  0  0  0
   21.3843  -20.5678  -14.8180 C   0  0  1  0  0  0  0  0  0  0  0  0
   21.3361  -22.0041  -15.2463 C   0  0  0  0  0  0  0  0  0  0  0  0
   21.8784  -20.4134  -13.3927 C   0  0  2  0  0  0  0  0  0  0  0  0
   23.1754  -21.0209  -13.2068 N   0  0  0  0  0  0  0  0  0  0  0  0
   20.9127  -21.1021  -12.5221 C   0  0  0  0  0  0  0  0  0  0  0  0
   19.7319  -20.4880  -12.1654 O   0  0  0  0  0  0  0  0  0  0  0  0
   21.1574  -22.2468  -12.1014 O   0  0  0  0  0  0  0  0  0  0  0  0
  2  1  1  6
  2  3  1  0
  2  9  1  0
  3  4  1  0
  4  5  2  0
  6  5  1  0
  7  6  1  0
  8  7  2  0
  8  4  1  0
  9 10  2  0
 12 11  1  0
 13 12  1  0
 13 14  1  1
 15 13  1  0
 16  9  1  0
 15 16  1  6
 17 18  2  0
 17 15  1  0
 20 19  1  6
 20 21  1  0
 20 22  1  0
 22 23  1  6
 23 17  1  0
 24 22  1  0
 24 25  1  0
 26 24  2  0
M  END
$$$$
