HIV.pdb
     RDKit          3D

 26 26  0  0  1  0  0  0  0  0999 V2000
   22.0903  -19.9743  -16.4175 N   0  0  0  0  0  0  0  0  0  0  0  0
   22.8627  -19.0991  -15.5952 C   0  0  1  0  0  0  0  0  0  0  0  0
   21.9457  -18.3473  -14.6314 C   0  0  0  0  0  0  0  0  0  0  0  0
   21.2679  -17.2229  -15.3436 C   0  0  0  0  0  0  0  0  0  0  0  0
   21.6877  -15.9237  -15.4464 C   0  0  0  0  0  0  0  0  0  0  0  0
   20.7654  -15.2598  -16.1797 N   0  0  0  0  0  0  0  0  0  0  0  0
   19.7909  -16.0957  -16.5355 C   0  0  0  0  0  0  0  0  0  0  0  0
   20.1134  -17.2949  -16.0155 N   0  0  0  0  0  0  0  0  0  0  0  0
   23.9549  -19.7610  -14.8764 C   0  0  0  0  0  0  0  0  0  0  0  0
   23.6815  -20.8330  -14.2461 O   0  0  0  0  0  0  0  0  0  0  0  0
   28.9359  -20.1651  -16.9261 C   0  0  0  0  0  0  0  0  0  0  0  0
   27.6435  -20.4457  -16.2015 C   0  0  0  0  0  0  0  0  0  0  0  0
   27.6422  -19.9505  -14.7949 C   0  0  2  0  0  0  0  0  0  0  0  0
   28.6811  -20.7289  -14.0165 C   0  0  0  0  0  0  0  0  0  0  0  0
   26.2978  -20.0715  -14.1061 C   0  0  2  0  0  0  0  0  0  0  0  0
   25.2819  -19.3153  -14.8213 N   0  0  0  0  0  0  0  0  0  0  0  0
   26.3451  -19.6709  -12.6750 C   0  0  0  0  0  0  0  0  0  0  0  0
   26.4499  -18.4903  -12.2688 O   0  0  0  0  0  0  0  0  0  0  0  0
   25.2565  -20.4783   -8.0088 C   0  0  0  0  0  0  0  0  0  0  0  0
   25.1660  -20.8740   -9.4645 C   0  0  1  0  0  0  0  0  0  0  0  0
   23.8481  -20.3988   -9.9996 C   0  0  0  0  0  0  0  0  0  0  0  0
   26.3362  -20.3129  -10.2489 C   0  0  2  0  0  0  0  0  0  0  0  0
   26.2685  -20.6763  -11.6451 N   0  0  0  0  0  0  0  0  0  0  0  0
   27.5606  -20.8936   -9.6757 C   0  0  0  0  0  0  0  0  0  0  0  0
   28.2258  -21.9074  -10.3305 O   0  0  0  0  0  0  0  0  0  0  0  0
   28.0041  -20.4714   -8.5930 O   0  0  0  0  0  0  0  0  0  0  0  0
  2  1  1  1
  2  3  1  0
  2  9  1  0
  3  4  1  0
  4  5  2  0
  6  5  1  0
  7  6  1  0
  8  7  2  0
  8  4  1  0
  9 10  2  0
 12 11  1  0
 13 12  1  0
 13 14  1  1
 15 13  1  0
 16  9  1  0
 15 16  1  6
 17 18  2  0
 17 15  1  0
 20 19  1  1
 20 21  1  0
 20 22  1  0
 22 23  1  6
 23 17  1  0
 24 22  1  0
 24 25  1  0
 26 24  2  0
M  END
$$$$
