HIV.pdb
     RDKit          3D

 26 26  0  0  1  0  0  0  0  0999 V2000
   28.2532  -22.2884  -16.6431 N   0  0  0  0  0  0  0  0  0  0  0  0
   27.4613  -21.1730  -16.2342 C   0  0  1  0  0  0  0  0  0  0  0  0
   26.6871  -20.6191  -17.4296 C   0  0  0  0  0  0  0  0  0  0  0  0
   27.6244  -19.9438  -18.3765 C   0  0  0  0  0  0  0  0  0  0  0  0
   28.4045  -20.5261  -19.3393 C   0  0  0  0  0  0  0  0  0  0  0  0
   29.0893  -19.5359  -19.9554 N   0  0  0  0  0  0  0  0  0  0  0  0
   28.7647  -18.3631  -19.4129 C   0  0  0  0  0  0  0  0  0  0  0  0
   27.8659  -18.6300  -18.4466 N   0  0  0  0  0  0  0  0  0  0  0  0
   26.5647  -21.4549  -15.1098 C   0  0  0  0  0  0  0  0  0  0  0  0
   25.8728  -22.5226  -15.1606 O   0  0  0  0  0  0  0  0  0  0  0  0
   28.1398  -21.2446  -10.0957 C   0  0  0  0  0  0  0  0  0  0  0  0
   27.4320  -21.5705  -11.3868 C   0  0  0  0  0  0  0  0  0  0  0  0
   26.1473  -20.8315  -11.5521 C   0  0  2  0  0  0  0  0  0  0  0  0
   25.1980  -21.2797  -10.4616 C   0  0  0  0  0  0  0  0  0  0  0  0
   25.4959  -21.0343  -12.9053 C   0  0  2  0  0  0  0  0  0  0  0  0
   26.4008  -20.6479  -13.9764 N   0  0  0  0  0  0  0  0  0  0  0  0
   24.1950  -20.3253  -13.0309 C   0  0  0  0  0  0  0  0  0  0  0  0
   24.0625  -19.0798  -13.0612 O   0  0  0  0  0  0  0  0  0  0  0  0
   22.1517  -19.6982  -15.6400 C   0  0  0  0  0  0  0  0  0  0  0  0
   21.2229  -20.4732  -14.7341 C   0  0  1  0  0  0  0  0  0  0  0  0
   21.1353  -21.8807  -15.2442 C   0  0  0  0  0  0  0  0  0  0  0  0
   21.7010  -20.4158  -13.2963 C   0  0  2  0  0  0  0  0  0  0  0  0
   22.9717  -21.0814  -13.1275 N   0  0  0  0  0  0  0  0  0  0  0  0
   20.6976  -21.1141  -12.4774 C   0  0  0  0  0  0  0  0  0  0  0  0
   19.5418  -20.4712  -12.0904 O   0  0  0  0  0  0  0  0  0  0  0  0
   20.8873  -22.2928  -12.1285 O   0  0  0  0  0  0  0  0  0  0  0  0
  2  1  1  6
  2  3  1  0
  2  9  1  0
  3  4  1  0
  4  5  2  0
  6  5  1  0
  7  6  1  0
  8  7  2  0
  8  4  1  0
  9 10  2  0
 12 11  1  0
 13 12  1  0
 13 14  1  1
 15 13  1  0
 16  9  1  0
 15 16  1  6
 17 18  2  0
 17 15  1  0
 20 19  1  6
 20 21  1  0
 20 22  1  0
 22 23  1  6
 23 17  1  0
 24 22  1  0
 24 25  1  0
 26 24  2  0
M  END
$$$$
