WAE.pdb
     RDKit          3D

 29 30  0  0  1  0  0  0  0  0999 V2000
    6.5014  -17.8336   24.6816 N   0  0  0  0  0  0  0  0  0  0  0  0
    6.9378  -16.5943   24.0445 C   0  0  1  0  0  0  0  0  0  0  0  0
    7.7877  -15.8796   25.0545 C   0  0  0  0  0  0  0  0  0  0  0  0
    7.0157  -14.8975   25.8574 C   0  0  0  0  0  0  0  0  0  0  0  0
    5.9711  -15.1983   26.7180 C   0  0  0  0  0  0  0  0  0  0  0  0
    5.5579  -14.0286   27.2359 N   0  0  0  0  0  0  0  0  0  0  0  0
    6.2765  -13.0132   26.7551 C   0  0  0  0  0  0  0  0  0  0  0  0
    6.2588  -11.6333   26.9586 C   0  0  0  0  0  0  0  0  0  0  0  0
    7.1359  -10.7858   26.3166 C   0  0  0  0  0  0  0  0  0  0  0  0
    8.0705  -11.2998   25.4391 C   0  0  0  0  0  0  0  0  0  0  0  0
    8.0805  -12.6711   25.2433 C   0  0  0  0  0  0  0  0  0  0  0  0
    7.2035  -13.5270   25.8840 C   0  0  0  0  0  0  0  0  0  0  0  0
    7.6731  -16.8780   22.7861 C   0  0  0  0  0  0  0  0  0  0  0  0
    8.4865  -17.8320   22.6871 O   0  0  0  0  0  0  0  0  0  0  0  0
    8.0952  -15.0404   19.4740 C   0  0  0  0  0  0  0  0  0  0  0  0
    8.3815  -16.1346   20.4756 C   0  0  2  0  0  0  0  0  0  0  0  0
    7.5020  -16.0845   21.6089 N   0  0  0  0  0  0  0  0  0  0  0  0
    9.8153  -16.0952   20.8670 C   0  0  0  0  0  0  0  0  0  0  0  0
   10.2839  -15.0148   21.3034 O   0  0  0  0  0  0  0  0  0  0  0  0
   10.6566  -17.2328   20.7610 N   0  0  0  0  0  0  0  0  0  0  0  0
   12.0807  -17.1769   21.1138 C   0  0  1  0  0  0  0  0  0  0  0  0
   12.3632  -18.0247   22.3224 C   0  0  0  0  0  0  0  0  0  0  0  0
   11.6981  -17.5821   23.5765 C   0  0  0  0  0  0  0  0  0  0  0  0
   11.9873  -18.5543   24.6568 C   0  0  0  0  0  0  0  0  0  0  0  0
   12.2879  -19.7289   24.3508 O   0  0  0  0  0  0  0  0  0  0  0  0
   12.8682  -17.5093   19.9266 C   0  0  0  0  0  0  0  0  0  0  0  0
   14.1100  -17.3565   19.8573 O   0  0  0  0  0  0  0  0  0  0  0  0
   11.9421  -18.2284   26.0044 O   0  0  0  0  0  0  0  0  0  0  0  0
   12.2541  -18.0260   18.7860 O   0  0  0  0  0  0  0  0  0  0  0  0
  2  1  1  1
  2  3  1  0
  2 13  1  0
  3  4  1  0
  4 12  1  0
  5  6  1  0
  5  4  2  0
  6  7  1  0
  7 12  2  0
  7  8  1  0
  8  9  2  0
  9 10  1  0
 11 10  2  0
 12 11  1  0
 13 14  2  0
 16 15  1  6
 17 13  1  0
 17 16  1  0
 18 16  1  0
 18 19  2  0
 20 18  1  0
 21 20  1  0
 21 26  1  0
 21 22  1  1
 23 24  1  0
 23 22  1  0
 24 25  2  0
 26 27  2  0
 26 29  1  0
 28 24  1  0
M  END
$$$$
