WAE.pdb
     RDKit          3D

 29 30  0  0  1  0  0  0  0  0999 V2000
    6.4432  -17.7153   23.7364 N   0  0  0  0  0  0  0  0  0  0  0  0
    6.7886  -16.3286   23.4366 C   0  0  1  0  0  0  0  0  0  0  0  0
    7.7571  -15.8978   24.4996 C   0  0  0  0  0  0  0  0  0  0  0  0
    7.1012  -15.1419   25.5966 C   0  0  0  0  0  0  0  0  0  0  0  0
    6.2772  -15.6821   26.5720 C   0  0  0  0  0  0  0  0  0  0  0  0
    5.9008  -14.6595   27.3592 N   0  0  0  0  0  0  0  0  0  0  0  0
    6.4361  -13.5123   26.9401 C   0  0  0  0  0  0  0  0  0  0  0  0
    6.3678  -12.1924   27.3864 C   0  0  0  0  0  0  0  0  0  0  0  0
    7.0362  -11.1678   26.7515 C   0  0  0  0  0  0  0  0  0  0  0  0
    7.8042  -11.4357   25.6352 C   0  0  0  0  0  0  0  0  0  0  0  0
    7.8660  -12.7492   25.1994 C   0  0  0  0  0  0  0  0  0  0  0  0
    7.1980  -13.7818   25.8315 C   0  0  0  0  0  0  0  0  0  0  0  0
    7.3587  -16.2098   22.0706 C   0  0  0  0  0  0  0  0  0  0  0  0
    8.0329  -17.1320   21.5446 O   0  0  0  0  0  0  0  0  0  0  0  0
    7.7850  -13.4062   19.5483 C   0  0  0  0  0  0  0  0  0  0  0  0
    7.7740  -14.8549   19.9768 C   0  0  2  0  0  0  0  0  0  0  0  0
    7.1764  -15.0401   21.2687 N   0  0  0  0  0  0  0  0  0  0  0  0
    9.1506  -15.4115   19.9024 C   0  0  0  0  0  0  0  0  0  0  0  0
    9.6432  -15.6323   18.7684 O   0  0  0  0  0  0  0  0  0  0  0  0
    9.9119  -15.6960   21.0655 N   0  0  0  0  0  0  0  0  0  0  0  0
   11.3201  -16.1043   20.9871 C   0  0  1  0  0  0  0  0  0  0  0  0
   12.0431  -15.7686   22.2613 C   0  0  0  0  0  0  0  0  0  0  0  0
   12.6586  -16.9253   22.9645 C   0  0  0  0  0  0  0  0  0  0  0  0
   13.9907  -16.5345   23.4826 C   0  0  0  0  0  0  0  0  0  0  0  0
   14.3666  -15.3487   23.3554 O   0  0  0  0  0  0  0  0  0  0  0  0
   11.3757  -17.5130   20.5965 C   0  0  0  0  0  0  0  0  0  0  0  0
   10.4050  -18.2980   20.7051 O   0  0  0  0  0  0  0  0  0  0  0  0
   14.8531  -17.4228   24.1083 O   0  0  0  0  0  0  0  0  0  0  0  0
   12.5454  -18.0610   20.0705 O   0  0  0  0  0  0  0  0  0  0  0  0
  2  1  1  1
  2  3  1  0
  2 13  1  0
  3  4  1  0
  4 12  1  0
  5  6  1  0
  5  4  2  0
  6  7  1  0
  7 12  2  0
  7  8  1  0
  8  9  2  0
  9 10  1  0
 11 10  2  0
 12 11  1  0
 13 14  2  0
 16 15  1  1
 17 13  1  0
 17 16  1  0
 18 16  1  0
 18 19  2  0
 20 18  1  0
 21 20  1  0
 21 26  1  0
 21 22  1  1
 23 24  1  0
 23 22  1  0
 24 25  2  0
 26 27  2  0
 26 29  1  0
 28 24  1  0
M  END
$$$$
