WAE.pdb
     RDKit          3D

 29 30  0  0  1  0  0  0  0  0999 V2000
    6.8303  -16.6396   23.5124 N   0  0  0  0  0  0  0  0  0  0  0  0
    8.1645  -17.1230   23.1679 C   0  0  1  0  0  0  0  0  0  0  0  0
    8.4085  -16.7055   21.7469 C   0  0  0  0  0  0  0  0  0  0  0  0
    7.6380  -15.4939   21.3678 C   0  0  0  0  0  0  0  0  0  0  0  0
    6.2667  -15.3338   21.4957 C   0  0  0  0  0  0  0  0  0  0  0  0
    5.9848  -14.1013   21.0387 N   0  0  0  0  0  0  0  0  0  0  0  0
    7.0916  -13.4781   20.6325 C   0  0  0  0  0  0  0  0  0  0  0  0
    7.3493  -12.2198   20.0881 C   0  0  0  0  0  0  0  0  0  0  0  0
    8.6216  -11.8152   19.7456 C   0  0  0  0  0  0  0  0  0  0  0  0
    9.6900  -12.6688   19.9399 C   0  0  0  0  0  0  0  0  0  0  0  0
    9.4244  -13.9161   20.4808 C   0  0  0  0  0  0  0  0  0  0  0  0
    8.1506  -14.3284   20.8266 C   0  0  0  0  0  0  0  0  0  0  0  0
    9.1817  -16.5754   24.1008 C   0  0  0  0  0  0  0  0  0  0  0  0
   10.4087  -16.8183   23.9703 O   0  0  0  0  0  0  0  0  0  0  0  0
    9.2800  -14.0529   26.9248 C   0  0  0  0  0  0  0  0  0  0  0  0
    9.7649  -15.2833   26.1943 C   0  0  2  0  0  0  0  0  0  0  0  0
    8.8295  -15.7378   25.2049 N   0  0  0  0  0  0  0  0  0  0  0  0
   10.1153  -16.3445   27.1748 C   0  0  0  0  0  0  0  0  0  0  0  0
    9.2542  -16.6757   28.0270 O   0  0  0  0  0  0  0  0  0  0  0  0
   11.3819  -16.9841   27.1721 N   0  0  0  0  0  0  0  0  0  0  0  0
   11.6987  -18.0760   28.1012 C   0  0  1  0  0  0  0  0  0  0  0  0
   12.3377  -19.2253   27.3733 C   0  0  0  0  0  0  0  0  0  0  0  0
   11.5187  -19.8195   26.2836 C   0  0  0  0  0  0  0  0  0  0  0  0
   12.2850  -20.9050   25.6277 C   0  0  0  0  0  0  0  0  0  0  0  0
   11.9146  -21.3165   24.5065 O   0  0  0  0  0  0  0  0  0  0  0  0
   12.4834  -17.5319   29.2094 C   0  0  0  0  0  0  0  0  0  0  0  0
   12.8006  -18.1977   30.2225 O   0  0  0  0  0  0  0  0  0  0  0  0
   13.4037  -21.4961   26.1964 O   0  0  0  0  0  0  0  0  0  0  0  0
   12.9263  -16.2096   29.1871 O   0  0  0  0  0  0  0  0  0  0  0  0
  2  1  1  1
  2  3  1  0
  2 13  1  0
  3  4  1  0
  4 12  1  0
  5  6  1  0
  5  4  2  0
  6  7  1  0
  7 12  2  0
  7  8  1  0
  8  9  2  0
  9 10  1  0
 11 10  2  0
 12 11  1  0
 13 14  2  0
 16 15  1  1
 17 13  1  0
 17 16  1  0
 18 16  1  0
 18 19  2  0
 20 18  1  0
 21 20  1  0
 21 26  1  0
 21 22  1  6
 23 24  1  0
 23 22  1  0
 24 25  2  0
 26 27  2  0
 26 29  1  0
 28 24  1  0
M  END
$$$$
