WAE.pdb
     RDKit          3D

 29 30  0  0  1  0  0  0  0  0999 V2000
    6.3967  -18.1405   24.7070 N   0  0  0  0  0  0  0  0  0  0  0  0
    6.9095  -16.8935   24.1462 C   0  0  1  0  0  0  0  0  0  0  0  0
    7.7288  -16.2520   25.2281 C   0  0  0  0  0  0  0  0  0  0  0  0
    7.0349  -15.1035   25.8643 C   0  0  0  0  0  0  0  0  0  0  0  0
    5.8252  -15.1615   26.5392 C   0  0  0  0  0  0  0  0  0  0  0  0
    5.5611  -13.9097   26.9520 N   0  0  0  0  0  0  0  0  0  0  0  0
    6.5278  -13.0702   26.5792 C   0  0  0  0  0  0  0  0  0  0  0  0
    6.7381  -11.7012   26.7456 C   0  0  0  0  0  0  0  0  0  0  0  0
    7.8531  -11.0641   26.2451 C   0  0  0  0  0  0  0  0  0  0  0  0
    8.8050  -11.7868   25.5529 C   0  0  0  0  0  0  0  0  0  0  0  0
    8.5877  -13.1455   25.3925 C   0  0  0  0  0  0  0  0  0  0  0  0
    7.4714  -13.7909   25.8921 C   0  0  0  0  0  0  0  0  0  0  0  0
    7.7007  -17.1535   22.9168 C   0  0  0  0  0  0  0  0  0  0  0  0
    8.2140  -18.2761   22.6765 O   0  0  0  0  0  0  0  0  0  0  0  0
    8.6561  -15.1646   19.8063 C   0  0  0  0  0  0  0  0  0  0  0  0
    8.7202  -16.3428   20.7499 C   0  0  2  0  0  0  0  0  0  0  0  0
    7.9278  -16.1439   21.9300 N   0  0  0  0  0  0  0  0  0  0  0  0
   10.1386  -16.6582   21.0644 C   0  0  0  0  0  0  0  0  0  0  0  0
   10.9419  -16.8047   20.1100 O   0  0  0  0  0  0  0  0  0  0  0  0
   10.6017  -16.7962   22.3985 N   0  0  0  0  0  0  0  0  0  0  0  0
   12.0174  -17.0372   22.7046 C   0  0  1  0  0  0  0  0  0  0  0  0
   12.8784  -15.9451   22.1344 C   0  0  0  0  0  0  0  0  0  0  0  0
   14.2886  -15.9385   22.6060 C   0  0  0  0  0  0  0  0  0  0  0  0
   15.1678  -15.4408   21.5221 C   0  0  0  0  0  0  0  0  0  0  0  0
   14.6522  -14.8621   20.5408 O   0  0  0  0  0  0  0  0  0  0  0  0
   12.1536  -17.2440   24.1464 C   0  0  0  0  0  0  0  0  0  0  0  0
   12.9522  -18.0660   24.6530 O   0  0  0  0  0  0  0  0  0  0  0  0
   16.5476  -15.5835   21.5371 O   0  0  0  0  0  0  0  0  0  0  0  0
   11.3782  -16.5144   25.0472 O   0  0  0  0  0  0  0  0  0  0  0  0
  2  1  1  1
  2  3  1  0
  2 13  1  0
  3  4  1  0
  4 12  1  0
  5  6  1  0
  5  4  2  0
  6  7  1  0
  7 12  2  0
  7  8  1  0
  8  9  2  0
  9 10  1  0
 11 10  2  0
 12 11  1  0
 13 14  2  0
 16 15  1  6
 17 13  1  0
 17 16  1  0
 18 16  1  0
 18 19  2  0
 20 18  1  0
 21 20  1  0
 21 26  1  0
 21 22  1  1
 23 24  1  0
 23 22  1  0
 24 25  2  0
 26 27  2  0
 26 29  1  0
 28 24  1  0
M  END
$$$$
