WAE.pdb
     RDKit          3D

 29 30  0  0  1  0  0  0  0  0999 V2000
    6.6726  -17.4466   23.6199 N   0  0  0  0  0  0  0  0  0  0  0  0
    7.8151  -16.5747   23.3617 C   0  0  1  0  0  0  0  0  0  0  0  0
    8.3625  -16.1905   24.7055 C   0  0  0  0  0  0  0  0  0  0  0  0
    7.5078  -15.1996   25.4077 C   0  0  0  0  0  0  0  0  0  0  0  0
    6.2657  -15.4550   25.9682 C   0  0  0  0  0  0  0  0  0  0  0  0
    5.8425  -14.2936   26.4968 N   0  0  0  0  0  0  0  0  0  0  0  0
    6.7397  -13.3261   26.3037 C   0  0  0  0  0  0  0  0  0  0  0  0
    6.7924  -11.9737   26.6414 C   0  0  0  0  0  0  0  0  0  0  0  0
    7.8671  -11.1764   26.3112 C   0  0  0  0  0  0  0  0  0  0  0  0
    8.9369  -11.7150   25.6235 C   0  0  0  0  0  0  0  0  0  0  0  0
    8.8758  -13.0588   25.2924 C   0  0  0  0  0  0  0  0  0  0  0  0
    7.8007  -13.8643   25.6205 C   0  0  0  0  0  0  0  0  0  0  0  0
    8.8236  -17.2624   22.5160 C   0  0  0  0  0  0  0  0  0  0  0  0
    9.0007  -18.5065   22.5642 O   0  0  0  0  0  0  0  0  0  0  0  0
   11.2611  -16.2342   19.7723 C   0  0  0  0  0  0  0  0  0  0  0  0
   10.6890  -17.1693   20.8119 C   0  0  2  0  0  0  0  0  0  0  0  0
    9.6556  -16.5529   21.5945 N   0  0  0  0  0  0  0  0  0  0  0  0
   11.7860  -17.7192   21.6513 C   0  0  0  0  0  0  0  0  0  0  0  0
   12.6800  -18.4007   21.0912 O   0  0  0  0  0  0  0  0  0  0  0  0
   11.8474  -17.4964   23.0512 N   0  0  0  0  0  0  0  0  0  0  0  0
   12.9401  -18.0326   23.8724 C   0  0  1  0  0  0  0  0  0  0  0  0
   14.2703  -17.5408   23.3746 C   0  0  0  0  0  0  0  0  0  0  0  0
   14.5423  -16.0984   23.6126 C   0  0  0  0  0  0  0  0  0  0  0  0
   15.8937  -15.7621   23.1063 C   0  0  0  0  0  0  0  0  0  0  0  0
   16.3140  -14.5911   23.2317 O   0  0  0  0  0  0  0  0  0  0  0  0
   12.6564  -17.7361   25.2765 C   0  0  0  0  0  0  0  0  0  0  0  0
   11.7380  -16.9687   25.6478 O   0  0  0  0  0  0  0  0  0  0  0  0
   16.7274  -16.6864   22.4938 O   0  0  0  0  0  0  0  0  0  0  0  0
   13.4176  -18.3110   26.2940 O   0  0  0  0  0  0  0  0  0  0  0  0
  2  1  1  1
  2  3  1  0
  2 13  1  0
  3  4  1  0
  4 12  1  0
  5  6  1  0
  5  4  2  0
  6  7  1  0
  7 12  2  0
  7  8  1  0
  8  9  2  0
  9 10  1  0
 11 10  2  0
 12 11  1  0
 13 14  2  0
 16 15  1  6
 17 13  1  0
 17 16  1  0
 18 16  1  0
 18 19  2  0
 20 18  1  0
 21 20  1  0
 21 26  1  0
 21 22  1  6
 23 24  1  0
 23 22  1  0
 24 25  2  0
 26 27  2  0
 26 29  1  0
 28 24  1  0
M  END
$$$$
