WAE.pdb
     RDKit          3D

 29 30  0  0  1  0  0  0  0  0999 V2000
    6.6053  -16.8202   25.4311 N   0  0  0  0  0  0  0  0  0  0  0  0
    7.1283  -15.6797   24.6842 C   0  0  1  0  0  0  0  0  0  0  0  0
    8.3514  -15.2193   25.4226 C   0  0  0  0  0  0  0  0  0  0  0  0
    8.0246  -14.3555   26.5854 C   0  0  0  0  0  0  0  0  0  0  0  0
    8.4848  -14.5339   27.8810 C   0  0  0  0  0  0  0  0  0  0  0  0
    7.9524  -13.5396   28.6126 N   0  0  0  0  0  0  0  0  0  0  0  0
    7.1876  -12.7490   27.8588 C   0  0  0  0  0  0  0  0  0  0  0  0
    6.4264  -11.6085   28.1153 C   0  0  0  0  0  0  0  0  0  0  0  0
    5.7092  -10.9678   27.1279 C   0  0  0  0  0  0  0  0  0  0  0  0
    5.7318  -11.4551   25.8357 C   0  0  0  0  0  0  0  0  0  0  0  0
    6.4904  -12.5880   25.5905 C   0  0  0  0  0  0  0  0  0  0  0  0
    7.2121  -13.2356   26.5763 C   0  0  0  0  0  0  0  0  0  0  0  0
    7.4252  -16.0596   23.2797 C   0  0  0  0  0  0  0  0  0  0  0  0
    7.7982  -17.2186   22.9648 O   0  0  0  0  0  0  0  0  0  0  0  0
    7.7131  -14.1309   20.0003 C   0  0  0  0  0  0  0  0  0  0  0  0
    7.9207  -15.3154   20.9147 C   0  0  2  0  0  0  0  0  0  0  0  0
    7.3054  -15.1316   22.1985 N   0  0  0  0  0  0  0  0  0  0  0  0
    9.3717  -15.6219   21.0187 C   0  0  0  0  0  0  0  0  0  0  0  0
   10.1135  -14.7982   21.6093 O   0  0  0  0  0  0  0  0  0  0  0  0
    9.9324  -16.8062   20.4745 N   0  0  0  0  0  0  0  0  0  0  0  0
   11.3649  -17.1072   20.5894 C   0  0  1  0  0  0  0  0  0  0  0  0
   11.5755  -18.4995   21.1150 C   0  0  0  0  0  0  0  0  0  0  0  0
   10.6662  -19.5333   20.5534 C   0  0  0  0  0  0  0  0  0  0  0  0
   11.0335  -20.8611   21.0992 C   0  0  0  0  0  0  0  0  0  0  0  0
   12.0236  -20.9520   21.8575 O   0  0  0  0  0  0  0  0  0  0  0  0
   12.0043  -16.8276   19.3037 C   0  0  0  0  0  0  0  0  0  0  0  0
   13.2450  -16.8542   19.1298 O   0  0  0  0  0  0  0  0  0  0  0  0
   10.3306  -22.0219   20.8113 O   0  0  0  0  0  0  0  0  0  0  0  0
   11.2393  -16.5096   18.1817 O   0  0  0  0  0  0  0  0  0  0  0  0
  2  1  1  1
  2  3  1  0
  2 13  1  0
  3  4  1  0
  4 12  1  0
  5  6  1  0
  5  4  2  0
  6  7  1  0
  7 12  2  0
  7  8  1  0
  8  9  2  0
  9 10  1  0
 11 10  2  0
 12 11  1  0
 13 14  2  0
 16 15  1  6
 17 13  1  0
 17 16  1  0
 18 16  1  0
 18 19  2  0
 20 18  1  0
 21 20  1  0
 21 26  1  0
 21 22  1  6
 23 24  1  0
 23 22  1  0
 24 25  2  0
 26 27  2  0
 26 29  1  0
 28 24  1  0
M  END
$$$$
