WAE.pdb
     RDKit          3D

 29 30  0  0  1  0  0  0  0  0999 V2000
    6.5167  -17.9577   24.4891 N   0  0  0  0  0  0  0  0  0  0  0  0
    7.5061  -17.1406   23.7921 C   0  0  1  0  0  0  0  0  0  0  0  0
    8.1644  -16.2924   24.8412 C   0  0  0  0  0  0  0  0  0  0  0  0
    7.2299  -15.3138   25.4530 C   0  0  0  0  0  0  0  0  0  0  0  0
    5.9967  -15.6125   26.0118 C   0  0  0  0  0  0  0  0  0  0  0  0
    5.4844  -14.4474   26.4445 N   0  0  0  0  0  0  0  0  0  0  0  0
    6.3175  -13.4369   26.1928 C   0  0  0  0  0  0  0  0  0  0  0  0
    6.2709  -12.0627   26.4281 C   0  0  0  0  0  0  0  0  0  0  0  0
    7.2954  -11.2194   26.0554 C   0  0  0  0  0  0  0  0  0  0  0  0
    8.4135  -11.7320   25.4271 C   0  0  0  0  0  0  0  0  0  0  0  0
    8.4509  -13.0976   25.1976 C   0  0  0  0  0  0  0  0  0  0  0  0
    7.4266  -13.9493   25.5688 C   0  0  0  0  0  0  0  0  0  0  0  0
    8.4781  -17.9949   23.0639 C   0  0  0  0  0  0  0  0  0  0  0  0
    8.8630  -19.1040   23.5147 O   0  0  0  0  0  0  0  0  0  0  0  0
   10.1454  -17.9215   19.6434 C   0  0  0  0  0  0  0  0  0  0  0  0
    9.9576  -18.4182   21.0578 C   0  0  2  0  0  0  0  0  0  0  0  0
    9.0364  -17.6098   21.8050 N   0  0  0  0  0  0  0  0  0  0  0  0
   11.2793  -18.5399   21.7275 C   0  0  0  0  0  0  0  0  0  0  0  0
   12.0979  -19.3812   21.2809 O   0  0  0  0  0  0  0  0  0  0  0  0
   11.6346  -17.7398   22.8441 N   0  0  0  0  0  0  0  0  0  0  0  0
   12.8877  -17.9513   23.5796 C   0  0  1  0  0  0  0  0  0  0  0  0
   14.0393  -17.2992   22.8671 C   0  0  0  0  0  0  0  0  0  0  0  0
   13.8686  -15.8502   22.5804 C   0  0  0  0  0  0  0  0  0  0  0  0
   15.0895  -15.3318   21.9199 C   0  0  0  0  0  0  0  0  0  0  0  0
   15.0530  -15.0702   20.6977 O   0  0  0  0  0  0  0  0  0  0  0  0
   12.6932  -17.5220   24.9645 C   0  0  0  0  0  0  0  0  0  0  0  0
   13.5565  -17.6705   25.8605 O   0  0  0  0  0  0  0  0  0  0  0  0
   16.2845  -15.1185   22.5915 O   0  0  0  0  0  0  0  0  0  0  0  0
   11.5039  -16.9106   25.3606 O   0  0  0  0  0  0  0  0  0  0  0  0
  2  1  1  1
  2  3  1  0
  2 13  1  0
  3  4  1  0
  4 12  1  0
  5  6  1  0
  5  4  2  0
  6  7  1  0
  7 12  2  0
  7  8  1  0
  8  9  2  0
  9 10  1  0
 11 10  2  0
 12 11  1  0
 13 14  2  0
 16 15  1  6
 17 13  1  0
 17 16  1  0
 18 16  1  0
 18 19  2  0
 20 18  1  0
 21 20  1  0
 21 26  1  0
 21 22  1  6
 23 24  1  0
 23 22  1  0
 24 25  2  0
 26 27  2  0
 26 29  1  0
 28 24  1  0
M  END
$$$$
