DSR.pdb
     RDKit          3D

 26 25  0  0  1  0  0  0  0  0999 V2000
   15.9460   -4.8857  -11.3198 N   0  0  0  0  0  0  0  0  0  0  0  0
   16.9941   -5.8665  -11.4602 C   0  0  1  0  0  0  0  0  0  0  0  0
   16.8878   -6.7547  -10.2133 C   0  0  0  0  0  0  0  0  0  0  0  0
   17.2283   -5.9581   -9.0298 C   0  0  0  0  0  0  0  0  0  0  0  0
   16.5906   -6.1167   -7.9672 O   0  0  0  0  0  0  0  0  0  0  0  0
   16.8112   -6.7471  -12.6269 C   0  0  0  0  0  0  0  0  0  0  0  0
   15.6577   -6.9592  -13.0733 O   0  0  0  0  0  0  0  0  0  0  0  0
   18.2449   -5.0394   -9.0867 O   0  0  0  0  0  0  0  0  0  0  0  0
   19.9474   -8.9372  -14.3792 O   0  0  0  0  0  0  0  0  0  0  0  0
   18.9159   -8.5002  -15.1984 C   0  0  0  0  0  0  0  0  0  0  0  0
   17.6218   -8.2496  -14.4331 C   0  0  2  0  0  0  0  0  0  0  0  0
   17.8964   -7.3794  -13.2841 N   0  0  0  0  0  0  0  0  0  0  0  0
   17.0852   -9.5259  -13.9356 C   0  0  0  0  0  0  0  0  0  0  0  0
   17.2684   -9.8642  -12.7510 O   0  0  0  0  0  0  0  0  0  0  0  0
    9.4153  -12.5273  -13.0548 N   0  0  0  0  0  0  0  0  0  0  0  0
   10.3787  -12.6225  -12.0221 C   0  0  0  0  0  0  0  0  0  0  0  0
    9.9753  -12.6484  -10.7878 N   0  0  0  0  0  0  0  0  0  0  0  0
   11.7664  -12.6891  -12.3228 N   0  0  0  0  0  0  0  0  0  0  0  0
   12.2332  -12.6825  -13.6977 C   0  0  0  0  0  0  0  0  0  0  0  0
   13.7399  -12.8115  -13.7678 C   0  0  0  0  0  0  0  0  0  0  0  0
   14.3770  -11.5190  -14.2001 C   0  0  0  0  0  0  0  0  0  0  0  0
   15.8610  -11.6443  -14.3086 C   0  0  2  0  0  0  0  0  0  0  0  0
   16.3635  -10.3639  -14.8017 N   0  0  0  0  0  0  0  0  0  0  0  0
   16.3105  -12.7003  -15.2285 C   0  0  0  0  0  0  0  0  0  0  0  0
   16.2487  -14.0519  -14.9398 O   0  0  0  0  0  0  0  0  0  0  0  0
   16.7944  -12.4131  -16.3714 O   0  0  0  0  0  0  0  0  0  0  0  0
  2  1  1  1
  2  3  1  0
  3  4  1  0
  4  8  1  0
  4  5  2  0
  6  2  1  0
  7  6  2  0
  9 10  1  0
 11 10  1  1
 11 12  1  0
 12  6  1  0
 13 11  1  0
 13 23  1  0
 14 13  2  0
 16 15  1  0
 17 16  2  0
 18 16  1  0
 19 18  1  0
 20 19  1  0
 21 20  1  0
 22 21  1  6
 22 23  1  0
 24 22  1  0
 25 24  1  0
 26 24  2  0
M  END
$$$$
