DSR.pdb
     RDKit          3D

 26 25  0  0  1  0  0  0  0  0999 V2000
   22.7207  -18.9082  -17.0979 N   0  0  0  0  0  0  0  0  0  0  0  0
   22.1402  -19.2020  -15.8107 C   0  0  1  0  0  0  0  0  0  0  0  0
   20.8654  -18.3509  -15.7372 C   0  0  0  0  0  0  0  0  0  0  0  0
   21.2287  -16.9785  -15.3684 C   0  0  0  0  0  0  0  0  0  0  0  0
   22.0956  -16.3650  -16.0264 O   0  0  0  0  0  0  0  0  0  0  0  0
   21.7221  -20.6076  -15.6707 C   0  0  0  0  0  0  0  0  0  0  0  0
   22.1933  -21.4781  -16.4421 O   0  0  0  0  0  0  0  0  0  0  0  0
   20.6193  -16.3672  -14.3028 O   0  0  0  0  0  0  0  0  0  0  0  0
   21.8773  -23.0330  -12.5516 O   0  0  0  0  0  0  0  0  0  0  0  0
   21.8120  -23.1223  -13.9350 C   0  0  0  0  0  0  0  0  0  0  0  0
   20.5589  -22.4714  -14.5088 C   0  0  2  0  0  0  0  0  0  0  0  0
   20.7948  -21.0343  -14.6872 N   0  0  0  0  0  0  0  0  0  0  0  0
   19.4363  -22.6488  -13.5746 C   0  0  0  0  0  0  0  0  0  0  0  0
   19.3011  -21.8808  -12.6035 O   0  0  0  0  0  0  0  0  0  0  0  0
   18.6943  -24.6237   -6.3345 N   0  0  0  0  0  0  0  0  0  0  0  0
   17.9477  -25.6501   -6.9613 C   0  0  0  0  0  0  0  0  0  0  0  0
   17.6705  -26.7253   -6.2877 N   0  0  0  0  0  0  0  0  0  0  0  0
   17.5054  -25.5138   -8.3052 N   0  0  0  0  0  0  0  0  0  0  0  0
   17.6784  -24.2646   -9.0248 C   0  0  0  0  0  0  0  0  0  0  0  0
   17.0585  -24.3338  -10.4042 C   0  0  0  0  0  0  0  0  0  0  0  0
   18.0738  -24.0319  -11.4726 C   0  0  0  0  0  0  0  0  0  0  0  0
   17.4371  -23.8952  -12.8163 C   0  0  2  0  0  0  0  0  0  0  0  0
   18.5146  -23.6885  -13.7813 N   0  0  0  0  0  0  0  0  0  0  0  0
   16.4984  -22.7681  -12.9260 C   0  0  0  0  0  0  0  0  0  0  0  0
   16.6923  -21.6816  -13.7600 O   0  0  0  0  0  0  0  0  0  0  0  0
   15.4279  -22.7359  -12.2361 O   0  0  0  0  0  0  0  0  0  0  0  0
  2  1  1  6
  2  3  1  0
  3  4  1  0
  4  8  1  0
  4  5  2  0
  6  2  1  0
  7  6  2  0
  9 10  1  0
 11 10  1  1
 11 12  1  0
 12  6  1  0
 13 11  1  0
 13 23  1  0
 14 13  2  0
 16 15  1  0
 17 16  2  0
 18 16  1  0
 19 18  1  0
 20 19  1  0
 21 20  1  0
 22 21  1  1
 22 23  1  0
 24 22  1  0
 25 24  1  0
 26 24  2  0
M  END
$$$$
