DSR.pdb
     RDKit          3D

 26 25  0  0  1  0  0  0  0  0999 V2000
   26.3410  -18.8718  -18.4576 N   0  0  0  0  0  0  0  0  0  0  0  0
   25.3696  -19.7738  -17.8891 C   0  0  1  0  0  0  0  0  0  0  0  0
   25.2507  -20.9274  -18.8940 C   0  0  0  0  0  0  0  0  0  0  0  0
   24.7204  -20.4060  -20.1582 C   0  0  0  0  0  0  0  0  0  0  0  0
   24.3592  -19.2127  -20.2378 O   0  0  0  0  0  0  0  0  0  0  0  0
   25.8054  -20.3649  -16.6121 C   0  0  0  0  0  0  0  0  0  0  0  0
   25.1610  -21.3202  -16.1151 O   0  0  0  0  0  0  0  0  0  0  0  0
   24.6198  -21.2254  -21.2533 O   0  0  0  0  0  0  0  0  0  0  0  0
   28.8099  -18.7027  -14.1442 O   0  0  0  0  0  0  0  0  0  0  0  0
   28.6838  -20.0835  -14.2037 C   0  0  0  0  0  0  0  0  0  0  0  0
   27.2888  -20.5301  -14.6249 C   0  0  2  0  0  0  0  0  0  0  0  0
   26.9404  -19.8985  -15.9026 N   0  0  0  0  0  0  0  0  0  0  0  0
   26.3073  -20.1102  -13.6125 C   0  0  0  0  0  0  0  0  0  0  0  0
   25.8315  -18.9596  -13.6397 O   0  0  0  0  0  0  0  0  0  0  0  0
   18.7036  -21.7273  -12.7760 N   0  0  0  0  0  0  0  0  0  0  0  0
   19.9269  -22.4102  -12.9782 C   0  0  0  0  0  0  0  0  0  0  0  0
   19.9339  -23.4815  -13.7123 N   0  0  0  0  0  0  0  0  0  0  0  0
   21.1320  -21.9377  -12.3908 N   0  0  0  0  0  0  0  0  0  0  0  0
   21.1543  -20.7068  -11.6208 C   0  0  0  0  0  0  0  0  0  0  0  0
   22.5451  -20.4064  -11.1038 C   0  0  0  0  0  0  0  0  0  0  0  0
   23.5976  -20.8644  -12.0763 C   0  0  0  0  0  0  0  0  0  0  0  0
   24.9744  -20.5704  -11.5786 C   0  0  2  0  0  0  0  0  0  0  0  0
   25.9068  -21.0124  -12.6131 N   0  0  0  0  0  0  0  0  0  0  0  0
   25.3202  -21.2557  -10.3239 C   0  0  0  0  0  0  0  0  0  0  0  0
   25.0387  -20.7512   -9.0669 O   0  0  0  0  0  0  0  0  0  0  0  0
   25.9151  -22.3822  -10.3337 O   0  0  0  0  0  0  0  0  0  0  0  0
  2  1  1  6
  2  3  1  0
  3  4  1  0
  4  8  1  0
  4  5  2  0
  6  2  1  0
  7  6  2  0
  9 10  1  0
 11 10  1  1
 11 12  1  0
 12  6  1  0
 13 11  1  0
 13 23  1  0
 14 13  2  0
 16 15  1  0
 17 16  2  0
 18 16  1  0
 19 18  1  0
 20 19  1  0
 21 20  1  0
 22 21  1  6
 22 23  1  0
 24 22  1  0
 25 24  1  0
 26 24  2  0
M  END
$$$$
