DSR.pdb
     RDKit          3D

 26 25  0  0  1  0  0  0  0  0999 V2000
   18.1945  -10.4172  -15.8868 N   0  0  0  0  0  0  0  0  0  0  0  0
   17.3815  -10.5357  -14.7013 C   0  0  1  0  0  0  0  0  0  0  0  0
   17.4743  -12.0117  -14.2921 C   0  0  0  0  0  0  0  0  0  0  0  0
   16.7350  -12.8237  -15.2644 C   0  0  0  0  0  0  0  0  0  0  0  0
   16.1460  -12.2716  -16.2179 O   0  0  0  0  0  0  0  0  0  0  0  0
   17.8924   -9.7466  -13.5671 C   0  0  0  0  0  0  0  0  0  0  0  0
   17.3838   -9.8895  -12.4287 O   0  0  0  0  0  0  0  0  0  0  0  0
   16.6886  -14.1876  -15.1294 O   0  0  0  0  0  0  0  0  0  0  0  0
   21.1323   -6.5288  -11.8053 O   0  0  0  0  0  0  0  0  0  0  0  0
   20.6943   -7.3316  -12.8492 C   0  0  0  0  0  0  0  0  0  0  0  0
   19.4175   -8.0923  -12.5115 C   0  0  2  0  0  0  0  0  0  0  0  0
   18.9522   -8.8149  -13.7007 N   0  0  0  0  0  0  0  0  0  0  0  0
   18.3700   -7.1445  -12.1004 C   0  0  0  0  0  0  0  0  0  0  0  0
   17.7336   -6.5027  -12.9573 O   0  0  0  0  0  0  0  0  0  0  0  0
   11.6372   -9.8522   -9.8732 N   0  0  0  0  0  0  0  0  0  0  0  0
   12.0961   -9.3004   -8.6532 C   0  0  0  0  0  0  0  0  0  0  0  0
   11.3562   -9.4197   -7.5926 N   0  0  0  0  0  0  0  0  0  0  0  0
   13.3450   -8.6252   -8.5819 N   0  0  0  0  0  0  0  0  0  0  0  0
   13.8583   -7.8834   -9.7197 C   0  0  0  0  0  0  0  0  0  0  0  0
   15.2190   -7.2906   -9.4215 C   0  0  0  0  0  0  0  0  0  0  0  0
   15.7555   -6.5364  -10.6075 C   0  0  0  0  0  0  0  0  0  0  0  0
   17.1059   -5.9620  -10.3315 C   0  0  2  0  0  0  0  0  0  0  0  0
   18.0883   -6.9651  -10.7360 N   0  0  0  0  0  0  0  0  0  0  0  0
   17.3417   -5.6303   -8.9181 C   0  0  0  0  0  0  0  0  0  0  0  0
   18.3224   -6.2203   -8.1410 O   0  0  0  0  0  0  0  0  0  0  0  0
   16.6318   -4.7567   -8.3216 O   0  0  0  0  0  0  0  0  0  0  0  0
  2  1  1  6
  2  3  1  0
  3  4  1  0
  4  8  1  0
  4  5  2  0
  6  2  1  0
  7  6  2  0
  9 10  1  0
 11 10  1  6
 11 12  1  0
 12  6  1  0
 13 11  1  0
 13 23  1  0
 14 13  2  0
 16 15  1  0
 17 16  2  0
 18 16  1  0
 19 18  1  0
 20 19  1  0
 21 20  1  0
 22 21  1  1
 22 23  1  0
 24 22  1  0
 25 24  1  0
 26 24  2  0
M  END
$$$$
