DSR.pdb
     RDKit          3D

 26 25  0  0  1  0  0  0  0  0999 V2000
   17.0513  -13.2254  -16.8126 N   0  0  0  0  0  0  0  0  0  0  0  0
   16.8442  -13.0894  -15.3917 C   0  0  1  0  0  0  0  0  0  0  0  0
   17.3532  -14.4016  -14.7805 C   0  0  0  0  0  0  0  0  0  0  0  0
   16.3371  -15.4422  -14.9707 C   0  0  0  0  0  0  0  0  0  0  0  0
   15.5506  -15.3757  -15.9391 O   0  0  0  0  0  0  0  0  0  0  0  0
   17.6390  -12.0038  -14.7916 C   0  0  0  0  0  0  0  0  0  0  0  0
   17.7252  -11.9110  -13.5430 O   0  0  0  0  0  0  0  0  0  0  0  0
   16.2482  -16.4879  -14.0879 O   0  0  0  0  0  0  0  0  0  0  0  0
   19.5800   -9.0580  -17.0818 O   0  0  0  0  0  0  0  0  0  0  0  0
   20.0648   -9.3433  -15.8131 C   0  0  0  0  0  0  0  0  0  0  0  0
   18.9991   -9.9262  -14.8926 C   0  0  2  0  0  0  0  0  0  0  0  0
   18.3256  -11.0393  -15.5709 N   0  0  0  0  0  0  0  0  0  0  0  0
   17.9977   -8.8951  -14.5785 C   0  0  0  0  0  0  0  0  0  0  0  0
   16.9707   -8.7856  -15.2744 O   0  0  0  0  0  0  0  0  0  0  0  0
   14.7783   -6.6307   -7.0295 N   0  0  0  0  0  0  0  0  0  0  0  0
   13.9344   -7.2994   -7.9483 C   0  0  0  0  0  0  0  0  0  0  0  0
   12.8187   -7.8083   -7.5203 N   0  0  0  0  0  0  0  0  0  0  0  0
   14.2950   -7.4165   -9.3183 N   0  0  0  0  0  0  0  0  0  0  0  0
   15.6068   -7.0019   -9.7827 C   0  0  0  0  0  0  0  0  0  0  0  0
   15.7180   -7.1135  -11.2883 C   0  0  0  0  0  0  0  0  0  0  0  0
   17.1196   -6.8260  -11.7530 C   0  0  0  0  0  0  0  0  0  0  0  0
   17.2476   -6.9566  -13.2350 C   0  0  2  0  0  0  0  0  0  0  0  0
   18.2030   -8.0327  -13.4888 N   0  0  0  0  0  0  0  0  0  0  0  0
   17.7335   -5.7417  -13.9067 C   0  0  0  0  0  0  0  0  0  0  0  0
   17.0307   -4.5509  -13.9496 O   0  0  0  0  0  0  0  0  0  0  0  0
   18.8603   -5.7263  -14.5011 O   0  0  0  0  0  0  0  0  0  0  0  0
  2  1  1  6
  2  3  1  0
  3  4  1  0
  4  8  1  0
  4  5  2  0
  6  2  1  0
  7  6  2  0
  9 10  1  0
 11 10  1  6
 11 12  1  0
 12  6  1  0
 13 11  1  0
 13 23  1  0
 14 13  2  0
 16 15  1  0
 17 16  2  0
 18 16  1  0
 19 18  1  0
 20 19  1  0
 21 20  1  0
 22 21  1  1
 22 23  1  0
 24 22  1  0
 25 24  1  0
 26 24  2  0
M  END
$$$$
