LWG.pdb
     RDKit          3D

 27 28  0  0  1  0  0  0  0  0999 V2000
    6.4999  -12.7657   19.6456 C   0  0  0  0  0  0  0  0  0  0  0  0
    7.5168  -13.9178   19.7002 C   0  0  1  0  0  0  0  0  0  0  0  0
    8.6448  -13.5654   18.7313 C   0  0  0  0  0  0  0  0  0  0  0  0
    8.0500  -14.0002   21.0926 C   0  0  0  0  0  0  0  0  0  0  0  0
    9.0364  -15.1340   21.3087 C   0  0  2  0  0  0  0  0  0  0  0  0
    8.2914  -16.3822   21.2026 N   0  0  0  0  0  0  0  0  0  0  0  0
    9.5924  -15.0264   22.6873 C   0  0  0  0  0  0  0  0  0  0  0  0
   10.1957  -13.9802   22.9910 O   0  0  0  0  0  0  0  0  0  0  0  0
    9.4308  -16.0840   23.6200 N   0  0  0  0  0  0  0  0  0  0  0  0
    9.8446  -16.1646   24.9649 C   0  0  1  0  0  0  0  0  0  0  0  0
    8.7799  -16.6003   25.9656 C   0  0  0  0  0  0  0  0  0  0  0  0
    7.6128  -15.6963   25.9757 C   0  0  0  0  0  0  0  0  0  0  0  0
    6.3350  -16.0266   25.6169 C   0  0  0  0  0  0  0  0  0  0  0  0
    5.5907  -14.9037   25.7400 N   0  0  0  0  0  0  0  0  0  0  0  0
    6.3519  -13.8790   26.1627 C   0  0  0  0  0  0  0  0  0  0  0  0
    6.0487  -12.5377   26.4332 C   0  0  0  0  0  0  0  0  0  0  0  0
    7.0311  -11.6709   26.8599 C   0  0  0  0  0  0  0  0  0  0  0  0
    8.3040  -12.1703   27.0083 C   0  0  0  0  0  0  0  0  0  0  0  0
    8.6062  -13.4849   26.7450 C   0  0  0  0  0  0  0  0  0  0  0  0
    7.6295  -14.3715   26.3137 C   0  0  0  0  0  0  0  0  0  0  0  0
   11.1469  -16.7911   25.2289 C   0  0  0  0  0  0  0  0  0  0  0  0
   11.5776  -17.0420   26.3737 O   0  0  0  0  0  0  0  0  0  0  0  0
   11.9875  -17.1468   24.1319 N   0  0  0  0  0  0  0  0  0  0  0  0
   13.2772  -17.7833   24.3349 C   0  0  0  0  0  0  0  0  0  0  0  0
   13.8568  -18.1302   23.0160 C   0  0  0  0  0  0  0  0  0  0  0  0
   13.2725  -17.9270   21.9235 O   0  0  0  0  0  0  0  0  0  0  0  0
   15.1273  -18.7203   22.9526 O   0  0  0  0  0  0  0  0  0  0  0  0
  2  4  1  0
  2  1  1  1
  3  2  1  0
  5  4  1  0
  5  6  1  1
  7  5  1  0
  8  7  2  0
  9  7  1  0
 10  9  1  0
 10 11  1  1
 11 12  1  0
 12 20  1  0
 12 13  2  0
 13 14  1  0
 15 14  1  0
 15 16  2  0
 17 16  1  0
 18 17  2  0
 19 18  1  0
 19 20  2  0
 20 15  1  0
 21 22  2  0
 21 10  1  0
 23 21  1  0
 24 23  1  0
 25 24  1  0
 26 25  2  0
 27 25  1  0
M  END
$$$$
