LWG.pdb
     RDKit          3D

 27 28  0  0  1  0  0  0  0  0999 V2000
    6.9999  -12.2392   19.9116 C   0  0  0  0  0  0  0  0  0  0  0  0
    7.5148  -13.6860   19.9883 C   0  0  1  0  0  0  0  0  0  0  0  0
    8.4289  -13.9002   18.7825 C   0  0  0  0  0  0  0  0  0  0  0  0
    8.2971  -13.8337   21.2516 C   0  0  0  0  0  0  0  0  0  0  0  0
    8.9364  -15.1999   21.4246 C   0  0  2  0  0  0  0  0  0  0  0  0
    7.8571  -16.1763   21.5015 N   0  0  0  0  0  0  0  0  0  0  0  0
    9.6864  -15.2161   22.7125 C   0  0  0  0  0  0  0  0  0  0  0  0
   10.6139  -14.3976   22.8556 O   0  0  0  0  0  0  0  0  0  0  0  0
    9.3452  -16.1339   23.7400 N   0  0  0  0  0  0  0  0  0  0  0  0
    9.9423  -16.3304   25.0015 C   0  0  1  0  0  0  0  0  0  0  0  0
    8.9831  -16.5136   26.1725 C   0  0  0  0  0  0  0  0  0  0  0  0
    7.8089  -15.6233   26.0833 C   0  0  0  0  0  0  0  0  0  0  0  0
    6.5576  -15.9803   25.6623 C   0  0  0  0  0  0  0  0  0  0  0  0
    5.7967  -14.8625   25.7029 N   0  0  0  0  0  0  0  0  0  0  0  0
    6.5220  -13.8154   26.1336 C   0  0  0  0  0  0  0  0  0  0  0  0
    6.1908  -12.4692   26.3395 C   0  0  0  0  0  0  0  0  0  0  0  0
    7.1381  -11.5771   26.7926 C   0  0  0  0  0  0  0  0  0  0  0  0
    8.4048  -12.0566   27.0321 C   0  0  0  0  0  0  0  0  0  0  0  0
    8.7345  -13.3758   26.8324 C   0  0  0  0  0  0  0  0  0  0  0  0
    7.7932  -14.2877   26.3758 C   0  0  0  0  0  0  0  0  0  0  0  0
   11.0833  -17.2536   25.0662 C   0  0  0  0  0  0  0  0  0  0  0  0
   11.7206  -17.4979   26.1117 O   0  0  0  0  0  0  0  0  0  0  0  0
   11.5072  -17.9263   23.8811 N   0  0  0  0  0  0  0  0  0  0  0  0
   12.5057  -18.9804   23.9188 C   0  0  0  0  0  0  0  0  0  0  0  0
   13.8390  -18.3916   23.6514 C   0  0  0  0  0  0  0  0  0  0  0  0
   14.5269  -18.6582   22.6356 O   0  0  0  0  0  0  0  0  0  0  0  0
   14.3897  -17.4827   24.5664 O   0  0  0  0  0  0  0  0  0  0  0  0
  2  4  1  0
  2  1  1  6
  3  2  1  0
  5  4  1  0
  5  6  1  1
  7  5  1  0
  8  7  2  0
  9  7  1  0
 10  9  1  0
 10 11  1  1
 11 12  1  0
 12 20  1  0
 12 13  2  0
 13 14  1  0
 15 14  1  0
 15 16  2  0
 17 16  1  0
 18 17  2  0
 19 18  1  0
 19 20  2  0
 20 15  1  0
 21 22  2  0
 21 10  1  0
 23 21  1  0
 24 23  1  0
 25 24  1  0
 26 25  2  0
 27 25  1  0
M  END
$$$$
