LWG.pdb
     RDKit          3D

 27 28  0  0  1  0  0  0  0  0999 V2000
    7.0146  -12.4029   19.9857 C   0  0  0  0  0  0  0  0  0  0  0  0
    7.5178  -13.8492   20.1250 C   0  0  1  0  0  0  0  0  0  0  0  0
    8.2941  -14.1777   18.8503 C   0  0  0  0  0  0  0  0  0  0  0  0
    8.4297  -13.9113   21.3058 C   0  0  0  0  0  0  0  0  0  0  0  0
    9.0220  -15.2869   21.5554 C   0  0  2  0  0  0  0  0  0  0  0  0
    7.9140  -16.2322   21.6087 N   0  0  0  0  0  0  0  0  0  0  0  0
    9.7058  -15.2788   22.8797 C   0  0  0  0  0  0  0  0  0  0  0  0
   10.5503  -14.3888   23.0927 O   0  0  0  0  0  0  0  0  0  0  0  0
    9.3952  -16.2539   23.8632 N   0  0  0  0  0  0  0  0  0  0  0  0
    9.9180  -16.4156   25.1621 C   0  0  1  0  0  0  0  0  0  0  0  0
    8.8940  -16.4862   26.2895 C   0  0  0  0  0  0  0  0  0  0  0  0
    7.7462  -15.5853   26.0651 C   0  0  0  0  0  0  0  0  0  0  0  0
    6.5070  -15.9552   25.6200 C   0  0  0  0  0  0  0  0  0  0  0  0
    5.7715  -14.8239   25.5235 N   0  0  0  0  0  0  0  0  0  0  0  0
    6.5012  -13.7559   25.8911 C   0  0  0  0  0  0  0  0  0  0  0  0
    6.1927  -12.3904   25.9583 C   0  0  0  0  0  0  0  0  0  0  0  0
    7.1394  -11.4790   26.3726 C   0  0  0  0  0  0  0  0  0  0  0  0
    8.3825  -11.9589   26.7136 C   0  0  0  0  0  0  0  0  0  0  0  0
    8.6897  -13.2969   26.6500 C   0  0  0  0  0  0  0  0  0  0  0  0
    7.7488  -14.2285   26.2343 C   0  0  0  0  0  0  0  0  0  0  0  0
   11.0013  -17.3934   25.3313 C   0  0  0  0  0  0  0  0  0  0  0  0
   11.7495  -17.4350   26.3299 O   0  0  0  0  0  0  0  0  0  0  0  0
   11.2321  -18.3656   24.3122 N   0  0  0  0  0  0  0  0  0  0  0  0
   12.5290  -18.5078   23.6741 C   0  0  0  0  0  0  0  0  0  0  0  0
   13.4594  -19.1739   24.6157 C   0  0  0  0  0  0  0  0  0  0  0  0
   13.1438  -19.5149   25.7821 O   0  0  0  0  0  0  0  0  0  0  0  0
   14.7727  -19.4515   24.2101 O   0  0  0  0  0  0  0  0  0  0  0  0
  2  4  1  0
  2  1  1  6
  3  2  1  0
  5  4  1  0
  5  6  1  1
  7  5  1  0
  8  7  2  0
  9  7  1  0
 10  9  1  0
 10 11  1  1
 11 12  1  0
 12 20  1  0
 12 13  2  0
 13 14  1  0
 15 14  1  0
 15 16  2  0
 17 16  1  0
 18 17  2  0
 19 18  1  0
 19 20  2  0
 20 15  1  0
 21 22  2  0
 21 10  1  0
 23 21  1  0
 24 23  1  0
 25 24  1  0
 26 25  2  0
 27 25  1  0
M  END
$$$$
