LWG.pdb
     RDKit          3D

 27 28  0  0  1  0  0  0  0  0999 V2000
    7.1437  -12.4320   19.7461 C   0  0  0  0  0  0  0  0  0  0  0  0
    7.6274  -13.8829   19.9045 C   0  0  1  0  0  0  0  0  0  0  0  0
    8.4111  -14.2340   18.6403 C   0  0  0  0  0  0  0  0  0  0  0  0
    8.5278  -13.9446   21.0941 C   0  0  0  0  0  0  0  0  0  0  0  0
    9.0539  -15.3361   21.3975 C   0  0  2  0  0  0  0  0  0  0  0  0
    7.9022  -16.2250   21.4845 N   0  0  0  0  0  0  0  0  0  0  0  0
    9.7368  -15.3097   22.7221 C   0  0  0  0  0  0  0  0  0  0  0  0
   10.6586  -14.4884   22.8848 O   0  0  0  0  0  0  0  0  0  0  0  0
    9.3400  -16.1914   23.7612 N   0  0  0  0  0  0  0  0  0  0  0  0
    9.8647  -16.3392   25.0610 C   0  0  1  0  0  0  0  0  0  0  0  0
    8.8421  -16.4000   26.1904 C   0  0  0  0  0  0  0  0  0  0  0  0
    7.6899  -15.5074   25.9556 C   0  0  0  0  0  0  0  0  0  0  0  0
    6.4698  -15.8800   25.4624 C   0  0  0  0  0  0  0  0  0  0  0  0
    5.7227  -14.7557   25.3744 N   0  0  0  0  0  0  0  0  0  0  0  0
    6.4266  -13.6894   25.7936 C   0  0  0  0  0  0  0  0  0  0  0  0
    6.0982  -12.3302   25.8889 C   0  0  0  0  0  0  0  0  0  0  0  0
    7.0197  -11.4191   26.3572 C   0  0  0  0  0  0  0  0  0  0  0  0
    8.2580  -11.8929   26.7231 C   0  0  0  0  0  0  0  0  0  0  0  0
    8.5847  -13.2247   26.6321 C   0  0  0  0  0  0  0  0  0  0  0  0
    7.6693  -14.1559   26.1621 C   0  0  0  0  0  0  0  0  0  0  0  0
   10.9497  -17.3136   25.2387 C   0  0  0  0  0  0  0  0  0  0  0  0
   11.4870  -17.5618   26.3380 O   0  0  0  0  0  0  0  0  0  0  0  0
   11.4348  -18.0349   24.1069 N   0  0  0  0  0  0  0  0  0  0  0  0
   12.4764  -19.0393   24.2324 C   0  0  0  0  0  0  0  0  0  0  0  0
   13.7897  -18.4088   23.9614 C   0  0  0  0  0  0  0  0  0  0  0  0
   13.9459  -17.1767   23.7774 O   0  0  0  0  0  0  0  0  0  0  0  0
   14.9409  -19.2073   23.9006 O   0  0  0  0  0  0  0  0  0  0  0  0
  2  4  1  0
  2  1  1  6
  3  2  1  0
  5  4  1  0
  5  6  1  1
  7  5  1  0
  8  7  2  0
  9  7  1  0
 10  9  1  0
 10 11  1  1
 11 12  1  0
 12 20  1  0
 12 13  2  0
 13 14  1  0
 15 14  1  0
 15 16  2  0
 17 16  1  0
 18 17  2  0
 19 18  1  0
 19 20  2  0
 20 15  1  0
 21 22  2  0
 21 10  1  0
 23 21  1  0
 24 23  1  0
 25 24  1  0
 26 25  2  0
 27 25  1  0
M  END
$$$$
