LWG.pdb
     RDKit          3D

 27 28  0  0  1  0  0  0  0  0999 V2000
    7.2297  -12.6129   19.4830 C   0  0  0  0  0  0  0  0  0  0  0  0
    7.6622  -14.0618   19.7623 C   0  0  1  0  0  0  0  0  0  0  0  0
    8.4134  -14.5511   18.5246 C   0  0  0  0  0  0  0  0  0  0  0  0
    8.5774  -14.0534   20.9421 C   0  0  0  0  0  0  0  0  0  0  0  0
    9.0974  -15.4266   21.3285 C   0  0  2  0  0  0  0  0  0  0  0  0
    7.9418  -16.3038   21.4674 N   0  0  0  0  0  0  0  0  0  0  0  0
    9.7796  -15.3240   22.6496 C   0  0  0  0  0  0  0  0  0  0  0  0
   10.7085  -14.5024   22.7622 O   0  0  0  0  0  0  0  0  0  0  0  0
    9.3744  -16.1360   23.7410 N   0  0  0  0  0  0  0  0  0  0  0  0
    9.8974  -16.2079   25.0479 C   0  0  1  0  0  0  0  0  0  0  0  0
    8.8839  -16.4577   26.1593 C   0  0  0  0  0  0  0  0  0  0  0  0
    7.6979  -15.5859   26.0464 C   0  0  0  0  0  0  0  0  0  0  0  0
    6.4690  -15.9552   25.5730 C   0  0  0  0  0  0  0  0  0  0  0  0
    5.6872  -14.8517   25.6095 N   0  0  0  0  0  0  0  0  0  0  0  0
    6.3778  -13.8018   26.0880 C   0  0  0  0  0  0  0  0  0  0  0  0
    6.0153  -12.4663   26.3099 C   0  0  0  0  0  0  0  0  0  0  0  0
    6.9297  -11.5681   26.8155 C   0  0  0  0  0  0  0  0  0  0  0  0
    8.1955  -12.0308   27.0906 C   0  0  0  0  0  0  0  0  0  0  0  0
    8.5556  -13.3395   26.8753 C   0  0  0  0  0  0  0  0  0  0  0  0
    7.6478  -14.2574   26.3660 C   0  0  0  0  0  0  0  0  0  0  0  0
   11.1310  -16.9837   25.2341 C   0  0  0  0  0  0  0  0  0  0  0  0
   11.7764  -17.0160   26.3024 O   0  0  0  0  0  0  0  0  0  0  0  0
   11.6420  -17.7568   24.1488 N   0  0  0  0  0  0  0  0  0  0  0  0
   12.9353  -18.4135   24.2234 C   0  0  0  0  0  0  0  0  0  0  0  0
   12.8149  -19.6208   25.0743 C   0  0  0  0  0  0  0  0  0  0  0  0
   11.9166  -19.7776   25.9372 O   0  0  0  0  0  0  0  0  0  0  0  0
   13.7420  -20.6631   24.9309 O   0  0  0  0  0  0  0  0  0  0  0  0
  2  4  1  0
  2  1  1  6
  3  2  1  0
  5  4  1  0
  5  6  1  1
  7  5  1  0
  8  7  2  0
  9  7  1  0
 10  9  1  0
 10 11  1  1
 11 12  1  0
 12 20  1  0
 12 13  2  0
 13 14  1  0
 15 14  1  0
 15 16  2  0
 17 16  1  0
 18 17  2  0
 19 18  1  0
 19 20  2  0
 20 15  1  0
 21 22  2  0
 21 10  1  0
 23 21  1  0
 24 23  1  0
 25 24  1  0
 26 25  2  0
 27 25  1  0
M  END
$$$$
