LWG.pdb
     RDKit          3D

 27 28  0  0  1  0  0  0  0  0999 V2000
    7.0160  -12.4716   20.0119 C   0  0  0  0  0  0  0  0  0  0  0  0
    7.5896  -13.8944   20.1164 C   0  0  1  0  0  0  0  0  0  0  0  0
    8.5414  -14.0811   18.9354 C   0  0  0  0  0  0  0  0  0  0  0  0
    8.3460  -13.9965   21.3998 C   0  0  0  0  0  0  0  0  0  0  0  0
    9.0158  -15.3419   21.6152 C   0  0  2  0  0  0  0  0  0  0  0  0
    7.9624  -16.3484   21.6552 N   0  0  0  0  0  0  0  0  0  0  0  0
    9.7085  -15.3243   22.9347 C   0  0  0  0  0  0  0  0  0  0  0  0
   10.5810  -14.4557   23.1219 O   0  0  0  0  0  0  0  0  0  0  0  0
    9.3753  -16.2667   23.9424 N   0  0  0  0  0  0  0  0  0  0  0  0
    9.9284  -16.4389   25.2273 C   0  0  1  0  0  0  0  0  0  0  0  0
    8.9330  -16.4846   26.3815 C   0  0  0  0  0  0  0  0  0  0  0  0
    7.7646  -15.6117   26.1526 C   0  0  0  0  0  0  0  0  0  0  0  0
    6.5476  -16.0055   25.6686 C   0  0  0  0  0  0  0  0  0  0  0  0
    5.7814  -14.8939   25.5833 N   0  0  0  0  0  0  0  0  0  0  0  0
    6.4705  -13.8151   25.9952 C   0  0  0  0  0  0  0  0  0  0  0  0
    6.1204  -12.4613   26.0897 C   0  0  0  0  0  0  0  0  0  0  0  0
    7.0299  -11.5341   26.5496 C   0  0  0  0  0  0  0  0  0  0  0  0
    8.2784  -11.9865   26.9081 C   0  0  0  0  0  0  0  0  0  0  0  0
    8.6263  -13.3130   26.8178 C   0  0  0  0  0  0  0  0  0  0  0  0
    7.7232  -14.2602   26.3562 C   0  0  0  0  0  0  0  0  0  0  0  0
   10.9930  -17.4411   25.3697 C   0  0  0  0  0  0  0  0  0  0  0  0
   11.5370  -17.7267   26.4566 O   0  0  0  0  0  0  0  0  0  0  0  0
   11.4489  -18.1464   24.2159 N   0  0  0  0  0  0  0  0  0  0  0  0
   12.5016  -19.1438   24.2988 C   0  0  0  0  0  0  0  0  0  0  0  0
   13.7899  -18.5179   23.9188 C   0  0  0  0  0  0  0  0  0  0  0  0
   14.2079  -17.4369   24.4014 O   0  0  0  0  0  0  0  0  0  0  0  0
   14.6097  -19.1446   22.9693 O   0  0  0  0  0  0  0  0  0  0  0  0
  2  4  1  0
  2  1  1  6
  3  2  1  0
  5  4  1  0
  5  6  1  1
  7  5  1  0
  8  7  2  0
  9  7  1  0
 10  9  1  0
 10 11  1  1
 11 12  1  0
 12 20  1  0
 12 13  2  0
 13 14  1  0
 15 14  1  0
 15 16  2  0
 17 16  1  0
 18 17  2  0
 19 18  1  0
 19 20  2  0
 20 15  1  0
 21 22  2  0
 21 10  1  0
 23 21  1  0
 24 23  1  0
 25 24  1  0
 26 25  2  0
 27 25  1  0
M  END
$$$$
