LWG.pdb
     RDKit          3D

 27 28  0  0  1  0  0  0  0  0999 V2000
    7.0457  -12.6158   19.7104 C   0  0  0  0  0  0  0  0  0  0  0  0
    7.7187  -13.9941   19.8173 C   0  0  1  0  0  0  0  0  0  0  0  0
    8.7265  -14.0901   18.6725 C   0  0  0  0  0  0  0  0  0  0  0  0
    8.4305  -14.0624   21.1282 C   0  0  0  0  0  0  0  0  0  0  0  0
    9.1289  -15.3864   21.3821 C   0  0  2  0  0  0  0  0  0  0  0  0
    8.0997  -16.4174   21.4252 N   0  0  0  0  0  0  0  0  0  0  0  0
    9.7983  -15.3252   22.7124 C   0  0  0  0  0  0  0  0  0  0  0  0
   10.6930  -14.4744   22.8746 O   0  0  0  0  0  0  0  0  0  0  0  0
    9.4191  -16.2078   23.7573 N   0  0  0  0  0  0  0  0  0  0  0  0
    9.9586  -16.3492   25.0517 C   0  0  1  0  0  0  0  0  0  0  0  0
    8.9481  -16.5208   26.1807 C   0  0  0  0  0  0  0  0  0  0  0  0
    7.7561  -15.6679   26.0040 C   0  0  0  0  0  0  0  0  0  0  0  0
    6.5326  -16.0778   25.5504 C   0  0  0  0  0  0  0  0  0  0  0  0
    5.7423  -14.9807   25.5093 N   0  0  0  0  0  0  0  0  0  0  0  0
    6.4222  -13.8957   25.9199 C   0  0  0  0  0  0  0  0  0  0  0  0
    6.0483  -12.5513   26.0503 C   0  0  0  0  0  0  0  0  0  0  0  0
    6.9531  -11.6140   26.4992 C   0  0  0  0  0  0  0  0  0  0  0  0
    8.2208  -12.0472   26.8106 C   0  0  0  0  0  0  0  0  0  0  0  0
    8.5922  -13.3645   26.6851 C   0  0  0  0  0  0  0  0  0  0  0  0
    7.6942  -14.3215   26.2339 C   0  0  0  0  0  0  0  0  0  0  0  0
   11.1173  -17.2399   25.2010 C   0  0  0  0  0  0  0  0  0  0  0  0
   11.6842  -17.4652   26.2904 O   0  0  0  0  0  0  0  0  0  0  0  0
   11.6441  -17.9015   24.0515 N   0  0  0  0  0  0  0  0  0  0  0  0
   12.7773  -18.8052   24.1446 C   0  0  0  0  0  0  0  0  0  0  0  0
   14.0023  -18.0881   23.7193 C   0  0  0  0  0  0  0  0  0  0  0  0
   14.7151  -18.4427   22.7485 O   0  0  0  0  0  0  0  0  0  0  0  0
   14.4142  -16.9462   24.4214 O   0  0  0  0  0  0  0  0  0  0  0  0
  2  4  1  0
  2  1  1  1
  3  2  1  0
  5  4  1  0
  5  6  1  1
  7  5  1  0
  8  7  2  0
  9  7  1  0
 10  9  1  0
 10 11  1  1
 11 12  1  0
 12 20  1  0
 12 13  2  0
 13 14  1  0
 15 14  1  0
 15 16  2  0
 17 16  1  0
 18 17  2  0
 19 18  1  0
 19 20  2  0
 20 15  1  0
 21 22  2  0
 21 10  1  0
 23 21  1  0
 24 23  1  0
 25 24  1  0
 26 25  2  0
 27 25  1  0
M  END
$$$$
