LWG.pdb
     RDKit          3D

 27 28  0  0  1  0  0  0  0  0999 V2000
    7.0342  -12.4432   19.7307 C   0  0  0  0  0  0  0  0  0  0  0  0
    7.6740  -13.8391   19.8091 C   0  0  1  0  0  0  0  0  0  0  0  0
    8.6611  -13.9449   18.6472 C   0  0  0  0  0  0  0  0  0  0  0  0
    8.4043  -13.9425   21.1074 C   0  0  0  0  0  0  0  0  0  0  0  0
    9.0702  -15.2879   21.3347 C   0  0  2  0  0  0  0  0  0  0  0  0
    8.0200  -16.2984   21.3213 N   0  0  0  0  0  0  0  0  0  0  0  0
    9.7094  -15.2826   22.6811 C   0  0  0  0  0  0  0  0  0  0  0  0
   10.5566  -14.4015   22.9191 O   0  0  0  0  0  0  0  0  0  0  0  0
    9.3549  -16.2503   23.6570 N   0  0  0  0  0  0  0  0  0  0  0  0
    9.7832  -16.3740   24.9941 C   0  0  1  0  0  0  0  0  0  0  0  0
    8.6884  -16.6270   26.0248 C   0  0  0  0  0  0  0  0  0  0  0  0
    7.5730  -15.6668   25.9090 C   0  0  0  0  0  0  0  0  0  0  0  0
    6.3158  -15.9446   25.4478 C   0  0  0  0  0  0  0  0  0  0  0  0
    5.6225  -14.7833   25.4760 N   0  0  0  0  0  0  0  0  0  0  0  0
    6.3962  -13.7850   25.9376 C   0  0  0  0  0  0  0  0  0  0  0  0
    6.1403  -12.4228   26.1458 C   0  0  0  0  0  0  0  0  0  0  0  0
    7.1255  -11.5929   26.6349 C   0  0  0  0  0  0  0  0  0  0  0  0
    8.3533  -12.1497   26.9075 C   0  0  0  0  0  0  0  0  0  0  0  0
    8.6090  -13.4848   26.7056 C   0  0  0  0  0  0  0  0  0  0  0  0
    7.6288  -14.3349   26.2130 C   0  0  0  0  0  0  0  0  0  0  0  0
   10.9804  -17.1888   25.2414 C   0  0  0  0  0  0  0  0  0  0  0  0
   11.4307  -17.4336   26.3799 O   0  0  0  0  0  0  0  0  0  0  0  0
   11.6872  -17.7479   24.1349 N   0  0  0  0  0  0  0  0  0  0  0  0
   12.8743  -18.5635   24.3223 C   0  0  0  0  0  0  0  0  0  0  0  0
   13.3310  -19.0607   23.0032 C   0  0  0  0  0  0  0  0  0  0  0  0
   12.7813  -18.7569   21.9161 O   0  0  0  0  0  0  0  0  0  0  0  0
   14.4364  -19.9209   22.9332 O   0  0  0  0  0  0  0  0  0  0  0  0
  2  4  1  0
  2  1  1  1
  3  2  1  0
  5  4  1  0
  5  6  1  1
  7  5  1  0
  8  7  2  0
  9  7  1  0
 10  9  1  0
 10 11  1  1
 11 12  1  0
 12 20  1  0
 12 13  2  0
 13 14  1  0
 15 14  1  0
 15 16  2  0
 17 16  1  0
 18 17  2  0
 19 18  1  0
 19 20  2  0
 20 15  1  0
 21 22  2  0
 21 10  1  0
 23 21  1  0
 24 23  1  0
 25 24  1  0
 26 25  2  0
 27 25  1  0
M  END
$$$$
