LWG.pdb
     RDKit          3D

 27 28  0  0  1  0  0  0  0  0999 V2000
    7.4611  -13.6167   22.0522 C   0  0  0  0  0  0  0  0  0  0  0  0
    7.7237  -13.9591   20.5764 C   0  0  1  0  0  0  0  0  0  0  0  0
    7.6730  -12.6459   19.7964 C   0  0  0  0  0  0  0  0  0  0  0  0
    9.0876  -14.5583   20.4748 C   0  0  0  0  0  0  0  0  0  0  0  0
    9.2169  -15.9139   21.1464 C   0  0  2  0  0  0  0  0  0  0  0  0
    7.8681  -16.4305   21.3421 N   0  0  0  0  0  0  0  0  0  0  0  0
    9.8538  -15.7263   22.4808 C   0  0  0  0  0  0  0  0  0  0  0  0
   10.8297  -14.9566   22.5564 O   0  0  0  0  0  0  0  0  0  0  0  0
    9.3550  -16.4024   23.6248 N   0  0  0  0  0  0  0  0  0  0  0  0
    9.8144  -16.3697   24.9569 C   0  0  1  0  0  0  0  0  0  0  0  0
    8.7515  -16.5564   26.0341 C   0  0  0  0  0  0  0  0  0  0  0  0
    7.6145  -15.6292   25.8701 C   0  0  0  0  0  0  0  0  0  0  0  0
    6.3588  -15.9623   25.4423 C   0  0  0  0  0  0  0  0  0  0  0  0
    5.6410  -14.8163   25.4044 N   0  0  0  0  0  0  0  0  0  0  0  0
    6.3975  -13.7744   25.7921 C   0  0  0  0  0  0  0  0  0  0  0  0
    6.1145  -12.4074   25.9157 C   0  0  0  0  0  0  0  0  0  0  0  0
    7.0864  -11.5273   26.3393 C   0  0  0  0  0  0  0  0  0  0  0  0
    8.3287  -12.0396   26.6325 C   0  0  0  0  0  0  0  0  0  0  0  0
    8.6111  -13.3794   26.5135 C   0  0  0  0  0  0  0  0  0  0  0  0
    7.6446  -14.2796   26.0877 C   0  0  0  0  0  0  0  0  0  0  0  0
   11.0486  -17.1074   25.2583 C   0  0  0  0  0  0  0  0  0  0  0  0
   11.5720  -17.1520   26.3909 O   0  0  0  0  0  0  0  0  0  0  0  0
   11.7065  -17.8262   24.2156 N   0  0  0  0  0  0  0  0  0  0  0  0
   12.9062  -18.6055   24.4666 C   0  0  0  0  0  0  0  0  0  0  0  0
   13.3053  -19.2929   23.2159 C   0  0  0  0  0  0  0  0  0  0  0  0
   12.6895  -19.1727   22.1284 O   0  0  0  0  0  0  0  0  0  0  0  0
   14.4292  -20.1315   23.2161 O   0  0  0  0  0  0  0  0  0  0  0  0
  2  4  1  0
  2  1  1  1
  3  2  1  0
  5  4  1  0
  5  6  1  1
  7  5  1  0
  8  7  2  0
  9  7  1  0
 10  9  1  0
 10 11  1  1
 11 12  1  0
 12 20  1  0
 12 13  2  0
 13 14  1  0
 15 14  1  0
 15 16  2  0
 17 16  1  0
 18 17  2  0
 19 18  1  0
 19 20  2  0
 20 15  1  0
 21 22  2  0
 21 10  1  0
 23 21  1  0
 24 23  1  0
 25 24  1  0
 26 25  2  0
 27 25  1  0
M  END
$$$$
