LWG.pdb
     RDKit          3D

 27 28  0  0  1  0  0  0  0  0999 V2000
    6.7715  -12.6608   19.5684 C   0  0  0  0  0  0  0  0  0  0  0  0
    7.5613  -13.9776   19.6496 C   0  0  1  0  0  0  0  0  0  0  0  0
    8.5521  -13.9776   18.4861 C   0  0  0  0  0  0  0  0  0  0  0  0
    8.3006  -13.9959   20.9468 C   0  0  0  0  0  0  0  0  0  0  0  0
    9.0585  -15.2858   21.2061 C   0  0  2  0  0  0  0  0  0  0  0  0
    8.0832  -16.3688   21.2041 N   0  0  0  0  0  0  0  0  0  0  0  0
    9.6827  -15.2089   22.5573 C   0  0  0  0  0  0  0  0  0  0  0  0
   10.4639  -14.2660   22.7842 O   0  0  0  0  0  0  0  0  0  0  0  0
    9.3874  -16.1795   23.5499 N   0  0  0  0  0  0  0  0  0  0  0  0
    9.8297  -16.2594   24.8857 C   0  0  1  0  0  0  0  0  0  0  0  0
    8.7642  -16.5983   25.9224 C   0  0  0  0  0  0  0  0  0  0  0  0
    7.5964  -15.6984   25.8446 C   0  0  0  0  0  0  0  0  0  0  0  0
    6.3445  -16.0391   25.4116 C   0  0  0  0  0  0  0  0  0  0  0  0
    5.5910  -14.9171   25.4696 N   0  0  0  0  0  0  0  0  0  0  0  0
    6.3215  -13.8831   25.9228 C   0  0  0  0  0  0  0  0  0  0  0  0
    5.9983  -12.5387   26.1520 C   0  0  0  0  0  0  0  0  0  0  0  0
    6.9497  -11.6616   26.6256 C   0  0  0  0  0  0  0  0  0  0  0  0
    8.2120  -12.1540   26.8617 C   0  0  0  0  0  0  0  0  0  0  0  0
    8.5337  -13.4715   26.6390 C   0  0  0  0  0  0  0  0  0  0  0  0
    7.5884  -14.3684   26.1616 C   0  0  0  0  0  0  0  0  0  0  0  0
   11.0923  -16.9689   25.1321 C   0  0  0  0  0  0  0  0  0  0  0  0
   11.4802  -17.3233   26.2647 O   0  0  0  0  0  0  0  0  0  0  0  0
   11.9426  -17.2871   24.0310 N   0  0  0  0  0  0  0  0  0  0  0  0
   13.1725  -18.0388   24.2101 C   0  0  0  0  0  0  0  0  0  0  0  0
   13.7553  -18.3339   22.8800 C   0  0  0  0  0  0  0  0  0  0  0  0
   13.2318  -17.9778   21.7958 O   0  0  0  0  0  0  0  0  0  0  0  0
   14.9581  -19.0499   22.7955 O   0  0  0  0  0  0  0  0  0  0  0  0
  2  4  1  0
  2  1  1  1
  3  2  1  0
  5  4  1  0
  5  6  1  1
  7  5  1  0
  8  7  2  0
  9  7  1  0
 10  9  1  0
 10 11  1  1
 11 12  1  0
 12 20  1  0
 12 13  2  0
 13 14  1  0
 15 14  1  0
 15 16  2  0
 17 16  1  0
 18 17  2  0
 19 18  1  0
 19 20  2  0
 20 15  1  0
 21 22  2  0
 21 10  1  0
 23 21  1  0
 24 23  1  0
 25 24  1  0
 26 25  2  0
 27 25  1  0
M  END
$$$$
