LWG.pdb
     RDKit          3D

 27 28  0  0  1  0  0  0  0  0999 V2000
    6.7256  -12.5368   19.9652 C   0  0  0  0  0  0  0  0  0  0  0  0
    7.3902  -13.9217   20.0346 C   0  0  1  0  0  0  0  0  0  0  0  0
    8.3343  -14.0256   18.8374 C   0  0  0  0  0  0  0  0  0  0  0  0
    8.1704  -13.9987   21.3054 C   0  0  0  0  0  0  0  0  0  0  0  0
    8.8355  -15.3433   21.5399 C   0  0  2  0  0  0  0  0  0  0  0  0
    7.7757  -16.3389   21.6392 N   0  0  0  0  0  0  0  0  0  0  0  0
    9.5665  -15.2941   22.8379 C   0  0  0  0  0  0  0  0  0  0  0  0
   10.4218  -14.4020   22.9901 O   0  0  0  0  0  0  0  0  0  0  0  0
    9.2874  -16.2338   23.8644 N   0  0  0  0  0  0  0  0  0  0  0  0
    9.8845  -16.3800   25.1327 C   0  0  1  0  0  0  0  0  0  0  0  0
    8.9253  -16.5248   26.3091 C   0  0  0  0  0  0  0  0  0  0  0  0
    7.7357  -15.6609   26.1755 C   0  0  0  0  0  0  0  0  0  0  0  0
    6.5071  -16.0475   25.7154 C   0  0  0  0  0  0  0  0  0  0  0  0
    5.7212  -14.9464   25.7238 N   0  0  0  0  0  0  0  0  0  0  0  0
    6.4089  -13.8813   26.1719 C   0  0  0  0  0  0  0  0  0  0  0  0
    6.0419  -12.5416   26.3583 C   0  0  0  0  0  0  0  0  0  0  0  0
    6.9541  -11.6266   26.8370 C   0  0  0  0  0  0  0  0  0  0  0  0
    8.2222  -12.0769   27.1214 C   0  0  0  0  0  0  0  0  0  0  0  0
    8.5868  -13.3896   26.9409 C   0  0  0  0  0  0  0  0  0  0  0  0
    7.6813  -14.3244   26.4590 C   0  0  0  0  0  0  0  0  0  0  0  0
   11.0303  -17.2940   25.2323 C   0  0  0  0  0  0  0  0  0  0  0  0
   11.6222  -17.5517   26.3011 O   0  0  0  0  0  0  0  0  0  0  0  0
   11.5138  -17.9409   24.0558 N   0  0  0  0  0  0  0  0  0  0  0  0
   12.6176  -18.8838   24.1033 C   0  0  0  0  0  0  0  0  0  0  0  0
   13.8894  -18.1477   23.9124 C   0  0  0  0  0  0  0  0  0  0  0  0
   14.0468  -17.2389   23.0605 O   0  0  0  0  0  0  0  0  0  0  0  0
   14.9971  -18.4617   24.7129 O   0  0  0  0  0  0  0  0  0  0  0  0
  2  4  1  0
  2  1  1  6
  3  2  1  0
  5  4  1  0
  5  6  1  1
  7  5  1  0
  8  7  2  0
  9  7  1  0
 10  9  1  0
 10 11  1  1
 11 12  1  0
 12 20  1  0
 12 13  2  0
 13 14  1  0
 15 14  1  0
 15 16  2  0
 17 16  1  0
 18 17  2  0
 19 18  1  0
 19 20  2  0
 20 15  1  0
 21 22  2  0
 21 10  1  0
 23 21  1  0
 24 23  1  0
 25 24  1  0
 26 25  2  0
 27 25  1  0
M  END
$$$$
