HNA.pdb
     RDKit          3D

 24 24  0  0  1  0  0  0  0  0999 V2000
   12.2411  -23.4091   -6.4812 N   0  0  0  0  0  0  0  0  0  0  0  0
   13.2486  -22.8294   -5.6435 C   0  0  1  0  0  0  0  0  0  0  0  0
   12.5482  -21.8139   -4.7414 C   0  0  0  0  0  0  0  0  0  0  0  0
   12.0714  -20.6979   -5.5764 C   0  0  0  0  0  0  0  0  0  0  0  0
   12.7957  -20.0324   -6.5193 C   0  0  0  0  0  0  0  0  0  0  0  0
   12.0154  -19.0728   -7.0739 N   0  0  0  0  0  0  0  0  0  0  0  0
   10.8201  -19.1619   -6.4632 C   0  0  0  0  0  0  0  0  0  0  0  0
   10.8524  -20.1569   -5.5455 N   0  0  0  0  0  0  0  0  0  0  0  0
   13.9128  -23.8079   -4.7729 C   0  0  0  0  0  0  0  0  0  0  0  0
   13.1844  -24.4996   -4.0070 O   0  0  0  0  0  0  0  0  0  0  0  0
   16.6924  -27.5313   -3.5461 N   0  0  0  0  0  0  0  0  0  0  0  0
   17.7223  -26.6288   -3.9168 C   0  0  0  0  0  0  0  0  0  0  0  0
   18.8664  -27.1041   -4.0937 O   0  0  0  0  0  0  0  0  0  0  0  0
   17.3668  -25.2057   -4.0646 C   0  0  0  0  0  0  0  0  0  0  0  0
   15.9075  -24.9386   -3.7801 C   0  0  2  0  0  0  0  0  0  0  0  0
   15.3200  -24.0273   -4.7360 N   0  0  0  0  0  0  0  0  0  0  0  0
   15.6844  -24.5029   -2.3872 C   0  0  0  0  0  0  0  0  0  0  0  0
   14.7624  -23.7032   -2.1382 O   0  0  0  0  0  0  0  0  0  0  0  0
   15.1950  -23.5387    0.1897 C   0  0  0  0  0  0  0  0  0  0  0  0
   16.1030  -24.7692    0.0304 C   0  0  2  0  0  0  0  0  0  0  0  0
   16.4863  -24.9664   -1.3263 N   0  0  0  0  0  0  0  0  0  0  0  0
   15.4074  -25.8969    0.6423 C   0  0  0  0  0  0  0  0  0  0  0  0
   15.0358  -25.8340    1.9702 O   0  0  0  0  0  0  0  0  0  0  0  0
   15.1279  -26.9351    0.0072 O   0  0  0  0  0  0  0  0  0  0  0  0
  2  1  1  6
  3  2  1  0
  4  8  1  0
  4  3  1  0
  5  4  2  0
  6  5  1  0
  6  7  1  0
  7  8  2  0
  9 10  2  0
  9  2  1  0
 12 14  1  0
 12 11  1  0
 13 12  2  0
 15 14  1  6
 15 16  1  0
 16  9  1  0
 17 15  1  0
 18 17  2  0
 20 19  1  6
 20 21  1  0
 21 17  1  0
 22 23  1  0
 22 20  1  0
 24 22  2  0
M  END
$$$$
