HNA.pdb
     RDKit          3D

 24 24  0  0  1  0  0  0  0  0999 V2000
   19.4467   -9.9523  -16.5175 N   0  0  0  0  0  0  0  0  0  0  0  0
   18.5728   -9.5463  -15.4572 C   0  0  1  0  0  0  0  0  0  0  0  0
   18.5326  -10.6940  -14.4487 C   0  0  0  0  0  0  0  0  0  0  0  0
   17.9252  -11.8674  -15.1001 C   0  0  0  0  0  0  0  0  0  0  0  0
   18.4403  -12.5572  -16.1562 C   0  0  0  0  0  0  0  0  0  0  0  0
   17.5960  -13.5698  -16.4711 N   0  0  0  0  0  0  0  0  0  0  0  0
   16.5718  -13.4882  -15.6026 C   0  0  0  0  0  0  0  0  0  0  0  0
   16.7717  -12.4459  -14.7619 N   0  0  0  0  0  0  0  0  0  0  0  0
   19.0408   -8.3503  -14.7454 C   0  0  0  0  0  0  0  0  0  0  0  0
   19.4671   -8.5001  -13.5658 O   0  0  0  0  0  0  0  0  0  0  0  0
   21.1317   -3.9304  -13.4746 N   0  0  0  0  0  0  0  0  0  0  0  0
   21.8566   -5.1345  -13.6675 C   0  0  0  0  0  0  0  0  0  0  0  0
   23.0484   -5.1547  -13.2864 O   0  0  0  0  0  0  0  0  0  0  0  0
   21.1526   -6.2652  -14.2995 C   0  0  0  0  0  0  0  0  0  0  0  0
   19.7111   -5.9465  -14.6195 C   0  0  2  0  0  0  0  0  0  0  0  0
   19.0455   -7.0365  -15.2965 N   0  0  0  0  0  0  0  0  0  0  0  0
   19.5739   -4.6714  -15.3510 C   0  0  0  0  0  0  0  0  0  0  0  0
   19.9512   -4.6040  -16.5362 O   0  0  0  0  0  0  0  0  0  0  0  0
   19.9700   -1.9823  -16.4016 C   0  0  0  0  0  0  0  0  0  0  0  0
   18.7789   -2.3395  -15.4973 C   0  0  2  0  0  0  0  0  0  0  0  0
   19.0265   -3.5233  -14.7464 N   0  0  0  0  0  0  0  0  0  0  0  0
   17.5946   -2.3889  -16.3488 C   0  0  0  0  0  0  0  0  0  0  0  0
   16.8213   -3.5318  -16.3815 O   0  0  0  0  0  0  0  0  0  0  0  0
   17.2427   -1.4262  -17.0622 O   0  0  0  0  0  0  0  0  0  0  0  0
  2  1  1  6
  3  2  1  0
  4  8  1  0
  4  3  1  0
  5  4  2  0
  6  5  1  0
  6  7  1  0
  7  8  2  0
  9 10  2  0
  9  2  1  0
 12 14  1  0
 12 11  1  0
 13 12  2  0
 15 14  1  6
 15 16  1  0
 16  9  1  0
 17 15  1  0
 18 17  2  0
 20 19  1  6
 20 21  1  0
 21 17  1  0
 22 23  1  0
 22 20  1  0
 24 22  2  0
M  END
$$$$
