HNA.pdb
     RDKit          3D

 24 24  0  0  1  0  0  0  0  0999 V2000
   22.3003   -3.7331  -18.3980 N   0  0  0  0  0  0  0  0  0  0  0  0
   21.8311   -4.1619  -17.1139 C   0  0  1  0  0  0  0  0  0  0  0  0
   20.5429   -3.3903  -16.8296 C   0  0  0  0  0  0  0  0  0  0  0  0
   20.9007   -2.0420  -16.3560 C   0  0  0  0  0  0  0  0  0  0  0  0
   21.0065   -1.6482  -15.0558 C   0  0  0  0  0  0  0  0  0  0  0  0
   21.3536   -0.3383  -15.0223 N   0  0  0  0  0  0  0  0  0  0  0  0
   21.4565    0.0555  -16.3045 C   0  0  0  0  0  0  0  0  0  0  0  0
   21.1794   -0.9868  -17.1231 N   0  0  0  0  0  0  0  0  0  0  0  0
   21.5079   -5.5934  -17.0627 C   0  0  0  0  0  0  0  0  0  0  0  0
   21.2242   -6.1689  -18.1507 O   0  0  0  0  0  0  0  0  0  0  0  0
   22.4003  -10.7264  -16.0374 N   0  0  0  0  0  0  0  0  0  0  0  0
   21.8535  -10.0049  -14.9451 C   0  0  0  0  0  0  0  0  0  0  0  0
   21.2101  -10.6556  -14.0914 O   0  0  0  0  0  0  0  0  0  0  0  0
   22.0845   -8.5495  -14.8999 C   0  0  0  0  0  0  0  0  0  0  0  0
   21.2545   -7.7977  -15.9137 C   0  0  2  0  0  0  0  0  0  0  0  0
   21.4936   -6.3728  -15.8702 N   0  0  0  0  0  0  0  0  0  0  0  0
   19.8186   -8.1238  -15.8069 C   0  0  0  0  0  0  0  0  0  0  0  0
   19.1974   -7.8130  -14.7729 O   0  0  0  0  0  0  0  0  0  0  0  0
   17.1728   -9.6335  -18.0510 C   0  0  0  0  0  0  0  0  0  0  0  0
   17.7362   -9.0665  -16.7376 C   0  0  2  0  0  0  0  0  0  0  0  0
   19.1264   -8.7789  -16.8438 N   0  0  0  0  0  0  0  0  0  0  0  0
   17.3827  -10.0067  -15.6789 C   0  0  0  0  0  0  0  0  0  0  0  0
   16.2269   -9.8141  -14.9492 O   0  0  0  0  0  0  0  0  0  0  0  0
   18.0914  -10.9958  -15.3980 O   0  0  0  0  0  0  0  0  0  0  0  0
  2  1  1  6
  3  2  1  0
  4  8  1  0
  4  3  1  0
  5  4  2  0
  6  5  1  0
  6  7  1  0
  7  8  2  0
  9 10  2  0
  9  2  1  0
 12 14  1  0
 12 11  1  0
 13 12  2  0
 15 14  1  1
 15 16  1  0
 16  9  1  0
 17 15  1  0
 18 17  2  0
 20 19  1  6
 20 21  1  0
 21 17  1  0
 22 23  1  0
 22 20  1  0
 24 22  2  0
M  END
$$$$
