HNA.pdb
     RDKit          3D

 24 24  0  0  1  0  0  0  0  0999 V2000
   26.1034  -16.5214  -15.9861 N   0  0  0  0  0  0  0  0  0  0  0  0
   25.1397  -17.4475  -16.5024 C   0  0  1  0  0  0  0  0  0  0  0  0
   25.8326  -18.8066  -16.5946 C   0  0  0  0  0  0  0  0  0  0  0  0
   26.9473  -18.6989  -17.5516 C   0  0  0  0  0  0  0  0  0  0  0  0
   27.3220  -17.5761  -18.2265 C   0  0  0  0  0  0  0  0  0  0  0  0
   28.3870  -17.8722  -19.0111 N   0  0  0  0  0  0  0  0  0  0  0  0
   28.6526  -19.1751  -18.8072 C   0  0  0  0  0  0  0  0  0  0  0  0
   27.7717  -19.6833  -17.9134 N   0  0  0  0  0  0  0  0  0  0  0  0
   23.9668  -17.6087  -15.6337 C   0  0  0  0  0  0  0  0  0  0  0  0
   24.1711  -17.9071  -14.4234 O   0  0  0  0  0  0  0  0  0  0  0  0
   21.8095  -15.0482  -14.6137 N   0  0  0  0  0  0  0  0  0  0  0  0
   20.5715  -15.3994  -15.2110 C   0  0  0  0  0  0  0  0  0  0  0  0
   19.7765  -14.4695  -15.4741 O   0  0  0  0  0  0  0  0  0  0  0  0
   20.3180  -16.8276  -15.4747 C   0  0  0  0  0  0  0  0  0  0  0  0
   21.5140  -17.6969  -15.1655 C   0  0  2  0  0  0  0  0  0  0  0  0
   22.6182  -17.4511  -16.0653 N   0  0  0  0  0  0  0  0  0  0  0  0
   21.1578  -19.1282  -15.1009 C   0  0  0  0  0  0  0  0  0  0  0  0
   21.8641  -19.9606  -15.7009 O   0  0  0  0  0  0  0  0  0  0  0  0
   21.0901  -21.2672  -12.9420 C   0  0  0  0  0  0  0  0  0  0  0  0
   19.9519  -20.9279  -13.9185 C   0  0  2  0  0  0  0  0  0  0  0  0
   20.0382  -19.5833  -14.3780 N   0  0  0  0  0  0  0  0  0  0  0  0
   18.6995  -21.2700  -13.2518 C   0  0  0  0  0  0  0  0  0  0  0  0
   18.3686  -22.5954  -13.0536 O   0  0  0  0  0  0  0  0  0  0  0  0
   17.8991  -20.4021  -12.8451 O   0  0  0  0  0  0  0  0  0  0  0  0
  2  1  1  1
  3  2  1  0
  4  8  1  0
  4  3  1  0
  5  4  2  0
  6  5  1  0
  6  7  1  0
  7  8  2  0
  9 10  2  0
  9  2  1  0
 12 14  1  0
 12 11  1  0
 13 12  2  0
 15 14  1  6
 15 16  1  0
 16  9  1  0
 17 15  1  0
 18 17  2  0
 20 19  1  1
 20 21  1  0
 21 17  1  0
 22 23  1  0
 22 20  1  0
 24 22  2  0
M  END
$$$$
