HNA.pdb
     RDKit          3D

 24 24  0  0  1  0  0  0  0  0999 V2000
   18.6498   -9.7603  -14.0089 N   0  0  0  0  0  0  0  0  0  0  0  0
   18.9135   -9.0932  -12.7686 C   0  0  1  0  0  0  0  0  0  0  0  0
   19.9129   -7.9762  -13.0670 C   0  0  0  0  0  0  0  0  0  0  0  0
   21.1629   -8.5853  -13.5536 C   0  0  0  0  0  0  0  0  0  0  0  0
   22.0087   -9.3719  -12.8307 C   0  0  0  0  0  0  0  0  0  0  0  0
   23.0465   -9.7402  -13.6210 N   0  0  0  0  0  0  0  0  0  0  0  0
   22.8240   -9.1738  -14.8208 C   0  0  0  0  0  0  0  0  0  0  0  0
   21.6704   -8.4659  -14.7814 N   0  0  0  0  0  0  0  0  0  0  0  0
   17.7208   -8.4716  -12.1792 C   0  0  0  0  0  0  0  0  0  0  0  0
   16.8114   -8.0864  -12.9668 O   0  0  0  0  0  0  0  0  0  0  0  0
   13.8463   -6.9809   -9.3202 N   0  0  0  0  0  0  0  0  0  0  0  0
   14.2639   -8.2696   -8.8990 C   0  0  0  0  0  0  0  0  0  0  0  0
   13.4772   -8.9202   -8.1751 O   0  0  0  0  0  0  0  0  0  0  0  0
   15.5875   -8.7415   -9.3449 C   0  0  0  0  0  0  0  0  0  0  0  0
   16.2714   -7.7636  -10.2710 C   0  0  2  0  0  0  0  0  0  0  0  0
   17.5229   -8.2753  -10.7820 N   0  0  0  0  0  0  0  0  0  0  0  0
   16.4262   -6.4310   -9.6545 C   0  0  0  0  0  0  0  0  0  0  0  0
   17.1168   -6.3114   -8.6248 O   0  0  0  0  0  0  0  0  0  0  0  0
   16.1349   -2.9126  -10.7194 C   0  0  0  0  0  0  0  0  0  0  0  0
   16.0258   -3.9958   -9.6336 C   0  0  2  0  0  0  0  0  0  0  0  0
   15.8138   -5.2853  -10.1982 N   0  0  0  0  0  0  0  0  0  0  0  0
   14.9967   -3.5593   -8.6953 C   0  0  0  0  0  0  0  0  0  0  0  0
   15.2090   -2.4384   -7.9181 O   0  0  0  0  0  0  0  0  0  0  0  0
   13.9130   -4.1651   -8.5613 O   0  0  0  0  0  0  0  0  0  0  0  0
  2  1  1  6
  3  2  1  0
  4  8  1  0
  4  3  1  0
  5  4  2  0
  6  5  1  0
  6  7  1  0
  7  8  2  0
  9 10  2  0
  9  2  1  0
 12 14  1  0
 12 11  1  0
 13 12  2  0
 15 14  1  1
 15 16  1  0
 16  9  1  0
 17 15  1  0
 18 17  2  0
 20 19  1  6
 20 21  1  0
 21 17  1  0
 22 23  1  0
 22 20  1  0
 24 22  2  0
M  END
$$$$
