HNA.pdb
     RDKit          3D

 24 24  0  0  1  0  0  0  0  0999 V2000
   23.4412  -12.0920  -18.3200 N   0  0  0  0  0  0  0  0  0  0  0  0
   23.4557  -11.4155  -17.0570 C   0  0  1  0  0  0  0  0  0  0  0  0
   24.9056  -11.0192  -16.7803 C   0  0  0  0  0  0  0  0  0  0  0  0
   25.6587  -12.2303  -16.4113 C   0  0  0  0  0  0  0  0  0  0  0  0
   25.1485  -13.4875  -16.2858 C   0  0  0  0  0  0  0  0  0  0  0  0
   26.1483  -14.3323  -15.9338 N   0  0  0  0  0  0  0  0  0  0  0  0
   27.2612  -13.5814  -15.8477 C   0  0  0  0  0  0  0  0  0  0  0  0
   26.9633  -12.2934  -16.1399 N   0  0  0  0  0  0  0  0  0  0  0  0
   22.6533  -10.1857  -17.0484 C   0  0  0  0  0  0  0  0  0  0  0  0
   22.7470   -9.4183  -18.0473 O   0  0  0  0  0  0  0  0  0  0  0  0
   18.2298   -7.1025  -16.9101 N   0  0  0  0  0  0  0  0  0  0  0  0
   18.8108   -7.5077  -15.6809 C   0  0  0  0  0  0  0  0  0  0  0  0
   18.6329   -6.7652  -14.6892 O   0  0  0  0  0  0  0  0  0  0  0  0
   19.5765   -8.7674  -15.6664 C   0  0  0  0  0  0  0  0  0  0  0  0
   21.0227   -8.5729  -16.0568 C   0  0  2  0  0  0  0  0  0  0  0  0
   21.7791   -9.8029  -15.9906 N   0  0  0  0  0  0  0  0  0  0  0  0
   21.6628   -7.4850  -15.2909 C   0  0  0  0  0  0  0  0  0  0  0  0
   22.2239   -7.7477  -14.2103 O   0  0  0  0  0  0  0  0  0  0  0  0
   22.4393   -3.8327  -15.8547 C   0  0  0  0  0  0  0  0  0  0  0  0
   22.3232   -5.1219  -15.0250 C   0  0  2  0  0  0  0  0  0  0  0  0
   21.6581   -6.1527  -15.7473 N   0  0  0  0  0  0  0  0  0  0  0  0
   21.6991   -4.7599  -13.7564 C   0  0  0  0  0  0  0  0  0  0  0  0
   22.3240   -3.8590  -12.9177 O   0  0  0  0  0  0  0  0  0  0  0  0
   20.6053   -5.2370  -13.3885 O   0  0  0  0  0  0  0  0  0  0  0  0
  2  1  1  6
  3  2  1  0
  4  8  1  0
  4  3  1  0
  5  4  2  0
  6  5  1  0
  6  7  1  0
  7  8  2  0
  9 10  2  0
  9  2  1  0
 12 14  1  0
 12 11  1  0
 13 12  2  0
 15 14  1  1
 15 16  1  0
 16  9  1  0
 17 15  1  0
 18 17  2  0
 20 19  1  6
 20 21  1  0
 21 17  1  0
 22 23  1  0
 22 20  1  0
 24 22  2  0
M  END
$$$$
