HNA.pdb
     RDKit          3D

 24 24  0  0  1  0  0  0  0  0999 V2000
   18.5003  -10.6449  -16.5769 N   0  0  0  0  0  0  0  0  0  0  0  0
   19.7299  -10.1538  -16.0294 C   0  0  1  0  0  0  0  0  0  0  0  0
   20.6998   -9.9795  -17.1975 C   0  0  0  0  0  0  0  0  0  0  0  0
   21.1776  -11.3103  -17.6108 C   0  0  0  0  0  0  0  0  0  0  0  0
   22.3690  -11.8779  -17.2718 C   0  0  0  0  0  0  0  0  0  0  0  0
   22.4470  -13.1052  -17.8421 N   0  0  0  0  0  0  0  0  0  0  0  0
   21.3003  -13.2752  -18.5248 C   0  0  0  0  0  0  0  0  0  0  0  0
   20.5214  -12.1767  -18.3843 N   0  0  0  0  0  0  0  0  0  0  0  0
   19.5918   -8.8478  -15.3725 C   0  0  0  0  0  0  0  0  0  0  0  0
   18.8622   -7.9836  -15.9350 O   0  0  0  0  0  0  0  0  0  0  0  0
   17.5938   -8.2350  -12.7092 N   0  0  0  0  0  0  0  0  0  0  0  0
   18.4704   -7.8586  -11.6592 C   0  0  0  0  0  0  0  0  0  0  0  0
   18.0580   -8.0042  -10.4866 O   0  0  0  0  0  0  0  0  0  0  0  0
   19.7949   -7.3269  -12.0288 C   0  0  0  0  0  0  0  0  0  0  0  0
   19.9784   -7.2119  -13.5237 C   0  0  2  0  0  0  0  0  0  0  0  0
   20.2247   -8.4930  -14.1464 N   0  0  0  0  0  0  0  0  0  0  0  0
   21.0054   -6.2135  -13.8816 C   0  0  0  0  0  0  0  0  0  0  0  0
   22.2068   -6.5419  -13.8678 O   0  0  0  0  0  0  0  0  0  0  0  0
   22.4796   -4.5139  -15.8432 C   0  0  0  0  0  0  0  0  0  0  0  0
   21.6579   -3.9658  -14.6649 C   0  0  2  0  0  0  0  0  0  0  0  0
   20.6661   -4.8944  -14.2399 N   0  0  0  0  0  0  0  0  0  0  0  0
   21.1442   -2.6616  -15.0711 C   0  0  0  0  0  0  0  0  0  0  0  0
   19.7831   -2.4706  -15.1989 O   0  0  0  0  0  0  0  0  0  0  0  0
   21.8941   -1.6927  -15.3128 O   0  0  0  0  0  0  0  0  0  0  0  0
  2  1  1  6
  3  2  1  0
  4  8  1  0
  4  3  1  0
  5  4  2  0
  6  5  1  0
  6  7  1  0
  7  8  2  0
  9 10  2  0
  9  2  1  0
 12 14  1  0
 12 11  1  0
 13 12  2  0
 15 14  1  1
 15 16  1  0
 16  9  1  0
 17 15  1  0
 18 17  2  0
 20 19  1  6
 20 21  1  0
 21 17  1  0
 22 23  1  0
 22 20  1  0
 24 22  2  0
M  END
$$$$
