HNA.pdb
     RDKit          3D

 24 24  0  0  1  0  0  0  0  0999 V2000
   22.1922  -12.9367  -16.9619 N   0  0  0  0  0  0  0  0  0  0  0  0
   21.4671  -11.7033  -17.0400 C   0  0  1  0  0  0  0  0  0  0  0  0
   20.3232  -11.7941  -16.0305 C   0  0  0  0  0  0  0  0  0  0  0  0
   19.2603  -12.6380  -16.6034 C   0  0  0  0  0  0  0  0  0  0  0  0
   19.4368  -13.8207  -17.2565 C   0  0  0  0  0  0  0  0  0  0  0  0
   18.2253  -14.2967  -17.6347 N   0  0  0  0  0  0  0  0  0  0  0  0
   17.3193  -13.3984  -17.2082 C   0  0  0  0  0  0  0  0  0  0  0  0
   17.9515  -12.3814  -16.5761 N   0  0  0  0  0  0  0  0  0  0  0  0
   22.2767  -10.5310  -16.6845 C   0  0  0  0  0  0  0  0  0  0  0  0
   23.1293  -10.6659  -15.7622 O   0  0  0  0  0  0  0  0  0  0  0  0
   24.6536   -6.0729  -16.3006 N   0  0  0  0  0  0  0  0  0  0  0  0
   24.7177   -6.5106  -17.6485 C   0  0  0  0  0  0  0  0  0  0  0  0
   25.5459   -5.9451  -18.3972 O   0  0  0  0  0  0  0  0  0  0  0  0
   23.8071   -7.5938  -18.0620 C   0  0  0  0  0  0  0  0  0  0  0  0
   23.0066   -8.1519  -16.9090 C   0  0  2  0  0  0  0  0  0  0  0  0
   22.1638   -9.2558  -17.3096 N   0  0  0  0  0  0  0  0  0  0  0  0
   22.2479   -7.1020  -16.2005 C   0  0  0  0  0  0  0  0  0  0  0  0
   21.3881   -6.4472  -16.8199 O   0  0  0  0  0  0  0  0  0  0  0  0
   21.5638   -6.2601  -12.6307 C   0  0  0  0  0  0  0  0  0  0  0  0
   21.6271   -5.9151  -14.1277 C   0  0  2  0  0  0  0  0  0  0  0  0
   22.4679   -6.8170  -14.8390 N   0  0  0  0  0  0  0  0  0  0  0  0
   22.0097   -4.5102  -14.2274 C   0  0  0  0  0  0  0  0  0  0  0  0
   23.1485   -4.1580  -14.9234 O   0  0  0  0  0  0  0  0  0  0  0  0
   21.3412   -3.5956  -13.7020 O   0  0  0  0  0  0  0  0  0  0  0  0
  2  1  1  1
  3  2  1  0
  4  8  1  0
  4  3  1  0
  5  4  2  0
  6  5  1  0
  6  7  1  0
  7  8  2  0
  9 10  2  0
  9  2  1  0
 12 14  1  0
 12 11  1  0
 13 12  2  0
 15 14  1  6
 15 16  1  0
 16  9  1  0
 17 15  1  0
 18 17  2  0
 20 19  1  1
 20 21  1  0
 21 17  1  0
 22 23  1  0
 22 20  1  0
 24 22  2  0
M  END
$$$$
