HNA.pdb
     RDKit          3D

 24 24  0  0  1  0  0  0  0  0999 V2000
   16.3940  -11.5535  -15.3862 N   0  0  0  0  0  0  0  0  0  0  0  0
   17.6854  -11.2190  -14.8633 C   0  0  1  0  0  0  0  0  0  0  0  0
   18.6879  -11.3993  -16.0027 C   0  0  0  0  0  0  0  0  0  0  0  0
   18.8266  -12.8395  -16.2796 C   0  0  0  0  0  0  0  0  0  0  0  0
   19.5153  -13.7408  -15.5247 C   0  0  0  0  0  0  0  0  0  0  0  0
   19.4121  -14.9635  -16.1006 N   0  0  0  0  0  0  0  0  0  0  0  0
   18.6600  -14.7965  -17.2035 C   0  0  0  0  0  0  0  0  0  0  0  0
   18.3004  -13.4959  -17.3148 N   0  0  0  0  0  0  0  0  0  0  0  0
   17.7834   -9.8270  -14.4061 C   0  0  0  0  0  0  0  0  0  0  0  0
   17.2475   -8.9360  -15.1233 O   0  0  0  0  0  0  0  0  0  0  0  0
   16.1842   -8.9956  -10.3256 N   0  0  0  0  0  0  0  0  0  0  0  0
   16.5630   -8.0774  -11.3386 C   0  0  0  0  0  0  0  0  0  0  0  0
   15.6527   -7.6076  -12.0575 O   0  0  0  0  0  0  0  0  0  0  0  0
   17.9944   -7.7485  -11.4658 C   0  0  0  0  0  0  0  0  0  0  0  0
   18.5321   -8.0203  -12.8510 C   0  0  2  0  0  0  0  0  0  0  0  0
   18.4412   -9.4174  -13.2106 N   0  0  0  0  0  0  0  0  0  0  0  0
   19.8975   -7.4880  -13.0306 C   0  0  0  0  0  0  0  0  0  0  0  0
   20.8184   -7.9135  -12.3077 O   0  0  0  0  0  0  0  0  0  0  0  0
   21.7308   -5.5391  -15.6409 C   0  0  0  0  0  0  0  0  0  0  0  0
   21.5238   -6.0511  -14.2060 C   0  0  2  0  0  0  0  0  0  0  0  0
   20.1919   -6.5090  -13.9992 N   0  0  0  0  0  0  0  0  0  0  0  0
   21.9540   -4.9864  -13.3052 C   0  0  0  0  0  0  0  0  0  0  0  0
   23.2734   -4.9189  -12.9050 O   0  0  0  0  0  0  0  0  0  0  0  0
   21.1682   -4.1178  -12.8723 O   0  0  0  0  0  0  0  0  0  0  0  0
  2  1  1  6
  3  2  1  0
  4  8  1  0
  4  3  1  0
  5  4  2  0
  6  5  1  0
  6  7  1  0
  7  8  2  0
  9 10  2  0
  9  2  1  0
 12 14  1  0
 12 11  1  0
 13 12  2  0
 15 14  1  1
 15 16  1  0
 16  9  1  0
 17 15  1  0
 18 17  2  0
 20 19  1  6
 20 21  1  0
 21 17  1  0
 22 23  1  0
 22 20  1  0
 24 22  2  0
M  END
$$$$
