KNW.pdb
     RDKit          3D

 32 33  0  0  1  0  0  0  0  0999 V2000
   25.5303  -19.8168  -17.3324 N   0  0  0  0  0  0  0  0  0  0  0  0
   25.7956  -21.2056  -17.1232 C   0  0  1  0  0  0  0  0  0  0  0  0
   27.2147  -21.5977  -17.3968 C   0  0  0  0  0  0  0  0  0  0  0  0
   27.3850  -22.5191  -18.5596 C   0  0  0  0  0  0  0  0  0  0  0  0
   26.4419  -23.6954  -18.5352 C   0  0  0  0  0  0  0  0  0  0  0  0
   27.1222  -24.8553  -19.2450 C   0  0  0  0  0  0  0  0  0  0  0  0
   26.3155  -26.0471  -19.2539 N   0  0  0  0  0  0  0  0  0  0  0  0
   25.5094  -21.5679  -15.6881 C   0  0  0  0  0  0  0  0  0  0  0  0
   25.3718  -22.7654  -15.3372 O   0  0  0  0  0  0  0  0  0  0  0  0
   24.9537  -21.7834  -10.7569 N   0  0  0  0  0  0  0  0  0  0  0  0
   25.7621  -20.6152  -10.9662 C   0  0  0  0  0  0  0  0  0  0  0  0
   26.2708  -20.0421   -9.9592 O   0  0  0  0  0  0  0  0  0  0  0  0
   25.9416  -20.1665  -12.3529 C   0  0  0  0  0  0  0  0  0  0  0  0
   25.1613  -21.0066  -13.3019 C   0  0  2  0  0  0  0  0  0  0  0  0
   25.3847  -20.5826  -14.6831 N   0  0  0  0  0  0  0  0  0  0  0  0
   23.6780  -20.9132  -13.0643 C   0  0  0  0  0  0  0  0  0  0  0  0
   23.2817  -21.3309  -11.9230 O   0  0  0  0  0  0  0  0  0  0  0  0
   22.8004  -20.4015  -14.0240 N   0  0  0  0  0  0  0  0  0  0  0  0
   21.3947  -20.3039  -13.8472 C   0  0  1  0  0  0  0  0  0  0  0  0
   20.8540  -18.9777  -14.3110 C   0  0  0  0  0  0  0  0  0  0  0  0
   21.0615  -18.8674  -15.7812 C   0  0  0  0  0  0  0  0  0  0  0  0
   20.3270  -19.4402  -16.7832 C   0  0  0  0  0  0  0  0  0  0  0  0
   20.8840  -19.0579  -17.9624 N   0  0  0  0  0  0  0  0  0  0  0  0
   21.9433  -18.2644  -17.7510 C   0  0  0  0  0  0  0  0  0  0  0  0
   22.8414  -17.6180  -18.6026 C   0  0  0  0  0  0  0  0  0  0  0  0
   23.8578  -16.8464  -18.0953 C   0  0  0  0  0  0  0  0  0  0  0  0
   23.9976  -16.7053  -16.7451 C   0  0  0  0  0  0  0  0  0  0  0  0
   23.0927  -17.3573  -15.9102 C   0  0  0  0  0  0  0  0  0  0  0  0
   22.0656  -18.1367  -16.3982 C   0  0  0  0  0  0  0  0  0  0  0  0
   20.6558  -21.4242  -14.4813 C   0  0  0  0  0  0  0  0  0  0  0  0
   21.1579  -22.2444  -15.2563 O   0  0  0  0  0  0  0  0  0  0  0  0
   19.2997  -21.5459  -14.1702 O   0  0  0  0  0  0  0  0  0  0  0  0
  2  1  1  1
  2  3  1  0
  3  4  1  0
  4  5  1  0
  6  5  1  0
  7  6  1  0
  8  9  2  0
  8  2  1  0
 10 11  1  0
 11 13  1  0
 12 11  2  0
 14 13  1  1
 14 15  1  0
 15  8  1  0
 16 14  1  0
 16 18  1  0
 17 16  2  0
 19 18  1  0
 19 30  1  0
 20 21  1  0
 19 20  1  6
 21 29  1  0
 22 21  2  0
 22 23  1  0
 23 24  1  0
 24 25  1  0
 25 26  2  0
 27 26  1  0
 28 27  2  0
 29 24  2  0
 29 28  1  0
 30 31  2  0
 30 32  1  0
M  END
$$$$
