KNW.pdb
     RDKit          3D

 32 33  0  0  1  0  0  0  0  0999 V2000
   27.6142  -22.2937  -16.7445 N   0  0  0  0  0  0  0  0  0  0  0  0
   27.8397  -21.3634  -15.6832 C   0  0  1  0  0  0  0  0  0  0  0  0
   27.8465  -19.9326  -16.1250 C   0  0  0  0  0  0  0  0  0  0  0  0
   28.0926  -19.7408  -17.5853 C   0  0  0  0  0  0  0  0  0  0  0  0
   29.5505  -19.8183  -17.9625 C   0  0  0  0  0  0  0  0  0  0  0  0
   29.6660  -19.5171  -19.4484 C   0  0  0  0  0  0  0  0  0  0  0  0
   31.0321  -19.4799  -19.8999 N   0  0  0  0  0  0  0  0  0  0  0  0
   26.7515  -21.4979  -14.6487 C   0  0  0  0  0  0  0  0  0  0  0  0
   25.6881  -22.1149  -14.9031 O   0  0  0  0  0  0  0  0  0  0  0  0
   25.4628  -20.6298   -8.7014 N   0  0  0  0  0  0  0  0  0  0  0  0
   25.2842  -21.2343   -9.9916 C   0  0  0  0  0  0  0  0  0  0  0  0
   24.2409  -21.9195  -10.2005 O   0  0  0  0  0  0  0  0  0  0  0  0
   26.3398  -21.0088  -10.9872 C   0  0  0  0  0  0  0  0  0  0  0  0
   25.8268  -21.1846  -12.3733 C   0  0  2  0  0  0  0  0  0  0  0  0
   26.8803  -20.9396  -13.3570 N   0  0  0  0  0  0  0  0  0  0  0  0
   24.7123  -20.2267  -12.6981 C   0  0  0  0  0  0  0  0  0  0  0  0
   24.7823  -19.0914  -12.1145 O   0  0  0  0  0  0  0  0  0  0  0  0
   23.6789  -20.5569  -13.5788 N   0  0  0  0  0  0  0  0  0  0  0  0
   22.4669  -19.8259  -13.6956 C   0  0  1  0  0  0  0  0  0  0  0  0
   22.6880  -18.4428  -14.2472 C   0  0  0  0  0  0  0  0  0  0  0  0
   23.4969  -18.5510  -15.4924 C   0  0  0  0  0  0  0  0  0  0  0  0
   23.1773  -19.2006  -16.6534 C   0  0  0  0  0  0  0  0  0  0  0  0
   24.2151  -19.0259  -17.5134 N   0  0  0  0  0  0  0  0  0  0  0  0
   25.1820  -18.2910  -16.9465 C   0  0  0  0  0  0  0  0  0  0  0  0
   26.4248  -17.8355  -17.3912 C   0  0  0  0  0  0  0  0  0  0  0  0
   27.2279  -17.0784  -16.5741 C   0  0  0  0  0  0  0  0  0  0  0  0
   26.8131  -16.7638  -15.3125 C   0  0  0  0  0  0  0  0  0  0  0  0
   25.5705  -17.2265  -14.8853 C   0  0  0  0  0  0  0  0  0  0  0  0
   24.7487  -17.9880  -15.6888 C   0  0  0  0  0  0  0  0  0  0  0  0
   21.4335  -20.5465  -14.4806 C   0  0  0  0  0  0  0  0  0  0  0  0
   21.6209  -21.6156  -15.0698 O   0  0  0  0  0  0  0  0  0  0  0  0
   20.1667  -19.9623  -14.5481 O   0  0  0  0  0  0  0  0  0  0  0  0
  2  1  1  6
  2  3  1  0
  3  4  1  0
  4  5  1  0
  6  5  1  0
  7  6  1  0
  8  9  2  0
  8  2  1  0
 10 11  1  0
 11 13  1  0
 12 11  2  0
 14 13  1  1
 14 15  1  0
 15  8  1  0
 16 14  1  0
 16 18  1  0
 17 16  2  0
 19 18  1  0
 19 30  1  0
 20 21  1  0
 19 20  1  6
 21 29  1  0
 22 21  2  0
 22 23  1  0
 23 24  1  0
 24 25  1  0
 25 26  2  0
 27 26  1  0
 28 27  2  0
 29 24  2  0
 29 28  1  0
 30 31  2  0
 30 32  1  0
M  END
$$$$
