KNW.pdb
     RDKit          3D

 32 33  0  0  1  0  0  0  0  0999 V2000
   27.8900  -20.3217  -16.4531 N   0  0  0  0  0  0  0  0  0  0  0  0
   26.8029  -19.7100  -17.1508 C   0  0  1  0  0  0  0  0  0  0  0  0
   27.0846  -19.4478  -18.5980 C   0  0  0  0  0  0  0  0  0  0  0  0
   28.5358  -19.3359  -18.9317 C   0  0  0  0  0  0  0  0  0  0  0  0
   29.1877  -18.1004  -18.3641 C   0  0  0  0  0  0  0  0  0  0  0  0
   30.2905  -17.6724  -19.3193 C   0  0  0  0  0  0  0  0  0  0  0  0
   29.8544  -16.6656  -20.2508 N   0  0  0  0  0  0  0  0  0  0  0  0
   25.5930  -20.6077  -17.0952 C   0  0  0  0  0  0  0  0  0  0  0  0
   24.6094  -20.4172  -17.8518 O   0  0  0  0  0  0  0  0  0  0  0  0
   25.2923  -25.4004  -14.3752 N   0  0  0  0  0  0  0  0  0  0  0  0
   25.6431  -24.3485  -15.2876 C   0  0  0  0  0  0  0  0  0  0  0  0
   26.7889  -23.8201  -15.1914 O   0  0  0  0  0  0  0  0  0  0  0  0
   24.6322  -23.9591  -16.2791 C   0  0  0  0  0  0  0  0  0  0  0  0
   24.3017  -22.5113  -16.1791 C   0  0  2  0  0  0  0  0  0  0  0  0
   25.5143  -21.6946  -16.1958 N   0  0  0  0  0  0  0  0  0  0  0  0
   23.5811  -22.1745  -14.9015 C   0  0  0  0  0  0  0  0  0  0  0  0
   22.4288  -22.7117  -14.7680 O   0  0  0  0  0  0  0  0  0  0  0  0
   24.1374  -21.3373  -13.9306 N   0  0  0  0  0  0  0  0  0  0  0  0
   23.4125  -20.7923  -12.8378 C   0  0  1  0  0  0  0  0  0  0  0  0
   24.3205  -20.2262  -11.7789 C   0  0  0  0  0  0  0  0  0  0  0  0
   25.6016  -19.8192  -12.4188 C   0  0  0  0  0  0  0  0  0  0  0  0
   25.7970  -18.8834  -13.3975 C   0  0  0  0  0  0  0  0  0  0  0  0
   27.1291  -18.8496  -13.6647 N   0  0  0  0  0  0  0  0  0  0  0  0
   27.7894  -19.7260  -12.8950 C   0  0  0  0  0  0  0  0  0  0  0  0
   29.1366  -20.0735  -12.7778 C   0  0  0  0  0  0  0  0  0  0  0  0
   29.5386  -21.0308  -11.8789 C   0  0  0  0  0  0  0  0  0  0  0  0
   28.6166  -21.6532  -11.0883 C   0  0  0  0  0  0  0  0  0  0  0  0
   27.2768  -21.2942  -11.2185 C   0  0  0  0  0  0  0  0  0  0  0  0
   26.8516  -20.3364  -12.1143 C   0  0  0  0  0  0  0  0  0  0  0  0
   22.4052  -19.7868  -13.2596 C   0  0  0  0  0  0  0  0  0  0  0  0
   22.3592  -19.2693  -14.3801 O   0  0  0  0  0  0  0  0  0  0  0  0
   21.4501  -19.4103  -12.3127 O   0  0  0  0  0  0  0  0  0  0  0  0
  2  1  1  6
  2  3  1  0
  3  4  1  0
  4  5  1  0
  6  5  1  0
  7  6  1  0
  8  9  2  0
  8  2  1  0
 10 11  1  0
 11 13  1  0
 12 11  2  0
 14 13  1  1
 14 15  1  0
 15  8  1  0
 16 14  1  0
 16 18  1  0
 17 16  2  0
 19 18  1  0
 19 30  1  0
 20 21  1  0
 19 20  1  1
 21 29  1  0
 22 21  2  0
 22 23  1  0
 23 24  1  0
 24 25  1  0
 25 26  2  0
 27 26  1  0
 28 27  2  0
 29 24  2  0
 29 28  1  0
 30 31  2  0
 30 32  1  0
M  END
$$$$
