KNW.pdb
     RDKit          3D

 32 33  0  0  1  0  0  0  0  0999 V2000
   29.0115  -24.0933  -16.2203 N   0  0  0  0  0  0  0  0  0  0  0  0
   29.7415  -22.8681  -16.1269 C   0  0  1  0  0  0  0  0  0  0  0  0
   30.3303  -22.4147  -17.4269 C   0  0  0  0  0  0  0  0  0  0  0  0
   30.5156  -23.5040  -18.4314 C   0  0  0  0  0  0  0  0  0  0  0  0
   31.7712  -24.3107  -18.2158 C   0  0  0  0  0  0  0  0  0  0  0  0
   32.5775  -24.2746  -19.5044 C   0  0  0  0  0  0  0  0  0  0  0  0
   33.8788  -24.8721  -19.3586 N   0  0  0  0  0  0  0  0  0  0  0  0
   28.8286  -21.7667  -15.6510 C   0  0  0  0  0  0  0  0  0  0  0  0
   29.2176  -20.5736  -15.6133 O   0  0  0  0  0  0  0  0  0  0  0  0
   25.5237  -18.5881  -14.2075 N   0  0  0  0  0  0  0  0  0  0  0  0
   24.8630  -19.4108  -15.1814 C   0  0  0  0  0  0  0  0  0  0  0  0
   23.7993  -18.9814  -15.7159 O   0  0  0  0  0  0  0  0  0  0  0  0
   25.4797  -20.7074  -15.4898 C   0  0  0  0  0  0  0  0  0  0  0  0
   26.7093  -20.9309  -14.6815 C   0  0  2  0  0  0  0  0  0  0  0  0
   27.5052  -22.0276  -15.2304 N   0  0  0  0  0  0  0  0  0  0  0  0
   26.3990  -21.3039  -13.2568 C   0  0  0  0  0  0  0  0  0  0  0  0
   25.7681  -22.4056  -13.1070 O   0  0  0  0  0  0  0  0  0  0  0  0
   26.7792  -20.5024  -12.1769 N   0  0  0  0  0  0  0  0  0  0  0  0
   26.4299  -20.7668  -10.8261 C   0  0  1  0  0  0  0  0  0  0  0  0
   27.4962  -20.3154   -9.8642 C   0  0  0  0  0  0  0  0  0  0  0  0
   26.9801  -20.4675   -8.4760 C   0  0  0  0  0  0  0  0  0  0  0  0
   25.8080  -21.0440   -8.0692 C   0  0  0  0  0  0  0  0  0  0  0  0
   25.7637  -20.9574   -6.7136 N   0  0  0  0  0  0  0  0  0  0  0  0
   26.8609  -20.3493   -6.2414 C   0  0  0  0  0  0  0  0  0  0  0  0
   27.2961  -20.0206   -4.9560 C   0  0  0  0  0  0  0  0  0  0  0  0
   28.4970  -19.3830   -4.7636 C   0  0  0  0  0  0  0  0  0  0  0  0
   29.2788  -19.0641   -5.8359 C   0  0  0  0  0  0  0  0  0  0  0  0
   28.8291  -19.3994   -7.1111 C   0  0  0  0  0  0  0  0  0  0  0  0
   27.6271  -20.0391   -7.3269 C   0  0  0  0  0  0  0  0  0  0  0  0
   25.1097  -20.2008  -10.4516 C   0  0  0  0  0  0  0  0  0  0  0  0
   24.7573  -19.0384  -10.6757 O   0  0  0  0  0  0  0  0  0  0  0  0
   24.2153  -21.0541   -9.8017 O   0  0  0  0  0  0  0  0  0  0  0  0
  2  1  1  6
  2  3  1  0
  3  4  1  0
  4  5  1  0
  6  5  1  0
  7  6  1  0
  8  9  2  0
  8  2  1  0
 10 11  1  0
 11 13  1  0
 12 11  2  0
 14 13  1  6
 14 15  1  0
 15  8  1  0
 16 14  1  0
 16 18  1  0
 17 16  2  0
 19 18  1  0
 19 30  1  0
 20 21  1  0
 19 20  1  1
 21 29  1  0
 22 21  2  0
 22 23  1  0
 23 24  1  0
 24 25  1  0
 25 26  2  0
 27 26  1  0
 28 27  2  0
 29 24  2  0
 29 28  1  0
 30 31  2  0
 30 32  1  0
M  END
$$$$
