KNW.pdb
     RDKit          3D

 32 33  0  0  1  0  0  0  0  0999 V2000
   26.3961  -18.3490  -17.4607 N   0  0  0  0  0  0  0  0  0  0  0  0
   25.1086  -18.6301  -16.9075 C   0  0  1  0  0  0  0  0  0  0  0  0
   23.9763  -18.3830  -17.8557 C   0  0  0  0  0  0  0  0  0  0  0  0
   24.2859  -17.4068  -18.9425 C   0  0  0  0  0  0  0  0  0  0  0  0
   24.1207  -17.9797  -20.3275 C   0  0  0  0  0  0  0  0  0  0  0  0
   24.4693  -16.8902  -21.3291 C   0  0  0  0  0  0  0  0  0  0  0  0
   24.4692  -17.3676  -22.6869 N   0  0  0  0  0  0  0  0  0  0  0  0
   25.0338  -20.0807  -16.5036 C   0  0  0  0  0  0  0  0  0  0  0  0
   24.3980  -20.9138  -17.1948 O   0  0  0  0  0  0  0  0  0  0  0  0
   25.5628  -24.6646  -15.0250 N   0  0  0  0  0  0  0  0  0  0  0  0
   26.8408  -24.1044  -15.3639 C   0  0  0  0  0  0  0  0  0  0  0  0
   27.8099  -24.8902  -15.5756 O   0  0  0  0  0  0  0  0  0  0  0  0
   26.9294  -22.6406  -15.4416 C   0  0  0  0  0  0  0  0  0  0  0  0
   25.6433  -21.9967  -15.0587 C   0  0  2  0  0  0  0  0  0  0  0  0
   25.6719  -20.5619  -15.3384 N   0  0  0  0  0  0  0  0  0  0  0  0
   25.3469  -22.1366  -13.5898 C   0  0  0  0  0  0  0  0  0  0  0  0
   25.2154  -23.3378  -13.1725 O   0  0  0  0  0  0  0  0  0  0  0  0
   25.2292  -21.0298  -12.7447 N   0  0  0  0  0  0  0  0  0  0  0  0
   24.6922  -21.0836  -11.4311 C   0  0  1  0  0  0  0  0  0  0  0  0
   25.3179  -20.0625  -10.5188 C   0  0  0  0  0  0  0  0  0  0  0  0
   26.6999  -20.5053  -10.1861 C   0  0  0  0  0  0  0  0  0  0  0  0
   27.5955  -21.1547  -10.9911 C   0  0  0  0  0  0  0  0  0  0  0  0
   28.7260  -21.3506  -10.2627 N   0  0  0  0  0  0  0  0  0  0  0  0
   28.5860  -20.8515   -9.0267 C   0  0  0  0  0  0  0  0  0  0  0  0
   29.4296  -20.7931   -7.9156 C   0  0  0  0  0  0  0  0  0  0  0  0
   29.0116  -20.2044   -6.7475 C   0  0  0  0  0  0  0  0  0  0  0  0
   27.7592  -19.6684   -6.6646 C   0  0  0  0  0  0  0  0  0  0  0  0
   26.9308  -19.7355   -7.7826 C   0  0  0  0  0  0  0  0  0  0  0  0
   27.3301  -20.3220   -8.9647 C   0  0  0  0  0  0  0  0  0  0  0  0
   23.2122  -20.9717  -11.4093 C   0  0  0  0  0  0  0  0  0  0  0  0
   22.5092  -20.7876  -12.4080 O   0  0  0  0  0  0  0  0  0  0  0  0
   22.5860  -21.0845  -10.1660 O   0  0  0  0  0  0  0  0  0  0  0  0
  2  1  1  6
  2  3  1  0
  3  4  1  0
  4  5  1  0
  6  5  1  0
  7  6  1  0
  8  9  2  0
  8  2  1  0
 10 11  1  0
 11 13  1  0
 12 11  2  0
 14 13  1  1
 14 15  1  0
 15  8  1  0
 16 14  1  0
 16 18  1  0
 17 16  2  0
 19 18  1  0
 19 30  1  0
 20 21  1  0
 19 20  1  1
 21 29  1  0
 22 21  2  0
 22 23  1  0
 23 24  1  0
 24 25  1  0
 25 26  2  0
 27 26  1  0
 28 27  2  0
 29 24  2  0
 29 28  1  0
 30 31  2  0
 30 32  1  0
M  END
$$$$
