KNW.pdb
     RDKit          3D

 32 33  0  0  1  0  0  0  0  0999 V2000
   29.1220  -19.5868  -15.6374 N   0  0  0  0  0  0  0  0  0  0  0  0
   28.2879  -18.5462  -15.1234 C   0  0  1  0  0  0  0  0  0  0  0  0
   27.7073  -17.6591  -16.1808 C   0  0  0  0  0  0  0  0  0  0  0  0
   28.6296  -17.3757  -17.3206 C   0  0  0  0  0  0  0  0  0  0  0  0
   29.1441  -15.9584  -17.3371 C   0  0  0  0  0  0  0  0  0  0  0  0
   28.9342  -15.4008  -18.7360 C   0  0  0  0  0  0  0  0  0  0  0  0
   29.4096  -14.0488  -18.8687 N   0  0  0  0  0  0  0  0  0  0  0  0
   27.1286  -19.1483  -14.3708 C   0  0  0  0  0  0  0  0  0  0  0  0
   26.1397  -18.4502  -14.0378 O   0  0  0  0  0  0  0  0  0  0  0  0
   24.3276  -24.3283  -13.0945 N   0  0  0  0  0  0  0  0  0  0  0  0
   24.3206  -22.9128  -13.3359 C   0  0  0  0  0  0  0  0  0  0  0  0
   23.3125  -22.2408  -12.9704 O   0  0  0  0  0  0  0  0  0  0  0  0
   25.5007  -22.3419  -13.9976 C   0  0  0  0  0  0  0  0  0  0  0  0
   25.9072  -21.0552  -13.3696 C   0  0  2  0  0  0  0  0  0  0  0  0
   27.1048  -20.5144  -14.0107 N   0  0  0  0  0  0  0  0  0  0  0  0
   26.2406  -21.2096  -11.9101 C   0  0  0  0  0  0  0  0  0  0  0  0
   27.4189  -21.6394  -11.6628 O   0  0  0  0  0  0  0  0  0  0  0  0
   25.3259  -20.8997  -10.9000 N   0  0  0  0  0  0  0  0  0  0  0  0
   25.5694  -21.1000   -9.5153 C   0  0  1  0  0  0  0  0  0  0  0  0
   26.8093  -20.3861   -9.0470 C   0  0  0  0  0  0  0  0  0  0  0  0
   26.8871  -20.4909   -7.5639 C   0  0  0  0  0  0  0  0  0  0  0  0
   26.0795  -21.2084   -6.7244 C   0  0  0  0  0  0  0  0  0  0  0  0
   26.5303  -21.0057   -5.4584 N   0  0  0  0  0  0  0  0  0  0  0  0
   27.5925  -20.1883   -5.4586 C   0  0  0  0  0  0  0  0  0  0  0  0
   28.4084  -19.6771   -4.4473 C   0  0  0  0  0  0  0  0  0  0  0  0
   29.4549  -18.8398   -4.7462 C   0  0  0  0  0  0  0  0  0  0  0  0
   29.7061  -18.4994   -6.0438 C   0  0  0  0  0  0  0  0  0  0  0  0
   28.8821  -19.0184   -7.0400 C   0  0  0  0  0  0  0  0  0  0  0  0
   27.8262  -19.8602   -6.7621 C   0  0  0  0  0  0  0  0  0  0  0  0
   24.4044  -20.7414   -8.6683 C   0  0  0  0  0  0  0  0  0  0  0  0
   23.5145  -19.9517   -8.9997 O   0  0  0  0  0  0  0  0  0  0  0  0
   24.3230  -21.3474   -7.4126 O   0  0  0  0  0  0  0  0  0  0  0  0
  2  1  1  6
  2  3  1  0
  3  4  1  0
  4  5  1  0
  6  5  1  0
  7  6  1  0
  8  9  2  0
  8  2  1  0
 10 11  1  0
 11 13  1  0
 12 11  2  0
 14 13  1  6
 14 15  1  0
 15  8  1  0
 16 14  1  0
 16 18  1  0
 17 16  2  0
 19 18  1  0
 19 30  1  0
 20 21  1  0
 19 20  1  1
 21 29  1  0
 22 21  2  0
 22 23  1  0
 23 24  1  0
 24 25  1  0
 25 26  2  0
 27 26  1  0
 28 27  2  0
 29 24  2  0
 29 28  1  0
 30 31  2  0
 30 32  1  0
M  END
$$$$
