KSQ.pdb
     RDKit          3D

 25 24  0  0  1  0  0  0  0  0999 V2000
   12.1299  -16.7159   18.7287 N   0  0  0  0  0  0  0  0  0  0  0  0
   10.8668  -17.0327   19.3748 C   0  0  1  0  0  0  0  0  0  0  0  0
   10.8717  -18.4803   19.7478 C   0  0  0  0  0  0  0  0  0  0  0  0
   11.5218  -19.3473   18.6912 C   0  0  0  0  0  0  0  0  0  0  0  0
   10.8320  -20.7046   18.6074 C   0  0  0  0  0  0  0  0  0  0  0  0
   11.4890  -21.5710   17.5537 C   0  0  0  0  0  0  0  0  0  0  0  0
   10.7699  -22.8267   17.5292 N   0  0  0  0  0  0  0  0  0  0  0  0
   10.6170  -16.1446   20.5338 C   0  0  0  0  0  0  0  0  0  0  0  0
   11.5995  -15.5478   21.0324 O   0  0  0  0  0  0  0  0  0  0  0  0
    6.9139  -15.8228   22.4460 O   0  0  0  0  0  0  0  0  0  0  0  0
    7.7559  -14.7096   22.5190 C   0  0  0  0  0  0  0  0  0  0  0  0
    9.1991  -15.1161   22.2779 C   0  0  2  0  0  0  0  0  0  0  0  0
    9.3451  -15.9287   21.1108 N   0  0  0  0  0  0  0  0  0  0  0  0
    9.6139  -15.9098   23.4682 C   0  0  0  0  0  0  0  0  0  0  0  0
    9.8708  -17.1475   23.3619 O   0  0  0  0  0  0  0  0  0  0  0  0
   10.2948  -13.2790   29.1959 N   0  0  0  0  0  0  0  0  0  0  0  0
   10.5860  -14.6640   29.4293 C   0  0  0  0  0  0  0  0  0  0  0  0
   10.8589  -15.0370   30.5958 O   0  0  0  0  0  0  0  0  0  0  0  0
   10.5687  -15.6497   28.3375 C   0  0  0  0  0  0  0  0  0  0  0  0
   10.1952  -14.9881   27.0468 C   0  0  0  0  0  0  0  0  0  0  0  0
   10.1044  -15.9985   25.9507 C   0  0  2  0  0  0  0  0  0  0  0  0
    9.7197  -15.2645   24.7289 N   0  0  0  0  0  0  0  0  0  0  0  0
    9.0759  -17.0368   26.2343 C   0  0  0  0  0  0  0  0  0  0  0  0
    9.4074  -18.2508   26.7835 O   0  0  0  0  0  0  0  0  0  0  0  0
    7.8855  -16.7836   25.9609 O   0  0  0  0  0  0  0  0  0  0  0  0
  2  1  1  1
  3  2  1  0
  3  4  1  0
  5  4  1  0
  5  6  1  0
  7  6  1  0
  8  2  1  0
  8  9  2  0
 11 10  1  0
 12 11  1  1
 12 13  1  0
 13  8  1  0
 14 12  1  0
 14 22  1  0
 15 14  2  0
 16 17  1  0
 17 19  1  0
 18 17  2  0
 19 20  1  0
 21 20  1  1
 21 22  1  0
 21 23  1  0
 23 25  2  0
 23 24  1  0
M  END
$$$$
