KSQ.pdb
     RDKit          3D

 25 24  0  0  1  0  0  0  0  0999 V2000
   11.0925  -17.8774   12.6858 N   0  0  0  0  0  0  0  0  0  0  0  0
   10.8631  -19.1590   13.3325 C   0  0  1  0  0  0  0  0  0  0  0  0
   11.8314  -20.1535   12.7773 C   0  0  0  0  0  0  0  0  0  0  0  0
   11.9113  -20.1013   11.2668 C   0  0  0  0  0  0  0  0  0  0  0  0
   12.8230  -21.2024   10.7362 C   0  0  0  0  0  0  0  0  0  0  0  0
   12.9525  -21.1063    9.2307 C   0  0  0  0  0  0  0  0  0  0  0  0
   13.8450  -22.1665    8.8138 N   0  0  0  0  0  0  0  0  0  0  0  0
   10.9471  -19.0411   14.8068 C   0  0  0  0  0  0  0  0  0  0  0  0
   11.8350  -18.2952   15.2815 O   0  0  0  0  0  0  0  0  0  0  0  0
    8.5744  -21.1727   17.6885 O   0  0  0  0  0  0  0  0  0  0  0  0
    8.9350  -19.8337   17.8629 C   0  0  0  0  0  0  0  0  0  0  0  0
   10.2235  -19.5275   17.1198 C   0  0  2  0  0  0  0  0  0  0  0  0
   10.0922  -19.7143   15.7085 N   0  0  0  0  0  0  0  0  0  0  0  0
   11.2411  -20.4848   17.6363 C   0  0  0  0  0  0  0  0  0  0  0  0
   11.8222  -21.2954   16.8525 O   0  0  0  0  0  0  0  0  0  0  0  0
   17.2725  -21.2428   17.9880 N   0  0  0  0  0  0  0  0  0  0  0  0
   16.3532  -20.3665   18.6548 C   0  0  0  0  0  0  0  0  0  0  0  0
   16.5115  -19.1266   18.5458 O   0  0  0  0  0  0  0  0  0  0  0  0
   15.2349  -20.8879   19.4558 C   0  0  0  0  0  0  0  0  0  0  0  0
   13.9337  -20.3573   18.9379 C   0  0  0  0  0  0  0  0  0  0  0  0
   12.7895  -21.1032   19.5420 C   0  0  2  0  0  0  0  0  0  0  0  0
   11.5562  -20.4811   19.0212 N   0  0  0  0  0  0  0  0  0  0  0  0
   12.7868  -21.0106   21.0278 C   0  0  0  0  0  0  0  0  0  0  0  0
   12.1022  -20.0207   21.6886 O   0  0  0  0  0  0  0  0  0  0  0  0
   13.4277  -21.8614   21.6769 O   0  0  0  0  0  0  0  0  0  0  0  0
  2  1  1  6
  3  2  1  0
  3  4  1  0
  5  4  1  0
  5  6  1  0
  7  6  1  0
  8  2  1  0
  8  9  2  0
 11 10  1  0
 12 11  1  1
 12 13  1  0
 13  8  1  0
 14 12  1  0
 14 22  1  0
 15 14  2  0
 16 17  1  0
 17 19  1  0
 18 17  2  0
 19 20  1  0
 21 20  1  6
 21 22  1  0
 21 23  1  0
 23 25  2  0
 23 24  1  0
M  END
$$$$
