KSQ.pdb
     RDKit          3D

 25 24  0  0  1  0  0  0  0  0999 V2000
    8.2775  -12.3589   17.2923 N   0  0  0  0  0  0  0  0  0  0  0  0
    8.0463  -13.6877   17.8347 C   0  0  1  0  0  0  0  0  0  0  0  0
    8.6422  -14.6936   16.9031 C   0  0  0  0  0  0  0  0  0  0  0  0
    7.7017  -15.0674   15.7777 C   0  0  0  0  0  0  0  0  0  0  0  0
    8.2491  -16.2511   14.9876 C   0  0  0  0  0  0  0  0  0  0  0  0
    7.3091  -16.6174   13.8585 C   0  0  0  0  0  0  0  0  0  0  0  0
    7.9222  -17.7104   13.1347 N   0  0  0  0  0  0  0  0  0  0  0  0
    8.5718  -13.8051   19.2147 C   0  0  0  0  0  0  0  0  0  0  0  0
    9.7795  -13.5298   19.4032 O   0  0  0  0  0  0  0  0  0  0  0  0
    6.6851  -15.8693   22.3427 O   0  0  0  0  0  0  0  0  0  0  0  0
    7.3785  -14.7059   22.6880 C   0  0  0  0  0  0  0  0  0  0  0  0
    8.3978  -14.3555   21.6183 C   0  0  2  0  0  0  0  0  0  0  0  0
    7.7998  -14.2066   20.3283 N   0  0  0  0  0  0  0  0  0  0  0  0
    9.3607  -15.4910   21.5709 C   0  0  0  0  0  0  0  0  0  0  0  0
    9.4588  -16.2120   20.5318 O   0  0  0  0  0  0  0  0  0  0  0  0
   13.7447  -14.6255   19.3060 N   0  0  0  0  0  0  0  0  0  0  0  0
   14.3969  -15.1404   20.4752 C   0  0  0  0  0  0  0  0  0  0  0  0
   15.6097  -14.8757   20.6579 O   0  0  0  0  0  0  0  0  0  0  0  0
   13.6776  -15.9644   21.4589 C   0  0  0  0  0  0  0  0  0  0  0  0
   12.2701  -15.4766   21.6145 C   0  0  0  0  0  0  0  0  0  0  0  0
   11.5234  -16.3393   22.5781 C   0  0  2  0  0  0  0  0  0  0  0  0
   10.1715  -15.7600   22.7055 N   0  0  0  0  0  0  0  0  0  0  0  0
   12.1675  -16.3618   23.9201 C   0  0  0  0  0  0  0  0  0  0  0  0
   11.5824  -15.7699   25.0122 O   0  0  0  0  0  0  0  0  0  0  0  0
   13.2676  -16.9370   24.0411 O   0  0  0  0  0  0  0  0  0  0  0  0
  2  1  1  6
  3  2  1  0
  3  4  1  0
  5  4  1  0
  5  6  1  0
  7  6  1  0
  8  2  1  0
  8  9  2  0
 11 10  1  0
 12 11  1  1
 12 13  1  0
 13  8  1  0
 14 12  1  0
 14 22  1  0
 15 14  2  0
 16 17  1  0
 17 19  1  0
 18 17  2  0
 19 20  1  0
 21 20  1  6
 21 22  1  0
 21 23  1  0
 23 25  2  0
 23 24  1  0
M  END
$$$$
