KSQ.pdb
     RDKit          3D

 25 24  0  0  1  0  0  0  0  0999 V2000
   10.2065  -16.6475   17.8598 N   0  0  0  0  0  0  0  0  0  0  0  0
    9.5934  -17.3666   18.9645 C   0  0  1  0  0  0  0  0  0  0  0  0
    9.8946  -18.8229   18.8114 C   0  0  0  0  0  0  0  0  0  0  0  0
    9.8519  -19.2732   17.3670 C   0  0  0  0  0  0  0  0  0  0  0  0
   10.1568  -20.7632   17.2571 C   0  0  0  0  0  0  0  0  0  0  0  0
   10.1405  -21.2040   15.8086 C   0  0  0  0  0  0  0  0  0  0  0  0
   11.0677  -22.3090   15.6917 N   0  0  0  0  0  0  0  0  0  0  0  0
   10.0356  -16.8257   20.2708 C   0  0  0  0  0  0  0  0  0  0  0  0
   11.1659  -17.1675   20.6899 O   0  0  0  0  0  0  0  0  0  0  0  0
    7.5935  -14.8917   23.1511 O   0  0  0  0  0  0  0  0  0  0  0  0
    8.8797  -14.3954   22.9216 C   0  0  0  0  0  0  0  0  0  0  0  0
    9.7671  -15.4715   22.3212 C   0  0  2  0  0  0  0  0  0  0  0  0
    9.2660  -15.9517   21.0713 N   0  0  0  0  0  0  0  0  0  0  0  0
    9.7769  -16.5972   23.2967 C   0  0  0  0  0  0  0  0  0  0  0  0
    9.2659  -17.7183   22.9948 O   0  0  0  0  0  0  0  0  0  0  0  0
   14.8716  -20.6128   24.5842 N   0  0  0  0  0  0  0  0  0  0  0  0
   13.9728  -19.5722   24.1756 C   0  0  0  0  0  0  0  0  0  0  0  0
   14.0474  -19.1340   23.0023 O   0  0  0  0  0  0  0  0  0  0  0  0
   12.9707  -19.0139   25.0965 C   0  0  0  0  0  0  0  0  0  0  0  0
   12.1437  -17.9789   24.3982 C   0  0  0  0  0  0  0  0  0  0  0  0
   11.0494  -17.4960   25.2927 C   0  0  2  0  0  0  0  0  0  0  0  0
   10.3665  -16.4022   24.5740 N   0  0  0  0  0  0  0  0  0  0  0  0
   11.5755  -16.9716   26.5829 C   0  0  0  0  0  0  0  0  0  0  0  0
   11.9231  -17.8082   27.6147 O   0  0  0  0  0  0  0  0  0  0  0  0
   11.6985  -15.7376   26.7162 O   0  0  0  0  0  0  0  0  0  0  0  0
  2  1  1  6
  3  2  1  0
  3  4  1  0
  5  4  1  0
  5  6  1  0
  7  6  1  0
  8  2  1  0
  8  9  2  0
 11 10  1  0
 12 11  1  1
 12 13  1  0
 13  8  1  0
 14 12  1  0
 14 22  1  0
 15 14  2  0
 16 17  1  0
 17 19  1  0
 18 17  2  0
 19 20  1  0
 21 20  1  6
 21 22  1  0
 21 23  1  0
 23 25  2  0
 23 24  1  0
M  END
$$$$
