MKP.pdb
     RDKit          3D

 25 25  0  0  1  0  0  0  0  0999 V2000
    9.4481  -11.8674   18.3384 C   0  0  0  0  0  0  0  0  0  0  0  0
    8.0321  -12.3162   19.3469 S   0  0  0  0  0  0  0  0  0  0  0  0
    8.0471  -14.0757   19.7840 C   0  0  0  0  0  0  0  0  0  0  0  0
    6.9530  -14.3955   20.7902 C   0  0  0  0  0  0  0  0  0  0  0  0
    7.0117  -15.8941   21.0738 C   0  0  2  0  0  0  0  0  0  0  0  0
    5.9077  -16.4900   20.3524 N   0  0  0  0  0  0  0  0  0  0  0  0
    6.7758  -16.0614   22.5247 C   0  0  0  0  0  0  0  0  0  0  0  0
    5.6035  -16.0239   22.9593 O   0  0  0  0  0  0  0  0  0  0  0  0
    7.8270  -16.2640   23.4562 N   0  0  0  0  0  0  0  0  0  0  0  0
    7.5595  -16.4902   24.8998 C   0  0  1  0  0  0  0  0  0  0  0  0
    7.6799  -18.0036   25.0324 C   0  0  0  0  0  0  0  0  0  0  0  0
    6.4865  -18.7340   24.5438 C   0  0  0  0  0  0  0  0  0  0  0  0
    6.6744  -20.2538   24.6680 C   0  0  0  0  0  0  0  0  0  0  0  0
    5.4558  -20.9771   24.1537 C   0  0  0  0  0  0  0  0  0  0  0  0
    5.6897  -22.3971   24.2303 N   0  0  0  0  0  0  0  0  0  0  0  0
    8.5836  -15.7950   25.7076 C   0  0  0  0  0  0  0  0  0  0  0  0
    9.7000  -16.3777   25.7760 O   0  0  0  0  0  0  0  0  0  0  0  0
    8.3834  -14.5769   26.3665 N   0  0  0  0  0  0  0  0  0  0  0  0
    7.5190  -13.5193   25.7867 C   0  0  0  0  0  0  0  0  0  0  0  0
    6.7571  -13.0524   26.9922 C   0  0  0  0  0  0  0  0  0  0  0  0
    7.5847  -13.4656   28.1938 C   0  0  0  0  0  0  0  0  0  0  0  0
    8.8983  -13.9431   27.5280 C   0  0  1  0  0  0  0  0  0  0  0  0
    9.6856  -14.7145   28.4670 C   0  0  0  0  0  0  0  0  0  0  0  0
    9.6945  -15.9320   28.6812 O   0  0  0  0  0  0  0  0  0  0  0  0
   10.5855  -13.9611   29.2653 O   0  0  0  0  0  0  0  0  0  0  0  0
  1  2  1  0
  3  2  1  0
  4  5  1  0
  4  3  1  0
  5  6  1  6
  7  5  1  0
  7  8  2  0
  9  7  1  0
 10  9  1  0
 10 11  1  6
 11 12  1  0
 13 12  1  0
 14 13  1  0
 14 15  1  0
 16 10  1  0
 17 16  2  0
 18 16  1  0
 18 22  1  0
 19 18  1  0
 20 19  1  0
 20 21  1  0
 21 22  1  0
 22 23  1  1
 23 24  2  0
 23 25  1  0
M  END
$$$$
