MKP.pdb
     RDKit          3D

 25 25  0  0  1  0  0  0  0  0999 V2000
    7.6177  -11.9099   26.7084 C   0  0  0  0  0  0  0  0  0  0  0  0
    6.4180  -12.9650   27.5278 S   0  0  0  0  0  0  0  0  0  0  0  0
    7.0318  -14.6602   27.7196 C   0  0  0  0  0  0  0  0  0  0  0  0
    7.6265  -15.1738   26.4180 C   0  0  0  0  0  0  0  0  0  0  0  0
    6.4711  -15.6373   25.5348 C   0  0  2  0  0  0  0  0  0  0  0  0
    6.0681  -16.9336   26.0362 N   0  0  0  0  0  0  0  0  0  0  0  0
    7.0196  -15.8055   24.1712 C   0  0  0  0  0  0  0  0  0  0  0  0
    7.4560  -16.9253   23.8243 O   0  0  0  0  0  0  0  0  0  0  0  0
    7.0753  -14.7460   23.2287 N   0  0  0  0  0  0  0  0  0  0  0  0
    7.7503  -14.9033   21.9149 C   0  0  1  0  0  0  0  0  0  0  0  0
    7.6877  -13.4963   21.3326 C   0  0  0  0  0  0  0  0  0  0  0  0
    8.5516  -13.3130   20.1424 C   0  0  0  0  0  0  0  0  0  0  0  0
    7.8555  -13.8127   18.8670 C   0  0  0  0  0  0  0  0  0  0  0  0
    8.7874  -13.7110   17.6864 C   0  0  0  0  0  0  0  0  0  0  0  0
    8.1087  -14.2015   16.5134 N   0  0  0  0  0  0  0  0  0  0  0  0
    9.1473  -15.3380   22.1254 C   0  0  0  0  0  0  0  0  0  0  0  0
    9.8482  -14.5670   22.8359 O   0  0  0  0  0  0  0  0  0  0  0  0
    9.7019  -16.5107   21.6007 N   0  0  0  0  0  0  0  0  0  0  0  0
    8.8571  -17.6887   21.2838 C   0  0  0  0  0  0  0  0  0  0  0  0
    9.4217  -18.1233   19.9632 C   0  0  0  0  0  0  0  0  0  0  0  0
   10.8184  -17.5365   19.8941 C   0  0  0  0  0  0  0  0  0  0  0  0
   11.0090  -16.9953   21.3320 C   0  0  1  0  0  0  0  0  0  0  0  0
   12.1290  -16.0788   21.3791 C   0  0  0  0  0  0  0  0  0  0  0  0
   12.3195  -15.0278   20.7568 O   0  0  0  0  0  0  0  0  0  0  0  0
   13.1690  -16.4388   22.2755 O   0  0  0  0  0  0  0  0  0  0  0  0
  1  2  1  0
  3  2  1  0
  4  5  1  0
  4  3  1  0
  5  6  1  1
  7  5  1  0
  7  8  2  0
  9  7  1  0
 10  9  1  0
 10 11  1  1
 11 12  1  0
 13 12  1  0
 14 13  1  0
 14 15  1  0
 16 10  1  0
 17 16  2  0
 18 16  1  0
 18 22  1  0
 19 18  1  0
 20 19  1  0
 20 21  1  0
 21 22  1  0
 22 23  1  6
 23 24  2  0
 23 25  1  0
M  END
$$$$
