MKP.pdb
     RDKit          3D

 25 25  0  0  1  0  0  0  0  0999 V2000
    8.0166  -11.3207   20.3613 C   0  0  0  0  0  0  0  0  0  0  0  0
    8.7096  -12.2480   18.9889 S   0  0  0  0  0  0  0  0  0  0  0  0
    8.5665  -14.0373   19.2444 C   0  0  0  0  0  0  0  0  0  0  0  0
    7.5988  -14.3496   20.3748 C   0  0  0  0  0  0  0  0  0  0  0  0
    7.7260  -15.8371   20.6924 C   0  0  2  0  0  0  0  0  0  0  0  0
    6.8457  -16.5276   19.7746 N   0  0  0  0  0  0  0  0  0  0  0  0
    7.2165  -16.0226   22.0689 C   0  0  0  0  0  0  0  0  0  0  0  0
    5.9921  -15.8898   22.2880 O   0  0  0  0  0  0  0  0  0  0  0  0
    8.0593  -16.3470   23.1636 N   0  0  0  0  0  0  0  0  0  0  0  0
    7.5369  -16.4420   24.5509 C   0  0  1  0  0  0  0  0  0  0  0  0
    7.5484  -17.9431   24.8139 C   0  0  0  0  0  0  0  0  0  0  0  0
    6.1930  -18.5378   24.8889 C   0  0  0  0  0  0  0  0  0  0  0  0
    6.1027  -19.8246   24.0541 C   0  0  0  0  0  0  0  0  0  0  0  0
    4.6732  -20.2953   23.9684 C   0  0  0  0  0  0  0  0  0  0  0  0
    4.6309  -21.5220   23.2133 N   0  0  0  0  0  0  0  0  0  0  0  0
    8.4451  -15.7263   25.4716 C   0  0  0  0  0  0  0  0  0  0  0  0
    9.4385  -16.3926   25.8713 O   0  0  0  0  0  0  0  0  0  0  0  0
    8.2649  -14.4059   25.8981 N   0  0  0  0  0  0  0  0  0  0  0  0
    7.4288  -13.4534   25.1265 C   0  0  0  0  0  0  0  0  0  0  0  0
    6.6659  -12.7624   26.2184 C   0  0  0  0  0  0  0  0  0  0  0  0
    7.4733  -12.9686   27.4853 C   0  0  0  0  0  0  0  0  0  0  0  0
    8.7825  -13.5835   26.9333 C   0  0  1  0  0  0  0  0  0  0  0  0
    9.5444  -14.1884   28.0058 C   0  0  0  0  0  0  0  0  0  0  0  0
   10.4736  -13.7251   28.6767 O   0  0  0  0  0  0  0  0  0  0  0  0
    9.1700  -15.5160   28.3407 O   0  0  0  0  0  0  0  0  0  0  0  0
  1  2  1  0
  3  2  1  0
  4  5  1  0
  4  3  1  0
  5  6  1  6
  7  5  1  0
  7  8  2  0
  9  7  1  0
 10  9  1  0
 10 11  1  1
 11 12  1  0
 13 12  1  0
 14 13  1  0
 14 15  1  0
 16 10  1  0
 17 16  2  0
 18 16  1  0
 18 22  1  0
 19 18  1  0
 20 19  1  0
 20 21  1  0
 21 22  1  0
 22 23  1  1
 23 24  2  0
 23 25  1  0
M  END
$$$$
