MKP.pdb
     RDKit          3D

 25 25  0  0  1  0  0  0  0  0999 V2000
    7.6357  -11.4353   26.6148 C   0  0  0  0  0  0  0  0  0  0  0  0
    6.0894  -12.1843   27.1360 S   0  0  0  0  0  0  0  0  0  0  0  0
    6.2620  -13.9692   27.4035 C   0  0  0  0  0  0  0  0  0  0  0  0
    7.2013  -14.5844   26.3784 C   0  0  0  0  0  0  0  0  0  0  0  0
    6.3558  -15.4228   25.4234 C   0  0  2  0  0  0  0  0  0  0  0  0
    5.9749  -16.6132   26.1527 N   0  0  0  0  0  0  0  0  0  0  0  0
    7.2410  -15.8146   24.3047 C   0  0  0  0  0  0  0  0  0  0  0  0
    7.7612  -16.9522   24.3096 O   0  0  0  0  0  0  0  0  0  0  0  0
    7.5313  -14.9524   23.2156 N   0  0  0  0  0  0  0  0  0  0  0  0
    8.4316  -15.3667   22.1090 C   0  0  1  0  0  0  0  0  0  0  0  0
    8.4287  -14.1462   21.1964 C   0  0  0  0  0  0  0  0  0  0  0  0
    7.7368  -14.3776   19.9064 C   0  0  0  0  0  0  0  0  0  0  0  0
    8.5154  -13.7546   18.7374 C   0  0  0  0  0  0  0  0  0  0  0  0
    7.7321  -13.8858   17.4561 C   0  0  0  0  0  0  0  0  0  0  0  0
    8.5279  -13.3740   16.3690 N   0  0  0  0  0  0  0  0  0  0  0  0
    9.7825  -15.6362   22.6448 C   0  0  0  0  0  0  0  0  0  0  0  0
   10.3358  -14.6603   23.2213 O   0  0  0  0  0  0  0  0  0  0  0  0
   10.4442  -16.8655   22.5498 N   0  0  0  0  0  0  0  0  0  0  0  0
    9.6958  -18.1467   22.5575 C   0  0  0  0  0  0  0  0  0  0  0  0
   10.3989  -18.9179   21.4792 C   0  0  0  0  0  0  0  0  0  0  0  0
   11.7624  -18.2720   21.3270 C   0  0  0  0  0  0  0  0  0  0  0  0
   11.7943  -17.3043   22.5350 C   0  0  1  0  0  0  0  0  0  0  0  0
   12.8546  -16.3318   22.3714 C   0  0  0  0  0  0  0  0  0  0  0  0
   13.9597  -16.2644   22.9213 O   0  0  0  0  0  0  0  0  0  0  0  0
   12.5878  -15.2962   21.4381 O   0  0  0  0  0  0  0  0  0  0  0  0
  1  2  1  0
  3  2  1  0
  4  5  1  0
  4  3  1  0
  5  6  1  1
  7  5  1  0
  7  8  2  0
  9  7  1  0
 10  9  1  0
 10 11  1  6
 11 12  1  0
 13 12  1  0
 14 13  1  0
 14 15  1  0
 16 10  1  0
 17 16  2  0
 18 16  1  0
 18 22  1  0
 19 18  1  0
 20 19  1  0
 20 21  1  0
 21 22  1  0
 22 23  1  6
 23 24  2  0
 23 25  1  0
M  END
$$$$
