MKP.pdb
     RDKit          3D

 25 25  0  0  1  0  0  0  0  0999 V2000
    8.5722  -11.6356   20.4644 C   0  0  0  0  0  0  0  0  0  0  0  0
    8.1792  -12.4978   18.9393 S   0  0  0  0  0  0  0  0  0  0  0  0
    7.5604  -14.1729   19.2528 C   0  0  0  0  0  0  0  0  0  0  0  0
    8.5833  -14.9959   20.0196 C   0  0  0  0  0  0  0  0  0  0  0  0
    7.8981  -16.2858   20.4627 C   0  0  2  0  0  0  0  0  0  0  0  0
    6.7421  -16.4489   19.6076 N   0  0  0  0  0  0  0  0  0  0  0  0
    7.4346  -16.0657   21.8503 C   0  0  0  0  0  0  0  0  0  0  0  0
    6.4047  -15.3837   22.0472 O   0  0  0  0  0  0  0  0  0  0  0  0
    8.1100  -16.5964   22.9799 N   0  0  0  0  0  0  0  0  0  0  0  0
    7.5899  -16.4128   24.3591 C   0  0  1  0  0  0  0  0  0  0  0  0
    7.6654  -17.8203   24.9387 C   0  0  0  0  0  0  0  0  0  0  0  0
    7.1998  -17.9041   26.3432 C   0  0  0  0  0  0  0  0  0  0  0  0
    7.4276  -19.3089   26.9222 C   0  0  0  0  0  0  0  0  0  0  0  0
    6.8778  -19.3945   28.3233 C   0  0  0  0  0  0  0  0  0  0  0  0
    7.1591  -20.7041   28.8551 N   0  0  0  0  0  0  0  0  0  0  0  0
    8.4650  -15.4780   25.0975 C   0  0  0  0  0  0  0  0  0  0  0  0
    9.6635  -15.8503   25.2229 O   0  0  0  0  0  0  0  0  0  0  0  0
    8.0470  -14.2560   25.6360 N   0  0  0  0  0  0  0  0  0  0  0  0
    7.1077  -13.3713   24.9033 C   0  0  0  0  0  0  0  0  0  0  0  0
    6.1841  -12.9305   26.0007 C   0  0  0  0  0  0  0  0  0  0  0  0
    6.9456  -13.1400   27.2952 C   0  0  0  0  0  0  0  0  0  0  0  0
    8.3658  -13.4771   26.7794 C   0  0  1  0  0  0  0  0  0  0  0  0
    9.1587  -14.0645   27.8392 C   0  0  0  0  0  0  0  0  0  0  0  0
    9.3239  -15.2521   28.1400 O   0  0  0  0  0  0  0  0  0  0  0  0
    9.8536  -13.1382   28.6602 O   0  0  0  0  0  0  0  0  0  0  0  0
  1  2  1  0
  3  2  1  0
  4  5  1  0
  4  3  1  0
  5  6  1  6
  7  5  1  0
  7  8  2  0
  9  7  1  0
 10  9  1  0
 10 11  1  1
 11 12  1  0
 13 12  1  0
 14 13  1  0
 14 15  1  0
 16 10  1  0
 17 16  2  0
 18 16  1  0
 18 22  1  0
 19 18  1  0
 20 19  1  0
 20 21  1  0
 21 22  1  0
 22 23  1  1
 23 24  2  0
 23 25  1  0
M  END
$$$$
