MKP.pdb
     RDKit          3D

 25 25  0  0  1  0  0  0  0  0999 V2000
    8.8435  -11.6401   19.8751 C   0  0  0  0  0  0  0  0  0  0  0  0
    8.5264  -12.6764   18.4436 S   0  0  0  0  0  0  0  0  0  0  0  0
    8.2807  -14.4113   18.9092 C   0  0  0  0  0  0  0  0  0  0  0  0
    7.5422  -14.5196   20.2338 C   0  0  0  0  0  0  0  0  0  0  0  0
    7.5538  -15.9883   20.6490 C   0  0  2  0  0  0  0  0  0  0  0  0
    6.5796  -16.6568   19.8135 N   0  0  0  0  0  0  0  0  0  0  0  0
    7.0883  -16.0367   22.0524 C   0  0  0  0  0  0  0  0  0  0  0  0
    5.8614  -15.9790   22.2893 O   0  0  0  0  0  0  0  0  0  0  0  0
    7.9764  -16.1460   23.1538 N   0  0  0  0  0  0  0  0  0  0  0  0
    7.4832  -16.1897   24.5543 C   0  0  1  0  0  0  0  0  0  0  0  0
    7.6453  -17.6594   24.9237 C   0  0  0  0  0  0  0  0  0  0  0  0
    7.2294  -17.9664   26.3127 C   0  0  0  0  0  0  0  0  0  0  0  0
    7.5001  -19.4378   26.6625 C   0  0  0  0  0  0  0  0  0  0  0  0
    6.9900  -19.7506   28.0462 C   0  0  0  0  0  0  0  0  0  0  0  0
    7.3556  -21.1034   28.3828 N   0  0  0  0  0  0  0  0  0  0  0  0
    8.3282  -15.3240   25.4037 C   0  0  0  0  0  0  0  0  0  0  0  0
    9.4931  -15.7564   25.6197 O   0  0  0  0  0  0  0  0  0  0  0  0
    7.9172  -14.1035   25.9510 N   0  0  0  0  0  0  0  0  0  0  0  0
    6.8288  -13.3079   25.3312 C   0  0  0  0  0  0  0  0  0  0  0  0
    6.0477  -12.8689   26.5349 C   0  0  0  0  0  0  0  0  0  0  0  0
    6.9996  -12.9750   27.7105 C   0  0  0  0  0  0  0  0  0  0  0  0
    8.3487  -13.2557   27.0049 C   0  0  1  0  0  0  0  0  0  0  0  0
    9.3212  -13.7478   27.9582 C   0  0  0  0  0  0  0  0  0  0  0  0
   10.2517  -13.1567   28.5176 O   0  0  0  0  0  0  0  0  0  0  0  0
    9.1890  -15.1176   28.3059 O   0  0  0  0  0  0  0  0  0  0  0  0
  1  2  1  0
  3  2  1  0
  4  5  1  0
  4  3  1  0
  5  6  1  6
  7  5  1  0
  7  8  2  0
  9  7  1  0
 10  9  1  0
 10 11  1  1
 11 12  1  0
 13 12  1  0
 14 13  1  0
 14 15  1  0
 16 10  1  0
 17 16  2  0
 18 16  1  0
 18 22  1  0
 19 18  1  0
 20 19  1  0
 20 21  1  0
 21 22  1  0
 22 23  1  1
 23 24  2  0
 23 25  1  0
M  END
$$$$
