MKP.pdb
     RDKit          3D

 25 25  0  0  1  0  0  0  0  0999 V2000
    8.8862  -11.9037   19.9415 C   0  0  0  0  0  0  0  0  0  0  0  0
    8.5494  -12.9463   18.5190 S   0  0  0  0  0  0  0  0  0  0  0  0
    8.2330  -14.6646   19.0032 C   0  0  0  0  0  0  0  0  0  0  0  0
    7.5243  -14.7294   20.3468 C   0  0  0  0  0  0  0  0  0  0  0  0
    7.4416  -16.1982   20.7536 C   0  0  2  0  0  0  0  0  0  0  0  0
    6.3937  -16.7870   19.9478 N   0  0  0  0  0  0  0  0  0  0  0  0
    7.0204  -16.2231   22.1716 C   0  0  0  0  0  0  0  0  0  0  0  0
    5.8043  -16.3315   22.4437 O   0  0  0  0  0  0  0  0  0  0  0  0
    7.9397  -16.1285   23.2485 N   0  0  0  0  0  0  0  0  0  0  0  0
    7.4958  -16.2040   24.6641 C   0  0  1  0  0  0  0  0  0  0  0  0
    7.7253  -17.6699   25.0122 C   0  0  0  0  0  0  0  0  0  0  0  0
    7.3697  -18.0051   26.4113 C   0  0  0  0  0  0  0  0  0  0  0  0
    7.7089  -19.4679   26.7367 C   0  0  0  0  0  0  0  0  0  0  0  0
    7.2548  -19.8140   28.1319 C   0  0  0  0  0  0  0  0  0  0  0  0
    7.4754  -21.2201   28.3584 N   0  0  0  0  0  0  0  0  0  0  0  0
    8.3357  -15.3149   25.4941 C   0  0  0  0  0  0  0  0  0  0  0  0
    9.5205  -15.7085   25.6727 O   0  0  0  0  0  0  0  0  0  0  0  0
    7.8998  -14.1125   26.0617 N   0  0  0  0  0  0  0  0  0  0  0  0
    6.8096  -13.3182   25.4433 C   0  0  0  0  0  0  0  0  0  0  0  0
    6.0050  -12.9164   26.6444 C   0  0  0  0  0  0  0  0  0  0  0  0
    6.9410  -13.0355   27.8315 C   0  0  0  0  0  0  0  0  0  0  0  0
    8.3040  -13.2823   27.1401 C   0  0  1  0  0  0  0  0  0  0  0  0
    9.2692  -13.7820   28.0969 C   0  0  0  0  0  0  0  0  0  0  0  0
   10.1597  -13.1831   28.7105 O   0  0  0  0  0  0  0  0  0  0  0  0
    9.1826  -15.1712   28.3752 O   0  0  0  0  0  0  0  0  0  0  0  0
  1  2  1  0
  3  2  1  0
  4  5  1  0
  4  3  1  0
  5  6  1  6
  7  5  1  0
  7  8  2  0
  9  7  1  0
 10  9  1  0
 10 11  1  1
 11 12  1  0
 13 12  1  0
 14 13  1  0
 14 15  1  0
 16 10  1  0
 17 16  2  0
 18 16  1  0
 18 22  1  0
 19 18  1  0
 20 19  1  0
 20 21  1  0
 21 22  1  0
 22 23  1  1
 23 24  2  0
 23 25  1  0
M  END
$$$$
