MKP.pdb
     RDKit          3D

 25 25  0  0  1  0  0  0  0  0999 V2000
    9.9579  -13.7093   27.4060 C   0  0  0  0  0  0  0  0  0  0  0  0
    8.6755  -14.1826   28.5701 S   0  0  0  0  0  0  0  0  0  0  0  0
    8.1686  -15.9092   28.3486 C   0  0  0  0  0  0  0  0  0  0  0  0
    8.4463  -16.3798   26.9298 C   0  0  0  0  0  0  0  0  0  0  0  0
    7.1261  -16.3406   26.1647 C   0  0  2  0  0  0  0  0  0  0  0  0
    6.3468  -17.4648   26.6367 N   0  0  0  0  0  0  0  0  0  0  0  0
    7.4551  -16.5566   24.7386 C   0  0  0  0  0  0  0  0  0  0  0  0
    7.6609  -17.7212   24.3309 O   0  0  0  0  0  0  0  0  0  0  0  0
    7.5496  -15.4949   23.8019 N   0  0  0  0  0  0  0  0  0  0  0  0
    8.1375  -15.6932   22.4522 C   0  0  1  0  0  0  0  0  0  0  0  0
    7.9206  -14.3392   21.7871 C   0  0  0  0  0  0  0  0  0  0  0  0
    8.5680  -14.2256   20.4588 C   0  0  0  0  0  0  0  0  0  0  0  0
    7.6257  -13.5755   19.4340 C   0  0  0  0  0  0  0  0  0  0  0  0
    8.3112  -13.4488   18.0974 C   0  0  0  0  0  0  0  0  0  0  0  0
    7.4914  -12.6433   17.2278 N   0  0  0  0  0  0  0  0  0  0  0  0
    9.5763  -16.0065   22.5805 C   0  0  0  0  0  0  0  0  0  0  0  0
   10.2506  -15.1715   23.2430 O   0  0  0  0  0  0  0  0  0  0  0  0
   10.1959  -17.1341   22.0302 N   0  0  0  0  0  0  0  0  0  0  0  0
    9.4276  -18.3682   21.7329 C   0  0  0  0  0  0  0  0  0  0  0  0
    9.9782  -18.7554   20.3918 C   0  0  0  0  0  0  0  0  0  0  0  0
   11.3262  -18.0696   20.2813 C   0  0  0  0  0  0  0  0  0  0  0  0
   11.5248  -17.5224   21.7158 C   0  0  1  0  0  0  0  0  0  0  0  0
   12.5772  -16.5280   21.7327 C   0  0  0  0  0  0  0  0  0  0  0  0
   13.6576  -16.5278   22.3335 O   0  0  0  0  0  0  0  0  0  0  0  0
   12.3348  -15.3761   20.9395 O   0  0  0  0  0  0  0  0  0  0  0  0
  1  2  1  0
  3  2  1  0
  4  5  1  0
  4  3  1  0
  5  6  1  1
  7  5  1  0
  7  8  2  0
  9  7  1  0
 10  9  1  0
 10 11  1  6
 11 12  1  0
 13 12  1  0
 14 13  1  0
 14 15  1  0
 16 10  1  0
 17 16  2  0
 18 16  1  0
 18 22  1  0
 19 18  1  0
 20 19  1  0
 20 21  1  0
 21 22  1  0
 22 23  1  6
 23 24  2  0
 23 25  1  0
M  END
$$$$
