MKP.pdb
     RDKit          3D

 25 25  0  0  1  0  0  0  0  0999 V2000
    8.7798  -11.5020   20.0721 C   0  0  0  0  0  0  0  0  0  0  0  0
    8.3195  -12.5757   18.7087 S   0  0  0  0  0  0  0  0  0  0  0  0
    8.2883  -14.3192   19.2052 C   0  0  0  0  0  0  0  0  0  0  0  0
    7.4471  -14.5133   20.4567 C   0  0  0  0  0  0  0  0  0  0  0  0
    7.5352  -15.9862   20.8471 C   0  0  2  0  0  0  0  0  0  0  0  0
    6.5545  -16.6817   20.0417 N   0  0  0  0  0  0  0  0  0  0  0  0
    7.1312  -16.0741   22.2676 C   0  0  0  0  0  0  0  0  0  0  0  0
    5.9297  -15.9025   22.5706 O   0  0  0  0  0  0  0  0  0  0  0  0
    8.0511  -16.3461   23.3133 N   0  0  0  0  0  0  0  0  0  0  0  0
    7.6170  -16.4446   24.7304 C   0  0  1  0  0  0  0  0  0  0  0  0
    7.5127  -17.9494   24.9478 C   0  0  0  0  0  0  0  0  0  0  0  0
    6.2556  -18.5340   24.4238 C   0  0  0  0  0  0  0  0  0  0  0  0
    6.2262  -20.0576   24.6197 C   0  0  0  0  0  0  0  0  0  0  0  0
    4.9657  -20.6381   24.0307 C   0  0  0  0  0  0  0  0  0  0  0  0
    5.0629  -22.0759   24.0471 N   0  0  0  0  0  0  0  0  0  0  0  0
    8.6451  -15.8434   25.6058 C   0  0  0  0  0  0  0  0  0  0  0  0
    9.6196  -16.5944   25.8835 O   0  0  0  0  0  0  0  0  0  0  0  0
    8.5923  -14.5409   26.1145 N   0  0  0  0  0  0  0  0  0  0  0  0
    7.9593  -13.4389   25.3486 C   0  0  0  0  0  0  0  0  0  0  0  0
    7.1890  -12.7250   26.4204 C   0  0  0  0  0  0  0  0  0  0  0  0
    7.8403  -13.1169   27.7326 C   0  0  0  0  0  0  0  0  0  0  0  0
    9.1084  -13.8623   27.2498 C   0  0  1  0  0  0  0  0  0  0  0  0
    9.6831  -14.6300   28.3346 C   0  0  0  0  0  0  0  0  0  0  0  0
    9.4431  -15.7859   28.7013 O   0  0  0  0  0  0  0  0  0  0  0  0
   10.6737  -13.9557   29.0954 O   0  0  0  0  0  0  0  0  0  0  0  0
  1  2  1  0
  3  2  1  0
  4  5  1  0
  4  3  1  0
  5  6  1  6
  7  5  1  0
  7  8  2  0
  9  7  1  0
 10  9  1  0
 10 11  1  1
 11 12  1  0
 13 12  1  0
 14 13  1  0
 14 15  1  0
 16 10  1  0
 17 16  2  0
 18 16  1  0
 18 22  1  0
 19 18  1  0
 20 19  1  0
 20 21  1  0
 21 22  1  0
 22 23  1  1
 23 24  2  0
 23 25  1  0
M  END
$$$$
