MKP.pdb
     RDKit          3D

 25 25  0  0  1  0  0  0  0  0999 V2000
    8.3695  -11.2457   20.0238 C   0  0  0  0  0  0  0  0  0  0  0  0
    8.2930  -12.3423   18.6042 S   0  0  0  0  0  0  0  0  0  0  0  0
    8.3903  -14.0854   19.0936 C   0  0  0  0  0  0  0  0  0  0  0  0
    7.5021  -14.3631   20.2959 C   0  0  0  0  0  0  0  0  0  0  0  0
    7.6737  -15.8341   20.6655 C   0  0  2  0  0  0  0  0  0  0  0  0
    6.7368  -16.5730   19.8469 N   0  0  0  0  0  0  0  0  0  0  0  0
    7.2717  -15.9656   22.0832 C   0  0  0  0  0  0  0  0  0  0  0  0
    6.0580  -15.9057   22.3799 O   0  0  0  0  0  0  0  0  0  0  0  0
    8.2069  -16.1580   23.1330 N   0  0  0  0  0  0  0  0  0  0  0  0
    7.7759  -16.3024   24.5471 C   0  0  1  0  0  0  0  0  0  0  0  0
    8.0502  -17.7735   24.8352 C   0  0  0  0  0  0  0  0  0  0  0  0
    6.8185  -18.5876   24.9639 C   0  0  0  0  0  0  0  0  0  0  0  0
    7.1507  -20.0525   25.2872 C   0  0  0  0  0  0  0  0  0  0  0  0
    5.8845  -20.8458   25.4875 C   0  0  0  0  0  0  0  0  0  0  0  0
    6.2317  -22.2211   25.7426 N   0  0  0  0  0  0  0  0  0  0  0  0
    8.5958  -15.4226   25.4066 C   0  0  0  0  0  0  0  0  0  0  0  0
    9.7972  -15.7791   25.5484 O   0  0  0  0  0  0  0  0  0  0  0  0
    8.1250  -14.2660   26.0380 N   0  0  0  0  0  0  0  0  0  0  0  0
    7.1830  -13.3443   25.3563 C   0  0  0  0  0  0  0  0  0  0  0  0
    6.2129  -13.0296   26.4571 C   0  0  0  0  0  0  0  0  0  0  0  0
    6.9397  -13.3349   27.7525 C   0  0  0  0  0  0  0  0  0  0  0  0
    8.3847  -13.5856   27.2567 C   0  0  1  0  0  0  0  0  0  0  0  0
    9.1613  -14.2450   28.2857 C   0  0  0  0  0  0  0  0  0  0  0  0
    9.1734  -15.4319   28.6311 O   0  0  0  0  0  0  0  0  0  0  0  0
   10.0447  -13.4031   29.0107 O   0  0  0  0  0  0  0  0  0  0  0  0
  1  2  1  0
  3  2  1  0
  4  5  1  0
  4  3  1  0
  5  6  1  6
  7  5  1  0
  7  8  2  0
  9  7  1  0
 10  9  1  0
 10 11  1  1
 11 12  1  0
 13 12  1  0
 14 13  1  0
 14 15  1  0
 16 10  1  0
 17 16  2  0
 18 16  1  0
 18 22  1  0
 19 18  1  0
 20 19  1  0
 20 21  1  0
 21 22  1  0
 22 23  1  1
 23 24  2  0
 23 25  1  0
M  END
$$$$
