TNF.pdb
     RDKit          3D

 27 27  0  0  1  0  0  0  0  0999 V2000
    8.9020  -12.8866   20.7972 C   0  0  0  0  0  0  0  0  0  0  0  0
    7.5522  -13.3778   20.3318 C   0  0  1  0  0  0  0  0  0  0  0  0
    7.0269  -12.5264   19.3429 O   0  0  0  0  0  0  0  0  0  0  0  0
    7.7237  -14.7849   19.7807 C   0  0  2  0  0  0  0  0  0  0  0  0
    6.4210  -15.2591   19.3073 N   0  0  0  0  0  0  0  0  0  0  0  0
    8.1985  -15.6392   20.9139 C   0  0  0  0  0  0  0  0  0  0  0  0
    7.3306  -16.1080   21.6877 O   0  0  0  0  0  0  0  0  0  0  0  0
   12.2115  -17.5226   19.5059 N   0  0  0  0  0  0  0  0  0  0  0  0
   11.5385  -17.9442   20.6684 C   0  0  0  0  0  0  0  0  0  0  0  0
   10.9947  -19.0730   20.6967 O   0  0  0  0  0  0  0  0  0  0  0  0
   11.4879  -17.0571   21.8184 C   0  0  0  0  0  0  0  0  0  0  0  0
   10.0290  -16.8160   22.2393 C   0  0  2  0  0  0  0  0  0  0  0  0
    9.5447  -15.9331   21.1440 N   0  0  0  0  0  0  0  0  0  0  0  0
    9.9161  -16.0975   23.5148 C   0  0  0  0  0  0  0  0  0  0  0  0
    9.8247  -14.8171   23.5296 O   0  0  0  0  0  0  0  0  0  0  0  0
    9.8954  -16.7038   24.7801 N   0  0  0  0  0  0  0  0  0  0  0  0
    9.2635  -16.0629   25.9344 C   0  0  1  0  0  0  0  0  0  0  0  0
    7.8535  -15.6203   25.5671 C   0  0  0  0  0  0  0  0  0  0  0  0
    7.6072  -14.2137   25.9217 C   0  0  0  0  0  0  0  0  0  0  0  0
    6.4527  -13.6014   25.5066 C   0  0  0  0  0  0  0  0  0  0  0  0
    6.2093  -12.2871   25.8433 C   0  0  0  0  0  0  0  0  0  0  0  0
    7.1177  -11.5654   26.6008 C   0  0  0  0  0  0  0  0  0  0  0  0
    8.2669  -12.2060   27.0032 C   0  0  0  0  0  0  0  0  0  0  0  0
    8.5198  -13.5111   26.6750 C   0  0  0  0  0  0  0  0  0  0  0  0
    9.2501  -17.0059   27.0763 C   0  0  0  0  0  0  0  0  0  0  0  0
    9.4267  -18.3761   26.8619 O   0  0  0  0  0  0  0  0  0  0  0  0
    9.0845  -16.6579   28.2703 O   0  0  0  0  0  0  0  0  0  0  0  0
  2  1  1  6
  2  4  1  0
  3  2  1  0
  4  5  1  1
  6  4  1  0
  7  6  2  0
  8  9  1  0
  9 10  2  0
 12 11  1  6
 11  9  1  0
 12 13  1  0
 13  6  1  0
 14 15  2  0
 14 12  1  0
 16 14  1  0
 17 18  1  6
 17 16  1  0
 19 20  2  0
 19 18  1  0
 21 20  1  0
 22 21  2  0
 23 24  2  0
 23 22  1  0
 24 19  1  0
 25 17  1  0
 26 25  1  0
 27 25  2  0
M  END
$$$$
