TNF.pdb
     RDKit          3D

 27 27  0  0  1  0  0  0  0  0999 V2000
    9.2284  -19.3348   18.1324 C   0  0  0  0  0  0  0  0  0  0  0  0
    9.3898  -17.9347   18.6742 C   0  0  1  0  0  0  0  0  0  0  0  0
    8.3926  -17.0850   18.1619 O   0  0  0  0  0  0  0  0  0  0  0  0
    9.3002  -17.9999   20.1911 C   0  0  2  0  0  0  0  0  0  0  0  0
    7.9355  -18.3856   20.5585 N   0  0  0  0  0  0  0  0  0  0  0  0
    9.5989  -16.6256   20.7022 C   0  0  0  0  0  0  0  0  0  0  0  0
   10.7565  -16.1798   20.5202 O   0  0  0  0  0  0  0  0  0  0  0  0
    8.0097  -12.7368   19.2890 N   0  0  0  0  0  0  0  0  0  0  0  0
    7.4493  -13.7515   20.0880 C   0  0  0  0  0  0  0  0  0  0  0  0
    6.7814  -14.6666   19.5521 O   0  0  0  0  0  0  0  0  0  0  0  0
    7.6578  -13.7169   21.5258 C   0  0  0  0  0  0  0  0  0  0  0  0
    8.9468  -14.4697   21.8937 C   0  0  2  0  0  0  0  0  0  0  0  0
    8.6598  -15.8296   21.3627 N   0  0  0  0  0  0  0  0  0  0  0  0
    9.1588  -14.5602   23.3439 C   0  0  0  0  0  0  0  0  0  0  0  0
    9.5101  -13.5218   24.0118 O   0  0  0  0  0  0  0  0  0  0  0  0
    9.0053  -15.7273   24.1076 N   0  0  0  0  0  0  0  0  0  0  0  0
    9.2745  -15.7510   25.5462 C   0  0  1  0  0  0  0  0  0  0  0  0
    7.9603  -15.7146   26.3146 C   0  0  0  0  0  0  0  0  0  0  0  0
    7.4077  -14.3535   26.3975 C   0  0  0  0  0  0  0  0  0  0  0  0
    6.1711  -14.0897   25.8672 C   0  0  0  0  0  0  0  0  0  0  0  0
    5.6414  -12.8198   25.9498 C   0  0  0  0  0  0  0  0  0  0  0  0
    6.3415  -11.7942   26.5646 C   0  0  0  0  0  0  0  0  0  0  0  0
    7.5796  -12.0886   27.0877 C   0  0  0  0  0  0  0  0  0  0  0  0
    8.1161  -13.3460   27.0117 C   0  0  0  0  0  0  0  0  0  0  0  0
   10.0592  -16.9615   25.8813 C   0  0  0  0  0  0  0  0  0  0  0  0
   10.5365  -17.1555   27.1810 O   0  0  0  0  0  0  0  0  0  0  0  0
   10.3423  -17.8635   25.0564 O   0  0  0  0  0  0  0  0  0  0  0  0
  2  1  1  6
  2  4  1  0
  3  2  1  0
  4  5  1  6
  6  4  1  0
  7  6  2  0
  8  9  1  0
  9 10  2  0
 12 11  1  1
 11  9  1  0
 12 13  1  0
 13  6  1  0
 14 15  2  0
 14 12  1  0
 16 14  1  0
 17 18  1  1
 17 16  1  0
 19 20  2  0
 19 18  1  0
 21 20  1  0
 22 21  2  0
 23 24  2  0
 23 22  1  0
 24 19  1  0
 25 17  1  0
 26 25  1  0
 27 25  2  0
M  END
$$$$
