TNF.pdb
     RDKit          3D

 27 27  0  0  1  0  0  0  0  0999 V2000
    9.2353  -12.0156   19.4904 C   0  0  0  0  0  0  0  0  0  0  0  0
    9.0104  -13.2522   20.3271 C   0  0  1  0  0  0  0  0  0  0  0  0
    8.3719  -12.9248   21.5370 O   0  0  0  0  0  0  0  0  0  0  0  0
    8.1551  -14.2196   19.5234 C   0  0  2  0  0  0  0  0  0  0  0  0
    6.8866  -13.5605   19.2033 N   0  0  0  0  0  0  0  0  0  0  0  0
    7.9079  -15.4086   20.3976 C   0  0  0  0  0  0  0  0  0  0  0  0
    6.7280  -15.6216   20.7640 O   0  0  0  0  0  0  0  0  0  0  0  0
    8.8168  -20.4851   21.9158 N   0  0  0  0  0  0  0  0  0  0  0  0
    9.8655  -19.5685   22.1210 C   0  0  0  0  0  0  0  0  0  0  0  0
   10.7538  -19.8204   22.9685 O   0  0  0  0  0  0  0  0  0  0  0  0
    9.8968  -18.3422   21.3418 C   0  0  0  0  0  0  0  0  0  0  0  0
    8.6896  -17.4580   21.6944 C   0  0  2  0  0  0  0  0  0  0  0  0
    8.9176  -16.2783   20.8168 N   0  0  0  0  0  0  0  0  0  0  0  0
    8.6967  -17.0175   23.0951 C   0  0  0  0  0  0  0  0  0  0  0  0
    8.3283  -17.8199   24.0269 O   0  0  0  0  0  0  0  0  0  0  0  0
    9.0879  -15.7439   23.5354 N   0  0  0  0  0  0  0  0  0  0  0  0
    8.9913  -15.3484   24.9414 C   0  0  1  0  0  0  0  0  0  0  0  0
    7.5272  -15.2679   25.3521 C   0  0  0  0  0  0  0  0  0  0  0  0
    7.1446  -13.9085   25.7654 C   0  0  0  0  0  0  0  0  0  0  0  0
    8.0802  -12.9064   25.7512 C   0  0  0  0  0  0  0  0  0  0  0  0
    7.7277  -11.6278   26.1268 C   0  0  0  0  0  0  0  0  0  0  0  0
    6.4329  -11.3326   26.5223 C   0  0  0  0  0  0  0  0  0  0  0  0
    5.5157  -12.3582   26.5264 C   0  0  0  0  0  0  0  0  0  0  0  0
    5.8540  -13.6321   26.1554 C   0  0  0  0  0  0  0  0  0  0  0  0
    9.7314  -16.3200   25.7790 C   0  0  0  0  0  0  0  0  0  0  0  0
   10.4110  -17.3885   25.1867 O   0  0  0  0  0  0  0  0  0  0  0  0
    9.7984  -16.2580   27.0304 O   0  0  0  0  0  0  0  0  0  0  0  0
  2  1  1  6
  2  4  1  0
  3  2  1  0
  4  5  1  1
  6  4  1  0
  7  6  2  0
  8  9  1  0
  9 10  2  0
 12 11  1  1
 11  9  1  0
 12 13  1  0
 13  6  1  0
 14 15  2  0
 14 12  1  0
 16 14  1  0
 17 18  1  1
 17 16  1  0
 19 20  2  0
 19 18  1  0
 21 20  1  0
 22 21  2  0
 23 24  2  0
 23 22  1  0
 24 19  1  0
 25 17  1  0
 26 25  1  0
 27 25  2  0
M  END
$$$$
