TNF.pdb
     RDKit          3D

 27 27  0  0  1  0  0  0  0  0999 V2000
    8.0159  -11.9216   19.5890 C   0  0  0  0  0  0  0  0  0  0  0  0
    8.2618  -13.0454   20.5670 C   0  0  1  0  0  0  0  0  0  0  0  0
    7.4557  -12.8954   21.7101 O   0  0  0  0  0  0  0  0  0  0  0  0
    7.9484  -14.3594   19.8682 C   0  0  2  0  0  0  0  0  0  0  0  0
    6.5340  -14.3553   19.4866 N   0  0  0  0  0  0  0  0  0  0  0  0
    8.2079  -15.4500   20.8595 C   0  0  0  0  0  0  0  0  0  0  0  0
    7.2179  -15.9398   21.4528 O   0  0  0  0  0  0  0  0  0  0  0  0
   10.4765  -19.4790   22.9366 N   0  0  0  0  0  0  0  0  0  0  0  0
   11.4701  -18.7839   22.2213 C   0  0  0  0  0  0  0  0  0  0  0  0
   12.5845  -19.3223   22.0233 O   0  0  0  0  0  0  0  0  0  0  0  0
   11.1819  -17.4489   21.7245 C   0  0  0  0  0  0  0  0  0  0  0  0
    9.7571  -17.0304   22.1223 C   0  0  2  0  0  0  0  0  0  0  0  0
    9.4841  -15.9390   21.1486 N   0  0  0  0  0  0  0  0  0  0  0  0
    9.6838  -16.4834   23.4830 C   0  0  0  0  0  0  0  0  0  0  0  0
   10.4094  -15.4779   23.8155 O   0  0  0  0  0  0  0  0  0  0  0  0
    8.8563  -16.9755   24.5038 N   0  0  0  0  0  0  0  0  0  0  0  0
    8.8767  -16.4122   25.8547 C   0  0  1  0  0  0  0  0  0  0  0  0
    7.4724  -15.9751   26.2494 C   0  0  0  0  0  0  0  0  0  0  0  0
    7.3223  -14.5117   26.2218 C   0  0  0  0  0  0  0  0  0  0  0  0
    6.0729  -13.9598   26.1022 C   0  0  0  0  0  0  0  0  0  0  0  0
    5.9224  -12.5897   26.0861 C   0  0  0  0  0  0  0  0  0  0  0  0
    7.0203  -11.7508   26.1895 C   0  0  0  0  0  0  0  0  0  0  0  0
    8.2613  -12.3330   26.3086 C   0  0  0  0  0  0  0  0  0  0  0  0
    8.4233  -13.6925   26.3259 C   0  0  0  0  0  0  0  0  0  0  0  0
    9.4117  -17.4183   26.8007 C   0  0  0  0  0  0  0  0  0  0  0  0
    9.9838  -17.0149   28.0108 O   0  0  0  0  0  0  0  0  0  0  0  0
    9.3924  -18.6555   26.5925 O   0  0  0  0  0  0  0  0  0  0  0  0
  2  1  1  6
  2  4  1  0
  3  2  1  0
  4  5  1  1
  6  4  1  0
  7  6  2  0
  8  9  1  0
  9 10  2  0
 12 11  1  6
 11  9  1  0
 12 13  1  0
 13  6  1  0
 14 15  2  0
 14 12  1  0
 16 14  1  0
 17 18  1  1
 17 16  1  0
 19 20  2  0
 19 18  1  0
 21 20  1  0
 22 21  2  0
 23 24  2  0
 23 22  1  0
 24 19  1  0
 25 17  1  0
 26 25  1  0
 27 25  2  0
M  END
$$$$
