TNF.pdb
     RDKit          3D

 27 27  0  0  1  0  0  0  0  0999 V2000
    9.2424  -12.9662   19.7214 C   0  0  0  0  0  0  0  0  0  0  0  0
    8.3851  -13.3605   18.5427 C   0  0  1  0  0  0  0  0  0  0  0  0
    8.5919  -12.4842   17.4619 O   0  0  0  0  0  0  0  0  0  0  0  0
    8.7490  -14.7831   18.1464 C   0  0  2  0  0  0  0  0  0  0  0  0
    7.8918  -15.1865   17.0290 N   0  0  0  0  0  0  0  0  0  0  0  0
    8.4779  -15.6475   19.3375 C   0  0  0  0  0  0  0  0  0  0  0  0
    7.2791  -15.8635   19.6344 O   0  0  0  0  0  0  0  0  0  0  0  0
   11.5326  -19.4754   22.9377 N   0  0  0  0  0  0  0  0  0  0  0  0
   10.3607  -19.0276   22.2987 C   0  0  0  0  0  0  0  0  0  0  0  0
    9.2505  -19.5049   22.6313 O   0  0  0  0  0  0  0  0  0  0  0  0
   10.4627  -18.0155   21.2608 C   0  0  0  0  0  0  0  0  0  0  0  0
    9.2322  -17.0944   21.2945 C   0  0  2  0  0  0  0  0  0  0  0  0
    9.4854  -16.2156   20.1208 N   0  0  0  0  0  0  0  0  0  0  0  0
    9.1745  -16.2661   22.5054 C   0  0  0  0  0  0  0  0  0  0  0  0
   10.1053  -15.4175   22.7532 O   0  0  0  0  0  0  0  0  0  0  0  0
    8.1502  -16.3129   23.4634 N   0  0  0  0  0  0  0  0  0  0  0  0
    8.1437  -15.4314   24.6320 C   0  0  1  0  0  0  0  0  0  0  0  0
    7.0690  -14.3656   24.4645 C   0  0  0  0  0  0  0  0  0  0  0  0
    6.9555  -13.5057   25.6531 C   0  0  0  0  0  0  0  0  0  0  0  0
    7.9323  -12.5805   25.9171 C   0  0  0  0  0  0  0  0  0  0  0  0
    7.8285  -11.7637   27.0226 C   0  0  0  0  0  0  0  0  0  0  0  0
    6.7451  -11.8605   27.8810 C   0  0  0  0  0  0  0  0  0  0  0  0
    5.7806  -12.7978   27.5906 C   0  0  0  0  0  0  0  0  0  0  0  0
    5.8727  -13.6145   26.4955 C   0  0  0  0  0  0  0  0  0  0  0  0
    7.9167  -16.2353   25.8550 C   0  0  0  0  0  0  0  0  0  0  0  0
    6.9329  -17.2284   25.8741 O   0  0  0  0  0  0  0  0  0  0  0  0
    8.5637  -16.0884   26.9200 O   0  0  0  0  0  0  0  0  0  0  0  0
  2  1  1  1
  2  4  1  0
  3  2  1  0
  4  5  1  6
  6  4  1  0
  7  6  2  0
  8  9  1  0
  9 10  2  0
 12 11  1  1
 11  9  1  0
 12 13  1  0
 13  6  1  0
 14 15  2  0
 14 12  1  0
 16 14  1  0
 17 18  1  6
 17 16  1  0
 19 20  2  0
 19 18  1  0
 21 20  1  0
 22 21  2  0
 23 24  2  0
 23 22  1  0
 24 19  1  0
 25 17  1  0
 26 25  1  0
 27 25  2  0
M  END
$$$$
