TNF.pdb
     RDKit          3D

 27 27  0  0  1  0  0  0  0  0999 V2000
    8.0935  -12.6178   20.2690 C   0  0  0  0  0  0  0  0  0  0  0  0
    7.9254  -13.3480   18.9581 C   0  0  1  0  0  0  0  0  0  0  0  0
    8.6692  -12.7222   17.9412 O   0  0  0  0  0  0  0  0  0  0  0  0
    8.3951  -14.7817   19.1502 C   0  0  2  0  0  0  0  0  0  0  0  0
    8.1767  -15.5124   17.8994 N   0  0  0  0  0  0  0  0  0  0  0  0
    7.5555  -15.3704   20.2401 C   0  0  0  0  0  0  0  0  0  0  0  0
    6.3828  -15.7055   19.9497 O   0  0  0  0  0  0  0  0  0  0  0  0
    5.1119  -18.7971   22.5881 N   0  0  0  0  0  0  0  0  0  0  0  0
    6.4958  -18.6496   22.8008 C   0  0  0  0  0  0  0  0  0  0  0  0
    7.0576  -19.3026   23.7112 O   0  0  0  0  0  0  0  0  0  0  0  0
    7.2488  -17.7380   21.9558 C   0  0  0  0  0  0  0  0  0  0  0  0
    7.2776  -16.3343   22.5823 C   0  0  2  0  0  0  0  0  0  0  0  0
    8.0133  -15.5604   21.5462 N   0  0  0  0  0  0  0  0  0  0  0  0
    8.0359  -16.2875   23.8388 C   0  0  0  0  0  0  0  0  0  0  0  0
    9.3190  -16.2553   23.8188 O   0  0  0  0  0  0  0  0  0  0  0  0
    7.4666  -16.2718   25.1213 N   0  0  0  0  0  0  0  0  0  0  0  0
    8.2741  -16.0577   26.3232 C   0  0  1  0  0  0  0  0  0  0  0  0
    7.4765  -15.2524   27.3403 C   0  0  0  0  0  0  0  0  0  0  0  0
    7.2804  -13.8594   26.9089 C   0  0  0  0  0  0  0  0  0  0  0  0
    6.0491  -13.4546   26.4617 C   0  0  0  0  0  0  0  0  0  0  0  0
    5.8539  -12.1488   26.0656 C   0  0  0  0  0  0  0  0  0  0  0  0
    6.8883  -11.2280   26.1112 C   0  0  0  0  0  0  0  0  0  0  0  0
    8.1124  -11.6629   26.5646 C   0  0  0  0  0  0  0  0  0  0  0  0
    8.3184  -12.9573   26.9607 C   0  0  0  0  0  0  0  0  0  0  0  0
    8.6874  -17.3665   26.8795 C   0  0  0  0  0  0  0  0  0  0  0  0
    9.8472  -17.4698   27.6533 O   0  0  0  0  0  0  0  0  0  0  0  0
    8.0531  -18.4346   26.7028 O   0  0  0  0  0  0  0  0  0  0  0  0
  2  1  1  1
  2  4  1  0
  3  2  1  0
  4  5  1  6
  6  4  1  0
  7  6  2  0
  8  9  1  0
  9 10  2  0
 12 11  1  6
 11  9  1  0
 12 13  1  0
 13  6  1  0
 14 15  2  0
 14 12  1  0
 16 14  1  0
 17 18  1  1
 17 16  1  0
 19 20  2  0
 19 18  1  0
 21 20  1  0
 22 21  2  0
 23 24  2  0
 23 22  1  0
 24 19  1  0
 25 17  1  0
 26 25  1  0
 27 25  2  0
M  END
$$$$
