MEA.pdb
     RDKit          3D

 23 22  0  0  1  0  0  0  0  0999 V2000
   14.8908  -15.9027  -16.0425 C   0  0  0  0  0  0  0  0  0  0  0  0
   15.8096  -14.4005  -15.6167 S   0  0  0  0  0  0  0  0  0  0  0  0
   17.1998  -14.2193  -16.7652 C   0  0  0  0  0  0  0  0  0  0  0  0
   18.0619  -13.0414  -16.3978 C   0  0  0  0  0  0  0  0  0  0  0  0
   19.1947  -12.8072  -17.3449 C   0  0  2  0  0  0  0  0  0  0  0  0
   20.1151  -13.9235  -17.1852 N   0  0  0  0  0  0  0  0  0  0  0  0
   19.9092  -11.5324  -17.0881 C   0  0  0  0  0  0  0  0  0  0  0  0
   20.7775  -11.4346  -16.1863 O   0  0  0  0  0  0  0  0  0  0  0  0
   19.6212  -10.3821  -17.8681 N   0  0  0  0  0  0  0  0  0  0  0  0
   20.3678   -9.1316  -17.6925 C   0  0  1  0  0  0  0  0  0  0  0  0
   20.2382   -8.3090  -18.9365 C   0  0  0  0  0  0  0  0  0  0  0  0
   20.9255   -6.9797  -18.8595 C   0  0  0  0  0  0  0  0  0  0  0  0
   20.6499   -6.2601  -20.1363 C   0  0  0  0  0  0  0  0  0  0  0  0
   21.2259   -6.5273  -21.2162 O   0  0  0  0  0  0  0  0  0  0  0  0
   19.9501   -8.4552  -16.4702 C   0  0  0  0  0  0  0  0  0  0  0  0
   18.7497   -8.2650  -16.1697 O   0  0  0  0  0  0  0  0  0  0  0  0
   19.6999   -5.2327  -20.1333 O   0  0  0  0  0  0  0  0  0  0  0  0
   21.8911   -7.4530  -13.3914 C   0  0  0  0  0  0  0  0  0  0  0  0
   20.6643   -7.3971  -14.2994 C   0  0  2  0  0  0  0  0  0  0  0  0
   20.9463   -7.9880  -15.5749 N   0  0  0  0  0  0  0  0  0  0  0  0
   20.2700   -5.9817  -14.3994 C   0  0  0  0  0  0  0  0  0  0  0  0
   19.7668   -5.3034  -13.3136 O   0  0  0  0  0  0  0  0  0  0  0  0
   20.3937   -5.3855  -15.4869 O   0  0  0  0  0  0  0  0  0  0  0  0
  1  2  1  0
  3  2  1  0
  4  3  1  0
  5  4  1  0
  5  7  1  0
  5  6  1  1
  7  8  2  0
  9 10  1  0
  9  7  1  0
 10 11  1  6
 11 12  1  0
 13 17  1  0
 13 12  1  0
 14 13  2  0
 15 20  1  0
 15 10  1  0
 16 15  2  0
 19 20  1  0
 19 18  1  1
 21 22  1  0
 21 19  1  0
 23 21  2  0
M  END
$$$$
