MEA.pdb
     RDKit          3D

 23 22  0  0  1  0  0  0  0  0999 V2000
   28.5973  -19.6825   -4.0237 C   0  0  0  0  0  0  0  0  0  0  0  0
   27.8358  -19.0274   -5.5314 S   0  0  0  0  0  0  0  0  0  0  0  0
   27.8134  -20.3313   -6.7899 C   0  0  0  0  0  0  0  0  0  0  0  0
   27.1740  -19.8493   -8.0645 C   0  0  0  0  0  0  0  0  0  0  0  0
   26.9412  -20.9333   -9.0674 C   0  0  2  0  0  0  0  0  0  0  0  0
   28.2518  -21.4133   -9.4808 N   0  0  0  0  0  0  0  0  0  0  0  0
   26.1836  -20.4691  -10.2557 C   0  0  0  0  0  0  0  0  0  0  0  0
   26.5084  -19.4279  -10.8780 O   0  0  0  0  0  0  0  0  0  0  0  0
   25.0608  -21.2034  -10.7191 N   0  0  0  0  0  0  0  0  0  0  0  0
   24.4277  -20.9020  -12.0077 C   0  0  1  0  0  0  0  0  0  0  0  0
   24.7900  -21.9721  -12.9897 C   0  0  0  0  0  0  0  0  0  0  0  0
   26.2483  -22.0135  -13.3318 C   0  0  0  0  0  0  0  0  0  0  0  0
   26.3910  -21.5336  -14.7366 C   0  0  0  0  0  0  0  0  0  0  0  0
   25.4189  -21.2027  -15.4541 O   0  0  0  0  0  0  0  0  0  0  0  0
   22.9947  -20.6944  -11.8359 C   0  0  0  0  0  0  0  0  0  0  0  0
   22.3318  -21.2268  -10.9170 O   0  0  0  0  0  0  0  0  0  0  0  0
   27.6750  -21.4465  -15.2862 O   0  0  0  0  0  0  0  0  0  0  0  0
   20.4853  -18.6647  -13.8447 C   0  0  0  0  0  0  0  0  0  0  0  0
   20.9019  -19.6027  -12.7137 C   0  0  2  0  0  0  0  0  0  0  0  0
   22.3137  -19.8503  -12.7501 N   0  0  0  0  0  0  0  0  0  0  0  0
   20.1020  -20.8306  -12.8593 C   0  0  0  0  0  0  0  0  0  0  0  0
   18.8878  -20.9695  -12.2279 O   0  0  0  0  0  0  0  0  0  0  0  0
   20.5311  -21.7623  -13.5673 O   0  0  0  0  0  0  0  0  0  0  0  0
  1  2  1  0
  3  2  1  0
  4  3  1  0
  5  4  1  0
  5  7  1  0
  5  6  1  6
  7  8  2  0
  9 10  1  0
  9  7  1  0
 10 11  1  6
 11 12  1  0
 13 17  1  0
 13 12  1  0
 14 13  2  0
 15 20  1  0
 15 10  1  0
 16 15  2  0
 19 20  1  0
 19 18  1  6
 21 22  1  0
 21 19  1  0
 23 21  2  0
M  END
$$$$
