MEA.pdb
     RDKit          3D

 23 22  0  0  1  0  0  0  0  0999 V2000
   29.1854  -13.3384  -15.6807 C   0  0  0  0  0  0  0  0  0  0  0  0
   28.1392  -11.9618  -16.2216 S   0  0  0  0  0  0  0  0  0  0  0  0
   26.4662  -12.2067  -15.5693 C   0  0  0  0  0  0  0  0  0  0  0  0
   25.6135  -10.9842  -15.7798 C   0  0  0  0  0  0  0  0  0  0  0  0
   24.3013  -11.2724  -16.4356 C   0  0  2  0  0  0  0  0  0  0  0  0
   24.5985  -11.9041  -17.7130 N   0  0  0  0  0  0  0  0  0  0  0  0
   23.4870  -10.0528  -16.6612 C   0  0  0  0  0  0  0  0  0  0  0  0
   23.5390   -9.4173  -17.7430 O   0  0  0  0  0  0  0  0  0  0  0  0
   22.6209   -9.5735  -15.6440 N   0  0  0  0  0  0  0  0  0  0  0  0
   21.7777   -8.3910  -15.8509 C   0  0  1  0  0  0  0  0  0  0  0  0
   20.3448   -8.7739  -15.6486 C   0  0  0  0  0  0  0  0  0  0  0  0
   19.3826   -7.6388  -15.8244 C   0  0  0  0  0  0  0  0  0  0  0  0
   18.0060   -8.1940  -15.6794 C   0  0  0  0  0  0  0  0  0  0  0  0
   17.0621   -7.5658  -15.1469 O   0  0  0  0  0  0  0  0  0  0  0  0
   22.2352   -7.2859  -15.0169 C   0  0  0  0  0  0  0  0  0  0  0  0
   22.4875   -7.4087  -13.7968 O   0  0  0  0  0  0  0  0  0  0  0  0
   17.7506   -9.4826  -16.1614 O   0  0  0  0  0  0  0  0  0  0  0  0
   22.8628   -3.6221  -15.8137 C   0  0  0  0  0  0  0  0  0  0  0  0
   22.7363   -4.8219  -14.8771 C   0  0  2  0  0  0  0  0  0  0  0  0
   22.4044   -6.0086  -15.6101 N   0  0  0  0  0  0  0  0  0  0  0  0
   21.7234   -4.4714  -13.8671 C   0  0  0  0  0  0  0  0  0  0  0  0
   22.0137   -3.6086  -12.8358 O   0  0  0  0  0  0  0  0  0  0  0  0
   20.5815   -4.9645  -13.9462 O   0  0  0  0  0  0  0  0  0  0  0  0
  1  2  1  0
  3  2  1  0
  4  3  1  0
  5  4  1  0
  5  7  1  0
  5  6  1  6
  7  8  2  0
  9 10  1  0
  9  7  1  0
 10 11  1  1
 11 12  1  0
 13 17  1  0
 13 12  1  0
 14 13  2  0
 15 20  1  0
 15 10  1  0
 16 15  2  0
 19 20  1  0
 19 18  1  6
 21 22  1  0
 21 19  1  0
 23 21  2  0
M  END
$$$$
