MEA.pdb
     RDKit          3D

 23 22  0  0  1  0  0  0  0  0999 V2000
   28.5133  -13.2798  -15.3624 C   0  0  0  0  0  0  0  0  0  0  0  0
   27.6665  -11.7085  -15.6726 S   0  0  0  0  0  0  0  0  0  0  0  0
   25.8971  -12.0311  -15.8951 C   0  0  0  0  0  0  0  0  0  0  0  0
   25.1359  -10.7558  -16.1394 C   0  0  0  0  0  0  0  0  0  0  0  0
   23.6938  -10.9706  -16.4701 C   0  0  2  0  0  0  0  0  0  0  0  0
   23.6549  -11.7801  -17.6793 N   0  0  0  0  0  0  0  0  0  0  0  0
   22.9570   -9.7027  -16.6961 C   0  0  0  0  0  0  0  0  0  0  0  0
   22.8467   -9.2007  -17.8418 O   0  0  0  0  0  0  0  0  0  0  0  0
   22.3537   -9.0226  -15.6061 N   0  0  0  0  0  0  0  0  0  0  0  0
   21.4822   -7.8613  -15.8161 C   0  0  1  0  0  0  0  0  0  0  0  0
   20.0688   -8.2537  -15.5178 C   0  0  0  0  0  0  0  0  0  0  0  0
   19.4382   -9.1040  -16.5783 C   0  0  0  0  0  0  0  0  0  0  0  0
   18.0484   -9.4134  -16.1345 C   0  0  0  0  0  0  0  0  0  0  0  0
   17.7851  -10.1599  -15.1635 O   0  0  0  0  0  0  0  0  0  0  0  0
   21.9680   -6.7150  -15.0572 C   0  0  0  0  0  0  0  0  0  0  0  0
   22.2070   -6.7593  -13.8290 O   0  0  0  0  0  0  0  0  0  0  0  0
   16.9800   -8.8430  -16.8354 O   0  0  0  0  0  0  0  0  0  0  0  0
   22.9196   -3.2003  -16.1458 C   0  0  0  0  0  0  0  0  0  0  0  0
   22.7200   -4.3123  -15.1181 C   0  0  2  0  0  0  0  0  0  0  0  0
   22.1819   -5.4885  -15.7368 N   0  0  0  0  0  0  0  0  0  0  0  0
   21.8457   -3.7695  -14.0645 C   0  0  0  0  0  0  0  0  0  0  0  0
   20.5546   -4.2176  -13.9085 O   0  0  0  0  0  0  0  0  0  0  0  0
   22.2817   -2.8877  -13.2991 O   0  0  0  0  0  0  0  0  0  0  0  0
  1  2  1  0
  3  2  1  0
  4  3  1  0
  5  4  1  0
  5  7  1  0
  5  6  1  6
  7  8  2  0
  9 10  1  0
  9  7  1  0
 10 11  1  1
 11 12  1  0
 13 17  1  0
 13 12  1  0
 14 13  2  0
 15 20  1  0
 15 10  1  0
 16 15  2  0
 19 20  1  0
 19 18  1  6
 21 22  1  0
 21 19  1  0
 23 21  2  0
M  END
$$$$
