MEA.pdb
     RDKit          3D

 23 22  0  0  1  0  0  0  0  0999 V2000
   29.2981  -11.9066  -17.4319 C   0  0  0  0  0  0  0  0  0  0  0  0
   28.5974  -12.2605  -15.7991 S   0  0  0  0  0  0  0  0  0  0  0  0
   26.8609  -12.7392  -15.9986 C   0  0  0  0  0  0  0  0  0  0  0  0
   26.0358  -11.5951  -16.5238 C   0  0  0  0  0  0  0  0  0  0  0  0
   24.6159  -11.9619  -16.8148 C   0  0  2  0  0  0  0  0  0  0  0  0
   24.6383  -12.8527  -17.9659 N   0  0  0  0  0  0  0  0  0  0  0  0
   23.7637  -10.7845  -17.1132 C   0  0  0  0  0  0  0  0  0  0  0  0
   23.7707  -10.2362  -18.2428 O   0  0  0  0  0  0  0  0  0  0  0  0
   22.9117  -10.2472  -16.1132 N   0  0  0  0  0  0  0  0  0  0  0  0
   22.0880   -9.0600  -16.3664 C   0  0  1  0  0  0  0  0  0  0  0  0
   20.6439   -9.4346  -16.2429 C   0  0  0  0  0  0  0  0  0  0  0  0
   20.1580  -10.3449  -17.3295 C   0  0  0  0  0  0  0  0  0  0  0  0
   18.7350  -10.6766  -17.0308 C   0  0  0  0  0  0  0  0  0  0  0  0
   18.3905  -11.5590  -16.2111 O   0  0  0  0  0  0  0  0  0  0  0  0
   22.5053   -7.9571  -15.5088 C   0  0  0  0  0  0  0  0  0  0  0  0
   22.7063   -8.0846  -14.2797 O   0  0  0  0  0  0  0  0  0  0  0  0
   17.7291   -9.9685  -17.6978 O   0  0  0  0  0  0  0  0  0  0  0  0
   23.3500   -4.3373  -16.3019 C   0  0  0  0  0  0  0  0  0  0  0  0
   23.1740   -5.5332  -15.3684 C   0  0  2  0  0  0  0  0  0  0  0  0
   22.6942   -6.6764  -16.0886 N   0  0  0  0  0  0  0  0  0  0  0  0
   22.2591   -5.1077  -14.2957 C   0  0  0  0  0  0  0  0  0  0  0  0
   22.7050   -4.3518  -13.2364 O   0  0  0  0  0  0  0  0  0  0  0  0
   21.0582   -5.4374  -14.3465 O   0  0  0  0  0  0  0  0  0  0  0  0
  1  2  1  0
  3  2  1  0
  4  3  1  0
  5  4  1  0
  5  7  1  0
  5  6  1  6
  7  8  2  0
  9 10  1  0
  9  7  1  0
 10 11  1  1
 11 12  1  0
 13 17  1  0
 13 12  1  0
 14 13  2  0
 15 20  1  0
 15 10  1  0
 16 15  2  0
 19 20  1  0
 19 18  1  6
 21 22  1  0
 21 19  1  0
 23 21  2  0
M  END
$$$$
