MEA.pdb
     RDKit          3D

 23 22  0  0  1  0  0  0  0  0999 V2000
   19.9661  -13.4713  -20.0877 C   0  0  0  0  0  0  0  0  0  0  0  0
   21.5706  -13.2592  -20.9019 S   0  0  0  0  0  0  0  0  0  0  0  0
   22.2866  -11.6778  -20.3814 C   0  0  0  0  0  0  0  0  0  0  0  0
   22.3392  -11.5696  -18.8810 C   0  0  0  0  0  0  0  0  0  0  0  0
   22.8528  -10.2538  -18.3910 C   0  0  2  0  0  0  0  0  0  0  0  0
   24.3045  -10.3551  -18.3552 N   0  0  0  0  0  0  0  0  0  0  0  0
   22.3452   -9.9006  -17.0422 C   0  0  0  0  0  0  0  0  0  0  0  0
   22.9092  -10.3113  -15.9982 O   0  0  0  0  0  0  0  0  0  0  0  0
   21.1957   -9.0796  -16.9037 N   0  0  0  0  0  0  0  0  0  0  0  0
   20.7686   -8.5751  -15.5941 C   0  0  1  0  0  0  0  0  0  0  0  0
   21.3757   -7.2251  -15.3714 C   0  0  0  0  0  0  0  0  0  0  0  0
   21.0163   -6.6077  -14.0542 C   0  0  0  0  0  0  0  0  0  0  0  0
   21.7174   -5.2940  -13.9708 C   0  0  0  0  0  0  0  0  0  0  0  0
   21.3565   -4.2784  -14.6092 O   0  0  0  0  0  0  0  0  0  0  0  0
   19.3154   -8.6142  -15.4813 C   0  0  0  0  0  0  0  0  0  0  0  0
   18.5497   -8.0927  -16.3235 O   0  0  0  0  0  0  0  0  0  0  0  0
   22.8366   -5.1851  -13.1379 O   0  0  0  0  0  0  0  0  0  0  0  0
   17.0314  -10.1897  -12.8828 C   0  0  0  0  0  0  0  0  0  0  0  0
   17.3229   -9.3882  -14.1498 C   0  0  2  0  0  0  0  0  0  0  0  0
   18.7354   -9.2728  -14.3669 N   0  0  0  0  0  0  0  0  0  0  0  0
   16.6599   -8.0826  -13.9923 C   0  0  0  0  0  0  0  0  0  0  0  0
   15.3057   -7.9424  -14.1887 O   0  0  0  0  0  0  0  0  0  0  0  0
   17.3364   -7.0850  -13.6753 O   0  0  0  0  0  0  0  0  0  0  0  0
  1  2  1  0
  3  2  1  0
  4  3  1  0
  5  4  1  0
  5  7  1  0
  5  6  1  1
  7  8  2  0
  9 10  1  0
  9  7  1  0
 10 11  1  6
 11 12  1  0
 13 17  1  0
 13 12  1  0
 14 13  2  0
 15 20  1  0
 15 10  1  0
 16 15  2  0
 19 20  1  0
 19 18  1  1
 21 22  1  0
 21 19  1  0
 23 21  2  0
M  END
$$$$
