MEA.pdb
     RDKit          3D

 23 22  0  0  1  0  0  0  0  0999 V2000
   24.4976  -11.4862  -14.0161 C   0  0  0  0  0  0  0  0  0  0  0  0
   23.1837  -10.2389  -14.0016 S   0  0  0  0  0  0  0  0  0  0  0  0
   22.1529  -10.4574  -15.4761 C   0  0  0  0  0  0  0  0  0  0  0  0
   21.0106   -9.4773  -15.4941 C   0  0  0  0  0  0  0  0  0  0  0  0
   19.9543   -9.7667  -14.4765 C   0  0  2  0  0  0  0  0  0  0  0  0
   19.3272  -11.0215  -14.8653 N   0  0  0  0  0  0  0  0  0  0  0  0
   18.9251   -8.7013  -14.3919 C   0  0  0  0  0  0  0  0  0  0  0  0
   17.9542   -8.6593  -15.1871 O   0  0  0  0  0  0  0  0  0  0  0  0
   19.0192   -7.6942  -13.3961 N   0  0  0  0  0  0  0  0  0  0  0  0
   18.0609   -6.5852  -13.3360 C   0  0  1  0  0  0  0  0  0  0  0  0
   17.8607   -6.1923  -11.9055 C   0  0  0  0  0  0  0  0  0  0  0  0
   17.0201   -7.1552  -11.1235 C   0  0  0  0  0  0  0  0  0  0  0  0
   16.9487   -6.6495   -9.7223 C   0  0  0  0  0  0  0  0  0  0  0  0
   17.5696   -5.6377   -9.3222 O   0  0  0  0  0  0  0  0  0  0  0  0
   18.4828   -5.4983  -14.2116 C   0  0  0  0  0  0  0  0  0  0  0  0
   19.6247   -4.9870  -14.1658 O   0  0  0  0  0  0  0  0  0  0  0  0
   16.1484   -7.3372   -8.8032 O   0  0  0  0  0  0  0  0  0  0  0  0
   16.7259   -3.7517  -17.0896 C   0  0  0  0  0  0  0  0  0  0  0  0
   17.8534   -3.9241  -16.0739 C   0  0  2  0  0  0  0  0  0  0  0  0
   17.5604   -4.9917  -15.1627 N   0  0  0  0  0  0  0  0  0  0  0  0
   18.0235   -2.6264  -15.3988 C   0  0  0  0  0  0  0  0  0  0  0  0
   18.6462   -1.5725  -16.0264 O   0  0  0  0  0  0  0  0  0  0  0  0
   17.5961   -2.4780  -14.2374 O   0  0  0  0  0  0  0  0  0  0  0  0
  1  2  1  0
  3  2  1  0
  4  3  1  0
  5  4  1  0
  5  7  1  0
  5  6  1  6
  7  8  2  0
  9 10  1  0
  9  7  1  0
 10 11  1  1
 11 12  1  0
 13 17  1  0
 13 12  1  0
 14 13  2  0
 15 20  1  0
 15 10  1  0
 16 15  2  0
 19 20  1  0
 19 18  1  6
 21 22  1  0
 21 19  1  0
 23 21  2  0
M  END
$$$$
