MEA.pdb
     RDKit          3D

 23 22  0  0  1  0  0  0  0  0999 V2000
   27.6486  -12.5834  -14.6501 C   0  0  0  0  0  0  0  0  0  0  0  0
   28.2421  -11.9756  -16.2503 S   0  0  0  0  0  0  0  0  0  0  0  0
   26.8922  -12.0840  -17.4547 C   0  0  0  0  0  0  0  0  0  0  0  0
   25.8215  -11.0656  -17.1682 C   0  0  0  0  0  0  0  0  0  0  0  0
   24.6479  -11.1519  -18.0903 C   0  0  2  0  0  0  0  0  0  0  0  0
   25.1761  -11.1402  -19.4467 N   0  0  0  0  0  0  0  0  0  0  0  0
   23.6933  -10.0291  -17.9184 C   0  0  0  0  0  0  0  0  0  0  0  0
   23.7593   -8.9944  -18.6268 O   0  0  0  0  0  0  0  0  0  0  0  0
   22.6719  -10.1036  -16.9355 N   0  0  0  0  0  0  0  0  0  0  0  0
   21.7372   -8.9942  -16.7172 C   0  0  1  0  0  0  0  0  0  0  0  0
   20.4248   -9.5476  -16.2563 C   0  0  0  0  0  0  0  0  0  0  0  0
   19.3622   -8.5089  -16.0636 C   0  0  0  0  0  0  0  0  0  0  0  0
   18.1303   -9.2110  -15.6014 C   0  0  0  0  0  0  0  0  0  0  0  0
   17.7003  -10.2648  -16.1246 O   0  0  0  0  0  0  0  0  0  0  0  0
   22.3242   -8.0000  -15.8267 C   0  0  0  0  0  0  0  0  0  0  0  0
   22.9741   -8.3005  -14.7998 O   0  0  0  0  0  0  0  0  0  0  0  0
   17.4143   -8.6686  -14.5284 O   0  0  0  0  0  0  0  0  0  0  0  0
   22.5235   -4.2156  -16.0778 C   0  0  0  0  0  0  0  0  0  0  0  0
   22.7528   -5.5578  -15.3862 C   0  0  2  0  0  0  0  0  0  0  0  0
   22.1543   -6.6255  -16.1330 N   0  0  0  0  0  0  0  0  0  0  0  0
   22.2065   -5.4363  -14.0240 C   0  0  0  0  0  0  0  0  0  0  0  0
   22.7907   -4.6094  -13.0928 O   0  0  0  0  0  0  0  0  0  0  0  0
   21.1963   -6.0939  -13.7069 O   0  0  0  0  0  0  0  0  0  0  0  0
  1  2  1  0
  3  2  1  0
  4  3  1  0
  5  4  1  0
  5  7  1  0
  5  6  1  6
  7  8  2  0
  9 10  1  0
  9  7  1  0
 10 11  1  1
 11 12  1  0
 13 17  1  0
 13 12  1  0
 14 13  2  0
 15 20  1  0
 15 10  1  0
 16 15  2  0
 19 20  1  0
 19 18  1  6
 21 22  1  0
 21 19  1  0
 23 21  2  0
M  END
$$$$
