MEA.pdb
     RDKit          3D

 23 22  0  0  1  0  0  0  0  0999 V2000
   15.4693  -14.3285  -15.2006 C   0  0  0  0  0  0  0  0  0  0  0  0
   16.3983  -12.8010  -14.9071 S   0  0  0  0  0  0  0  0  0  0  0  0
   17.7843  -12.7259  -16.0724 C   0  0  0  0  0  0  0  0  0  0  0  0
   18.7237  -11.6002  -15.7319 C   0  0  0  0  0  0  0  0  0  0  0  0
   19.8602  -11.4546  -16.6923 C   0  0  2  0  0  0  0  0  0  0  0  0
   20.7285  -12.6062  -16.4951 N   0  0  0  0  0  0  0  0  0  0  0  0
   20.6351  -10.2061  -16.4866 C   0  0  0  0  0  0  0  0  0  0  0  0
   21.5083  -10.1136  -15.5890 O   0  0  0  0  0  0  0  0  0  0  0  0
   20.4012   -9.0756  -17.3123 N   0  0  0  0  0  0  0  0  0  0  0  0
   21.1125   -7.8106  -17.0979 C   0  0  1  0  0  0  0  0  0  0  0  0
   21.2077   -7.0792  -18.4005 C   0  0  0  0  0  0  0  0  0  0  0  0
   21.8969   -5.7523  -18.3026 C   0  0  0  0  0  0  0  0  0  0  0  0
   21.8347   -5.1166  -19.6502 C   0  0  0  0  0  0  0  0  0  0  0  0
   20.7631   -4.7796  -20.2046 O   0  0  0  0  0  0  0  0  0  0  0  0
   20.4908   -7.0522  -16.0188 C   0  0  0  0  0  0  0  0  0  0  0  0
   19.2507   -6.9586  -15.8749 O   0  0  0  0  0  0  0  0  0  0  0  0
   23.0324   -4.8822  -20.3349 O   0  0  0  0  0  0  0  0  0  0  0  0
   21.9586   -5.4438  -12.9266 C   0  0  0  0  0  0  0  0  0  0  0  0
   20.8380   -5.6773  -13.9377 C   0  0  2  0  0  0  0  0  0  0  0  0
   21.3251   -6.3866  -15.0846 N   0  0  0  0  0  0  0  0  0  0  0  0
   20.2841   -4.3552  -14.2757 C   0  0  0  0  0  0  0  0  0  0  0  0
   19.5418   -3.6394  -13.3654 O   0  0  0  0  0  0  0  0  0  0  0  0
   20.4906   -3.8741  -15.4068 O   0  0  0  0  0  0  0  0  0  0  0  0
  1  2  1  0
  3  2  1  0
  4  3  1  0
  5  4  1  0
  5  7  1  0
  5  6  1  1
  7  8  2  0
  9 10  1  0
  9  7  1  0
 10 11  1  6
 11 12  1  0
 13 17  1  0
 13 12  1  0
 14 13  2  0
 15 20  1  0
 15 10  1  0
 16 15  2  0
 19 20  1  0
 19 18  1  1
 21 22  1  0
 21 19  1  0
 23 21  2  0
M  END
$$$$
