RMF.pdb
     RDKit          3D

 31 31  0  0  1  0  0  0  0  0999 V2000
   29.2924  -21.2860  -18.3347 N   0  0  0  0  0  0  0  0  0  0  0  0
   28.5312  -20.3635  -17.5290 C   0  0  0  0  0  0  0  0  0  0  0  0
   28.1573  -19.2616  -18.0706 N   0  0  0  0  0  0  0  0  0  0  0  0
   28.1833  -20.6180  -16.1909 N   0  0  0  0  0  0  0  0  0  0  0  0
   28.5092  -21.8531  -15.5029 C   0  0  0  0  0  0  0  0  0  0  0  0
   29.5730  -21.4684  -14.4559 C   0  0  0  0  0  0  0  0  0  0  0  0
   28.8252  -20.8489  -13.3321 C   0  0  0  0  0  0  0  0  0  0  0  0
   29.6151  -20.8454  -12.0684 C   0  0  2  0  0  0  0  0  0  0  0  0
   30.5541  -21.9869  -12.1194 N   0  0  0  0  0  0  0  0  0  0  0  0
   28.6995  -21.1503  -10.9117 C   0  0  0  0  0  0  0  0  0  0  0  0
   28.4127  -22.3399  -10.5786 O   0  0  0  0  0  0  0  0  0  0  0  0
   27.5758  -18.5603  -17.6033 C   0  0  0  0  0  0  0  0  0  0  0  0
   28.0158  -20.5741   -3.9592 S   0  0  0  0  0  0  0  0  0  0  0  0
   27.3081  -19.3227   -5.0908 C   0  0  0  0  0  0  0  0  0  0  0  0
   26.7496  -20.0919   -6.5943 C   0  0  0  0  0  0  0  0  0  0  0  0
   27.6228  -20.0112   -7.7783 C   0  0  1  0  0  0  0  0  0  0  0  0
   27.1266  -20.4743   -9.0959 N   0  0  0  0  0  0  0  0  0  0  0  0
   28.1205  -20.1093  -10.1475 C   0  0  0  0  0  0  0  0  0  0  0  0
   25.8749  -19.8771   -9.5990 O   0  0  0  0  0  0  0  0  0  0  0  0
   25.8248  -18.7184  -10.1294 N   0  0  0  0  0  0  0  0  0  0  0  0
   24.5967  -20.5220   -9.5487 C   0  0  1  0  0  0  0  0  0  0  0  0
   23.5305  -20.2212  -10.5198 C   0  0  0  0  0  0  0  0  0  0  0  0
   24.0621  -20.7365  -11.8395 C   0  0  0  0  0  0  0  0  0  0  0  0
   23.0608  -20.5881  -12.8990 C   0  0  0  0  0  0  0  0  0  0  0  0
   22.7685  -19.3649  -13.4567 C   0  0  0  0  0  0  0  0  0  0  0  0
   21.8134  -19.2543  -14.4702 C   0  0  0  0  0  0  0  0  0  0  0  0
   21.1752  -20.4234  -14.8889 C   0  0  0  0  0  0  0  0  0  0  0  0
   21.4473  -21.6487  -14.3517 C   0  0  0  0  0  0  0  0  0  0  0  0
   22.4005  -21.7222  -13.3476 C   0  0  0  0  0  0  0  0  0  0  0  0
   22.2937  -20.9197  -10.1921 O   0  0  0  0  0  0  0  0  0  0  0  0
   22.3956  -22.0577   -9.6141 O   0  0  0  0  0  0  0  0  0  0  0  0
  2  3  2  0
  2  1  1  0
  4  2  1  0
  5  6  1  0
  5  4  1  0
  7  8  1  0
  7  6  1  0
  8  9  1  6
 10  8  1  0
 10 17  1  0
 11 10  2  0
 13 12  1  0
 14 13  1  0
 15 14  1  0
 16 15  1  1
 16 17  1  0
 18 19  2  0
 18 16  1  0
 20 18  1  0
 21 20  1  0
 21 22  1  1
 23 22  1  0
 23 24  2  0
 24 25  1  0
 26 25  2  0
 27 26  1  0
 28 27  2  0
 28 23  1  0
 29 21  1  0
 30 29  2  0
 31 29  1  0
M  END
$$$$
