RMF.pdb
     RDKit          3D

 31 31  0  0  1  0  0  0  0  0999 V2000
   27.2952  -14.6867  -17.7976 N   0  0  0  0  0  0  0  0  0  0  0  0
   26.8965  -15.8546  -18.5436 C   0  0  0  0  0  0  0  0  0  0  0  0
   27.1366  -15.8717  -19.8043 N   0  0  0  0  0  0  0  0  0  0  0  0
   26.2650  -16.9641  -17.9548 N   0  0  0  0  0  0  0  0  0  0  0  0
   25.9954  -17.0668  -16.5329 C   0  0  0  0  0  0  0  0  0  0  0  0
   27.2236  -17.7810  -15.9353 C   0  0  0  0  0  0  0  0  0  0  0  0
   26.6845  -18.7435  -14.9408 C   0  0  0  0  0  0  0  0  0  0  0  0
   27.7677  -19.4311  -14.1828 C   0  0  2  0  0  0  0  0  0  0  0  0
   28.4687  -20.3373  -15.1183 N   0  0  0  0  0  0  0  0  0  0  0  0
   27.1504  -20.3414  -13.1535 C   0  0  0  0  0  0  0  0  0  0  0  0
   26.7436  -21.5065  -13.4459 O   0  0  0  0  0  0  0  0  0  0  0  0
   26.9524  -16.6740  -20.4132 C   0  0  0  0  0  0  0  0  0  0  0  0
   27.9692  -20.2110   -6.7949 S   0  0  0  0  0  0  0  0  0  0  0  0
   26.2592  -20.8607   -6.7649 C   0  0  0  0  0  0  0  0  0  0  0  0
   25.6064  -20.9641   -8.4164 C   0  0  0  0  0  0  0  0  0  0  0  0
   26.3759  -20.3367   -9.5049 C   0  0  1  0  0  0  0  0  0  0  0  0
   26.1316  -20.7392  -10.9103 N   0  0  0  0  0  0  0  0  0  0  0  0
   27.0007  -19.9246  -11.8093 C   0  0  0  0  0  0  0  0  0  0  0  0
   24.7805  -20.5117  -11.4574 O   0  0  0  0  0  0  0  0  0  0  0  0
   24.3668  -19.3628  -11.8253 N   0  0  0  0  0  0  0  0  0  0  0  0
   23.7985  -21.5396  -11.6338 C   0  0  1  0  0  0  0  0  0  0  0  0
   22.3961  -21.2327  -11.9646 C   0  0  0  0  0  0  0  0  0  0  0  0
   22.0473  -22.1992  -13.0754 C   0  0  0  0  0  0  0  0  0  0  0  0
   22.5715  -21.7285  -14.3603 C   0  0  0  0  0  0  0  0  0  0  0  0
   21.8397  -20.9078  -15.1870 C   0  0  0  0  0  0  0  0  0  0  0  0
   22.3677  -20.4691  -16.4038 C   0  0  0  0  0  0  0  0  0  0  0  0
   23.6542  -20.8934  -16.7420 C   0  0  0  0  0  0  0  0  0  0  0  0
   24.4004  -21.7074  -15.9392 C   0  0  0  0  0  0  0  0  0  0  0  0
   23.8457  -22.1241  -14.7389 C   0  0  0  0  0  0  0  0  0  0  0  0
   21.5135  -21.4652  -10.8280 O   0  0  0  0  0  0  0  0  0  0  0  0
   20.2699  -21.2039  -10.9851 O   0  0  0  0  0  0  0  0  0  0  0  0
  2  3  2  0
  2  1  1  0
  4  2  1  0
  5  6  1  0
  5  4  1  0
  7  8  1  0
  7  6  1  0
  8  9  1  6
 10  8  1  0
 10 17  1  0
 11 10  2  0
 13 12  1  0
 14 13  1  0
 15 14  1  0
 16 15  1  1
 16 17  1  0
 18 19  2  0
 18 16  1  0
 20 18  1  0
 21 20  1  0
 21 22  1  6
 23 22  1  0
 23 24  2  0
 24 25  1  0
 26 25  2  0
 27 26  1  0
 28 27  2  0
 28 23  1  0
 29 21  1  0
 30 29  2  0
 31 29  1  0
M  END
$$$$
