RMF.pdb
     RDKit          3D

 31 31  0  0  1  0  0  0  0  0999 V2000
   27.7629  -19.4167  -21.2061 N   0  0  0  0  0  0  0  0  0  0  0  0
   26.4706  -18.7788  -21.1561 C   0  0  0  0  0  0  0  0  0  0  0  0
   25.9037  -18.4845  -22.2694 N   0  0  0  0  0  0  0  0  0  0  0  0
   25.8116  -18.4708  -19.9531 N   0  0  0  0  0  0  0  0  0  0  0  0
   26.2332  -18.9768  -18.6603 C   0  0  0  0  0  0  0  0  0  0  0  0
   26.3446  -20.5040  -18.8365 C   0  0  0  0  0  0  0  0  0  0  0  0
   25.6807  -21.0953  -17.6467 C   0  0  0  0  0  0  0  0  0  0  0  0
   26.5476  -21.0389  -16.4360 C   0  0  2  0  0  0  0  0  0  0  0  0
   27.6063  -22.0601  -16.5902 N   0  0  0  0  0  0  0  0  0  0  0  0
   25.7526  -21.4854  -15.2368 C   0  0  0  0  0  0  0  0  0  0  0  0
   24.9465  -22.4628  -15.2924 O   0  0  0  0  0  0  0  0  0  0  0  0
   24.9838  -18.0415  -22.3459 C   0  0  0  0  0  0  0  0  0  0  0  0
   24.9640  -21.1720   -7.3232 S   0  0  0  0  0  0  0  0  0  0  0  0
   25.8163  -20.5215   -8.8057 C   0  0  0  0  0  0  0  0  0  0  0  0
   25.0523  -21.1482  -10.2848 C   0  0  0  0  0  0  0  0  0  0  0  0
   25.6866  -20.8348  -11.5772 C   0  0  1  0  0  0  0  0  0  0  0  0
   25.0871  -21.3371  -12.8361 N   0  0  0  0  0  0  0  0  0  0  0  0
   25.8782  -20.8230  -13.9925 C   0  0  0  0  0  0  0  0  0  0  0  0
   23.7129  -20.9049  -13.1544 O   0  0  0  0  0  0  0  0  0  0  0  0
   23.4139  -19.6969  -13.4332 N   0  0  0  0  0  0  0  0  0  0  0  0
   22.5793  -21.7802  -13.1853 C   0  0  1  0  0  0  0  0  0  0  0  0
   21.2113  -21.2802  -13.4064 C   0  0  0  0  0  0  0  0  0  0  0  0
   20.8369  -21.7922  -14.7802 C   0  0  0  0  0  0  0  0  0  0  0  0
   19.4467  -21.4577  -15.1008 C   0  0  0  0  0  0  0  0  0  0  0  0
   18.4191  -22.3493  -14.8969 C   0  0  0  0  0  0  0  0  0  0  0  0
   17.1020  -22.0006  -15.2059 C   0  0  0  0  0  0  0  0  0  0  0  0
   16.8747  -20.7241  -15.7240 C   0  0  0  0  0  0  0  0  0  0  0  0
   17.8769  -19.8214  -15.9354 C   0  0  0  0  0  0  0  0  0  0  0  0
   19.1721  -20.2005  -15.6180 C   0  0  0  0  0  0  0  0  0  0  0  0
   20.2789  -21.8149  -12.4217 O   0  0  0  0  0  0  0  0  0  0  0  0
   19.3400  -21.0426  -12.0196 O   0  0  0  0  0  0  0  0  0  0  0  0
  2  3  2  0
  2  1  1  0
  4  2  1  0
  5  6  1  0
  5  4  1  0
  7  8  1  0
  7  6  1  0
  8  9  1  6
 10  8  1  0
 10 17  1  0
 11 10  2  0
 13 12  1  0
 14 13  1  0
 15 14  1  0
 16 15  1  1
 16 17  1  0
 18 19  2  0
 18 16  1  0
 20 18  1  0
 21 20  1  0
 21 22  1  1
 23 22  1  0
 23 24  2  0
 24 25  1  0
 26 25  2  0
 27 26  1  0
 28 27  2  0
 28 23  1  0
 29 21  1  0
 30 29  2  0
 31 29  1  0
M  END
$$$$
