RMF.pdb
     RDKit          3D

 31 31  0  0  1  0  0  0  0  0999 V2000
   30.2539  -22.0500  -17.4603 N   0  0  0  0  0  0  0  0  0  0  0  0
   30.2116  -21.2381  -18.6513 C   0  0  0  0  0  0  0  0  0  0  0  0
   30.8806  -21.6355  -19.6720 N   0  0  0  0  0  0  0  0  0  0  0  0
   29.4751  -20.0440  -18.7416 N   0  0  0  0  0  0  0  0  0  0  0  0
   28.6133  -19.5561  -17.6813 C   0  0  0  0  0  0  0  0  0  0  0  0
   27.5282  -20.6369  -17.5077 C   0  0  0  0  0  0  0  0  0  0  0  0
   26.9008  -20.3684  -16.1885 C   0  0  0  0  0  0  0  0  0  0  0  0
   27.6507  -21.0087  -15.0712 C   0  0  2  0  0  0  0  0  0  0  0  0
   28.1945  -22.2912  -15.5685 N   0  0  0  0  0  0  0  0  0  0  0  0
   26.6830  -21.3958  -13.9835 C   0  0  0  0  0  0  0  0  0  0  0  0
   25.6756  -22.1314  -14.2124 O   0  0  0  0  0  0  0  0  0  0  0  0
   31.0513  -21.0645  -20.5046 C   0  0  0  0  0  0  0  0  0  0  0  0
   27.7493  -19.8859   -7.6995 S   0  0  0  0  0  0  0  0  0  0  0  0
   26.0424  -20.5252   -7.5413 C   0  0  0  0  0  0  0  0  0  0  0  0
   25.4364  -21.0722   -9.1217 C   0  0  0  0  0  0  0  0  0  0  0  0
   26.3066  -20.8910  -10.2967 C   0  0  1  0  0  0  0  0  0  0  0  0
   25.8391  -21.3199  -11.6362 N   0  0  0  0  0  0  0  0  0  0  0  0
   26.8655  -20.9476  -12.6536 C   0  0  0  0  0  0  0  0  0  0  0  0
   24.6095  -20.6947  -12.1593 O   0  0  0  0  0  0  0  0  0  0  0  0
   24.6022  -19.5566  -12.7348 N   0  0  0  0  0  0  0  0  0  0  0  0
   23.3075  -21.2870  -12.0805 C   0  0  1  0  0  0  0  0  0  0  0  0
   22.1040  -20.5986  -12.5784 C   0  0  0  0  0  0  0  0  0  0  0  0
   22.2021  -20.7032  -14.0848 C   0  0  0  0  0  0  0  0  0  0  0  0
   21.0028  -20.1563  -14.7250 C   0  0  0  0  0  0  0  0  0  0  0  0
   20.8148  -18.8023  -14.8797 C   0  0  0  0  0  0  0  0  0  0  0  0
   19.6642  -18.3095  -15.5000 C   0  0  0  0  0  0  0  0  0  0  0  0
   18.7237  -19.2376  -15.9512 C   0  0  0  0  0  0  0  0  0  0  0  0
   18.8868  -20.5857  -15.8097 C   0  0  0  0  0  0  0  0  0  0  0  0
   20.0403  -21.0403  -15.1893 C   0  0  0  0  0  0  0  0  0  0  0  0
   20.8841  -21.2570  -12.1275 O   0  0  0  0  0  0  0  0  0  0  0  0
   20.9165  -22.5303  -11.9956 O   0  0  0  0  0  0  0  0  0  0  0  0
  2  3  2  0
  2  1  1  0
  4  2  1  0
  5  6  1  0
  5  4  1  0
  7  8  1  0
  7  6  1  0
  8  9  1  6
 10  8  1  0
 10 17  1  0
 11 10  2  0
 13 12  1  0
 14 13  1  0
 15 14  1  0
 16 15  1  1
 16 17  1  0
 18 19  2  0
 18 16  1  0
 20 18  1  0
 21 20  1  0
 21 22  1  1
 23 22  1  0
 23 24  2  0
 24 25  1  0
 26 25  2  0
 27 26  1  0
 28 27  2  0
 28 23  1  0
 29 21  1  0
 30 29  2  0
 31 29  1  0
M  END
$$$$
