RMF.pdb
     RDKit          3D

 31 31  0  0  1  0  0  0  0  0999 V2000
   23.9813  -32.2971  -15.8464 N   0  0  0  0  0  0  0  0  0  0  0  0
   24.8630  -32.0373  -16.9575 C   0  0  0  0  0  0  0  0  0  0  0  0
   25.5457  -33.0190  -17.4236 N   0  0  0  0  0  0  0  0  0  0  0  0
   25.0034  -30.7686  -17.5468 N   0  0  0  0  0  0  0  0  0  0  0  0
   24.3101  -29.5865  -17.0702 C   0  0  0  0  0  0  0  0  0  0  0  0
   22.8872  -29.6846  -17.6547 C   0  0  0  0  0  0  0  0  0  0  0  0
   22.2276  -28.3953  -17.3252 C   0  0  0  0  0  0  0  0  0  0  0  0
   20.7969  -28.3758  -17.7416 C   0  0  2  0  0  0  0  0  0  0  0  0
   20.7054  -27.6186  -19.0088 N   0  0  0  0  0  0  0  0  0  0  0  0
   20.0039  -27.5654  -16.7498 C   0  0  0  0  0  0  0  0  0  0  0  0
   19.5098  -26.4362  -17.0485 O   0  0  0  0  0  0  0  0  0  0  0  0
   26.2378  -32.9326  -18.1733 C   0  0  0  0  0  0  0  0  0  0  0  0
   14.3937  -28.2236  -15.6858 S   0  0  0  0  0  0  0  0  0  0  0  0
   14.8271  -26.5079  -15.2213 C   0  0  0  0  0  0  0  0  0  0  0  0
   16.4456  -26.4550  -14.4854 C   0  0  0  0  0  0  0  0  0  0  0  0
   17.5517  -27.1180  -15.1981 C   0  0  1  0  0  0  0  0  0  0  0  0
   18.8755  -27.2541  -14.5457 N   0  0  0  0  0  0  0  0  0  0  0  0
   19.7796  -28.0401  -15.4355 C   0  0  0  0  0  0  0  0  0  0  0  0
   18.9326  -27.9974  -13.2726 O   0  0  0  0  0  0  0  0  0  0  0  0
   18.7665  -29.2597  -13.1997 N   0  0  0  0  0  0  0  0  0  0  0  0
   19.1773  -27.3936  -11.9968 C   0  0  2  0  0  0  0  0  0  0  0  0
   19.1888  -28.1780  -10.7498 C   0  0  0  0  0  0  0  0  0  0  0  0
   20.0189  -27.3538   -9.7900 C   0  0  0  0  0  0  0  0  0  0  0  0
   19.4196  -26.0326   -9.5837 C   0  0  0  0  0  0  0  0  0  0  0  0
   18.7257  -25.7202   -8.4377 C   0  0  0  0  0  0  0  0  0  0  0  0
   18.1703  -24.4499   -8.2655 C   0  0  0  0  0  0  0  0  0  0  0  0
   18.3470  -23.5212   -9.2930 C   0  0  0  0  0  0  0  0  0  0  0  0
   19.0313  -23.8066  -10.4394 C   0  0  0  0  0  0  0  0  0  0  0  0
   19.5692  -25.0769  -10.5775 C   0  0  0  0  0  0  0  0  0  0  0  0
   17.8459  -28.3430  -10.2074 O   0  0  0  0  0  0  0  0  0  0  0  0
   17.6844  -29.2249   -9.2932 O   0  0  0  0  0  0  0  0  0  0  0  0
  2  3  2  0
  2  1  1  0
  4  2  1  0
  5  6  1  0
  5  4  1  0
  7  8  1  0
  7  6  1  0
  8  9  1  6
 10  8  1  0
 10 17  1  0
 11 10  2  0
 13 12  1  0
 14 13  1  0
 15 14  1  0
 16 15  1  6
 16 17  1  0
 18 19  2  0
 18 16  1  0
 20 18  1  0
 21 20  1  0
 21 22  1  6
 23 22  1  0
 23 24  2  0
 24 25  1  0
 26 25  2  0
 27 26  1  0
 28 27  2  0
 28 23  1  0
 29 21  1  0
 30 29  2  0
 31 29  1  0
M  END
$$$$
