RMF.pdb
     RDKit          3D

 31 31  0  0  1  0  0  0  0  0999 V2000
   21.5330  -18.1190  -16.3223 N   0  0  0  0  0  0  0  0  0  0  0  0
   21.8561  -19.1865  -15.4083 C   0  0  0  0  0  0  0  0  0  0  0  0
   21.2760  -20.3185  -15.5794 N   0  0  0  0  0  0  0  0  0  0  0  0
   22.7709  -19.0422  -14.3506 N   0  0  0  0  0  0  0  0  0  0  0  0
   23.4647  -17.8016  -14.0596 C   0  0  0  0  0  0  0  0  0  0  0  0
   24.9153  -18.0252  -14.5304 C   0  0  0  0  0  0  0  0  0  0  0  0
   25.5662  -18.8243  -13.4610 C   0  0  0  0  0  0  0  0  0  0  0  0
   27.0204  -19.0243  -13.7179 C   0  0  2  0  0  0  0  0  0  0  0  0
   27.2078  -19.1510  -15.1796 N   0  0  0  0  0  0  0  0  0  0  0  0
   27.4432  -20.3573  -13.1578 C   0  0  0  0  0  0  0  0  0  0  0  0
   27.2504  -21.4412  -13.7873 O   0  0  0  0  0  0  0  0  0  0  0  0
   21.4263  -21.1369  -14.9827 C   0  0  0  0  0  0  0  0  0  0  0  0
   32.5308  -22.3729   -9.3541 S   0  0  0  0  0  0  0  0  0  0  0  0
   32.5962  -21.6803  -11.0462 C   0  0  0  0  0  0  0  0  0  0  0  0
   30.9612  -21.5846  -11.7403 C   0  0  0  0  0  0  0  0  0  0  0  0
   29.8134  -21.7634  -10.8341 C   0  0  2  0  0  0  0  0  0  0  0  0
   28.4372  -21.8029  -11.3829 N   0  0  0  0  0  0  0  0  0  0  0  0
   28.0772  -20.4485  -11.8958 C   0  0  0  0  0  0  0  0  0  0  0  0
   27.3397  -22.1063  -10.4447 O   0  0  0  0  0  0  0  0  0  0  0  0
   27.0630  -23.2911  -10.0627 N   0  0  0  0  0  0  0  0  0  0  0  0
   26.4766  -21.1194   -9.8675 C   0  0  1  0  0  0  0  0  0  0  0  0
   26.4131  -20.8906   -8.4136 C   0  0  0  0  0  0  0  0  0  0  0  0
   27.6995  -20.1640   -8.0866 C   0  0  0  0  0  0  0  0  0  0  0  0
   27.7934  -19.8900   -6.6502 C   0  0  0  0  0  0  0  0  0  0  0  0
   28.2954  -20.8158   -5.7651 C   0  0  0  0  0  0  0  0  0  0  0  0
   28.3791  -20.5246   -4.4013 C   0  0  0  0  0  0  0  0  0  0  0  0
   27.9372  -19.2693   -3.9789 C   0  0  0  0  0  0  0  0  0  0  0  0
   27.4353  -18.3335   -4.8371 C   0  0  0  0  0  0  0  0  0  0  0  0
   27.3664  -18.6557   -6.1837 C   0  0  0  0  0  0  0  0  0  0  0  0
   25.2787  -20.0495   -8.0519 O   0  0  0  0  0  0  0  0  0  0  0  0
   24.7188  -20.2703   -6.9217 O   0  0  0  0  0  0  0  0  0  0  0  0
  2  3  2  0
  2  1  1  0
  4  2  1  0
  5  6  1  0
  5  4  1  0
  7  8  1  0
  7  6  1  0
  8  9  1  6
 10  8  1  0
 10 17  1  0
 11 10  2  0
 13 12  1  0
 14 13  1  0
 15 14  1  0
 16 15  1  6
 16 17  1  0
 18 19  2  0
 18 16  1  0
 20 18  1  0
 21 20  1  0
 21 22  1  1
 23 22  1  0
 23 24  2  0
 24 25  1  0
 26 25  2  0
 27 26  1  0
 28 27  2  0
 28 23  1  0
 29 21  1  0
 30 29  2  0
 31 29  1  0
M  END
$$$$
