HSI.pdb
     RDKit          3D

 25 25  0  0  1  0  0  0  0  0999 V2000
   22.5886  -17.4768  -16.4090 N   0  0  0  0  0  0  0  0  0  0  0  0
   23.2451  -18.6945  -16.0367 C   0  0  1  0  0  0  0  0  0  0  0  0
   24.5914  -18.7168  -16.7692 C   0  0  0  0  0  0  0  0  0  0  0  0
   24.3276  -19.2439  -18.1335 C   0  0  0  0  0  0  0  0  0  0  0  0
   24.7853  -18.7415  -19.3587 C   0  0  0  0  0  0  0  0  0  0  0  0
   24.3179  -19.5112  -20.3465 N   0  0  0  0  0  0  0  0  0  0  0  0
   23.5795  -20.4864  -19.8057 C   0  0  0  0  0  0  0  0  0  0  0  0
   23.5908  -20.3169  -18.4662 N   0  0  0  0  0  0  0  0  0  0  0  0
   23.4501  -18.7968  -14.5668 C   0  0  0  0  0  0  0  0  0  0  0  0
   23.8279  -17.7936  -13.9096 O   0  0  0  0  0  0  0  0  0  0  0  0
   23.0506  -22.3371  -12.5982 O   0  0  0  0  0  0  0  0  0  0  0  0
   22.6872  -21.2148  -11.8470 C   0  0  0  0  0  0  0  0  0  0  0  0
   23.4251  -20.0347  -12.4288 C   0  0  2  0  0  0  0  0  0  0  0  0
   23.2350  -20.0019  -13.8494 N   0  0  0  0  0  0  0  0  0  0  0  0
   24.8568  -20.0210  -12.0441 C   0  0  0  0  0  0  0  0  0  0  0  0
   25.6909  -19.9830  -12.9848 O   0  0  0  0  0  0  0  0  0  0  0  0
   26.5215  -18.9133   -6.7648 C   0  0  0  0  0  0  0  0  0  0  0  0
   26.4966  -18.9484   -8.2525 C   0  0  0  0  0  0  0  0  0  0  0  0
   26.9248  -20.2160   -8.9012 C   0  0  2  0  0  0  0  0  0  0  0  0
   28.2385  -20.7311   -8.3484 C   0  0  0  0  0  0  0  0  0  0  0  0
   26.7316  -20.3505  -10.3554 C   0  0  2  0  0  0  0  0  0  0  0  0
   25.3325  -20.0470  -10.7327 N   0  0  0  0  0  0  0  0  0  0  0  0
   27.1922  -21.5648  -11.0190 C   0  0  0  0  0  0  0  0  0  0  0  0
   26.5325  -22.6258  -11.1193 O   0  0  0  0  0  0  0  0  0  0  0  0
   28.4720  -21.6453  -11.6271 O   0  0  0  0  0  0  0  0  0  0  0  0
  2  3  1  0
  2  1  1  1
  4  8  1  0
  4  3  1  0
  5  4  2  0
  6  5  1  0
  6  7  1  0
  7  8  2  0
  9  2  1  0
 10  9  2  0
 11 12  1  0
 13 12  1  6
 13 14  1  0
 14  9  1  0
 15 13  1  0
 15 22  1  0
 16 15  2  0
 18 17  1  0
 19 18  1  0
 19 20  1  6
 21 22  1  1
 21 23  1  0
 21 19  1  0
 23 25  1  0
 24 23  2  0
M  END
$$$$
