HSI.pdb
     RDKit          3D

 25 25  0  0  1  0  0  0  0  0999 V2000
   15.4095  -12.2643  -17.6050 N   0  0  0  0  0  0  0  0  0  0  0  0
   15.4707  -11.2576  -16.5876 C   0  0  1  0  0  0  0  0  0  0  0  0
   15.5064  -11.9875  -15.2402 C   0  0  0  0  0  0  0  0  0  0  0  0
   14.1565  -12.5750  -15.0359 C   0  0  0  0  0  0  0  0  0  0  0  0
   13.0267  -12.4529  -15.8553 C   0  0  0  0  0  0  0  0  0  0  0  0
   12.0166  -13.1366  -15.3083 N   0  0  0  0  0  0  0  0  0  0  0  0
   12.4519  -13.6920  -14.1722 C   0  0  0  0  0  0  0  0  0  0  0  0
   13.7478  -13.3469  -14.0152 N   0  0  0  0  0  0  0  0  0  0  0  0
   16.6622  -10.3793  -16.7358 C   0  0  0  0  0  0  0  0  0  0  0  0
   17.7802  -10.8742  -17.0290 O   0  0  0  0  0  0  0  0  0  0  0  0
   16.7607   -6.2899  -15.8245 O   0  0  0  0  0  0  0  0  0  0  0  0
   17.3437   -6.7331  -17.0159 C   0  0  0  0  0  0  0  0  0  0  0  0
   17.7599   -8.1668  -16.7986 C   0  0  2  0  0  0  0  0  0  0  0  0
   16.5990   -8.9729  -16.5582 N   0  0  0  0  0  0  0  0  0  0  0  0
   18.7793   -8.3010  -15.7306 C   0  0  0  0  0  0  0  0  0  0  0  0
   18.3549   -8.5886  -14.5820 O   0  0  0  0  0  0  0  0  0  0  0  0
   22.5182  -11.7357  -15.7951 C   0  0  0  0  0  0  0  0  0  0  0  0
   21.5410  -10.6483  -15.5161 C   0  0  0  0  0  0  0  0  0  0  0  0
   22.0989   -9.3383  -15.0875 C   0  0  2  0  0  0  0  0  0  0  0  0
   23.2397   -9.4925  -14.1019 C   0  0  0  0  0  0  0  0  0  0  0  0
   21.1575   -8.2352  -14.8281 C   0  0  2  0  0  0  0  0  0  0  0  0
   20.1526   -8.1329  -15.9105 N   0  0  0  0  0  0  0  0  0  0  0  0
   21.6884   -6.9190  -14.4921 C   0  0  0  0  0  0  0  0  0  0  0  0
   21.7890   -5.9574  -15.2897 O   0  0  0  0  0  0  0  0  0  0  0  0
   22.1508   -6.6102  -13.1863 O   0  0  0  0  0  0  0  0  0  0  0  0
  2  3  1  0
  2  1  1  6
  4  8  1  0
  4  3  1  0
  5  4  2  0
  6  5  1  0
  6  7  1  0
  7  8  2  0
  9  2  1  0
 10  9  2  0
 11 12  1  0
 13 12  1  1
 13 14  1  0
 14  9  1  0
 15 13  1  0
 15 22  1  0
 16 15  2  0
 18 17  1  0
 19 18  1  0
 19 20  1  1
 21 22  1  6
 21 23  1  0
 21 19  1  0
 23 25  1  0
 24 23  2  0
M  END
$$$$
