HSI.pdb
     RDKit          3D

 25 25  0  0  1  0  0  0  0  0999 V2000
   29.1339  -21.1959  -17.9506 N   0  0  0  0  0  0  0  0  0  0  0  0
   28.2880  -21.9203  -17.0496 C   0  0  1  0  0  0  0  0  0  0  0  0
   29.1793  -22.4220  -15.9079 C   0  0  0  0  0  0  0  0  0  0  0  0
   29.6321  -23.7861  -16.2863 C   0  0  0  0  0  0  0  0  0  0  0  0
   29.3128  -24.5150  -17.4394 C   0  0  0  0  0  0  0  0  0  0  0  0
   29.9293  -25.6999  -17.3898 N   0  0  0  0  0  0  0  0  0  0  0  0
   30.6308  -25.7612  -16.2527 C   0  0  0  0  0  0  0  0  0  0  0  0
   30.4451  -24.5988  -15.5912 N   0  0  0  0  0  0  0  0  0  0  0  0
   27.1826  -21.0795  -16.5164 C   0  0  0  0  0  0  0  0  0  0  0  0
   27.4239  -19.9333  -16.0592 O   0  0  0  0  0  0  0  0  0  0  0  0
   23.0676  -21.8319  -16.9593 O   0  0  0  0  0  0  0  0  0  0  0  0
   23.6551  -20.5665  -16.8616 C   0  0  0  0  0  0  0  0  0  0  0  0
   24.8192  -20.6911  -15.9102 C   0  0  2  0  0  0  0  0  0  0  0  0
   25.8332  -21.5174  -16.4972 N   0  0  0  0  0  0  0  0  0  0  0  0
   24.4016  -21.1658  -14.5692 C   0  0  0  0  0  0  0  0  0  0  0  0
   25.1246  -22.0451  -14.0344 O   0  0  0  0  0  0  0  0  0  0  0  0
   26.5539  -20.9833  -10.8121 C   0  0  0  0  0  0  0  0  0  0  0  0
   25.3972  -21.4216  -11.6400 C   0  0  0  0  0  0  0  0  0  0  0  0
   24.1917  -20.5512  -11.6232 C   0  0  2  0  0  0  0  0  0  0  0  0
   23.8872  -20.0154  -10.2387 C   0  0  0  0  0  0  0  0  0  0  0  0
   23.0317  -20.9577  -12.4350 C   0  0  2  0  0  0  0  0  0  0  0  0
   23.2811  -20.7110  -13.8734 N   0  0  0  0  0  0  0  0  0  0  0  0
   21.7046  -20.4876  -12.0543 C   0  0  0  0  0  0  0  0  0  0  0  0
   21.1588  -19.4444  -12.4842 O   0  0  0  0  0  0  0  0  0  0  0  0
   20.8948  -21.2003  -11.1321 O   0  0  0  0  0  0  0  0  0  0  0  0
  2  3  1  0
  2  1  1  6
  4  8  1  0
  4  3  1  0
  5  4  2  0
  6  5  1  0
  6  7  1  0
  7  8  2  0
  9  2  1  0
 10  9  2  0
 11 12  1  0
 13 12  1  6
 13 14  1  0
 14  9  1  0
 15 13  1  0
 15 22  1  0
 16 15  2  0
 18 17  1  0
 19 18  1  0
 19 20  1  1
 21 22  1  6
 21 23  1  0
 21 19  1  0
 23 25  1  0
 24 23  2  0
M  END
$$$$
