HSI.pdb
     RDKit          3D

 25 25  0  0  1  0  0  0  0  0999 V2000
   19.5408  -19.7420  -15.4670 N   0  0  0  0  0  0  0  0  0  0  0  0
   20.6462  -20.6356  -15.2881 C   0  0  1  0  0  0  0  0  0  0  0  0
   21.2706  -20.8542  -16.6708 C   0  0  0  0  0  0  0  0  0  0  0  0
   20.2846  -21.6297  -17.4678 C   0  0  0  0  0  0  0  0  0  0  0  0
   19.9321  -22.9789  -17.3324 C   0  0  0  0  0  0  0  0  0  0  0  0
   19.0062  -23.2807  -18.2481 N   0  0  0  0  0  0  0  0  0  0  0  0
   18.7504  -22.1810  -18.9651 C   0  0  0  0  0  0  0  0  0  0  0  0
   19.5285  -21.1869  -18.4860 N   0  0  0  0  0  0  0  0  0  0  0  0
   21.6575  -20.0969  -14.3392 C   0  0  0  0  0  0  0  0  0  0  0  0
   22.2379  -19.0087  -14.5840 O   0  0  0  0  0  0  0  0  0  0  0  0
   21.7775  -21.7136  -10.9230 O   0  0  0  0  0  0  0  0  0  0  0  0
   22.6568  -20.6303  -10.8277 C   0  0  0  0  0  0  0  0  0  0  0  0
   22.9500  -20.1727  -12.2350 C   0  0  2  0  0  0  0  0  0  0  0  0
   22.0097  -20.7673  -13.1393 N   0  0  0  0  0  0  0  0  0  0  0  0
   24.3572  -20.4255  -12.6272 C   0  0  0  0  0  0  0  0  0  0  0  0
   24.5877  -21.5069  -13.2266 O   0  0  0  0  0  0  0  0  0  0  0  0
   29.8575  -21.0044  -11.1727 C   0  0  0  0  0  0  0  0  0  0  0  0
   28.8723  -21.1895  -12.2729 C   0  0  0  0  0  0  0  0  0  0  0  0
   27.4606  -20.8277  -11.9776 C   0  0  2  0  0  0  0  0  0  0  0  0
   26.6164  -22.0373  -11.6301 C   0  0  0  0  0  0  0  0  0  0  0  0
   26.8171  -19.8029  -12.8178 C   0  0  2  0  0  0  0  0  0  0  0  0
   25.4236  -19.5602  -12.3805 N   0  0  0  0  0  0  0  0  0  0  0  0
   26.8861  -19.9348  -14.2686 C   0  0  0  0  0  0  0  0  0  0  0  0
   27.7426  -19.3876  -15.0020 O   0  0  0  0  0  0  0  0  0  0  0  0
   25.9541  -20.7226  -14.9931 O   0  0  0  0  0  0  0  0  0  0  0  0
  2  3  1  0
  2  1  1  6
  4  8  1  0
  4  3  1  0
  5  4  2  0
  6  5  1  0
  6  7  1  0
  7  8  2  0
  9  2  1  0
 10  9  2  0
 11 12  1  0
 13 12  1  1
 13 14  1  0
 14  9  1  0
 15 13  1  0
 15 22  1  0
 16 15  2  0
 18 17  1  0
 19 18  1  0
 19 20  1  6
 21 22  1  1
 21 23  1  0
 21 19  1  0
 23 25  1  0
 24 23  2  0
M  END
$$$$
