HSI.pdb
     RDKit          3D

 25 25  0  0  1  0  0  0  0  0999 V2000
   26.2180  -23.1209  -18.3845 N   0  0  0  0  0  0  0  0  0  0  0  0
   26.3133  -22.7716  -16.9983 C   0  0  1  0  0  0  0  0  0  0  0  0
   26.9517  -21.3796  -16.9326 C   0  0  0  0  0  0  0  0  0  0  0  0
   28.3172  -21.5077  -17.5052 C   0  0  0  0  0  0  0  0  0  0  0  0
   29.3561  -22.3488  -17.0856 C   0  0  0  0  0  0  0  0  0  0  0  0
   30.4193  -22.1526  -17.8716 N   0  0  0  0  0  0  0  0  0  0  0  0
   30.1053  -21.2205  -18.7779 C   0  0  0  0  0  0  0  0  0  0  0  0
   28.8315  -20.8359  -18.5487 N   0  0  0  0  0  0  0  0  0  0  0  0
   24.9861  -22.7681  -16.3263 C   0  0  0  0  0  0  0  0  0  0  0  0
   24.0134  -22.1676  -16.8502 O   0  0  0  0  0  0  0  0  0  0  0  0
   24.2425  -23.9608  -12.4002 O   0  0  0  0  0  0  0  0  0  0  0  0
   23.3984  -24.4606  -13.3970 C   0  0  0  0  0  0  0  0  0  0  0  0
   23.4330  -23.4773  -14.5405 C   0  0  2  0  0  0  0  0  0  0  0  0
   24.7560  -23.4261  -15.0904 N   0  0  0  0  0  0  0  0  0  0  0  0
   22.9255  -22.1406  -14.1487 C   0  0  0  0  0  0  0  0  0  0  0  0
   23.7135  -21.4102  -13.4949 O   0  0  0  0  0  0  0  0  0  0  0  0
   22.6137  -18.2689  -16.9452 C   0  0  0  0  0  0  0  0  0  0  0  0
   22.5773  -19.1083  -15.7166 C   0  0  0  0  0  0  0  0  0  0  0  0
   21.2437  -19.3397  -15.1010 C   0  0  2  0  0  0  0  0  0  0  0  0
   20.4657  -18.0531  -14.9111 C   0  0  0  0  0  0  0  0  0  0  0  0
   21.1440  -20.3287  -14.0138 C   0  0  2  0  0  0  0  0  0  0  0  0
   21.6558  -21.6474  -14.4509 N   0  0  0  0  0  0  0  0  0  0  0  0
   19.8760  -20.4764  -13.3085 C   0  0  0  0  0  0  0  0  0  0  0  0
   19.3597  -19.6094  -12.5649 O   0  0  0  0  0  0  0  0  0  0  0  0
   19.0961  -21.6576  -13.4114 O   0  0  0  0  0  0  0  0  0  0  0  0
  2  3  1  0
  2  1  1  6
  4  8  1  0
  4  3  1  0
  5  4  2  0
  6  5  1  0
  6  7  1  0
  7  8  2  0
  9  2  1  0
 10  9  2  0
 11 12  1  0
 13 12  1  1
 13 14  1  0
 14  9  1  0
 15 13  1  0
 15 22  1  0
 16 15  2  0
 18 17  1  0
 19 18  1  0
 19 20  1  1
 21 22  1  6
 21 23  1  0
 21 19  1  0
 23 25  1  0
 24 23  2  0
M  END
$$$$
