VKT.pdb
     RDKit          3D

 24 23  0  0  1  0  0  0  0  0999 V2000
    6.9529  -12.8202   20.5117 C   0  0  0  0  0  0  0  0  0  0  0  0
    8.3022  -13.2645   19.9971 C   0  0  2  0  0  0  0  0  0  0  0  0
    8.4815  -12.6903   18.6243 C   0  0  0  0  0  0  0  0  0  0  0  0
    8.2978  -14.7843   19.9246 C   0  0  2  0  0  0  0  0  0  0  0  0
    7.2666  -15.2188   18.9853 N   0  0  0  0  0  0  0  0  0  0  0  0
    8.0183  -15.3556   21.2838 C   0  0  0  0  0  0  0  0  0  0  0  0
    6.7851  -15.4971   21.5630 O   0  0  0  0  0  0  0  0  0  0  0  0
    9.0417  -15.7075   22.1801 N   0  0  0  0  0  0  0  0  0  0  0  0
    8.7391  -16.3021   23.4924 C   0  0  1  0  0  0  0  0  0  0  0  0
    9.5528  -17.5469   23.6522 C   0  0  0  0  0  0  0  0  0  0  0  0
    9.2960  -18.6103   22.6383 C   0  0  0  0  0  0  0  0  0  0  0  0
   10.2825  -19.7853   22.8295 C   0  0  0  0  0  0  0  0  0  0  0  0
   10.0706  -20.8109   21.7389 C   0  0  0  0  0  0  0  0  0  0  0  0
   10.9604  -21.9326   21.9776 N   0  0  0  0  0  0  0  0  0  0  0  0
    8.9305  -15.2657   24.4988 C   0  0  0  0  0  0  0  0  0  0  0  0
    9.9790  -14.5281   24.4281 O   0  0  0  0  0  0  0  0  0  0  0  0
    7.1346  -12.0431   25.5318 C   0  0  0  0  0  0  0  0  0  0  0  0
    7.2461  -12.9702   26.6968 C   0  0  1  0  0  0  0  0  0  0  0  0
    6.0776  -13.6787   26.9481 O   0  0  0  0  0  0  0  0  0  0  0  0
    8.4035  -13.9180   26.5621 C   0  0  2  0  0  0  0  0  0  0  0  0
    8.0794  -14.9520   25.5805 N   0  0  0  0  0  0  0  0  0  0  0  0
    8.7323  -14.5229   27.8784 C   0  0  0  0  0  0  0  0  0  0  0  0
    9.1761  -13.7621   28.9487 O   0  0  0  0  0  0  0  0  0  0  0  0
    8.6178  -15.7610   28.0690 O   0  0  0  0  0  0  0  0  0  0  0  0
  2  1  1  6
  2  4  1  0
  2  3  1  0
  4  5  1  6
  6  7  2  0
  6  4  1  0
  8  6  1  0
  9 10  1  1
  9  8  1  0
 11 10  1  0
 11 12  1  0
 13 14  1  0
 13 12  1  0
 15  9  1  0
 16 15  2  0
 18 19  1  0
 18 20  1  0
 18 17  1  6
 20 21  1  6
 21 15  1  0
 22 23  1  0
 22 20  1  0
 24 22  2  0
M  END
$$$$
