VKT.pdb
     RDKit          3D

 24 23  0  0  1  0  0  0  0  0999 V2000
    7.8203  -13.1511   27.1521 C   0  0  0  0  0  0  0  0  0  0  0  0
    7.0557  -12.2062   26.2548 C   0  0  2  0  0  0  0  0  0  0  0  0
    6.4125  -11.1679   27.1235 C   0  0  0  0  0  0  0  0  0  0  0  0
    5.9849  -13.0106   25.5327 C   0  0  2  0  0  0  0  0  0  0  0  0
    5.2233  -13.7851   26.5098 N   0  0  0  0  0  0  0  0  0  0  0  0
    6.6283  -13.9365   24.5426 C   0  0  0  0  0  0  0  0  0  0  0  0
    6.6897  -15.1538   24.9076 O   0  0  0  0  0  0  0  0  0  0  0  0
    7.1253  -13.4922   23.3056 N   0  0  0  0  0  0  0  0  0  0  0  0
    7.6911  -14.4334   22.3251 C   0  0  1  0  0  0  0  0  0  0  0  0
    7.7490  -13.7576   20.9919 C   0  0  0  0  0  0  0  0  0  0  0  0
    8.3721  -14.5582   19.8986 C   0  0  0  0  0  0  0  0  0  0  0  0
    8.3643  -13.7590   18.5752 C   0  0  0  0  0  0  0  0  0  0  0  0
    8.9822  -14.5909   17.4741 C   0  0  0  0  0  0  0  0  0  0  0  0
    9.1069  -13.7677   16.2850 N   0  0  0  0  0  0  0  0  0  0  0  0
    8.9547  -14.9211   22.8630 C   0  0  0  0  0  0  0  0  0  0  0  0
    9.7663  -14.0747   23.3859 O   0  0  0  0  0  0  0  0  0  0  0  0
    9.9896  -17.6390   25.5826 C   0  0  0  0  0  0  0  0  0  0  0  0
   10.5971  -17.8827   24.2407 C   0  0  1  0  0  0  0  0  0  0  0  0
    9.9284  -18.8523   23.5036 O   0  0  0  0  0  0  0  0  0  0  0  0
   10.7247  -16.6213   23.4353 C   0  0  2  0  0  0  0  0  0  0  0  0
    9.4194  -16.2538   22.8887 N   0  0  0  0  0  0  0  0  0  0  0  0
   11.7216  -16.8002   22.3487 C   0  0  0  0  0  0  0  0  0  0  0  0
   13.0828  -16.8673   22.6013 O   0  0  0  0  0  0  0  0  0  0  0  0
   11.3602  -16.8981   21.1478 O   0  0  0  0  0  0  0  0  0  0  0  0
  2  1  1  1
  2  4  1  0
  2  3  1  0
  4  5  1  1
  6  7  2  0
  6  4  1  0
  8  6  1  0
  9 10  1  6
  9  8  1  0
 11 10  1  0
 11 12  1  0
 13 14  1  0
 13 12  1  0
 15  9  1  0
 16 15  2  0
 18 19  1  0
 18 20  1  0
 18 17  1  1
 20 21  1  6
 21 15  1  0
 22 23  1  0
 22 20  1  0
 24 22  2  0
M  END
$$$$
