VKT.pdb
     RDKit          3D

 24 23  0  0  1  0  0  0  0  0999 V2000
    8.3306  -13.3206   18.6011 C   0  0  0  0  0  0  0  0  0  0  0  0
    7.7471  -13.6636   19.9518 C   0  0  2  0  0  0  0  0  0  0  0  0
    7.4318  -12.3782   20.6553 C   0  0  0  0  0  0  0  0  0  0  0  0
    8.7998  -14.4353   20.7337 C   0  0  2  0  0  0  0  0  0  0  0  0
    9.2001  -15.6140   19.9690 N   0  0  0  0  0  0  0  0  0  0  0  0
    8.2376  -14.8581   22.0592 C   0  0  0  0  0  0  0  0  0  0  0  0
    7.8211  -13.9063   22.7936 O   0  0  0  0  0  0  0  0  0  0  0  0
    8.1759  -16.2039   22.4587 N   0  0  0  0  0  0  0  0  0  0  0  0
    7.7432  -16.5811   23.8143 C   0  0  1  0  0  0  0  0  0  0  0  0
    7.5300  -18.0611   23.8536 C   0  0  0  0  0  0  0  0  0  0  0  0
    7.2389  -18.6270   25.2026 C   0  0  0  0  0  0  0  0  0  0  0  0
    7.1649  -20.1698   25.1341 C   0  0  0  0  0  0  0  0  0  0  0  0
    6.9495  -20.7315   26.5214 C   0  0  0  0  0  0  0  0  0  0  0  0
    7.1090  -22.1732   26.4681 N   0  0  0  0  0  0  0  0  0  0  0  0
    8.7169  -16.0386   24.7531 C   0  0  0  0  0  0  0  0  0  0  0  0
    9.9602  -16.0702   24.4340 O   0  0  0  0  0  0  0  0  0  0  0  0
    9.2563  -12.5472   26.2820 C   0  0  0  0  0  0  0  0  0  0  0  0
    9.1684  -13.5733   27.3630 C   0  0  1  0  0  0  0  0  0  0  0  0
    7.9306  -13.6012   27.9936 O   0  0  0  0  0  0  0  0  0  0  0  0
    9.5281  -14.9475   26.8749 C   0  0  2  0  0  0  0  0  0  0  0  0
    8.4621  -15.4573   26.0139 N   0  0  0  0  0  0  0  0  0  0  0  0
    9.7616  -15.8596   28.0239 C   0  0  0  0  0  0  0  0  0  0  0  0
   10.7595  -15.6280   28.9576 O   0  0  0  0  0  0  0  0  0  0  0  0
    9.0532  -16.8855   28.1908 O   0  0  0  0  0  0  0  0  0  0  0  0
  2  1  1  6
  2  4  1  0
  2  3  1  0
  4  5  1  6
  6  7  2  0
  6  4  1  0
  8  6  1  0
  9 10  1  6
  9  8  1  0
 11 10  1  0
 11 12  1  0
 13 14  1  0
 13 12  1  0
 15  9  1  0
 16 15  2  0
 18 19  1  0
 18 20  1  0
 18 17  1  6
 20 21  1  6
 21 15  1  0
 22 23  1  0
 22 20  1  0
 24 22  2  0
M  END
$$$$
