VKT.pdb
     RDKit          3D

 24 23  0  0  1  0  0  0  0  0999 V2000
    7.8116  -12.6257   18.7759 C   0  0  0  0  0  0  0  0  0  0  0  0
    7.6926  -13.3659   20.0877 C   0  0  2  0  0  0  0  0  0  0  0  0
    8.5634  -12.6685   21.0887 C   0  0  0  0  0  0  0  0  0  0  0  0
    8.1920  -14.7865   19.8700 C   0  0  2  0  0  0  0  0  0  0  0  0
    7.3807  -15.4298   18.8392 N   0  0  0  0  0  0  0  0  0  0  0  0
    8.0907  -15.5611   21.1512 C   0  0  0  0  0  0  0  0  0  0  0  0
    6.9193  -15.9615   21.4449 O   0  0  0  0  0  0  0  0  0  0  0  0
    9.2057  -15.8241   21.9648 N   0  0  0  0  0  0  0  0  0  0  0  0
    9.0776  -16.5912   23.2147 C   0  0  1  0  0  0  0  0  0  0  0  0
    9.8898  -17.8414   23.0938 C   0  0  0  0  0  0  0  0  0  0  0  0
    9.9609  -18.6765   24.3276 C   0  0  0  0  0  0  0  0  0  0  0  0
   10.8564  -19.9140   24.0886 C   0  0  0  0  0  0  0  0  0  0  0  0
   10.9528  -20.7263   25.3603 C   0  0  0  0  0  0  0  0  0  0  0  0
   11.8987  -21.8070   25.1500 N   0  0  0  0  0  0  0  0  0  0  0  0
    9.4175  -15.6981   24.3150 C   0  0  0  0  0  0  0  0  0  0  0  0
   10.4650  -14.9636   24.2077 O   0  0  0  0  0  0  0  0  0  0  0  0
    8.2520  -12.5454   27.7781 C   0  0  0  0  0  0  0  0  0  0  0  0
    7.9210  -13.6226   26.7987 C   0  0  1  0  0  0  0  0  0  0  0  0
    7.3960  -13.1384   25.6069 O   0  0  0  0  0  0  0  0  0  0  0  0
    9.0941  -14.5177   26.5180 C   0  0  2  0  0  0  0  0  0  0  0  0
    8.7168  -15.5255   25.5283 N   0  0  0  0  0  0  0  0  0  0  0  0
    9.5671  -15.1588   27.7717 C   0  0  0  0  0  0  0  0  0  0  0  0
   10.1983  -14.4395   28.7744 O   0  0  0  0  0  0  0  0  0  0  0  0
    9.4090  -16.3910   27.9686 O   0  0  0  0  0  0  0  0  0  0  0  0
  2  1  1  6
  2  4  1  0
  2  3  1  0
  4  5  1  6
  6  7  2  0
  6  4  1  0
  8  6  1  0
  9 10  1  6
  9  8  1  0
 11 10  1  0
 11 12  1  0
 13 14  1  0
 13 12  1  0
 15  9  1  0
 16 15  2  0
 18 19  1  0
 18 20  1  0
 18 17  1  1
 20 21  1  6
 21 15  1  0
 22 23  1  0
 22 20  1  0
 24 22  2  0
M  END
$$$$
