VKT.pdb
     RDKit          3D

 24 23  0  0  1  0  0  0  0  0999 V2000
    7.5513  -12.3591   18.6285 C   0  0  0  0  0  0  0  0  0  0  0  0
    7.6785  -13.4106   19.7059 C   0  0  2  0  0  0  0  0  0  0  0  0
    8.6612  -12.9106   20.7213 C   0  0  0  0  0  0  0  0  0  0  0  0
    8.2069  -14.6820   19.0585 C   0  0  2  0  0  0  0  0  0  0  0  0
    7.2431  -15.1544   18.0673 N   0  0  0  0  0  0  0  0  0  0  0  0
    8.4138  -15.7359   20.1064 C   0  0  0  0  0  0  0  0  0  0  0  0
    7.3467  -16.1828   20.6360 O   0  0  0  0  0  0  0  0  0  0  0  0
    9.6900  -16.1944   20.4748 N   0  0  0  0  0  0  0  0  0  0  0  0
    9.8656  -17.2009   21.5346 C   0  0  1  0  0  0  0  0  0  0  0  0
   11.0693  -18.0287   21.2132 C   0  0  0  0  0  0  0  0  0  0  0  0
   10.9279  -18.9257   20.0300 C   0  0  0  0  0  0  0  0  0  0  0  0
   12.2474  -19.6894   19.7733 C   0  0  0  0  0  0  0  0  0  0  0  0
   12.0952  -20.5748   18.5571 C   0  0  0  0  0  0  0  0  0  0  0  0
   13.3618  -21.2372   18.3040 N   0  0  0  0  0  0  0  0  0  0  0  0
    9.8815  -16.4970   22.8105 C   0  0  0  0  0  0  0  0  0  0  0  0
   10.6123  -15.4474   22.9230 O   0  0  0  0  0  0  0  0  0  0  0  0
    7.7568  -14.1863   24.4675 C   0  0  0  0  0  0  0  0  0  0  0  0
    7.9523  -15.3122   25.4283 C   0  0  1  0  0  0  0  0  0  0  0  0
    6.9001  -16.2197   25.4317 O   0  0  0  0  0  0  0  0  0  0  0  0
    9.2516  -16.0321   25.2060 C   0  0  2  0  0  0  0  0  0  0  0  0
    9.1684  -16.8287   23.9828 N   0  0  0  0  0  0  0  0  0  0  0  0
    9.5740  -16.8902   26.3749 C   0  0  0  0  0  0  0  0  0  0  0  0
    9.8128  -16.3613   27.6337 O   0  0  0  0  0  0  0  0  0  0  0  0
    9.6420  -18.1410   26.2610 O   0  0  0  0  0  0  0  0  0  0  0  0
  2  1  1  6
  2  4  1  0
  2  3  1  0
  4  5  1  6
  6  7  2  0
  6  4  1  0
  8  6  1  0
  9 10  1  6
  9  8  1  0
 11 10  1  0
 11 12  1  0
 13 14  1  0
 13 12  1  0
 15  9  1  0
 16 15  2  0
 18 19  1  0
 18 20  1  0
 18 17  1  6
 20 21  1  6
 21 15  1  0
 22 23  1  0
 22 20  1  0
 24 22  2  0
M  END
$$$$
