VKT.pdb
     RDKit          3D

 24 23  0  0  1  0  0  0  0  0999 V2000
    7.0428  -13.0195   21.1510 C   0  0  0  0  0  0  0  0  0  0  0  0
    8.3315  -13.1359   20.3710 C   0  0  2  0  0  0  0  0  0  0  0  0
    8.1572  -12.3899   19.0828 C   0  0  0  0  0  0  0  0  0  0  0  0
    8.5734  -14.6106   20.0850 C   0  0  2  0  0  0  0  0  0  0  0  0
    7.5206  -15.1094   19.2033 N   0  0  0  0  0  0  0  0  0  0  0  0
    8.5660  -15.3840   21.3709 C   0  0  0  0  0  0  0  0  0  0  0  0
    7.4114  -15.7094   21.7947 O   0  0  0  0  0  0  0  0  0  0  0  0
    9.7457  -15.7229   22.0551 N   0  0  0  0  0  0  0  0  0  0  0  0
    9.7084  -16.4819   23.3159 C   0  0  1  0  0  0  0  0  0  0  0  0
   10.7133  -17.5872   23.2386 C   0  0  0  0  0  0  0  0  0  0  0  0
   10.4388  -18.6262   22.2043 C   0  0  0  0  0  0  0  0  0  0  0  0
   11.5886  -19.6589   22.1610 C   0  0  0  0  0  0  0  0  0  0  0  0
   11.3653  -20.6222   21.0171 C   0  0  0  0  0  0  0  0  0  0  0  0
   12.4110  -21.6285   21.0470 N   0  0  0  0  0  0  0  0  0  0  0  0
    9.8712  -15.5295   24.4069 C   0  0  0  0  0  0  0  0  0  0  0  0
   10.7458  -14.5979   24.2825 O   0  0  0  0  0  0  0  0  0  0  0  0
    7.9837  -12.6791   25.6662 C   0  0  0  0  0  0  0  0  0  0  0  0
    8.1740  -13.6231   26.8072 C   0  0  1  0  0  0  0  0  0  0  0  0
    7.0668  -14.4287   27.0433 O   0  0  0  0  0  0  0  0  0  0  0  0
    9.4026  -14.4719   26.6458 C   0  0  2  0  0  0  0  0  0  0  0  0
    9.1632  -15.4934   25.6277 N   0  0  0  0  0  0  0  0  0  0  0  0
    9.7749  -15.0943   27.9422 C   0  0  0  0  0  0  0  0  0  0  0  0
   10.1923  -14.3411   29.0283 O   0  0  0  0  0  0  0  0  0  0  0  0
    9.7236  -16.3411   28.1004 O   0  0  0  0  0  0  0  0  0  0  0  0
  2  1  1  1
  2  4  1  0
  2  3  1  0
  4  5  1  6
  6  7  2  0
  6  4  1  0
  8  6  1  0
  9 10  1  6
  9  8  1  0
 11 10  1  0
 11 12  1  0
 13 14  1  0
 13 12  1  0
 15  9  1  0
 16 15  2  0
 18 19  1  0
 18 20  1  0
 18 17  1  6
 20 21  1  6
 21 15  1  0
 22 23  1  0
 22 20  1  0
 24 22  2  0
M  END
$$$$
