VKT.pdb
     RDKit          3D

 24 23  0  0  1  0  0  0  0  0999 V2000
   17.4714  -20.8526   15.0512 C   0  0  0  0  0  0  0  0  0  0  0  0
   16.4381  -20.9382   16.1501 C   0  0  2  0  0  0  0  0  0  0  0  0
   16.4429  -22.3417   16.6762 C   0  0  0  0  0  0  0  0  0  0  0  0
   15.0805  -20.6197   15.5413 C   0  0  2  0  0  0  0  0  0  0  0  0
   15.1041  -19.2657   14.9931 N   0  0  0  0  0  0  0  0  0  0  0  0
   14.0166  -20.7214   16.5946 C   0  0  0  0  0  0  0  0  0  0  0  0
   13.9297  -19.7152   17.3684 O   0  0  0  0  0  0  0  0  0  0  0  0
   13.1796  -21.8435   16.7166 N   0  0  0  0  0  0  0  0  0  0  0  0
   12.0927  -21.8837   17.7086 C   0  0  1  0  0  0  0  0  0  0  0  0
   10.8084  -22.1746   16.9991 C   0  0  0  0  0  0  0  0  0  0  0  0
    9.6024  -22.2567   17.8730 C   0  0  0  0  0  0  0  0  0  0  0  0
    8.3337  -22.4827   17.0189 C   0  0  0  0  0  0  0  0  0  0  0  0
    7.1347  -22.6561   17.9237 C   0  0  0  0  0  0  0  0  0  0  0  0
    5.9776  -22.9703   17.1056 N   0  0  0  0  0  0  0  0  0  0  0  0
   12.4858  -22.8205   18.7534 C   0  0  0  0  0  0  0  0  0  0  0  0
   13.0709  -23.9109   18.4111 O   0  0  0  0  0  0  0  0  0  0  0  0
   13.4399  -21.8144   22.6067 C   0  0  0  0  0  0  0  0  0  0  0  0
   13.8549  -23.0944   21.9598 C   0  0  1  0  0  0  0  0  0  0  0  0
   14.3120  -24.0439   22.8655 O   0  0  0  0  0  0  0  0  0  0  0  0
   12.7672  -23.6801   21.1056 C   0  0  2  0  0  0  0  0  0  0  0  0
   12.3039  -22.6790   20.1461 N   0  0  0  0  0  0  0  0  0  0  0  0
   11.6454  -24.1592   21.9533 C   0  0  0  0  0  0  0  0  0  0  0  0
   11.7116  -25.3503   22.6591 O   0  0  0  0  0  0  0  0  0  0  0  0
   10.5843  -23.4923   22.0608 O   0  0  0  0  0  0  0  0  0  0  0  0
  2  1  1  6
  2  4  1  0
  2  3  1  0
  4  5  1  1
  6  7  2  0
  6  4  1  0
  8  6  1  0
  9 10  1  6
  9  8  1  0
 11 10  1  0
 11 12  1  0
 13 14  1  0
 13 12  1  0
 15  9  1  0
 16 15  2  0
 18 19  1  0
 18 20  1  0
 18 17  1  1
 20 21  1  6
 21 15  1  0
 22 23  1  0
 22 20  1  0
 24 22  2  0
M  END
$$$$
