VKT.pdb
     RDKit          3D

 24 23  0  0  1  0  0  0  0  0999 V2000
    7.3457  -12.7698   19.0853 C   0  0  0  0  0  0  0  0  0  0  0  0
    7.6496  -13.4449   20.4023 C   0  0  2  0  0  0  0  0  0  0  0  0
    8.7542  -12.6795   21.0661 C   0  0  0  0  0  0  0  0  0  0  0  0
    8.1110  -14.8639   20.1049 C   0  0  2  0  0  0  0  0  0  0  0  0
    7.1175  -15.5273   19.2639 N   0  0  0  0  0  0  0  0  0  0  0  0
    8.2758  -15.6226   21.3890 C   0  0  0  0  0  0  0  0  0  0  0  0
    7.1884  -15.9836   21.9423 O   0  0  0  0  0  0  0  0  0  0  0  0
    9.5362  -15.9123   21.9386 N   0  0  0  0  0  0  0  0  0  0  0  0
    9.6700  -16.7091   23.1692 C   0  0  1  0  0  0  0  0  0  0  0  0
   10.7627  -17.7117   22.9732 C   0  0  0  0  0  0  0  0  0  0  0  0
   11.1121  -18.5168   24.1791 C   0  0  0  0  0  0  0  0  0  0  0  0
   12.2117  -19.5485   23.8369 C   0  0  0  0  0  0  0  0  0  0  0  0
   12.4518  -20.4505   25.0264 C   0  0  0  0  0  0  0  0  0  0  0  0
   13.5502  -21.3468   24.7148 N   0  0  0  0  0  0  0  0  0  0  0  0
    9.8316  -15.7791   24.2794 C   0  0  0  0  0  0  0  0  0  0  0  0
   10.5965  -14.7603   24.1198 O   0  0  0  0  0  0  0  0  0  0  0  0
    8.5533  -13.0620   27.9858 C   0  0  0  0  0  0  0  0  0  0  0  0
    8.3389  -14.0139   26.8558 C   0  0  1  0  0  0  0  0  0  0  0  0
    7.9713  -13.3864   25.6718 O   0  0  0  0  0  0  0  0  0  0  0  0
    9.5305  -14.8976   26.6211 C   0  0  2  0  0  0  0  0  0  0  0  0
    9.2312  -15.8523   25.5549 N   0  0  0  0  0  0  0  0  0  0  0  0
    9.9053  -15.6036   27.8731 C   0  0  0  0  0  0  0  0  0  0  0  0
   10.4583  -14.9389   28.9566 O   0  0  0  0  0  0  0  0  0  0  0  0
    9.7317  -16.8435   27.9944 O   0  0  0  0  0  0  0  0  0  0  0  0
  2  1  1  6
  2  4  1  0
  2  3  1  0
  4  5  1  6
  6  7  2  0
  6  4  1  0
  8  6  1  0
  9 10  1  6
  9  8  1  0
 11 10  1  0
 11 12  1  0
 13 14  1  0
 13 12  1  0
 15  9  1  0
 16 15  2  0
 18 19  1  0
 18 20  1  0
 18 17  1  1
 20 21  1  6
 21 15  1  0
 22 23  1  0
 22 20  1  0
 24 22  2  0
M  END
$$$$
