VKT.pdb
     RDKit          3D

 24 23  0  0  1  0  0  0  0  0999 V2000
    8.2876  -12.8090   17.4186 C   0  0  0  0  0  0  0  0  0  0  0  0
    8.6787  -13.7785   18.5095 C   0  0  2  0  0  0  0  0  0  0  0  0
    9.5161  -14.8551   17.8880 C   0  0  0  0  0  0  0  0  0  0  0  0
    7.4030  -14.3808   19.0793 C   0  0  2  0  0  0  0  0  0  0  0  0
    6.5832  -13.3173   19.6548 N   0  0  0  0  0  0  0  0  0  0  0  0
    7.7467  -15.3856   20.1394 C   0  0  0  0  0  0  0  0  0  0  0  0
    8.0082  -14.8916   21.2824 O   0  0  0  0  0  0  0  0  0  0  0  0
    7.7774  -16.7679   19.8883 N   0  0  0  0  0  0  0  0  0  0  0  0
    8.2306  -17.7224   20.9133 C   0  0  1  0  0  0  0  0  0  0  0  0
    7.7429  -19.0875   20.5444 C   0  0  0  0  0  0  0  0  0  0  0  0
    8.2169  -20.1930   21.4264 C   0  0  0  0  0  0  0  0  0  0  0  0
    7.6368  -21.5455   20.9524 C   0  0  0  0  0  0  0  0  0  0  0  0
    8.6297  -22.2354   20.0444 C   0  0  0  0  0  0  0  0  0  0  0  0
    8.0743  -23.5123   19.6346 N   0  0  0  0  0  0  0  0  0  0  0  0
    9.6721  -17.5627   21.0557 C   0  0  0  0  0  0  0  0  0  0  0  0
   10.4018  -17.6113   20.0004 O   0  0  0  0  0  0  0  0  0  0  0  0
   11.7032  -14.9864   21.1944 C   0  0  0  0  0  0  0  0  0  0  0  0
   12.2361  -15.7739   22.3455 C   0  0  1  0  0  0  0  0  0  0  0  0
   11.8746  -15.2522   23.5815 O   0  0  0  0  0  0  0  0  0  0  0  0
   11.8552  -17.2248   22.2684 C   0  0  2  0  0  0  0  0  0  0  0  0
   10.3987  -17.3495   22.2470 N   0  0  0  0  0  0  0  0  0  0  0  0
   12.4332  -17.9727   23.4143 C   0  0  0  0  0  0  0  0  0  0  0  0
   11.6403  -18.5348   24.4026 O   0  0  0  0  0  0  0  0  0  0  0  0
   13.6768  -18.1233   23.5283 O   0  0  0  0  0  0  0  0  0  0  0  0
  2  1  1  6
  2  4  1  0
  2  3  1  0
  4  5  1  1
  6  7  2  0
  6  4  1  0
  8  6  1  0
  9 10  1  6
  9  8  1  0
 11 10  1  0
 11 12  1  0
 13 14  1  0
 13 12  1  0
 15  9  1  0
 16 15  2  0
 18 19  1  0
 18 20  1  0
 18 17  1  6
 20 21  1  1
 21 15  1  0
 22 23  1  0
 22 20  1  0
 24 22  2  0
M  END
$$$$
