VFF.pdb
     RDKit          3D

 30 31  0  0  1  0  0  0  0  0999 V2000
    9.6916  -19.7268   20.8772 C   0  0  0  0  0  0  0  0  0  0  0  0
   10.4665  -19.0814   19.7403 C   0  0  1  0  0  0  0  0  0  0  0  0
   10.3632  -19.9683   18.5212 C   0  0  0  0  0  0  0  0  0  0  0  0
    9.8419  -17.7239   19.5056 C   0  0  2  0  0  0  0  0  0  0  0  0
   10.4193  -17.0640   18.3586 N   0  0  0  0  0  0  0  0  0  0  0  0
    9.8853  -16.8550   20.7132 C   0  0  0  0  0  0  0  0  0  0  0  0
   10.9933  -16.3770   21.1318 O   0  0  0  0  0  0  0  0  0  0  0  0
    8.6999  -16.5344   21.4292 N   0  0  0  0  0  0  0  0  0  0  0  0
    8.6951  -15.7298   22.6280 C   0  0  1  0  0  0  0  0  0  0  0  0
    7.2715  -15.2332   22.7866 C   0  0  0  0  0  0  0  0  0  0  0  0
    7.0833  -14.3631   23.9719 C   0  0  0  0  0  0  0  0  0  0  0  0
    7.5087  -13.0512   24.0087 C   0  0  0  0  0  0  0  0  0  0  0  0
    7.3220  -12.2496   25.1242 C   0  0  0  0  0  0  0  0  0  0  0  0
    6.6978  -12.7324   26.2552 C   0  0  0  0  0  0  0  0  0  0  0  0
    6.2697  -14.0430   26.2263 C   0  0  0  0  0  0  0  0  0  0  0  0
    6.4564  -14.8396   25.1150 C   0  0  0  0  0  0  0  0  0  0  0  0
    9.1600  -16.5422   23.7563 C   0  0  0  0  0  0  0  0  0  0  0  0
    8.6805  -17.6805   23.9324 O   0  0  0  0  0  0  0  0  0  0  0  0
   10.1388  -16.0654   24.6482 N   0  0  0  0  0  0  0  0  0  0  0  0
   10.7383  -16.9684   25.6432 C   0  0  1  0  0  0  0  0  0  0  0  0
   11.7583  -16.2446   26.4685 C   0  0  0  0  0  0  0  0  0  0  0  0
   11.1543  -15.3543   27.4783 C   0  0  0  0  0  0  0  0  0  0  0  0
   10.7503  -14.0894   27.1096 C   0  0  0  0  0  0  0  0  0  0  0  0
   10.1715  -13.2339   28.0196 C   0  0  0  0  0  0  0  0  0  0  0  0
    9.9867  -13.6403   29.3319 C   0  0  0  0  0  0  0  0  0  0  0  0
   10.3835  -14.8944   29.7115 C   0  0  0  0  0  0  0  0  0  0  0  0
   10.9629  -15.7397   28.7841 C   0  0  0  0  0  0  0  0  0  0  0  0
    9.6994  -17.6624   26.4184 C   0  0  0  0  0  0  0  0  0  0  0  0
    8.3810  -17.3146   26.3131 O   0  0  0  0  0  0  0  0  0  0  0  0
   10.0091  -18.5937   27.1962 O   0  0  0  0  0  0  0  0  0  0  0  0
  2  1  1  1
  2  3  1  0
  4  2  1  0
  4  5  1  6
  6  7  2  0
  6  4  1  0
  8  6  1  0
  9  8  1  0
 10 11  1  0
  9 10  1  1
 11 12  2  0
 11 16  1  0
 12 13  1  0
 13 14  2  0
 15 14  1  0
 16 15  2  0
 17  9  1  0
 17 18  2  0
 19 17  1  0
 20 19  1  0
 20 21  1  1
 22 21  1  0
 22 23  2  0
 24 23  1  0
 25 24  2  0
 26 27  2  0
 26 25  1  0
 27 22  1  0
 28 20  1  0
 29 28  1  0
 30 28  2  0
M  END
$$$$
