VFF.pdb
     RDKit          3D

 30 31  0  0  1  0  0  0  0  0999 V2000
    8.1918  -22.5451   21.2414 C   0  0  0  0  0  0  0  0  0  0  0  0
    8.6555  -21.1390   21.5837 C   0  0  1  0  0  0  0  0  0  0  0  0
   10.1564  -21.1549   21.7591 C   0  0  0  0  0  0  0  0  0  0  0  0
    8.2305  -20.2507   20.4356 C   0  0  2  0  0  0  0  0  0  0  0  0
    8.7343  -20.7364   19.1727 N   0  0  0  0  0  0  0  0  0  0  0  0
    8.5877  -18.8221   20.6516 C   0  0  0  0  0  0  0  0  0  0  0  0
    9.6655  -18.3398   20.1648 O   0  0  0  0  0  0  0  0  0  0  0  0
    7.7421  -17.9598   21.4012 N   0  0  0  0  0  0  0  0  0  0  0  0
    8.0816  -16.5898   21.7049 C   0  0  1  0  0  0  0  0  0  0  0  0
    6.8662  -15.7683   21.3220 C   0  0  0  0  0  0  0  0  0  0  0  0
    7.0887  -14.3068   21.4317 C   0  0  0  0  0  0  0  0  0  0  0  0
    7.5779  -13.5470   20.3893 C   0  0  0  0  0  0  0  0  0  0  0  0
    7.7772  -12.1801   20.5072 C   0  0  0  0  0  0  0  0  0  0  0  0
    7.4929  -11.5149   21.6813 C   0  0  0  0  0  0  0  0  0  0  0  0
    7.0037  -12.2675   22.7281 C   0  0  0  0  0  0  0  0  0  0  0  0
    6.8058  -13.6281   22.6090 C   0  0  0  0  0  0  0  0  0  0  0  0
    8.4358  -16.4834   23.1234 C   0  0  0  0  0  0  0  0  0  0  0  0
    7.7504  -17.0854   23.9746 O   0  0  0  0  0  0  0  0  0  0  0  0
    9.5358  -15.7149   23.5481 N   0  0  0  0  0  0  0  0  0  0  0  0
    9.8693  -15.6247   24.9784 C   0  0  1  0  0  0  0  0  0  0  0  0
    8.6241  -15.5506   25.8087 C   0  0  0  0  0  0  0  0  0  0  0  0
    8.0274  -14.2013   25.8313 C   0  0  0  0  0  0  0  0  0  0  0  0
    6.6623  -14.0634   25.7037 C   0  0  0  0  0  0  0  0  0  0  0  0
    6.0668  -12.8227   25.7323 C   0  0  0  0  0  0  0  0  0  0  0  0
    6.8430  -11.6853   25.8917 C   0  0  0  0  0  0  0  0  0  0  0  0
    8.2005  -11.8081   26.0197 C   0  0  0  0  0  0  0  0  0  0  0  0
    8.7809  -13.0621   25.9886 C   0  0  0  0  0  0  0  0  0  0  0  0
   10.8071  -16.6877   25.3688 C   0  0  0  0  0  0  0  0  0  0  0  0
   11.3382  -16.7413   26.6279 O   0  0  0  0  0  0  0  0  0  0  0  0
   11.1379  -17.5710   24.5450 O   0  0  0  0  0  0  0  0  0  0  0  0
  2  1  1  6
  2  3  1  0
  4  2  1  0
  4  5  1  6
  6  7  2  0
  6  4  1  0
  8  6  1  0
  9  8  1  0
 10 11  1  0
  9 10  1  1
 11 12  2  0
 11 16  1  0
 12 13  1  0
 13 14  2  0
 15 14  1  0
 16 15  2  0
 17  9  1  0
 17 18  2  0
 19 17  1  0
 20 19  1  0
 20 21  1  1
 22 21  1  0
 22 23  2  0
 24 23  1  0
 25 24  2  0
 26 27  2  0
 26 25  1  0
 27 22  1  0
 28 20  1  0
 29 28  1  0
 30 28  2  0
M  END
$$$$
