VFF.pdb
     RDKit          3D

 30 31  0  0  1  0  0  0  0  0999 V2000
    9.3748  -18.7856   16.8489 C   0  0  0  0  0  0  0  0  0  0  0  0
    9.4002  -17.5784   17.7717 C   0  0  1  0  0  0  0  0  0  0  0  0
    8.1069  -16.8149   17.6033 C   0  0  0  0  0  0  0  0  0  0  0  0
    9.5624  -18.1111   19.1781 C   0  0  2  0  0  0  0  0  0  0  0  0
    8.5384  -19.0757   19.5029 N   0  0  0  0  0  0  0  0  0  0  0  0
    9.6348  -17.0291   20.1975 C   0  0  0  0  0  0  0  0  0  0  0  0
   10.5841  -16.1750   20.1740 O   0  0  0  0  0  0  0  0  0  0  0  0
    8.6532  -16.9173   21.2195 N   0  0  0  0  0  0  0  0  0  0  0  0
    8.7047  -15.9148   22.2572 C   0  0  1  0  0  0  0  0  0  0  0  0
    7.2627  -15.5532   22.5544 C   0  0  0  0  0  0  0  0  0  0  0  0
    7.1203  -14.5668   23.6518 C   0  0  0  0  0  0  0  0  0  0  0  0
    7.4575  -13.2369   23.5071 C   0  0  0  0  0  0  0  0  0  0  0  0
    7.3151  -12.3263   24.5426 C   0  0  0  0  0  0  0  0  0  0  0  0
    6.8264  -12.7133   25.7728 C   0  0  0  0  0  0  0  0  0  0  0  0
    6.4873  -14.0412   25.9255 C   0  0  0  0  0  0  0  0  0  0  0  0
    6.6296  -14.9463   24.8935 C   0  0  0  0  0  0  0  0  0  0  0  0
    9.4225  -16.4555   23.4154 C   0  0  0  0  0  0  0  0  0  0  0  0
    9.1299  -17.5899   23.8447 O   0  0  0  0  0  0  0  0  0  0  0  0
   10.4380  -15.7212   24.0560 N   0  0  0  0  0  0  0  0  0  0  0  0
   10.6430  -15.8497   25.5074 C   0  0  1  0  0  0  0  0  0  0  0  0
   10.3997  -14.5403   26.1943 C   0  0  0  0  0  0  0  0  0  0  0  0
   10.5162  -14.6307   27.6624 C   0  0  0  0  0  0  0  0  0  0  0  0
    9.6721  -13.8835   28.4550 C   0  0  0  0  0  0  0  0  0  0  0  0
    9.7415  -13.9497   29.8282 C   0  0  0  0  0  0  0  0  0  0  0  0
   10.6720  -14.7784   30.4356 C   0  0  0  0  0  0  0  0  0  0  0  0
   11.5166  -15.5263   29.6599 C   0  0  0  0  0  0  0  0  0  0  0  0
   11.4325  -15.4468   28.2826 C   0  0  0  0  0  0  0  0  0  0  0  0
    9.8763  -16.9810   26.0497 C   0  0  0  0  0  0  0  0  0  0  0  0
   10.4721  -17.9398   26.8218 O   0  0  0  0  0  0  0  0  0  0  0  0
    8.6515  -17.0855   25.8103 O   0  0  0  0  0  0  0  0  0  0  0  0
  2  1  1  6
  2  3  1  0
  4  2  1  0
  4  5  1  1
  6  7  2  0
  6  4  1  0
  8  6  1  0
  9  8  1  0
 10 11  1  0
  9 10  1  1
 11 12  2  0
 11 16  1  0
 12 13  1  0
 13 14  2  0
 15 14  1  0
 16 15  2  0
 17  9  1  0
 17 18  2  0
 19 17  1  0
 20 19  1  0
 20 21  1  1
 22 21  1  0
 22 23  2  0
 24 23  1  0
 25 24  2  0
 26 27  2  0
 26 25  1  0
 27 22  1  0
 28 20  1  0
 29 28  1  0
 30 28  2  0
M  END
$$$$
