VFF.pdb
     RDKit          3D

 30 31  0  0  1  0  0  0  0  0999 V2000
    9.8596  -20.9145   19.2026 C   0  0  0  0  0  0  0  0  0  0  0  0
   10.1087  -19.8941   20.3010 C   0  0  1  0  0  0  0  0  0  0  0  0
   11.5940  -19.8292   20.5717 C   0  0  0  0  0  0  0  0  0  0  0  0
    9.5682  -18.5743   19.7973 C   0  0  2  0  0  0  0  0  0  0  0  0
   10.2026  -18.1760   18.5629 N   0  0  0  0  0  0  0  0  0  0  0  0
    9.6413  -17.4955   20.8202 C   0  0  0  0  0  0  0  0  0  0  0  0
   10.6499  -16.7137   20.8707 O   0  0  0  0  0  0  0  0  0  0  0  0
    8.5947  -17.3068   21.7633 N   0  0  0  0  0  0  0  0  0  0  0  0
    8.6097  -16.2632   22.7608 C   0  0  1  0  0  0  0  0  0  0  0  0
    7.1567  -15.9119   23.0133 C   0  0  0  0  0  0  0  0  0  0  0  0
    6.9797  -14.8415   24.0234 C   0  0  0  0  0  0  0  0  0  0  0  0
    6.4195  -15.0716   25.2630 C   0  0  0  0  0  0  0  0  0  0  0  0
    6.2641  -14.0599   26.1979 C   0  0  0  0  0  0  0  0  0  0  0  0
    6.6659  -12.7686   25.9275 C   0  0  0  0  0  0  0  0  0  0  0  0
    7.2267  -12.5305   24.6904 C   0  0  0  0  0  0  0  0  0  0  0  0
    7.3808  -13.5388   23.7609 C   0  0  0  0  0  0  0  0  0  0  0  0
    9.3102  -16.7465   23.9545 C   0  0  0  0  0  0  0  0  0  0  0  0
    9.0002  -17.8518   24.4433 O   0  0  0  0  0  0  0  0  0  0  0  0
   10.3284  -15.9892   24.5633 N   0  0  0  0  0  0  0  0  0  0  0  0
   11.1956  -16.5979   25.5842 C   0  0  1  0  0  0  0  0  0  0  0  0
   11.9207  -15.5414   26.3611 C   0  0  0  0  0  0  0  0  0  0  0  0
   11.0930  -14.9389   27.4237 C   0  0  0  0  0  0  0  0  0  0  0  0
   10.2177  -13.9235   27.1051 C   0  0  0  0  0  0  0  0  0  0  0  0
    9.4198  -13.3444   28.0658 C   0  0  0  0  0  0  0  0  0  0  0  0
    9.4890  -13.7816   29.3794 C   0  0  0  0  0  0  0  0  0  0  0  0
   10.3544  -14.7898   29.7095 C   0  0  0  0  0  0  0  0  0  0  0  0
   11.1479  -15.3593   28.7316 C   0  0  0  0  0  0  0  0  0  0  0  0
   10.4471  -17.5608   26.4053 C   0  0  0  0  0  0  0  0  0  0  0  0
    9.0811  -17.6176   26.3682 O   0  0  0  0  0  0  0  0  0  0  0  0
   11.0555  -18.3533   27.1602 O   0  0  0  0  0  0  0  0  0  0  0  0
  2  1  1  6
  2  3  1  0
  4  2  1  0
  4  5  1  6
  6  7  2  0
  6  4  1  0
  8  6  1  0
  9  8  1  0
 10 11  1  0
  9 10  1  1
 11 12  2  0
 11 16  1  0
 12 13  1  0
 13 14  2  0
 15 14  1  0
 16 15  2  0
 17  9  1  0
 17 18  2  0
 19 17  1  0
 20 19  1  0
 20 21  1  1
 22 21  1  0
 22 23  2  0
 24 23  1  0
 25 24  2  0
 26 27  2  0
 26 25  1  0
 27 22  1  0
 28 20  1  0
 29 28  1  0
 30 28  2  0
M  END
$$$$
