VFF.pdb
     RDKit          3D

 30 31  0  0  1  0  0  0  0  0999 V2000
    9.0224  -21.9570   21.5241 C   0  0  0  0  0  0  0  0  0  0  0  0
    9.3778  -20.5627   22.0133 C   0  0  1  0  0  0  0  0  0  0  0  0
   10.8405  -20.3100   21.7300 C   0  0  0  0  0  0  0  0  0  0  0  0
    8.4831  -19.5996   21.2652 C   0  0  2  0  0  0  0  0  0  0  0  0
    8.6314  -19.7370   19.8356 N   0  0  0  0  0  0  0  0  0  0  0  0
    8.6685  -18.1880   21.6990 C   0  0  0  0  0  0  0  0  0  0  0  0
    9.5402  -17.4432   21.1362 O   0  0  0  0  0  0  0  0  0  0  0  0
    7.8832  -17.6331   22.7459 N   0  0  0  0  0  0  0  0  0  0  0  0
    8.0391  -16.2769   23.2157 C   0  0  1  0  0  0  0  0  0  0  0  0
    6.9340  -16.0617   24.2310 C   0  0  0  0  0  0  0  0  0  0  0  0
    6.9812  -14.7270   24.8743 C   0  0  0  0  0  0  0  0  0  0  0  0
    7.4816  -13.6100   24.2378 C   0  0  0  0  0  0  0  0  0  0  0  0
    7.5156  -12.3679   24.8524 C   0  0  0  0  0  0  0  0  0  0  0  0
    7.0469  -12.1931   26.1376 C   0  0  0  0  0  0  0  0  0  0  0  0
    6.5452  -13.3050   26.7807 C   0  0  0  0  0  0  0  0  0  0  0  0
    6.5120  -14.5407   26.1673 C   0  0  0  0  0  0  0  0  0  0  0  0
    9.3850  -16.1106   23.7725 C   0  0  0  0  0  0  0  0  0  0  0  0
   10.1534  -15.2607   23.2788 O   0  0  0  0  0  0  0  0  0  0  0  0
    9.8311  -16.8908   24.8556 N   0  0  0  0  0  0  0  0  0  0  0  0
   11.1684  -16.6692   25.4279 C   0  0  1  0  0  0  0  0  0  0  0  0
   11.3718  -15.2206   25.7528 C   0  0  0  0  0  0  0  0  0  0  0  0
   10.7244  -14.8181   27.0161 C   0  0  0  0  0  0  0  0  0  0  0  0
   10.8375  -15.6312   28.1229 C   0  0  0  0  0  0  0  0  0  0  0  0
   10.2583  -15.2844   29.3226 C   0  0  0  0  0  0  0  0  0  0  0  0
    9.5469  -14.0998   29.4315 C   0  0  0  0  0  0  0  0  0  0  0  0
    9.4269  -13.2827   28.3396 C   0  0  0  0  0  0  0  0  0  0  0  0
   10.0151  -13.6472   27.1432 C   0  0  0  0  0  0  0  0  0  0  0  0
   11.4234  -17.5919   26.5439 C   0  0  0  0  0  0  0  0  0  0  0  0
   10.4386  -18.4035   27.0358 O   0  0  0  0  0  0  0  0  0  0  0  0
   12.5595  -17.6498   27.0676 O   0  0  0  0  0  0  0  0  0  0  0  0
  2  1  1  6
  2  3  1  0
  4  2  1  0
  4  5  1  6
  6  7  2  0
  6  4  1  0
  8  6  1  0
  9  8  1  0
 10 11  1  0
  9 10  1  1
 11 12  2  0
 11 16  1  0
 12 13  1  0
 13 14  2  0
 15 14  1  0
 16 15  2  0
 17  9  1  0
 17 18  2  0
 19 17  1  0
 20 19  1  0
 20 21  1  1
 22 21  1  0
 22 23  2  0
 24 23  1  0
 25 24  2  0
 26 27  2  0
 26 25  1  0
 27 22  1  0
 28 20  1  0
 29 28  1  0
 30 28  2  0
M  END
$$$$
