VFF.pdb
     RDKit          3D

 30 31  0  0  1  0  0  0  0  0999 V2000
   11.1920  -16.8795   19.0916 C   0  0  0  0  0  0  0  0  0  0  0  0
    9.6851  -17.0408   18.9780 C   0  0  1  0  0  0  0  0  0  0  0  0
    9.3866  -18.0107   17.8582 C   0  0  0  0  0  0  0  0  0  0  0  0
    9.2022  -17.5564   20.3154 C   0  0  2  0  0  0  0  0  0  0  0  0
    7.8330  -18.0095   20.2478 N   0  0  0  0  0  0  0  0  0  0  0  0
    9.3968  -16.5723   21.4149 C   0  0  0  0  0  0  0  0  0  0  0  0
   10.5392  -16.0375   21.6151 O   0  0  0  0  0  0  0  0  0  0  0  0
    8.3210  -16.2022   22.2671 N   0  0  0  0  0  0  0  0  0  0  0  0
    8.4834  -15.3424   23.4154 C   0  0  1  0  0  0  0  0  0  0  0  0
    7.1407  -14.6691   23.6207 C   0  0  0  0  0  0  0  0  0  0  0  0
    7.1270  -13.7263   24.7646 C   0  0  0  0  0  0  0  0  0  0  0  0
    7.6233  -12.4420   24.6781 C   0  0  0  0  0  0  0  0  0  0  0  0
    7.5999  -11.5714   25.7567 C   0  0  0  0  0  0  0  0  0  0  0  0
    7.0753  -11.9543   26.9733 C   0  0  0  0  0  0  0  0  0  0  0  0
    6.5773  -13.2367   27.0679 C   0  0  0  0  0  0  0  0  0  0  0  0
    6.6013  -14.1021   25.9932 C   0  0  0  0  0  0  0  0  0  0  0  0
    8.9159  -16.1460   24.5627 C   0  0  0  0  0  0  0  0  0  0  0  0
    8.3082  -17.2002   24.8383 O   0  0  0  0  0  0  0  0  0  0  0  0
   10.0055  -15.7538   25.3627 N   0  0  0  0  0  0  0  0  0  0  0  0
   10.4541  -16.6069   26.4744 C   0  0  1  0  0  0  0  0  0  0  0  0
   11.8700  -17.0499   26.2638 C   0  0  0  0  0  0  0  0  0  0  0  0
   12.0637  -17.7709   24.9912 C   0  0  0  0  0  0  0  0  0  0  0  0
   11.6626  -19.0854   24.8908 C   0  0  0  0  0  0  0  0  0  0  0  0
   11.8151  -19.7882   23.7170 C   0  0  0  0  0  0  0  0  0  0  0  0
   12.3804  -19.1740   22.6104 C   0  0  0  0  0  0  0  0  0  0  0  0
   12.7832  -17.8683   22.6965 C   0  0  0  0  0  0  0  0  0  0  0  0
   12.6223  -17.1785   23.8832 C   0  0  0  0  0  0  0  0  0  0  0  0
   10.1974  -15.9616   27.7704 C   0  0  0  0  0  0  0  0  0  0  0  0
    9.6764  -14.6994   27.8465 O   0  0  0  0  0  0  0  0  0  0  0  0
   10.4547  -16.5647   28.8374 O   0  0  0  0  0  0  0  0  0  0  0  0
  2  1  1  1
  2  3  1  0
  4  2  1  0
  4  5  1  6
  6  7  2  0
  6  4  1  0
  8  6  1  0
  9  8  1  0
 10 11  1  0
  9 10  1  1
 11 12  2  0
 11 16  1  0
 12 13  1  0
 13 14  2  0
 15 14  1  0
 16 15  2  0
 17  9  1  0
 17 18  2  0
 19 17  1  0
 20 19  1  0
 20 21  1  6
 22 21  1  0
 22 23  2  0
 24 23  1  0
 25 24  2  0
 26 27  2  0
 26 25  1  0
 27 22  1  0
 28 20  1  0
 29 28  1  0
 30 28  2  0
M  END
$$$$
