VFF.pdb
     RDKit          3D

 30 31  0  0  1  0  0  0  0  0999 V2000
    9.5840  -19.8224   20.6215 C   0  0  0  0  0  0  0  0  0  0  0  0
   10.3818  -19.0237   19.6041 C   0  0  1  0  0  0  0  0  0  0  0  0
   10.3525  -19.7580   18.2836 C   0  0  0  0  0  0  0  0  0  0  0  0
    9.7255  -17.6643   19.5090 C   0  0  2  0  0  0  0  0  0  0  0  0
   10.2681  -16.8867   18.4201 N   0  0  0  0  0  0  0  0  0  0  0  0
    9.7734  -16.9121   20.7924 C   0  0  0  0  0  0  0  0  0  0  0  0
   10.8791  -16.4526   21.2368 O   0  0  0  0  0  0  0  0  0  0  0  0
    8.5949  -16.6852   21.5540 N   0  0  0  0  0  0  0  0  0  0  0  0
    8.5729  -15.8831   22.7543 C   0  0  1  0  0  0  0  0  0  0  0  0
    7.1457  -15.3922   22.8973 C   0  0  0  0  0  0  0  0  0  0  0  0
    6.9234  -14.5857   24.1211 C   0  0  0  0  0  0  0  0  0  0  0  0
    6.2765  -15.0824   25.2338 C   0  0  0  0  0  0  0  0  0  0  0  0
    6.0795  -14.3159   26.3720 C   0  0  0  0  0  0  0  0  0  0  0  0
    6.5251  -13.0126   26.4422 C   0  0  0  0  0  0  0  0  0  0  0  0
    7.1727  -12.5088   25.3338 C   0  0  0  0  0  0  0  0  0  0  0  0
    7.3680  -13.2733   24.2016 C   0  0  0  0  0  0  0  0  0  0  0  0
    9.0277  -16.6960   23.8863 C   0  0  0  0  0  0  0  0  0  0  0  0
    8.4656  -17.7836   24.1267 O   0  0  0  0  0  0  0  0  0  0  0  0
   10.0882  -16.2757   24.7108 N   0  0  0  0  0  0  0  0  0  0  0  0
   10.5894  -17.1539   25.7796 C   0  0  1  0  0  0  0  0  0  0  0  0
   11.7646  -16.5306   26.4695 C   0  0  0  0  0  0  0  0  0  0  0  0
   11.3834  -15.4247   27.3687 C   0  0  0  0  0  0  0  0  0  0  0  0
   11.3231  -15.6478   28.7272 C   0  0  0  0  0  0  0  0  0  0  0  0
   10.9836  -14.6387   29.5997 C   0  0  0  0  0  0  0  0  0  0  0  0
   10.6953  -13.3722   29.1154 C   0  0  0  0  0  0  0  0  0  0  0  0
   10.7516  -13.1368   27.7679 C   0  0  0  0  0  0  0  0  0  0  0  0
   11.0943  -14.1623   26.9070 C   0  0  0  0  0  0  0  0  0  0  0  0
    9.4994  -17.5692   26.6748 C   0  0  0  0  0  0  0  0  0  0  0  0
    9.6527  -18.6111   27.5473 O   0  0  0  0  0  0  0  0  0  0  0  0
    8.4009  -16.9683   26.6521 O   0  0  0  0  0  0  0  0  0  0  0  0
  2  1  1  1
  2  3  1  0
  4  2  1  0
  4  5  1  6
  6  7  2  0
  6  4  1  0
  8  6  1  0
  9  8  1  0
 10 11  1  0
  9 10  1  1
 11 12  2  0
 11 16  1  0
 12 13  1  0
 13 14  2  0
 15 14  1  0
 16 15  2  0
 17  9  1  0
 17 18  2  0
 19 17  1  0
 20 19  1  0
 20 21  1  1
 22 21  1  0
 22 23  2  0
 24 23  1  0
 25 24  2  0
 26 27  2  0
 26 25  1  0
 27 22  1  0
 28 20  1  0
 29 28  1  0
 30 28  2  0
M  END
$$$$
