VFF.pdb
     RDKit          3D

 30 31  0  0  1  0  0  0  0  0999 V2000
   11.0964  -17.1520   17.9028 C   0  0  0  0  0  0  0  0  0  0  0  0
    9.6485  -17.6048   17.9912 C   0  0  1  0  0  0  0  0  0  0  0  0
    9.4440  -18.7576   17.0358 C   0  0  0  0  0  0  0  0  0  0  0  0
    9.4087  -18.0127   19.4279 C   0  0  2  0  0  0  0  0  0  0  0  0
    8.1583  -18.7186   19.5788 N   0  0  0  0  0  0  0  0  0  0  0  0
    9.5058  -16.8679   20.3741 C   0  0  0  0  0  0  0  0  0  0  0  0
   10.5150  -16.0856   20.3479 O   0  0  0  0  0  0  0  0  0  0  0  0
    8.4820  -16.6152   21.3273 N   0  0  0  0  0  0  0  0  0  0  0  0
    8.6146  -15.6470   22.3900 C   0  0  1  0  0  0  0  0  0  0  0  0
    7.2088  -15.1619   22.6847 C   0  0  0  0  0  0  0  0  0  0  0  0
    7.1373  -14.2440   23.8465 C   0  0  0  0  0  0  0  0  0  0  0  0
    7.6133  -12.9497   23.8043 C   0  0  0  0  0  0  0  0  0  0  0  0
    7.5358  -12.1027   24.8990 C   0  0  0  0  0  0  0  0  0  0  0  0
    6.9752  -12.5203   26.0878 C   0  0  0  0  0  0  0  0  0  0  0  0
    6.4973  -13.8129   26.1381 C   0  0  0  0  0  0  0  0  0  0  0  0
    6.5751  -14.6547   25.0473 C   0  0  0  0  0  0  0  0  0  0  0  0
    9.2679  -16.2792   23.5401 C   0  0  0  0  0  0  0  0  0  0  0  0
    8.6297  -17.0925   24.2386 O   0  0  0  0  0  0  0  0  0  0  0  0
   10.6037  -15.9885   23.8748 N   0  0  0  0  0  0  0  0  0  0  0  0
   11.0429  -16.0329   25.2784 C   0  0  1  0  0  0  0  0  0  0  0  0
    9.8658  -15.9729   26.2036 C   0  0  0  0  0  0  0  0  0  0  0  0
   10.1449  -15.2199   27.4414 C   0  0  0  0  0  0  0  0  0  0  0  0
   10.4547  -15.9064   28.5953 C   0  0  0  0  0  0  0  0  0  0  0  0
   10.7333  -15.2396   29.7669 C   0  0  0  0  0  0  0  0  0  0  0  0
   10.7049  -13.8541   29.7989 C   0  0  0  0  0  0  0  0  0  0  0  0
   10.3987  -13.1596   28.6595 C   0  0  0  0  0  0  0  0  0  0  0  0
   10.1216  -13.8461   27.4923 C   0  0  0  0  0  0  0  0  0  0  0  0
   11.9512  -17.1656   25.5106 C   0  0  0  0  0  0  0  0  0  0  0  0
   11.5460  -18.4560   25.3083 O   0  0  0  0  0  0  0  0  0  0  0  0
   13.1236  -16.9641   25.9018 O   0  0  0  0  0  0  0  0  0  0  0  0
  2  1  1  1
  2  3  1  0
  4  2  1  0
  4  5  1  6
  6  7  2  0
  6  4  1  0
  8  6  1  0
  9  8  1  0
 10 11  1  0
  9 10  1  1
 11 12  2  0
 11 16  1  0
 12 13  1  0
 13 14  2  0
 15 14  1  0
 16 15  2  0
 17  9  1  0
 17 18  2  0
 19 17  1  0
 20 19  1  0
 20 21  1  1
 22 21  1  0
 22 23  2  0
 24 23  1  0
 25 24  2  0
 26 27  2  0
 26 25  1  0
 27 22  1  0
 28 20  1  0
 29 28  1  0
 30 28  2  0
M  END
$$$$
