DNM.pdb
     RDKit          3D

 25 24  0  0  1  0  0  0  0  0999 V2000
    9.5686  -13.1192   18.9568 N   0  0  0  0  0  0  0  0  0  0  0  0
    8.2087  -13.4861   19.2440 C   0  0  1  0  0  0  0  0  0  0  0  0
    7.5284  -13.8537   17.9431 C   0  0  0  0  0  0  0  0  0  0  0  0
    8.4834  -13.9178   16.8223 C   0  0  0  0  0  0  0  0  0  0  0  0
    8.3390  -13.2310   15.7826 O   0  0  0  0  0  0  0  0  0  0  0  0
    8.1185  -14.6546   20.1531 C   0  0  0  0  0  0  0  0  0  0  0  0
    7.0024  -15.0405   20.5853 O   0  0  0  0  0  0  0  0  0  0  0  0
    9.5779  -14.7581   16.9080 O   0  0  0  0  0  0  0  0  0  0  0  0
   10.6235  -18.4844   18.9330 N   0  0  0  0  0  0  0  0  0  0  0  0
    9.7514  -18.2591   20.0042 C   0  0  0  0  0  0  0  0  0  0  0  0
    8.5663  -18.6978   19.8708 O   0  0  0  0  0  0  0  0  0  0  0  0
   10.0486  -17.5755   21.2608 C   0  0  0  0  0  0  0  0  0  0  0  0
    9.1720  -16.4243   21.6032 C   0  0  2  0  0  0  0  0  0  0  0  0
    9.2571  -15.4030   20.5901 N   0  0  0  0  0  0  0  0  0  0  0  0
    9.3426  -15.8986   22.9631 C   0  0  0  0  0  0  0  0  0  0  0  0
   10.2041  -16.4352   23.7031 O   0  0  0  0  0  0  0  0  0  0  0  0
    5.9367  -10.9657   28.2164 C   0  0  0  0  0  0  0  0  0  0  0  0
    6.0142  -11.6415   26.5371 S   0  0  0  0  0  0  0  0  0  0  0  0
    7.3034  -12.8814   26.3873 C   0  0  0  0  0  0  0  0  0  0  0  0
    7.4919  -13.3696   24.9809 C   0  0  0  0  0  0  0  0  0  0  0  0
    8.5745  -14.4054   24.8447 C   0  0  2  0  0  0  0  0  0  0  0  0
    8.5627  -14.8198   23.4328 N   0  0  0  0  0  0  0  0  0  0  0  0
    8.3874  -15.5720   25.7325 C   0  0  0  0  0  0  0  0  0  0  0  0
    7.5722  -16.4713   25.4185 O   0  0  0  0  0  0  0  0  0  0  0  0
    9.0887  -15.7147   26.9192 O   0  0  0  0  0  0  0  0  0  0  0  0
  2  3  1  0
  2  1  1  6
  3  4  1  0
  4  8  1  0
  4  5  2  0
  6  2  1  0
  6  7  2  0
  9 10  1  0
 10 12  1  0
 10 11  2  0
 13 12  1  6
 13 14  1  0
 13 15  1  0
 14  6  1  0
 15 22  1  0
 16 15  2  0
 18 19  1  0
 18 17  1  0
 20 19  1  0
 21 20  1  6
 21 23  1  0
 22 21  1  0
 23 24  2  0
 23 25  1  0
M  END
$$$$
