DNM.pdb
     RDKit          3D

 25 24  0  0  1  0  0  0  0  0999 V2000
    9.4680  -18.2858   19.3073 N   0  0  0  0  0  0  0  0  0  0  0  0
    8.5179  -17.2108   19.3970 C   0  0  1  0  0  0  0  0  0  0  0  0
    7.4175  -17.4605   18.3885 C   0  0  0  0  0  0  0  0  0  0  0  0
    7.9562  -17.7417   17.0457 C   0  0  0  0  0  0  0  0  0  0  0  0
    9.1721  -17.9811   16.8512 O   0  0  0  0  0  0  0  0  0  0  0  0
    7.8947  -17.1179   20.7399 C   0  0  0  0  0  0  0  0  0  0  0  0
    7.0059  -16.2589   20.9713 O   0  0  0  0  0  0  0  0  0  0  0  0
    7.1037  -17.7448   15.9573 O   0  0  0  0  0  0  0  0  0  0  0  0
    5.2470  -20.2688   23.0526 N   0  0  0  0  0  0  0  0  0  0  0  0
    6.6395  -20.1358   23.0087 C   0  0  0  0  0  0  0  0  0  0  0  0
    7.2592  -20.9273   22.2314 O   0  0  0  0  0  0  0  0  0  0  0  0
    7.4637  -19.1889   23.7562 C   0  0  0  0  0  0  0  0  0  0  0  0
    7.6465  -17.8493   23.1373 C   0  0  2  0  0  0  0  0  0  0  0  0
    8.2477  -17.9707   21.8333 N   0  0  0  0  0  0  0  0  0  0  0  0
    8.3183  -16.8600   23.9886 C   0  0  0  0  0  0  0  0  0  0  0  0
    9.5716  -16.8962   24.0651 O   0  0  0  0  0  0  0  0  0  0  0  0
    5.5750  -11.2869   25.9936 C   0  0  0  0  0  0  0  0  0  0  0  0
    7.1212  -11.4078   26.9304 S   0  0  0  0  0  0  0  0  0  0  0  0
    7.5766  -13.1184   27.2276 C   0  0  0  0  0  0  0  0  0  0  0  0
    7.1368  -14.0450   26.1324 C   0  0  0  0  0  0  0  0  0  0  0  0
    8.2237  -14.9689   25.6545 C   0  0  2  0  0  0  0  0  0  0  0  0
    7.5820  -15.8916   24.7046 N   0  0  0  0  0  0  0  0  0  0  0  0
    8.8812  -15.7177   26.7460 C   0  0  0  0  0  0  0  0  0  0  0  0
    8.3774  -16.7881   27.1607 O   0  0  0  0  0  0  0  0  0  0  0  0
   10.0529  -15.2765   27.3402 O   0  0  0  0  0  0  0  0  0  0  0  0
  2  3  1  0
  2  1  1  1
  3  4  1  0
  4  8  1  0
  4  5  2  0
  6  2  1  0
  6  7  2  0
  9 10  1  0
 10 12  1  0
 10 11  2  0
 13 12  1  1
 13 14  1  0
 13 15  1  0
 14  6  1  0
 15 22  1  0
 16 15  2  0
 18 19  1  0
 18 17  1  0
 20 19  1  0
 21 20  1  1
 21 23  1  0
 22 21  1  0
 23 24  2  0
 23 25  1  0
M  END
$$$$
