DNM.pdb
     RDKit          3D

 25 24  0  0  1  0  0  0  0  0999 V2000
   10.0201  -18.5557   19.9483 N   0  0  0  0  0  0  0  0  0  0  0  0
    9.7953  -17.1396   19.8456 C   0  0  1  0  0  0  0  0  0  0  0  0
    9.0471  -16.8669   18.5587 C   0  0  0  0  0  0  0  0  0  0  0  0
    9.8468  -17.2212   17.3724 C   0  0  0  0  0  0  0  0  0  0  0  0
    9.8996  -18.3934   16.9290 O   0  0  0  0  0  0  0  0  0  0  0  0
    8.9807  -16.6138   20.9682 C   0  0  0  0  0  0  0  0  0  0  0  0
    8.6730  -15.3954   21.0156 O   0  0  0  0  0  0  0  0  0  0  0  0
   10.5664  -16.2383   16.7184 O   0  0  0  0  0  0  0  0  0  0  0  0
    8.4243  -19.6433   24.0689 N   0  0  0  0  0  0  0  0  0  0  0  0
    7.1191  -19.1403   24.0193 C   0  0  0  0  0  0  0  0  0  0  0  0
    6.1942  -19.9301   24.3874 O   0  0  0  0  0  0  0  0  0  0  0  0
    6.6979  -17.8083   23.5917 C   0  0  0  0  0  0  0  0  0  0  0  0
    7.7822  -16.8837   23.1671 C   0  0  2  0  0  0  0  0  0  0  0  0
    8.5016  -17.4277   22.0431 N   0  0  0  0  0  0  0  0  0  0  0  0
    8.6657  -16.4275   24.2469 C   0  0  0  0  0  0  0  0  0  0  0  0
    9.8261  -16.9047   24.3059 O   0  0  0  0  0  0  0  0  0  0  0  0
    5.3105  -12.6185   26.0568 C   0  0  0  0  0  0  0  0  0  0  0  0
    6.8079  -11.7201   26.5400 S   0  0  0  0  0  0  0  0  0  0  0  0
    8.2843  -12.6964   26.2418 C   0  0  0  0  0  0  0  0  0  0  0  0
    8.3179  -13.9717   27.0318 C   0  0  0  0  0  0  0  0  0  0  0  0
    9.0613  -15.0846   26.3446 C   0  0  2  0  0  0  0  0  0  0  0  0
    8.2293  -15.4786   25.1966 N   0  0  0  0  0  0  0  0  0  0  0  0
    9.3243  -16.2451   27.2211 C   0  0  0  0  0  0  0  0  0  0  0  0
   10.1218  -16.1338   28.1821 O   0  0  0  0  0  0  0  0  0  0  0  0
    8.7145  -17.4732   27.0202 O   0  0  0  0  0  0  0  0  0  0  0  0
  2  3  1  0
  2  1  1  1
  3  4  1  0
  4  8  1  0
  4  5  2  0
  6  2  1  0
  6  7  2  0
  9 10  1  0
 10 12  1  0
 10 11  2  0
 13 12  1  1
 13 14  1  0
 13 15  1  0
 14  6  1  0
 15 22  1  0
 16 15  2  0
 18 19  1  0
 18 17  1  0
 20 19  1  0
 21 20  1  1
 21 23  1  0
 22 21  1  0
 23 24  2  0
 23 25  1  0
M  END
$$$$
