DNM.pdb
     RDKit          3D

 25 24  0  0  1  0  0  0  0  0999 V2000
   12.3532  -18.5083   19.2577 N   0  0  0  0  0  0  0  0  0  0  0  0
   11.6730  -17.2661   19.0116 C   0  0  1  0  0  0  0  0  0  0  0  0
   11.1573  -17.2776   17.5889 C   0  0  0  0  0  0  0  0  0  0  0  0
   12.2525  -17.1879   16.6065 C   0  0  0  0  0  0  0  0  0  0  0  0
   13.4379  -17.4737   16.9008 O   0  0  0  0  0  0  0  0  0  0  0  0
   10.5144  -17.0673   19.9162 C   0  0  0  0  0  0  0  0  0  0  0  0
    9.7975  -16.0390   19.8161 O   0  0  0  0  0  0  0  0  0  0  0  0
   11.9769  -16.7767   15.3156 O   0  0  0  0  0  0  0  0  0  0  0  0
    8.4322  -21.1967   21.0764 N   0  0  0  0  0  0  0  0  0  0  0  0
    7.9678  -19.9179   21.4045 C   0  0  0  0  0  0  0  0  0  0  0  0
    6.9528  -19.5026   20.7626 O   0  0  0  0  0  0  0  0  0  0  0  0
    8.5179  -19.0039   22.4029 C   0  0  0  0  0  0  0  0  0  0  0  0
    9.0889  -17.7332   21.8831 C   0  0  2  0  0  0  0  0  0  0  0  0
   10.1406  -18.0001   20.9348 N   0  0  0  0  0  0  0  0  0  0  0  0
    9.4780  -16.7619   22.9126 C   0  0  0  0  0  0  0  0  0  0  0  0
   10.6898  -16.6934   23.2363 O   0  0  0  0  0  0  0  0  0  0  0  0
    6.6740  -10.8766   27.4921 C   0  0  0  0  0  0  0  0  0  0  0  0
    6.4110  -12.0753   26.1592 S   0  0  0  0  0  0  0  0  0  0  0  0
    7.8297  -13.1565   25.9592 C   0  0  0  0  0  0  0  0  0  0  0  0
    7.7074  -14.0788   24.7819 C   0  0  0  0  0  0  0  0  0  0  0  0
    8.8725  -15.0186   24.6315 C   0  0  2  0  0  0  0  0  0  0  0  0
    8.5214  -15.9247   23.5264 N   0  0  0  0  0  0  0  0  0  0  0  0
    9.1725  -15.7847   25.8592 C   0  0  0  0  0  0  0  0  0  0  0  0
    8.6233  -16.8951   26.0522 O   0  0  0  0  0  0  0  0  0  0  0  0
   10.0517  -15.3171   26.8229 O   0  0  0  0  0  0  0  0  0  0  0  0
  2  3  1  0
  2  1  1  1
  3  4  1  0
  4  8  1  0
  4  5  2  0
  6  2  1  0
  6  7  2  0
  9 10  1  0
 10 12  1  0
 10 11  2  0
 13 12  1  1
 13 14  1  0
 13 15  1  0
 14  6  1  0
 15 22  1  0
 16 15  2  0
 18 19  1  0
 18 17  1  0
 20 19  1  0
 21 20  1  1
 21 23  1  0
 22 21  1  0
 23 24  2  0
 23 25  1  0
M  END
$$$$
