DNM.pdb
     RDKit          3D

 25 24  0  0  1  0  0  0  0  0999 V2000
   10.2731  -20.1738   21.4463 N   0  0  0  0  0  0  0  0  0  0  0  0
   10.3505  -19.1561   20.4340 C   0  0  1  0  0  0  0  0  0  0  0  0
   10.3198  -19.8278   19.0782 C   0  0  0  0  0  0  0  0  0  0  0  0
   11.5663  -20.5638   18.8011 C   0  0  0  0  0  0  0  0  0  0  0  0
   11.6133  -21.8173   18.7929 O   0  0  0  0  0  0  0  0  0  0  0  0
    9.2132  -18.2062   20.4995 C   0  0  0  0  0  0  0  0  0  0  0  0
    9.1956  -17.1827   19.7689 O   0  0  0  0  0  0  0  0  0  0  0  0
   12.7280  -19.8610   18.5401 O   0  0  0  0  0  0  0  0  0  0  0  0
    5.4038  -20.6881   21.7186 N   0  0  0  0  0  0  0  0  0  0  0  0
    5.4812  -19.4240   21.1230 C   0  0  0  0  0  0  0  0  0  0  0  0
    5.3161  -19.3809   19.8638 O   0  0  0  0  0  0  0  0  0  0  0  0
    5.7308  -18.1457   21.7851 C   0  0  0  0  0  0  0  0  0  0  0  0
    6.9904  -17.4497   21.4112 C   0  0  2  0  0  0  0  0  0  0  0  0
    8.0906  -18.3795   21.3696 N   0  0  0  0  0  0  0  0  0  0  0  0
    7.2878  -16.2440   22.1937 C   0  0  0  0  0  0  0  0  0  0  0  0
    6.5796  -15.2239   22.0044 O   0  0  0  0  0  0  0  0  0  0  0  0
    6.7456  -12.0051   27.8931 C   0  0  0  0  0  0  0  0  0  0  0  0
    6.2930  -12.7714   26.3149 S   0  0  0  0  0  0  0  0  0  0  0  0
    7.7453  -13.2912   25.3971 C   0  0  0  0  0  0  0  0  0  0  0  0
    7.5115  -14.5210   24.5697 C   0  0  0  0  0  0  0  0  0  0  0  0
    8.7369  -14.9928   23.8354 C   0  0  2  0  0  0  0  0  0  0  0  0
    8.3397  -16.2245   23.1349 N   0  0  0  0  0  0  0  0  0  0  0  0
    9.8925  -15.2459   24.7213 C   0  0  0  0  0  0  0  0  0  0  0  0
   10.2355  -16.4239   24.9791 O   0  0  0  0  0  0  0  0  0  0  0  0
   10.6252  -14.2156   25.2888 O   0  0  0  0  0  0  0  0  0  0  0  0
  2  3  1  0
  2  1  1  1
  3  4  1  0
  4  8  1  0
  4  5  2  0
  6  2  1  0
  6  7  2  0
  9 10  1  0
 10 12  1  0
 10 11  2  0
 13 12  1  1
 13 14  1  0
 13 15  1  0
 14  6  1  0
 15 22  1  0
 16 15  2  0
 18 19  1  0
 18 17  1  0
 20 19  1  0
 21 20  1  1
 21 23  1  0
 22 21  1  0
 23 24  2  0
 23 25  1  0
M  END
$$$$
