DNM.pdb
     RDKit          3D

 25 24  0  0  1  0  0  0  0  0999 V2000
    8.1742  -19.6423   18.4898 N   0  0  0  0  0  0  0  0  0  0  0  0
    8.3760  -18.2716   18.8733 C   0  0  1  0  0  0  0  0  0  0  0  0
    7.8622  -17.3838   17.7606 C   0  0  0  0  0  0  0  0  0  0  0  0
    8.7847  -17.3532   16.6115 C   0  0  0  0  0  0  0  0  0  0  0  0
    9.8297  -18.0463   16.5761 O   0  0  0  0  0  0  0  0  0  0  0  0
    7.6446  -17.9185   20.1145 C   0  0  0  0  0  0  0  0  0  0  0  0
    6.3896  -17.9871   20.1554 O   0  0  0  0  0  0  0  0  0  0  0  0
    8.4999  -16.5383   15.5315 O   0  0  0  0  0  0  0  0  0  0  0  0
    7.0646  -19.9327   25.2984 N   0  0  0  0  0  0  0  0  0  0  0  0
    6.6649  -19.0138   24.3215 C   0  0  0  0  0  0  0  0  0  0  0  0
    5.7198  -18.2259   24.6389 O   0  0  0  0  0  0  0  0  0  0  0  0
    7.2112  -18.8567   22.9755 C   0  0  0  0  0  0  0  0  0  0  0  0
    7.6291  -17.4814   22.5950 C   0  0  2  0  0  0  0  0  0  0  0  0
    8.2924  -17.4884   21.3157 N   0  0  0  0  0  0  0  0  0  0  0  0
    8.3796  -16.7544   23.6260 C   0  0  0  0  0  0  0  0  0  0  0  0
    9.5360  -17.1538   23.9109 O   0  0  0  0  0  0  0  0  0  0  0  0
    5.8771  -11.2393   25.9267 C   0  0  0  0  0  0  0  0  0  0  0  0
    7.2781  -11.3709   27.0679 S   0  0  0  0  0  0  0  0  0  0  0  0
    8.2908  -12.8070   26.7014 C   0  0  0  0  0  0  0  0  0  0  0  0
    7.7030  -13.6876   25.6381 C   0  0  0  0  0  0  0  0  0  0  0  0
    8.5902  -14.8406   25.2548 C   0  0  2  0  0  0  0  0  0  0  0  0
    7.8229  -15.6361   24.2834 N   0  0  0  0  0  0  0  0  0  0  0  0
    9.0004  -15.6744   26.4041 C   0  0  0  0  0  0  0  0  0  0  0  0
    9.9043  -15.2739   27.1751 O   0  0  0  0  0  0  0  0  0  0  0  0
    8.4162  -16.9028   26.6687 O   0  0  0  0  0  0  0  0  0  0  0  0
  2  3  1  0
  2  1  1  6
  3  4  1  0
  4  8  1  0
  4  5  2  0
  6  2  1  0
  6  7  2  0
  9 10  1  0
 10 12  1  0
 10 11  2  0
 13 12  1  1
 13 14  1  0
 13 15  1  0
 14  6  1  0
 15 22  1  0
 16 15  2  0
 18 19  1  0
 18 17  1  0
 20 19  1  0
 21 20  1  1
 21 23  1  0
 22 21  1  0
 23 24  2  0
 23 25  1  0
M  END
$$$$
