DNM.pdb
     RDKit          3D

 25 24  0  0  1  0  0  0  0  0999 V2000
   10.3890  -17.0589   18.1608 N   0  0  0  0  0  0  0  0  0  0  0  0
    9.0870  -16.5739   18.5298 C   0  0  1  0  0  0  0  0  0  0  0  0
    8.0575  -17.2579   17.6566 C   0  0  0  0  0  0  0  0  0  0  0  0
    8.6167  -17.6474   16.3498 C   0  0  0  0  0  0  0  0  0  0  0  0
    9.8197  -17.9739   16.2093 O   0  0  0  0  0  0  0  0  0  0  0  0
    8.7544  -16.8684   19.9450 C   0  0  0  0  0  0  0  0  0  0  0  0
    7.6663  -16.4757   20.4383 O   0  0  0  0  0  0  0  0  0  0  0  0
    7.7988  -17.6574   15.2351 O   0  0  0  0  0  0  0  0  0  0  0  0
   10.0691  -21.1325   21.0594 N   0  0  0  0  0  0  0  0  0  0  0  0
    9.3489  -20.3147   21.9375 C   0  0  0  0  0  0  0  0  0  0  0  0
    8.1327  -20.6270   22.1325 O   0  0  0  0  0  0  0  0  0  0  0  0
    9.8368  -19.1404   22.6571 C   0  0  0  0  0  0  0  0  0  0  0  0
    9.3001  -17.8283   22.2089 C   0  0  2  0  0  0  0  0  0  0  0  0
    9.6185  -17.5966   20.8227 N   0  0  0  0  0  0  0  0  0  0  0  0
    9.6407  -16.6917   23.0731 C   0  0  0  0  0  0  0  0  0  0  0  0
   10.7496  -16.1270   22.9015 O   0  0  0  0  0  0  0  0  0  0  0  0
    6.7093  -11.3078   28.0776 C   0  0  0  0  0  0  0  0  0  0  0  0
    6.4876  -12.5058   26.7366 S   0  0  0  0  0  0  0  0  0  0  0  0
    8.0162  -13.3732   26.3718 C   0  0  0  0  0  0  0  0  0  0  0  0
    7.8677  -14.3997   25.2875 C   0  0  0  0  0  0  0  0  0  0  0  0
    9.1233  -15.1877   25.0303 C   0  0  2  0  0  0  0  0  0  0  0  0
    8.7511  -16.2406   24.0720 N   0  0  0  0  0  0  0  0  0  0  0  0
    9.7082  -15.7776   26.2526 C   0  0  0  0  0  0  0  0  0  0  0  0
    9.4740  -16.9749   26.5418 O   0  0  0  0  0  0  0  0  0  0  0  0
   10.5192  -15.0481   27.1073 O   0  0  0  0  0  0  0  0  0  0  0  0
  2  3  1  0
  2  1  1  6
  3  4  1  0
  4  8  1  0
  4  5  2  0
  6  2  1  0
  6  7  2  0
  9 10  1  0
 10 12  1  0
 10 11  2  0
 13 12  1  1
 13 14  1  0
 13 15  1  0
 14  6  1  0
 15 22  1  0
 16 15  2  0
 18 19  1  0
 18 17  1  0
 20 19  1  0
 21 20  1  1
 21 23  1  0
 22 21  1  0
 23 24  2  0
 23 25  1  0
M  END
$$$$
