DNM.pdb
     RDKit          3D

 25 24  0  0  1  0  0  0  0  0999 V2000
    9.2006  -16.0319   18.8030 N   0  0  0  0  0  0  0  0  0  0  0  0
    8.1078  -16.1696   19.7267 C   0  0  1  0  0  0  0  0  0  0  0  0
    7.0647  -17.0705   19.1017 C   0  0  0  0  0  0  0  0  0  0  0  0
    7.6697  -18.2599   18.4757 C   0  0  0  0  0  0  0  0  0  0  0  0
    8.9041  -18.4798   18.5153 O   0  0  0  0  0  0  0  0  0  0  0  0
    8.5276  -16.7795   21.0120 C   0  0  0  0  0  0  0  0  0  0  0  0
    7.6677  -17.1671   21.8438 O   0  0  0  0  0  0  0  0  0  0  0  0
    6.8609  -19.1701   17.8209 O   0  0  0  0  0  0  0  0  0  0  0  0
   13.0652  -17.2079   20.8438 N   0  0  0  0  0  0  0  0  0  0  0  0
   12.7222  -17.6736   22.1182 C   0  0  0  0  0  0  0  0  0  0  0  0
   13.5703  -17.4696   23.0423 O   0  0  0  0  0  0  0  0  0  0  0  0
   11.4980  -18.3692   22.5082 C   0  0  0  0  0  0  0  0  0  0  0  0
   10.2838  -17.5239   22.6570 C   0  0  2  0  0  0  0  0  0  0  0  0
    9.8961  -16.9650   21.3866 N   0  0  0  0  0  0  0  0  0  0  0  0
   10.3541  -16.5214   23.7269 C   0  0  0  0  0  0  0  0  0  0  0  0
   11.4881  -16.1685   24.1361 O   0  0  0  0  0  0  0  0  0  0  0  0
    7.2972  -10.8198   26.5935 C   0  0  0  0  0  0  0  0  0  0  0  0
    6.5671  -12.4435   26.9300 S   0  0  0  0  0  0  0  0  0  0  0  0
    7.8180  -13.7303   26.9695 C   0  0  0  0  0  0  0  0  0  0  0  0
    8.0683  -14.3512   25.6266 C   0  0  0  0  0  0  0  0  0  0  0  0
    9.1641  -15.3820   25.6364 C   0  0  2  0  0  0  0  0  0  0  0  0
    9.1830  -15.9653   24.2855 N   0  0  0  0  0  0  0  0  0  0  0  0
    8.9728  -16.4342   26.6564 C   0  0  0  0  0  0  0  0  0  0  0  0
    8.2737  -17.4407   26.3918 O   0  0  0  0  0  0  0  0  0  0  0  0
    9.5449  -16.3518   27.9159 O   0  0  0  0  0  0  0  0  0  0  0  0
  2  3  1  0
  2  1  1  6
  3  4  1  0
  4  8  1  0
  4  5  2  0
  6  2  1  0
  6  7  2  0
  9 10  1  0
 10 12  1  0
 10 11  2  0
 13 12  1  6
 13 14  1  0
 13 15  1  0
 14  6  1  0
 15 22  1  0
 16 15  2  0
 18 19  1  0
 18 17  1  0
 20 19  1  0
 21 20  1  6
 21 23  1  0
 22 21  1  0
 23 24  2  0
 23 25  1  0
M  END
$$$$
