DNM.pdb
     RDKit          3D

 25 24  0  0  1  0  0  0  0  0999 V2000
    9.7445  -12.5758   19.1103 N   0  0  0  0  0  0  0  0  0  0  0  0
    8.4080  -12.9632   19.4710 C   0  0  1  0  0  0  0  0  0  0  0  0
    7.6404  -13.2680   18.2029 C   0  0  0  0  0  0  0  0  0  0  0  0
    8.4299  -14.0875   17.2660 C   0  0  0  0  0  0  0  0  0  0  0  0
    9.3420  -14.8552   17.6564 O   0  0  0  0  0  0  0  0  0  0  0  0
    8.3820  -14.1765   20.3239 C   0  0  0  0  0  0  0  0  0  0  0  0
    7.2919  -14.6197   20.7675 O   0  0  0  0  0  0  0  0  0  0  0  0
    8.1660  -14.0165   15.9108 O   0  0  0  0  0  0  0  0  0  0  0  0
    9.3761  -18.7046   19.6442 N   0  0  0  0  0  0  0  0  0  0  0  0
   10.2922  -17.6900   19.9443 C   0  0  0  0  0  0  0  0  0  0  0  0
   11.0162  -17.2794   18.9841 O   0  0  0  0  0  0  0  0  0  0  0  0
   10.5117  -17.0478   21.2382 C   0  0  0  0  0  0  0  0  0  0  0  0
    9.5271  -16.0034   21.6260 C   0  0  2  0  0  0  0  0  0  0  0  0
    9.5563  -14.9066   20.6917 N   0  0  0  0  0  0  0  0  0  0  0  0
    9.6058  -15.5668   23.0253 C   0  0  0  0  0  0  0  0  0  0  0  0
   10.5255  -14.7749   23.3491 O   0  0  0  0  0  0  0  0  0  0  0  0
    6.1341  -11.0585   26.3475 C   0  0  0  0  0  0  0  0  0  0  0  0
    6.0561  -12.8669   26.4270 S   0  0  0  0  0  0  0  0  0  0  0  0
    7.5415  -13.6181   25.7553 C   0  0  0  0  0  0  0  0  0  0  0  0
    7.5507  -15.1141   25.8720 C   0  0  0  0  0  0  0  0  0  0  0  0
    8.8407  -15.7438   25.4219 C   0  0  2  0  0  0  0  0  0  0  0  0
    8.6765  -16.0208   23.9860 N   0  0  0  0  0  0  0  0  0  0  0  0
    9.1791  -16.9808   26.1565 C   0  0  0  0  0  0  0  0  0  0  0  0
    8.9620  -18.0983   25.6312 O   0  0  0  0  0  0  0  0  0  0  0  0
    9.7365  -16.9551   27.4250 O   0  0  0  0  0  0  0  0  0  0  0  0
  2  3  1  0
  2  1  1  6
  3  4  1  0
  4  8  1  0
  4  5  2  0
  6  2  1  0
  6  7  2  0
  9 10  1  0
 10 12  1  0
 10 11  2  0
 13 12  1  6
 13 14  1  0
 13 15  1  0
 14  6  1  0
 15 22  1  0
 16 15  2  0
 18 19  1  0
 18 17  1  0
 20 19  1  0
 21 20  1  1
 21 23  1  0
 22 21  1  0
 23 24  2  0
 23 25  1  0
M  END
$$$$
