DNM.pdb
     RDKit          3D

 25 24  0  0  1  0  0  0  0  0999 V2000
    7.3649  -18.4067   20.5410 N   0  0  0  0  0  0  0  0  0  0  0  0
    8.7431  -18.3484   20.1364 C   0  0  1  0  0  0  0  0  0  0  0  0
    8.8081  -18.5282   18.6352 C   0  0  0  0  0  0  0  0  0  0  0  0
    7.5592  -19.0943   18.0947 C   0  0  0  0  0  0  0  0  0  0  0  0
    6.6473  -19.5295   18.8382 O   0  0  0  0  0  0  0  0  0  0  0  0
    9.3753  -17.0485   20.4689 C   0  0  0  0  0  0  0  0  0  0  0  0
   10.6022  -16.8658   20.2624 O   0  0  0  0  0  0  0  0  0  0  0  0
    7.3748  -19.1528   16.7258 O   0  0  0  0  0  0  0  0  0  0  0  0
    6.3536  -13.7175   19.6780 N   0  0  0  0  0  0  0  0  0  0  0  0
    7.7444  -13.6568   19.8213 C   0  0  0  0  0  0  0  0  0  0  0  0
    8.4262  -13.7069   18.7502 O   0  0  0  0  0  0  0  0  0  0  0  0
    8.5035  -13.5421   21.0644 C   0  0  0  0  0  0  0  0  0  0  0  0
    9.3105  -14.7297   21.4506 C   0  0  2  0  0  0  0  0  0  0  0  0
    8.6588  -15.9444   21.0303 N   0  0  0  0  0  0  0  0  0  0  0  0
    9.7319  -14.7620   22.8563 C   0  0  0  0  0  0  0  0  0  0  0  0
   10.5514  -13.8953   23.2504 O   0  0  0  0  0  0  0  0  0  0  0  0
    6.2465  -11.5779   26.5163 C   0  0  0  0  0  0  0  0  0  0  0  0
    7.8131  -12.3146   27.0508 S   0  0  0  0  0  0  0  0  0  0  0  0
    7.8192  -14.0930   26.8075 C   0  0  0  0  0  0  0  0  0  0  0  0
    8.0361  -14.4921   25.3774 C   0  0  0  0  0  0  0  0  0  0  0  0
    9.1407  -15.4971   25.1952 C   0  0  2  0  0  0  0  0  0  0  0  0
    9.2339  -15.7379   23.7465 N   0  0  0  0  0  0  0  0  0  0  0  0
    8.9090  -16.7637   25.9208 C   0  0  0  0  0  0  0  0  0  0  0  0
    8.4983  -17.7727   25.3002 O   0  0  0  0  0  0  0  0  0  0  0  0
    9.1311  -16.8833   27.2834 O   0  0  0  0  0  0  0  0  0  0  0  0
  2  3  1  0
  2  1  1  6
  3  4  1  0
  4  8  1  0
  4  5  2  0
  6  2  1  0
  6  7  2  0
  9 10  1  0
 10 12  1  0
 10 11  2  0
 13 12  1  1
 13 14  1  0
 13 15  1  0
 14  6  1  0
 15 22  1  0
 16 15  2  0
 18 19  1  0
 18 17  1  0
 20 19  1  0
 21 20  1  6
 21 23  1  0
 22 21  1  0
 23 24  2  0
 23 25  1  0
M  END
$$$$
