MGM.pdb
     RDKit          3D

 21 20  0  0  1  0  0  0  0  0999 V2000
    8.3343  -12.4568   19.3081 C   0  0  0  0  0  0  0  0  0  0  0  0
    6.7188  -13.0023   19.8842 S   0  0  0  0  0  0  0  0  0  0  0  0
    6.8546  -14.7017   20.5127 C   0  0  0  0  0  0  0  0  0  0  0  0
    8.2350  -14.8603   21.1061 C   0  0  0  0  0  0  0  0  0  0  0  0
    8.5044  -16.2365   21.6157 C   0  0  2  0  0  0  0  0  0  0  0  0
    7.5417  -16.7340   22.5454 N   0  0  0  0  0  0  0  0  0  0  0  0
    9.8919  -16.2688   22.1439 C   0  0  0  0  0  0  0  0  0  0  0  0
   10.8171  -16.5419   21.3242 O   0  0  0  0  0  0  0  0  0  0  0  0
   10.2537  -16.0203   23.4775 N   0  0  0  0  0  0  0  0  0  0  0  0
   11.6159  -16.0355   23.9011 C   0  0  0  0  0  0  0  0  0  0  0  0
   11.7840  -15.7791   25.3544 C   0  0  0  0  0  0  0  0  0  0  0  0
   12.8631  -15.7570   25.9569 O   0  0  0  0  0  0  0  0  0  0  0  0
    7.1616  -11.4502   25.9639 C   0  0  0  0  0  0  0  0  0  0  0  0
    7.6415  -12.5136   27.3354 S   0  0  0  0  0  0  0  0  0  0  0  0
    9.1623  -13.3985   26.8512 C   0  0  0  0  0  0  0  0  0  0  0  0
    9.5876  -14.3007   27.9750 C   0  0  0  0  0  0  0  0  0  0  0  0
   10.6949  -15.2235   27.5258 C   0  0  2  0  0  0  0  0  0  0  0  0
   10.5921  -15.5382   26.1120 N   0  0  0  0  0  0  0  0  0  0  0  0
   10.5287  -16.5071   28.2947 C   0  0  0  0  0  0  0  0  0  0  0  0
   10.1384  -17.6911   27.6837 O   0  0  0  0  0  0  0  0  0  0  0  0
   10.7407  -16.5461   29.5270 O   0  0  0  0  0  0  0  0  0  0  0  0
  2  1  1  0
  3  2  1  0
  4  3  1  0
  4  5  1  0
  5  7  1  0
  5  6  1  1
  7  8  2  0
  9  7  1  0
 10  9  1  0
 10 11  1  0
 11 12  2  0
 11 18  1  0
 14 13  1  0
 15 14  1  0
 16 15  1  0
 17 16  1  1
 18 17  1  0
 19 20  1  0
 19 17  1  0
 21 19  2  0
M  END
$$$$
