MGM.pdb
     RDKit          3D

 21 20  0  0  1  0  0  0  0  0999 V2000
    7.5975  -11.7384   26.8146 C   0  0  0  0  0  0  0  0  0  0  0  0
    6.5126  -13.1153   26.4069 S   0  0  0  0  0  0  0  0  0  0  0  0
    7.4590  -14.3662   25.4896 C   0  0  0  0  0  0  0  0  0  0  0  0
    6.7693  -14.5778   24.1621 C   0  0  0  0  0  0  0  0  0  0  0  0
    7.0920  -15.8910   23.5315 C   0  0  2  0  0  0  0  0  0  0  0  0
    6.7216  -17.0358   24.3002 N   0  0  0  0  0  0  0  0  0  0  0  0
    8.5295  -15.8824   23.1590 C   0  0  0  0  0  0  0  0  0  0  0  0
    8.9570  -14.8741   22.5243 O   0  0  0  0  0  0  0  0  0  0  0  0
    9.4463  -16.9033   23.4563 N   0  0  0  0  0  0  0  0  0  0  0  0
   10.8370  -16.7711   23.1670 C   0  0  0  0  0  0  0  0  0  0  0  0
   11.7050  -16.9270   24.3621 C   0  0  0  0  0  0  0  0  0  0  0  0
   12.9405  -16.8862   24.3594 O   0  0  0  0  0  0  0  0  0  0  0  0
    9.5699  -12.5797   28.4201 C   0  0  0  0  0  0  0  0  0  0  0  0
   10.0016  -14.2416   28.9622 S   0  0  0  0  0  0  0  0  0  0  0  0
   10.9040  -15.0570   27.6017 C   0  0  0  0  0  0  0  0  0  0  0  0
   11.1755  -16.4865   27.9762 C   0  0  0  0  0  0  0  0  0  0  0  0
   11.8366  -17.2191   26.8334 C   0  0  2  0  0  0  0  0  0  0  0  0
   11.0476  -17.1413   25.6169 N   0  0  0  0  0  0  0  0  0  0  0  0
   11.9178  -18.6675   27.2356 C   0  0  0  0  0  0  0  0  0  0  0  0
   11.2230  -19.6632   26.5623 O   0  0  0  0  0  0  0  0  0  0  0  0
   12.6253  -19.0232   28.2041 O   0  0  0  0  0  0  0  0  0  0  0  0
  2  1  1  0
  3  2  1  0
  4  3  1  0
  4  5  1  0
  5  7  1  0
  5  6  1  1
  7  8  2  0
  9  7  1  0
 10  9  1  0
 10 11  1  0
 11 12  2  0
 11 18  1  0
 14 13  1  0
 15 14  1  0
 16 15  1  0
 17 16  1  1
 18 17  1  0
 19 20  1  0
 19 17  1  0
 21 19  2  0
M  END
$$$$
