MGM.pdb
     RDKit          3D

 21 20  0  0  1  0  0  0  0  0999 V2000
    9.0307  -11.5165   19.9717 C   0  0  0  0  0  0  0  0  0  0  0  0
    7.8410  -12.1739   18.7919 S   0  0  0  0  0  0  0  0  0  0  0  0
    8.1736  -13.9416   18.5348 C   0  0  0  0  0  0  0  0  0  0  0  0
    8.1796  -14.6072   19.8911 C   0  0  0  0  0  0  0  0  0  0  0  0
    8.3618  -16.0865   19.8223 C   0  0  2  0  0  0  0  0  0  0  0  0
    7.4530  -16.7660   18.9558 N   0  0  0  0  0  0  0  0  0  0  0  0
    8.3482  -16.6174   21.2092 C   0  0  0  0  0  0  0  0  0  0  0  0
    7.3007  -16.4235   21.8929 O   0  0  0  0  0  0  0  0  0  0  0  0
    9.4043  -17.3150   21.8165 N   0  0  0  0  0  0  0  0  0  0  0  0
    9.3549  -17.7070   23.1875 C   0  0  0  0  0  0  0  0  0  0  0  0
   10.0848  -16.7817   24.0915 C   0  0  0  0  0  0  0  0  0  0  0  0
   11.2633  -16.4329   23.9586 O   0  0  0  0  0  0  0  0  0  0  0  0
    5.5709  -12.6038   26.9770 C   0  0  0  0  0  0  0  0  0  0  0  0
    7.3698  -12.5260   26.9647 S   0  0  0  0  0  0  0  0  0  0  0  0
    7.9967  -14.1609   26.4505 C   0  0  0  0  0  0  0  0  0  0  0  0
    9.4983  -14.1234   26.4094 C   0  0  0  0  0  0  0  0  0  0  0  0
   10.0602  -15.5140   26.2368 C   0  0  2  0  0  0  0  0  0  0  0  0
    9.3550  -16.2547   25.2061 N   0  0  0  0  0  0  0  0  0  0  0  0
    9.8499  -16.2322   27.5431 C   0  0  0  0  0  0  0  0  0  0  0  0
   10.5393  -15.8867   28.6975 O   0  0  0  0  0  0  0  0  0  0  0  0
    9.0345  -17.1770   27.6289 O   0  0  0  0  0  0  0  0  0  0  0  0
  2  1  1  0
  3  2  1  0
  4  3  1  0
  4  5  1  0
  5  7  1  0
  5  6  1  6
  7  8  2  0
  9  7  1  0
 10  9  1  0
 10 11  1  0
 11 12  2  0
 11 18  1  0
 14 13  1  0
 15 14  1  0
 16 15  1  0
 17 16  1  1
 18 17  1  0
 19 20  1  0
 19 17  1  0
 21 19  2  0
M  END
$$$$
