MGM.pdb
     RDKit          3D

 21 20  0  0  1  0  0  0  0  0999 V2000
    7.9062  -11.5036   20.9299 C   0  0  0  0  0  0  0  0  0  0  0  0
    6.7320  -12.4712   19.9684 S   0  0  0  0  0  0  0  0  0  0  0  0
    6.7060  -14.1741   20.6015 C   0  0  0  0  0  0  0  0  0  0  0  0
    8.1338  -14.6659   20.6480 C   0  0  0  0  0  0  0  0  0  0  0  0
    8.2632  -16.0550   21.1771 C   0  0  2  0  0  0  0  0  0  0  0  0
    7.2516  -16.4422   22.1073 N   0  0  0  0  0  0  0  0  0  0  0  0
    9.6382  -16.2172   21.7142 C   0  0  0  0  0  0  0  0  0  0  0  0
   10.5885  -15.7439   21.0249 O   0  0  0  0  0  0  0  0  0  0  0  0
    9.9624  -16.8529   22.9233 N   0  0  0  0  0  0  0  0  0  0  0  0
   11.3144  -17.0028   23.3536 C   0  0  0  0  0  0  0  0  0  0  0  0
   11.5499  -16.5157   24.7369 C   0  0  0  0  0  0  0  0  0  0  0  0
   12.5986  -16.6562   25.3761 O   0  0  0  0  0  0  0  0  0  0  0  0
    6.2888  -12.3940   25.7363 C   0  0  0  0  0  0  0  0  0  0  0  0
    7.7136  -12.6039   26.8170 S   0  0  0  0  0  0  0  0  0  0  0  0
    8.5551  -14.1510   26.3389 C   0  0  0  0  0  0  0  0  0  0  0  0
    9.7798  -14.3305   27.1907 C   0  0  0  0  0  0  0  0  0  0  0  0
   10.5140  -15.5927   26.8068 C   0  0  2  0  0  0  0  0  0  0  0  0
   10.4674  -15.8273   25.3747 N   0  0  0  0  0  0  0  0  0  0  0  0
    9.7992  -16.7328   27.4820 C   0  0  0  0  0  0  0  0  0  0  0  0
    9.9268  -16.9859   28.8411 O   0  0  0  0  0  0  0  0  0  0  0  0
    9.0567  -17.4985   26.8282 O   0  0  0  0  0  0  0  0  0  0  0  0
  2  1  1  0
  3  2  1  0
  4  3  1  0
  4  5  1  0
  5  7  1  0
  5  6  1  1
  7  8  2  0
  9  7  1  0
 10  9  1  0
 10 11  1  0
 11 12  2  0
 11 18  1  0
 14 13  1  0
 15 14  1  0
 16 15  1  0
 17 16  1  6
 18 17  1  0
 19 20  1  0
 19 17  1  0
 21 19  2  0
M  END
$$$$
