MGM.pdb
     RDKit          3D

 21 20  0  0  1  0  0  0  0  0999 V2000
    2.0085  -20.1971   23.2025 C   0  0  0  0  0  0  0  0  0  0  0  0
    1.7239  -19.9033   21.4498 S   0  0  0  0  0  0  0  0  0  0  0  0
    2.9373  -18.6934   20.8453 C   0  0  0  0  0  0  0  0  0  0  0  0
    4.0754  -18.6528   21.8382 C   0  0  0  0  0  0  0  0  0  0  0  0
    4.8586  -17.3839   21.7874 C   0  0  2  0  0  0  0  0  0  0  0  0
    4.8654  -16.7303   20.5180 N   0  0  0  0  0  0  0  0  0  0  0  0
    6.2228  -17.6635   22.3035 C   0  0  0  0  0  0  0  0  0  0  0  0
    6.3099  -18.2274   23.4334 O   0  0  0  0  0  0  0  0  0  0  0  0
    7.4177  -17.3514   21.6359 N   0  0  0  0  0  0  0  0  0  0  0  0
    8.6935  -17.6298   22.2106 C   0  0  0  0  0  0  0  0  0  0  0  0
    9.1462  -16.5917   23.1715 C   0  0  0  0  0  0  0  0  0  0  0  0
   10.3062  -16.1801   23.2865 O   0  0  0  0  0  0  0  0  0  0  0  0
    6.2766  -11.1060   25.5467 C   0  0  0  0  0  0  0  0  0  0  0  0
    6.5124  -12.1313   27.0079 S   0  0  0  0  0  0  0  0  0  0  0  0
    7.8439  -13.3252   26.6444 C   0  0  0  0  0  0  0  0  0  0  0  0
    7.4444  -14.1665   25.4652 C   0  0  0  0  0  0  0  0  0  0  0  0
    8.5520  -15.1235   25.0954 C   0  0  2  0  0  0  0  0  0  0  0  0
    8.1497  -16.0262   24.0316 N   0  0  0  0  0  0  0  0  0  0  0  0
    8.8348  -15.9537   26.3190 C   0  0  0  0  0  0  0  0  0  0  0  0
    8.4682  -17.2897   26.4084 O   0  0  0  0  0  0  0  0  0  0  0  0
    9.4180  -15.4566   27.3079 O   0  0  0  0  0  0  0  0  0  0  0  0
  2  1  1  0
  3  2  1  0
  4  3  1  0
  4  5  1  0
  5  7  1  0
  5  6  1  6
  7  8  2  0
  9  7  1  0
 10  9  1  0
 10 11  1  0
 11 12  2  0
 11 18  1  0
 14 13  1  0
 15 14  1  0
 16 15  1  0
 17 16  1  1
 18 17  1  0
 19 20  1  0
 19 17  1  0
 21 19  2  0
M  END
$$$$
