MGM.pdb
     RDKit          3D

 21 20  0  0  1  0  0  0  0  0999 V2000
    7.0927  -11.6758   26.6115 C   0  0  0  0  0  0  0  0  0  0  0  0
    6.9186  -13.4650   26.7003 S   0  0  0  0  0  0  0  0  0  0  0  0
    6.1589  -14.0652   25.1627 C   0  0  0  0  0  0  0  0  0  0  0  0
    7.1817  -13.9185   24.0604 C   0  0  0  0  0  0  0  0  0  0  0  0
    7.3927  -15.1722   23.2796 C   0  0  2  0  0  0  0  0  0  0  0  0
    6.7694  -16.3347   23.8263 N   0  0  0  0  0  0  0  0  0  0  0  0
    8.8525  -15.3423   23.0666 C   0  0  0  0  0  0  0  0  0  0  0  0
    9.5144  -14.3123   22.7450 O   0  0  0  0  0  0  0  0  0  0  0  0
    9.5509  -16.5534   23.1946 N   0  0  0  0  0  0  0  0  0  0  0  0
   10.9674  -16.6232   23.0388 C   0  0  0  0  0  0  0  0  0  0  0  0
   11.6910  -16.8370   24.3182 C   0  0  0  0  0  0  0  0  0  0  0  0
   12.9200  -16.8600   24.4499 O   0  0  0  0  0  0  0  0  0  0  0  0
    8.8764  -13.1537   28.0275 C   0  0  0  0  0  0  0  0  0  0  0  0
   10.2789  -13.9089   28.8668 S   0  0  0  0  0  0  0  0  0  0  0  0
   11.1970  -14.9004   27.6404 C   0  0  0  0  0  0  0  0  0  0  0  0
   10.8837  -16.3553   27.8473 C   0  0  0  0  0  0  0  0  0  0  0  0
   11.5392  -17.1974   26.7792 C   0  0  2  0  0  0  0  0  0  0  0  0
   10.8909  -17.0313   25.4906 N   0  0  0  0  0  0  0  0  0  0  0  0
   11.3710  -18.6343   27.1956 C   0  0  0  0  0  0  0  0  0  0  0  0
   12.0597  -19.1792   28.2709 O   0  0  0  0  0  0  0  0  0  0  0  0
   10.5930  -19.3926   26.5754 O   0  0  0  0  0  0  0  0  0  0  0  0
  2  1  1  0
  3  2  1  0
  4  3  1  0
  4  5  1  0
  5  7  1  0
  5  6  1  1
  7  8  2  0
  9  7  1  0
 10  9  1  0
 10 11  1  0
 11 12  2  0
 11 18  1  0
 14 13  1  0
 15 14  1  0
 16 15  1  0
 17 16  1  1
 18 17  1  0
 19 20  1  0
 19 17  1  0
 21 19  2  0
M  END
$$$$
