MGM.pdb
     RDKit          3D

 21 20  0  0  1  0  0  0  0  0999 V2000
   -0.0266  -19.2847   23.2115 C   0  0  0  0  0  0  0  0  0  0  0  0
    1.2095  -19.7067   21.9733 S   0  0  0  0  0  0  0  0  0  0  0  0
    2.4652  -18.3946   21.9159 C   0  0  0  0  0  0  0  0  0  0  0  0
    3.5251  -18.8199   20.9267 C   0  0  0  0  0  0  0  0  0  0  0  0
    4.3648  -19.9538   21.4117 C   0  0  2  0  0  0  0  0  0  0  0  0
    3.6348  -21.0614   21.9400 N   0  0  0  0  0  0  0  0  0  0  0  0
    5.3661  -19.4111   22.3646 C   0  0  0  0  0  0  0  0  0  0  0  0
    6.2516  -18.6375   21.8958 O   0  0  0  0  0  0  0  0  0  0  0  0
    5.4046  -19.6896   23.7402 N   0  0  0  0  0  0  0  0  0  0  0  0
    6.4136  -19.1440   24.5885 C   0  0  0  0  0  0  0  0  0  0  0  0
    6.5691  -17.6735   24.4490 C   0  0  0  0  0  0  0  0  0  0  0  0
    5.6536  -16.8762   24.2156 O   0  0  0  0  0  0  0  0  0  0  0  0
    5.2959  -12.3926   26.7533 C   0  0  0  0  0  0  0  0  0  0  0  0
    7.0695  -12.6225   26.9623 S   0  0  0  0  0  0  0  0  0  0  0  0
    7.7002  -13.4829   25.4818 C   0  0  0  0  0  0  0  0  0  0  0  0
    7.5337  -14.9651   25.6636 C   0  0  0  0  0  0  0  0  0  0  0  0
    8.1071  -15.7131   24.4841 C   0  0  2  0  0  0  0  0  0  0  0  0
    7.8920  -17.1445   24.5991 N   0  0  0  0  0  0  0  0  0  0  0  0
    9.5928  -15.4700   24.4968 C   0  0  0  0  0  0  0  0  0  0  0  0
   10.1744  -14.4033   23.8249 O   0  0  0  0  0  0  0  0  0  0  0  0
   10.3602  -16.2340   25.1233 O   0  0  0  0  0  0  0  0  0  0  0  0
  2  1  1  0
  3  2  1  0
  4  3  1  0
  4  5  1  0
  5  7  1  0
  5  6  1  1
  7  8  2  0
  9  7  1  0
 10  9  1  0
 10 11  1  0
 11 12  2  0
 11 18  1  0
 14 13  1  0
 15 14  1  0
 16 15  1  0
 17 16  1  1
 18 17  1  0
 19 20  1  0
 19 17  1  0
 21 19  2  0
M  END
$$$$
