MGM.pdb
     RDKit          3D

 21 20  0  0  1  0  0  0  0  0999 V2000
    7.5541  -11.8535   25.3984 C   0  0  0  0  0  0  0  0  0  0  0  0
    6.7840  -12.8973   26.6461 S   0  0  0  0  0  0  0  0  0  0  0  0
    6.1407  -14.3987   25.8503 C   0  0  0  0  0  0  0  0  0  0  0  0
    7.3190  -15.1566   25.2848 C   0  0  0  0  0  0  0  0  0  0  0  0
    6.9308  -16.4170   24.5870 C   0  0  2  0  0  0  0  0  0  0  0  0
    6.2102  -17.3527   25.3894 N   0  0  0  0  0  0  0  0  0  0  0  0
    8.1516  -16.9983   23.9728 C   0  0  0  0  0  0  0  0  0  0  0  0
    8.7975  -17.8444   24.6578 O   0  0  0  0  0  0  0  0  0  0  0  0
    8.6411  -16.6821   22.6955 N   0  0  0  0  0  0  0  0  0  0  0  0
    9.6978  -15.7421   22.5081 C   0  0  0  0  0  0  0  0  0  0  0  0
   10.9623  -16.1352   23.1809 C   0  0  0  0  0  0  0  0  0  0  0  0
   12.1002  -15.8735   22.7747 O   0  0  0  0  0  0  0  0  0  0  0  0
    9.5599  -13.0017   28.1325 C   0  0  0  0  0  0  0  0  0  0  0  0
   10.1286  -14.5088   28.9371 S   0  0  0  0  0  0  0  0  0  0  0  0
   11.3031  -15.3350   27.8108 C   0  0  0  0  0  0  0  0  0  0  0  0
   10.5818  -15.7421   26.5572 C   0  0  0  0  0  0  0  0  0  0  0  0
   11.5303  -16.4109   25.5915 C   0  0  2  0  0  0  0  0  0  0  0  0
   10.8439  -16.8779   24.4002 N   0  0  0  0  0  0  0  0  0  0  0  0
   12.0921  -17.6151   26.2990 C   0  0  0  0  0  0  0  0  0  0  0  0
   12.9997  -17.5037   27.3437 O   0  0  0  0  0  0  0  0  0  0  0  0
   11.7524  -18.7709   25.9616 O   0  0  0  0  0  0  0  0  0  0  0  0
  2  1  1  0
  3  2  1  0
  4  3  1  0
  4  5  1  0
  5  7  1  0
  5  6  1  1
  7  8  2  0
  9  7  1  0
 10  9  1  0
 10 11  1  0
 11 12  2  0
 11 18  1  0
 14 13  1  0
 15 14  1  0
 16 15  1  0
 17 16  1  1
 18 17  1  0
 19 20  1  0
 19 17  1  0
 21 19  2  0
M  END
$$$$
