KTI.pdb
     RDKit          3D

 25 24  0  0  1  0  0  0  0  0999 V2000
    9.1992  -15.0874   19.2843 N   0  0  0  0  0  0  0  0  0  0  0  0
    8.3339  -14.1691   19.9941 C   0  0  1  0  0  0  0  0  0  0  0  0
    7.1150  -13.9453   19.1285 C   0  0  0  0  0  0  0  0  0  0  0  0
    7.5863  -13.2408   17.8740 C   0  0  0  0  0  0  0  0  0  0  0  0
    7.7984  -14.1997   16.7345 C   0  0  0  0  0  0  0  0  0  0  0  0
    8.2368  -13.4967   15.4718 C   0  0  0  0  0  0  0  0  0  0  0  0
    8.6517  -14.4447   14.4551 N   0  0  0  0  0  0  0  0  0  0  0  0
    8.0215  -14.7268   21.3073 C   0  0  0  0  0  0  0  0  0  0  0  0
    7.2461  -14.1004   22.0731 O   0  0  0  0  0  0  0  0  0  0  0  0
    7.6739  -18.7407   22.4092 C   0  0  0  0  0  0  0  0  0  0  0  0
    8.4894  -17.8804   23.3177 C   0  0  1  0  0  0  0  0  0  0  0  0
    9.8424  -18.1811   23.2449 O   0  0  0  0  0  0  0  0  0  0  0  0
    8.2096  -16.4039   23.1301 C   0  0  2  0  0  0  0  0  0  0  0  0
    8.5378  -15.9541   21.8020 N   0  0  0  0  0  0  0  0  0  0  0  0
    8.8913  -15.6042   24.1758 C   0  0  0  0  0  0  0  0  0  0  0  0
    9.9286  -14.9805   23.8587 O   0  0  0  0  0  0  0  0  0  0  0  0
    6.1496  -12.1424   26.6394 C   0  0  0  0  0  0  0  0  0  0  0  0
    7.3993  -12.8023   26.1693 C   0  0  0  0  0  0  0  0  0  0  0  0
    8.0871  -13.7512   27.0513 C   0  0  2  0  0  0  0  0  0  0  0  0
    8.6902  -13.0311   28.2759 C   0  0  0  0  0  0  0  0  0  0  0  0
    9.1025  -14.6911   26.5324 C   0  0  2  0  0  0  0  0  0  0  0  0
    8.4071  -15.5304   25.4978 N   0  0  0  0  0  0  0  0  0  0  0  0
    9.7045  -15.6196   27.4596 C   0  0  0  0  0  0  0  0  0  0  0  0
    9.4819  -16.9819   27.5101 O   0  0  0  0  0  0  0  0  0  0  0  0
   10.5349  -15.2055   28.3591 O   0  0  0  0  0  0  0  0  0  0  0  0
  2  1  1  6
  3  2  1  0
  3  4  1  0
  5  4  1  0
  5  6  1  0
  6  7  1  0
  8  9  2  0
  8  2  1  0
 11 10  1  6
 11 13  1  0
 12 11  1  0
 13 14  1  6
 14  8  1  0
 15 22  1  0
 15 13  1  0
 16 15  2  0
 18 17  1  0
 19 21  1  0
 19 18  1  0
 19 20  1  1
 21 22  1  6
 23 21  1  0
 24 23  1  0
 25 23  2  0
M  END
$$$$
