KTI.pdb
     RDKit          3D

 25 24  0  0  1  0  0  0  0  0999 V2000
   10.2882  -17.3843   18.2455 N   0  0  0  0  0  0  0  0  0  0  0  0
   10.3831  -17.5637   19.6788 C   0  0  1  0  0  0  0  0  0  0  0  0
   11.8525  -17.5516   20.0336 C   0  0  0  0  0  0  0  0  0  0  0  0
   12.3262  -18.9893   20.0068 C   0  0  0  0  0  0  0  0  0  0  0  0
   13.7897  -19.1072   20.3344 C   0  0  0  0  0  0  0  0  0  0  0  0
   14.2514  -20.5446   20.3728 C   0  0  0  0  0  0  0  0  0  0  0  0
   15.6850  -20.6347   20.5758 N   0  0  0  0  0  0  0  0  0  0  0  0
    9.6149  -16.5140   20.3428 C   0  0  0  0  0  0  0  0  0  0  0  0
    9.5440  -15.3757   19.8144 O   0  0  0  0  0  0  0  0  0  0  0  0
    6.1846  -15.7719   20.6284 C   0  0  0  0  0  0  0  0  0  0  0  0
    6.6764  -15.8157   22.0379 C   0  0  1  0  0  0  0  0  0  0  0  0
    6.2600  -16.9625   22.6997 O   0  0  0  0  0  0  0  0  0  0  0  0
    8.1707  -15.5930   22.1419 C   0  0  2  0  0  0  0  0  0  0  0  0
    8.9223  -16.6810   21.5717 N   0  0  0  0  0  0  0  0  0  0  0  0
    8.5631  -15.3169   23.5446 C   0  0  0  0  0  0  0  0  0  0  0  0
    9.5803  -15.8889   23.9958 O   0  0  0  0  0  0  0  0  0  0  0  0
    6.5393  -10.7067   26.0038 C   0  0  0  0  0  0  0  0  0  0  0  0
    7.5151  -11.7741   25.6479 C   0  0  0  0  0  0  0  0  0  0  0  0
    7.4072  -13.0895   26.2877 C   0  0  2  0  0  0  0  0  0  0  0  0
    7.5990  -12.9792   27.8151 C   0  0  0  0  0  0  0  0  0  0  0  0
    8.1962  -14.2457   25.8139 C   0  0  2  0  0  0  0  0  0  0  0  0
    7.8300  -14.4395   24.3694 N   0  0  0  0  0  0  0  0  0  0  0  0
    7.9815  -15.5218   26.4540 C   0  0  0  0  0  0  0  0  0  0  0  0
    6.9096  -16.3681   26.2472 O   0  0  0  0  0  0  0  0  0  0  0  0
    8.8288  -15.9749   27.3182 O   0  0  0  0  0  0  0  0  0  0  0  0
  2  1  1  6
  3  2  1  0
  3  4  1  0
  5  4  1  0
  5  6  1  0
  6  7  1  0
  8  9  2  0
  8  2  1  0
 11 10  1  6
 11 13  1  0
 12 11  1  0
 13 14  1  1
 14  8  1  0
 15 22  1  0
 15 13  1  0
 16 15  2  0
 18 17  1  0
 19 21  1  0
 19 18  1  0
 19 20  1  1
 21 22  1  6
 23 21  1  0
 24 23  1  0
 25 23  2  0
M  END
$$$$
