KTI.pdb
     RDKit          3D

 25 24  0  0  1  0  0  0  0  0999 V2000
   11.9263  -17.0500   19.4002 N   0  0  0  0  0  0  0  0  0  0  0  0
   10.9684  -17.6102   20.3299 C   0  0  1  0  0  0  0  0  0  0  0  0
   11.7308  -18.5312   21.2550 C   0  0  0  0  0  0  0  0  0  0  0  0
   12.9237  -19.0490   20.4797 C   0  0  0  0  0  0  0  0  0  0  0  0
   13.6919  -20.0859   21.2528 C   0  0  0  0  0  0  0  0  0  0  0  0
   14.8806  -20.6078   20.4811 C   0  0  0  0  0  0  0  0  0  0  0  0
   15.6759  -21.5163   21.2851 N   0  0  0  0  0  0  0  0  0  0  0  0
   10.2852  -16.5222   21.0243 C   0  0  0  0  0  0  0  0  0  0  0  0
   10.8506  -15.4039   21.1225 O   0  0  0  0  0  0  0  0  0  0  0  0
    6.7888  -14.8947   20.3807 C   0  0  0  0  0  0  0  0  0  0  0  0
    6.9291  -15.3267   21.8035 C   0  0  1  0  0  0  0  0  0  0  0  0
    6.1653  -16.4510   22.0845 O   0  0  0  0  0  0  0  0  0  0  0  0
    8.3748  -15.4840   22.2258 C   0  0  2  0  0  0  0  0  0  0  0  0
    8.9973  -16.6294   21.6138 N   0  0  0  0  0  0  0  0  0  0  0  0
    8.4896  -15.5082   23.7036 C   0  0  0  0  0  0  0  0  0  0  0  0
    9.1026  -16.4624   24.2320 O   0  0  0  0  0  0  0  0  0  0  0  0
    5.5718  -11.6981   26.9929 C   0  0  0  0  0  0  0  0  0  0  0  0
    6.2314  -12.7012   26.1114 C   0  0  0  0  0  0  0  0  0  0  0  0
    7.5000  -13.3049   26.5325 C   0  0  2  0  0  0  0  0  0  0  0  0
    8.6687  -12.3112   26.3629 C   0  0  0  0  0  0  0  0  0  0  0  0
    7.9410  -14.6164   26.0136 C   0  0  2  0  0  0  0  0  0  0  0  0
    7.9337  -14.4984   24.5154 N   0  0  0  0  0  0  0  0  0  0  0  0
    7.1379  -15.7747   26.3259 C   0  0  0  0  0  0  0  0  0  0  0  0
    6.2542  -16.4084   25.4741 O   0  0  0  0  0  0  0  0  0  0  0  0
    7.1957  -16.3187   27.4967 O   0  0  0  0  0  0  0  0  0  0  0  0
  2  1  1  6
  3  2  1  0
  3  4  1  0
  5  4  1  0
  5  6  1  0
  6  7  1  0
  8  9  2  0
  8  2  1  0
 11 10  1  6
 11 13  1  0
 12 11  1  0
 13 14  1  6
 14  8  1  0
 15 22  1  0
 15 13  1  0
 16 15  2  0
 18 17  1  0
 19 21  1  0
 19 18  1  0
 19 20  1  6
 21 22  1  6
 23 21  1  0
 24 23  1  0
 25 23  2  0
M  END
$$$$
