KTI.pdb
     RDKit          3D

 25 24  0  0  1  0  0  0  0  0999 V2000
    8.2023  -17.7864   18.3275 N   0  0  0  0  0  0  0  0  0  0  0  0
    8.5087  -16.6638   19.1887 C   0  0  1  0  0  0  0  0  0  0  0  0
    7.9118  -15.4326   18.5460 C   0  0  0  0  0  0  0  0  0  0  0  0
    8.9784  -14.3583   18.5725 C   0  0  0  0  0  0  0  0  0  0  0  0
    8.4487  -13.0263   18.1164 C   0  0  0  0  0  0  0  0  0  0  0  0
    9.5019  -11.9452   18.1702 C   0  0  0  0  0  0  0  0  0  0  0  0
    9.0319  -10.7176   17.5564 N   0  0  0  0  0  0  0  0  0  0  0  0
    7.9882  -16.9331   20.5265 C   0  0  0  0  0  0  0  0  0  0  0  0
    7.0969  -17.8068   20.6756 O   0  0  0  0  0  0  0  0  0  0  0  0
    7.4250  -19.0113   22.2763 C   0  0  0  0  0  0  0  0  0  0  0  0
    8.1312  -18.1397   23.2622 C   0  0  1  0  0  0  0  0  0  0  0  0
    9.4734  -18.4715   23.3836 O   0  0  0  0  0  0  0  0  0  0  0  0
    7.9175  -16.6644   22.9950 C   0  0  2  0  0  0  0  0  0  0  0  0
    8.4203  -16.2683   21.7050 N   0  0  0  0  0  0  0  0  0  0  0  0
    8.4857  -15.8453   24.0923 C   0  0  0  0  0  0  0  0  0  0  0  0
    9.6604  -15.4316   23.9719 O   0  0  0  0  0  0  0  0  0  0  0  0
    8.1084  -11.2464   26.8454 C   0  0  0  0  0  0  0  0  0  0  0  0
    7.2090  -12.3597   27.2578 C   0  0  0  0  0  0  0  0  0  0  0  0
    7.0922  -13.5447   26.4014 C   0  0  2  0  0  0  0  0  0  0  0  0
    5.8526  -14.3819   26.7814 C   0  0  0  0  0  0  0  0  0  0  0  0
    8.2254  -14.4736   26.2095 C   0  0  2  0  0  0  0  0  0  0  0  0
    7.7466  -15.5262   25.2497 N   0  0  0  0  0  0  0  0  0  0  0  0
    8.7237  -15.1837   27.3635 C   0  0  0  0  0  0  0  0  0  0  0  0
    9.6692  -14.7233   28.2591 O   0  0  0  0  0  0  0  0  0  0  0  0
    8.2934  -16.3700   27.6420 O   0  0  0  0  0  0  0  0  0  0  0  0
  2  1  1  6
  3  2  1  0
  3  4  1  0
  5  4  1  0
  5  6  1  0
  6  7  1  0
  8  9  2  0
  8  2  1  0
 11 10  1  6
 11 13  1  0
 12 11  1  0
 13 14  1  6
 14  8  1  0
 15 22  1  0
 15 13  1  0
 16 15  2  0
 18 17  1  0
 19 21  1  0
 19 18  1  0
 19 20  1  1
 21 22  1  6
 23 21  1  0
 24 23  1  0
 25 23  2  0
M  END
$$$$
