KTI.pdb
     RDKit          3D

 25 24  0  0  1  0  0  0  0  0999 V2000
    6.6460  -15.6146   18.8303 N   0  0  0  0  0  0  0  0  0  0  0  0
    7.6301  -15.0887   19.7526 C   0  0  1  0  0  0  0  0  0  0  0  0
    7.7719  -13.6125   19.4599 C   0  0  0  0  0  0  0  0  0  0  0  0
    9.1463  -13.1961   19.9393 C   0  0  0  0  0  0  0  0  0  0  0  0
   10.2424  -13.8114   19.1128 C   0  0  0  0  0  0  0  0  0  0  0  0
   11.6155  -13.4164   19.6018 C   0  0  0  0  0  0  0  0  0  0  0  0
   12.6588  -14.0276   18.8003 N   0  0  0  0  0  0  0  0  0  0  0  0
    7.2022  -15.3730   21.1198 C   0  0  0  0  0  0  0  0  0  0  0  0
    5.9981  -15.6581   21.3409 O   0  0  0  0  0  0  0  0  0  0  0  0
    6.2517  -17.6824   22.3829 C   0  0  0  0  0  0  0  0  0  0  0  0
    7.3270  -17.4006   23.3804 C   0  0  1  0  0  0  0  0  0  0  0  0
    8.4615  -18.1675   23.1543 O   0  0  0  0  0  0  0  0  0  0  0  0
    7.6370  -15.9234   23.5028 C   0  0  2  0  0  0  0  0  0  0  0  0
    8.0614  -15.3525   22.2507 N   0  0  0  0  0  0  0  0  0  0  0  0
    8.6171  -15.6817   24.5884 C   0  0  0  0  0  0  0  0  0  0  0  0
    9.8341  -15.6965   24.2982 O   0  0  0  0  0  0  0  0  0  0  0  0
    6.6228  -11.9635   27.6928 C   0  0  0  0  0  0  0  0  0  0  0  0
    7.6343  -12.7621   26.9464 C   0  0  0  0  0  0  0  0  0  0  0  0
    8.3854  -13.8082   27.6484 C   0  0  2  0  0  0  0  0  0  0  0  0
    9.3042  -13.1992   28.7287 C   0  0  0  0  0  0  0  0  0  0  0  0
    9.1639  -14.8261   26.9124 C   0  0  2  0  0  0  0  0  0  0  0  0
    8.2180  -15.4394   25.9187 N   0  0  0  0  0  0  0  0  0  0  0  0
    9.7226  -15.9261   27.6621 C   0  0  0  0  0  0  0  0  0  0  0  0
   10.9904  -15.9810   28.2077 O   0  0  0  0  0  0  0  0  0  0  0  0
    9.0295  -16.9957   27.8756 O   0  0  0  0  0  0  0  0  0  0  0  0
  2  1  1  6
  3  2  1  0
  3  4  1  0
  5  4  1  0
  5  6  1  0
  6  7  1  0
  8  9  2  0
  8  2  1  0
 11 10  1  6
 11 13  1  0
 12 11  1  0
 13 14  1  6
 14  8  1  0
 15 22  1  0
 15 13  1  0
 16 15  2  0
 18 17  1  0
 19 21  1  0
 19 18  1  0
 19 20  1  1
 21 22  1  6
 23 21  1  0
 24 23  1  0
 25 23  2  0
M  END
$$$$
