KTI.pdb
     RDKit          3D

 25 24  0  0  1  0  0  0  0  0999 V2000
    6.5178  -16.1967   19.0802 N   0  0  0  0  0  0  0  0  0  0  0  0
    7.6889  -15.5813   19.6680 C   0  0  1  0  0  0  0  0  0  0  0  0
    7.5374  -14.0863   19.5032 C   0  0  0  0  0  0  0  0  0  0  0  0
    6.9995  -13.8470   18.1083 C   0  0  0  0  0  0  0  0  0  0  0  0
    7.9739  -13.0865   17.2508 C   0  0  0  0  0  0  0  0  0  0  0  0
    8.3541  -13.8507   16.0050 C   0  0  0  0  0  0  0  0  0  0  0  0
    9.2050  -13.0584   15.1373 N   0  0  0  0  0  0  0  0  0  0  0  0
    7.8022  -16.0053   21.0609 C   0  0  0  0  0  0  0  0  0  0  0  0
    6.7604  -16.2892   21.7044 O   0  0  0  0  0  0  0  0  0  0  0  0
    9.7282  -18.9355   22.4132 C   0  0  0  0  0  0  0  0  0  0  0  0
   10.0412  -17.7635   23.2844 C   0  0  1  0  0  0  0  0  0  0  0  0
   11.3583  -17.3481   23.1456 O   0  0  0  0  0  0  0  0  0  0  0  0
    9.0517  -16.6297   23.1152 C   0  0  2  0  0  0  0  0  0  0  0  0
    9.0293  -16.1259   21.7663 N   0  0  0  0  0  0  0  0  0  0  0  0
    9.3069  -15.5587   24.1079 C   0  0  0  0  0  0  0  0  0  0  0  0
   10.1899  -14.7114   23.8475 O   0  0  0  0  0  0  0  0  0  0  0  0
    6.5077  -11.4137   27.1567 C   0  0  0  0  0  0  0  0  0  0  0  0
    7.6298  -12.3840   27.2896 C   0  0  0  0  0  0  0  0  0  0  0  0
    7.7099  -13.5217   26.3672 C   0  0  2  0  0  0  0  0  0  0  0  0
    6.4596  -14.4188   26.4855 C   0  0  0  0  0  0  0  0  0  0  0  0
    8.8968  -14.4011   26.3269 C   0  0  2  0  0  0  0  0  0  0  0  0
    8.5903  -15.4728   25.3190 N   0  0  0  0  0  0  0  0  0  0  0  0
    9.2728  -15.0896   27.5387 C   0  0  0  0  0  0  0  0  0  0  0  0
    9.2237  -16.4537   27.7508 O   0  0  0  0  0  0  0  0  0  0  0  0
    9.6984  -14.4296   28.5651 O   0  0  0  0  0  0  0  0  0  0  0  0
  2  1  1  1
  3  2  1  0
  3  4  1  0
  5  4  1  0
  5  6  1  0
  6  7  1  0
  8  9  2  0
  8  2  1  0
 11 10  1  6
 11 13  1  0
 12 11  1  0
 13 14  1  6
 14  8  1  0
 15 22  1  0
 15 13  1  0
 16 15  2  0
 18 17  1  0
 19 21  1  0
 19 18  1  0
 19 20  1  1
 21 22  1  6
 23 21  1  0
 24 23  1  0
 25 23  2  0
M  END
$$$$
