KTI.pdb
     RDKit          3D

 25 24  0  0  1  0  0  0  0  0999 V2000
   10.5539  -18.8460   20.5105 N   0  0  0  0  0  0  0  0  0  0  0  0
   11.3000  -17.6062   20.4658 C   0  0  1  0  0  0  0  0  0  0  0  0
   11.6464  -17.3459   19.0175 C   0  0  0  0  0  0  0  0  0  0  0  0
   10.9186  -18.3876   18.1943 C   0  0  0  0  0  0  0  0  0  0  0  0
   11.2318  -18.2673   16.7278 C   0  0  0  0  0  0  0  0  0  0  0  0
   10.3794  -19.1863   15.8855 C   0  0  0  0  0  0  0  0  0  0  0  0
   10.8019  -19.1759   14.4977 N   0  0  0  0  0  0  0  0  0  0  0  0
   10.4999  -16.5459   21.0729 C   0  0  0  0  0  0  0  0  0  0  0  0
   10.9343  -15.3664   21.0658 O   0  0  0  0  0  0  0  0  0  0  0  0
    6.8982  -15.3285   20.3255 C   0  0  0  0  0  0  0  0  0  0  0  0
    7.0517  -15.6354   21.7791 C   0  0  1  0  0  0  0  0  0  0  0  0
    6.3835  -16.7971   22.1399 O   0  0  0  0  0  0  0  0  0  0  0  0
    8.4985  -15.6325   22.2265 C   0  0  2  0  0  0  0  0  0  0  0  0
    9.2352  -16.7464   21.6879 N   0  0  0  0  0  0  0  0  0  0  0  0
    8.5899  -15.5639   23.7046 C   0  0  0  0  0  0  0  0  0  0  0  0
    9.3287  -16.3876   24.2886 O   0  0  0  0  0  0  0  0  0  0  0  0
    5.3933  -11.7270   26.6986 C   0  0  0  0  0  0  0  0  0  0  0  0
    6.0148  -12.9019   26.0266 C   0  0  0  0  0  0  0  0  0  0  0  0
    7.3831  -13.2929   26.3819 C   0  0  2  0  0  0  0  0  0  0  0  0
    8.3908  -12.1876   26.0016 C   0  0  0  0  0  0  0  0  0  0  0  0
    7.9506  -14.5896   25.9572 C   0  0  2  0  0  0  0  0  0  0  0  0
    7.8761  -14.6083   24.4563 N   0  0  0  0  0  0  0  0  0  0  0  0
    7.2954  -15.7960   26.4037 C   0  0  0  0  0  0  0  0  0  0  0  0
    7.5014  -16.4378   27.6094 O   0  0  0  0  0  0  0  0  0  0  0  0
    6.4273  -16.3895   25.6526 O   0  0  0  0  0  0  0  0  0  0  0  0
  2  1  1  6
  3  2  1  0
  3  4  1  0
  5  4  1  0
  5  6  1  0
  6  7  1  0
  8  9  2  0
  8  2  1  0
 11 10  1  6
 11 13  1  0
 12 11  1  0
 13 14  1  1
 14  8  1  0
 15 22  1  0
 15 13  1  0
 16 15  2  0
 18 17  1  0
 19 21  1  0
 19 18  1  0
 19 20  1  6
 21 22  1  6
 23 21  1  0
 24 23  1  0
 25 23  2  0
M  END
$$$$
