KTI.pdb
     RDKit          3D

 25 24  0  0  1  0  0  0  0  0999 V2000
    7.7231  -16.0118   19.1513 N   0  0  0  0  0  0  0  0  0  0  0  0
    8.4937  -15.1629   20.0351 C   0  0  1  0  0  0  0  0  0  0  0  0
    8.0342  -13.7418   19.8014 C   0  0  0  0  0  0  0  0  0  0  0  0
    7.5425  -13.6651   18.3715 C   0  0  0  0  0  0  0  0  0  0  0  0
    8.6784  -13.6075   17.3868 C   0  0  0  0  0  0  0  0  0  0  0  0
    8.3812  -14.3862   16.1274 C   0  0  0  0  0  0  0  0  0  0  0  0
    8.4224  -13.5324   14.9552 N   0  0  0  0  0  0  0  0  0  0  0  0
    8.3100  -15.6156   21.4114 C   0  0  0  0  0  0  0  0  0  0  0  0
    7.1453  -15.7764   21.8559 O   0  0  0  0  0  0  0  0  0  0  0  0
    9.0517  -18.8192   22.7583 C   0  0  0  0  0  0  0  0  0  0  0  0
    9.6523  -17.8688   23.7415 C   0  0  1  0  0  0  0  0  0  0  0  0
   11.0396  -17.9020   23.7178 O   0  0  0  0  0  0  0  0  0  0  0  0
    9.1006  -16.4648   23.6079 C   0  0  2  0  0  0  0  0  0  0  0  0
    9.3714  -15.8965   22.3127 N   0  0  0  0  0  0  0  0  0  0  0  0
    9.5894  -15.6024   24.7102 C   0  0  0  0  0  0  0  0  0  0  0  0
   10.5732  -14.8621   24.4878 O   0  0  0  0  0  0  0  0  0  0  0  0
    6.4887  -12.2646   26.8776 C   0  0  0  0  0  0  0  0  0  0  0  0
    7.7739  -12.9280   26.5220 C   0  0  0  0  0  0  0  0  0  0  0  0
    8.4039  -13.8380   27.4844 C   0  0  2  0  0  0  0  0  0  0  0  0
    8.8332  -13.0832   28.7602 C   0  0  0  0  0  0  0  0  0  0  0  0
    9.5137  -14.7308   27.0907 C   0  0  2  0  0  0  0  0  0  0  0  0
    8.9826  -15.5962   25.9827 N   0  0  0  0  0  0  0  0  0  0  0  0
   10.0422  -15.6353   28.0840 C   0  0  0  0  0  0  0  0  0  0  0  0
    9.8408  -17.0009   28.1334 O   0  0  0  0  0  0  0  0  0  0  0  0
   10.7760  -15.1934   29.0516 O   0  0  0  0  0  0  0  0  0  0  0  0
  2  1  1  6
  3  2  1  0
  3  4  1  0
  5  4  1  0
  5  6  1  0
  6  7  1  0
  8  9  2  0
  8  2  1  0
 11 10  1  6
 11 13  1  0
 12 11  1  0
 13 14  1  6
 14  8  1  0
 15 22  1  0
 15 13  1  0
 16 15  2  0
 18 17  1  0
 19 21  1  0
 19 18  1  0
 19 20  1  1
 21 22  1  6
 23 21  1  0
 24 23  1  0
 25 23  2  0
M  END
$$$$
