KTI.pdb
     RDKit          3D

 25 24  0  0  1  0  0  0  0  0999 V2000
    7.6888  -17.6102   18.8206 N   0  0  0  0  0  0  0  0  0  0  0  0
    8.2129  -16.4417   19.4955 C   0  0  1  0  0  0  0  0  0  0  0  0
    7.6425  -15.2291   18.7960 C   0  0  0  0  0  0  0  0  0  0  0  0
    8.4638  -15.0143   17.5423 C   0  0  0  0  0  0  0  0  0  0  0  0
    8.0317  -13.7862   16.7885 C   0  0  0  0  0  0  0  0  0  0  0  0
    8.8891  -13.5332   15.5713 C   0  0  0  0  0  0  0  0  0  0  0  0
    8.4408  -12.3616   14.8425 N   0  0  0  0  0  0  0  0  0  0  0  0
    7.8661  -16.5136   20.9124 C   0  0  0  0  0  0  0  0  0  0  0  0
    6.6639  -16.6696   21.2444 O   0  0  0  0  0  0  0  0  0  0  0  0
    8.0571  -19.0363   23.2625 C   0  0  0  0  0  0  0  0  0  0  0  0
    8.7579  -17.8982   23.9289 C   0  0  1  0  0  0  0  0  0  0  0  0
   10.1318  -18.0892   23.9783 O   0  0  0  0  0  0  0  0  0  0  0  0
    8.3771  -16.5547   23.3430 C   0  0  2  0  0  0  0  0  0  0  0  0
    8.8045  -16.4188   21.9746 N   0  0  0  0  0  0  0  0  0  0  0  0
    8.8758  -15.4502   24.1969 C   0  0  0  0  0  0  0  0  0  0  0  0
    9.9536  -14.8997   23.8792 O   0  0  0  0  0  0  0  0  0  0  0  0
    5.4051  -12.1164   27.2951 C   0  0  0  0  0  0  0  0  0  0  0  0
    6.2881  -13.2115   26.8057 C   0  0  0  0  0  0  0  0  0  0  0  0
    7.5951  -12.8783   26.2295 C   0  0  2  0  0  0  0  0  0  0  0  0
    7.4389  -12.2631   24.8227 C   0  0  0  0  0  0  0  0  0  0  0  0
    8.6891  -13.8700   26.1718 C   0  0  2  0  0  0  0  0  0  0  0  0
    8.1765  -15.0117   25.3398 N   0  0  0  0  0  0  0  0  0  0  0  0
    9.1426  -14.4531   27.4122 C   0  0  0  0  0  0  0  0  0  0  0  0
    9.8386  -13.8031   28.4127 O   0  0  0  0  0  0  0  0  0  0  0  0
    8.9167  -15.6981   27.6749 O   0  0  0  0  0  0  0  0  0  0  0  0
  2  1  1  6
  3  2  1  0
  3  4  1  0
  5  4  1  0
  5  6  1  0
  6  7  1  0
  8  9  2  0
  8  2  1  0
 11 10  1  6
 11 13  1  0
 12 11  1  0
 13 14  1  6
 14  8  1  0
 15 22  1  0
 15 13  1  0
 16 15  2  0
 18 17  1  0
 19 21  1  0
 19 18  1  0
 19 20  1  6
 21 22  1  6
 23 21  1  0
 24 23  1  0
 25 23  2  0
M  END
$$$$
