RFC.pdb
     RDKit          3D

 29 29  0  0  1  0  0  0  0  0999 V2000
    6.7683  -13.8129   15.1047 N   0  0  0  0  0  0  0  0  0  0  0  0
    8.0989  -13.7191   15.6089 C   0  0  0  0  0  0  0  0  0  0  0  0
    9.0499  -13.6576   14.7239 N   0  0  0  0  0  0  0  0  0  0  0  0
    8.3440  -13.6959   17.0024 N   0  0  0  0  0  0  0  0  0  0  0  0
    8.1703  -14.8820   17.7711 C   0  0  0  0  0  0  0  0  0  0  0  0
    7.1061  -14.7629   18.8294 C   0  0  0  0  0  0  0  0  0  0  0  0
    7.6050  -14.0419   20.0630 C   0  0  0  0  0  0  0  0  0  0  0  0
    8.6438  -14.9266   20.7190 C   0  0  2  0  0  0  0  0  0  0  0  0
    8.2334  -16.2976   20.4966 N   0  0  0  0  0  0  0  0  0  0  0  0
    8.7231  -14.7000   22.1791 C   0  0  0  0  0  0  0  0  0  0  0  0
    8.7041  -13.5324   22.6343 O   0  0  0  0  0  0  0  0  0  0  0  0
   10.0542  -13.5557   15.0040 N   0  0  0  0  0  0  0  0  0  0  0  0
    8.8223  -15.7595   23.1226 C   0  0  1  0  0  0  0  0  0  0  0  0
    8.6762  -15.6139   24.5352 C   0  0  0  0  0  0  0  0  0  0  0  0
    7.2306  -15.1510   24.7653 C   0  0  0  0  0  0  0  0  0  0  0  0
    7.1877  -13.7761   25.3047 C   0  0  0  0  0  0  0  0  0  0  0  0
    7.2798  -12.6553   24.5061 C   0  0  0  0  0  0  0  0  0  0  0  0
    7.2397  -11.3798   25.0111 C   0  0  0  0  0  0  0  0  0  0  0  0
    7.1029  -11.1749   26.3626 C   0  0  0  0  0  0  0  0  0  0  0  0
    7.0090  -12.2773   27.1799 C   0  0  0  0  0  0  0  0  0  0  0  0
    7.0511  -13.5693   26.6544 C   0  0  0  0  0  0  0  0  0  0  0  0
    8.8587  -16.8577   25.3081 O   0  0  0  0  0  0  0  0  0  0  0  0
    8.1716  -17.0413   26.3610 N   0  0  0  0  0  0  0  0  0  0  0  0
    9.7601  -17.8839   24.9550 C   0  0  2  0  0  0  0  0  0  0  0  0
   11.0499  -18.0607   25.6247 C   0  0  0  0  0  0  0  0  0  0  0  0
   11.8916  -16.7907   25.4656 S   0  0  0  0  0  0  0  0  0  0  0  0
   12.5748  -16.8139   23.7922 C   0  0  0  0  0  0  0  0  0  0  0  0
   10.7663  -18.1553   27.0754 O   0  0  0  0  0  0  0  0  0  0  0  0
   11.7428  -18.5060   27.8164 O   0  0  0  0  0  0  0  0  0  0  0  0
  1  2  1  0
  2  3  2  0
  4  5  1  0
  4  2  1  0
  6  5  1  0
  7  6  1  0
  8 10  1  0
  8  7  1  0
  8  9  1  1
 10 11  2  0
 12 13  1  0
 12 10  1  0
 14 15  1  0
 13 14  1  1
 15 16  2  0
 16 17  1  0
 18 17  2  0
 19 18  1  0
 20 19  2  0
 20 15  1  0
 21 22  2  0
 21 13  1  0
 23 21  1  0
 24 23  1  0
 24 27  1  0
 24 25  1  6
 26 25  1  0
 27 29  1  0
 28 27  2  0
M  END
$$$$
