RFC.pdb
     RDKit          3D

 29 29  0  0  1  0  0  0  0  0999 V2000
    9.1359  -20.6669   16.5514 N   0  0  0  0  0  0  0  0  0  0  0  0
    9.4534  -19.5497   15.7240 C   0  0  0  0  0  0  0  0  0  0  0  0
   10.1898  -19.7937   14.6802 N   0  0  0  0  0  0  0  0  0  0  0  0
    8.9798  -18.2552   16.0441 N   0  0  0  0  0  0  0  0  0  0  0  0
    8.3061  -18.0336   17.2790 C   0  0  0  0  0  0  0  0  0  0  0  0
    9.1374  -17.2949   18.2939 C   0  0  0  0  0  0  0  0  0  0  0  0
    8.3967  -17.0876   19.5973 C   0  0  0  0  0  0  0  0  0  0  0  0
    9.3397  -17.4602   20.7216 C   0  0  2  0  0  0  0  0  0  0  0  0
    8.7869  -18.6333   21.3664 N   0  0  0  0  0  0  0  0  0  0  0  0
    9.4485  -16.3860   21.7334 C   0  0  0  0  0  0  0  0  0  0  0  0
   10.3797  -15.5501   21.6626 O   0  0  0  0  0  0  0  0  0  0  0  0
   10.5527  -19.0216   14.0722 N   0  0  0  0  0  0  0  0  0  0  0  0
    8.5325  -16.2427   22.8118 C   0  0  1  0  0  0  0  0  0  0  0  0
    8.6490  -15.2834   23.8626 C   0  0  0  0  0  0  0  0  0  0  0  0
    7.2128  -14.8944   24.2410 C   0  0  0  0  0  0  0  0  0  0  0  0
    7.1961  -13.7452   25.1696 C   0  0  0  0  0  0  0  0  0  0  0  0
    7.8955  -12.5805   24.9320 C   0  0  0  0  0  0  0  0  0  0  0  0
    7.8774  -11.5152   25.7972 C   0  0  0  0  0  0  0  0  0  0  0  0
    7.1430  -11.5780   26.9566 C   0  0  0  0  0  0  0  0  0  0  0  0
    6.4368  -12.7296   27.2157 C   0  0  0  0  0  0  0  0  0  0  0  0
    6.4631  -13.8060   26.3282 C   0  0  0  0  0  0  0  0  0  0  0  0
    9.2972  -15.7848   25.0897 O   0  0  0  0  0  0  0  0  0  0  0  0
    9.2353  -17.0241   25.3633 N   0  0  0  0  0  0  0  0  0  0  0  0
    9.9994  -14.9706   26.0033 C   0  0  2  0  0  0  0  0  0  0  0  0
   10.9968  -15.5097   26.9296 C   0  0  0  0  0  0  0  0  0  0  0  0
   11.5282  -14.3866   27.8256 S   0  0  0  0  0  0  0  0  0  0  0  0
   10.1142  -13.3552   28.2777 C   0  0  0  0  0  0  0  0  0  0  0  0
   10.2763  -16.4243   27.8451 O   0  0  0  0  0  0  0  0  0  0  0  0
    9.0123  -16.4909   27.6919 O   0  0  0  0  0  0  0  0  0  0  0  0
  1  2  1  0
  2  3  2  0
  4  5  1  0
  4  2  1  0
  6  5  1  0
  7  6  1  0
  8 10  1  0
  8  7  1  0
  8  9  1  1
 10 11  2  0
 12 13  1  0
 12 10  1  0
 14 15  1  0
 13 14  1  6
 15 16  2  0
 16 17  1  0
 18 17  2  0
 19 18  1  0
 20 19  2  0
 20 15  1  0
 21 22  2  0
 21 13  1  0
 23 21  1  0
 24 23  1  0
 24 27  1  0
 24 25  1  6
 26 25  1  0
 27 29  1  0
 28 27  2  0
M  END
$$$$
