RFC.pdb
     RDKit          3D

 29 29  0  0  1  0  0  0  0  0999 V2000
   12.1064  -17.2918   16.4717 N   0  0  0  0  0  0  0  0  0  0  0  0
   10.9554  -18.1194   16.3169 C   0  0  0  0  0  0  0  0  0  0  0  0
   10.7209  -18.5656   15.1179 N   0  0  0  0  0  0  0  0  0  0  0  0
   10.1293  -18.4237   17.4247 N   0  0  0  0  0  0  0  0  0  0  0  0
    9.5126  -17.3701   18.1579 C   0  0  0  0  0  0  0  0  0  0  0  0
   10.3990  -16.7773   19.2207 C   0  0  0  0  0  0  0  0  0  0  0  0
   10.0405  -17.2721   20.6052 C   0  0  0  0  0  0  0  0  0  0  0  0
    8.9764  -16.3481   21.1581 C   0  0  2  0  0  0  0  0  0  0  0  0
    9.0074  -15.1408   20.3588 N   0  0  0  0  0  0  0  0  0  0  0  0
    9.2413  -15.9762   22.5656 C   0  0  0  0  0  0  0  0  0  0  0  0
   10.2620  -15.3094   22.8564 O   0  0  0  0  0  0  0  0  0  0  0  0
    9.9703  -19.2726   14.9327 N   0  0  0  0  0  0  0  0  0  0  0  0
    8.3813  -16.3414   23.6378 C   0  0  1  0  0  0  0  0  0  0  0  0
    8.6491  -16.1025   25.0195 C   0  0  0  0  0  0  0  0  0  0  0  0
    7.3007  -15.7333   25.6539 C   0  0  0  0  0  0  0  0  0  0  0  0
    7.1674  -14.2707   25.8159 C   0  0  0  0  0  0  0  0  0  0  0  0
    6.8878  -13.4234   24.7642 C   0  0  0  0  0  0  0  0  0  0  0  0
    6.7649  -12.0652   24.9188 C   0  0  0  0  0  0  0  0  0  0  0  0
    6.9206  -11.4932   26.1582 C   0  0  0  0  0  0  0  0  0  0  0  0
    7.2000  -12.3179   27.2230 C   0  0  0  0  0  0  0  0  0  0  0  0
    7.3226  -13.6975   27.0530 C   0  0  0  0  0  0  0  0  0  0  0  0
    9.1689  -17.2684   25.7600 O   0  0  0  0  0  0  0  0  0  0  0  0
    8.7252  -18.4269   25.4858 N   0  0  0  0  0  0  0  0  0  0  0  0
   10.1473  -17.1902   26.7736 C   0  0  1  0  0  0  0  0  0  0  0  0
   10.7318  -18.3805   27.3938 C   0  0  0  0  0  0  0  0  0  0  0  0
   12.2557  -18.3456   27.2413 S   0  0  0  0  0  0  0  0  0  0  0  0
   12.6131  -18.4239   25.4710 C   0  0  0  0  0  0  0  0  0  0  0  0
   10.4879  -18.2644   28.8502 O   0  0  0  0  0  0  0  0  0  0  0  0
    9.8718  -17.2163   29.2342 O   0  0  0  0  0  0  0  0  0  0  0  0
  1  2  1  0
  2  3  2  0
  4  5  1  0
  4  2  1  0
  6  5  1  0
  7  6  1  0
  8 10  1  0
  8  7  1  0
  8  9  1  6
 10 11  2  0
 12 13  1  0
 12 10  1  0
 14 15  1  0
 13 14  1  1
 15 16  2  0
 16 17  1  0
 18 17  2  0
 19 18  1  0
 20 19  2  0
 20 15  1  0
 21 22  2  0
 21 13  1  0
 23 21  1  0
 24 23  1  0
 24 27  1  0
 24 25  1  1
 26 25  1  0
 27 29  1  0
 28 27  2  0
M  END
$$$$
