RFC.pdb
     RDKit          3D

 29 29  0  0  1  0  0  0  0  0999 V2000
    8.2203  -13.5043   14.9006 N   0  0  0  0  0  0  0  0  0  0  0  0
    8.5702  -14.6403   15.6885 C   0  0  0  0  0  0  0  0  0  0  0  0
    8.1757  -15.7968   15.2430 N   0  0  0  0  0  0  0  0  0  0  0  0
    9.3076  -14.4898   16.8868 N   0  0  0  0  0  0  0  0  0  0  0  0
    9.0602  -13.3723   17.7341 C   0  0  0  0  0  0  0  0  0  0  0  0
    7.8148  -13.5136   18.5683 C   0  0  0  0  0  0  0  0  0  0  0  0
    8.1084  -13.4376   20.0510 C   0  0  0  0  0  0  0  0  0  0  0  0
    8.4991  -14.8264   20.5099 C   0  0  2  0  0  0  0  0  0  0  0  0
    7.3240  -15.6624   20.3768 N   0  0  0  0  0  0  0  0  0  0  0  0
    8.9192  -14.8441   21.9286 C   0  0  0  0  0  0  0  0  0  0  0  0
    9.9835  -14.2795   22.2743 O   0  0  0  0  0  0  0  0  0  0  0  0
    8.3908  -16.6846   15.7558 N   0  0  0  0  0  0  0  0  0  0  0  0
    8.1648  -15.4821   22.9515 C   0  0  1  0  0  0  0  0  0  0  0  0
    8.5167  -15.5048   24.3348 C   0  0  0  0  0  0  0  0  0  0  0  0
    7.1951  -15.3994   25.1091 C   0  0  0  0  0  0  0  0  0  0  0  0
    6.9959  -14.0372   25.6458 C   0  0  0  0  0  0  0  0  0  0  0  0
    5.8760  -13.2806   25.3708 C   0  0  0  0  0  0  0  0  0  0  0  0
    5.6947  -12.0156   25.8713 C   0  0  0  0  0  0  0  0  0  0  0  0
    6.6480  -11.4495   26.6827 C   0  0  0  0  0  0  0  0  0  0  0  0
    7.7741  -12.1847   26.9714 C   0  0  0  0  0  0  0  0  0  0  0  0
    7.9469  -13.4701   26.4564 C   0  0  0  0  0  0  0  0  0  0  0  0
    9.1818  -16.7431   24.7842 O   0  0  0  0  0  0  0  0  0  0  0  0
    8.6921  -17.8673   24.4516 N   0  0  0  0  0  0  0  0  0  0  0  0
   10.3508  -16.7719   25.5737 C   0  0  1  0  0  0  0  0  0  0  0  0
   11.0198  -18.0214   25.9404 C   0  0  0  0  0  0  0  0  0  0  0  0
   12.5385  -17.8322   25.8722 S   0  0  0  0  0  0  0  0  0  0  0  0
   13.2904  -19.3444   26.5166 C   0  0  0  0  0  0  0  0  0  0  0  0
   10.7252  -18.2571   27.3727 O   0  0  0  0  0  0  0  0  0  0  0  0
   10.6316  -17.2175   28.1049 O   0  0  0  0  0  0  0  0  0  0  0  0
  1  2  1  0
  2  3  2  0
  4  5  1  0
  4  2  1  0
  6  5  1  0
  7  6  1  0
  8 10  1  0
  8  7  1  0
  8  9  1  1
 10 11  2  0
 12 13  1  0
 12 10  1  0
 14 15  1  0
 13 14  1  1
 15 16  2  0
 16 17  1  0
 18 17  2  0
 19 18  1  0
 20 19  2  0
 20 15  1  0
 21 22  2  0
 21 13  1  0
 23 21  1  0
 24 23  1  0
 24 27  1  0
 24 25  1  1
 26 25  1  0
 27 29  1  0
 28 27  2  0
M  END
$$$$
