RFC.pdb
     RDKit          3D

 29 29  0  0  1  0  0  0  0  0999 V2000
    7.2695  -17.6172   15.5193 N   0  0  0  0  0  0  0  0  0  0  0  0
    6.9359  -18.4728   16.6102 C   0  0  0  0  0  0  0  0  0  0  0  0
    5.6710  -18.7187   16.7867 N   0  0  0  0  0  0  0  0  0  0  0  0
    7.9463  -19.0123   17.4411 N   0  0  0  0  0  0  0  0  0  0  0  0
    7.6000  -19.5699   18.7050 C   0  0  0  0  0  0  0  0  0  0  0  0
    7.5930  -18.5639   19.8251 C   0  0  0  0  0  0  0  0  0  0  0  0
    8.9907  -18.2176   20.2909 C   0  0  0  0  0  0  0  0  0  0  0  0
    9.1455  -16.7150   20.1901 C   0  0  2  0  0  0  0  0  0  0  0  0
   10.3243  -16.4640   19.3870 N   0  0  0  0  0  0  0  0  0  0  0  0
    9.3481  -16.0881   21.5150 C   0  0  0  0  0  0  0  0  0  0  0  0
   10.4359  -16.2374   22.1195 O   0  0  0  0  0  0  0  0  0  0  0  0
    5.3352  -19.3343   17.5650 N   0  0  0  0  0  0  0  0  0  0  0  0
    8.3528  -15.3039   22.1607 C   0  0  2  0  0  0  0  0  0  0  0  0
    8.4801  -14.7286   23.4609 C   0  0  0  0  0  0  0  0  0  0  0  0
    7.2169  -13.8825   23.6745 C   0  0  0  0  0  0  0  0  0  0  0  0
    7.2322  -13.2209   24.9956 C   0  0  0  0  0  0  0  0  0  0  0  0
    6.4306  -13.6228   26.0435 C   0  0  0  0  0  0  0  0  0  0  0  0
    6.4478  -13.0055   27.2692 C   0  0  0  0  0  0  0  0  0  0  0  0
    7.2857  -11.9406   27.4957 C   0  0  0  0  0  0  0  0  0  0  0  0
    8.0951  -11.5212   26.4656 C   0  0  0  0  0  0  0  0  0  0  0  0
    8.0685  -12.1571   25.2238 C   0  0  0  0  0  0  0  0  0  0  0  0
    8.5374  -15.7041   24.5668 O   0  0  0  0  0  0  0  0  0  0  0  0
    7.6199  -16.5764   24.6740 N   0  0  0  0  0  0  0  0  0  0  0  0
    9.5615  -15.7419   25.5365 C   0  0  1  0  0  0  0  0  0  0  0  0
    9.6679  -16.8172   26.5243 C   0  0  0  0  0  0  0  0  0  0  0  0
   10.8247  -17.7488   26.1495 S   0  0  0  0  0  0  0  0  0  0  0  0
   12.2433  -16.7002   25.7548 C   0  0  0  0  0  0  0  0  0  0  0  0
   10.0804  -16.1847   27.7986 O   0  0  0  0  0  0  0  0  0  0  0  0
   10.3191  -14.9331   27.7525 O   0  0  0  0  0  0  0  0  0  0  0  0
  1  2  1  0
  2  3  2  0
  4  5  1  0
  4  2  1  0
  6  5  1  0
  7  6  1  0
  8 10  1  0
  8  7  1  0
  8  9  1  6
 10 11  2  0
 12 13  1  0
 12 10  1  0
 14 15  1  0
 13 14  1  6
 15 16  2  0
 16 17  1  0
 18 17  2  0
 19 18  1  0
 20 19  2  0
 20 15  1  0
 21 22  2  0
 21 13  1  0
 23 21  1  0
 24 23  1  0
 24 27  1  0
 24 25  1  1
 26 25  1  0
 27 29  1  0
 28 27  2  0
M  END
$$$$
