RFC.pdb
     RDKit          3D

 29 29  0  0  1  0  0  0  0  0999 V2000
    7.6687  -13.4839   17.8097 N   0  0  0  0  0  0  0  0  0  0  0  0
    8.5298  -13.8589   16.7367 C   0  0  0  0  0  0  0  0  0  0  0  0
    8.2859  -13.3132   15.5816 N   0  0  0  0  0  0  0  0  0  0  0  0
    9.5857  -14.7778   16.9443 N   0  0  0  0  0  0  0  0  0  0  0  0
    9.9803  -15.1141   18.2706 C   0  0  0  0  0  0  0  0  0  0  0  0
    9.7082  -16.5497   18.6337 C   0  0  0  0  0  0  0  0  0  0  0  0
    8.6435  -16.6771   19.7017 C   0  0  0  0  0  0  0  0  0  0  0  0
    9.3180  -17.1813   20.9598 C   0  0  2  0  0  0  0  0  0  0  0  0
    8.4692  -18.2186   21.5084 N   0  0  0  0  0  0  0  0  0  0  0  0
    9.4612  -16.1164   21.9772 C   0  0  0  0  0  0  0  0  0  0  0  0
   10.4099  -15.3009   21.9020 O   0  0  0  0  0  0  0  0  0  0  0  0
    8.7940  -13.6119   14.7155 N   0  0  0  0  0  0  0  0  0  0  0  0
    8.5597  -15.9599   23.0661 C   0  0  1  0  0  0  0  0  0  0  0  0
    8.6316  -14.9240   24.0456 C   0  0  0  0  0  0  0  0  0  0  0  0
    7.3098  -14.9859   24.8242 C   0  0  0  0  0  0  0  0  0  0  0  0
    7.1512  -13.8102   25.7050 C   0  0  0  0  0  0  0  0  0  0  0  0
    6.7903  -12.5652   25.2340 C   0  0  0  0  0  0  0  0  0  0  0  0
    6.6441  -11.4755   26.0555 C   0  0  0  0  0  0  0  0  0  0  0  0
    6.8584  -11.5946   27.4073 C   0  0  0  0  0  0  0  0  0  0  0  0
    7.2194  -12.8267   27.9011 C   0  0  0  0  0  0  0  0  0  0  0  0
    7.3648  -13.9272   27.0555 C   0  0  0  0  0  0  0  0  0  0  0  0
    9.7196  -15.0775   25.0306 O   0  0  0  0  0  0  0  0  0  0  0  0
   10.6599  -14.2233   25.0559 N   0  0  0  0  0  0  0  0  0  0  0  0
    9.7942  -16.1270   25.9705 C   0  0  1  0  0  0  0  0  0  0  0  0
   10.6673  -16.0693   27.1441 C   0  0  0  0  0  0  0  0  0  0  0  0
   10.0899  -15.0874   28.1684 S   0  0  0  0  0  0  0  0  0  0  0  0
   11.1912  -15.1081   29.6017 C   0  0  0  0  0  0  0  0  0  0  0  0
   10.5902  -17.3965   27.7973 O   0  0  0  0  0  0  0  0  0  0  0  0
    9.4594  -17.9830   27.7446 O   0  0  0  0  0  0  0  0  0  0  0  0
  1  2  1  0
  2  3  2  0
  4  5  1  0
  4  2  1  0
  6  5  1  0
  7  6  1  0
  8 10  1  0
  8  7  1  0
  8  9  1  1
 10 11  2  0
 12 13  1  0
 12 10  1  0
 14 15  1  0
 13 14  1  1
 15 16  2  0
 16 17  1  0
 18 17  2  0
 19 18  1  0
 20 19  2  0
 20 15  1  0
 21 22  2  0
 21 13  1  0
 23 21  1  0
 24 23  1  0
 24 27  1  0
 24 25  1  6
 26 25  1  0
 27 29  1  0
 28 27  2  0
M  END
$$$$
