RFC.pdb
     RDKit          3D

 29 29  0  0  1  0  0  0  0  0999 V2000
    6.2499  -19.7828   18.8223 N   0  0  0  0  0  0  0  0  0  0  0  0
    7.1914  -20.8429   18.6695 C   0  0  0  0  0  0  0  0  0  0  0  0
    7.3781  -21.2807   17.4591 N   0  0  0  0  0  0  0  0  0  0  0  0
    7.8727  -21.3722   19.7912 N   0  0  0  0  0  0  0  0  0  0  0  0
    8.4039  -20.4918   20.7764 C   0  0  0  0  0  0  0  0  0  0  0  0
    9.3916  -19.4979   20.2257 C   0  0  0  0  0  0  0  0  0  0  0  0
    9.9520  -18.5929   21.3016 C   0  0  0  0  0  0  0  0  0  0  0  0
    9.7741  -17.1642   20.8336 C   0  0  2  0  0  0  0  0  0  0  0  0
   10.8722  -16.8732   19.9353 N   0  0  0  0  0  0  0  0  0  0  0  0
    9.8291  -16.2018   21.9562 C   0  0  0  0  0  0  0  0  0  0  0  0
   10.9326  -15.8943   22.4648 O   0  0  0  0  0  0  0  0  0  0  0  0
    8.0398  -22.0670   17.2561 N   0  0  0  0  0  0  0  0  0  0  0  0
    8.6706  -15.5881   22.5073 C   0  0  2  0  0  0  0  0  0  0  0  0
    8.6399  -14.8417   23.7237 C   0  0  0  0  0  0  0  0  0  0  0  0
    7.2444  -14.2055   23.7944 C   0  0  0  0  0  0  0  0  0  0  0  0
    7.0510  -13.4780   25.0658 C   0  0  0  0  0  0  0  0  0  0  0  0
    6.3133  -13.9864   26.1145 C   0  0  0  0  0  0  0  0  0  0  0  0
    6.1360  -13.3074   27.2940 C   0  0  0  0  0  0  0  0  0  0  0  0
    6.7025  -12.0684   27.4708 C   0  0  0  0  0  0  0  0  0  0  0  0
    7.4429  -11.5401   26.4389 C   0  0  0  0  0  0  0  0  0  0  0  0
    7.6160  -12.2403   25.2444 C   0  0  0  0  0  0  0  0  0  0  0  0
    8.8090  -15.6469   24.9487 O   0  0  0  0  0  0  0  0  0  0  0  0
    8.1566  -16.7298   25.0754 N   0  0  0  0  0  0  0  0  0  0  0  0
    9.6635  -15.2958   26.0151 C   0  0  2  0  0  0  0  0  0  0  0  0
   10.3821  -16.2956   26.8071 C   0  0  0  0  0  0  0  0  0  0  0  0
   11.7649  -15.7564   27.1860 S   0  0  0  0  0  0  0  0  0  0  0  0
   11.5381  -14.0443   27.7199 C   0  0  0  0  0  0  0  0  0  0  0  0
    9.6542  -16.4246   28.0906 O   0  0  0  0  0  0  0  0  0  0  0  0
    8.6044  -15.7118   28.2146 O   0  0  0  0  0  0  0  0  0  0  0  0
  1  2  1  0
  2  3  2  0
  4  5  1  0
  4  2  1  0
  6  5  1  0
  7  6  1  0
  8 10  1  0
  8  7  1  0
  8  9  1  6
 10 11  2  0
 12 13  1  0
 12 10  1  0
 14 15  1  0
 13 14  1  6
 15 16  2  0
 16 17  1  0
 18 17  2  0
 19 18  1  0
 20 19  2  0
 20 15  1  0
 21 22  2  0
 21 13  1  0
 23 21  1  0
 24 23  1  0
 24 27  1  0
 24 25  1  1
 26 25  1  0
 27 29  1  0
 28 27  2  0
M  END
$$$$
