RFC.pdb
     RDKit          3D

 29 29  0  0  1  0  0  0  0  0999 V2000
    9.6127  -14.5669   16.4495 N   0  0  0  0  0  0  0  0  0  0  0  0
    8.3077  -14.0235   16.2623 C   0  0  0  0  0  0  0  0  0  0  0  0
    7.8562  -14.0101   15.0427 N   0  0  0  0  0  0  0  0  0  0  0  0
    7.5646  -13.5318   17.3616 N   0  0  0  0  0  0  0  0  0  0  0  0
    7.8996  -13.9438   18.6830 C   0  0  0  0  0  0  0  0  0  0  0  0
    8.1011  -15.4298   18.8172 C   0  0  0  0  0  0  0  0  0  0  0  0
    9.5213  -15.7812   19.2043 C   0  0  0  0  0  0  0  0  0  0  0  0
    9.4651  -16.5125   20.5287 C   0  0  2  0  0  0  0  0  0  0  0  0
    8.1927  -17.2027   20.5774 N   0  0  0  0  0  0  0  0  0  0  0  0
    9.5301  -15.5835   21.6785 C   0  0  0  0  0  0  0  0  0  0  0  0
   10.5449  -14.8682   21.8500 O   0  0  0  0  0  0  0  0  0  0  0  0
    6.9120  -13.6196   14.8114 N   0  0  0  0  0  0  0  0  0  0  0  0
    8.4788  -15.4510   22.6271 C   0  0  1  0  0  0  0  0  0  0  0  0
    8.4670  -14.5225   23.7113 C   0  0  0  0  0  0  0  0  0  0  0  0
    6.9877  -14.2404   24.0104 C   0  0  0  0  0  0  0  0  0  0  0  0
    6.8396  -13.2853   25.1279 C   0  0  0  0  0  0  0  0  0  0  0  0
    7.1186  -11.9402   25.0051 C   0  0  0  0  0  0  0  0  0  0  0  0
    6.9798  -11.0562   26.0457 C   0  0  0  0  0  0  0  0  0  0  0  0
    6.5476  -11.4954   27.2735 C   0  0  0  0  0  0  0  0  0  0  0  0
    6.2630  -12.8331   27.4209 C   0  0  0  0  0  0  0  0  0  0  0  0
    6.4081  -13.7221   26.3551 C   0  0  0  0  0  0  0  0  0  0  0  0
    9.0716  -15.0223   24.9612 O   0  0  0  0  0  0  0  0  0  0  0  0
    9.1777  -14.2396   25.9565 N   0  0  0  0  0  0  0  0  0  0  0  0
    9.5508  -16.3374   25.1380 C   0  0  1  0  0  0  0  0  0  0  0  0
   10.2276  -16.7684   26.3626 C   0  0  0  0  0  0  0  0  0  0  0  0
    9.2186  -17.4378   27.3009 S   0  0  0  0  0  0  0  0  0  0  0  0
   10.1491  -18.0691   28.7163 C   0  0  0  0  0  0  0  0  0  0  0  0
   11.1654  -17.8467   25.9732 O   0  0  0  0  0  0  0  0  0  0  0  0
   10.9871  -18.3554   24.8177 O   0  0  0  0  0  0  0  0  0  0  0  0
  1  2  1  0
  2  3  2  0
  4  5  1  0
  4  2  1  0
  6  5  1  0
  7  6  1  0
  8 10  1  0
  8  7  1  0
  8  9  1  6
 10 11  2  0
 12 13  1  0
 12 10  1  0
 14 15  1  0
 13 14  1  1
 15 16  2  0
 16 17  1  0
 18 17  2  0
 19 18  1  0
 20 19  2  0
 20 15  1  0
 21 22  2  0
 21 13  1  0
 23 21  1  0
 24 23  1  0
 24 27  1  0
 24 25  1  6
 26 25  1  0
 27 29  1  0
 28 27  2  0
M  END
$$$$
