RFC.pdb
     RDKit          3D

 29 29  0  0  1  0  0  0  0  0999 V2000
    8.1881  -14.7045   15.0540 N   0  0  0  0  0  0  0  0  0  0  0  0
    8.0949  -14.1124   16.3479 C   0  0  0  0  0  0  0  0  0  0  0  0
    8.8228  -13.0544   16.5536 N   0  0  0  0  0  0  0  0  0  0  0  0
    7.2480  -14.6660   17.3371 N   0  0  0  0  0  0  0  0  0  0  0  0
    7.7531  -15.6561   18.2274 C   0  0  0  0  0  0  0  0  0  0  0  0
    8.3788  -15.0839   19.4715 C   0  0  0  0  0  0  0  0  0  0  0  0
    9.8644  -15.3631   19.5443 C   0  0  0  0  0  0  0  0  0  0  0  0
   10.0928  -16.3179   20.6968 C   0  0  2  0  0  0  0  0  0  0  0  0
    9.0228  -17.2931   20.6569 N   0  0  0  0  0  0  0  0  0  0  0  0
   10.0410  -15.6298   22.0058 C   0  0  0  0  0  0  0  0  0  0  0  0
   10.8700  -14.7287   22.2736 O   0  0  0  0  0  0  0  0  0  0  0  0
    8.7614  -12.5116   17.4475 N   0  0  0  0  0  0  0  0  0  0  0  0
    9.0785  -15.9399   23.0058 C   0  0  1  0  0  0  0  0  0  0  0  0
    8.9660  -15.2794   24.2663 C   0  0  0  0  0  0  0  0  0  0  0  0
    7.4616  -15.1615   24.5491 C   0  0  0  0  0  0  0  0  0  0  0  0
    7.1779  -14.0561   25.4877 C   0  0  0  0  0  0  0  0  0  0  0  0
    6.7897  -14.2647   26.7946 C   0  0  0  0  0  0  0  0  0  0  0  0
    6.5271  -13.2352   27.6633 C   0  0  0  0  0  0  0  0  0  0  0  0
    6.6459  -11.9313   27.2469 C   0  0  0  0  0  0  0  0  0  0  0  0
    7.0317  -11.6978   25.9475 C   0  0  0  0  0  0  0  0  0  0  0  0
    7.2960  -12.7531   25.0737 C   0  0  0  0  0  0  0  0  0  0  0  0
    9.5623  -16.0080   25.4026 O   0  0  0  0  0  0  0  0  0  0  0  0
    9.8082  -17.2490   25.2847 N   0  0  0  0  0  0  0  0  0  0  0  0
    9.8894  -15.4140   26.6398 C   0  0  1  0  0  0  0  0  0  0  0  0
   10.7893  -16.0510   27.6030 C   0  0  0  0  0  0  0  0  0  0  0  0
   10.8151  -15.2371   28.9005 S   0  0  0  0  0  0  0  0  0  0  0  0
   10.8282  -13.4915   28.4311 C   0  0  0  0  0  0  0  0  0  0  0  0
   10.1700  -17.3448   27.9723 O   0  0  0  0  0  0  0  0  0  0  0  0
    9.0234  -17.5825   27.4678 O   0  0  0  0  0  0  0  0  0  0  0  0
  1  2  1  0
  2  3  2  0
  4  5  1  0
  4  2  1  0
  6  5  1  0
  7  6  1  0
  8 10  1  0
  8  7  1  0
  8  9  1  1
 10 11  2  0
 12 13  1  0
 12 10  1  0
 14 15  1  0
 13 14  1  1
 15 16  2  0
 16 17  1  0
 18 17  2  0
 19 18  1  0
 20 19  2  0
 20 15  1  0
 21 22  2  0
 21 13  1  0
 23 21  1  0
 24 23  1  0
 24 27  1  0
 24 25  1  1
 26 25  1  0
 27 29  1  0
 28 27  2  0
M  END
$$$$
