IWM.pdb
     RDKit          3D

 31 32  0  0  1  0  0  0  0  0999 V2000
    7.5467  -13.0912   17.5779 C   0  0  0  0  0  0  0  0  0  0  0  0
    8.0291  -14.3895   18.2428 C   0  0  0  0  0  0  0  0  0  0  0  0
    8.4131  -14.0662   19.6484 C   0  0  2  0  0  0  0  0  0  0  0  0
    9.4201  -12.9639   19.6749 C   0  0  0  0  0  0  0  0  0  0  0  0
    8.8452  -15.3166   20.3903 C   0  0  2  0  0  0  0  0  0  0  0  0
    7.9620  -16.4297   20.0745 N   0  0  0  0  0  0  0  0  0  0  0  0
    8.9770  -15.1195   21.8445 C   0  0  0  0  0  0  0  0  0  0  0  0
    9.0963  -13.9718   22.3230 O   0  0  0  0  0  0  0  0  0  0  0  0
    8.9769  -16.1937   22.7794 N   0  0  0  0  0  0  0  0  0  0  0  0
    9.0543  -15.9440   24.2344 C   0  0  1  0  0  0  0  0  0  0  0  0
    7.8165  -16.5351   24.8124 C   0  0  0  0  0  0  0  0  0  0  0  0
    6.8086  -15.5484   25.2523 C   0  0  0  0  0  0  0  0  0  0  0  0
    5.4595  -15.7035   25.4972 C   0  0  0  0  0  0  0  0  0  0  0  0
    4.9069  -14.5322   25.8652 N   0  0  0  0  0  0  0  0  0  0  0  0
    5.8632  -13.5780   25.8745 C   0  0  0  0  0  0  0  0  0  0  0  0
    5.7832  -12.2361   26.1820 C   0  0  0  0  0  0  0  0  0  0  0  0
    6.9358  -11.4848   26.1070 C   0  0  0  0  0  0  0  0  0  0  0  0
    8.1352  -12.1004   25.7259 C   0  0  0  0  0  0  0  0  0  0  0  0
    8.1845  -13.4412   25.4249 C   0  0  0  0  0  0  0  0  0  0  0  0
    7.0379  -14.1887   25.4995 C   0  0  0  0  0  0  0  0  0  0  0  0
   10.3284  -16.4538   24.7169 C   0  0  0  0  0  0  0  0  0  0  0  0
   11.0060  -17.1989   23.9187 O   0  0  0  0  0  0  0  0  0  0  0  0
   10.9296  -15.4601   31.5315 C   0  0  0  0  0  0  0  0  0  0  0  0
   12.2388  -15.6513   30.3062 S   0  0  0  0  0  0  0  0  0  0  0  0
   11.5710  -16.2420   28.7196 C   0  0  0  0  0  0  0  0  0  0  0  0
   12.6570  -16.3827   27.6860 C   0  0  0  0  0  0  0  0  0  0  0  0
   12.0865  -16.9191   26.3931 C   0  0  2  0  0  0  0  0  0  0  0  0
   10.9058  -16.2134   25.9771 N   0  0  0  0  0  0  0  0  0  0  0  0
   11.7816  -18.3594   26.4802 C   0  0  0  0  0  0  0  0  0  0  0  0
   12.8069  -19.3255   26.5280 O   0  0  0  0  0  0  0  0  0  0  0  0
   10.6195  -18.8300   26.5184 O   0  0  0  0  0  0  0  0  0  0  0  0
  1  2  1  0
  2  3  1  0
  3  4  1  6
  5  6  1  1
  5  3  1  0
  7  5  1  0
  8  7  2  0
  9  7  1  0
 10  9  1  0
 10 11  1  1
 12 11  1  0
 12 13  2  0
 14 13  1  0
 15 14  1  0
 16 15  2  0
 17 16  1  0
 18 17  2  0
 18 19  1  0
 19 20  2  0
 20 15  1  0
 20 12  1  0
 21 10  1  0
 21 28  1  0
 22 21  2  0
 23 24  1  0
 24 25  1  0
 25 26  1  0
 27 26  1  1
 27 28  1  0
 27 29  1  0
 29 31  2  0
 29 30  1  0
M  END
$$$$
