IWM.pdb
     RDKit          3D

 31 32  0  0  1  0  0  0  0  0999 V2000
    8.2028  -12.6682   16.9775 C   0  0  0  0  0  0  0  0  0  0  0  0
    8.3930  -14.0692   17.5789 C   0  0  0  0  0  0  0  0  0  0  0  0
    8.3230  -13.9409   19.0643 C   0  0  2  0  0  0  0  0  0  0  0  0
    9.2623  -12.8832   19.5424 C   0  0  0  0  0  0  0  0  0  0  0  0
    8.5181  -15.2889   19.7315 C   0  0  2  0  0  0  0  0  0  0  0  0
    7.6496  -16.2890   19.1278 N   0  0  0  0  0  0  0  0  0  0  0  0
    8.3654  -15.2457   21.1964 C   0  0  0  0  0  0  0  0  0  0  0  0
    7.5976  -14.4188   21.7321 O   0  0  0  0  0  0  0  0  0  0  0  0
    9.0626  -16.1197   22.0784 N   0  0  0  0  0  0  0  0  0  0  0  0
    8.9672  -15.9647   23.5454 C   0  0  1  0  0  0  0  0  0  0  0  0
    7.7311  -16.6891   23.9490 C   0  0  0  0  0  0  0  0  0  0  0  0
    6.7927  -15.8977   24.7712 C   0  0  0  0  0  0  0  0  0  0  0  0
    5.5579  -16.2359   25.2861 C   0  0  0  0  0  0  0  0  0  0  0  0
    5.0294  -15.2020   25.9678 N   0  0  0  0  0  0  0  0  0  0  0  0
    5.8891  -14.1608   25.9246 C   0  0  0  0  0  0  0  0  0  0  0  0
    5.7910  -12.8982   26.4704 C   0  0  0  0  0  0  0  0  0  0  0  0
    6.8347  -12.0219   26.2665 C   0  0  0  0  0  0  0  0  0  0  0  0
    7.9463  -12.4366   25.5214 C   0  0  0  0  0  0  0  0  0  0  0  0
    8.0161  -13.7025   24.9891 C   0  0  0  0  0  0  0  0  0  0  0  0
    6.9780  -14.5743   25.1919 C   0  0  0  0  0  0  0  0  0  0  0  0
   10.2233  -16.4048   24.1325 C   0  0  0  0  0  0  0  0  0  0  0  0
   11.0826  -16.9495   23.3475 O   0  0  0  0  0  0  0  0  0  0  0  0
   10.2721  -12.9778   29.0420 C   0  0  0  0  0  0  0  0  0  0  0  0
   10.6436  -14.7360   28.8921 S   0  0  0  0  0  0  0  0  0  0  0  0
   11.9333  -15.0297   27.6421 C   0  0  0  0  0  0  0  0  0  0  0  0
   12.1291  -16.5016   27.3917 C   0  0  0  0  0  0  0  0  0  0  0  0
   11.8554  -16.8295   25.9417 C   0  0  2  0  0  0  0  0  0  0  0  0
   10.6031  -16.2943   25.4827 N   0  0  0  0  0  0  0  0  0  0  0  0
   11.8795  -18.2826   25.6908 C   0  0  0  0  0  0  0  0  0  0  0  0
   10.7034  -18.9932   25.3767 O   0  0  0  0  0  0  0  0  0  0  0  0
   12.9175  -18.9854   25.7344 O   0  0  0  0  0  0  0  0  0  0  0  0
  1  2  1  0
  2  3  1  0
  3  4  1  1
  5  6  1  6
  5  3  1  0
  7  5  1  0
  8  7  2  0
  9  7  1  0
 10  9  1  0
 10 11  1  1
 12 11  1  0
 12 13  2  0
 14 13  1  0
 15 14  1  0
 16 15  2  0
 17 16  1  0
 18 17  2  0
 18 19  1  0
 19 20  2  0
 20 15  1  0
 20 12  1  0
 21 10  1  0
 21 28  1  0
 22 21  2  0
 23 24  1  0
 24 25  1  0
 25 26  1  0
 27 26  1  1
 27 28  1  0
 27 29  1  0
 29 31  2  0
 29 30  1  0
M  END
$$$$
