IWM.pdb
     RDKit          3D

 31 32  0  0  1  0  0  0  0  0999 V2000
    7.9956  -11.9904   19.3698 C   0  0  0  0  0  0  0  0  0  0  0  0
    7.9102  -13.5241   19.3393 C   0  0  0  0  0  0  0  0  0  0  0  0
    9.2322  -14.0451   18.8825 C   0  0  2  0  0  0  0  0  0  0  0  0
    9.2956  -14.0742   17.3910 C   0  0  0  0  0  0  0  0  0  0  0  0
    9.5438  -15.3755   19.5409 C   0  0  2  0  0  0  0  0  0  0  0  0
    8.5955  -16.3932   19.1121 N   0  0  0  0  0  0  0  0  0  0  0  0
    9.6330  -15.2963   21.0095 C   0  0  0  0  0  0  0  0  0  0  0  0
   10.4086  -14.4846   21.5572 O   0  0  0  0  0  0  0  0  0  0  0  0
    8.8622  -16.1163   21.8821 N   0  0  0  0  0  0  0  0  0  0  0  0
    8.7770  -15.8277   23.3294 C   0  0  1  0  0  0  0  0  0  0  0  0
    7.5525  -16.5248   23.8093 C   0  0  0  0  0  0  0  0  0  0  0  0
    6.7790  -15.7835   24.8268 C   0  0  0  0  0  0  0  0  0  0  0  0
    5.6568  -16.1570   25.5377 C   0  0  0  0  0  0  0  0  0  0  0  0
    5.2616  -15.1632   26.3557 N   0  0  0  0  0  0  0  0  0  0  0  0
    6.1010  -14.1145   26.2118 C   0  0  0  0  0  0  0  0  0  0  0  0
    6.1050  -12.8821   26.8304 C   0  0  0  0  0  0  0  0  0  0  0  0
    7.0961  -11.9885   26.4871 C   0  0  0  0  0  0  0  0  0  0  0  0
    8.0544  -12.3562   25.5336 C   0  0  0  0  0  0  0  0  0  0  0  0
    8.0251  -13.5928   24.9331 C   0  0  0  0  0  0  0  0  0  0  0  0
    7.0392  -14.4818   25.2746 C   0  0  0  0  0  0  0  0  0  0  0  0
   10.0427  -16.1985   23.9431 C   0  0  0  0  0  0  0  0  0  0  0  0
   10.8185  -16.9733   23.2731 O   0  0  0  0  0  0  0  0  0  0  0  0
   11.6293  -12.9869   28.3356 C   0  0  0  0  0  0  0  0  0  0  0  0
   10.8683  -14.4202   29.1218 S   0  0  0  0  0  0  0  0  0  0  0  0
   11.1738  -15.9350   28.1605 C   0  0  0  0  0  0  0  0  0  0  0  0
   12.1432  -15.6843   27.0357 C   0  0  0  0  0  0  0  0  0  0  0  0
   11.6870  -16.3923   25.7805 C   0  0  2  0  0  0  0  0  0  0  0  0
   10.5146  -15.7928   25.2049 N   0  0  0  0  0  0  0  0  0  0  0  0
   11.4290  -17.8248   26.0179 C   0  0  0  0  0  0  0  0  0  0  0  0
   10.1161  -18.3263   26.1268 O   0  0  0  0  0  0  0  0  0  0  0  0
   12.3294  -18.6898   26.1386 O   0  0  0  0  0  0  0  0  0  0  0  0
  1  2  1  0
  2  3  1  0
  3  4  1  6
  5  6  1  1
  5  3  1  0
  7  5  1  0
  8  7  2  0
  9  7  1  0
 10  9  1  0
 10 11  1  1
 12 11  1  0
 12 13  2  0
 14 13  1  0
 15 14  1  0
 16 15  2  0
 17 16  1  0
 18 17  2  0
 18 19  1  0
 19 20  2  0
 20 15  1  0
 20 12  1  0
 21 10  1  0
 21 28  1  0
 22 21  2  0
 23 24  1  0
 24 25  1  0
 25 26  1  0
 27 26  1  1
 27 28  1  0
 27 29  1  0
 29 31  2  0
 29 30  1  0
M  END
$$$$
