IWM.pdb
     RDKit          3D

 31 32  0  0  1  0  0  0  0  0999 V2000
    6.8973  -12.7057   18.8334 C   0  0  0  0  0  0  0  0  0  0  0  0
    7.0971  -14.1458   19.3302 C   0  0  0  0  0  0  0  0  0  0  0  0
    8.1526  -14.1215   20.3853 C   0  0  2  0  0  0  0  0  0  0  0  0
    9.3724  -13.4181   19.8883 C   0  0  0  0  0  0  0  0  0  0  0  0
    8.4166  -15.5177   20.9157 C   0  0  2  0  0  0  0  0  0  0  0  0
    7.1926  -16.3056   20.9143 N   0  0  0  0  0  0  0  0  0  0  0  0
    9.0721  -15.5294   22.2353 C   0  0  0  0  0  0  0  0  0  0  0  0
   10.0357  -14.7712   22.4740 O   0  0  0  0  0  0  0  0  0  0  0  0
    8.6635  -16.3816   23.3005 N   0  0  0  0  0  0  0  0  0  0  0  0
    9.3584  -16.3654   24.6052 C   0  0  1  0  0  0  0  0  0  0  0  0
    8.3007  -16.5840   25.6294 C   0  0  0  0  0  0  0  0  0  0  0  0
    7.3171  -15.4875   25.7444 C   0  0  0  0  0  0  0  0  0  0  0  0
    5.9670  -15.4700   25.4594 C   0  0  0  0  0  0  0  0  0  0  0  0
    5.4495  -14.2488   25.6915 N   0  0  0  0  0  0  0  0  0  0  0  0
    6.4308  -13.4313   26.1317 C   0  0  0  0  0  0  0  0  0  0  0  0
    6.3895  -12.1020   26.4966 C   0  0  0  0  0  0  0  0  0  0  0  0
    7.5608  -11.5088   26.9149 C   0  0  0  0  0  0  0  0  0  0  0  0
    8.7393  -12.2652   26.9554 C   0  0  0  0  0  0  0  0  0  0  0  0
    8.7500  -13.5894   26.5855 C   0  0  0  0  0  0  0  0  0  0  0  0
    7.5850  -14.1797   26.1693 C   0  0  0  0  0  0  0  0  0  0  0  0
   10.4486  -17.3271   24.5526 C   0  0  0  0  0  0  0  0  0  0  0  0
   10.1372  -18.5636   24.3928 O   0  0  0  0  0  0  0  0  0  0  0  0
   16.7450  -16.4363   23.0201 C   0  0  0  0  0  0  0  0  0  0  0  0
   16.7874  -18.1569   23.5580 S   0  0  0  0  0  0  0  0  0  0  0  0
   15.1278  -18.7390   24.0260 C   0  0  0  0  0  0  0  0  0  0  0  0
   14.1583  -17.5930   24.1455 C   0  0  0  0  0  0  0  0  0  0  0  0
   12.7992  -18.0961   24.5749 C   0  0  2  0  0  0  0  0  0  0  0  0
   11.8229  -17.0447   24.6564 N   0  0  0  0  0  0  0  0  0  0  0  0
   12.8559  -18.8026   25.8682 C   0  0  0  0  0  0  0  0  0  0  0  0
   12.5455  -18.1475   27.0771 O   0  0  0  0  0  0  0  0  0  0  0  0
   13.1752  -20.0089   25.9958 O   0  0  0  0  0  0  0  0  0  0  0  0
  1  2  1  0
  2  3  1  0
  3  4  1  6
  5  6  1  1
  5  3  1  0
  7  5  1  0
  8  7  2  0
  9  7  1  0
 10  9  1  0
 10 11  1  1
 12 11  1  0
 12 13  2  0
 14 13  1  0
 15 14  1  0
 16 15  2  0
 17 16  1  0
 18 17  2  0
 18 19  1  0
 19 20  2  0
 20 15  1  0
 20 12  1  0
 21 10  1  0
 21 28  1  0
 22 21  2  0
 23 24  1  0
 24 25  1  0
 25 26  1  0
 27 26  1  1
 27 28  1  0
 27 29  1  0
 29 31  2  0
 29 30  1  0
M  END
$$$$
