WMF.pdb
     RDKit          3D

 34 36  0  0  1  0  0  0  0  0999 V2000
   27.5764  -21.0611  -13.0909 N   0  0  0  0  0  0  0  0  0  0  0  0
   26.7668  -20.1738  -12.2639 C   0  0  1  0  0  0  0  0  0  0  0  0
   25.5199  -19.7576  -12.9826 C   0  0  0  0  0  0  0  0  0  0  0  0
   25.6746  -18.7910  -14.0639 C   0  0  0  0  0  0  0  0  0  0  0  0
   26.8770  -18.1328  -14.3581 C   0  0  0  0  0  0  0  0  0  0  0  0
   26.6500  -17.2942  -15.3807 N   0  0  0  0  0  0  0  0  0  0  0  0
   25.3766  -17.3519  -15.7862 C   0  0  0  0  0  0  0  0  0  0  0  0
   24.6627  -16.7159  -16.7865 C   0  0  0  0  0  0  0  0  0  0  0  0
   23.3208  -16.9844  -17.0092 C   0  0  0  0  0  0  0  0  0  0  0  0
   22.7271  -17.9101  -16.1936 C   0  0  0  0  0  0  0  0  0  0  0  0
   23.4326  -18.5461  -15.1951 C   0  0  0  0  0  0  0  0  0  0  0  0
   24.7745  -18.2779  -14.9715 C   0  0  0  0  0  0  0  0  0  0  0  0
   26.4960  -20.6579  -10.9252 C   0  0  0  0  0  0  0  0  0  0  0  0
   25.9550  -21.7883  -10.8153 O   0  0  0  0  0  0  0  0  0  0  0  0
   28.5552  -18.6378   -4.2334 C   0  0  0  0  0  0  0  0  0  0  0  0
   28.3308  -20.2033   -5.0880 S   0  0  0  0  0  0  0  0  0  0  0  0
   28.1157  -19.9850   -6.8516 C   0  0  0  0  0  0  0  0  0  0  0  0
   26.7502  -19.6213   -7.2877 C   0  0  0  0  0  0  0  0  0  0  0  0
   26.1943  -20.3222   -8.4770 C   0  0  2  0  0  0  0  0  0  0  0  0
   26.8003  -19.9377   -9.7159 N   0  0  0  0  0  0  0  0  0  0  0  0
   24.7029  -20.2556   -8.5308 C   0  0  0  0  0  0  0  0  0  0  0  0
   24.1193  -19.2184   -8.9143 O   0  0  0  0  0  0  0  0  0  0  0  0
   23.8942  -21.3588   -8.1515 N   0  0  0  0  0  0  0  0  0  0  0  0
   22.4324  -21.2821   -8.1683 C   0  0  1  0  0  0  0  0  0  0  0  0
   22.0134  -21.8512   -9.4824 C   0  0  0  0  0  0  0  0  0  0  0  0
   21.8146  -20.8871  -10.5709 C   0  0  0  0  0  0  0  0  0  0  0  0
   20.9665  -19.8226  -10.3564 C   0  0  0  0  0  0  0  0  0  0  0  0
   20.7062  -18.8571  -11.3207 C   0  0  0  0  0  0  0  0  0  0  0  0
   21.3428  -19.0003  -12.5411 C   0  0  0  0  0  0  0  0  0  0  0  0
   22.1996  -20.0698  -12.7676 C   0  0  0  0  0  0  0  0  0  0  0  0
   22.4474  -21.0275  -11.7867 C   0  0  0  0  0  0  0  0  0  0  0  0
   21.8428  -22.0971   -7.0780 C   0  0  0  0  0  0  0  0  0  0  0  0
   20.6054  -21.8682   -6.5349 O   0  0  0  0  0  0  0  0  0  0  0  0
   22.5384  -23.0556   -6.6344 O   0  0  0  0  0  0  0  0  0  0  0  0
  2  1  1  6
  2  3  1  0
  3  4  1  0
  4  5  2  0
  6  5  1  0
  7  6  1  0
  8  7  2  0
  9  8  1  0
 10  9  2  0
 10 11  1  0
 11 12  2  0
 12  7  1  0
 12  4  1  0
 13  2  1  0
 13 14  2  0
 16 15  1  0
 17 16  1  0
 18 17  1  0
 19 18  1  1
 20 19  1  0
 20 13  1  0
 21 19  1  0
 22 21  2  0
 23 21  1  0
 24 25  1  6
 24 23  1  0
 25 26  1  0
 26 31  2  0
 27 28  2  0
 27 26  1  0
 28 29  1  0
 29 30  2  0
 31 30  1  0
 32 24  1  0
 32 33  1  0
 34 32  2  0
M  END
$$$$
