WMF.pdb
     RDKit          3D

 34 36  0  0  1  0  0  0  0  0999 V2000
   21.6353  -17.4460  -17.2115 N   0  0  0  0  0  0  0  0  0  0  0  0
   22.7976  -18.0617  -16.5816 C   0  0  1  0  0  0  0  0  0  0  0  0
   23.9682  -17.1267  -16.5824 C   0  0  0  0  0  0  0  0  0  0  0  0
   24.3114  -16.5023  -17.8550 C   0  0  0  0  0  0  0  0  0  0  0  0
   23.9823  -15.1818  -18.1920 C   0  0  0  0  0  0  0  0  0  0  0  0
   24.4150  -14.9536  -19.4415 N   0  0  0  0  0  0  0  0  0  0  0  0
   25.0107  -16.0347  -19.9570 C   0  0  0  0  0  0  0  0  0  0  0  0
   25.6221  -16.3018  -21.1693 C   0  0  0  0  0  0  0  0  0  0  0  0
   26.1928  -17.5354  -21.4428 C   0  0  0  0  0  0  0  0  0  0  0  0
   26.1260  -18.4846  -20.4584 C   0  0  0  0  0  0  0  0  0  0  0  0
   25.5176  -18.2248  -19.2495 C   0  0  0  0  0  0  0  0  0  0  0  0
   24.9463  -16.9915  -18.9753 C   0  0  0  0  0  0  0  0  0  0  0  0
   22.5549  -18.6401  -15.2753 C   0  0  0  0  0  0  0  0  0  0  0  0
   22.0902  -17.8844  -14.3833 O   0  0  0  0  0  0  0  0  0  0  0  0
   17.1484  -21.3636  -14.5160 C   0  0  0  0  0  0  0  0  0  0  0  0
   18.6574  -22.0226  -13.7947 S   0  0  0  0  0  0  0  0  0  0  0  0
   20.0228  -20.8716  -13.9171 C   0  0  0  0  0  0  0  0  0  0  0  0
   21.3481  -21.4118  -13.5444 C   0  0  0  0  0  0  0  0  0  0  0  0
   22.5141  -20.4892  -13.6091 C   0  0  2  0  0  0  0  0  0  0  0  0
   22.8087  -20.0142  -14.9272 N   0  0  0  0  0  0  0  0  0  0  0  0
   23.7193  -21.0470  -12.9250 C   0  0  0  0  0  0  0  0  0  0  0  0
   24.2728  -22.0868  -13.3447 O   0  0  0  0  0  0  0  0  0  0  0  0
   24.2805  -20.4240  -11.7797 N   0  0  0  0  0  0  0  0  0  0  0  0
   25.3679  -21.0454  -11.0219 C   0  0  1  0  0  0  0  0  0  0  0  0
   26.4769  -20.0472  -11.0150 C   0  0  0  0  0  0  0  0  0  0  0  0
   27.0264  -19.6819  -12.3258 C   0  0  0  0  0  0  0  0  0  0  0  0
   27.8743  -20.5698  -12.9513 C   0  0  0  0  0  0  0  0  0  0  0  0
   28.4513  -20.3197  -14.1899 C   0  0  0  0  0  0  0  0  0  0  0  0
   28.1405  -19.1150  -14.7961 C   0  0  0  0  0  0  0  0  0  0  0  0
   27.2870  -18.2128  -14.1741 C   0  0  0  0  0  0  0  0  0  0  0  0
   26.7184  -18.4832  -12.9313 C   0  0  0  0  0  0  0  0  0  0  0  0
   24.9551  -21.3195   -9.6237 C   0  0  0  0  0  0  0  0  0  0  0  0
   25.7386  -21.9733   -8.7086 O   0  0  0  0  0  0  0  0  0  0  0  0
   23.8076  -20.9201   -9.2728 O   0  0  0  0  0  0  0  0  0  0  0  0
  2  1  1  1
  2  3  1  0
  3  4  1  0
  4  5  2  0
  6  5  1  0
  7  6  1  0
  8  7  2  0
  9  8  1  0
 10  9  2  0
 10 11  1  0
 11 12  2  0
 12  7  1  0
 12  4  1  0
 13  2  1  0
 13 14  2  0
 16 15  1  0
 17 16  1  0
 18 17  1  0
 19 18  1  6
 20 19  1  0
 20 13  1  0
 21 19  1  0
 22 21  2  0
 23 21  1  0
 24 25  1  1
 24 23  1  0
 25 26  1  0
 26 31  2  0
 27 28  2  0
 27 26  1  0
 28 29  1  0
 29 30  2  0
 31 30  1  0
 32 24  1  0
 32 33  1  0
 34 32  2  0
M  END
$$$$
