WMF.pdb
     RDKit          3D

 34 36  0  0  1  0  0  0  0  0999 V2000
   26.1558  -21.0923  -20.2435 N   0  0  0  0  0  0  0  0  0  0  0  0
   24.9135  -21.2102  -19.4889 C   0  0  1  0  0  0  0  0  0  0  0  0
   24.5019  -22.6441  -19.3511 C   0  0  0  0  0  0  0  0  0  0  0  0
   23.6109  -23.1749  -20.3766 C   0  0  0  0  0  0  0  0  0  0  0  0
   23.8481  -23.0608  -21.7537 C   0  0  0  0  0  0  0  0  0  0  0  0
   22.8150  -23.6232  -22.3994 N   0  0  0  0  0  0  0  0  0  0  0  0
   21.9072  -24.1042  -21.5427 C   0  0  0  0  0  0  0  0  0  0  0  0
   20.7049  -24.7712  -21.6994 C   0  0  0  0  0  0  0  0  0  0  0  0
   19.9533  -25.1864  -20.6108 C   0  0  0  0  0  0  0  0  0  0  0  0
   20.4520  -24.9074  -19.3667 C   0  0  0  0  0  0  0  0  0  0  0  0
   21.6482  -24.2425  -19.2043 C   0  0  0  0  0  0  0  0  0  0  0  0
   22.4004  -23.8267  -20.2924 C   0  0  0  0  0  0  0  0  0  0  0  0
   24.8943  -20.5070  -18.2220 C   0  0  0  0  0  0  0  0  0  0  0  0
   26.0026  -20.2347  -17.6926 O   0  0  0  0  0  0  0  0  0  0  0  0
   27.5738  -16.1720  -15.9343 C   0  0  0  0  0  0  0  0  0  0  0  0
   25.8513  -15.7296  -15.6720 S   0  0  0  0  0  0  0  0  0  0  0  0
   24.8214  -17.1656  -15.3866 C   0  0  0  0  0  0  0  0  0  0  0  0
   24.6690  -18.0807  -16.5383 C   0  0  0  0  0  0  0  0  0  0  0  0
   23.7898  -19.2690  -16.3660 C   0  0  2  0  0  0  0  0  0  0  0  0
   23.6998  -20.1005  -17.5281 N   0  0  0  0  0  0  0  0  0  0  0  0
   22.4463  -18.9083  -15.8215 C   0  0  0  0  0  0  0  0  0  0  0  0
   22.2790  -17.8547  -15.1693 O   0  0  0  0  0  0  0  0  0  0  0  0
   21.3141  -19.7408  -16.0210 N   0  0  0  0  0  0  0  0  0  0  0  0
   19.9774  -19.3393  -15.5794 C   0  0  1  0  0  0  0  0  0  0  0  0
   19.6619  -18.0903  -16.3322 C   0  0  0  0  0  0  0  0  0  0  0  0
   19.4138  -18.2469  -17.7701 C   0  0  0  0  0  0  0  0  0  0  0  0
   20.3683  -17.7911  -18.6531 C   0  0  0  0  0  0  0  0  0  0  0  0
   20.2299  -17.8870  -20.0320 C   0  0  0  0  0  0  0  0  0  0  0  0
   19.0692  -18.4714  -20.5079 C   0  0  0  0  0  0  0  0  0  0  0  0
   18.1007  -18.9342  -19.6263 C   0  0  0  0  0  0  0  0  0  0  0  0
   18.2591  -18.8286  -18.2463 C   0  0  0  0  0  0  0  0  0  0  0  0
   18.9705  -20.3751  -15.9170 C   0  0  0  0  0  0  0  0  0  0  0  0
   19.2540  -21.5180  -16.6185 O   0  0  0  0  0  0  0  0  0  0  0  0
   17.7843  -20.1741  -15.5274 O   0  0  0  0  0  0  0  0  0  0  0  0
  2  1  1  1
  2  3  1  0
  3  4  1  0
  4  5  2  0
  6  5  1  0
  7  6  1  0
  8  7  2  0
  9  8  1  0
 10  9  2  0
 10 11  1  0
 11 12  2  0
 12  7  1  0
 12  4  1  0
 13  2  1  0
 13 14  2  0
 16 15  1  0
 17 16  1  0
 18 17  1  0
 19 18  1  6
 20 19  1  0
 20 13  1  0
 21 19  1  0
 22 21  2  0
 23 21  1  0
 24 25  1  6
 24 23  1  0
 25 26  1  0
 26 31  2  0
 27 28  2  0
 27 26  1  0
 28 29  1  0
 29 30  2  0
 31 30  1  0
 32 24  1  0
 32 33  1  0
 34 32  2  0
M  END
$$$$
