WMF.pdb
     RDKit          3D

 34 36  0  0  1  0  0  0  0  0999 V2000
   26.5091  -17.7733  -18.1241 N   0  0  0  0  0  0  0  0  0  0  0  0
   26.3339  -18.4495  -16.8439 C   0  0  1  0  0  0  0  0  0  0  0  0
   25.2463  -17.8053  -16.0398 C   0  0  0  0  0  0  0  0  0  0  0  0
   25.3595  -16.3694  -15.8101 C   0  0  0  0  0  0  0  0  0  0  0  0
   26.3640  -15.7792  -15.0302 C   0  0  0  0  0  0  0  0  0  0  0  0
   26.1433  -14.4558  -15.0040 N   0  0  0  0  0  0  0  0  0  0  0  0
   25.0593  -14.1273  -15.7155 C   0  0  0  0  0  0  0  0  0  0  0  0
   24.4354  -12.9270  -16.0069 C   0  0  0  0  0  0  0  0  0  0  0  0
   23.3059  -12.8673  -16.8088 C   0  0  0  0  0  0  0  0  0  0  0  0
   22.8298  -14.0519  -17.3033 C   0  0  0  0  0  0  0  0  0  0  0  0
   23.4462  -15.2505  -17.0157 C   0  0  0  0  0  0  0  0  0  0  0  0
   24.5756  -15.3111  -16.2136 C   0  0  0  0  0  0  0  0  0  0  0  0
   26.1817  -19.8883  -16.9242 C   0  0  0  0  0  0  0  0  0  0  0  0
   25.4123  -20.3420  -17.8099 O   0  0  0  0  0  0  0  0  0  0  0  0
   30.6126  -24.4063  -15.8870 C   0  0  0  0  0  0  0  0  0  0  0  0
   30.0178  -23.9497  -17.5207 S   0  0  0  0  0  0  0  0  0  0  0  0
   28.5684  -22.9022  -17.4430 C   0  0  0  0  0  0  0  0  0  0  0  0
   27.6823  -23.1241  -16.2799 C   0  0  0  0  0  0  0  0  0  0  0  0
   26.5088  -22.2224  -16.1225 C   0  0  2  0  0  0  0  0  0  0  0  0
   26.8461  -20.8322  -16.0631 N   0  0  0  0  0  0  0  0  0  0  0  0
   25.6189  -22.6384  -14.9971 C   0  0  0  0  0  0  0  0  0  0  0  0
   25.6118  -23.8194  -14.5862 O   0  0  0  0  0  0  0  0  0  0  0  0
   24.7519  -21.7168  -14.3536 N   0  0  0  0  0  0  0  0  0  0  0  0
   23.8650  -22.1280  -13.2641 C   0  0  1  0  0  0  0  0  0  0  0  0
   24.7578  -22.6764  -12.2019 C   0  0  0  0  0  0  0  0  0  0  0  0
   25.3657  -21.6938  -11.2971 C   0  0  0  0  0  0  0  0  0  0  0  0
   25.1557  -21.8329   -9.9424 C   0  0  0  0  0  0  0  0  0  0  0  0
   25.6818  -20.9563   -9.0018 C   0  0  0  0  0  0  0  0  0  0  0  0
   26.4463  -19.9064   -9.4798 C   0  0  0  0  0  0  0  0  0  0  0  0
   26.6640  -19.7571  -10.8435 C   0  0  0  0  0  0  0  0  0  0  0  0
   26.1273  -20.6478  -11.7705 C   0  0  0  0  0  0  0  0  0  0  0  0
   23.1184  -20.9685  -12.7175 C   0  0  0  0  0  0  0  0  0  0  0  0
   23.3010  -19.6755  -13.1340 O   0  0  0  0  0  0  0  0  0  0  0  0
   22.2674  -21.2059  -11.8126 O   0  0  0  0  0  0  0  0  0  0  0  0
  2  1  1  6
  2  3  1  0
  3  4  1  0
  4  5  2  0
  6  5  1  0
  7  6  1  0
  8  7  2  0
  9  8  1  0
 10  9  2  0
 10 11  1  0
 11 12  2  0
 12  7  1  0
 12  4  1  0
 13  2  1  0
 13 14  2  0
 16 15  1  0
 17 16  1  0
 18 17  1  0
 19 18  1  1
 20 19  1  0
 20 13  1  0
 21 19  1  0
 22 21  2  0
 23 21  1  0
 24 25  1  1
 24 23  1  0
 25 26  1  0
 26 31  2  0
 27 28  2  0
 27 26  1  0
 28 29  1  0
 29 30  2  0
 31 30  1  0
 32 24  1  0
 32 33  1  0
 34 32  2  0
M  END
$$$$
