WMF.pdb
     RDKit          3D

 34 36  0  0  1  0  0  0  0  0999 V2000
   23.3417  -22.0085  -14.0942 N   0  0  0  0  0  0  0  0  0  0  0  0
   23.9820  -20.8787  -13.4307 C   0  0  1  0  0  0  0  0  0  0  0  0
   22.9823  -19.8137  -13.0973 C   0  0  0  0  0  0  0  0  0  0  0  0
   22.5639  -18.9390  -14.1868 C   0  0  0  0  0  0  0  0  0  0  0  0
   23.4531  -18.2151  -14.9938 C   0  0  0  0  0  0  0  0  0  0  0  0
   22.7290  -17.4929  -15.8624 N   0  0  0  0  0  0  0  0  0  0  0  0
   21.4176  -17.6892  -15.6868 C   0  0  0  0  0  0  0  0  0  0  0  0
   20.2859  -17.2052  -16.3193 C   0  0  0  0  0  0  0  0  0  0  0  0
   19.0123  -17.5998  -15.9393 C   0  0  0  0  0  0  0  0  0  0  0  0
   18.9192  -18.4932  -14.9061 C   0  0  0  0  0  0  0  0  0  0  0  0
   20.0425  -18.9780  -14.2717 C   0  0  0  0  0  0  0  0  0  0  0  0
   21.3166  -18.5836  -14.6508 C   0  0  0  0  0  0  0  0  0  0  0  0
   24.8182  -21.2236  -12.2987 C   0  0  0  0  0  0  0  0  0  0  0  0
   24.2938  -21.8947  -11.3729 O   0  0  0  0  0  0  0  0  0  0  0  0
   31.9195  -20.5454   -9.9377 C   0  0  0  0  0  0  0  0  0  0  0  0
   31.0069  -21.9934  -10.4872 S   0  0  0  0  0  0  0  0  0  0  0  0
   29.2571  -21.8633  -10.1328 C   0  0  0  0  0  0  0  0  0  0  0  0
   28.4073  -21.4324  -11.2639 C   0  0  0  0  0  0  0  0  0  0  0  0
   26.9490  -21.2745  -11.0123 C   0  0  2  0  0  0  0  0  0  0  0  0
   26.2025  -20.8521  -12.1588 N   0  0  0  0  0  0  0  0  0  0  0  0
   26.6670  -20.4329   -9.8107 C   0  0  0  0  0  0  0  0  0  0  0  0
   26.2542  -19.2587   -9.9309 O   0  0  0  0  0  0  0  0  0  0  0  0
   26.8549  -20.9285   -8.4939 N   0  0  0  0  0  0  0  0  0  0  0  0
   26.6008  -20.0971   -7.3162 C   0  0  1  0  0  0  0  0  0  0  0  0
   26.8173  -20.9879   -6.1389 C   0  0  0  0  0  0  0  0  0  0  0  0
   27.9639  -20.6614   -5.2830 C   0  0  0  0  0  0  0  0  0  0  0  0
   27.8349  -19.6273   -4.3816 C   0  0  0  0  0  0  0  0  0  0  0  0
   28.8594  -19.2351   -3.5293 C   0  0  0  0  0  0  0  0  0  0  0  0
   30.0504  -19.9347   -3.6148 C   0  0  0  0  0  0  0  0  0  0  0  0
   30.1909  -20.9787   -4.5202 C   0  0  0  0  0  0  0  0  0  0  0  0
   29.1506  -21.3565   -5.3663 C   0  0  0  0  0  0  0  0  0  0  0  0
   27.5553  -18.9637   -7.2472 C   0  0  0  0  0  0  0  0  0  0  0  0
   28.8259  -19.0010   -7.7600 O   0  0  0  0  0  0  0  0  0  0  0  0
   27.1563  -17.9082   -6.6763 O   0  0  0  0  0  0  0  0  0  0  0  0
  2  1  1  1
  2  3  1  0
  3  4  1  0
  4  5  2  0
  6  5  1  0
  7  6  1  0
  8  7  2  0
  9  8  1  0
 10  9  2  0
 10 11  1  0
 11 12  2  0
 12  7  1  0
 12  4  1  0
 13  2  1  0
 13 14  2  0
 16 15  1  0
 17 16  1  0
 18 17  1  0
 19 18  1  6
 20 19  1  0
 20 13  1  0
 21 19  1  0
 22 21  2  0
 23 21  1  0
 24 25  1  1
 24 23  1  0
 25 26  1  0
 26 31  2  0
 27 28  2  0
 27 26  1  0
 28 29  1  0
 29 30  2  0
 31 30  1  0
 32 24  1  0
 32 33  1  0
 34 32  2  0
M  END
$$$$
