WMF.pdb
     RDKit          3D

 34 36  0  0  1  0  0  0  0  0999 V2000
   26.9204  -20.0409  -16.9779 N   0  0  0  0  0  0  0  0  0  0  0  0
   26.4008  -19.5559  -15.7045 C   0  0  1  0  0  0  0  0  0  0  0  0
   25.3133  -18.5474  -15.9164 C   0  0  0  0  0  0  0  0  0  0  0  0
   25.6587  -17.3589  -16.6882 C   0  0  0  0  0  0  0  0  0  0  0  0
   25.2622  -17.1464  -18.0160 C   0  0  0  0  0  0  0  0  0  0  0  0
   25.7834  -15.9784  -18.4215 N   0  0  0  0  0  0  0  0  0  0  0  0
   26.4995  -15.4000  -17.4510 C   0  0  0  0  0  0  0  0  0  0  0  0
   27.2054  -14.2131  -17.3623 C   0  0  0  0  0  0  0  0  0  0  0  0
   27.8576  -13.8370  -16.1980 C   0  0  0  0  0  0  0  0  0  0  0  0
   27.7744  -14.6934  -15.1330 C   0  0  0  0  0  0  0  0  0  0  0  0
   27.0737  -15.8772  -15.2155 C   0  0  0  0  0  0  0  0  0  0  0  0
   26.4215  -16.2543  -16.3796 C   0  0  0  0  0  0  0  0  0  0  0  0
   26.0189  -20.5888  -14.7627 C   0  0  0  0  0  0  0  0  0  0  0  0
   25.3511  -21.5590  -15.2046 O   0  0  0  0  0  0  0  0  0  0  0  0
   25.7221  -19.2126   -7.9830 C   0  0  0  0  0  0  0  0  0  0  0  0
   25.6469  -20.7053   -8.9819 S   0  0  0  0  0  0  0  0  0  0  0  0
   26.7984  -20.6597  -10.3516 C   0  0  0  0  0  0  0  0  0  0  0  0
   26.7343  -21.8110  -11.2777 C   0  0  0  0  0  0  0  0  0  0  0  0
   25.9238  -21.6579  -12.5165 C   0  0  2  0  0  0  0  0  0  0  0  0
   26.3477  -20.5819  -13.3607 N   0  0  0  0  0  0  0  0  0  0  0  0
   24.4574  -21.6135  -12.2348 C   0  0  0  0  0  0  0  0  0  0  0  0
   23.8829  -22.5682  -11.6673 O   0  0  0  0  0  0  0  0  0  0  0  0
   23.6631  -20.4943  -12.5973 N   0  0  0  0  0  0  0  0  0  0  0  0
   22.2212  -20.4616  -12.3469 C   0  0  1  0  0  0  0  0  0  0  0  0
   21.7610  -19.1207  -12.8121 C   0  0  0  0  0  0  0  0  0  0  0  0
   21.6638  -18.9384  -14.2650 C   0  0  0  0  0  0  0  0  0  0  0  0
   20.4352  -19.1067  -14.8656 C   0  0  0  0  0  0  0  0  0  0  0  0
   20.2357  -18.9616  -16.2327 C   0  0  0  0  0  0  0  0  0  0  0  0
   21.3412  -18.6334  -16.9977 C   0  0  0  0  0  0  0  0  0  0  0  0
   22.5843  -18.4616  -16.4021 C   0  0  0  0  0  0  0  0  0  0  0  0
   22.7630  -18.6115  -15.0287 C   0  0  0  0  0  0  0  0  0  0  0  0
   21.5203  -21.5110  -13.1268 C   0  0  0  0  0  0  0  0  0  0  0  0
   22.1312  -22.3065  -14.0610 O   0  0  0  0  0  0  0  0  0  0  0  0
   20.2851  -21.6660  -12.9042 O   0  0  0  0  0  0  0  0  0  0  0  0
  2  1  1  6
  2  3  1  0
  3  4  1  0
  4  5  2  0
  6  5  1  0
  7  6  1  0
  8  7  2  0
  9  8  1  0
 10  9  2  0
 10 11  1  0
 11 12  2  0
 12  7  1  0
 12  4  1  0
 13  2  1  0
 13 14  2  0
 16 15  1  0
 17 16  1  0
 18 17  1  0
 19 18  1  1
 20 19  1  0
 20 13  1  0
 21 19  1  0
 22 21  2  0
 23 21  1  0
 24 25  1  6
 24 23  1  0
 25 26  1  0
 26 31  2  0
 27 28  2  0
 27 26  1  0
 28 29  1  0
 29 30  2  0
 31 30  1  0
 32 24  1  0
 32 33  1  0
 34 32  2  0
M  END
$$$$
