WMF.pdb
     RDKit          3D

 34 36  0  0  1  0  0  0  0  0999 V2000
   26.5801  -20.0918  -17.6326 N   0  0  0  0  0  0  0  0  0  0  0  0
   26.8268  -19.4341  -16.3546 C   0  0  1  0  0  0  0  0  0  0  0  0
   25.7267  -18.4724  -16.0234 C   0  0  0  0  0  0  0  0  0  0  0  0
   25.6303  -17.2730  -16.8478 C   0  0  0  0  0  0  0  0  0  0  0  0
   24.6220  -17.0559  -17.7975 C   0  0  0  0  0  0  0  0  0  0  0  0
   24.8610  -15.8772  -18.3925 N   0  0  0  0  0  0  0  0  0  0  0  0
   25.9609  -15.2961  -17.9007 C   0  0  0  0  0  0  0  0  0  0  0  0
   26.6064  -14.0998  -18.1595 C   0  0  0  0  0  0  0  0  0  0  0  0
   27.7494  -13.7233  -17.4708 C   0  0  0  0  0  0  0  0  0  0  0  0
   28.2164  -14.5891  -16.5186 C   0  0  0  0  0  0  0  0  0  0  0  0
   27.5785  -15.7823  -16.2571 C   0  0  0  0  0  0  0  0  0  0  0  0
   26.4356  -16.1598  -16.9456 C   0  0  0  0  0  0  0  0  0  0  0  0
   27.1302  -20.3251  -15.2529 C   0  0  0  0  0  0  0  0  0  0  0  0
   26.4537  -21.3814  -15.1575 O   0  0  0  0  0  0  0  0  0  0  0  0
   31.0390  -22.1012   -8.5178 C   0  0  0  0  0  0  0  0  0  0  0  0
   31.0766  -21.3205  -10.1366 S   0  0  0  0  0  0  0  0  0  0  0  0
   29.5034  -21.4428  -10.9817 C   0  0  0  0  0  0  0  0  0  0  0  0
   29.4513  -20.8271  -12.3253 C   0  0  0  0  0  0  0  0  0  0  0  0
   28.1421  -20.8213  -13.0332 C   0  0  2  0  0  0  0  0  0  0  0  0
   28.1475  -20.0865  -14.2620 N   0  0  0  0  0  0  0  0  0  0  0  0
   27.0139  -20.4221  -12.1390 C   0  0  0  0  0  0  0  0  0  0  0  0
   26.8149  -19.2214  -11.8524 O   0  0  0  0  0  0  0  0  0  0  0  0
   26.1289  -21.3826  -11.5830 N   0  0  0  0  0  0  0  0  0  0  0  0
   25.0746  -21.0021  -10.6415 C   0  0  1  0  0  0  0  0  0  0  0  0
   23.8158  -21.5896  -11.1861 C   0  0  0  0  0  0  0  0  0  0  0  0
   22.9146  -20.6604  -11.8777 C   0  0  0  0  0  0  0  0  0  0  0  0
   22.8781  -20.6860  -13.2548 C   0  0  0  0  0  0  0  0  0  0  0  0
   22.0644  -19.8468  -14.0053 C   0  0  0  0  0  0  0  0  0  0  0  0
   21.2670  -18.9562  -13.3080 C   0  0  0  0  0  0  0  0  0  0  0  0
   21.2962  -18.9222  -11.9197 C   0  0  0  0  0  0  0  0  0  0  0  0
   22.1197  -19.7730  -11.1856 C   0  0  0  0  0  0  0  0  0  0  0  0
   25.3308  -21.5703   -9.2954 C   0  0  0  0  0  0  0  0  0  0  0  0
   24.7592  -21.0963   -8.1433 O   0  0  0  0  0  0  0  0  0  0  0  0
   26.1281  -22.5494   -9.2254 O   0  0  0  0  0  0  0  0  0  0  0  0
  2  1  1  6
  2  3  1  0
  3  4  1  0
  4  5  2  0
  6  5  1  0
  7  6  1  0
  8  7  2  0
  9  8  1  0
 10  9  2  0
 10 11  1  0
 11 12  2  0
 12  7  1  0
 12  4  1  0
 13  2  1  0
 13 14  2  0
 16 15  1  0
 17 16  1  0
 18 17  1  0
 19 18  1  1
 20 19  1  0
 20 13  1  0
 21 19  1  0
 22 21  2  0
 23 21  1  0
 24 25  1  6
 24 23  1  0
 25 26  1  0
 26 31  2  0
 27 28  2  0
 27 26  1  0
 28 29  1  0
 29 30  2  0
 31 30  1  0
 32 24  1  0
 32 33  1  0
 34 32  2  0
M  END
$$$$
