WMF.pdb
     RDKit          3D

 34 36  0  0  1  0  0  0  0  0999 V2000
   21.9438  -18.2224  -19.4626 N   0  0  0  0  0  0  0  0  0  0  0  0
   22.3477  -17.8406  -18.1143 C   0  0  1  0  0  0  0  0  0  0  0  0
   21.4910  -16.7286  -17.5908 C   0  0  0  0  0  0  0  0  0  0  0  0
   21.4263  -15.5130  -18.3944 C   0  0  0  0  0  0  0  0  0  0  0  0
   20.2404  -14.9939  -18.9327 C   0  0  0  0  0  0  0  0  0  0  0  0
   20.5527  -13.8978  -19.6409 N   0  0  0  0  0  0  0  0  0  0  0  0
   21.8674  -13.6536  -19.6084 C   0  0  0  0  0  0  0  0  0  0  0  0
   22.6690  -12.6636  -20.1492 C   0  0  0  0  0  0  0  0  0  0  0  0
   24.0388  -12.6363  -19.9366 C   0  0  0  0  0  0  0  0  0  0  0  0
   24.5695  -13.6353  -19.1654 C   0  0  0  0  0  0  0  0  0  0  0  0
   23.7765  -14.6245  -18.6250 C   0  0  0  0  0  0  0  0  0  0  0  0
   22.4066  -14.6527  -18.8373 C   0  0  0  0  0  0  0  0  0  0  0  0
   22.4638  -18.9367  -17.1736 C   0  0  0  0  0  0  0  0  0  0  0  0
   21.5816  -19.8326  -17.2146 O   0  0  0  0  0  0  0  0  0  0  0  0
   24.7856  -24.6080  -13.3484 C   0  0  0  0  0  0  0  0  0  0  0  0
   24.5558  -23.2696  -14.5262 S   0  0  0  0  0  0  0  0  0  0  0  0
   24.9334  -21.6713  -13.8141 C   0  0  0  0  0  0  0  0  0  0  0  0
   24.8451  -20.5227  -14.7414 C   0  0  0  0  0  0  0  0  0  0  0  0
   23.5020  -20.1648  -15.2732 C   0  0  2  0  0  0  0  0  0  0  0  0
   23.5138  -19.0712  -16.1973 N   0  0  0  0  0  0  0  0  0  0  0  0
   22.4916  -19.9797  -14.1886 C   0  0  0  0  0  0  0  0  0  0  0  0
   22.3760  -18.8834  -13.5983 O   0  0  0  0  0  0  0  0  0  0  0  0
   21.6285  -21.0327  -13.7873 N   0  0  0  0  0  0  0  0  0  0  0  0
   20.5685  -20.8237  -12.7997 C   0  0  1  0  0  0  0  0  0  0  0  0
   19.6338  -19.8359  -13.4137 C   0  0  0  0  0  0  0  0  0  0  0  0
   18.8023  -20.3314  -14.5168 C   0  0  0  0  0  0  0  0  0  0  0  0
   17.7299  -21.1424  -14.2157 C   0  0  0  0  0  0  0  0  0  0  0  0
   16.8835  -21.6674  -15.1841 C   0  0  0  0  0  0  0  0  0  0  0  0
   17.1575  -21.3423  -16.5011 C   0  0  0  0  0  0  0  0  0  0  0  0
   18.2362  -20.5255  -16.8155 C   0  0  0  0  0  0  0  0  0  0  0  0
   19.0730  -20.0090  -15.8287 C   0  0  0  0  0  0  0  0  0  0  0  0
   19.8330  -22.0838  -12.5317 C   0  0  0  0  0  0  0  0  0  0  0  0
   18.8077  -22.1941  -11.6288 O   0  0  0  0  0  0  0  0  0  0  0  0
   20.1877  -23.1079  -13.1834 O   0  0  0  0  0  0  0  0  0  0  0  0
  2  1  1  6
  2  3  1  0
  3  4  1  0
  4  5  2  0
  6  5  1  0
  7  6  1  0
  8  7  2  0
  9  8  1  0
 10  9  2  0
 10 11  1  0
 11 12  2  0
 12  7  1  0
 12  4  1  0
 13  2  1  0
 13 14  2  0
 16 15  1  0
 17 16  1  0
 18 17  1  0
 19 18  1  1
 20 19  1  0
 20 13  1  0
 21 19  1  0
 22 21  2  0
 23 21  1  0
 24 25  1  6
 24 23  1  0
 25 26  1  0
 26 31  2  0
 27 28  2  0
 27 26  1  0
 28 29  1  0
 29 30  2  0
 31 30  1  0
 32 24  1  0
 32 33  1  0
 34 32  2  0
M  END
$$$$
