WMF.pdb
     RDKit          3D

 34 36  0  0  1  0  0  0  0  0999 V2000
   27.2556  -21.5627  -15.0662 N   0  0  0  0  0  0  0  0  0  0  0  0
   26.9804  -20.6679  -13.9481 C   0  0  1  0  0  0  0  0  0  0  0  0
   26.2299  -19.4537  -14.4030 C   0  0  0  0  0  0  0  0  0  0  0  0
   26.7392  -18.7698  -15.5864 C   0  0  0  0  0  0  0  0  0  0  0  0
   25.9445  -18.4089  -16.6836 C   0  0  0  0  0  0  0  0  0  0  0  0
   26.7400  -17.8361  -17.5999 N   0  0  0  0  0  0  0  0  0  0  0  0
   28.0106  -17.7916  -17.1841 C   0  0  0  0  0  0  0  0  0  0  0  0
   29.1800  -17.2996  -17.7367 C   0  0  0  0  0  0  0  0  0  0  0  0
   30.3900  -17.3658  -17.0629 C   0  0  0  0  0  0  0  0  0  0  0  0
   30.3805  -17.9418  -15.8209 C   0  0  0  0  0  0  0  0  0  0  0  0
   29.2194  -18.4344  -15.2657 C   0  0  0  0  0  0  0  0  0  0  0  0
   28.0090  -18.3689  -15.9390 C   0  0  0  0  0  0  0  0  0  0  0  0
   26.3667  -21.2953  -12.7950 C   0  0  0  0  0  0  0  0  0  0  0  0
   25.6637  -22.3188  -12.9967 O   0  0  0  0  0  0  0  0  0  0  0  0
   29.2594  -20.9459   -6.5277 C   0  0  0  0  0  0  0  0  0  0  0  0
   27.5373  -20.6311   -6.9362 S   0  0  0  0  0  0  0  0  0  0  0  0
   27.1523  -21.0759   -8.6267 C   0  0  0  0  0  0  0  0  0  0  0  0
   25.8033  -20.6923   -9.0960 C   0  0  0  0  0  0  0  0  0  0  0  0
   25.4396  -21.0234  -10.5007 C   0  0  2  0  0  0  0  0  0  0  0  0
   26.5036  -20.8301  -11.4390 N   0  0  0  0  0  0  0  0  0  0  0  0
   24.1745  -20.3568  -10.9328 C   0  0  0  0  0  0  0  0  0  0  0  0
   24.1458  -19.1314  -11.1802 O   0  0  0  0  0  0  0  0  0  0  0  0
   22.9630  -21.0821  -11.0789 N   0  0  0  0  0  0  0  0  0  0  0  0
   21.7324  -20.4378  -11.5407 C   0  0  1  0  0  0  0  0  0  0  0  0
   22.0129  -19.9836  -12.9341 C   0  0  0  0  0  0  0  0  0  0  0  0
   22.2537  -21.0410  -13.9228 C   0  0  0  0  0  0  0  0  0  0  0  0
   21.1655  -21.6652  -14.4927 C   0  0  0  0  0  0  0  0  0  0  0  0
   21.2833  -22.6797  -15.4344 C   0  0  0  0  0  0  0  0  0  0  0  0
   22.5651  -23.0573  -15.7943 C   0  0  0  0  0  0  0  0  0  0  0  0
   23.6689  -22.4345  -15.2257 C   0  0  0  0  0  0  0  0  0  0  0  0
   23.5289  -21.4186  -14.2829 C   0  0  0  0  0  0  0  0  0  0  0  0
   20.6029  -21.3992  -11.5634 C   0  0  0  0  0  0  0  0  0  0  0  0
   20.7214  -22.7267  -11.2431 O   0  0  0  0  0  0  0  0  0  0  0  0
   19.4704  -20.9499  -11.9023 O   0  0  0  0  0  0  0  0  0  0  0  0
  2  1  1  6
  2  3  1  0
  3  4  1  0
  4  5  2  0
  6  5  1  0
  7  6  1  0
  8  7  2  0
  9  8  1  0
 10  9  2  0
 10 11  1  0
 11 12  2  0
 12  7  1  0
 12  4  1  0
 13  2  1  0
 13 14  2  0
 16 15  1  0
 17 16  1  0
 18 17  1  0
 19 18  1  1
 20 19  1  0
 20 13  1  0
 21 19  1  0
 22 21  2  0
 23 21  1  0
 24 25  1  6
 24 23  1  0
 25 26  1  0
 26 31  2  0
 27 28  2  0
 27 26  1  0
 28 29  1  0
 29 30  2  0
 31 30  1  0
 32 24  1  0
 32 33  1  0
 34 32  2  0
M  END
$$$$
