WMF.pdb
     RDKit          3D

 34 36  0  0  1  0  0  0  0  0999 V2000
   27.9737  -20.9415  -15.2400 N   0  0  0  0  0  0  0  0  0  0  0  0
   27.1897  -20.2674  -14.2115 C   0  0  1  0  0  0  0  0  0  0  0  0
   25.9649  -19.6340  -14.7976 C   0  0  0  0  0  0  0  0  0  0  0  0
   26.1708  -18.6861  -15.8868 C   0  0  0  0  0  0  0  0  0  0  0  0
   25.9523  -18.9884  -17.2382 C   0  0  0  0  0  0  0  0  0  0  0  0
   26.2747  -17.9053  -17.9618 N   0  0  0  0  0  0  0  0  0  0  0  0
   26.6923  -16.9029  -17.1808 C   0  0  0  0  0  0  0  0  0  0  0  0
   27.1114  -15.6080  -17.4306 C   0  0  0  0  0  0  0  0  0  0  0  0
   27.4792  -14.7493  -16.4060 C   0  0  0  0  0  0  0  0  0  0  0  0
   27.4108  -15.2382  -15.1289 C   0  0  0  0  0  0  0  0  0  0  0  0
   26.9952  -16.5271  -14.8739 C   0  0  0  0  0  0  0  0  0  0  0  0
   26.6275  -17.3866  -15.8980 C   0  0  0  0  0  0  0  0  0  0  0  0
   26.8899  -21.0693  -13.0424 C   0  0  0  0  0  0  0  0  0  0  0  0
   26.6738  -22.2958  -13.2199 O   0  0  0  0  0  0  0  0  0  0  0  0
   27.4098  -19.2479   -6.6704 C   0  0  0  0  0  0  0  0  0  0  0  0
   28.6810  -19.6908   -7.8617 S   0  0  0  0  0  0  0  0  0  0  0  0
   28.1284  -20.9578   -8.9991 C   0  0  0  0  0  0  0  0  0  0  0  0
   26.6775  -20.9694   -9.2854 C   0  0  0  0  0  0  0  0  0  0  0  0
   26.2460  -21.3597  -10.6553 C   0  0  2  0  0  0  0  0  0  0  0  0
   26.8207  -20.5623  -11.6964 N   0  0  0  0  0  0  0  0  0  0  0  0
   24.7607  -21.4641  -10.7755 C   0  0  0  0  0  0  0  0  0  0  0  0
   24.0576  -21.7884   -9.7936 O   0  0  0  0  0  0  0  0  0  0  0  0
   24.0925  -21.2013  -12.0000 N   0  0  0  0  0  0  0  0  0  0  0  0
   22.6343  -21.2674  -12.1095 C   0  0  1  0  0  0  0  0  0  0  0  0
   22.1793  -19.8587  -12.2965 C   0  0  0  0  0  0  0  0  0  0  0  0
   22.5105  -19.2376  -13.5841 C   0  0  0  0  0  0  0  0  0  0  0  0
   21.7257  -19.5360  -14.6766 C   0  0  0  0  0  0  0  0  0  0  0  0
   21.9553  -19.0059  -15.9400 C   0  0  0  0  0  0  0  0  0  0  0  0
   23.0288  -18.1428  -16.0736 C   0  0  0  0  0  0  0  0  0  0  0  0
   23.8263  -17.8354  -14.9787 C   0  0  0  0  0  0  0  0  0  0  0  0
   23.5787  -18.3779  -13.7197 C   0  0  0  0  0  0  0  0  0  0  0  0
   22.2235  -22.0689  -13.2883 C   0  0  0  0  0  0  0  0  0  0  0  0
   23.0997  -22.5724  -14.2142 O   0  0  0  0  0  0  0  0  0  0  0  0
   20.9867  -22.2898  -13.4323 O   0  0  0  0  0  0  0  0  0  0  0  0
  2  1  1  6
  2  3  1  0
  3  4  1  0
  4  5  2  0
  6  5  1  0
  7  6  1  0
  8  7  2  0
  9  8  1  0
 10  9  2  0
 10 11  1  0
 11 12  2  0
 12  7  1  0
 12  4  1  0
 13  2  1  0
 13 14  2  0
 16 15  1  0
 17 16  1  0
 18 17  1  0
 19 18  1  1
 20 19  1  0
 20 13  1  0
 21 19  1  0
 22 21  2  0
 23 21  1  0
 24 25  1  6
 24 23  1  0
 25 26  1  0
 26 31  2  0
 27 28  2  0
 27 26  1  0
 28 29  1  0
 29 30  2  0
 31 30  1  0
 32 24  1  0
 32 33  1  0
 34 32  2  0
M  END
$$$$
