YIR.pdb
     RDKit          3D

 32 32  0  0  1  0  0  0  0  0999 V2000
    5.4750  -19.7957   17.1257 O   0  0  0  0  0  0  0  0  0  0  0  0
    6.0776  -19.1621   18.2036 C   0  0  0  0  0  0  0  0  0  0  0  0
    7.1867  -18.3515   18.0675 C   0  0  0  0  0  0  0  0  0  0  0  0
    7.7881  -17.7206   19.1363 C   0  0  0  0  0  0  0  0  0  0  0  0
    7.2797  -17.8869   20.4244 C   0  0  0  0  0  0  0  0  0  0  0  0
    7.8904  -17.2374   21.5895 C   0  0  0  0  0  0  0  0  0  0  0  0
    7.9876  -15.7367   21.4844 C   0  0  2  0  0  0  0  0  0  0  0  0
    8.8217  -15.3992   20.3566 N   0  0  0  0  0  0  0  0  0  0  0  0
    8.5675  -15.2570   22.7811 C   0  0  0  0  0  0  0  0  0  0  0  0
    9.8119  -15.0600   22.8283 O   0  0  0  0  0  0  0  0  0  0  0  0
    6.1768  -18.6928   20.5597 C   0  0  0  0  0  0  0  0  0  0  0  0
    5.5751  -19.3240   19.4909 C   0  0  0  0  0  0  0  0  0  0  0  0
    5.7018  -11.6606   25.7065 C   0  0  0  0  0  0  0  0  0  0  0  0
    6.8432  -12.4211   25.0975 C   0  0  0  0  0  0  0  0  0  0  0  0
    7.3368  -13.5968   25.8295 C   0  0  2  0  0  0  0  0  0  0  0  0
    7.9949  -13.0934   27.1316 C   0  0  0  0  0  0  0  0  0  0  0  0
    8.1985  -14.5783   25.1434 C   0  0  2  0  0  0  0  0  0  0  0  0
    7.7126  -15.0458   23.8880 N   0  0  0  0  0  0  0  0  0  0  0  0
    8.5723  -15.7219   25.9976 C   0  0  0  0  0  0  0  0  0  0  0  0
    7.6271  -16.4830   26.4187 O   0  0  0  0  0  0  0  0  0  0  0  0
   13.8249  -16.9598   22.8809 N   0  0  0  0  0  0  0  0  0  0  0  0
   12.8978  -17.8816   22.3592 C   0  0  0  0  0  0  0  0  0  0  0  0
   12.6078  -17.8566   21.1120 N   0  0  0  0  0  0  0  0  0  0  0  0
   12.2854  -18.8369   23.2088 N   0  0  0  0  0  0  0  0  0  0  0  0
   12.4891  -18.6822   24.6448 C   0  0  0  0  0  0  0  0  0  0  0  0
   11.2185  -18.1176   25.1981 C   0  0  0  0  0  0  0  0  0  0  0  0
   11.3720  -17.8633   26.6651 C   0  0  0  0  0  0  0  0  0  0  0  0
   10.1112  -17.2289   27.2112 C   0  0  2  0  0  0  0  0  0  0  0  0
    9.8917  -16.0314   26.3761 N   0  0  0  0  0  0  0  0  0  0  0  0
   10.3606  -16.8345   28.6145 C   0  0  0  0  0  0  0  0  0  0  0  0
   10.4711  -17.8426   29.5687 O   0  0  0  0  0  0  0  0  0  0  0  0
   10.4838  -15.6683   29.0365 O   0  0  0  0  0  0  0  0  0  0  0  0
  2  3  2  0
  2  1  1  0
  4  3  1  0
  5  4  2  0
  6  5  1  0
  7  6  1  0
  7  8  1  6
  9  7  1  0
  9 10  2  0
 11  5  1  0
 11 12  2  0
 12  2  1  0
 13 14  1  0
 14 15  1  0
 15 17  1  0
 15 16  1  1
 17 18  1  6
 18  9  1  0
 19 17  1  0
 19 20  2  0
 21 22  1  0
 22 24  1  0
 23 22  2  0
 24 25  1  0
 26 25  1  0
 27 26  1  0
 28 27  1  6
 29 28  1  0
 29 19  1  0
 30 28  1  0
 31 30  1  0
 32 30  2  0
M  END
$$$$
