YIR.pdb
     RDKit          3D

 32 32  0  0  1  0  0  0  0  0999 V2000
   12.9284  -17.9123   32.7886 O   0  0  0  0  0  0  0  0  0  0  0  0
   12.3349  -17.6097   31.5710 C   0  0  0  0  0  0  0  0  0  0  0  0
   12.3721  -18.4669   30.4896 C   0  0  0  0  0  0  0  0  0  0  0  0
   11.7838  -18.1692   29.2783 C   0  0  0  0  0  0  0  0  0  0  0  0
   11.1138  -16.9584   29.1035 C   0  0  0  0  0  0  0  0  0  0  0  0
   10.4772  -16.6003   27.8314 C   0  0  0  0  0  0  0  0  0  0  0  0
    9.0074  -16.9272   27.7583 C   0  0  2  0  0  0  0  0  0  0  0  0
    8.8342  -18.3484   27.9374 N   0  0  0  0  0  0  0  0  0  0  0  0
    8.5360  -16.4648   26.4122 C   0  0  0  0  0  0  0  0  0  0  0  0
    8.2705  -17.3460   25.5506 O   0  0  0  0  0  0  0  0  0  0  0  0
   11.0766  -16.1061   30.1790 C   0  0  0  0  0  0  0  0  0  0  0  0
   11.6651  -16.4035   31.3907 C   0  0  0  0  0  0  0  0  0  0  0  0
    6.7868  -11.5789   26.7360 C   0  0  0  0  0  0  0  0  0  0  0  0
    6.4749  -12.7349   25.8314 C   0  0  0  0  0  0  0  0  0  0  0  0
    7.5289  -13.1671   24.9019 C   0  0  2  0  0  0  0  0  0  0  0  0
    7.1174  -12.7124   23.4856 C   0  0  0  0  0  0  0  0  0  0  0  0
    7.9726  -14.5742   24.9004 C   0  0  2  0  0  0  0  0  0  0  0  0
    8.4078  -15.0789   26.1600 N   0  0  0  0  0  0  0  0  0  0  0  0
    8.9818  -14.8650   23.8640 C   0  0  0  0  0  0  0  0  0  0  0  0
   10.1989  -14.5368   24.1111 O   0  0  0  0  0  0  0  0  0  0  0  0
   14.2821  -20.3901   23.3262 N   0  0  0  0  0  0  0  0  0  0  0  0
   14.5648  -19.7332   22.1138 C   0  0  0  0  0  0  0  0  0  0  0  0
   15.6350  -20.0171   21.4701 N   0  0  0  0  0  0  0  0  0  0  0  0
   13.6692  -18.7602   21.6031 N   0  0  0  0  0  0  0  0  0  0  0  0
   12.5192  -18.4112   22.4296 C   0  0  0  0  0  0  0  0  0  0  0  0
   11.7711  -17.3453   21.6924 C   0  0  0  0  0  0  0  0  0  0  0  0
   10.5856  -16.9090   22.4951 C   0  0  0  0  0  0  0  0  0  0  0  0
    9.8312  -15.8282   21.7514 C   0  0  2  0  0  0  0  0  0  0  0  0
    8.6974  -15.4780   22.6299 N   0  0  0  0  0  0  0  0  0  0  0  0
    9.3354  -16.3990   20.4804 C   0  0  0  0  0  0  0  0  0  0  0  0
   10.2461  -16.5742   19.4417 O   0  0  0  0  0  0  0  0  0  0  0  0
    8.1623  -16.7452   20.2414 O   0  0  0  0  0  0  0  0  0  0  0  0
  2  3  2  0
  2  1  1  0
  4  3  1  0
  5  4  2  0
  6  5  1  0
  7  6  1  0
  7  8  1  6
  9  7  1  0
  9 10  2  0
 11  5  1  0
 11 12  2  0
 12  2  1  0
 13 14  1  0
 14 15  1  0
 15 17  1  0
 15 16  1  6
 17 18  1  1
 18  9  1  0
 19 17  1  0
 19 20  2  0
 21 22  1  0
 22 24  1  0
 23 22  2  0
 24 25  1  0
 26 25  1  0
 27 26  1  0
 28 27  1  1
 29 28  1  0
 29 19  1  0
 30 28  1  0
 31 30  1  0
 32 30  2  0
M  END
$$$$
