YIR.pdb
     RDKit          3D

 32 32  0  0  1  0  0  0  0  0999 V2000
    2.2459  -23.2749   22.8786 O   0  0  0  0  0  0  0  0  0  0  0  0
    3.1988  -22.2938   23.1149 C   0  0  0  0  0  0  0  0  0  0  0  0
    4.5443  -22.4875   22.8745 C   0  0  0  0  0  0  0  0  0  0  0  0
    5.4938  -21.5150   23.1084 C   0  0  0  0  0  0  0  0  0  0  0  0
    5.1129  -20.2702   23.6094 C   0  0  0  0  0  0  0  0  0  0  0  0
    6.0901  -19.2090   23.8758 C   0  0  0  0  0  0  0  0  0  0  0  0
    5.9430  -17.9936   22.9961 C   0  0  2  0  0  0  0  0  0  0  0  0
    6.0032  -18.4054   21.6146 N   0  0  0  0  0  0  0  0  0  0  0  0
    7.0646  -17.0677   23.3603 C   0  0  0  0  0  0  0  0  0  0  0  0
    8.1496  -17.1864   22.7293 O   0  0  0  0  0  0  0  0  0  0  0  0
    3.7750  -20.0776   23.8482 C   0  0  0  0  0  0  0  0  0  0  0  0
    2.8251  -21.0501   23.6144 C   0  0  0  0  0  0  0  0  0  0  0  0
    6.5047  -12.7242   27.2338 C   0  0  0  0  0  0  0  0  0  0  0  0
    6.3747  -13.7051   26.1056 C   0  0  0  0  0  0  0  0  0  0  0  0
    7.5617  -13.9307   25.2680 C   0  0  2  0  0  0  0  0  0  0  0  0
    7.4396  -13.0175   24.0298 C   0  0  0  0  0  0  0  0  0  0  0  0
    7.9348  -15.3045   24.8805 C   0  0  2  0  0  0  0  0  0  0  0  0
    6.8696  -16.1093   24.3821 N   0  0  0  0  0  0  0  0  0  0  0  0
    8.6633  -16.0301   25.9388 C   0  0  0  0  0  0  0  0  0  0  0  0
    8.3297  -17.2506   26.1601 O   0  0  0  0  0  0  0  0  0  0  0  0
   15.2208  -14.6523   23.2962 N   0  0  0  0  0  0  0  0  0  0  0  0
   15.8532  -15.6430   24.0708 C   0  0  0  0  0  0  0  0  0  0  0  0
   17.1043  -15.5484   24.3277 N   0  0  0  0  0  0  0  0  0  0  0  0
   15.1103  -16.7433   24.5677 N   0  0  0  0  0  0  0  0  0  0  0  0
   13.6745  -16.7510   24.3107 C   0  0  0  0  0  0  0  0  0  0  0  0
   13.0015  -16.7844   25.6468 C   0  0  0  0  0  0  0  0  0  0  0  0
   11.6417  -16.1672   25.5463 C   0  0  0  0  0  0  0  0  0  0  0  0
   10.9371  -16.2562   26.8827 C   0  0  2  0  0  0  0  0  0  0  0  0
    9.6965  -15.4735   26.7150 N   0  0  0  0  0  0  0  0  0  0  0  0
   11.8019  -15.6299   27.9059 C   0  0  0  0  0  0  0  0  0  0  0  0
   11.7620  -14.2443   28.0384 O   0  0  0  0  0  0  0  0  0  0  0  0
   12.5775  -16.2292   28.6757 O   0  0  0  0  0  0  0  0  0  0  0  0
  2  3  2  0
  2  1  1  0
  4  3  1  0
  5  4  2  0
  6  5  1  0
  7  6  1  0
  7  8  1  6
  9  7  1  0
  9 10  2  0
 11  5  1  0
 11 12  2  0
 12  2  1  0
 13 14  1  0
 14 15  1  0
 15 17  1  0
 15 16  1  6
 17 18  1  1
 18  9  1  0
 19 17  1  0
 19 20  2  0
 21 22  1  0
 22 24  1  0
 23 22  2  0
 24 25  1  0
 26 25  1  0
 27 26  1  0
 28 27  1  6
 29 28  1  0
 29 19  1  0
 30 28  1  0
 31 30  1  0
 32 30  2  0
M  END
$$$$
