YIR.pdb
     RDKit          3D

 32 32  0  0  1  0  0  0  0  0999 V2000
    6.9196  -10.0771   26.9768 O   0  0  0  0  0  0  0  0  0  0  0  0
    7.0115  -11.4466   26.7699 C   0  0  0  0  0  0  0  0  0  0  0  0
    5.9133  -12.2333   26.4859 C   0  0  0  0  0  0  0  0  0  0  0  0
    6.0009  -13.5942   26.2801 C   0  0  0  0  0  0  0  0  0  0  0  0
    7.2371  -14.2358   26.3548 C   0  0  0  0  0  0  0  0  0  0  0  0
    7.3750  -15.6813   26.1462 C   0  0  0  0  0  0  0  0  0  0  0  0
    6.4427  -16.2511   25.1075 C   0  0  2  0  0  0  0  0  0  0  0  0
    5.7635  -17.3955   25.6651 N   0  0  0  0  0  0  0  0  0  0  0  0
    7.2933  -16.6167   23.9283 C   0  0  0  0  0  0  0  0  0  0  0  0
    7.4567  -17.8423   23.6822 O   0  0  0  0  0  0  0  0  0  0  0  0
    8.3291  -13.4534   26.6370 C   0  0  0  0  0  0  0  0  0  0  0  0
    8.2418  -12.0922   26.8430 C   0  0  0  0  0  0  0  0  0  0  0  0
    7.8185  -12.6780   19.9424 C   0  0  0  0  0  0  0  0  0  0  0  0
    7.5942  -13.9904   20.6346 C   0  0  0  0  0  0  0  0  0  0  0  0
    8.7853  -14.7571   21.0286 C   0  0  2  0  0  0  0  0  0  0  0  0
    9.4932  -15.2165   19.7364 C   0  0  0  0  0  0  0  0  0  0  0  0
    8.6558  -15.8702   21.9883 C   0  0  2  0  0  0  0  0  0  0  0  0
    7.8734  -15.5908   23.1460 N   0  0  0  0  0  0  0  0  0  0  0  0
    9.9531  -16.4514   22.3838 C   0  0  0  0  0  0  0  0  0  0  0  0
   10.8475  -15.6515   22.8423 O   0  0  0  0  0  0  0  0  0  0  0  0
   14.6664  -21.5572   18.5367 N   0  0  0  0  0  0  0  0  0  0  0  0
   14.8555  -20.2963   17.9403 C   0  0  0  0  0  0  0  0  0  0  0  0
   15.2794  -20.2194   16.7342 N   0  0  0  0  0  0  0  0  0  0  0  0
   14.5776  -19.1127   18.6692 N   0  0  0  0  0  0  0  0  0  0  0  0
   13.3274  -19.0677   19.4193 C   0  0  0  0  0  0  0  0  0  0  0  0
   13.3626  -17.8126   20.2334 C   0  0  0  0  0  0  0  0  0  0  0  0
   11.9801  -17.4628   20.6877 C   0  0  0  0  0  0  0  0  0  0  0  0
   11.6636  -18.1894   21.9769 C   0  0  2  0  0  0  0  0  0  0  0  0
   10.2698  -17.8194   22.2935 N   0  0  0  0  0  0  0  0  0  0  0  0
   12.5762  -17.6892   23.0276 C   0  0  0  0  0  0  0  0  0  0  0  0
   12.4448  -16.3634   23.4327 O   0  0  0  0  0  0  0  0  0  0  0  0
   13.4679  -18.3476   23.5973 O   0  0  0  0  0  0  0  0  0  0  0  0
  2  3  2  0
  2  1  1  0
  4  3  1  0
  5  4  2  0
  6  5  1  0
  7  6  1  0
  7  8  1  1
  9  7  1  0
  9 10  2  0
 11  5  1  0
 11 12  2  0
 12  2  1  0
 13 14  1  0
 14 15  1  0
 15 17  1  0
 15 16  1  6
 17 18  1  1
 18  9  1  0
 19 17  1  0
 19 20  2  0
 21 22  1  0
 22 24  1  0
 23 22  2  0
 24 25  1  0
 26 25  1  0
 27 26  1  0
 28 27  1  6
 29 28  1  0
 29 19  1  0
 30 28  1  0
 31 30  1  0
 32 30  2  0
M  END
$$$$
