NYF.pdb
     RDKit          3D

 32 33  0  0  1  0  0  0  0  0999 V2000
   11.4755  -19.2473   17.6128 N   0  0  0  0  0  0  0  0  0  0  0  0
   10.5846  -19.0531   18.7141 C   0  0  0  0  0  0  0  0  0  0  0  0
    9.9168  -20.0268   19.1241 O   0  0  0  0  0  0  0  0  0  0  0  0
   10.4809  -17.6849   19.3421 C   0  0  0  0  0  0  0  0  0  0  0  0
   10.4638  -17.9552   20.8564 C   0  0  2  0  0  0  0  0  0  0  0  0
    9.2328  -18.7361   21.0659 N   0  0  0  0  0  0  0  0  0  0  0  0
   10.3868  -16.6943   21.6135 C   0  0  0  0  0  0  0  0  0  0  0  0
   11.4412  -15.9742   21.6464 O   0  0  0  0  0  0  0  0  0  0  0  0
    7.1584  -13.9231   16.9167 O   0  0  0  0  0  0  0  0  0  0  0  0
    7.3989  -13.9287   18.2930 C   0  0  0  0  0  0  0  0  0  0  0  0
    6.8014  -14.9165   19.0485 C   0  0  0  0  0  0  0  0  0  0  0  0
    6.9998  -14.9772   20.4186 C   0  0  0  0  0  0  0  0  0  0  0  0
    7.8054  -14.0408   21.0592 C   0  0  0  0  0  0  0  0  0  0  0  0
    7.9787  -14.1538   22.5023 C   0  0  0  0  0  0  0  0  0  0  0  0
    9.2342  -14.9306   22.8751 C   0  0  2  0  0  0  0  0  0  0  0  0
    9.2344  -16.2395   22.2958 N   0  0  0  0  0  0  0  0  0  0  0  0
    9.2042  -15.0556   24.3528 C   0  0  0  0  0  0  0  0  0  0  0  0
    9.0948  -13.9984   25.0275 O   0  0  0  0  0  0  0  0  0  0  0  0
    8.3864  -13.0737   20.2991 C   0  0  0  0  0  0  0  0  0  0  0  0
    8.1937  -13.0047   18.9178 C   0  0  0  0  0  0  0  0  0  0  0  0
    9.2891  -16.2650   25.0643 N   0  0  0  0  0  0  0  0  0  0  0  0
    8.8825  -16.4218   26.4489 C   0  0  1  0  0  0  0  0  0  0  0  0
    7.4552  -16.0121   26.6532 C   0  0  0  0  0  0  0  0  0  0  0  0
    7.3418  -14.5628   26.8689 C   0  0  0  0  0  0  0  0  0  0  0  0
    6.2500  -13.8988   26.3289 C   0  0  0  0  0  0  0  0  0  0  0  0
    6.0469  -12.5387   26.4751 C   0  0  0  0  0  0  0  0  0  0  0  0
    6.9632  -11.8208   27.1839 C   0  0  0  0  0  0  0  0  0  0  0  0
    8.0575  -12.4773   27.7282 C   0  0  0  0  0  0  0  0  0  0  0  0
    8.2663  -13.8311   27.5862 C   0  0  0  0  0  0  0  0  0  0  0  0
    9.1742  -17.7709   26.9004 C   0  0  0  0  0  0  0  0  0  0  0  0
    9.5286  -18.6424   26.0293 O   0  0  0  0  0  0  0  0  0  0  0  0
    9.0759  -18.1120   28.2336 O   0  0  0  0  0  0  0  0  0  0  0  0
  2  3  2  0
  2  1  1  0
  4  2  1  0
  5  4  1  0
  5  6  1  6
  7  8  2  0
  7  5  1  0
  9 10  1  0
 10 20  2  0
 10 11  1  0
 11 12  2  0
 12 13  1  0
 13 14  1  0
 15 14  1  6
 15 16  1  0
 16  7  1  0
 17 15  1  0
 17 21  1  0
 18 17  2  0
 19 13  2  0
 20 19  1  0
 22 21  1  0
 22 30  1  0
 22 23  1  6
 24 23  1  0
 25 24  2  0
 26 25  1  0
 27 26  2  0
 27 28  1  0
 28 29  2  0
 29 24  1  0
 30 32  1  0
 31 30  2  0
M  END
$$$$
