NYF.pdb
     RDKit          3D

 32 33  0  0  1  0  0  0  0  0999 V2000
    7.7827  -12.3120   16.8735 N   0  0  0  0  0  0  0  0  0  0  0  0
    8.0467  -13.7078   16.7118 C   0  0  0  0  0  0  0  0  0  0  0  0
    8.5108  -14.1082   15.6225 O   0  0  0  0  0  0  0  0  0  0  0  0
    7.7577  -14.6472   17.8569 C   0  0  0  0  0  0  0  0  0  0  0  0
    8.9494  -14.4687   18.8132 C   0  0  2  0  0  0  0  0  0  0  0  0
   10.1116  -14.9053   18.0209 N   0  0  0  0  0  0  0  0  0  0  0  0
    8.8046  -15.3306   19.9986 C   0  0  0  0  0  0  0  0  0  0  0  0
    7.7134  -15.2323   20.6553 O   0  0  0  0  0  0  0  0  0  0  0  0
    9.2143  -22.1021   17.9980 O   0  0  0  0  0  0  0  0  0  0  0  0
    9.5742  -21.0993   18.9017 C   0  0  0  0  0  0  0  0  0  0  0  0
    8.9233  -21.0624   20.1177 C   0  0  0  0  0  0  0  0  0  0  0  0
    9.2338  -20.0928   21.0577 C   0  0  0  0  0  0  0  0  0  0  0  0
   10.2085  -19.1359   20.7919 C   0  0  0  0  0  0  0  0  0  0  0  0
   10.4940  -18.1403   21.8179 C   0  0  0  0  0  0  0  0  0  0  0  0
    9.5989  -16.9142   21.6992 C   0  0  2  0  0  0  0  0  0  0  0  0
    9.7849  -16.2463   20.4469 N   0  0  0  0  0  0  0  0  0  0  0  0
   10.0134  -16.0075   22.7974 C   0  0  0  0  0  0  0  0  0  0  0  0
   10.6410  -14.9612   22.4871 O   0  0  0  0  0  0  0  0  0  0  0  0
   10.8400  -19.1869   19.5881 C   0  0  0  0  0  0  0  0  0  0  0  0
   10.5351  -20.1605   18.6348 C   0  0  0  0  0  0  0  0  0  0  0  0
    9.7615  -16.2233   24.1634 N   0  0  0  0  0  0  0  0  0  0  0  0
    9.2336  -15.2117   25.0605 C   0  0  1  0  0  0  0  0  0  0  0  0
    7.9909  -14.5809   24.5086 C   0  0  0  0  0  0  0  0  0  0  0  0
    7.4508  -13.5711   25.4298 C   0  0  0  0  0  0  0  0  0  0  0  0
    8.0852  -12.3396   25.5045 C   0  0  0  0  0  0  0  0  0  0  0  0
    7.6573  -11.3204   26.3355 C   0  0  0  0  0  0  0  0  0  0  0  0
    6.5610  -11.5389   27.1149 C   0  0  0  0  0  0  0  0  0  0  0  0
    5.9200  -12.7674   27.0454 C   0  0  0  0  0  0  0  0  0  0  0  0
    6.3406  -13.7869   26.2208 C   0  0  0  0  0  0  0  0  0  0  0  0
    9.0651  -15.7695   26.3908 C   0  0  0  0  0  0  0  0  0  0  0  0
    8.3168  -16.8014   26.5292 O   0  0  0  0  0  0  0  0  0  0  0  0
    9.6940  -15.2079   27.4828 O   0  0  0  0  0  0  0  0  0  0  0  0
  2  3  2  0
  2  1  1  0
  4  2  1  0
  5  4  1  0
  5  6  1  6
  7  8  2  0
  7  5  1  0
  9 10  1  0
 10 20  2  0
 10 11  1  0
 11 12  2  0
 12 13  1  0
 13 14  1  0
 15 14  1  6
 15 16  1  0
 16  7  1  0
 17 15  1  0
 17 21  1  0
 18 17  2  0
 19 13  2  0
 20 19  1  0
 22 21  1  0
 22 30  1  0
 22 23  1  6
 24 23  1  0
 25 24  2  0
 26 25  1  0
 27 26  2  0
 27 28  1  0
 28 29  2  0
 29 24  1  0
 30 32  1  0
 31 30  2  0
M  END
$$$$
