NYF.pdb
     RDKit          3D

 32 33  0  0  1  0  0  0  0  0999 V2000
    6.8272  -16.9949   16.5057 N   0  0  0  0  0  0  0  0  0  0  0  0
    7.3328  -16.1867   17.5712 C   0  0  0  0  0  0  0  0  0  0  0  0
    8.4044  -15.5672   17.3976 O   0  0  0  0  0  0  0  0  0  0  0  0
    6.5591  -16.1089   18.8645 C   0  0  0  0  0  0  0  0  0  0  0  0
    7.6389  -15.9957   19.9544 C   0  0  2  0  0  0  0  0  0  0  0  0
    8.5401  -17.1285   19.6832 N   0  0  0  0  0  0  0  0  0  0  0  0
    7.0479  -16.1413   21.2954 C   0  0  0  0  0  0  0  0  0  0  0  0
    6.1805  -15.2705   21.6429 O   0  0  0  0  0  0  0  0  0  0  0  0
    2.1815  -20.2700   20.2510 O   0  0  0  0  0  0  0  0  0  0  0  0
    3.1338  -19.8129   21.1655 C   0  0  0  0  0  0  0  0  0  0  0  0
    4.4216  -20.2950   21.0514 C   0  0  0  0  0  0  0  0  0  0  0  0
    5.4125  -19.8813   21.9273 C   0  0  0  0  0  0  0  0  0  0  0  0
    5.1265  -18.9716   22.9407 C   0  0  0  0  0  0  0  0  0  0  0  0
    6.2082  -18.5716   23.8325 C   0  0  0  0  0  0  0  0  0  0  0  0
    6.7544  -17.1906   23.4963 C   0  0  2  0  0  0  0  0  0  0  0  0
    7.3774  -17.1707   22.2077 N   0  0  0  0  0  0  0  0  0  0  0  0
    7.7757  -16.9004   24.5320 C   0  0  0  0  0  0  0  0  0  0  0  0
    8.9800  -17.1316   24.2474 O   0  0  0  0  0  0  0  0  0  0  0  0
    3.8518  -18.5069   23.0388 C   0  0  0  0  0  0  0  0  0  0  0  0
    2.8466  -18.9166   22.1605 C   0  0  0  0  0  0  0  0  0  0  0  0
    7.5063  -16.3862   25.8122 N   0  0  0  0  0  0  0  0  0  0  0  0
    8.5242  -16.1337   26.8157 C   0  0  1  0  0  0  0  0  0  0  0  0
    8.1775  -14.9484   27.6653 C   0  0  0  0  0  0  0  0  0  0  0  0
    7.8978  -13.7644   26.8407 C   0  0  0  0  0  0  0  0  0  0  0  0
    8.9503  -13.1723   26.1579 C   0  0  0  0  0  0  0  0  0  0  0  0
    8.7953  -12.0579   25.3538 C   0  0  0  0  0  0  0  0  0  0  0  0
    7.5496  -11.5197   25.2278 C   0  0  0  0  0  0  0  0  0  0  0  0
    6.4913  -12.1065   25.9065 C   0  0  0  0  0  0  0  0  0  0  0  0
    6.6383  -13.2157   26.7092 C   0  0  0  0  0  0  0  0  0  0  0  0
    8.7798  -17.3439   27.5766 C   0  0  0  0  0  0  0  0  0  0  0  0
    8.0067  -18.3512   27.3985 O   0  0  0  0  0  0  0  0  0  0  0  0
    9.8290  -17.4148   28.4696 O   0  0  0  0  0  0  0  0  0  0  0  0
  2  3  2  0
  2  1  1  0
  4  2  1  0
  5  4  1  0
  5  6  1  6
  7  8  2  0
  7  5  1  0
  9 10  1  0
 10 20  2  0
 10 11  1  0
 11 12  2  0
 12 13  1  0
 13 14  1  0
 15 14  1  1
 15 16  1  0
 16  7  1  0
 17 15  1  0
 17 21  1  0
 18 17  2  0
 19 13  2  0
 20 19  1  0
 22 21  1  0
 22 30  1  0
 22 23  1  1
 24 23  1  0
 25 24  2  0
 26 25  1  0
 27 26  2  0
 27 28  1  0
 28 29  2  0
 29 24  1  0
 30 32  1  0
 31 30  2  0
M  END
$$$$
