NYF.pdb
     RDKit          3D

 32 33  0  0  1  0  0  0  0  0999 V2000
    7.9038  -21.3681   21.7379 N   0  0  0  0  0  0  0  0  0  0  0  0
    9.2606  -20.9704   21.5260 C   0  0  0  0  0  0  0  0  0  0  0  0
    9.9912  -21.6885   20.8098 O   0  0  0  0  0  0  0  0  0  0  0  0
    9.7634  -19.7023   22.1712 C   0  0  0  0  0  0  0  0  0  0  0  0
    9.3858  -18.5884   21.1796 C   0  0  2  0  0  0  0  0  0  0  0  0
   10.3162  -18.7815   20.0544 N   0  0  0  0  0  0  0  0  0  0  0  0
    9.5988  -17.2595   21.7775 C   0  0  0  0  0  0  0  0  0  0  0  0
   10.8088  -16.9020   21.9763 O   0  0  0  0  0  0  0  0  0  0  0  0
    7.9720  -13.2741   16.6787 O   0  0  0  0  0  0  0  0  0  0  0  0
    7.8880  -13.4612   18.0607 C   0  0  0  0  0  0  0  0  0  0  0  0
    9.0656  -13.5115   18.7779 C   0  0  0  0  0  0  0  0  0  0  0  0
    9.0506  -13.6950   20.1514 C   0  0  0  0  0  0  0  0  0  0  0  0
    7.8459  -13.8335   20.8338 C   0  0  0  0  0  0  0  0  0  0  0  0
    7.8906  -14.0237   22.2784 C   0  0  0  0  0  0  0  0  0  0  0  0
    8.8954  -15.0910   22.6906 C   0  0  2  0  0  0  0  0  0  0  0  0
    8.5612  -16.3690   22.1393 N   0  0  0  0  0  0  0  0  0  0  0  0
    8.8159  -15.1664   24.1698 C   0  0  0  0  0  0  0  0  0  0  0  0
    8.4771  -14.1255   24.7915 O   0  0  0  0  0  0  0  0  0  0  0  0
    6.6946  -13.7818   20.1109 C   0  0  0  0  0  0  0  0  0  0  0  0
    6.6990  -13.5961   18.7271 C   0  0  0  0  0  0  0  0  0  0  0  0
    9.0903  -16.3117   24.9374 N   0  0  0  0  0  0  0  0  0  0  0  0
    8.9960  -16.3596   26.3850 C   0  0  1  0  0  0  0  0  0  0  0  0
    7.6605  -15.8779   26.8659 C   0  0  0  0  0  0  0  0  0  0  0  0
    7.5940  -14.4098   26.8737 C   0  0  0  0  0  0  0  0  0  0  0  0
    8.7186  -13.7004   27.2693 C   0  0  0  0  0  0  0  0  0  0  0  0
    8.7628  -12.3188   27.3099 C   0  0  0  0  0  0  0  0  0  0  0  0
    7.6485  -11.6253   26.9427 C   0  0  0  0  0  0  0  0  0  0  0  0
    6.5198  -12.3270   26.5447 C   0  0  0  0  0  0  0  0  0  0  0  0
    6.4685  -13.7025   26.5023 C   0  0  0  0  0  0  0  0  0  0  0  0
    9.3447  -17.6870   26.8599 C   0  0  0  0  0  0  0  0  0  0  0  0
    9.3588  -17.8983   28.1244 O   0  0  0  0  0  0  0  0  0  0  0  0
    9.6525  -18.7008   25.9762 O   0  0  0  0  0  0  0  0  0  0  0  0
  2  3  2  0
  2  1  1  0
  4  2  1  0
  5  4  1  0
  5  6  1  6
  7  8  2  0
  7  5  1  0
  9 10  1  0
 10 20  2  0
 10 11  1  0
 11 12  2  0
 12 13  1  0
 13 14  1  0
 15 14  1  6
 15 16  1  0
 16  7  1  0
 17 15  1  0
 17 21  1  0
 18 17  2  0
 19 13  2  0
 20 19  1  0
 22 21  1  0
 22 30  1  0
 22 23  1  6
 24 23  1  0
 25 24  2  0
 26 25  1  0
 27 26  2  0
 27 28  1  0
 28 29  2  0
 29 24  1  0
 30 32  1  0
 31 30  2  0
M  END
$$$$
