NYF.pdb
     RDKit          3D

 32 33  0  0  1  0  0  0  0  0999 V2000
    7.9307  -12.6548   17.6870 N   0  0  0  0  0  0  0  0  0  0  0  0
    7.8821  -14.0142   17.2467 C   0  0  0  0  0  0  0  0  0  0  0  0
    7.3047  -14.2754   16.1693 O   0  0  0  0  0  0  0  0  0  0  0  0
    8.5268  -15.0838   18.0937 C   0  0  0  0  0  0  0  0  0  0  0  0
    8.0079  -14.8147   19.5167 C   0  0  2  0  0  0  0  0  0  0  0  0
    8.5939  -13.5105   19.8697 N   0  0  0  0  0  0  0  0  0  0  0  0
    8.4880  -15.8446   20.4536 C   0  0  0  0  0  0  0  0  0  0  0  0
    8.0256  -17.0255   20.3016 O   0  0  0  0  0  0  0  0  0  0  0  0
   12.6201  -21.5910   25.2693 O   0  0  0  0  0  0  0  0  0  0  0  0
   12.3180  -20.4236   24.5637 C   0  0  0  0  0  0  0  0  0  0  0  0
   11.5562  -20.5401   23.4193 C   0  0  0  0  0  0  0  0  0  0  0  0
   11.2221  -19.4205   22.6742 C   0  0  0  0  0  0  0  0  0  0  0  0
   11.6506  -18.1559   23.0662 C   0  0  0  0  0  0  0  0  0  0  0  0
   11.2688  -17.0140   22.2444 C   0  0  0  0  0  0  0  0  0  0  0  0
    9.7859  -16.6878   22.3603 C   0  0  2  0  0  0  0  0  0  0  0  0
    9.4154  -15.6092   21.4953 N   0  0  0  0  0  0  0  0  0  0  0  0
    9.5758  -16.2726   23.7686 C   0  0  0  0  0  0  0  0  0  0  0  0
   10.2422  -15.2937   24.1959 O   0  0  0  0  0  0  0  0  0  0  0  0
   12.4010  -18.0595   24.1968 C   0  0  0  0  0  0  0  0  0  0  0  0
   12.7419  -19.1814   24.9550 C   0  0  0  0  0  0  0  0  0  0  0  0
    8.6888  -16.8871   24.6695 N   0  0  0  0  0  0  0  0  0  0  0  0
    8.6202  -16.5697   26.0842 C   0  0  1  0  0  0  0  0  0  0  0  0
    7.3231  -15.9066   26.4374 C   0  0  0  0  0  0  0  0  0  0  0  0
    7.3632  -14.4668   26.1456 C   0  0  0  0  0  0  0  0  0  0  0  0
    7.5706  -13.5859   27.1971 C   0  0  0  0  0  0  0  0  0  0  0  0
    7.6282  -12.2142   27.0313 C   0  0  0  0  0  0  0  0  0  0  0  0
    7.4747  -11.7078   25.7754 C   0  0  0  0  0  0  0  0  0  0  0  0
    7.2680  -12.5819   24.7180 C   0  0  0  0  0  0  0  0  0  0  0  0
    7.2090  -13.9486   24.8757 C   0  0  0  0  0  0  0  0  0  0  0  0
    8.9039  -17.7564   26.8718 C   0  0  0  0  0  0  0  0  0  0  0  0
    9.0290  -17.6302   28.1416 O   0  0  0  0  0  0  0  0  0  0  0  0
    9.0350  -18.9928   26.2739 O   0  0  0  0  0  0  0  0  0  0  0  0
  2  3  2  0
  2  1  1  0
  4  2  1  0
  5  4  1  0
  5  6  1  1
  7  8  2  0
  7  5  1  0
  9 10  1  0
 10 20  2  0
 10 11  1  0
 11 12  2  0
 12 13  1  0
 13 14  1  0
 15 14  1  1
 15 16  1  0
 16  7  1  0
 17 15  1  0
 17 21  1  0
 18 17  2  0
 19 13  2  0
 20 19  1  0
 22 21  1  0
 22 30  1  0
 22 23  1  1
 24 23  1  0
 25 24  2  0
 26 25  1  0
 27 26  2  0
 27 28  1  0
 28 29  2  0
 29 24  1  0
 30 32  1  0
 31 30  2  0
M  END
$$$$
