NYF.pdb
     RDKit          3D

 32 33  0  0  1  0  0  0  0  0999 V2000
    9.1869  -20.8044   18.3689 N   0  0  0  0  0  0  0  0  0  0  0  0
    8.3659  -19.6676   18.6480 C   0  0  0  0  0  0  0  0  0  0  0  0
    7.1255  -19.7848   18.5484 O   0  0  0  0  0  0  0  0  0  0  0  0
    9.0215  -18.3699   19.0519 C   0  0  0  0  0  0  0  0  0  0  0  0
    9.1918  -18.4813   20.5768 C   0  0  2  0  0  0  0  0  0  0  0  0
    7.8248  -18.7143   21.0727 N   0  0  0  0  0  0  0  0  0  0  0  0
    9.7166  -17.2255   21.1392 C   0  0  0  0  0  0  0  0  0  0  0  0
   10.8854  -16.8691   20.7672 O   0  0  0  0  0  0  0  0  0  0  0  0
    7.1621  -12.7463   17.3764 O   0  0  0  0  0  0  0  0  0  0  0  0
    7.5217  -13.0960   18.6805 C   0  0  0  0  0  0  0  0  0  0  0  0
    8.7408  -12.6561   19.1537 C   0  0  0  0  0  0  0  0  0  0  0  0
    9.1561  -12.9688   20.4382 C   0  0  0  0  0  0  0  0  0  0  0  0
    8.3508  -13.7347   21.2756 C   0  0  0  0  0  0  0  0  0  0  0  0
    8.8386  -14.0325   22.6167 C   0  0  0  0  0  0  0  0  0  0  0  0
    9.6904  -15.2940   22.6557 C   0  0  2  0  0  0  0  0  0  0  0  0
    9.0161  -16.4029   22.0520 N   0  0  0  0  0  0  0  0  0  0  0  0
    9.9096  -15.5854   24.0934 C   0  0  0  0  0  0  0  0  0  0  0  0
    9.5787  -14.7018   24.9267 O   0  0  0  0  0  0  0  0  0  0  0  0
    7.1523  -14.1602   20.7926 C   0  0  0  0  0  0  0  0  0  0  0  0
    6.7243  -13.8494   19.5004 C   0  0  0  0  0  0  0  0  0  0  0  0
   10.4602  -16.7741   24.6031 N   0  0  0  0  0  0  0  0  0  0  0  0
   10.5918  -17.0652   26.0190 C   0  0  1  0  0  0  0  0  0  0  0  0
    9.3119  -16.8072   26.7553 C   0  0  0  0  0  0  0  0  0  0  0  0
    9.2871  -15.4520   27.3235 C   0  0  0  0  0  0  0  0  0  0  0  0
   10.2089  -15.1332   28.3100 C   0  0  0  0  0  0  0  0  0  0  0  0
   10.2728  -13.8878   28.9080 C   0  0  0  0  0  0  0  0  0  0  0  0
    9.3884  -12.9318   28.5065 C   0  0  0  0  0  0  0  0  0  0  0  0
    8.4640  -13.2421   27.5197 C   0  0  0  0  0  0  0  0  0  0  0  0
    8.3942  -14.4799   26.9203 C   0  0  0  0  0  0  0  0  0  0  0  0
   11.1110  -18.4091   26.2017 C   0  0  0  0  0  0  0  0  0  0  0  0
   10.7500  -19.3201   25.3748 O   0  0  0  0  0  0  0  0  0  0  0  0
   11.9737  -18.7040   27.2371 O   0  0  0  0  0  0  0  0  0  0  0  0
  2  3  2  0
  2  1  1  0
  4  2  1  0
  5  4  1  0
  5  6  1  1
  7  8  2  0
  7  5  1  0
  9 10  1  0
 10 20  2  0
 10 11  1  0
 11 12  2  0
 12 13  1  0
 13 14  1  0
 15 14  1  1
 15 16  1  0
 16  7  1  0
 17 15  1  0
 17 21  1  0
 18 17  2  0
 19 13  2  0
 20 19  1  0
 22 21  1  0
 22 30  1  0
 22 23  1  1
 24 23  1  0
 25 24  2  0
 26 25  1  0
 27 26  2  0
 27 28  1  0
 28 29  2  0
 29 24  1  0
 30 32  1  0
 31 30  2  0
M  END
$$$$
