NMM.pdb
     RDKit          3D

 25 24  0  0  1  0  0  0  0  0999 V2000
   19.7647  -17.2045  -16.0555 N   0  0  0  0  0  0  0  0  0  0  0  0
   20.1204  -15.9187  -16.5225 C   0  0  0  0  0  0  0  0  0  0  0  0
   19.6645  -15.5018  -17.6131 O   0  0  0  0  0  0  0  0  0  0  0  0
   21.0237  -15.0771  -15.7258 C   0  0  0  0  0  0  0  0  0  0  0  0
   21.3947  -13.8454  -16.5207 C   0  0  2  0  0  0  0  0  0  0  0  0
   22.1660  -14.2401  -17.6619 N   0  0  0  0  0  0  0  0  0  0  0  0
   22.1465  -12.8703  -15.6676 C   0  0  0  0  0  0  0  0  0  0  0  0
   21.5815  -12.4551  -14.6101 O   0  0  0  0  0  0  0  0  0  0  0  0
   28.2713  -12.7577  -16.5925 C   0  0  0  0  0  0  0  0  0  0  0  0
   27.6891  -13.6832  -15.1464 S   0  0  0  0  0  0  0  0  0  0  0  0
   26.0044  -13.2179  -14.7565 C   0  0  0  0  0  0  0  0  0  0  0  0
   25.5902  -11.9108  -15.2910 C   0  0  0  0  0  0  0  0  0  0  0  0
   24.1669  -11.4999  -15.1354 C   0  0  2  0  0  0  0  0  0  0  0  0
   23.4385  -12.4434  -16.0496 N   0  0  0  0  0  0  0  0  0  0  0  0
   23.9115  -10.1341  -15.5892 C   0  0  0  0  0  0  0  0  0  0  0  0
   24.4279   -9.1218  -14.9782 O   0  0  0  0  0  0  0  0  0  0  0  0
   19.1311   -7.0043  -20.0040 C   0  0  0  0  0  0  0  0  0  0  0  0
   20.8888   -7.1318  -20.4440 S   0  0  0  0  0  0  0  0  0  0  0  0
   21.8665   -7.1041  -18.8789 C   0  0  0  0  0  0  0  0  0  0  0  0
   22.1310   -8.5163  -18.4549 C   0  0  0  0  0  0  0  0  0  0  0  0
   22.8090   -8.4951  -17.0654 C   0  0  2  0  0  0  0  0  0  0  0  0
   23.0945   -9.9046  -16.7278 N   0  0  0  0  0  0  0  0  0  0  0  0
   21.9402   -7.9236  -16.0409 C   0  0  0  0  0  0  0  0  0  0  0  0
   20.8998   -8.6844  -15.5018 O   0  0  0  0  0  0  0  0  0  0  0  0
   22.1011   -6.7379  -15.6204 O   0  0  0  0  0  0  0  0  0  0  0  0
  1  2  1  0
  2  4  1  0
  2  3  2  0
  4  5  1  0
  5  7  1  0
  5  6  1  6
  7  8  2  0
 10  9  1  0
 10 11  1  0
 12 11  1  0
 13 12  1  6
 14 13  1  0
 14  7  1  0
 15 16  2  0
 15 13  1  0
 17 18  1  0
 19 18  1  0
 19 20  1  0
 21 20  1  6
 21 22  1  0
 21 23  1  0
 22 15  1  0
 23 24  1  0
 25 23  2  0
M  END
$$$$
