NMM.pdb
     RDKit          3D

 25 24  0  0  1  0  0  0  0  0999 V2000
   29.7973  -22.6098  -16.2608 N   0  0  0  0  0  0  0  0  0  0  0  0
   28.5163  -22.0748  -16.5272 C   0  0  0  0  0  0  0  0  0  0  0  0
   28.3577  -21.2796  -17.4830 O   0  0  0  0  0  0  0  0  0  0  0  0
   27.3766  -22.4545  -15.6812 C   0  0  0  0  0  0  0  0  0  0  0  0
   26.6907  -21.2067  -15.1725 C   0  0  2  0  0  0  0  0  0  0  0  0
   27.6627  -20.3613  -14.5452 N   0  0  0  0  0  0  0  0  0  0  0  0
   25.5845  -21.5581  -14.2256 C   0  0  0  0  0  0  0  0  0  0  0  0
   24.7462  -22.4347  -14.5985 O   0  0  0  0  0  0  0  0  0  0  0  0
   25.8459  -19.1076   -8.3110 C   0  0  0  0  0  0  0  0  0  0  0  0
   26.2767  -20.8673   -8.3786 S   0  0  0  0  0  0  0  0  0  0  0  0
   25.8920  -21.5323   -9.9962 C   0  0  0  0  0  0  0  0  0  0  0  0
   24.8377  -20.8065  -10.7224 C   0  0  0  0  0  0  0  0  0  0  0  0
   24.3918  -21.3363  -12.0412 C   0  0  2  0  0  0  0  0  0  0  0  0
   25.4997  -20.9212  -12.9669 N   0  0  0  0  0  0  0  0  0  0  0  0
   23.1491  -20.7282  -12.5130 C   0  0  0  0  0  0  0  0  0  0  0  0
   23.0921  -19.4735  -12.8089 O   0  0  0  0  0  0  0  0  0  0  0  0
   19.0717  -23.7002  -16.0870 C   0  0  0  0  0  0  0  0  0  0  0  0
   17.9082  -22.3676  -15.6747 S   0  0  0  0  0  0  0  0  0  0  0  0
   18.7816  -21.1774  -14.5673 C   0  0  0  0  0  0  0  0  0  0  0  0
   20.0531  -21.8108  -14.0919 C   0  0  0  0  0  0  0  0  0  0  0  0
   20.7642  -20.8291  -13.1320 C   0  0  2  0  0  0  0  0  0  0  0  0
   21.9821  -21.5227  -12.6654 N   0  0  0  0  0  0  0  0  0  0  0  0
   19.9338  -20.4917  -11.9797 C   0  0  0  0  0  0  0  0  0  0  0  0
   20.0360  -21.2361  -10.8018 O   0  0  0  0  0  0  0  0  0  0  0  0
   19.1070  -19.5307  -12.0162 O   0  0  0  0  0  0  0  0  0  0  0  0
  1  2  1  0
  2  4  1  0
  2  3  2  0
  4  5  1  0
  5  7  1  0
  5  6  1  1
  7  8  2  0
 10  9  1  0
 10 11  1  0
 12 11  1  0
 13 12  1  1
 14 13  1  0
 14  7  1  0
 15 16  2  0
 15 13  1  0
 17 18  1  0
 19 18  1  0
 19 20  1  0
 21 20  1  6
 21 22  1  0
 21 23  1  0
 22 15  1  0
 23 24  1  0
 25 23  2  0
M  END
$$$$
