NMM.pdb
     RDKit          3D

 25 24  0  0  1  0  0  0  0  0999 V2000
   28.2495  -21.8601  -17.8697 N   0  0  0  0  0  0  0  0  0  0  0  0
   28.7383  -21.6401  -16.5618 C   0  0  0  0  0  0  0  0  0  0  0  0
   29.8529  -21.0915  -16.3953 O   0  0  0  0  0  0  0  0  0  0  0  0
   27.9359  -22.0561  -15.4033 C   0  0  0  0  0  0  0  0  0  0  0  0
   27.0148  -20.9274  -14.9984 C   0  0  2  0  0  0  0  0  0  0  0  0
   27.7999  -19.8438  -14.4862 N   0  0  0  0  0  0  0  0  0  0  0  0
   26.0126  -21.3969  -13.9890 C   0  0  0  0  0  0  0  0  0  0  0  0
   25.2416  -22.3478  -14.3227 O   0  0  0  0  0  0  0  0  0  0  0  0
   26.3870  -19.0609   -8.0290 C   0  0  0  0  0  0  0  0  0  0  0  0
   26.8575  -20.8078   -8.1446 S   0  0  0  0  0  0  0  0  0  0  0  0
   26.4480  -21.4485   -9.7659 C   0  0  0  0  0  0  0  0  0  0  0  0
   25.3579  -20.7343  -10.4498 C   0  0  0  0  0  0  0  0  0  0  0  0
   24.8853  -21.2529  -11.7637 C   0  0  2  0  0  0  0  0  0  0  0  0
   25.9484  -20.7854  -12.7164 N   0  0  0  0  0  0  0  0  0  0  0  0
   23.6093  -20.6758  -12.1826 C   0  0  0  0  0  0  0  0  0  0  0  0
   23.4443  -19.3975  -12.2423 O   0  0  0  0  0  0  0  0  0  0  0  0
   21.4366  -20.7802  -17.4606 C   0  0  0  0  0  0  0  0  0  0  0  0
   19.7497  -20.7318  -16.7887 S   0  0  0  0  0  0  0  0  0  0  0  0
   19.8752  -20.4874  -14.9637 C   0  0  0  0  0  0  0  0  0  0  0  0
   21.1753  -21.0631  -14.4921 C   0  0  0  0  0  0  0  0  0  0  0  0
   21.2773  -20.8624  -12.9624 C   0  0  2  0  0  0  0  0  0  0  0  0
   22.5303  -21.5246  -12.5454 N   0  0  0  0  0  0  0  0  0  0  0  0
   20.1552  -21.4711  -12.2542 C   0  0  0  0  0  0  0  0  0  0  0  0
   19.0481  -20.6959  -11.8999 O   0  0  0  0  0  0  0  0  0  0  0  0
   20.1554  -22.7005  -11.9426 O   0  0  0  0  0  0  0  0  0  0  0  0
  1  2  1  0
  2  4  1  0
  2  3  2  0
  4  5  1  0
  5  7  1  0
  5  6  1  1
  7  8  2  0
 10  9  1  0
 10 11  1  0
 12 11  1  0
 13 12  1  1
 14 13  1  0
 14  7  1  0
 15 16  2  0
 15 13  1  0
 17 18  1  0
 19 18  1  0
 19 20  1  0
 21 20  1  6
 21 22  1  0
 21 23  1  0
 22 15  1  0
 23 24  1  0
 25 23  2  0
M  END
$$$$
