NMM.pdb
     RDKit          3D

 25 24  0  0  1  0  0  0  0  0999 V2000
   25.6340  -14.8165  -21.9293 N   0  0  0  0  0  0  0  0  0  0  0  0
   24.5741  -14.0865  -21.3449 C   0  0  0  0  0  0  0  0  0  0  0  0
   23.4597  -14.0371  -21.9167 O   0  0  0  0  0  0  0  0  0  0  0  0
   24.7847  -13.3889  -20.0691 C   0  0  0  0  0  0  0  0  0  0  0  0
   26.2218  -13.5628  -19.6324 C   0  0  2  0  0  0  0  0  0  0  0  0
   26.3798  -14.8626  -19.0504 N   0  0  0  0  0  0  0  0  0  0  0  0
   26.6179  -12.4851  -18.6705 C   0  0  0  0  0  0  0  0  0  0  0  0
   26.1894  -12.5721  -17.4793 O   0  0  0  0  0  0  0  0  0  0  0  0
   32.2639   -7.3429  -17.1059 C   0  0  0  0  0  0  0  0  0  0  0  0
   31.6148   -8.8038  -17.9607 S   0  0  0  0  0  0  0  0  0  0  0  0
   29.8602   -8.9717  -17.6447 C   0  0  0  0  0  0  0  0  0  0  0  0
   29.2233  -10.1163  -18.3156 C   0  0  0  0  0  0  0  0  0  0  0  0
   27.7648  -10.3372  -18.1093 C   0  0  2  0  0  0  0  0  0  0  0  0
   27.4411  -11.4194  -19.0996 N   0  0  0  0  0  0  0  0  0  0  0  0
   26.9557   -9.1636  -18.4330 C   0  0  0  0  0  0  0  0  0  0  0  0
   26.7703   -8.7995  -19.6569 O   0  0  0  0  0  0  0  0  0  0  0  0
   21.3127   -6.7021  -15.9045 C   0  0  0  0  0  0  0  0  0  0  0  0
   22.5562   -5.3934  -15.7032 S   0  0  0  0  0  0  0  0  0  0  0  0
   23.8592   -5.6501  -16.9847 C   0  0  0  0  0  0  0  0  0  0  0  0
   24.6402   -6.8792  -16.6336 C   0  0  0  0  0  0  0  0  0  0  0  0
   25.6032   -7.2013  -17.7996 C   0  0  2  0  0  0  0  0  0  0  0  0
   26.3471   -8.4113  -17.3937 N   0  0  0  0  0  0  0  0  0  0  0  0
   26.5494   -6.1167  -18.0439 C   0  0  0  0  0  0  0  0  0  0  0  0
   26.2416   -5.1145  -18.9674 O   0  0  0  0  0  0  0  0  0  0  0  0
   27.6613   -6.0568  -17.4367 O   0  0  0  0  0  0  0  0  0  0  0  0
  1  2  1  0
  2  4  1  0
  2  3  2  0
  4  5  1  0
  5  7  1  0
  5  6  1  1
  7  8  2  0
 10  9  1  0
 10 11  1  0
 12 11  1  0
 13 12  1  6
 14 13  1  0
 14  7  1  0
 15 16  2  0
 15 13  1  0
 17 18  1  0
 19 18  1  0
 19 20  1  0
 21 20  1  1
 21 22  1  0
 21 23  1  0
 22 15  1  0
 23 24  1  0
 25 23  2  0
M  END
$$$$
