NMM.pdb
     RDKit          3D

 25 24  0  0  1  0  0  0  0  0999 V2000
   29.3342  -18.2669  -16.7136 N   0  0  0  0  0  0  0  0  0  0  0  0
   27.9904  -18.3845  -17.1359 C   0  0  0  0  0  0  0  0  0  0  0  0
   27.5214  -17.5673  -17.9625 O   0  0  0  0  0  0  0  0  0  0  0  0
   27.1500  -19.4655  -16.6031 C   0  0  0  0  0  0  0  0  0  0  0  0
   27.9819  -20.3527  -15.7048 C   0  0  2  0  0  0  0  0  0  0  0  0
   28.7143  -21.2817  -16.5133 N   0  0  0  0  0  0  0  0  0  0  0  0
   27.1151  -21.0631  -14.7109 C   0  0  0  0  0  0  0  0  0  0  0  0
   26.6214  -22.1809  -15.0528 O   0  0  0  0  0  0  0  0  0  0  0  0
   29.6906  -21.8811   -8.5319 C   0  0  0  0  0  0  0  0  0  0  0  0
   28.2350  -20.9347   -9.0534 S   0  0  0  0  0  0  0  0  0  0  0  0
   27.7146  -21.4574  -10.6852 C   0  0  0  0  0  0  0  0  0  0  0  0
   26.4702  -20.8322  -11.1612 C   0  0  0  0  0  0  0  0  0  0  0  0
   25.9528  -21.2158  -12.5043 C   0  0  2  0  0  0  0  0  0  0  0  0
   26.8713  -20.4872  -13.4435 N   0  0  0  0  0  0  0  0  0  0  0  0
   24.5880  -20.7519  -12.7469 C   0  0  0  0  0  0  0  0  0  0  0  0
   24.3441  -19.5152  -13.0223 O   0  0  0  0  0  0  0  0  0  0  0  0
   19.9117  -24.8413  -14.0442 C   0  0  0  0  0  0  0  0  0  0  0  0
   18.9587  -23.3373  -14.4035 S   0  0  0  0  0  0  0  0  0  0  0  0
   19.9504  -21.8898  -13.8315 C   0  0  0  0  0  0  0  0  0  0  0  0
   21.3350  -22.3580  -13.5032 C   0  0  0  0  0  0  0  0  0  0  0  0
   22.1712  -21.1411  -13.0443 C   0  0  2  0  0  0  0  0  0  0  0  0
   23.5057  -21.6696  -12.6951 N   0  0  0  0  0  0  0  0  0  0  0  0
   21.5926  -20.4894  -11.8731 C   0  0  0  0  0  0  0  0  0  0  0  0
   20.6885  -19.4364  -12.0336 O   0  0  0  0  0  0  0  0  0  0  0  0
   21.8923  -20.8530  -10.6956 O   0  0  0  0  0  0  0  0  0  0  0  0
  1  2  1  0
  2  4  1  0
  2  3  2  0
  4  5  1  0
  5  7  1  0
  5  6  1  6
  7  8  2  0
 10  9  1  0
 10 11  1  0
 12 11  1  0
 13 12  1  1
 14 13  1  0
 14  7  1  0
 15 16  2  0
 15 13  1  0
 17 18  1  0
 19 18  1  0
 19 20  1  0
 21 20  1  1
 21 22  1  0
 21 23  1  0
 22 15  1  0
 23 24  1  0
 25 23  2  0
M  END
$$$$
