NMM.pdb
     RDKit          3D

 25 24  0  0  1  0  0  0  0  0999 V2000
   21.9160  -10.5977    6.7908 N   0  0  0  0  0  0  0  0  0  0  0  0
   21.0102  -11.2889    5.9544 C   0  0  0  0  0  0  0  0  0  0  0  0
   20.8639  -10.9317    4.7618 O   0  0  0  0  0  0  0  0  0  0  0  0
   20.2443  -12.4236    6.4881 C   0  0  0  0  0  0  0  0  0  0  0  0
   18.9343  -12.5410    5.7422 C   0  0  2  0  0  0  0  0  0  0  0  0
   18.0404  -11.5205    6.2033 N   0  0  0  0  0  0  0  0  0  0  0  0
   18.3415  -13.9047    5.9229 C   0  0  0  0  0  0  0  0  0  0  0  0
   17.8282  -14.1791    7.0505 O   0  0  0  0  0  0  0  0  0  0  0  0
   18.1632  -17.8682    0.9197 C   0  0  0  0  0  0  0  0  0  0  0  0
   17.0017  -18.7675    1.9821 S   0  0  0  0  0  0  0  0  0  0  0  0
   17.0888  -18.1401    3.6571 C   0  0  0  0  0  0  0  0  0  0  0  0
   17.6411  -16.7810    3.7745 C   0  0  0  0  0  0  0  0  0  0  0  0
   17.8942  -16.2339    5.1366 C   0  0  2  0  0  0  0  0  0  0  0  0
   18.3659  -14.8350    4.8592 N   0  0  0  0  0  0  0  0  0  0  0  0
   18.9553  -16.9416    5.8508 C   0  0  0  0  0  0  0  0  0  0  0  0
   20.1980  -16.7372    5.5700 O   0  0  0  0  0  0  0  0  0  0  0  0
   22.8227  -18.3355   12.0142 C   0  0  0  0  0  0  0  0  0  0  0  0
   21.5210  -17.4594   11.0991 S   0  0  0  0  0  0  0  0  0  0  0  0
   21.1023  -18.4654    9.6097 C   0  0  0  0  0  0  0  0  0  0  0  0
   20.1110  -17.7058    8.7824 C   0  0  0  0  0  0  0  0  0  0  0  0
   19.7562  -18.5520    7.5379 C   0  0  2  0  0  0  0  0  0  0  0  0
   18.6272  -17.8614    6.8817 N   0  0  0  0  0  0  0  0  0  0  0  0
   19.3464  -19.9068    7.8955 C   0  0  0  0  0  0  0  0  0  0  0  0
   20.3107  -20.8845    8.1526 O   0  0  0  0  0  0  0  0  0  0  0  0
   18.1228  -20.2299    7.9782 O   0  0  0  0  0  0  0  0  0  0  0  0
  1  2  1  0
  2  4  1  0
  2  3  2  0
  4  5  1  0
  5  7  1  0
  5  6  1  1
  7  8  2  0
 10  9  1  0
 10 11  1  0
 12 11  1  0
 13 12  1  6
 14 13  1  0
 14  7  1  0
 15 16  2  0
 15 13  1  0
 17 18  1  0
 19 18  1  0
 19 20  1  0
 21 20  1  1
 21 22  1  0
 21 23  1  0
 22 15  1  0
 23 24  1  0
 25 23  2  0
M  END
$$$$
