NMM.pdb
     RDKit          3D

 25 24  0  0  1  0  0  0  0  0999 V2000
   28.9208  -18.1742  -15.4169 N   0  0  0  0  0  0  0  0  0  0  0  0
   27.6977  -18.3524  -16.1028 C   0  0  0  0  0  0  0  0  0  0  0  0
   27.2902  -17.4692  -16.8933 O   0  0  0  0  0  0  0  0  0  0  0  0
   26.9101  -19.5735  -15.8849 C   0  0  0  0  0  0  0  0  0  0  0  0
   27.6340  -20.4707  -14.9066 C   0  0  2  0  0  0  0  0  0  0  0  0
   28.2755  -21.5289  -15.6288 N   0  0  0  0  0  0  0  0  0  0  0  0
   26.6857  -21.0105  -13.8803 C   0  0  0  0  0  0  0  0  0  0  0  0
   25.9136  -21.9546  -14.2306 O   0  0  0  0  0  0  0  0  0  0  0  0
   26.5623  -18.8941   -7.3199 C   0  0  0  0  0  0  0  0  0  0  0  0
   26.3930  -20.6870   -7.5272 S   0  0  0  0  0  0  0  0  0  0  0  0
   25.5353  -21.0505   -9.0566 C   0  0  0  0  0  0  0  0  0  0  0  0
   26.2770  -20.6905  -10.2757 C   0  0  0  0  0  0  0  0  0  0  0  0
   25.6718  -21.0186  -11.5966 C   0  0  2  0  0  0  0  0  0  0  0  0
   26.6712  -20.4699  -12.5746 N   0  0  0  0  0  0  0  0  0  0  0  0
   24.3931  -20.3478  -11.8239 C   0  0  0  0  0  0  0  0  0  0  0  0
   24.3301  -19.2396  -12.4818 O   0  0  0  0  0  0  0  0  0  0  0  0
   23.0449  -21.7857  -16.4086 C   0  0  0  0  0  0  0  0  0  0  0  0
   21.3043  -22.0581  -15.9665 S   0  0  0  0  0  0  0  0  0  0  0  0
   20.9996  -21.2400  -14.3405 C   0  0  0  0  0  0  0  0  0  0  0  0
   22.2408  -21.3508  -13.5090 C   0  0  0  0  0  0  0  0  0  0  0  0
   21.9719  -20.6996  -12.1327 C   0  0  2  0  0  0  0  0  0  0  0  0
   23.1918  -20.9215  -11.3296 N   0  0  0  0  0  0  0  0  0  0  0  0
   20.8330  -21.3084  -11.4519 C   0  0  0  0  0  0  0  0  0  0  0  0
   19.5567  -20.7585  -11.5950 O   0  0  0  0  0  0  0  0  0  0  0  0
   20.9687  -22.3355  -10.7203 O   0  0  0  0  0  0  0  0  0  0  0  0
  1  2  1  0
  2  4  1  0
  2  3  2  0
  4  5  1  0
  5  7  1  0
  5  6  1  6
  7  8  2  0
 10  9  1  0
 10 11  1  0
 12 11  1  0
 13 12  1  1
 14 13  1  0
 14  7  1  0
 15 16  2  0
 15 13  1  0
 17 18  1  0
 19 18  1  0
 19 20  1  0
 21 20  1  6
 21 22  1  0
 21 23  1  0
 22 15  1  0
 23 24  1  0
 25 23  2  0
M  END
$$$$
