NMM.pdb
     RDKit          3D

 25 24  0  0  1  0  0  0  0  0999 V2000
   19.0435  -22.1376  -14.0408 N   0  0  0  0  0  0  0  0  0  0  0  0
   19.2432  -21.9978  -12.6485 C   0  0  0  0  0  0  0  0  0  0  0  0
   18.3214  -22.2934  -11.8523 O   0  0  0  0  0  0  0  0  0  0  0  0
   20.5318  -21.5063  -12.1418 C   0  0  0  0  0  0  0  0  0  0  0  0
   21.4777  -21.2885  -13.3011 C   0  0  2  0  0  0  0  0  0  0  0  0
   21.8308  -22.5589  -13.8618 N   0  0  0  0  0  0  0  0  0  0  0  0
   22.6933  -20.5330  -12.8591 C   0  0  0  0  0  0  0  0  0  0  0  0
   22.5163  -19.4093  -12.2970 O   0  0  0  0  0  0  0  0  0  0  0  0
   25.8933  -20.5091   -7.8718 C   0  0  0  0  0  0  0  0  0  0  0  0
   25.9433  -20.0348   -9.6208 S   0  0  0  0  0  0  0  0  0  0  0  0
   26.0053  -21.4971  -10.6525 C   0  0  0  0  0  0  0  0  0  0  0  0
   26.1053  -21.2254  -12.0955 C   0  0  0  0  0  0  0  0  0  0  0  0
   25.1689  -20.2353  -12.6970 C   0  0  2  0  0  0  0  0  0  0  0  0
   23.9811  -21.0748  -13.0723 N   0  0  0  0  0  0  0  0  0  0  0  0
   25.6933  -19.6150  -13.9122 C   0  0  0  0  0  0  0  0  0  0  0  0
   26.0306  -20.3294  -14.9323 O   0  0  0  0  0  0  0  0  0  0  0  0
   27.6081  -13.8557  -15.7524 C   0  0  0  0  0  0  0  0  0  0  0  0
   27.4989  -15.2580  -16.9017 S   0  0  0  0  0  0  0  0  0  0  0  0
   28.4412  -16.6649  -16.1678 C   0  0  0  0  0  0  0  0  0  0  0  0
   27.7646  -17.0837  -14.8986 C   0  0  0  0  0  0  0  0  0  0  0  0
   26.3716  -17.6564  -15.2484 C   0  0  2  0  0  0  0  0  0  0  0  0
   25.8259  -18.2032  -13.9892 N   0  0  0  0  0  0  0  0  0  0  0  0
   26.4521  -18.7252  -16.2396 C   0  0  0  0  0  0  0  0  0  0  0  0
   26.9093  -19.9918  -15.8672 O   0  0  0  0  0  0  0  0  0  0  0  0
   26.1175  -18.5358  -17.4482 O   0  0  0  0  0  0  0  0  0  0  0  0
  1  2  1  0
  2  4  1  0
  2  3  2  0
  4  5  1  0
  5  7  1  0
  5  6  1  1
  7  8  2  0
 10  9  1  0
 10 11  1  0
 12 11  1  0
 13 12  1  6
 14 13  1  0
 14  7  1  0
 15 16  2  0
 15 13  1  0
 17 18  1  0
 19 18  1  0
 19 20  1  0
 21 20  1  1
 21 22  1  0
 21 23  1  0
 22 15  1  0
 23 24  1  0
 25 23  2  0
M  END
$$$$
