SFC.pdb
     RDKit          3D

 24 24  0  0  1  0  0  0  0  0999 V2000
    9.0170  -18.7729   21.3056 O   0  0  0  0  0  0  0  0  0  0  0  0
    8.1889  -17.9408   20.5736 C   0  0  0  0  0  0  0  0  0  0  0  0
    8.8472  -16.6002   20.3812 C   0  0  2  0  0  0  0  0  0  0  0  0
   10.0938  -16.6653   19.6868 N   0  0  0  0  0  0  0  0  0  0  0  0
    9.0762  -16.0119   21.7223 C   0  0  0  0  0  0  0  0  0  0  0  0
   10.1901  -16.0812   22.2848 O   0  0  0  0  0  0  0  0  0  0  0  0
    8.0324  -15.3496   22.4104 N   0  0  0  0  0  0  0  0  0  0  0  0
    8.2226  -14.7509   23.7405 C   0  0  1  0  0  0  0  0  0  0  0  0
    7.0327  -13.8357   23.9355 C   0  0  0  0  0  0  0  0  0  0  0  0
    7.0722  -13.1370   25.2293 C   0  0  0  0  0  0  0  0  0  0  0  0
    6.0527  -12.2342   25.5088 C   0  0  0  0  0  0  0  0  0  0  0  0
    6.0811  -11.5777   26.7214 C   0  0  0  0  0  0  0  0  0  0  0  0
    7.1032  -11.8352   27.6006 C   0  0  0  0  0  0  0  0  0  0  0  0
    8.1083  -12.7284   27.3197 C   0  0  0  0  0  0  0  0  0  0  0  0
    8.0890  -13.3944   26.1019 C   0  0  0  0  0  0  0  0  0  0  0  0
    8.3048  -15.8301   24.7284 C   0  0  0  0  0  0  0  0  0  0  0  0
    7.4660  -16.7634   24.8044 O   0  0  0  0  0  0  0  0  0  0  0  0
    9.3762  -15.8867   25.6930 N   0  0  0  0  0  0  0  0  0  0  0  0
    9.8504  -17.1529   26.2193 C   0  0  1  0  0  0  0  0  0  0  0  0
   10.4521  -18.0001   25.0908 C   0  0  0  0  0  0  0  0  0  0  0  0
   11.0210  -19.5558   25.7979 S   0  0  0  0  0  0  0  0  0  0  0  0
   10.8585  -16.9805   27.2722 C   0  0  0  0  0  0  0  0  0  0  0  0
   10.6829  -17.6707   28.4624 O   0  0  0  0  0  0  0  0  0  0  0  0
   11.8565  -16.2434   27.1361 O   0  0  0  0  0  0  0  0  0  0  0  0
  1  2  1  0
  2  3  1  0
  3  5  1  0
  3  4  1  1
  5  6  2  0
  7  8  1  0
  7  5  1  0
  9 10  1  0
  8  9  1  1
 10 11  2  0
 11 12  1  0
 13 12  2  0
 14 13  1  0
 15 14  2  0
 15 10  1  0
 16  8  1  0
 16 17  2  0
 18 16  1  0
 19 18  1  0
 19 22  1  0
 19 20  1  6
 21 20  1  0
 22 23  1  0
 24 22  2  0
M  END
$$$$
