SFC.pdb
     RDKit          3D

 24 24  0  0  1  0  0  0  0  0999 V2000
    8.4492  -18.9552   19.6996 O   0  0  0  0  0  0  0  0  0  0  0  0
    9.3433  -18.3179   20.5414 C   0  0  0  0  0  0  0  0  0  0  0  0
    9.4405  -16.8595   20.1788 C   0  0  2  0  0  0  0  0  0  0  0  0
   10.5509  -16.5487   19.3357 N   0  0  0  0  0  0  0  0  0  0  0  0
    9.5644  -16.0875   21.4381 C   0  0  0  0  0  0  0  0  0  0  0  0
   10.6800  -15.7628   21.8985 O   0  0  0  0  0  0  0  0  0  0  0  0
    8.4144  -15.6924   22.1613 N   0  0  0  0  0  0  0  0  0  0  0  0
    8.4987  -14.9678   23.4387 C   0  0  1  0  0  0  0  0  0  0  0  0
    7.1840  -14.2277   23.5606 C   0  0  0  0  0  0  0  0  0  0  0  0
    7.0545  -13.5283   24.8480 C   0  0  0  0  0  0  0  0  0  0  0  0
    6.2034  -14.0773   25.8003 C   0  0  0  0  0  0  0  0  0  0  0  0
    6.0794  -13.4289   27.0112 C   0  0  0  0  0  0  0  0  0  0  0  0
    6.7922  -12.2770   27.2322 C   0  0  0  0  0  0  0  0  0  0  0  0
    7.6320  -11.7384   26.2879 C   0  0  0  0  0  0  0  0  0  0  0  0
    7.7640  -12.3833   25.0657 C   0  0  0  0  0  0  0  0  0  0  0  0
    8.7296  -15.9404   24.5102 C   0  0  0  0  0  0  0  0  0  0  0  0
    7.9244  -16.8639   24.7913 O   0  0  0  0  0  0  0  0  0  0  0  0
    9.9204  -15.8948   25.3236 N   0  0  0  0  0  0  0  0  0  0  0  0
   10.1553  -16.8705   26.3714 C   0  0  1  0  0  0  0  0  0  0  0  0
   11.6514  -17.1972   26.4611 C   0  0  0  0  0  0  0  0  0  0  0  0
   12.2386  -17.6013   24.8070 S   0  0  0  0  0  0  0  0  0  0  0  0
    9.6916  -16.4062   27.6845 C   0  0  0  0  0  0  0  0  0  0  0  0
    9.8036  -17.2748   28.7601 O   0  0  0  0  0  0  0  0  0  0  0  0
    9.2058  -15.2709   27.8654 O   0  0  0  0  0  0  0  0  0  0  0  0
  1  2  1  0
  2  3  1  0
  3  5  1  0
  3  4  1  6
  5  6  2  0
  7  8  1  0
  7  5  1  0
  9 10  1  0
  8  9  1  1
 10 11  2  0
 11 12  1  0
 13 12  2  0
 14 13  1  0
 15 14  2  0
 15 10  1  0
 16  8  1  0
 16 17  2  0
 18 16  1  0
 19 18  1  0
 19 22  1  0
 19 20  1  1
 21 20  1  0
 22 23  1  0
 24 22  2  0
M  END
$$$$
