SFC.pdb
     RDKit          3D

 24 24  0  0  1  0  0  0  0  0999 V2000
   10.2849  -18.7126   20.9065 O   0  0  0  0  0  0  0  0  0  0  0  0
    9.2517  -18.0169   20.3044 C   0  0  0  0  0  0  0  0  0  0  0  0
    9.6559  -16.5827   20.0869 C   0  0  2  0  0  0  0  0  0  0  0  0
   10.9193  -16.4328   19.4374 N   0  0  0  0  0  0  0  0  0  0  0  0
    9.7181  -15.9239   21.4132 C   0  0  0  0  0  0  0  0  0  0  0  0
   10.8049  -15.7459   22.0041 O   0  0  0  0  0  0  0  0  0  0  0  0
    8.5399  -15.4739   22.0542 N   0  0  0  0  0  0  0  0  0  0  0  0
    8.5603  -14.8304   23.3768 C   0  0  1  0  0  0  0  0  0  0  0  0
    7.2482  -14.0817   23.4722 C   0  0  0  0  0  0  0  0  0  0  0  0
    7.0875  -13.3997   24.7654 C   0  0  0  0  0  0  0  0  0  0  0  0
    6.2180  -13.9644   25.6915 C   0  0  0  0  0  0  0  0  0  0  0  0
    6.0647  -13.3324   26.9077 C   0  0  0  0  0  0  0  0  0  0  0  0
    6.7677  -12.1807   27.1593 C   0  0  0  0  0  0  0  0  0  0  0  0
    7.6258  -11.6267   26.2409 C   0  0  0  0  0  0  0  0  0  0  0  0
    7.7874  -12.2550   25.0137 C   0  0  0  0  0  0  0  0  0  0  0  0
    8.7217  -15.8700   24.3969 C   0  0  0  0  0  0  0  0  0  0  0  0
    7.9901  -16.8898   24.4667 O   0  0  0  0  0  0  0  0  0  0  0  0
    9.7520  -15.7828   25.4030 N   0  0  0  0  0  0  0  0  0  0  0  0
    9.9281  -16.8279   26.3940 C   0  0  1  0  0  0  0  0  0  0  0  0
   11.2930  -17.5035   26.2102 C   0  0  0  0  0  0  0  0  0  0  0  0
   11.6406  -17.5973   24.4454 S   0  0  0  0  0  0  0  0  0  0  0  0
    9.8313  -16.3202   27.7679 C   0  0  0  0  0  0  0  0  0  0  0  0
    9.8828  -17.2374   28.8072 O   0  0  0  0  0  0  0  0  0  0  0  0
    9.7058  -15.1067   28.0311 O   0  0  0  0  0  0  0  0  0  0  0  0
  1  2  1  0
  2  3  1  0
  3  5  1  0
  3  4  1  1
  5  6  2  0
  7  8  1  0
  7  5  1  0
  9 10  1  0
  8  9  1  1
 10 11  2  0
 11 12  1  0
 13 12  2  0
 14 13  1  0
 15 14  2  0
 15 10  1  0
 16  8  1  0
 16 17  2  0
 18 16  1  0
 19 18  1  0
 19 22  1  0
 19 20  1  1
 21 20  1  0
 22 23  1  0
 24 22  2  0
M  END
$$$$
