SFC.pdb
     RDKit          3D

 24 24  0  0  1  0  0  0  0  0999 V2000
    9.0080  -18.6211   20.1601 O   0  0  0  0  0  0  0  0  0  0  0  0
    7.9078  -17.8080   19.9539 C   0  0  0  0  0  0  0  0  0  0  0  0
    8.3546  -16.3912   19.7080 C   0  0  2  0  0  0  0  0  0  0  0  0
    9.4638  -16.2842   18.8142 N   0  0  0  0  0  0  0  0  0  0  0  0
    8.7340  -15.8031   21.0146 C   0  0  0  0  0  0  0  0  0  0  0  0
    9.9261  -15.7516   21.3866 O   0  0  0  0  0  0  0  0  0  0  0  0
    7.7503  -15.2788   21.8857 N   0  0  0  0  0  0  0  0  0  0  0  0
    8.0872  -14.6982   23.1947 C   0  0  1  0  0  0  0  0  0  0  0  0
    6.8738  -13.8840   23.5898 C   0  0  0  0  0  0  0  0  0  0  0  0
    7.0044  -13.3048   24.9355 C   0  0  0  0  0  0  0  0  0  0  0  0
    6.2193  -13.8406   25.9499 C   0  0  0  0  0  0  0  0  0  0  0  0
    6.3388  -13.3049   27.2152 C   0  0  0  0  0  0  0  0  0  0  0  0
    7.2186  -12.2730   27.4271 C   0  0  0  0  0  0  0  0  0  0  0  0
    7.9923  -11.7470   26.4213 C   0  0  0  0  0  0  0  0  0  0  0  0
    7.8797  -12.2791   25.1441 C   0  0  0  0  0  0  0  0  0  0  0  0
    8.3923  -15.7905   24.1227 C   0  0  0  0  0  0  0  0  0  0  0  0
    7.6363  -16.7791   24.2997 O   0  0  0  0  0  0  0  0  0  0  0  0
    9.6046  -15.7961   24.9050 N   0  0  0  0  0  0  0  0  0  0  0  0
    9.9597  -16.9308   25.7366 C   0  0  1  0  0  0  0  0  0  0  0  0
   11.2652  -17.5622   25.2365 C   0  0  0  0  0  0  0  0  0  0  0  0
   12.4599  -16.2421   24.9644 S   0  0  0  0  0  0  0  0  0  0  0  0
   10.1211  -16.5629   27.1484 C   0  0  0  0  0  0  0  0  0  0  0  0
   10.3571  -17.5778   28.0639 O   0  0  0  0  0  0  0  0  0  0  0  0
   10.0543  -15.3830   27.5497 O   0  0  0  0  0  0  0  0  0  0  0  0
  1  2  1  0
  2  3  1  0
  3  5  1  0
  3  4  1  6
  5  6  2  0
  7  8  1  0
  7  5  1  0
  9 10  1  0
  8  9  1  1
 10 11  2  0
 11 12  1  0
 13 12  2  0
 14 13  1  0
 15 14  2  0
 15 10  1  0
 16  8  1  0
 16 17  2  0
 18 16  1  0
 19 18  1  0
 19 22  1  0
 19 20  1  6
 21 20  1  0
 22 23  1  0
 24 22  2  0
M  END
$$$$
