SFC.pdb
     RDKit          3D

 24 24  0  0  1  0  0  0  0  0999 V2000
   10.6759  -18.9236   21.7097 O   0  0  0  0  0  0  0  0  0  0  0  0
    9.3283  -18.8338   21.4092 C   0  0  0  0  0  0  0  0  0  0  0  0
    9.0509  -17.5515   20.6700 C   0  0  2  0  0  0  0  0  0  0  0  0
    9.9222  -17.3266   19.5605 N   0  0  0  0  0  0  0  0  0  0  0  0
    9.2011  -16.4334   21.6313 C   0  0  0  0  0  0  0  0  0  0  0  0
   10.2204  -15.7101   21.6385 O   0  0  0  0  0  0  0  0  0  0  0  0
    8.1872  -16.1498   22.5763 N   0  0  0  0  0  0  0  0  0  0  0  0
    8.3057  -15.0567   23.5536 C   0  0  1  0  0  0  0  0  0  0  0  0
    6.9356  -14.9427   24.1869 C   0  0  0  0  0  0  0  0  0  0  0  0
    6.8744  -13.8743   25.1960 C   0  0  0  0  0  0  0  0  0  0  0  0
    7.0645  -14.2289   26.5267 C   0  0  0  0  0  0  0  0  0  0  0  0
    7.0119  -13.2320   27.4783 C   0  0  0  0  0  0  0  0  0  0  0  0
    6.7763  -11.9387   27.0836 C   0  0  0  0  0  0  0  0  0  0  0  0
    6.5892  -11.5934   25.7673 C   0  0  0  0  0  0  0  0  0  0  0  0
    6.6402  -12.5893   24.8016 C   0  0  0  0  0  0  0  0  0  0  0  0
    9.3684  -15.3962   24.5038 C   0  0  0  0  0  0  0  0  0  0  0  0
   10.0579  -14.5353   25.1067 O   0  0  0  0  0  0  0  0  0  0  0  0
    9.6932  -16.7681   24.8101 N   0  0  0  0  0  0  0  0  0  0  0  0
   10.7044  -17.1012   25.7959 C   0  0  1  0  0  0  0  0  0  0  0  0
   10.2218  -16.7095   27.1984 C   0  0  0  0  0  0  0  0  0  0  0  0
    8.8512  -17.7898   27.6434 S   0  0  0  0  0  0  0  0  0  0  0  0
   11.0423  -18.5296   25.7923 C   0  0  0  0  0  0  0  0  0  0  0  0
   12.0478  -18.9640   26.6433 O   0  0  0  0  0  0  0  0  0  0  0  0
   10.4637  -19.3576   25.0593 O   0  0  0  0  0  0  0  0  0  0  0  0
  1  2  1  0
  2  3  1  0
  3  5  1  0
  3  4  1  6
  5  6  2  0
  7  8  1  0
  7  5  1  0
  9 10  1  0
  8  9  1  1
 10 11  2  0
 11 12  1  0
 13 12  2  0
 14 13  1  0
 15 14  2  0
 15 10  1  0
 16  8  1  0
 16 17  2  0
 18 16  1  0
 19 18  1  0
 19 22  1  0
 19 20  1  1
 21 20  1  0
 22 23  1  0
 24 22  2  0
M  END
$$$$
