SFC.pdb
     RDKit          3D

 24 24  0  0  1  0  0  0  0  0999 V2000
    9.6418  -18.8732   21.6182 O   0  0  0  0  0  0  0  0  0  0  0  0
    8.8229  -18.0827   20.8316 C   0  0  0  0  0  0  0  0  0  0  0  0
    9.4701  -16.7429   20.6000 C   0  0  2  0  0  0  0  0  0  0  0  0
   10.7448  -16.8222   19.9601 N   0  0  0  0  0  0  0  0  0  0  0  0
    9.6362  -16.0867   21.9187 C   0  0  0  0  0  0  0  0  0  0  0  0
   10.7446  -16.0493   22.4950 O   0  0  0  0  0  0  0  0  0  0  0  0
    8.5365  -15.4787   22.5686 N   0  0  0  0  0  0  0  0  0  0  0  0
    8.6527  -14.8574   23.8969 C   0  0  1  0  0  0  0  0  0  0  0  0
    7.3879  -14.0427   24.0640 C   0  0  0  0  0  0  0  0  0  0  0  0
    7.3394  -13.3466   25.3588 C   0  0  0  0  0  0  0  0  0  0  0  0
    6.1074  -13.2487   25.9954 C   0  0  0  0  0  0  0  0  0  0  0  0
    6.0546  -12.6003   27.2116 C   0  0  0  0  0  0  0  0  0  0  0  0
    7.2070  -12.0798   27.7456 C   0  0  0  0  0  0  0  0  0  0  0  0
    8.4220  -12.1792   27.1125 C   0  0  0  0  0  0  0  0  0  0  0  0
    8.4860  -12.8300   25.8880 C   0  0  0  0  0  0  0  0  0  0  0  0
    8.8063  -15.9195   24.8948 C   0  0  0  0  0  0  0  0  0  0  0  0
    7.9794  -16.8547   25.0422 O   0  0  0  0  0  0  0  0  0  0  0  0
    9.9401  -15.9554   25.7864 N   0  0  0  0  0  0  0  0  0  0  0  0
   10.1073  -17.0270   26.7502 C   0  0  1  0  0  0  0  0  0  0  0  0
   11.2625  -17.9423   26.3249 C   0  0  0  0  0  0  0  0  0  0  0  0
   12.6936  -16.9103   25.9634 S   0  0  0  0  0  0  0  0  0  0  0  0
   10.3722  -16.5270   28.1046 C   0  0  0  0  0  0  0  0  0  0  0  0
   10.5241  -15.1590   28.2766 O   0  0  0  0  0  0  0  0  0  0  0  0
   10.4646  -17.2802   29.0955 O   0  0  0  0  0  0  0  0  0  0  0  0
  1  2  1  0
  2  3  1  0
  3  5  1  0
  3  4  1  1
  5  6  2  0
  7  8  1  0
  7  5  1  0
  9 10  1  0
  8  9  1  1
 10 11  2  0
 11 12  1  0
 13 12  2  0
 14 13  1  0
 15 14  2  0
 15 10  1  0
 16  8  1  0
 16 17  2  0
 18 16  1  0
 19 18  1  0
 19 22  1  0
 19 20  1  6
 21 20  1  0
 22 23  1  0
 24 22  2  0
M  END
$$$$
