QII.pdb
     RDKit          3D

 26 25  0  0  1  0  0  0  0  0999 V2000
   20.5941  -22.7530  -14.0704 N   0  0  0  0  0  0  0  0  0  0  0  0
   20.1892  -21.5502  -13.4576 C   0  0  0  0  0  0  0  0  0  0  0  0
   19.1105  -21.0105  -13.8125 O   0  0  0  0  0  0  0  0  0  0  0  0
   21.0679  -20.9711  -12.4086 C   0  0  0  0  0  0  0  0  0  0  0  0
   22.2389  -21.8966  -12.1060 C   0  0  0  0  0  0  0  0  0  0  0  0
   23.4206  -21.3694  -12.9124 C   0  0  2  0  0  0  0  0  0  0  0  0
   23.4184  -22.0676  -14.1731 N   0  0  0  0  0  0  0  0  0  0  0  0
   24.6980  -21.5578  -12.1972 C   0  0  0  0  0  0  0  0  0  0  0  0
   25.1889  -22.7037  -12.1334 O   0  0  0  0  0  0  0  0  0  0  0  0
   28.6880  -18.8875  -13.7302 C   0  0  0  0  0  0  0  0  0  0  0  0
   27.7250  -19.8636  -13.1016 C   0  0  0  0  0  0  0  0  0  0  0  0
   27.5801  -19.6407  -11.6352 C   0  0  2  0  0  0  0  0  0  0  0  0
   28.9325  -19.7684  -10.9280 C   0  0  0  0  0  0  0  0  0  0  0  0
   26.6518  -20.6029  -10.9333 C   0  0  2  0  0  0  0  0  0  0  0  0
   25.3621  -20.4777  -11.5939 N   0  0  0  0  0  0  0  0  0  0  0  0
   26.5505  -20.1670   -9.5142 C   0  0  0  0  0  0  0  0  0  0  0  0
   25.6255  -19.3625   -9.2335 O   0  0  0  0  0  0  0  0  0  0  0  0
   28.9389  -21.4022   -3.8665 C   0  0  0  0  0  0  0  0  0  0  0  0
   27.9811  -20.7381   -4.7699 C   0  0  0  0  0  0  0  0  0  0  0  0
   28.0781  -20.8912   -6.2207 C   0  0  2  0  0  0  0  0  0  0  0  0
   29.5504  -20.8742   -6.6907 C   0  0  0  0  0  0  0  0  0  0  0  0
   27.2260  -20.0838   -7.1087 C   0  0  2  0  0  0  0  0  0  0  0  0
   27.4144  -20.6001   -8.5062 N   0  0  0  0  0  0  0  0  0  0  0  0
   27.3996  -18.6240   -7.1499 C   0  0  0  0  0  0  0  0  0  0  0  0
   26.8288  -17.7954   -6.4106 O   0  0  0  0  0  0  0  0  0  0  0  0
   28.2820  -18.0399   -8.0926 O   0  0  0  0  0  0  0  0  0  0  0  0
  2  1  1  0
  2  4  1  0
  3  2  2  0
  5  4  1  0
  6  5  1  0
  6  7  1  6
  8  6  1  0
  8  9  2  0
 11 10  1  0
 12 11  1  0
 12 14  1  0
 12 13  1  1
 14 15  1  6
 15  8  1  0
 16 14  1  0
 17 16  2  0
 18 19  1  0
 20 19  1  0
 20 22  1  0
 20 21  1  6
 22 23  1  6
 22 24  1  0
 23 16  1  0
 24 26  1  0
 25 24  2  0
M  END
$$$$
