QII.pdb
     RDKit          3D

 26 25  0  0  1  0  0  0  0  0999 V2000
   19.5104  -20.4719  -14.1504 N   0  0  0  0  0  0  0  0  0  0  0  0
   19.5473  -19.1762  -14.7036 C   0  0  0  0  0  0  0  0  0  0  0  0
   18.4881  -18.6662  -15.1497 O   0  0  0  0  0  0  0  0  0  0  0  0
   20.8526  -18.4669  -14.7332 C   0  0  0  0  0  0  0  0  0  0  0  0
   21.8949  -19.2080  -13.9064 C   0  0  0  0  0  0  0  0  0  0  0  0
   23.2260  -19.0175  -14.6254 C   0  0  2  0  0  0  0  0  0  0  0  0
   22.9469  -19.0121  -16.0392 N   0  0  0  0  0  0  0  0  0  0  0  0
   24.1935  -20.0752  -14.2737 C   0  0  0  0  0  0  0  0  0  0  0  0
   23.9664  -21.2458  -14.6429 O   0  0  0  0  0  0  0  0  0  0  0  0
   29.4341  -19.1434  -14.7112 C   0  0  0  0  0  0  0  0  0  0  0  0
   28.0678  -19.7804  -14.6584 C   0  0  0  0  0  0  0  0  0  0  0  0
   27.6802  -20.1584  -13.2700 C   0  0  2  0  0  0  0  0  0  0  0  0
   28.6760  -21.1611  -12.6797 C   0  0  0  0  0  0  0  0  0  0  0  0
   26.3192  -20.7997  -13.1407 C   0  0  2  0  0  0  0  0  0  0  0  0
   25.3538  -19.7867  -13.5373 N   0  0  0  0  0  0  0  0  0  0  0  0
   26.1321  -21.1600  -11.7092 C   0  0  0  0  0  0  0  0  0  0  0  0
   26.6440  -22.2430  -11.3262 O   0  0  0  0  0  0  0  0  0  0  0  0
   27.7285  -18.6164   -7.6900 C   0  0  0  0  0  0  0  0  0  0  0  0
   27.1512  -19.7045   -8.5009 C   0  0  0  0  0  0  0  0  0  0  0  0
   25.7240  -20.0166   -8.4422 C   0  0  2  0  0  0  0  0  0  0  0  0
   25.2885  -20.3900   -7.0070 C   0  0  0  0  0  0  0  0  0  0  0  0
   25.1234  -20.9232   -9.4341 C   0  0  2  0  0  0  0  0  0  0  0  0
   25.4315  -20.3698  -10.7956 N   0  0  0  0  0  0  0  0  0  0  0  0
   23.6794  -21.1974   -9.3850 C   0  0  0  0  0  0  0  0  0  0  0  0
   23.0962  -21.9153   -8.5464 O   0  0  0  0  0  0  0  0  0  0  0  0
   22.8144  -20.6242  -10.3503 O   0  0  0  0  0  0  0  0  0  0  0  0
  2  1  1  0
  2  4  1  0
  3  2  2  0
  5  4  1  0
  6  5  1  0
  6  7  1  6
  8  6  1  0
  8  9  2  0
 11 10  1  0
 12 11  1  0
 12 14  1  0
 12 13  1  6
 14 15  1  1
 15  8  1  0
 16 14  1  0
 17 16  2  0
 18 19  1  0
 20 19  1  0
 20 22  1  0
 20 21  1  1
 22 23  1  6
 22 24  1  0
 23 16  1  0
 24 26  1  0
 25 24  2  0
M  END
$$$$
