QII.pdb
     RDKit          3D

 26 25  0  0  1  0  0  0  0  0999 V2000
   29.3048  -18.8640  -17.6327 N   0  0  0  0  0  0  0  0  0  0  0  0
   28.9449  -17.8139  -16.7644 C   0  0  0  0  0  0  0  0  0  0  0  0
   29.5797  -16.7296  -16.8122 O   0  0  0  0  0  0  0  0  0  0  0  0
   27.8184  -18.0421  -15.8226 C   0  0  0  0  0  0  0  0  0  0  0  0
   27.2314  -19.4358  -16.0019 C   0  0  0  0  0  0  0  0  0  0  0  0
   27.8603  -20.3075  -14.9205 C   0  0  2  0  0  0  0  0  0  0  0  0
   28.7021  -21.2685  -15.5874 N   0  0  0  0  0  0  0  0  0  0  0  0
   26.8367  -20.9746  -14.0923 C   0  0  0  0  0  0  0  0  0  0  0  0
   26.4046  -22.0893  -14.4512 O   0  0  0  0  0  0  0  0  0  0  0  0
   26.9681  -20.3724   -8.6715 C   0  0  0  0  0  0  0  0  0  0  0  0
   26.7261  -21.0240  -10.0102 C   0  0  0  0  0  0  0  0  0  0  0  0
   25.5266  -20.4653  -10.6956 C   0  0  2  0  0  0  0  0  0  0  0  0
   24.2499  -20.7980   -9.9178 C   0  0  0  0  0  0  0  0  0  0  0  0
   25.3013  -20.9726  -12.1000 C   0  0  2  0  0  0  0  0  0  0  0  0
   26.3471  -20.3796  -12.9184 N   0  0  0  0  0  0  0  0  0  0  0  0
   23.9644  -20.4880  -12.5382 C   0  0  0  0  0  0  0  0  0  0  0  0
   23.7925  -19.2423  -12.5595 O   0  0  0  0  0  0  0  0  0  0  0  0
   22.4864  -21.0584  -17.1952 C   0  0  0  0  0  0  0  0  0  0  0  0
   22.5117  -20.6127  -15.7897 C   0  0  0  0  0  0  0  0  0  0  0  0
   21.5030  -21.0668  -14.8335 C   0  0  2  0  0  0  0  0  0  0  0  0
   20.0732  -20.7831  -15.3471 C   0  0  0  0  0  0  0  0  0  0  0  0
   21.6327  -20.7319  -13.4061 C   0  0  2  0  0  0  0  0  0  0  0  0
   22.9191  -21.3328  -12.9171 N   0  0  0  0  0  0  0  0  0  0  0  0
   20.5732  -21.1326  -12.4682 C   0  0  0  0  0  0  0  0  0  0  0  0
   20.4093  -22.2740  -11.9893 O   0  0  0  0  0  0  0  0  0  0  0  0
   19.6178  -20.1829  -12.0279 O   0  0  0  0  0  0  0  0  0  0  0  0
  2  1  1  0
  2  4  1  0
  3  2  2  0
  5  4  1  0
  6  5  1  0
  6  7  1  6
  8  6  1  0
  8  9  2  0
 11 10  1  0
 12 11  1  0
 12 14  1  0
 12 13  1  1
 14 15  1  6
 15  8  1  0
 16 14  1  0
 17 16  2  0
 18 19  1  0
 20 19  1  0
 20 22  1  0
 20 21  1  6
 22 23  1  1
 22 24  1  0
 23 16  1  0
 24 26  1  0
 25 24  2  0
M  END
$$$$
