QII.pdb
     RDKit          3D

 26 25  0  0  1  0  0  0  0  0999 V2000
   27.0614  -34.5621  -14.4510 N   0  0  0  0  0  0  0  0  0  0  0  0
   26.9385  -33.3285  -13.7806 C   0  0  0  0  0  0  0  0  0  0  0  0
   26.5317  -33.3115  -12.5911 O   0  0  0  0  0  0  0  0  0  0  0  0
   27.3003  -32.0924  -14.5216 C   0  0  0  0  0  0  0  0  0  0  0  0
   27.9161  -32.4276  -15.8736 C   0  0  0  0  0  0  0  0  0  0  0  0
   28.2332  -31.0942  -16.5418 C   0  0  2  0  0  0  0  0  0  0  0  0
   26.9741  -30.4772  -16.8747 N   0  0  0  0  0  0  0  0  0  0  0  0
   29.0775  -31.2701  -17.7397 C   0  0  0  0  0  0  0  0  0  0  0  0
   28.5270  -31.3588  -18.8565 O   0  0  0  0  0  0  0  0  0  0  0  0
   33.2121  -28.1492  -18.4282 C   0  0  0  0  0  0  0  0  0  0  0  0
   32.0440  -29.0864  -18.6085 C   0  0  0  0  0  0  0  0  0  0  0  0
   32.4702  -30.5143  -18.6259 C   0  0  2  0  0  0  0  0  0  0  0  0
   33.4441  -30.7787  -19.7779 C   0  0  0  0  0  0  0  0  0  0  0  0
   31.3488  -31.5119  -18.7929 C   0  0  2  0  0  0  0  0  0  0  0  0
   30.4766  -31.3385  -17.6420 N   0  0  0  0  0  0  0  0  0  0  0  0
   31.9569  -32.8699  -18.7811 C   0  0  0  0  0  0  0  0  0  0  0  0
   32.6438  -33.1741  -17.7725 O   0  0  0  0  0  0  0  0  0  0  0  0
   29.2874  -36.9915  -20.8806 C   0  0  0  0  0  0  0  0  0  0  0  0
   30.2245  -36.2277  -20.0362 C   0  0  0  0  0  0  0  0  0  0  0  0
   31.6409  -36.1210  -20.3829 C   0  0  2  0  0  0  0  0  0  0  0  0
   32.3184  -37.5098  -20.4142 C   0  0  0  0  0  0  0  0  0  0  0  0
   32.4942  -35.1269  -19.7120 C   0  0  2  0  0  0  0  0  0  0  0  0
   31.8029  -33.7977  -19.8133 N   0  0  0  0  0  0  0  0  0  0  0  0
   33.8811  -34.9392  -20.1635 C   0  0  0  0  0  0  0  0  0  0  0  0
   34.8935  -35.4785  -19.6704 O   0  0  0  0  0  0  0  0  0  0  0  0
   34.1628  -34.0795  -21.2545 O   0  0  0  0  0  0  0  0  0  0  0  0
  2  1  1  0
  2  4  1  0
  3  2  2  0
  5  4  1  0
  6  5  1  0
  6  7  1  6
  8  6  1  0
  8  9  2  0
 11 10  1  0
 12 11  1  0
 12 14  1  0
 12 13  1  6
 14 15  1  1
 15  8  1  0
 16 14  1  0
 17 16  2  0
 18 19  1  0
 20 19  1  0
 20 22  1  0
 20 21  1  1
 22 23  1  6
 22 24  1  0
 23 16  1  0
 24 26  1  0
 25 24  2  0
M  END
$$$$
