QII.pdb
     RDKit          3D

 26 25  0  0  1  0  0  0  0  0999 V2000
   27.7793  -17.7789  -16.4673 N   0  0  0  0  0  0  0  0  0  0  0  0
   28.2750  -18.3272  -17.6672 C   0  0  0  0  0  0  0  0  0  0  0  0
   29.1311  -17.6875  -18.3297 O   0  0  0  0  0  0  0  0  0  0  0  0
   27.7553  -19.6514  -18.0966 C   0  0  0  0  0  0  0  0  0  0  0  0
   26.8262  -20.2403  -17.0433 C   0  0  0  0  0  0  0  0  0  0  0  0
   27.7099  -21.0396  -16.0920 C   0  0  2  0  0  0  0  0  0  0  0  0
   28.2688  -22.1310  -16.8492 N   0  0  0  0  0  0  0  0  0  0  0  0
   26.9523  -21.5298  -14.9239 C   0  0  0  0  0  0  0  0  0  0  0  0
   26.4460  -22.6698  -14.9701 O   0  0  0  0  0  0  0  0  0  0  0  0
   29.0155  -20.6731  -10.1618 C   0  0  0  0  0  0  0  0  0  0  0  0
   28.2252  -21.2986  -11.2841 C   0  0  0  0  0  0  0  0  0  0  0  0
   26.8614  -20.7097  -11.4036 C   0  0  2  0  0  0  0  0  0  0  0  0
   26.0140  -21.0422  -10.1720 C   0  0  0  0  0  0  0  0  0  0  0  0
   26.0650  -21.1837  -12.5959 C   0  0  2  0  0  0  0  0  0  0  0  0
   26.7944  -20.7404  -13.7735 N   0  0  0  0  0  0  0  0  0  0  0  0
   24.7339  -20.5219  -12.5324 C   0  0  0  0  0  0  0  0  0  0  0  0
   24.7281  -19.2657  -12.4735 O   0  0  0  0  0  0  0  0  0  0  0  0
   20.4714  -19.6673  -16.1063 C   0  0  0  0  0  0  0  0  0  0  0  0
   20.7823  -19.7064  -14.6653 C   0  0  0  0  0  0  0  0  0  0  0  0
   21.9219  -20.4687  -14.1574 C   0  0  2  0  0  0  0  0  0  0  0  0
   21.9281  -21.9100  -14.7156 C   0  0  0  0  0  0  0  0  0  0  0  0
   22.2420  -20.4524  -12.7208 C   0  0  2  0  0  0  0  0  0  0  0  0
   23.5219  -21.2156  -12.5354 N   0  0  0  0  0  0  0  0  0  0  0  0
   21.2678  -20.9820  -11.7548 C   0  0  0  0  0  0  0  0  0  0  0  0
   21.2213  -22.1537  -11.3260 O   0  0  0  0  0  0  0  0  0  0  0  0
   20.2629  -20.1360  -11.2230 O   0  0  0  0  0  0  0  0  0  0  0  0
  2  1  1  0
  2  4  1  0
  3  2  2  0
  5  4  1  0
  6  5  1  0
  6  7  1  6
  8  6  1  0
  8  9  2  0
 11 10  1  0
 12 11  1  0
 12 14  1  0
 12 13  1  1
 14 15  1  6
 15  8  1  0
 16 14  1  0
 17 16  2  0
 18 19  1  0
 20 19  1  0
 20 22  1  0
 20 21  1  1
 22 23  1  6
 22 24  1  0
 23 16  1  0
 24 26  1  0
 25 24  2  0
M  END
$$$$
