QII.pdb
     RDKit          3D

 26 25  0  0  1  0  0  0  0  0999 V2000
   24.9938  -16.9512  -16.3504 N   0  0  0  0  0  0  0  0  0  0  0  0
   24.5264  -17.0681  -17.6749 C   0  0  0  0  0  0  0  0  0  0  0  0
   24.5088  -16.0512  -18.4142 O   0  0  0  0  0  0  0  0  0  0  0  0
   24.0714  -18.4043  -18.1391 C   0  0  0  0  0  0  0  0  0  0  0  0
   24.1899  -19.4376  -17.0266 C   0  0  0  0  0  0  0  0  0  0  0  0
   25.6183  -19.9678  -17.0854 C   0  0  2  0  0  0  0  0  0  0  0  0
   25.7217  -20.7759  -18.2741 N   0  0  0  0  0  0  0  0  0  0  0  0
   25.9635  -20.7434  -15.8779 C   0  0  0  0  0  0  0  0  0  0  0  0
   25.4218  -21.8539  -15.7004 O   0  0  0  0  0  0  0  0  0  0  0  0
   30.6184  -20.9210  -11.9107 C   0  0  0  0  0  0  0  0  0  0  0  0
   29.1621  -21.2450  -12.1335 C   0  0  0  0  0  0  0  0  0  0  0  0
   28.6380  -20.6312  -13.3863 C   0  0  2  0  0  0  0  0  0  0  0  0
   28.7355  -19.1039  -13.3274 C   0  0  0  0  0  0  0  0  0  0  0  0
   27.1926  -20.9434  -13.6924 C   0  0  2  0  0  0  0  0  0  0  0  0
   26.8831  -20.2551  -14.9357 N   0  0  0  0  0  0  0  0  0  0  0  0
   26.3737  -20.3929  -12.5787 C   0  0  0  0  0  0  0  0  0  0  0  0
   26.2416  -19.1429  -12.5372 O   0  0  0  0  0  0  0  0  0  0  0  0
   21.7744  -21.4116  -12.5775 C   0  0  0  0  0  0  0  0  0  0  0  0
   22.8954  -20.5986  -12.0704 C   0  0  0  0  0  0  0  0  0  0  0  0
   23.5254  -20.8964  -10.7850 C   0  0  2  0  0  0  0  0  0  0  0  0
   22.6214  -20.4744   -9.6045 C   0  0  0  0  0  0  0  0  0  0  0  0
   24.9277  -20.5200  -10.5434 C   0  0  2  0  0  0  0  0  0  0  0  0
   25.7611  -21.1818  -11.6029 N   0  0  0  0  0  0  0  0  0  0  0  0
   25.5455  -20.8209   -9.2432 C   0  0  0  0  0  0  0  0  0  0  0  0
   26.0297  -21.9183   -8.8965 O   0  0  0  0  0  0  0  0  0  0  0  0
   25.6305  -19.8159   -8.2476 O   0  0  0  0  0  0  0  0  0  0  0  0
  2  1  1  0
  2  4  1  0
  3  2  2  0
  5  4  1  0
  6  5  1  0
  6  7  1  6
  8  6  1  0
  8  9  2  0
 11 10  1  0
 12 11  1  0
 12 14  1  0
 12 13  1  1
 14 15  1  6
 15  8  1  0
 16 14  1  0
 17 16  2  0
 18 19  1  0
 20 19  1  0
 20 22  1  0
 20 21  1  1
 22 23  1  6
 22 24  1  0
 23 16  1  0
 24 26  1  0
 25 24  2  0
M  END
$$$$
