QII.pdb
     RDKit          3D

 26 25  0  0  1  0  0  0  0  0999 V2000
   13.0836   -9.0665  -15.5980 N   0  0  0  0  0  0  0  0  0  0  0  0
   13.7231   -9.7002  -16.6823 C   0  0  0  0  0  0  0  0  0  0  0  0
   13.1314   -9.7737  -17.7893 O   0  0  0  0  0  0  0  0  0  0  0  0
   15.0826  -10.2578  -16.4617 C   0  0  0  0  0  0  0  0  0  0  0  0
   15.5452  -10.0172  -15.0309 C   0  0  0  0  0  0  0  0  0  0  0  0
   16.9709  -10.5512  -14.9465 C   0  0  2  0  0  0  0  0  0  0  0  0
   16.8955  -11.9838  -15.0831 N   0  0  0  0  0  0  0  0  0  0  0  0
   17.6246  -10.1668  -13.6801 C   0  0  0  0  0  0  0  0  0  0  0  0
   17.6402  -10.9856  -12.7380 O   0  0  0  0  0  0  0  0  0  0  0  0
   22.5648   -8.7881  -13.3830 C   0  0  0  0  0  0  0  0  0  0  0  0
   21.1464   -9.2278  -13.1183 C   0  0  0  0  0  0  0  0  0  0  0  0
   20.2839   -8.0967  -12.6740 C   0  0  2  0  0  0  0  0  0  0  0  0
   20.8799   -7.4073  -11.4431 C   0  0  0  0  0  0  0  0  0  0  0  0
   18.8745   -8.4819  -12.2924 C   0  0  2  0  0  0  0  0  0  0  0  0
   18.2229   -8.9064  -13.5215 N   0  0  0  0  0  0  0  0  0  0  0  0
   18.2126   -7.2645  -11.7501 C   0  0  0  0  0  0  0  0  0  0  0  0
   18.1491   -6.2668  -12.5131 O   0  0  0  0  0  0  0  0  0  0  0  0
   13.0562   -5.4878   -9.9195 C   0  0  0  0  0  0  0  0  0  0  0  0
   14.5017   -5.2306   -9.7816 C   0  0  0  0  0  0  0  0  0  0  0  0
   15.4890   -6.2466  -10.1432 C   0  0  2  0  0  0  0  0  0  0  0  0
   15.1656   -7.6056   -9.4820 C   0  0  0  0  0  0  0  0  0  0  0  0
   16.9270   -5.9432  -10.0617 C   0  0  2  0  0  0  0  0  0  0  0  0
   17.6729   -7.1826  -10.4648 N   0  0  0  0  0  0  0  0  0  0  0  0
   17.4988   -5.4777   -8.7892 C   0  0  0  0  0  0  0  0  0  0  0  0
   17.3323   -4.3509   -8.2777 O   0  0  0  0  0  0  0  0  0  0  0  0
   18.3240   -6.3390   -8.0240 O   0  0  0  0  0  0  0  0  0  0  0  0
  2  1  1  0
  2  4  1  0
  3  2  2  0
  5  4  1  0
  6  5  1  0
  6  7  1  1
  8  6  1  0
  8  9  2  0
 11 10  1  0
 12 11  1  0
 12 14  1  0
 12 13  1  1
 14 15  1  6
 15  8  1  0
 16 14  1  0
 17 16  2  0
 18 19  1  0
 20 19  1  0
 20 22  1  0
 20 21  1  1
 22 23  1  1
 22 24  1  0
 23 16  1  0
 24 26  1  0
 25 24  2  0
M  END
$$$$
