QII.pdb
     RDKit          3D

 26 25  0  0  1  0  0  0  0  0999 V2000
   19.4881  -22.8855  -14.4974 N   0  0  0  0  0  0  0  0  0  0  0  0
   18.3904  -23.0811  -13.6354 C   0  0  0  0  0  0  0  0  0  0  0  0
   17.7090  -24.1331  -13.7343 O   0  0  0  0  0  0  0  0  0  0  0  0
   18.0879  -22.0211  -12.6390 C   0  0  0  0  0  0  0  0  0  0  0  0
   19.0795  -20.8705  -12.7487 C   0  0  0  0  0  0  0  0  0  0  0  0
   20.3219  -21.3010  -11.9767 C   0  0  2  0  0  0  0  0  0  0  0  0
   19.9977  -21.2231  -10.5748 N   0  0  0  0  0  0  0  0  0  0  0  0
   21.4886  -20.4586  -12.3050 C   0  0  0  0  0  0  0  0  0  0  0  0
   21.5511  -19.3056  -11.8309 O   0  0  0  0  0  0  0  0  0  0  0  0
   26.2077  -22.0446  -11.1815 C   0  0  0  0  0  0  0  0  0  0  0  0
   24.9845  -21.2399  -11.5441 C   0  0  0  0  0  0  0  0  0  0  0  0
   24.8854  -21.0036  -13.0122 C   0  0  2  0  0  0  0  0  0  0  0  0
   26.1346  -20.2880  -13.5347 C   0  0  0  0  0  0  0  0  0  0  0  0
   23.7113  -20.1576  -13.4435 C   0  0  2  0  0  0  0  0  0  0  0  0
   22.5187  -20.9306  -13.1344 N   0  0  0  0  0  0  0  0  0  0  0  0
   23.8279  -19.9519  -14.9125 C   0  0  0  0  0  0  0  0  0  0  0  0
   23.7471  -20.9773  -15.6362 O   0  0  0  0  0  0  0  0  0  0  0  0
   20.8200  -16.4530  -17.1713 C   0  0  0  0  0  0  0  0  0  0  0  0
   21.7109  -17.6217  -17.0485 C   0  0  0  0  0  0  0  0  0  0  0  0
   23.1268  -17.5344  -17.4024 C   0  0  2  0  0  0  0  0  0  0  0  0
   23.3125  -17.1542  -18.8890 C   0  0  0  0  0  0  0  0  0  0  0  0
   24.0561  -18.6049  -17.0061 C   0  0  2  0  0  0  0  0  0  0  0  0
   24.0181  -18.7033  -15.5082 N   0  0  0  0  0  0  0  0  0  0  0  0
   25.4684  -18.5245  -17.4080 C   0  0  0  0  0  0  0  0  0  0  0  0
   26.3089  -17.7072  -16.9785 O   0  0  0  0  0  0  0  0  0  0  0  0
   25.9866  -19.4298  -18.3675 O   0  0  0  0  0  0  0  0  0  0  0  0
  2  1  1  0
  2  4  1  0
  3  2  2  0
  5  4  1  0
  6  5  1  0
  6  7  1  1
  8  6  1  0
  8  9  2  0
 11 10  1  0
 12 11  1  0
 12 14  1  0
 12 13  1  1
 14 15  1  6
 15  8  1  0
 16 14  1  0
 17 16  2  0
 18 19  1  0
 20 19  1  0
 20 22  1  0
 20 21  1  6
 22 23  1  1
 22 24  1  0
 23 16  1  0
 24 26  1  0
 25 24  2  0
M  END
$$$$
