QII.pdb
     RDKit          3D

 26 25  0  0  1  0  0  0  0  0999 V2000
   18.6294  -19.1000  -13.1758 N   0  0  0  0  0  0  0  0  0  0  0  0
   19.5208  -18.5169  -14.0986 C   0  0  0  0  0  0  0  0  0  0  0  0
   19.4071  -17.2965  -14.3786 O   0  0  0  0  0  0  0  0  0  0  0  0
   20.5650  -19.3840  -14.7036 C   0  0  0  0  0  0  0  0  0  0  0  0
   21.7210  -19.6014  -13.7364 C   0  0  0  0  0  0  0  0  0  0  0  0
   22.7844  -20.3757  -14.5075 C   0  0  2  0  0  0  0  0  0  0  0  0
   22.0985  -21.3729  -15.2897 N   0  0  0  0  0  0  0  0  0  0  0  0
   23.7754  -20.9915  -13.6034 C   0  0  0  0  0  0  0  0  0  0  0  0
   23.4686  -22.0389  -12.9976 O   0  0  0  0  0  0  0  0  0  0  0  0
   28.9110  -21.0467  -15.1663 C   0  0  0  0  0  0  0  0  0  0  0  0
   27.5613  -21.3543  -14.5672 C   0  0  0  0  0  0  0  0  0  0  0  0
   27.3887  -20.7277  -13.2261 C   0  0  2  0  0  0  0  0  0  0  0  0
   28.4630  -21.2201  -12.2519 C   0  0  0  0  0  0  0  0  0  0  0  0
   26.0633  -21.0067  -12.5584 C   0  0  2  0  0  0  0  0  0  0  0  0
   25.0452  -20.4219  -13.4168 N   0  0  0  0  0  0  0  0  0  0  0  0
   26.0795  -20.3240  -11.2364 C   0  0  0  0  0  0  0  0  0  0  0  0
   26.0164  -19.0680  -11.2467 O   0  0  0  0  0  0  0  0  0  0  0  0
   23.5364  -20.4718   -5.8536 C   0  0  0  0  0  0  0  0  0  0  0  0
   24.6492  -19.9925   -6.6940 C   0  0  0  0  0  0  0  0  0  0  0  0
   24.9678  -20.6365   -7.9674 C   0  0  2  0  0  0  0  0  0  0  0  0
   24.9077  -22.1764   -7.8494 C   0  0  0  0  0  0  0  0  0  0  0  0
   26.1446  -20.2069   -8.7400 C   0  0  2  0  0  0  0  0  0  0  0  0
   26.1597  -20.9983  -10.0162 N   0  0  0  0  0  0  0  0  0  0  0  0
   27.4833  -20.3107   -8.1400 C   0  0  0  0  0  0  0  0  0  0  0  0
   28.3278  -21.1990   -8.3777 O   0  0  0  0  0  0  0  0  0  0  0  0
   27.9161  -19.3447   -7.1975 O   0  0  0  0  0  0  0  0  0  0  0  0
  2  1  1  0
  2  4  1  0
  3  2  2  0
  5  4  1  0
  6  5  1  0
  6  7  1  1
  8  6  1  0
  8  9  2  0
 11 10  1  0
 12 11  1  0
 12 14  1  0
 12 13  1  1
 14 15  1  6
 15  8  1  0
 16 14  1  0
 17 16  2  0
 18 19  1  0
 20 19  1  0
 20 22  1  0
 20 21  1  1
 22 23  1  6
 22 24  1  0
 23 16  1  0
 24 26  1  0
 25 24  2  0
M  END
$$$$
