QII.pdb
     RDKit          3D

 26 25  0  0  1  0  0  0  0  0999 V2000
   25.8802  -18.8948  -18.2557 N   0  0  0  0  0  0  0  0  0  0  0  0
   27.1087  -18.2238  -18.4195 C   0  0  0  0  0  0  0  0  0  0  0  0
   27.2879  -17.5056  -19.4358 O   0  0  0  0  0  0  0  0  0  0  0  0
   28.1456  -18.4000  -17.3699 C   0  0  0  0  0  0  0  0  0  0  0  0
   27.6472  -19.3150  -16.2591 C   0  0  0  0  0  0  0  0  0  0  0  0
   28.8486  -20.1420  -15.8145 C   0  0  2  0  0  0  0  0  0  0  0  0
   29.1983  -21.0060  -16.9136 N   0  0  0  0  0  0  0  0  0  0  0  0
   28.5560  -20.9187  -14.5939 C   0  0  0  0  0  0  0  0  0  0  0  0
   27.7913  -21.9019  -14.6749 O   0  0  0  0  0  0  0  0  0  0  0  0
   32.2553  -21.4686  -10.5237 C   0  0  0  0  0  0  0  0  0  0  0  0
   31.1219  -21.7799  -11.4691 C   0  0  0  0  0  0  0  0  0  0  0  0
   29.8987  -20.9885  -11.1556 C   0  0  2  0  0  0  0  0  0  0  0  0
   29.3705  -21.3310   -9.7595 C   0  0  0  0  0  0  0  0  0  0  0  0
   28.7413  -21.2030  -12.1016 C   0  0  2  0  0  0  0  0  0  0  0  0
   29.1196  -20.5710  -13.3557 N   0  0  0  0  0  0  0  0  0  0  0  0
   27.5561  -20.5205  -11.5154 C   0  0  0  0  0  0  0  0  0  0  0  0
   27.5802  -19.2633  -11.4927 O   0  0  0  0  0  0  0  0  0  0  0  0
   23.0074  -20.6096  -13.5538 C   0  0  0  0  0  0  0  0  0  0  0  0
   24.1202  -20.2431  -12.6584 C   0  0  0  0  0  0  0  0  0  0  0  0
   24.1262  -20.6483  -11.2536 C   0  0  2  0  0  0  0  0  0  0  0  0
   22.8335  -20.2013  -10.5338 C   0  0  0  0  0  0  0  0  0  0  0  0
   25.3130  -20.4041  -10.4179 C   0  0  2  0  0  0  0  0  0  0  0  0
   26.4469  -21.1962  -11.0027 N   0  0  0  0  0  0  0  0  0  0  0  0
   25.2607  -20.7035   -8.9791 C   0  0  0  0  0  0  0  0  0  0  0  0
   25.5535  -21.7932   -8.4445 O   0  0  0  0  0  0  0  0  0  0  0  0
   24.8481  -19.7062   -8.0605 O   0  0  0  0  0  0  0  0  0  0  0  0
  2  1  1  0
  2  4  1  0
  3  2  2  0
  5  4  1  0
  6  5  1  0
  6  7  1  6
  8  6  1  0
  8  9  2  0
 11 10  1  0
 12 11  1  0
 12 14  1  0
 12 13  1  1
 14 15  1  6
 15  8  1  0
 16 14  1  0
 17 16  2  0
 18 19  1  0
 20 19  1  0
 20 22  1  0
 20 21  1  1
 22 23  1  6
 22 24  1  0
 23 16  1  0
 24 26  1  0
 25 24  2  0
M  END
$$$$
