LDM.pdb
     RDKit          3D

 25 24  0  0  1  0  0  0  0  0999 V2000
   13.8615  -20.3348    7.6215 C   0  0  0  0  0  0  0  0  0  0  0  0
   14.4678  -21.1573    6.5077 C   0  0  1  0  0  0  0  0  0  0  0  0
   15.7321  -20.3971    6.0809 C   0  0  0  0  0  0  0  0  0  0  0  0
   14.8916  -22.5144    6.9406 C   0  0  0  0  0  0  0  0  0  0  0  0
   15.5133  -23.3787    5.8937 C   0  0  2  0  0  0  0  0  0  0  0  0
   14.6728  -23.6075    4.7454 N   0  0  0  0  0  0  0  0  0  0  0  0
   16.1752  -24.5955    6.4089 C   0  0  0  0  0  0  0  0  0  0  0  0
   15.5724  -25.6968    6.3439 O   0  0  0  0  0  0  0  0  0  0  0  0
   17.4752  -24.6105    6.9870 N   0  0  0  0  0  0  0  0  0  0  0  0
   18.0725  -25.7916    7.5335 C   0  0  1  0  0  0  0  0  0  0  0  0
   18.1597  -26.9011    6.5351 C   0  0  0  0  0  0  0  0  0  0  0  0
   18.6810  -28.1722    7.0759 C   0  0  0  0  0  0  0  0  0  0  0  0
   18.9162  -28.2846    8.3034 O   0  0  0  0  0  0  0  0  0  0  0  0
   19.4708  -25.5321    8.0205 C   0  0  0  0  0  0  0  0  0  0  0  0
   20.3722  -25.0740    7.2961 O   0  0  0  0  0  0  0  0  0  0  0  0
   18.9352  -29.2825    6.2958 O   0  0  0  0  0  0  0  0  0  0  0  0
   23.5511  -24.2389   14.6914 C   0  0  0  0  0  0  0  0  0  0  0  0
   22.0647  -24.8705   13.8767 S   0  0  0  0  0  0  0  0  0  0  0  0
   22.2771  -25.0285   12.1024 C   0  0  0  0  0  0  0  0  0  0  0  0
   20.9853  -25.5219   11.4836 C   0  0  0  0  0  0  0  0  0  0  0  0
   21.0656  -25.5266    9.9707 C   0  0  2  0  0  0  0  0  0  0  0  0
   19.7742  -25.8255    9.3757 N   0  0  0  0  0  0  0  0  0  0  0  0
   22.0361  -26.5678    9.5722 C   0  0  0  0  0  0  0  0  0  0  0  0
   21.6321  -27.7594    8.9551 O   0  0  0  0  0  0  0  0  0  0  0  0
   23.2567  -26.4000    9.7830 O   0  0  0  0  0  0  0  0  0  0  0  0
  2  1  1  1
  3  2  1  0
  4  5  1  0
  4  2  1  0
  5  6  1  6
  7  5  1  0
  7  9  1  0
  8  7  2  0
 10  9  1  0
 10 11  1  6
 12 11  1  0
 12 13  2  0
 14 10  1  0
 15 14  2  0
 16 12  1  0
 17 18  1  0
 18 19  1  0
 20 19  1  0
 21 20  1  1
 21 22  1  0
 22 14  1  0
 23 21  1  0
 24 23  1  0
 25 23  2  0
M  END
$$$$
