LDM.pdb
     RDKit          3D

 25 24  0  0  1  0  0  0  0  0999 V2000
   29.1539  -15.8934  -16.6505 C   0  0  0  0  0  0  0  0  0  0  0  0
   28.2136  -17.0734  -16.5612 C   0  0  1  0  0  0  0  0  0  0  0  0
   29.1171  -18.3151  -16.5485 C   0  0  0  0  0  0  0  0  0  0  0  0
   27.4124  -17.0953  -15.3097 C   0  0  0  0  0  0  0  0  0  0  0  0
   26.5307  -18.2836  -15.1093 C   0  0  2  0  0  0  0  0  0  0  0  0
   25.6612  -18.5646  -16.2239 N   0  0  0  0  0  0  0  0  0  0  0  0
   25.8621  -18.3430  -13.7927 C   0  0  0  0  0  0  0  0  0  0  0  0
   25.3129  -17.3087  -13.3356 O   0  0  0  0  0  0  0  0  0  0  0  0
   25.7944  -19.5133  -12.9863 N   0  0  0  0  0  0  0  0  0  0  0  0
   25.1230  -19.5521  -11.7222 C   0  0  1  0  0  0  0  0  0  0  0  0
   23.7653  -20.1713  -11.8162 C   0  0  0  0  0  0  0  0  0  0  0  0
   23.7471  -21.5191  -12.4186 C   0  0  0  0  0  0  0  0  0  0  0  0
   24.8243  -22.1201  -12.6490 O   0  0  0  0  0  0  0  0  0  0  0  0
   25.8958  -20.3473  -10.7072 C   0  0  0  0  0  0  0  0  0  0  0  0
   26.5607  -21.3585  -10.9945 O   0  0  0  0  0  0  0  0  0  0  0  0
   22.5857  -22.1848  -12.7566 O   0  0  0  0  0  0  0  0  0  0  0  0
   28.3627  -18.8755   -3.7711 C   0  0  0  0  0  0  0  0  0  0  0  0
   29.0788  -19.3034   -5.3762 S   0  0  0  0  0  0  0  0  0  0  0  0
   28.0453  -20.4422   -6.2997 C   0  0  0  0  0  0  0  0  0  0  0  0
   27.3918  -19.7065   -7.4516 C   0  0  0  0  0  0  0  0  0  0  0  0
   26.5416  -20.6394   -8.2898 C   0  0  2  0  0  0  0  0  0  0  0  0
   25.8630  -19.9198   -9.3542 N   0  0  0  0  0  0  0  0  0  0  0  0
   25.5337  -21.2546   -7.4008 C   0  0  0  0  0  0  0  0  0  0  0  0
   25.8609  -22.2910   -6.5160 O   0  0  0  0  0  0  0  0  0  0  0  0
   24.3501  -20.8535   -7.4235 O   0  0  0  0  0  0  0  0  0  0  0  0
  2  1  1  1
  3  2  1  0
  4  5  1  0
  4  2  1  0
  5  6  1  6
  7  5  1  0
  7  9  1  0
  8  7  2  0
 10  9  1  0
 10 11  1  6
 12 11  1  0
 12 13  2  0
 14 10  1  0
 15 14  2  0
 16 12  1  0
 17 18  1  0
 18 19  1  0
 20 19  1  0
 21 20  1  1
 21 22  1  0
 22 14  1  0
 23 21  1  0
 24 23  1  0
 25 23  2  0
M  END
$$$$
