LDM.pdb
     RDKit          3D

 25 24  0  0  1  0  0  0  0  0999 V2000
   27.4209  -16.0335  -16.6699 C   0  0  0  0  0  0  0  0  0  0  0  0
   27.2056  -17.4559  -16.2062 C   0  0  1  0  0  0  0  0  0  0  0  0
   27.3225  -18.3195  -17.4708 C   0  0  0  0  0  0  0  0  0  0  0  0
   28.2410  -17.9275  -15.2501 C   0  0  0  0  0  0  0  0  0  0  0  0
   28.0137  -19.2701  -14.6377 C   0  0  2  0  0  0  0  0  0  0  0  0
   27.8193  -20.3281  -15.5970 N   0  0  0  0  0  0  0  0  0  0  0  0
   27.0474  -19.2846  -13.5195 C   0  0  0  0  0  0  0  0  0  0  0  0
   27.1027  -18.3799  -12.6484 O   0  0  0  0  0  0  0  0  0  0  0  0
   26.0364  -20.2719  -13.3538 N   0  0  0  0  0  0  0  0  0  0  0  0
   25.0857  -20.2431  -12.2834 C   0  0  1  0  0  0  0  0  0  0  0  0
   23.8200  -20.9620  -12.6251 C   0  0  0  0  0  0  0  0  0  0  0  0
   22.6635  -20.6008  -11.7814 C   0  0  0  0  0  0  0  0  0  0  0  0
   22.7837  -19.7263  -10.8895 O   0  0  0  0  0  0  0  0  0  0  0  0
   25.6308  -20.8869  -11.0392 C   0  0  0  0  0  0  0  0  0  0  0  0
   26.0903  -22.0424  -11.0135 O   0  0  0  0  0  0  0  0  0  0  0  0
   21.4170  -21.1797  -11.9124 O   0  0  0  0  0  0  0  0  0  0  0  0
   29.9734  -19.3353   -5.9835 C   0  0  0  0  0  0  0  0  0  0  0  0
   28.2404  -19.0993   -5.5221 S   0  0  0  0  0  0  0  0  0  0  0  0
   27.1493  -20.2429   -6.3704 C   0  0  0  0  0  0  0  0  0  0  0  0
   26.8242  -19.6999   -7.7469 C   0  0  0  0  0  0  0  0  0  0  0  0
   26.0233  -20.6981   -8.5579 C   0  0  2  0  0  0  0  0  0  0  0  0
   25.6192  -20.1355   -9.8352 N   0  0  0  0  0  0  0  0  0  0  0  0
   24.8172  -21.0499   -7.7794 C   0  0  0  0  0  0  0  0  0  0  0  0
   24.8796  -21.8798   -6.6518 O   0  0  0  0  0  0  0  0  0  0  0  0
   23.6998  -20.6048   -8.1199 O   0  0  0  0  0  0  0  0  0  0  0  0
  2  1  1  6
  3  2  1  0
  4  5  1  0
  4  2  1  0
  5  6  1  6
  7  5  1  0
  7  9  1  0
  8  7  2  0
 10  9  1  0
 10 11  1  6
 12 11  1  0
 12 13  2  0
 14 10  1  0
 15 14  2  0
 16 12  1  0
 17 18  1  0
 18 19  1  0
 20 19  1  0
 21 20  1  1
 21 22  1  0
 22 14  1  0
 23 21  1  0
 24 23  1  0
 25 23  2  0
M  END
$$$$
