LDM.pdb
     RDKit          3D

 25 24  0  0  1  0  0  0  0  0999 V2000
   28.2494  -15.9737  -18.0349 C   0  0  0  0  0  0  0  0  0  0  0  0
   28.1332  -17.4069  -17.5689 C   0  0  1  0  0  0  0  0  0  0  0  0
   29.3736  -18.1195  -18.1278 C   0  0  0  0  0  0  0  0  0  0  0  0
   28.1682  -17.5506  -16.0901 C   0  0  0  0  0  0  0  0  0  0  0  0
   28.0072  -18.9356  -15.5560 C   0  0  2  0  0  0  0  0  0  0  0  0
   27.8945  -19.9488  -16.5750 N   0  0  0  0  0  0  0  0  0  0  0  0
   27.0209  -19.0667  -14.4633 C   0  0  0  0  0  0  0  0  0  0  0  0
   27.0819  -18.2813  -13.4835 O   0  0  0  0  0  0  0  0  0  0  0  0
   25.9839  -20.0407  -14.4394 N   0  0  0  0  0  0  0  0  0  0  0  0
   24.9744  -20.0808  -13.4247 C   0  0  1  0  0  0  0  0  0  0  0  0
   23.7398  -20.7934  -13.8761 C   0  0  0  0  0  0  0  0  0  0  0  0
   22.6400  -20.7970  -12.8911 C   0  0  0  0  0  0  0  0  0  0  0  0
   22.3430  -19.7447  -12.2753 O   0  0  0  0  0  0  0  0  0  0  0  0
   25.4577  -20.7860  -12.1883 C   0  0  0  0  0  0  0  0  0  0  0  0
   26.0255  -21.8925  -12.2112 O   0  0  0  0  0  0  0  0  0  0  0  0
   21.8912  -21.9177  -12.5923 O   0  0  0  0  0  0  0  0  0  0  0  0
   29.7214  -19.5401   -7.1008 C   0  0  0  0  0  0  0  0  0  0  0  0
   27.9862  -19.2998   -6.6498 S   0  0  0  0  0  0  0  0  0  0  0  0
   26.8943  -20.4201   -7.5277 C   0  0  0  0  0  0  0  0  0  0  0  0
   26.5575  -19.8341   -8.8835 C   0  0  0  0  0  0  0  0  0  0  0  0
   25.6605  -20.7619   -9.6774 C   0  0  2  0  0  0  0  0  0  0  0  0
   25.2546  -20.1547  -10.9334 N   0  0  0  0  0  0  0  0  0  0  0  0
   24.4595  -21.0380   -8.8614 C   0  0  0  0  0  0  0  0  0  0  0  0
   24.5319  -21.7416   -7.6515 O   0  0  0  0  0  0  0  0  0  0  0  0
   23.3375  -20.6413   -9.2439 O   0  0  0  0  0  0  0  0  0  0  0  0
  2  1  1  1
  3  2  1  0
  4  5  1  0
  4  2  1  0
  5  6  1  6
  7  5  1  0
  7  9  1  0
  8  7  2  0
 10  9  1  0
 10 11  1  6
 12 11  1  0
 12 13  2  0
 14 10  1  0
 15 14  2  0
 16 12  1  0
 17 18  1  0
 18 19  1  0
 20 19  1  0
 21 20  1  1
 21 22  1  0
 22 14  1  0
 23 21  1  0
 24 23  1  0
 25 23  2  0
M  END
$$$$
