LDM.pdb
     RDKit          3D

 25 24  0  0  1  0  0  0  0  0999 V2000
   28.6448  -16.4998  -18.5180 C   0  0  0  0  0  0  0  0  0  0  0  0
   28.5160  -17.8524  -17.8560 C   0  0  1  0  0  0  0  0  0  0  0  0
   29.8695  -18.5443  -18.0744 C   0  0  0  0  0  0  0  0  0  0  0  0
   28.2911  -17.7718  -16.3891 C   0  0  0  0  0  0  0  0  0  0  0  0
   28.1403  -19.0719  -15.6704 C   0  0  2  0  0  0  0  0  0  0  0  0
   28.0800  -20.2201  -16.5396 N   0  0  0  0  0  0  0  0  0  0  0  0
   27.1225  -19.0722  -14.5989 C   0  0  0  0  0  0  0  0  0  0  0  0
   27.1279  -18.1482  -13.7465 O   0  0  0  0  0  0  0  0  0  0  0  0
   26.1143  -20.0664  -14.4590 N   0  0  0  0  0  0  0  0  0  0  0  0
   25.1324  -20.0406  -13.4170 C   0  0  1  0  0  0  0  0  0  0  0  0
   23.8354  -20.6524  -13.8401 C   0  0  0  0  0  0  0  0  0  0  0  0
   22.7755  -20.6128  -12.8130 C   0  0  0  0  0  0  0  0  0  0  0  0
   22.4367  -19.5188  -12.3000 O   0  0  0  0  0  0  0  0  0  0  0  0
   25.5938  -20.7938  -12.2007 C   0  0  0  0  0  0  0  0  0  0  0  0
   26.0418  -21.9533  -12.2448 O   0  0  0  0  0  0  0  0  0  0  0  0
   22.1099  -21.7360  -12.3642 O   0  0  0  0  0  0  0  0  0  0  0  0
   29.6059  -19.4976   -7.0048 C   0  0  0  0  0  0  0  0  0  0  0  0
   27.8999  -19.5824   -6.4092 S   0  0  0  0  0  0  0  0  0  0  0  0
   26.8728  -20.6349   -7.4364 C   0  0  0  0  0  0  0  0  0  0  0  0
   26.6256  -19.9524   -8.7662 C   0  0  0  0  0  0  0  0  0  0  0  0
   25.8042  -20.8278   -9.6905 C   0  0  2  0  0  0  0  0  0  0  0  0
   25.5129  -20.1463  -10.9402 N   0  0  0  0  0  0  0  0  0  0  0  0
   24.5345  -21.1451   -9.0035 C   0  0  0  0  0  0  0  0  0  0  0  0
   24.4817  -22.0253   -7.9143 O   0  0  0  0  0  0  0  0  0  0  0  0
   23.4660  -20.6238   -9.3897 O   0  0  0  0  0  0  0  0  0  0  0  0
  2  1  1  1
  3  2  1  0
  4  5  1  0
  4  2  1  0
  5  6  1  6
  7  5  1  0
  7  9  1  0
  8  7  2  0
 10  9  1  0
 10 11  1  6
 12 11  1  0
 12 13  2  0
 14 10  1  0
 15 14  2  0
 16 12  1  0
 17 18  1  0
 18 19  1  0
 20 19  1  0
 21 20  1  1
 21 22  1  0
 22 14  1  0
 23 21  1  0
 24 23  1  0
 25 23  2  0
M  END
$$$$
