LDM.pdb
     RDKit          3D

 25 24  0  0  1  0  0  0  0  0999 V2000
   27.6715  -10.5354  -16.1711 C   0  0  0  0  0  0  0  0  0  0  0  0
   26.2899  -11.1308  -16.3180 C   0  0  1  0  0  0  0  0  0  0  0  0
   25.9667  -11.7535  -14.9519 C   0  0  0  0  0  0  0  0  0  0  0  0
   25.2393  -10.1191  -16.6036 C   0  0  0  0  0  0  0  0  0  0  0  0
   23.8431  -10.6329  -16.7298 C   0  0  2  0  0  0  0  0  0  0  0  0
   23.7152  -11.7810  -17.5918 N   0  0  0  0  0  0  0  0  0  0  0  0
   22.8187   -9.5919  -16.9557 C   0  0  0  0  0  0  0  0  0  0  0  0
   22.5646   -9.2252  -18.1310 O   0  0  0  0  0  0  0  0  0  0  0  0
   22.0830   -8.9598  -15.9147 N   0  0  0  0  0  0  0  0  0  0  0  0
   21.1343   -7.9142  -16.1536 C   0  0  1  0  0  0  0  0  0  0  0  0
   19.8542   -8.1247  -15.4102 C   0  0  0  0  0  0  0  0  0  0  0  0
   18.8269   -7.0930  -15.6553 C   0  0  0  0  0  0  0  0  0  0  0  0
   18.6210   -6.6738  -16.8200 O   0  0  0  0  0  0  0  0  0  0  0  0
   21.6679   -6.5735  -15.7326 C   0  0  0  0  0  0  0  0  0  0  0  0
   22.2648   -6.3830  -14.6580 O   0  0  0  0  0  0  0  0  0  0  0  0
   18.0515   -6.5401  -14.6556 O   0  0  0  0  0  0  0  0  0  0  0  0
   23.1724    0.7990  -18.3509 C   0  0  0  0  0  0  0  0  0  0  0  0
   22.6540   -0.9036  -18.6740 S   0  0  0  0  0  0  0  0  0  0  0  0
   22.4409   -1.8476  -17.1635 C   0  0  0  0  0  0  0  0  0  0  0  0
   21.9762   -3.2479  -17.5072 C   0  0  0  0  0  0  0  0  0  0  0  0
   21.9106   -4.1251  -16.2737 C   0  0  2  0  0  0  0  0  0  0  0  0
   21.4797   -5.4719  -16.6075 N   0  0  0  0  0  0  0  0  0  0  0  0
   20.9366   -3.5213  -15.3402 C   0  0  0  0  0  0  0  0  0  0  0  0
   21.3407   -2.7165  -14.2665 O   0  0  0  0  0  0  0  0  0  0  0  0
   19.7126   -3.7222  -15.4955 O   0  0  0  0  0  0  0  0  0  0  0  0
  2  1  1  1
  3  2  1  0
  4  5  1  0
  4  2  1  0
  5  6  1  6
  7  5  1  0
  7  9  1  0
  8  7  2  0
 10  9  1  0
 10 11  1  1
 12 11  1  0
 12 13  2  0
 14 10  1  0
 15 14  2  0
 16 12  1  0
 17 18  1  0
 18 19  1  0
 20 19  1  0
 21 20  1  6
 21 22  1  0
 22 14  1  0
 23 21  1  0
 24 23  1  0
 25 23  2  0
M  END
$$$$
