LDM.pdb
     RDKit          3D

 25 24  0  0  1  0  0  0  0  0999 V2000
   24.3881  -14.3988  -14.1993 C   0  0  0  0  0  0  0  0  0  0  0  0
   24.6302  -15.4225  -15.2848 C   0  0  1  0  0  0  0  0  0  0  0  0
   25.8535  -14.9127  -16.0608 C   0  0  0  0  0  0  0  0  0  0  0  0
   24.9692  -16.7705  -14.7588 C   0  0  0  0  0  0  0  0  0  0  0  0
   25.3077  -17.8112  -15.7746 C   0  0  2  0  0  0  0  0  0  0  0  0
   24.3976  -17.8602  -16.8912 N   0  0  0  0  0  0  0  0  0  0  0  0
   25.6467  -19.1359  -15.2141 C   0  0  0  0  0  0  0  0  0  0  0  0
   24.7201  -19.9082  -14.8600 O   0  0  0  0  0  0  0  0  0  0  0  0
   26.9769  -19.6107  -15.0418 N   0  0  0  0  0  0  0  0  0  0  0  0
   27.2805  -20.9071  -14.5149 C   0  0  1  0  0  0  0  0  0  0  0  0
   28.6519  -21.3689  -14.8910 C   0  0  0  0  0  0  0  0  0  0  0  0
   28.7395  -22.7977  -15.2523 C   0  0  0  0  0  0  0  0  0  0  0  0
   27.7164  -23.5228  -15.2051 O   0  0  0  0  0  0  0  0  0  0  0  0
   27.2100  -20.9265  -13.0135 C   0  0  0  0  0  0  0  0  0  0  0  0
   28.2023  -21.1078  -12.2857 O   0  0  0  0  0  0  0  0  0  0  0  0
   29.9105  -23.4100  -15.6523 O   0  0  0  0  0  0  0  0  0  0  0  0
   28.8806  -20.3994   -7.3387 C   0  0  0  0  0  0  0  0  0  0  0  0
   27.5014  -19.2900   -7.7119 S   0  0  0  0  0  0  0  0  0  0  0  0
   26.2199  -20.0980   -8.6725 C   0  0  0  0  0  0  0  0  0  0  0  0
   26.5356  -19.9605  -10.1478 C   0  0  0  0  0  0  0  0  0  0  0  0
   25.7260  -20.9358  -10.9778 C   0  0  2  0  0  0  0  0  0  0  0  0
   25.9463  -20.7275  -12.3988 N   0  0  0  0  0  0  0  0  0  0  0  0
   24.2973  -20.7143  -10.6707 C   0  0  0  0  0  0  0  0  0  0  0  0
   23.3797  -20.3256  -11.6561 O   0  0  0  0  0  0  0  0  0  0  0  0
   23.8753  -20.8727   -9.5048 O   0  0  0  0  0  0  0  0  0  0  0  0
  2  1  1  1
  3  2  1  0
  4  5  1  0
  4  2  1  0
  5  6  1  6
  7  5  1  0
  7  9  1  0
  8  7  2  0
 10  9  1  0
 10 11  1  1
 12 11  1  0
 12 13  2  0
 14 10  1  0
 15 14  2  0
 16 12  1  0
 17 18  1  0
 18 19  1  0
 20 19  1  0
 21 20  1  1
 21 22  1  0
 22 14  1  0
 23 21  1  0
 24 23  1  0
 25 23  2  0
M  END
$$$$
