LDM.pdb
     RDKit          3D

 25 24  0  0  1  0  0  0  0  0999 V2000
   28.5908   -9.6798  -16.9318 C   0  0  0  0  0  0  0  0  0  0  0  0
   27.3718  -10.5716  -16.8719 C   0  0  1  0  0  0  0  0  0  0  0  0
   27.2336  -10.9752  -15.3965 C   0  0  0  0  0  0  0  0  0  0  0  0
   26.1155   -9.8798  -17.2616 C   0  0  0  0  0  0  0  0  0  0  0  0
   24.8664  -10.6960  -17.2070 C   0  0  2  0  0  0  0  0  0  0  0  0
   24.9886  -11.9982  -17.8125 N   0  0  0  0  0  0  0  0  0  0  0  0
   23.6355   -9.9693  -17.5822 C   0  0  0  0  0  0  0  0  0  0  0  0
   23.1985  -10.0672  -18.7569 O   0  0  0  0  0  0  0  0  0  0  0  0
   22.8927   -9.1474  -16.6893 N   0  0  0  0  0  0  0  0  0  0  0  0
   21.7547   -8.3807  -17.0984 C   0  0  1  0  0  0  0  0  0  0  0  0
   20.5192   -8.7436  -16.3384 C   0  0  0  0  0  0  0  0  0  0  0  0
   19.2896   -8.0802  -16.8156 C   0  0  0  0  0  0  0  0  0  0  0  0
   19.1079   -7.8996  -18.0440 O   0  0  0  0  0  0  0  0  0  0  0  0
   21.9752   -6.9078  -16.8948 C   0  0  0  0  0  0  0  0  0  0  0  0
   22.4365   -6.4251  -15.8453 O   0  0  0  0  0  0  0  0  0  0  0  0
   18.2929   -7.6303  -15.9728 O   0  0  0  0  0  0  0  0  0  0  0  0
   22.8669   -0.1511  -20.9613 C   0  0  0  0  0  0  0  0  0  0  0  0
   22.1937   -1.8284  -20.8864 S   0  0  0  0  0  0  0  0  0  0  0  0
   22.2613   -2.5146  -19.2304 C   0  0  0  0  0  0  0  0  0  0  0  0
   21.8461   -3.9710  -19.2726 C   0  0  0  0  0  0  0  0  0  0  0  0
   21.8894   -4.5965  -17.8933 C   0  0  2  0  0  0  0  0  0  0  0  0
   21.6394   -6.0264  -17.9554 N   0  0  0  0  0  0  0  0  0  0  0  0
   20.8403   -3.9558  -17.0726 C   0  0  0  0  0  0  0  0  0  0  0  0
   19.6815   -4.6419  -16.6846 O   0  0  0  0  0  0  0  0  0  0  0  0
   20.9712   -2.7686  -16.7039 O   0  0  0  0  0  0  0  0  0  0  0  0
  2  1  1  1
  3  2  1  0
  4  5  1  0
  4  2  1  0
  5  6  1  6
  7  5  1  0
  7  9  1  0
  8  7  2  0
 10  9  1  0
 10 11  1  1
 12 11  1  0
 12 13  2  0
 14 10  1  0
 15 14  2  0
 16 12  1  0
 17 18  1  0
 18 19  1  0
 20 19  1  0
 21 20  1  6
 21 22  1  0
 22 14  1  0
 23 21  1  0
 24 23  1  0
 25 23  2  0
M  END
$$$$
