LDM.pdb
     RDKit          3D

 25 24  0  0  1  0  0  0  0  0999 V2000
   16.0992  -13.3954  -19.4058 C   0  0  0  0  0  0  0  0  0  0  0  0
   17.5145  -13.3467  -18.8774 C   0  0  1  0  0  0  0  0  0  0  0  0
   18.3896  -13.9211  -20.0011 C   0  0  0  0  0  0  0  0  0  0  0  0
   17.9943  -11.9671  -18.6033 C   0  0  0  0  0  0  0  0  0  0  0  0
   17.9774  -11.5323  -17.1749 C   0  0  2  0  0  0  0  0  0  0  0  0
   16.7657  -11.8714  -16.4719 N   0  0  0  0  0  0  0  0  0  0  0  0
   18.4418  -10.1485  -16.9437 C   0  0  0  0  0  0  0  0  0  0  0  0
   19.4870   -9.7479  -17.5160 O   0  0  0  0  0  0  0  0  0  0  0  0
   17.7763   -9.2159  -16.1001 N   0  0  0  0  0  0  0  0  0  0  0  0
   18.2305   -7.8709  -15.9127 C   0  0  1  0  0  0  0  0  0  0  0  0
   17.1335   -6.9540  -15.4750 C   0  0  0  0  0  0  0  0  0  0  0  0
   15.9480   -6.9536  -16.3549 C   0  0  0  0  0  0  0  0  0  0  0  0
   16.0551   -6.6035  -17.5552 O   0  0  0  0  0  0  0  0  0  0  0  0
   19.3093   -7.7897  -14.8690 C   0  0  0  0  0  0  0  0  0  0  0  0
   19.4020   -8.5875  -13.9192 O   0  0  0  0  0  0  0  0  0  0  0  0
   14.6874   -7.3252  -15.9318 O   0  0  0  0  0  0  0  0  0  0  0  0
   26.1361   -9.9205  -14.1025 C   0  0  0  0  0  0  0  0  0  0  0  0
   24.4764   -9.7175  -14.7927 S   0  0  0  0  0  0  0  0  0  0  0  0
   23.7026   -8.1881  -14.2635 C   0  0  0  0  0  0  0  0  0  0  0  0
   22.3018   -8.1096  -14.8350 C   0  0  0  0  0  0  0  0  0  0  0  0
   21.5953   -6.8452  -14.3904 C   0  0  2  0  0  0  0  0  0  0  0  0
   20.2689   -6.7494  -14.9759 N   0  0  0  0  0  0  0  0  0  0  0  0
   22.4066   -5.6929  -14.8358 C   0  0  0  0  0  0  0  0  0  0  0  0
   23.2592   -5.0054  -13.9614 O   0  0  0  0  0  0  0  0  0  0  0  0
   22.3450   -5.3046  -16.0224 O   0  0  0  0  0  0  0  0  0  0  0  0
  2  1  1  6
  3  2  1  0
  4  5  1  0
  4  2  1  0
  5  6  1  6
  7  5  1  0
  7  9  1  0
  8  7  2  0
 10  9  1  0
 10 11  1  1
 12 11  1  0
 12 13  2  0
 14 10  1  0
 15 14  2  0
 16 12  1  0
 17 18  1  0
 18 19  1  0
 20 19  1  0
 21 20  1  6
 21 22  1  0
 22 14  1  0
 23 21  1  0
 24 23  1  0
 25 23  2  0
M  END
$$$$
