IDN.pdb
     RDKit          3D

 25 24  0  0  1  0  0  0  0  0999 V2000
    6.1932  -11.3409   26.9610 C   0  0  0  0  0  0  0  0  0  0  0  0
    5.8373  -12.5432   26.1118 C   0  0  0  0  0  0  0  0  0  0  0  0
    7.0277  -13.4082   25.8260 C   0  0  2  0  0  0  0  0  0  0  0  0
    8.1031  -12.6727   25.0592 C   0  0  0  0  0  0  0  0  0  0  0  0
    6.6151  -14.5991   24.9957 C   0  0  2  0  0  0  0  0  0  0  0  0
    5.4696  -15.2147   25.6064 N   0  0  0  0  0  0  0  0  0  0  0  0
    7.7385  -15.5728   24.8221 C   0  0  0  0  0  0  0  0  0  0  0  0
    7.8974  -16.5051   25.6531 O   0  0  0  0  0  0  0  0  0  0  0  0
    8.6306  -15.4632   23.7338 N   0  0  0  0  0  0  0  0  0  0  0  0
    9.7465  -16.3821   23.5777 C   0  0  1  0  0  0  0  0  0  0  0  0
   10.4013  -16.1354   22.2534 C   0  0  0  0  0  0  0  0  0  0  0  0
   11.4386  -17.1415   21.9927 C   0  0  0  0  0  0  0  0  0  0  0  0
   11.4061  -18.3343   22.3891 O   0  0  0  0  0  0  0  0  0  0  0  0
   10.7092  -16.2594   24.6788 C   0  0  0  0  0  0  0  0  0  0  0  0
   11.6704  -15.4605   24.5679 O   0  0  0  0  0  0  0  0  0  0  0  0
   12.5759  -16.7859   21.2444 O   0  0  0  0  0  0  0  0  0  0  0  0
   10.9766  -14.2926   27.2924 N   0  0  0  0  0  0  0  0  0  0  0  0
   10.6037  -15.1853   28.3314 C   0  0  0  0  0  0  0  0  0  0  0  0
   10.0133  -14.7173   29.3373 O   0  0  0  0  0  0  0  0  0  0  0  0
   10.9021  -16.6415   28.2378 C   0  0  0  0  0  0  0  0  0  0  0  0
   11.5591  -16.9870   26.9209 C   0  0  2  0  0  0  0  0  0  0  0  0
   10.5572  -17.0460   25.8773 N   0  0  0  0  0  0  0  0  0  0  0  0
   12.1346  -18.3477   27.0747 C   0  0  0  0  0  0  0  0  0  0  0  0
   13.2009  -18.5983   27.9443 O   0  0  0  0  0  0  0  0  0  0  0  0
   11.6865  -19.3057   26.4354 O   0  0  0  0  0  0  0  0  0  0  0  0
  2  1  1  0
  2  3  1  0
  3  5  1  0
  3  4  1  6
  5  6  1  1
  5  7  1  0
  7  8  2  0
  9  7  1  0
  9 10  1  0
 10 14  1  0
 10 11  1  6
 12 11  1  0
 13 12  2  0
 14 15  2  0
 16 12  1  0
 17 18  1  0
 18 19  2  0
 18 20  1  0
 21 20  1  1
 21 23  1  0
 22 21  1  0
 22 14  1  0
 23 25  2  0
 23 24  1  0
M  END
$$$$
