IDN.pdb
     RDKit          3D

 25 24  0  0  1  0  0  0  0  0999 V2000
    8.0116  -13.4290   22.9027 C   0  0  0  0  0  0  0  0  0  0  0  0
    7.6675  -14.4472   21.8359 C   0  0  0  0  0  0  0  0  0  0  0  0
    8.2354  -14.0809   20.4978 C   0  0  2  0  0  0  0  0  0  0  0  0
    7.7984  -12.7068   20.0436 C   0  0  0  0  0  0  0  0  0  0  0  0
    7.7776  -15.0689   19.4528 C   0  0  2  0  0  0  0  0  0  0  0  0
    6.3499  -15.2052   19.5385 N   0  0  0  0  0  0  0  0  0  0  0  0
    8.4679  -16.3893   19.5948 C   0  0  0  0  0  0  0  0  0  0  0  0
    7.8585  -17.3667   20.1029 O   0  0  0  0  0  0  0  0  0  0  0  0
    9.8018  -16.5594   19.1654 N   0  0  0  0  0  0  0  0  0  0  0  0
   10.4488  -17.8606   19.2112 C   0  0  1  0  0  0  0  0  0  0  0  0
   11.5384  -17.9011   18.1843 C   0  0  0  0  0  0  0  0  0  0  0  0
   12.1693  -19.2266   18.1500 C   0  0  0  0  0  0  0  0  0  0  0  0
   13.3200  -19.4921   18.5817 O   0  0  0  0  0  0  0  0  0  0  0  0
   10.9677  -18.1624   20.5505 C   0  0  0  0  0  0  0  0  0  0  0  0
   11.7626  -19.1219   20.6992 O   0  0  0  0  0  0  0  0  0  0  0  0
   11.4663  -20.3141   17.5995 O   0  0  0  0  0  0  0  0  0  0  0  0
   14.6217  -17.3594   23.9089 N   0  0  0  0  0  0  0  0  0  0  0  0
   13.6112  -16.3969   23.6479 C   0  0  0  0  0  0  0  0  0  0  0  0
   13.5004  -15.4203   24.4311 O   0  0  0  0  0  0  0  0  0  0  0  0
   12.7017  -16.5355   22.4766 C   0  0  0  0  0  0  0  0  0  0  0  0
   11.4343  -17.2721   22.8457 C   0  0  2  0  0  0  0  0  0  0  0  0
   10.5718  -17.3686   21.6868 N   0  0  0  0  0  0  0  0  0  0  0  0
   10.7380  -16.4416   23.8615 C   0  0  0  0  0  0  0  0  0  0  0  0
   10.5771  -16.8788   25.1803 O   0  0  0  0  0  0  0  0  0  0  0  0
   10.2766  -15.3325   23.5711 O   0  0  0  0  0  0  0  0  0  0  0  0
  2  1  1  0
  2  3  1  0
  3  5  1  0
  3  4  1  6
  5  6  1  1
  5  7  1  0
  7  8  2  0
  9  7  1  0
  9 10  1  0
 10 14  1  0
 10 11  1  6
 12 11  1  0
 13 12  2  0
 14 15  2  0
 16 12  1  0
 17 18  1  0
 18 19  2  0
 18 20  1  0
 21 20  1  6
 21 23  1  0
 22 21  1  0
 22 14  1  0
 23 25  2  0
 23 24  1  0
M  END
$$$$
