IDN.pdb
     RDKit          3D

 25 24  0  0  1  0  0  0  0  0999 V2000
    7.0254  -12.1734   20.0019 C   0  0  0  0  0  0  0  0  0  0  0  0
    7.5653  -13.1610   18.9888 C   0  0  0  0  0  0  0  0  0  0  0  0
    8.9220  -13.6755   19.3655 C   0  0  2  0  0  0  0  0  0  0  0  0
    9.9360  -12.5652   19.5210 C   0  0  0  0  0  0  0  0  0  0  0  0
    9.4360  -14.6106   18.2981 C   0  0  2  0  0  0  0  0  0  0  0  0
    8.3663  -15.4776   17.8880 N   0  0  0  0  0  0  0  0  0  0  0  0
   10.6277  -15.3865   18.7647 C   0  0  0  0  0  0  0  0  0  0  0  0
   10.4890  -16.5706   19.1691 O   0  0  0  0  0  0  0  0  0  0  0  0
   11.9158  -14.8090   18.7593 N   0  0  0  0  0  0  0  0  0  0  0  0
   13.0929  -15.5875   19.1087 C   0  0  1  0  0  0  0  0  0  0  0  0
   14.3044  -14.9333   18.5190 C   0  0  0  0  0  0  0  0  0  0  0  0
   14.5175  -15.3861   17.1385 C   0  0  0  0  0  0  0  0  0  0  0  0
   14.0021  -16.4117   16.6252 O   0  0  0  0  0  0  0  0  0  0  0  0
   13.2275  -15.7462   20.5616 C   0  0  0  0  0  0  0  0  0  0  0  0
   14.1912  -16.4059   21.0206 O   0  0  0  0  0  0  0  0  0  0  0  0
   15.3573  -14.6436   16.2879 O   0  0  0  0  0  0  0  0  0  0  0  0
    9.8644  -14.3675   23.7751 N   0  0  0  0  0  0  0  0  0  0  0  0
    9.7737  -15.7517   23.4728 C   0  0  0  0  0  0  0  0  0  0  0  0
    8.6687  -16.3274   23.6372 O   0  0  0  0  0  0  0  0  0  0  0  0
   10.9552  -16.5084   22.9731 C   0  0  0  0  0  0  0  0  0  0  0  0
   12.1633  -15.6118   22.8261 C   0  0  2  0  0  0  0  0  0  0  0  0
   12.2658  -15.1529   21.4567 N   0  0  0  0  0  0  0  0  0  0  0  0
   13.3551  -16.4505   23.1138 C   0  0  0  0  0  0  0  0  0  0  0  0
   14.3695  -16.0128   23.9715 O   0  0  0  0  0  0  0  0  0  0  0  0
   13.4880  -17.5671   22.6013 O   0  0  0  0  0  0  0  0  0  0  0  0
  2  1  1  0
  2  3  1  0
  3  5  1  0
  3  4  1  6
  5  6  1  1
  5  7  1  0
  7  8  2  0
  9  7  1  0
  9 10  1  0
 10 14  1  0
 10 11  1  1
 12 11  1  0
 13 12  2  0
 14 15  2  0
 16 12  1  0
 17 18  1  0
 18 19  2  0
 18 20  1  0
 21 20  1  6
 21 23  1  0
 22 21  1  0
 22 14  1  0
 23 25  2  0
 23 24  1  0
M  END
$$$$
