IDN.pdb
     RDKit          3D

 25 24  0  0  1  0  0  0  0  0999 V2000
    6.0123  -11.6255   26.2500 C   0  0  0  0  0  0  0  0  0  0  0  0
    5.7834  -12.9376   25.5295 C   0  0  0  0  0  0  0  0  0  0  0  0
    7.0564  -13.7024   25.3254 C   0  0  2  0  0  0  0  0  0  0  0  0
    8.0718  -12.9255   24.5187 C   0  0  0  0  0  0  0  0  0  0  0  0
    6.7761  -14.9861   24.5830 C   0  0  2  0  0  0  0  0  0  0  0  0
    5.7054  -15.6791   25.2445 N   0  0  0  0  0  0  0  0  0  0  0  0
    7.9992  -15.8409   24.4677 C   0  0  0  0  0  0  0  0  0  0  0  0
    8.1112  -16.8780   25.1727 O   0  0  0  0  0  0  0  0  0  0  0  0
    9.0385  -15.5020   23.5747 N   0  0  0  0  0  0  0  0  0  0  0  0
   10.2280  -16.3291   23.4528 C   0  0  1  0  0  0  0  0  0  0  0  0
   11.0534  -15.8323   22.3060 C   0  0  0  0  0  0  0  0  0  0  0  0
   10.4215  -16.1753   21.0257 C   0  0  0  0  0  0  0  0  0  0  0  0
    9.8686  -15.3558   20.2487 O   0  0  0  0  0  0  0  0  0  0  0  0
   11.0046  -16.3506   24.6980 C   0  0  0  0  0  0  0  0  0  0  0  0
   12.1209  -16.9233   24.7157 O   0  0  0  0  0  0  0  0  0  0  0  0
   10.4112  -17.5150   20.5954 O   0  0  0  0  0  0  0  0  0  0  0  0
   12.4094  -15.9047   29.6526 N   0  0  0  0  0  0  0  0  0  0  0  0
   11.2779  -15.0621   29.4937 C   0  0  0  0  0  0  0  0  0  0  0  0
   10.9036  -14.3737   30.4762 O   0  0  0  0  0  0  0  0  0  0  0  0
   10.5482  -14.9913   28.1973 C   0  0  0  0  0  0  0  0  0  0  0  0
   11.2021  -15.8603   27.1473 C   0  0  2  0  0  0  0  0  0  0  0  0
   10.4953  -15.7221   25.8912 N   0  0  0  0  0  0  0  0  0  0  0  0
   11.0496  -17.2664   27.6013 C   0  0  0  0  0  0  0  0  0  0  0  0
   10.1437  -18.1396   26.9903 O   0  0  0  0  0  0  0  0  0  0  0  0
   11.7222  -17.7108   28.5380 O   0  0  0  0  0  0  0  0  0  0  0  0
  2  1  1  0
  2  3  1  0
  3  5  1  0
  3  4  1  6
  5  6  1  1
  5  7  1  0
  7  8  2  0
  9  7  1  0
  9 10  1  0
 10 14  1  0
 10 11  1  6
 12 11  1  0
 13 12  2  0
 14 15  2  0
 16 12  1  0
 17 18  1  0
 18 19  2  0
 18 20  1  0
 21 20  1  1
 21 23  1  0
 22 21  1  0
 22 14  1  0
 23 25  2  0
 23 24  1  0
M  END
$$$$
