IDN.pdb
     RDKit          3D

 25 24  0  0  1  0  0  0  0  0999 V2000
    6.9653  -11.5327   27.1374 C   0  0  0  0  0  0  0  0  0  0  0  0
    6.3625  -12.5467   26.1878 C   0  0  0  0  0  0  0  0  0  0  0  0
    7.3363  -13.6236   25.8149 C   0  0  2  0  0  0  0  0  0  0  0  0
    8.5404  -13.0813   25.0790 C   0  0  0  0  0  0  0  0  0  0  0  0
    6.6714  -14.6329   24.9111 C   0  0  2  0  0  0  0  0  0  0  0  0
    5.4524  -15.0757   25.5295 N   0  0  0  0  0  0  0  0  0  0  0  0
    7.5789  -15.7804   24.5953 C   0  0  0  0  0  0  0  0  0  0  0  0
    7.5771  -16.8044   25.3277 O   0  0  0  0  0  0  0  0  0  0  0  0
    8.4444  -15.7342   23.4812 N   0  0  0  0  0  0  0  0  0  0  0  0
    9.3395  -16.8383   23.1752 C   0  0  1  0  0  0  0  0  0  0  0  0
   10.0440  -16.5532   21.8845 C   0  0  0  0  0  0  0  0  0  0  0  0
    9.2067  -16.9377   20.7412 C   0  0  0  0  0  0  0  0  0  0  0  0
    8.9978  -16.2267   19.7253 O   0  0  0  0  0  0  0  0  0  0  0  0
   10.2960  -17.0794   24.2620 C   0  0  0  0  0  0  0  0  0  0  0  0
   11.1125  -16.1785   24.5724 O   0  0  0  0  0  0  0  0  0  0  0  0
    8.5689  -18.1919   20.7405 O   0  0  0  0  0  0  0  0  0  0  0  0
   14.1109  -19.3785   23.7130 N   0  0  0  0  0  0  0  0  0  0  0  0
   13.5014  -19.3394   24.9946 C   0  0  0  0  0  0  0  0  0  0  0  0
   13.6757  -20.3141   25.7685 O   0  0  0  0  0  0  0  0  0  0  0  0
   12.6744  -18.1751   25.4173 C   0  0  0  0  0  0  0  0  0  0  0  0
   11.3300  -18.6165   25.9491 C   0  0  2  0  0  0  0  0  0  0  0  0
   10.3022  -18.3357   24.9688 N   0  0  0  0  0  0  0  0  0  0  0  0
   11.0517  -17.7860   27.1488 C   0  0  0  0  0  0  0  0  0  0  0  0
   10.8203  -18.3629   28.4018 O   0  0  0  0  0  0  0  0  0  0  0  0
   11.0156  -16.5529   27.0765 O   0  0  0  0  0  0  0  0  0  0  0  0
  2  1  1  0
  2  3  1  0
  3  5  1  0
  3  4  1  6
  5  6  1  1
  5  7  1  0
  7  8  2  0
  9  7  1  0
  9 10  1  0
 10 14  1  0
 10 11  1  6
 12 11  1  0
 13 12  2  0
 14 15  2  0
 16 12  1  0
 17 18  1  0
 18 19  2  0
 18 20  1  0
 21 20  1  6
 21 23  1  0
 22 21  1  0
 22 14  1  0
 23 25  2  0
 23 24  1  0
M  END
$$$$
