IDN.pdb
     RDKit          3D

 25 24  0  0  1  0  0  0  0  0999 V2000
    7.2283  -11.9601   18.6833 C   0  0  0  0  0  0  0  0  0  0  0  0
    8.6605  -12.4051   18.8924 C   0  0  0  0  0  0  0  0  0  0  0  0
    8.7477  -13.7139   19.6180 C   0  0  2  0  0  0  0  0  0  0  0  0
    8.0042  -13.6932   20.9341 C   0  0  0  0  0  0  0  0  0  0  0  0
   10.1893  -14.0444   19.9188 C   0  0  2  0  0  0  0  0  0  0  0  0
   10.9620  -13.8798   18.7187 N   0  0  0  0  0  0  0  0  0  0  0  0
   10.3380  -15.4211   20.4868 C   0  0  0  0  0  0  0  0  0  0  0  0
    9.6887  -15.7519   21.5135 O   0  0  0  0  0  0  0  0  0  0  0  0
   11.2009  -16.3632   19.8866 N   0  0  0  0  0  0  0  0  0  0  0  0
   11.3880  -17.6866   20.4590 C   0  0  1  0  0  0  0  0  0  0  0  0
   12.1778  -18.5258   19.5022 C   0  0  0  0  0  0  0  0  0  0  0  0
   11.4474  -18.6994   18.2403 C   0  0  0  0  0  0  0  0  0  0  0  0
   11.7067  -18.1006   17.1655 O   0  0  0  0  0  0  0  0  0  0  0  0
   12.0379  -17.6229   21.7734 C   0  0  0  0  0  0  0  0  0  0  0  0
   12.9751  -16.8088   21.9562 O   0  0  0  0  0  0  0  0  0  0  0  0
   10.3651  -19.5967   18.1843 O   0  0  0  0  0  0  0  0  0  0  0  0
   12.4144  -17.6061   27.2165 N   0  0  0  0  0  0  0  0  0  0  0  0
   11.8088  -18.7170   26.5726 C   0  0  0  0  0  0  0  0  0  0  0  0
   11.8105  -19.8248   27.1661 O   0  0  0  0  0  0  0  0  0  0  0  0
   11.1852  -18.5795   25.2271 C   0  0  0  0  0  0  0  0  0  0  0  0
   12.2299  -18.3899   24.1511 C   0  0  2  0  0  0  0  0  0  0  0  0
   11.6086  -18.4842   22.8467 N   0  0  0  0  0  0  0  0  0  0  0  0
   13.1863  -19.5190   24.2806 C   0  0  0  0  0  0  0  0  0  0  0  0
   14.2538  -19.4753   25.1833 O   0  0  0  0  0  0  0  0  0  0  0  0
   13.0678  -20.5376   23.5910 O   0  0  0  0  0  0  0  0  0  0  0  0
  2  1  1  0
  2  3  1  0
  3  5  1  0
  3  4  1  1
  5  6  1  6
  5  7  1  0
  7  8  2  0
  9  7  1  0
  9 10  1  0
 10 14  1  0
 10 11  1  6
 12 11  1  0
 13 12  2  0
 14 15  2  0
 16 12  1  0
 17 18  1  0
 18 19  2  0
 18 20  1  0
 21 20  1  1
 21 23  1  0
 22 21  1  0
 22 14  1  0
 23 25  2  0
 23 24  1  0
M  END
$$$$
