IDN.pdb
     RDKit          3D

 25 24  0  0  1  0  0  0  0  0999 V2000
    8.9048  -11.4611   18.9755 C   0  0  0  0  0  0  0  0  0  0  0  0
    9.2047  -12.7890   19.6386 C   0  0  0  0  0  0  0  0  0  0  0  0
    8.4113  -13.9127   19.0426 C   0  0  2  0  0  0  0  0  0  0  0  0
    6.9480  -13.8456   19.4161 C   0  0  0  0  0  0  0  0  0  0  0  0
    8.9421  -15.2380   19.5320 C   0  0  2  0  0  0  0  0  0  0  0  0
    8.6622  -15.3588   20.9360 N   0  0  0  0  0  0  0  0  0  0  0  0
   10.4028  -15.3930   19.2448 C   0  0  0  0  0  0  0  0  0  0  0  0
   10.7893  -15.6678   18.0786 O   0  0  0  0  0  0  0  0  0  0  0  0
   11.3630  -15.2351   20.2673 N   0  0  0  0  0  0  0  0  0  0  0  0
   12.7871  -15.2950   19.9805 C   0  0  1  0  0  0  0  0  0  0  0  0
   13.1259  -14.2464   18.9661 C   0  0  0  0  0  0  0  0  0  0  0  0
   14.2056  -14.7079   18.0844 C   0  0  0  0  0  0  0  0  0  0  0  0
   15.2687  -14.0784   17.8511 O   0  0  0  0  0  0  0  0  0  0  0  0
   13.5932  -15.1393   21.1971 C   0  0  0  0  0  0  0  0  0  0  0  0
   14.8404  -15.0420   21.0989 O   0  0  0  0  0  0  0  0  0  0  0  0
   14.0825  -15.9467   17.4286 O   0  0  0  0  0  0  0  0  0  0  0  0
   13.4381  -19.2885   24.6767 N   0  0  0  0  0  0  0  0  0  0  0  0
   13.0416  -17.9477   24.9230 C   0  0  0  0  0  0  0  0  0  0  0  0
   13.1183  -17.5088   26.0981 O   0  0  0  0  0  0  0  0  0  0  0  0
   12.5461  -17.0778   23.8204 C   0  0  0  0  0  0  0  0  0  0  0  0
   13.4749  -15.9100   23.5783 C   0  0  2  0  0  0  0  0  0  0  0  0
   12.9645  -15.0981   22.4936 N   0  0  0  0  0  0  0  0  0  0  0  0
   14.7754  -16.4815   23.1440 C   0  0  0  0  0  0  0  0  0  0  0  0
   14.8721  -17.3163   22.0260 O   0  0  0  0  0  0  0  0  0  0  0  0
   15.8178  -16.2359   23.7605 O   0  0  0  0  0  0  0  0  0  0  0  0
  2  1  1  0
  2  3  1  0
  3  5  1  0
  3  4  1  1
  5  6  1  1
  5  7  1  0
  7  8  2  0
  9  7  1  0
  9 10  1  0
 10 14  1  0
 10 11  1  6
 12 11  1  0
 13 12  2  0
 14 15  2  0
 16 12  1  0
 17 18  1  0
 18 19  2  0
 18 20  1  0
 21 20  1  6
 21 23  1  0
 22 21  1  0
 22 14  1  0
 23 25  2  0
 23 24  1  0
M  END
$$$$
