IDN.pdb
     RDKit          3D

 25 24  0  0  1  0  0  0  0  0999 V2000
    7.1178  -11.9179   20.5354 C   0  0  0  0  0  0  0  0  0  0  0  0
    7.4488  -13.3781   20.3090 C   0  0  0  0  0  0  0  0  0  0  0  0
    7.9276  -14.0518   21.5596 C   0  0  2  0  0  0  0  0  0  0  0  0
    9.1552  -13.3859   22.1384 C   0  0  0  0  0  0  0  0  0  0  0  0
    8.2876  -15.4883   21.2689 C   0  0  2  0  0  0  0  0  0  0  0  0
    7.1495  -16.1413   20.6835 N   0  0  0  0  0  0  0  0  0  0  0  0
    8.7634  -16.2021   22.4953 C   0  0  0  0  0  0  0  0  0  0  0  0
    7.9419  -16.5313   23.3907 O   0  0  0  0  0  0  0  0  0  0  0  0
   10.1290  -16.5155   22.6672 N   0  0  0  0  0  0  0  0  0  0  0  0
   10.6243  -17.0691   23.9171 C   0  0  1  0  0  0  0  0  0  0  0  0
   11.9623  -17.6978   23.6770 C   0  0  0  0  0  0  0  0  0  0  0  0
   11.8804  -18.6971   22.6041 C   0  0  0  0  0  0  0  0  0  0  0  0
   11.0759  -19.6629   22.5743 O   0  0  0  0  0  0  0  0  0  0  0  0
   10.6959  -16.0507   24.9716 C   0  0  0  0  0  0  0  0  0  0  0  0
   11.3477  -14.9984   24.7657 O   0  0  0  0  0  0  0  0  0  0  0  0
   12.7521  -18.6046   21.5035 O   0  0  0  0  0  0  0  0  0  0  0  0
    9.2760  -13.3240   25.6338 N   0  0  0  0  0  0  0  0  0  0  0  0
    8.4503  -13.7001   26.7257 C   0  0  0  0  0  0  0  0  0  0  0  0
    7.3208  -13.1597   26.8339 O   0  0  0  0  0  0  0  0  0  0  0  0
    8.9056  -14.7094   27.7219 C   0  0  0  0  0  0  0  0  0  0  0  0
   10.2292  -15.3210   27.3228 C   0  0  2  0  0  0  0  0  0  0  0  0
   10.0268  -16.2519   26.2325 N   0  0  0  0  0  0  0  0  0  0  0  0
   10.7134  -16.0939   28.4953 C   0  0  0  0  0  0  0  0  0  0  0  0
   10.6249  -17.4890   28.5405 O   0  0  0  0  0  0  0  0  0  0  0  0
   11.2120  -15.5250   29.4725 O   0  0  0  0  0  0  0  0  0  0  0  0
  2  1  1  0
  2  3  1  0
  3  5  1  0
  3  4  1  6
  5  6  1  1
  5  7  1  0
  7  8  2  0
  9  7  1  0
  9 10  1  0
 10 14  1  0
 10 11  1  6
 12 11  1  0
 13 12  2  0
 14 15  2  0
 16 12  1  0
 17 18  1  0
 18 19  2  0
 18 20  1  0
 21 20  1  1
 21 23  1  0
 22 21  1  0
 22 14  1  0
 23 25  2  0
 23 24  1  0
M  END
$$$$
