IDN.pdb
     RDKit          3D

 25 24  0  0  1  0  0  0  0  0999 V2000
    7.2733  -12.4265   26.9228 C   0  0  0  0  0  0  0  0  0  0  0  0
    7.0040  -13.6461   26.0666 C   0  0  0  0  0  0  0  0  0  0  0  0
    7.4472  -13.4522   24.6477 C   0  0  2  0  0  0  0  0  0  0  0  0
    6.6336  -12.4000   23.9291 C   0  0  0  0  0  0  0  0  0  0  0  0
    7.2987  -14.7419   23.8779 C   0  0  2  0  0  0  0  0  0  0  0  0
    5.9667  -15.2449   24.0701 N   0  0  0  0  0  0  0  0  0  0  0  0
    8.3321  -15.7491   24.2746 C   0  0  0  0  0  0  0  0  0  0  0  0
    8.0328  -16.6785   25.0694 O   0  0  0  0  0  0  0  0  0  0  0  0
    9.6479  -15.6749   23.7690 N   0  0  0  0  0  0  0  0  0  0  0  0
   10.6609  -16.6429   24.1573 C   0  0  1  0  0  0  0  0  0  0  0  0
   11.8204  -16.5418   23.2145 C   0  0  0  0  0  0  0  0  0  0  0  0
   12.7704  -17.6381   23.4421 C   0  0  0  0  0  0  0  0  0  0  0  0
   12.5449  -18.6580   24.1420 O   0  0  0  0  0  0  0  0  0  0  0  0
   11.0878  -16.4540   25.5487 C   0  0  0  0  0  0  0  0  0  0  0  0
   11.3985  -15.3046   25.9449 O   0  0  0  0  0  0  0  0  0  0  0  0
   14.0454  -17.5839   22.8492 O   0  0  0  0  0  0  0  0  0  0  0  0
   10.5086  -13.9266   28.4526 N   0  0  0  0  0  0  0  0  0  0  0  0
   10.7809  -15.2082   28.9995 C   0  0  0  0  0  0  0  0  0  0  0  0
   11.5081  -15.2786   30.0220 O   0  0  0  0  0  0  0  0  0  0  0  0
   10.2216  -16.4424   28.3813 C   0  0  0  0  0  0  0  0  0  0  0  0
   11.3177  -17.3526   27.8764 C   0  0  2  0  0  0  0  0  0  0  0  0
   11.1517  -17.5731   26.4550 N   0  0  0  0  0  0  0  0  0  0  0  0
   11.1384  -18.6581   28.5619 C   0  0  0  0  0  0  0  0  0  0  0  0
   10.7959  -19.8157   27.8556 O   0  0  0  0  0  0  0  0  0  0  0  0
   11.2871  -18.7624   29.7843 O   0  0  0  0  0  0  0  0  0  0  0  0
  2  1  1  0
  2  3  1  0
  3  5  1  0
  3  4  1  6
  5  6  1  1
  5  7  1  0
  7  8  2  0
  9  7  1  0
  9 10  1  0
 10 14  1  0
 10 11  1  6
 12 11  1  0
 13 12  2  0
 14 15  2  0
 16 12  1  0
 17 18  1  0
 18 19  2  0
 18 20  1  0
 21 20  1  1
 21 23  1  0
 22 21  1  0
 22 14  1  0
 23 25  2  0
 23 24  1  0
M  END
$$$$
