VIN.pdb
     RDKit          3D

 24 23  0  0  1  0  0  0  0  0999 V2000
   26.3293  -19.4032  -16.6569 C   0  0  0  0  0  0  0  0  0  0  0  0
   27.3395  -19.1958  -15.5556 C   0  0  2  0  0  0  0  0  0  0  0  0
   28.6234  -18.7018  -16.2187 C   0  0  0  0  0  0  0  0  0  0  0  0
   27.6859  -20.4784  -14.8452 C   0  0  2  0  0  0  0  0  0  0  0  0
   28.1756  -21.4123  -15.8484 N   0  0  0  0  0  0  0  0  0  0  0  0
   26.5603  -21.0461  -14.0861 C   0  0  0  0  0  0  0  0  0  0  0  0
   25.8455  -22.0019  -14.4760 O   0  0  0  0  0  0  0  0  0  0  0  0
   26.6203  -20.2584   -8.6835 C   0  0  0  0  0  0  0  0  0  0  0  0
   26.2774  -21.0689   -9.9149 C   0  0  0  0  0  0  0  0  0  0  0  0
   25.1418  -20.4089  -10.6498 C   0  0  2  0  0  0  0  0  0  0  0  0
   23.8551  -20.8372   -9.9703 C   0  0  0  0  0  0  0  0  0  0  0  0
   25.0699  -20.9131  -12.0790 C   0  0  2  0  0  0  0  0  0  0  0  0
   26.2542  -20.4770  -12.8200 N   0  0  0  0  0  0  0  0  0  0  0  0
   23.8274  -20.5122  -12.7539 C   0  0  0  0  0  0  0  0  0  0  0  0
   23.6289  -19.3065  -13.0486 O   0  0  0  0  0  0  0  0  0  0  0  0
   19.9163  -21.5690  -16.8426 N   0  0  0  0  0  0  0  0  0  0  0  0
   19.9503  -21.8337  -15.4509 C   0  0  0  0  0  0  0  0  0  0  0  0
   18.8444  -21.7776  -14.8367 O   0  0  0  0  0  0  0  0  0  0  0  0
   21.1975  -22.1581  -14.7428 C   0  0  0  0  0  0  0  0  0  0  0  0
   21.5964  -21.0349  -13.8466 C   0  0  2  0  0  0  0  0  0  0  0  0
   22.8045  -21.4356  -13.1044 N   0  0  0  0  0  0  0  0  0  0  0  0
   20.5611  -20.5315  -12.9506 C   0  0  0  0  0  0  0  0  0  0  0  0
   19.7635  -19.4719  -13.3375 O   0  0  0  0  0  0  0  0  0  0  0  0
   20.3807  -21.0597  -11.8045 O   0  0  0  0  0  0  0  0  0  0  0  0
  2  1  1  6
  2  3  1  0
  4  6  1  0
  4  2  1  0
  4  5  1  6
  6 13  1  0
  7  6  2  0
  9  8  1  0
 10  9  1  0
 10 11  1  1
 12 10  1  0
 12 13  1  6
 14 21  1  0
 14 12  1  0
 15 14  2  0
 17 16  1  0
 17 18  2  0
 19 17  1  0
 20 19  1  1
 20 21  1  0
 22 20  1  0
 22 23  1  0
 24 22  2  0
M  END
$$$$
