VIN.pdb
     RDKit          3D

 24 23  0  0  1  0  0  0  0  0999 V2000
   16.9386  -10.8929  -19.4689 C   0  0  0  0  0  0  0  0  0  0  0  0
   17.3455  -10.3302  -18.1293 C   0  0  2  0  0  0  0  0  0  0  0  0
   17.8227   -8.9005  -18.3753 C   0  0  0  0  0  0  0  0  0  0  0  0
   18.5061  -11.0748  -17.5225 C   0  0  2  0  0  0  0  0  0  0  0  0
   18.0674  -12.4415  -17.2817 N   0  0  0  0  0  0  0  0  0  0  0  0
   19.0199  -10.4504  -16.2930 C   0  0  0  0  0  0  0  0  0  0  0  0
   18.4025  -10.4101  -15.2005 O   0  0  0  0  0  0  0  0  0  0  0  0
   22.3848   -9.9903  -12.2964 C   0  0  0  0  0  0  0  0  0  0  0  0
   22.8255   -9.3254  -13.5827 C   0  0  0  0  0  0  0  0  0  0  0  0
   22.1532   -9.9963  -14.7503 C   0  0  2  0  0  0  0  0  0  0  0  0
   23.0958   -9.8928  -15.9342 C   0  0  0  0  0  0  0  0  0  0  0  0
   20.8874   -9.2526  -15.1333 C   0  0  2  0  0  0  0  0  0  0  0  0
   20.3065   -9.8477  -16.3375 N   0  0  0  0  0  0  0  0  0  0  0  0
   21.1113   -7.8088  -15.2933 C   0  0  0  0  0  0  0  0  0  0  0  0
   21.6510   -7.3649  -16.3380 O   0  0  0  0  0  0  0  0  0  0  0  0
   21.1419   -2.6603  -14.6047 N   0  0  0  0  0  0  0  0  0  0  0  0
   19.8771   -3.2403  -14.3363 C   0  0  0  0  0  0  0  0  0  0  0  0
   18.9094   -2.4395  -14.1759 O   0  0  0  0  0  0  0  0  0  0  0  0
   19.6830   -4.6951  -14.2459 C   0  0  0  0  0  0  0  0  0  0  0  0
   20.9716   -5.4091  -14.4770 C   0  0  2  0  0  0  0  0  0  0  0  0
   20.7423   -6.8545  -14.3059 N   0  0  0  0  0  0  0  0  0  0  0  0
   22.1086   -4.9512  -13.6861 C   0  0  0  0  0  0  0  0  0  0  0  0
   22.8705   -3.8834  -14.1194 O   0  0  0  0  0  0  0  0  0  0  0  0
   22.4127   -5.5283  -12.5907 O   0  0  0  0  0  0  0  0  0  0  0  0
  2  1  1  6
  2  3  1  0
  4  6  1  0
  4  2  1  0
  4  5  1  1
  6 13  1  0
  7  6  2  0
  9  8  1  0
 10  9  1  0
 10 11  1  6
 12 10  1  0
 12 13  1  6
 14 21  1  0
 14 12  1  0
 15 14  2  0
 17 16  1  0
 17 18  2  0
 19 17  1  0
 20 19  1  1
 20 21  1  0
 22 20  1  0
 22 23  1  0
 24 22  2  0
M  END
$$$$
