VIN.pdb
     RDKit          3D

 24 23  0  0  1  0  0  0  0  0999 V2000
   18.4133  -13.6159  -19.9989 C   0  0  0  0  0  0  0  0  0  0  0  0
   18.5878  -12.8418  -18.7155 C   0  0  2  0  0  0  0  0  0  0  0  0
   17.2599  -12.1414  -18.4359 C   0  0  0  0  0  0  0  0  0  0  0  0
   19.6301  -11.7606  -18.8345 C   0  0  2  0  0  0  0  0  0  0  0  0
   20.8641  -12.3931  -19.2768 N   0  0  0  0  0  0  0  0  0  0  0  0
   19.8301  -11.0045  -17.5880 C   0  0  0  0  0  0  0  0  0  0  0  0
   18.9056  -10.5164  -16.8925 O   0  0  0  0  0  0  0  0  0  0  0  0
   24.0283  -12.4798  -14.5577 C   0  0  0  0  0  0  0  0  0  0  0  0
   22.6533  -11.9858  -14.9528 C   0  0  0  0  0  0  0  0  0  0  0  0
   22.7220  -10.5180  -15.2790 C   0  0  2  0  0  0  0  0  0  0  0  0
   22.8664   -9.7705  -13.9672 C   0  0  0  0  0  0  0  0  0  0  0  0
   21.4215  -10.0521  -15.9065 C   0  0  2  0  0  0  0  0  0  0  0  0
   21.1621  -10.8086  -17.1321 N   0  0  0  0  0  0  0  0  0  0  0  0
   21.4022   -8.6024  -16.1472 C   0  0  0  0  0  0  0  0  0  0  0  0
   22.1596   -8.0952  -17.0127 O   0  0  0  0  0  0  0  0  0  0  0  0
   20.0585   -3.7332  -16.7761 N   0  0  0  0  0  0  0  0  0  0  0  0
   19.8077   -4.8195  -17.6508 C   0  0  0  0  0  0  0  0  0  0  0  0
   19.3988   -4.5278  -18.8132 O   0  0  0  0  0  0  0  0  0  0  0  0
   20.0073   -6.2184  -17.2440 C   0  0  0  0  0  0  0  0  0  0  0  0
   20.4038   -6.2931  -15.8083 C   0  0  2  0  0  0  0  0  0  0  0  0
   20.5512   -7.7114  -15.4374 N   0  0  0  0  0  0  0  0  0  0  0  0
   19.5445   -5.5814  -14.8686 C   0  0  0  0  0  0  0  0  0  0  0  0
   19.6038   -4.2041  -14.7800 O   0  0  0  0  0  0  0  0  0  0  0  0
   18.7326   -6.2185  -14.1201 O   0  0  0  0  0  0  0  0  0  0  0  0
  2  1  1  6
  2  3  1  0
  4  6  1  0
  4  2  1  0
  4  5  1  1
  6 13  1  0
  7  6  2  0
  9  8  1  0
 10  9  1  0
 10 11  1  1
 12 10  1  0
 12 13  1  6
 14 21  1  0
 14 12  1  0
 15 14  2  0
 17 16  1  0
 17 18  2  0
 19 17  1  0
 20 19  1  6
 20 21  1  0
 22 20  1  0
 22 23  1  0
 24 22  2  0
M  END
$$$$
