VIN.pdb
     RDKit          3D

 24 23  0  0  1  0  0  0  0  0999 V2000
   17.3692  -13.2370  -19.0120 C   0  0  0  0  0  0  0  0  0  0  0  0
   18.0465  -12.6664  -17.7904 C   0  0  2  0  0  0  0  0  0  0  0  0
   16.9494  -12.0629  -16.9162 C   0  0  0  0  0  0  0  0  0  0  0  0
   18.9939  -11.5454  -18.1302 C   0  0  2  0  0  0  0  0  0  0  0  0
   19.9801  -12.0765  -19.0595 N   0  0  0  0  0  0  0  0  0  0  0  0
   19.6357  -10.9468  -16.9489 C   0  0  0  0  0  0  0  0  0  0  0  0
   19.0192  -10.5038  -15.9488 O   0  0  0  0  0  0  0  0  0  0  0  0
   24.0803  -13.2788  -15.2065 C   0  0  0  0  0  0  0  0  0  0  0  0
   22.7704  -12.5250  -15.2880 C   0  0  0  0  0  0  0  0  0  0  0  0
   23.0455  -11.0663  -15.5370 C   0  0  2  0  0  0  0  0  0  0  0  0
   23.6620  -10.5010  -14.2716 C   0  0  0  0  0  0  0  0  0  0  0  0
   21.7485  -10.3128  -15.7654 C   0  0  2  0  0  0  0  0  0  0  0  0
   21.0544  -10.8605  -16.9315 N   0  0  0  0  0  0  0  0  0  0  0  0
   21.9557   -8.8628  -15.8866 C   0  0  0  0  0  0  0  0  0  0  0  0
   22.2375   -8.3556  -17.0016 O   0  0  0  0  0  0  0  0  0  0  0  0
   21.9493   -3.9179  -16.5997 N   0  0  0  0  0  0  0  0  0  0  0  0
   20.8521   -4.6208  -16.0428 C   0  0  0  0  0  0  0  0  0  0  0  0
   19.8591   -3.9244  -15.6793 O   0  0  0  0  0  0  0  0  0  0  0  0
   20.8523   -6.0832  -15.8887 C   0  0  0  0  0  0  0  0  0  0  0  0
   21.9208   -6.5079  -14.9390 C   0  0  2  0  0  0  0  0  0  0  0  0
   21.8530   -7.9715  -14.7834 N   0  0  0  0  0  0  0  0  0  0  0  0
   21.9338   -5.8331  -13.6458 C   0  0  0  0  0  0  0  0  0  0  0  0
   22.3814   -4.5299  -13.5475 O   0  0  0  0  0  0  0  0  0  0  0  0
   21.5352   -6.4348  -12.5949 O   0  0  0  0  0  0  0  0  0  0  0  0
  2  1  1  6
  2  3  1  0
  4  6  1  0
  4  2  1  0
  4  5  1  6
  6 13  1  0
  7  6  2  0
  9  8  1  0
 10  9  1  0
 10 11  1  1
 12 10  1  0
 12 13  1  6
 14 21  1  0
 14 12  1  0
 15 14  2  0
 17 16  1  0
 17 18  2  0
 19 17  1  0
 20 19  1  6
 20 21  1  0
 22 20  1  0
 22 23  1  0
 24 22  2  0
M  END
$$$$
