MTV.pdb
     RDKit          3D

 23 22  0  0  1  0  0  0  0  0999 V2000
    8.5881  -12.7908   15.7446 C   0  0  0  0  0  0  0  0  0  0  0  0
    8.6303  -13.7613   17.2412 S   0  0  0  0  0  0  0  0  0  0  0  0
    7.0796  -13.9697   18.0857 C   0  0  0  0  0  0  0  0  0  0  0  0
    7.1980  -14.6912   19.3779 C   0  0  0  0  0  0  0  0  0  0  0  0
    8.1510  -14.1183   20.3687 C   0  0  2  0  0  0  0  0  0  0  0  0
    9.5078  -14.4721   19.9889 N   0  0  0  0  0  0  0  0  0  0  0  0
    7.8419  -14.7608   21.6978 C   0  0  0  0  0  0  0  0  0  0  0  0
    6.6662  -14.7154   22.1634 O   0  0  0  0  0  0  0  0  0  0  0  0
    8.4706  -18.3303   22.7875 C   0  0  0  0  0  0  0  0  0  0  0  0
    9.0134  -17.3943   23.7982 C   0  0  1  0  0  0  0  0  0  0  0  0
   10.3947  -17.2481   23.5079 O   0  0  0  0  0  0  0  0  0  0  0  0
    8.4569  -15.9936   23.7724 C   0  0  2  0  0  0  0  0  0  0  0  0
    8.8317  -15.4256   22.4625 N   0  0  0  0  0  0  0  0  0  0  0  0
    9.0063  -15.0915   24.7888 C   0  0  0  0  0  0  0  0  0  0  0  0
   10.1105  -14.5257   24.6172 O   0  0  0  0  0  0  0  0  0  0  0  0
    6.5865  -13.1347   27.6767 C   0  0  0  0  0  0  0  0  0  0  0  0
    7.9735  -12.7811   27.2580 C   0  0  2  0  0  0  0  0  0  0  0  0
    7.9283  -11.9174   25.9936 C   0  0  0  0  0  0  0  0  0  0  0  0
    8.8461  -13.9794   26.9771 C   0  0  2  0  0  0  0  0  0  0  0  0
    8.2843  -14.8515   25.9806 N   0  0  0  0  0  0  0  0  0  0  0  0
    9.0833  -14.7441   28.2216 C   0  0  0  0  0  0  0  0  0  0  0  0
    9.8306  -14.2149   29.2675 O   0  0  0  0  0  0  0  0  0  0  0  0
    8.6115  -15.9027   28.3684 O   0  0  0  0  0  0  0  0  0  0  0  0
  2  1  1  0
  3  4  1  0
  3  2  1  0
  5  4  1  0
  5  6  1  6
  7  8  2  0
  7  5  1  0
 10 12  1  0
 10  9  1  6
 11 10  1  0
 12 13  1  6
 13  7  1  0
 14 12  1  0
 15 14  2  0
 17 16  1  6
 17 19  1  0
 18 17  1  0
 19 21  1  0
 19 20  1  6
 20 14  1  0
 21 22  1  0
 23 21  2  0
M  END
$$$$
