MTV.pdb
     RDKit          3D

 23 22  0  0  1  0  0  0  0  0999 V2000
    6.6949  -12.1939   18.7273 C   0  0  0  0  0  0  0  0  0  0  0  0
    8.3307  -12.8827   18.9094 S   0  0  0  0  0  0  0  0  0  0  0  0
    8.4695  -14.3075   19.9638 C   0  0  0  0  0  0  0  0  0  0  0  0
    7.9949  -15.5643   19.3315 C   0  0  0  0  0  0  0  0  0  0  0  0
    8.1950  -16.8142   20.1161 C   0  0  2  0  0  0  0  0  0  0  0  0
    7.6315  -17.9353   19.3840 N   0  0  0  0  0  0  0  0  0  0  0  0
    7.4303  -16.6504   21.4058 C   0  0  0  0  0  0  0  0  0  0  0  0
    6.2933  -17.1895   21.5391 O   0  0  0  0  0  0  0  0  0  0  0  0
    6.5708  -18.3523   23.1885 C   0  0  0  0  0  0  0  0  0  0  0  0
    7.2252  -17.4512   24.1642 C   0  0  1  0  0  0  0  0  0  0  0  0
    8.5870  -17.8454   24.2229 O   0  0  0  0  0  0  0  0  0  0  0  0
    7.2557  -15.9886   23.8002 C   0  0  2  0  0  0  0  0  0  0  0  0
    7.9407  -15.9031   22.4955 N   0  0  0  0  0  0  0  0  0  0  0  0
    8.0126  -15.1377   24.7232 C   0  0  0  0  0  0  0  0  0  0  0  0
    9.2407  -14.9498   24.5641 O   0  0  0  0  0  0  0  0  0  0  0  0
    5.9574  -12.7421   27.6939 C   0  0  0  0  0  0  0  0  0  0  0  0
    7.2240  -12.3753   26.9972 C   0  0  2  0  0  0  0  0  0  0  0  0
    6.9045  -11.5854   25.7241 C   0  0  0  0  0  0  0  0  0  0  0  0
    8.0704  -13.5636   26.6126 C   0  0  2  0  0  0  0  0  0  0  0  0
    7.3530  -14.5169   25.8090 N   0  0  0  0  0  0  0  0  0  0  0  0
    8.5915  -14.2355   27.8236 C   0  0  0  0  0  0  0  0  0  0  0  0
    9.5179  -13.6168   28.6551 O   0  0  0  0  0  0  0  0  0  0  0  0
    8.2077  -15.3937   28.1363 O   0  0  0  0  0  0  0  0  0  0  0  0
  2  1  1  0
  3  4  1  0
  3  2  1  0
  5  4  1  0
  5  6  1  6
  7  8  2  0
  7  5  1  0
 10 12  1  0
 10  9  1  6
 11 10  1  0
 12 13  1  6
 13  7  1  0
 14 12  1  0
 15 14  2  0
 17 16  1  6
 17 19  1  0
 18 17  1  0
 19 21  1  0
 19 20  1  1
 20 14  1  0
 21 22  1  0
 23 21  2  0
M  END
$$$$
