MTV.pdb
     RDKit          3D

 23 22  0  0  1  0  0  0  0  0999 V2000
    7.9894  -11.7310   19.2519 C   0  0  0  0  0  0  0  0  0  0  0  0
    8.2644  -12.8313   17.8745 S   0  0  0  0  0  0  0  0  0  0  0  0
    8.0644  -14.5669   18.2042 C   0  0  0  0  0  0  0  0  0  0  0  0
    8.3758  -14.9462   19.6056 C   0  0  0  0  0  0  0  0  0  0  0  0
    8.3009  -16.3981   19.9284 C   0  0  2  0  0  0  0  0  0  0  0  0
    7.3354  -17.0355   19.0500 N   0  0  0  0  0  0  0  0  0  0  0  0
    7.8032  -16.5072   21.3480 C   0  0  0  0  0  0  0  0  0  0  0  0
    6.5598  -16.5196   21.5825 O   0  0  0  0  0  0  0  0  0  0  0  0
    8.2550  -19.3200   23.4184 C   0  0  0  0  0  0  0  0  0  0  0  0
    8.6335  -18.1588   24.2554 C   0  0  1  0  0  0  0  0  0  0  0  0
   10.0472  -18.0586   24.1857 O   0  0  0  0  0  0  0  0  0  0  0  0
    8.1222  -16.8163   23.7984 C   0  0  2  0  0  0  0  0  0  0  0  0
    8.6861  -16.5974   22.4520 N   0  0  0  0  0  0  0  0  0  0  0  0
    8.5517  -15.6797   24.6184 C   0  0  0  0  0  0  0  0  0  0  0  0
    9.5798  -15.0271   24.3248 O   0  0  0  0  0  0  0  0  0  0  0  0
    6.1905  -12.8433   25.8316 C   0  0  0  0  0  0  0  0  0  0  0  0
    7.0454  -13.3100   26.9610 C   0  0  2  0  0  0  0  0  0  0  0  0
    7.5994  -12.1028   27.7241 C   0  0  0  0  0  0  0  0  0  0  0  0
    8.2096  -14.1657   26.5267 C   0  0  2  0  0  0  0  0  0  0  0  0
    7.7991  -15.3091   25.7565 N   0  0  0  0  0  0  0  0  0  0  0  0
    8.9809  -14.6188   27.7055 C   0  0  0  0  0  0  0  0  0  0  0  0
    9.0655  -15.9644   28.0441 O   0  0  0  0  0  0  0  0  0  0  0  0
    9.5858  -13.7926   28.4390 O   0  0  0  0  0  0  0  0  0  0  0  0
  2  1  1  0
  3  4  1  0
  3  2  1  0
  5  4  1  0
  5  6  1  6
  7  8  2  0
  7  5  1  0
 10 12  1  0
 10  9  1  6
 11 10  1  0
 12 13  1  6
 13  7  1  0
 14 12  1  0
 15 14  2  0
 17 16  1  6
 17 19  1  0
 18 17  1  0
 19 21  1  0
 19 20  1  1
 20 14  1  0
 21 22  1  0
 23 21  2  0
M  END
$$$$
