MTV.pdb
     RDKit          3D

 23 22  0  0  1  0  0  0  0  0999 V2000
    8.5960  -10.6450   19.6758 C   0  0  0  0  0  0  0  0  0  0  0  0
    7.7954  -12.1978   20.0382 S   0  0  0  0  0  0  0  0  0  0  0  0
    8.8389  -13.6374   20.0401 C   0  0  0  0  0  0  0  0  0  0  0  0
    8.1526  -14.8691   20.5053 C   0  0  0  0  0  0  0  0  0  0  0  0
    8.9232  -16.1381   20.3882 C   0  0  2  0  0  0  0  0  0  0  0  0
    8.2941  -16.9911   19.3948 N   0  0  0  0  0  0  0  0  0  0  0  0
    8.8451  -16.8247   21.7289 C   0  0  0  0  0  0  0  0  0  0  0  0
    8.0674  -17.8098   21.8900 O   0  0  0  0  0  0  0  0  0  0  0  0
    9.5264  -19.2698   22.6094 C   0  0  0  0  0  0  0  0  0  0  0  0
   10.1664  -18.5480   23.7326 C   0  0  1  0  0  0  0  0  0  0  0  0
   11.4984  -18.2753   23.3265 O   0  0  0  0  0  0  0  0  0  0  0  0
    9.5789  -17.2034   24.0783 C   0  0  2  0  0  0  0  0  0  0  0  0
    9.6201  -16.4047   22.8377 N   0  0  0  0  0  0  0  0  0  0  0  0
   10.3246  -16.4438   25.0862 C   0  0  0  0  0  0  0  0  0  0  0  0
   11.4157  -15.8979   24.8027 O   0  0  0  0  0  0  0  0  0  0  0  0
   10.2583  -13.3791   28.7278 C   0  0  0  0  0  0  0  0  0  0  0  0
    9.7105  -14.1853   27.5990 C   0  0  2  0  0  0  0  0  0  0  0  0
    8.2533  -14.5586   27.8889 C   0  0  0  0  0  0  0  0  0  0  0  0
   10.4774  -15.4573   27.3344 C   0  0  2  0  0  0  0  0  0  0  0  0
    9.8100  -16.3210   26.3974 N   0  0  0  0  0  0  0  0  0  0  0  0
   10.7079  -16.1898   28.5993 C   0  0  0  0  0  0  0  0  0  0  0  0
   11.6497  -15.7587   29.5265 O   0  0  0  0  0  0  0  0  0  0  0  0
   10.0530  -17.2304   28.8725 O   0  0  0  0  0  0  0  0  0  0  0  0
  2  1  1  0
  3  4  1  0
  3  2  1  0
  5  4  1  0
  5  6  1  6
  7  8  2  0
  7  5  1  0
 10 12  1  0
 10  9  1  6
 11 10  1  0
 12 13  1  6
 13  7  1  0
 14 12  1  0
 15 14  2  0
 17 16  1  1
 17 19  1  0
 18 17  1  0
 19 21  1  0
 19 20  1  6
 20 14  1  0
 21 22  1  0
 23 21  2  0
M  END
$$$$
