MTV.pdb
     RDKit          3D

 23 22  0  0  1  0  0  0  0  0999 V2000
    7.8574  -11.5391   20.4552 C   0  0  0  0  0  0  0  0  0  0  0  0
    7.9294  -12.3116   18.8485 S   0  0  0  0  0  0  0  0  0  0  0  0
    8.6230  -13.9478   18.7945 C   0  0  0  0  0  0  0  0  0  0  0  0
    8.7320  -14.5922   20.1277 C   0  0  0  0  0  0  0  0  0  0  0  0
    9.2192  -15.9995   20.1426 C   0  0  2  0  0  0  0  0  0  0  0  0
    8.3840  -16.8053   19.2689 N   0  0  0  0  0  0  0  0  0  0  0  0
    9.0621  -16.5037   21.5554 C   0  0  0  0  0  0  0  0  0  0  0  0
    7.9327  -16.9047   21.9613 O   0  0  0  0  0  0  0  0  0  0  0  0
   10.1441  -19.4777   22.8155 C   0  0  0  0  0  0  0  0  0  0  0  0
   10.6524  -18.4744   23.7784 C   0  0  1  0  0  0  0  0  0  0  0  0
   11.9791  -18.1704   23.3773 O   0  0  0  0  0  0  0  0  0  0  0  0
    9.9348  -17.1488   23.7968 C   0  0  2  0  0  0  0  0  0  0  0  0
   10.1466  -16.5473   22.4656 N   0  0  0  0  0  0  0  0  0  0  0  0
   10.4450  -16.1834   24.7747 C   0  0  0  0  0  0  0  0  0  0  0  0
   11.4041  -15.4286   24.4930 O   0  0  0  0  0  0  0  0  0  0  0  0
   10.0138  -13.0942   28.3518 C   0  0  0  0  0  0  0  0  0  0  0  0
    9.5261  -13.9865   27.2609 C   0  0  2  0  0  0  0  0  0  0  0  0
    8.1142  -14.4820   27.5897 C   0  0  0  0  0  0  0  0  0  0  0  0
   10.4034  -15.1911   27.0252 C   0  0  2  0  0  0  0  0  0  0  0  0
    9.8501  -16.0971   26.0545 N   0  0  0  0  0  0  0  0  0  0  0  0
   10.6344  -15.9137   28.2957 C   0  0  0  0  0  0  0  0  0  0  0  0
   11.4083  -15.3657   29.3122 O   0  0  0  0  0  0  0  0  0  0  0  0
   10.1332  -17.0524   28.4923 O   0  0  0  0  0  0  0  0  0  0  0  0
  2  1  1  0
  3  4  1  0
  3  2  1  0
  5  4  1  0
  5  6  1  6
  7  8  2  0
  7  5  1  0
 10 12  1  0
 10  9  1  6
 11 10  1  0
 12 13  1  6
 13  7  1  0
 14 12  1  0
 15 14  2  0
 17 16  1  1
 17 19  1  0
 18 17  1  0
 19 21  1  0
 19 20  1  6
 20 14  1  0
 21 22  1  0
 23 21  2  0
M  END
$$$$
