HMF.pdb
     RDKit          3D

 30 31  0  0  1  0  0  0  0  0999 V2000
   27.9321  -20.5412  -15.5206 N   0  0  0  0  0  0  0  0  0  0  0  0
   27.1961  -19.6853  -14.6036 C   0  0  1  0  0  0  0  0  0  0  0  0
   26.5537  -18.5381  -15.3149 C   0  0  0  0  0  0  0  0  0  0  0  0
   27.4834  -17.6283  -16.0134 C   0  0  0  0  0  0  0  0  0  0  0  0
   27.7226  -16.3406  -15.6230 C   0  0  0  0  0  0  0  0  0  0  0  0
   28.6085  -15.8137  -16.4842 N   0  0  0  0  0  0  0  0  0  0  0  0
   28.9023  -16.7523  -17.3782 C   0  0  0  0  0  0  0  0  0  0  0  0
   28.2219  -17.8636  -17.0972 N   0  0  0  0  0  0  0  0  0  0  0  0
   26.3091  -20.4593  -13.7211 C   0  0  0  0  0  0  0  0  0  0  0  0
   25.7764  -21.4991  -14.1840 O   0  0  0  0  0  0  0  0  0  0  0  0
   28.3358  -20.8057   -7.1813 C   0  0  0  0  0  0  0  0  0  0  0  0
   26.6098  -20.7584   -7.7686 S   0  0  0  0  0  0  0  0  0  0  0  0
   26.5722  -20.8991   -9.6021 C   0  0  0  0  0  0  0  0  0  0  0  0
   25.1689  -20.7309  -10.1098 C   0  0  0  0  0  0  0  0  0  0  0  0
   25.0262  -20.8037  -11.5819 C   0  0  2  0  0  0  0  0  0  0  0  0
   26.0160  -20.1116  -12.3768 N   0  0  0  0  0  0  0  0  0  0  0  0
   23.6642  -20.5223  -12.0050 C   0  0  0  0  0  0  0  0  0  0  0  0
   23.2035  -19.3699  -11.9397 O   0  0  0  0  0  0  0  0  0  0  0  0
   22.7671  -21.5212  -12.5070 N   0  0  0  0  0  0  0  0  0  0  0  0
   21.4719  -21.1737  -12.9773 C   0  0  1  0  0  0  0  0  0  0  0  0
   21.2827  -21.2277  -14.4400 C   0  0  0  0  0  0  0  0  0  0  0  0
   21.9425  -20.1539  -15.2168 C   0  0  0  0  0  0  0  0  0  0  0  0
   21.1850  -19.0164  -15.5319 C   0  0  0  0  0  0  0  0  0  0  0  0
   21.7149  -17.9589  -16.2551 C   0  0  0  0  0  0  0  0  0  0  0  0
   23.0209  -18.0099  -16.6894 C   0  0  0  0  0  0  0  0  0  0  0  0
   23.7775  -19.1147  -16.3918 C   0  0  0  0  0  0  0  0  0  0  0  0
   23.2413  -20.1635  -15.6678 C   0  0  0  0  0  0  0  0  0  0  0  0
   20.4301  -22.1491  -12.4283 C   0  0  0  0  0  0  0  0  0  0  0  0
   19.1013  -21.8873  -12.5402 O   0  0  0  0  0  0  0  0  0  0  0  0
   20.8778  -23.1674  -11.8938 O   0  0  0  0  0  0  0  0  0  0  0  0
  2  1  1  6
  2  9  1  0
  3  2  1  0
  3  4  1  0
  4  5  2  0
  4  8  1  0
  5  6  1  0
  6  7  1  0
  8  7  2  0
  9 10  2  0
 11 12  1  0
 13 12  1  0
 13 14  1  0
 15 14  1  1
 15 17  1  0
 16  9  1  0
 16 15  1  0
 17 18  2  0
 19 20  1  0
 19 17  1  0
 20 21  1  6
 21 22  1  0
 22 23  2  0
 23 24  1  0
 25 24  2  0
 26 25  1  0
 27 26  2  0
 27 22  1  0
 28 20  1  0
 28 29  1  0
 30 28  2  0
M  END
$$$$
