HMF.pdb
     RDKit          3D

 30 31  0  0  1  0  0  0  0  0999 V2000
   28.4787  -21.4576  -15.5806 N   0  0  0  0  0  0  0  0  0  0  0  0
   27.7784  -20.4018  -14.8667 C   0  0  1  0  0  0  0  0  0  0  0  0
   27.2748  -19.3463  -15.7978 C   0  0  0  0  0  0  0  0  0  0  0  0
   28.3104  -18.6689  -16.6032 C   0  0  0  0  0  0  0  0  0  0  0  0
   28.9923  -17.5603  -16.1861 C   0  0  0  0  0  0  0  0  0  0  0  0
   29.8432  -17.2149  -17.1663 N   0  0  0  0  0  0  0  0  0  0  0  0
   29.6854  -18.0869  -18.1569 C   0  0  0  0  0  0  0  0  0  0  0  0
   28.7536  -18.9789  -17.8209 N   0  0  0  0  0  0  0  0  0  0  0  0
   26.7852  -20.9403  -13.9242 C   0  0  0  0  0  0  0  0  0  0  0  0
   26.0042  -21.8343  -14.3364 O   0  0  0  0  0  0  0  0  0  0  0  0
   28.5394  -20.6494   -7.1447 C   0  0  0  0  0  0  0  0  0  0  0  0
   26.9047  -20.3406   -7.8920 S   0  0  0  0  0  0  0  0  0  0  0  0
   26.9102  -20.8867   -9.6483 C   0  0  0  0  0  0  0  0  0  0  0  0
   25.6059  -20.5396  -10.3069 C   0  0  0  0  0  0  0  0  0  0  0  0
   25.5243  -20.8811  -11.7455 C   0  0  2  0  0  0  0  0  0  0  0  0
   26.6515  -20.5193  -12.5756 N   0  0  0  0  0  0  0  0  0  0  0  0
   24.2490  -20.4860  -12.3207 C   0  0  0  0  0  0  0  0  0  0  0  0
   24.1436  -19.4308  -12.9688 O   0  0  0  0  0  0  0  0  0  0  0  0
   23.0453  -21.2522  -12.1833 N   0  0  0  0  0  0  0  0  0  0  0  0
   21.8757  -20.9180  -12.9180 C   0  0  1  0  0  0  0  0  0  0  0  0
   21.8905  -21.2775  -14.3494 C   0  0  0  0  0  0  0  0  0  0  0  0
   20.6704  -20.9335  -15.1144 C   0  0  0  0  0  0  0  0  0  0  0  0
   20.5727  -19.6364  -15.6387 C   0  0  0  0  0  0  0  0  0  0  0  0
   19.4696  -19.2208  -16.3684 C   0  0  0  0  0  0  0  0  0  0  0  0
   18.4265  -20.0919  -16.5924 C   0  0  0  0  0  0  0  0  0  0  0  0
   18.5033  -21.3647  -16.0867 C   0  0  0  0  0  0  0  0  0  0  0  0
   19.6087  -21.7711  -15.3622 C   0  0  0  0  0  0  0  0  0  0  0  0
   20.6661  -21.6659  -12.3563 C   0  0  0  0  0  0  0  0  0  0  0  0
   19.4735  -21.0369  -12.1864 O   0  0  0  0  0  0  0  0  0  0  0  0
   20.8510  -22.8545  -12.0805 O   0  0  0  0  0  0  0  0  0  0  0  0
  2  1  1  6
  2  9  1  0
  3  2  1  0
  3  4  1  0
  4  5  2  0
  4  8  1  0
  5  6  1  0
  6  7  1  0
  8  7  2  0
  9 10  2  0
 11 12  1  0
 13 12  1  0
 13 14  1  0
 15 14  1  1
 15 17  1  0
 16  9  1  0
 16 15  1  0
 17 18  2  0
 19 20  1  0
 19 17  1  0
 20 21  1  6
 21 22  1  0
 22 23  2  0
 23 24  1  0
 25 24  2  0
 26 25  1  0
 27 26  2  0
 27 22  1  0
 28 20  1  0
 28 29  1  0
 30 28  2  0
M  END
$$$$
