HMF.pdb
     RDKit          3D

 30 31  0  0  1  0  0  0  0  0999 V2000
   21.1178  -21.0610  -13.4325 N   0  0  0  0  0  0  0  0  0  0  0  0
   22.0450  -20.0323  -12.9888 C   0  0  1  0  0  0  0  0  0  0  0  0
   21.3679  -19.0117  -12.1317 C   0  0  0  0  0  0  0  0  0  0  0  0
   20.3117  -18.2263  -12.8007 C   0  0  0  0  0  0  0  0  0  0  0  0
   18.9746  -18.4276  -12.6019 C   0  0  0  0  0  0  0  0  0  0  0  0
   18.3132  -17.5464  -13.3702 N   0  0  0  0  0  0  0  0  0  0  0  0
   19.2203  -16.8267  -14.0227 C   0  0  0  0  0  0  0  0  0  0  0  0
   20.4425  -17.2333  -13.6795 N   0  0  0  0  0  0  0  0  0  0  0  0
   23.2794  -20.6076  -12.4320 C   0  0  0  0  0  0  0  0  0  0  0  0
   23.1783  -21.3805  -11.4463 O   0  0  0  0  0  0  0  0  0  0  0  0
   29.7816  -19.6312  -14.2589 C   0  0  0  0  0  0  0  0  0  0  0  0
   29.7043  -21.2922  -13.5097 S   0  0  0  0  0  0  0  0  0  0  0  0
   28.2259  -21.4163  -12.4226 C   0  0  0  0  0  0  0  0  0  0  0  0
   27.0372  -20.7794  -13.0834 C   0  0  0  0  0  0  0  0  0  0  0  0
   25.7835  -20.8351  -12.2974 C   0  0  2  0  0  0  0  0  0  0  0  0
   24.5806  -20.3506  -12.9367 N   0  0  0  0  0  0  0  0  0  0  0  0
   25.9649  -20.3025  -10.9570 C   0  0  0  0  0  0  0  0  0  0  0  0
   25.6772  -19.1215  -10.6978 O   0  0  0  0  0  0  0  0  0  0  0  0
   26.4829  -21.0691   -9.8621 N   0  0  0  0  0  0  0  0  0  0  0  0
   27.2013  -20.4462   -8.8060 C   0  0  1  0  0  0  0  0  0  0  0  0
   26.5357  -20.4440   -7.4888 C   0  0  0  0  0  0  0  0  0  0  0  0
   27.3041  -19.8378   -6.3779 C   0  0  0  0  0  0  0  0  0  0  0  0
   27.8943  -20.7023   -5.4445 C   0  0  0  0  0  0  0  0  0  0  0  0
   28.6325  -20.2294   -4.3704 C   0  0  0  0  0  0  0  0  0  0  0  0
   28.7991  -18.8735   -4.1954 C   0  0  0  0  0  0  0  0  0  0  0  0
   28.2286  -18.0119   -5.0975 C   0  0  0  0  0  0  0  0  0  0  0  0
   27.4961  -18.4929   -6.1671 C   0  0  0  0  0  0  0  0  0  0  0  0
   28.5200  -21.1796   -8.5584 C   0  0  0  0  0  0  0  0  0  0  0  0
   28.7154  -22.4412   -9.0244 O   0  0  0  0  0  0  0  0  0  0  0  0
   29.3718  -20.5520   -7.9232 O   0  0  0  0  0  0  0  0  0  0  0  0
  2  1  1  1
  2  9  1  0
  3  2  1  0
  3  4  1  0
  4  5  2  0
  4  8  1  0
  5  6  1  0
  6  7  1  0
  8  7  2  0
  9 10  2  0
 11 12  1  0
 13 12  1  0
 13 14  1  0
 15 14  1  6
 15 17  1  0
 16  9  1  0
 16 15  1  0
 17 18  2  0
 19 20  1  0
 19 17  1  0
 20 21  1  1
 21 22  1  0
 22 23  2  0
 23 24  1  0
 25 24  2  0
 26 25  1  0
 27 26  2  0
 27 22  1  0
 28 20  1  0
 28 29  1  0
 30 28  2  0
M  END
$$$$
