HMF.pdb
     RDKit          3D

 30 31  0  0  1  0  0  0  0  0999 V2000
   28.1673  -21.2614  -16.0554 N   0  0  0  0  0  0  0  0  0  0  0  0
   27.6792  -20.2895  -15.0899 C   0  0  1  0  0  0  0  0  0  0  0  0
   27.0232  -19.1262  -15.7614 C   0  0  0  0  0  0  0  0  0  0  0  0
   27.9209  -18.2734  -16.5656 C   0  0  0  0  0  0  0  0  0  0  0  0
   28.6352  -18.7239  -17.6402 C   0  0  0  0  0  0  0  0  0  0  0  0
   29.3414  -17.6874  -18.1211 N   0  0  0  0  0  0  0  0  0  0  0  0
   29.0684  -16.6320  -17.3609 C   0  0  0  0  0  0  0  0  0  0  0  0
   28.2008  -16.9799  -16.4106 N   0  0  0  0  0  0  0  0  0  0  0  0
   26.8969  -20.9247  -14.0177 C   0  0  0  0  0  0  0  0  0  0  0  0
   26.1961  -21.9254  -14.3117 O   0  0  0  0  0  0  0  0  0  0  0  0
   26.3030  -19.1552   -7.5161 C   0  0  0  0  0  0  0  0  0  0  0  0
   25.6497  -20.8563   -7.5899 S   0  0  0  0  0  0  0  0  0  0  0  0
   25.1963  -21.2742   -9.3227 C   0  0  0  0  0  0  0  0  0  0  0  0
   26.1611  -20.6389  -10.2824 C   0  0  0  0  0  0  0  0  0  0  0  0
   25.8845  -20.9066  -11.7122 C   0  0  2  0  0  0  0  0  0  0  0  0
   26.8830  -20.4840  -12.6689 N   0  0  0  0  0  0  0  0  0  0  0  0
   24.5386  -20.5030  -12.0846 C   0  0  0  0  0  0  0  0  0  0  0  0
   24.2543  -19.3029  -12.2381 O   0  0  0  0  0  0  0  0  0  0  0  0
   23.4615  -21.4265  -12.2893 N   0  0  0  0  0  0  0  0  0  0  0  0
   22.1552  -20.9693  -12.6119 C   0  0  1  0  0  0  0  0  0  0  0  0
   21.7285  -21.1751  -14.0097 C   0  0  0  0  0  0  0  0  0  0  0  0
   22.2532  -20.2026  -14.9950 C   0  0  0  0  0  0  0  0  0  0  0  0
   23.3630  -20.5852  -15.7624 C   0  0  0  0  0  0  0  0  0  0  0  0
   23.9255  -19.7438  -16.7100 C   0  0  0  0  0  0  0  0  0  0  0  0
   23.3953  -18.4893  -16.9156 C   0  0  0  0  0  0  0  0  0  0  0  0
   22.3103  -18.0967  -16.1739 C   0  0  0  0  0  0  0  0  0  0  0  0
   21.7545  -18.9436  -15.2329 C   0  0  0  0  0  0  0  0  0  0  0  0
   21.1118  -21.7234  -11.7867 C   0  0  0  0  0  0  0  0  0  0  0  0
   19.8030  -21.3585  -11.8145 O   0  0  0  0  0  0  0  0  0  0  0  0
   21.5385  -22.6665  -11.1149 O   0  0  0  0  0  0  0  0  0  0  0  0
  2  1  1  6
  2  9  1  0
  3  2  1  0
  3  4  1  0
  4  5  2  0
  4  8  1  0
  5  6  1  0
  6  7  1  0
  8  7  2  0
  9 10  2  0
 11 12  1  0
 13 12  1  0
 13 14  1  0
 15 14  1  1
 15 17  1  0
 16  9  1  0
 16 15  1  0
 17 18  2  0
 19 20  1  0
 19 17  1  0
 20 21  1  6
 21 22  1  0
 22 23  2  0
 23 24  1  0
 25 24  2  0
 26 25  1  0
 27 26  2  0
 27 22  1  0
 28 20  1  0
 28 29  1  0
 30 28  2  0
M  END
$$$$
