HMF.pdb
     RDKit          3D

 30 31  0  0  1  0  0  0  0  0999 V2000
   24.0398  -22.0163  -19.6687 N   0  0  0  0  0  0  0  0  0  0  0  0
   23.3487  -21.8140  -18.4052 C   0  0  1  0  0  0  0  0  0  0  0  0
   22.3589  -22.9017  -18.1374 C   0  0  0  0  0  0  0  0  0  0  0  0
   21.0756  -22.7784  -18.8571 C   0  0  0  0  0  0  0  0  0  0  0  0
   19.9059  -22.3947  -18.2635 C   0  0  0  0  0  0  0  0  0  0  0  0
   18.9511  -22.3989  -19.2083 N   0  0  0  0  0  0  0  0  0  0  0  0
   19.5203  -22.7764  -20.3485 C   0  0  0  0  0  0  0  0  0  0  0  0
   20.8170  -23.0079  -20.1439 N   0  0  0  0  0  0  0  0  0  0  0  0
   24.2841  -21.5252  -17.3069 C   0  0  0  0  0  0  0  0  0  0  0  0
   25.3909  -22.1202  -17.3021 O   0  0  0  0  0  0  0  0  0  0  0  0
   27.5610  -16.3735  -16.4337 C   0  0  0  0  0  0  0  0  0  0  0  0
   27.0465  -16.6227  -14.7019 S   0  0  0  0  0  0  0  0  0  0  0  0
   26.5581  -18.3771  -14.4441 C   0  0  0  0  0  0  0  0  0  0  0  0
   25.5207  -18.7834  -15.4511 C   0  0  0  0  0  0  0  0  0  0  0  0
   25.0353  -20.1760  -15.3179 C   0  0  2  0  0  0  0  0  0  0  0  0
   24.0213  -20.6145  -16.2507 N   0  0  0  0  0  0  0  0  0  0  0  0
   24.7140  -20.5041  -13.9386 C   0  0  0  0  0  0  0  0  0  0  0  0
   23.5984  -20.2315  -13.4636 O   0  0  0  0  0  0  0  0  0  0  0  0
   25.6321  -21.1399  -13.0399 N   0  0  0  0  0  0  0  0  0  0  0  0
   25.4904  -21.0074  -11.6322 C   0  0  1  0  0  0  0  0  0  0  0  0
   26.6977  -20.5741  -10.9020 C   0  0  0  0  0  0  0  0  0  0  0  0
   26.5059  -20.2541   -9.4693 C   0  0  0  0  0  0  0  0  0  0  0  0
   26.1350  -21.2993   -8.6109 C   0  0  0  0  0  0  0  0  0  0  0  0
   25.9322  -21.0980   -7.2542 C   0  0  0  0  0  0  0  0  0  0  0  0
   26.0910  -19.8406   -6.7152 C   0  0  0  0  0  0  0  0  0  0  0  0
   26.4527  -18.8052   -7.5390 C   0  0  0  0  0  0  0  0  0  0  0  0
   26.6552  -19.0159   -8.8905 C   0  0  0  0  0  0  0  0  0  0  0  0
   24.4493  -19.9368  -11.3035 C   0  0  0  0  0  0  0  0  0  0  0  0
   24.4225  -18.7581  -11.9795 O   0  0  0  0  0  0  0  0  0  0  0  0
   23.6538  -20.2204  -10.4036 O   0  0  0  0  0  0  0  0  0  0  0  0
  2  1  1  6
  2  9  1  0
  3  2  1  0
  3  4  1  0
  4  5  2  0
  4  8  1  0
  5  6  1  0
  6  7  1  0
  8  7  2  0
  9 10  2  0
 11 12  1  0
 13 12  1  0
 13 14  1  0
 15 14  1  1
 15 17  1  0
 16  9  1  0
 16 15  1  0
 17 18  2  0
 19 20  1  0
 19 17  1  0
 20 21  1  1
 21 22  1  0
 22 23  2  0
 23 24  1  0
 25 24  2  0
 26 25  1  0
 27 26  2  0
 27 22  1  0
 28 20  1  0
 28 29  1  0
 30 28  2  0
M  END
$$$$
