HMF.pdb
     RDKit          3D

 30 31  0  0  1  0  0  0  0  0999 V2000
   27.8826  -21.3411  -15.7163 N   0  0  0  0  0  0  0  0  0  0  0  0
   27.5270  -20.4124  -14.6551 C   0  0  1  0  0  0  0  0  0  0  0  0
   27.0051  -19.1229  -15.2023 C   0  0  0  0  0  0  0  0  0  0  0  0
   27.9396  -18.3828  -16.0735 C   0  0  0  0  0  0  0  0  0  0  0  0
   29.2071  -18.8061  -16.3605 C   0  0  0  0  0  0  0  0  0  0  0  0
   29.7667  -17.8914  -17.1694 N   0  0  0  0  0  0  0  0  0  0  0  0
   28.8673  -16.9337  -17.3708 C   0  0  0  0  0  0  0  0  0  0  0  0
   27.7487  -17.2266  -16.7076 N   0  0  0  0  0  0  0  0  0  0  0  0
   26.6895  -21.0480  -13.6259 C   0  0  0  0  0  0  0  0  0  0  0  0
   26.0078  -22.0507  -13.9558 O   0  0  0  0  0  0  0  0  0  0  0  0
   25.9696  -19.8352   -6.9944 C   0  0  0  0  0  0  0  0  0  0  0  0
   27.4106  -20.6272   -7.7833 S   0  0  0  0  0  0  0  0  0  0  0  0
   26.8894  -21.4593   -9.3386 C   0  0  0  0  0  0  0  0  0  0  0  0
   25.7189  -20.7418   -9.9474 C   0  0  0  0  0  0  0  0  0  0  0  0
   25.5236  -20.9852  -11.3949 C   0  0  2  0  0  0  0  0  0  0  0  0
   26.6018  -20.6057  -12.2803 N   0  0  0  0  0  0  0  0  0  0  0  0
   24.2262  -20.5127  -11.8496 C   0  0  0  0  0  0  0  0  0  0  0  0
   24.0056  -19.2977  -11.9901 O   0  0  0  0  0  0  0  0  0  0  0  0
   23.1275  -21.3816  -12.1541 N   0  0  0  0  0  0  0  0  0  0  0  0
   21.9069  -20.8673  -12.6689 C   0  0  1  0  0  0  0  0  0  0  0  0
   21.6129  -21.1969  -14.0771 C   0  0  0  0  0  0  0  0  0  0  0  0
   21.9521  -20.1519  -15.0695 C   0  0  0  0  0  0  0  0  0  0  0  0
   21.0411  -19.1007  -15.2477 C   0  0  0  0  0  0  0  0  0  0  0  0
   21.2704  -18.0761  -16.1532 C   0  0  0  0  0  0  0  0  0  0  0  0
   22.4195  -18.0752  -16.9125 C   0  0  0  0  0  0  0  0  0  0  0  0
   23.3223  -19.0955  -16.7531 C   0  0  0  0  0  0  0  0  0  0  0  0
   23.0862  -20.1118  -15.8458 C   0  0  0  0  0  0  0  0  0  0  0  0
   20.7213  -21.4431  -11.8938 C   0  0  0  0  0  0  0  0  0  0  0  0
   19.4720  -20.9305  -12.0468 O   0  0  0  0  0  0  0  0  0  0  0  0
   20.9794  -22.3870  -11.1419 O   0  0  0  0  0  0  0  0  0  0  0  0
  2  1  1  6
  2  9  1  0
  3  2  1  0
  3  4  1  0
  4  5  2  0
  4  8  1  0
  5  6  1  0
  6  7  1  0
  8  7  2  0
  9 10  2  0
 11 12  1  0
 13 12  1  0
 13 14  1  0
 15 14  1  1
 15 17  1  0
 16  9  1  0
 16 15  1  0
 17 18  2  0
 19 20  1  0
 19 17  1  0
 20 21  1  6
 21 22  1  0
 22 23  2  0
 23 24  1  0
 25 24  2  0
 26 25  1  0
 27 26  2  0
 27 22  1  0
 28 20  1  0
 28 29  1  0
 30 28  2  0
M  END
$$$$
