HMF.pdb
     RDKit          3D

 30 31  0  0  1  0  0  0  0  0999 V2000
   26.7803   -9.0691  -21.4834 N   0  0  0  0  0  0  0  0  0  0  0  0
   27.0369   -8.3999  -20.2180 C   0  0  1  0  0  0  0  0  0  0  0  0
   26.5747   -6.9785  -20.2419 C   0  0  0  0  0  0  0  0  0  0  0  0
   27.2730   -6.1039  -21.2049 C   0  0  0  0  0  0  0  0  0  0  0  0
   26.6556   -5.1161  -21.9197 C   0  0  0  0  0  0  0  0  0  0  0  0
   27.5861   -4.5335  -22.6937 N   0  0  0  0  0  0  0  0  0  0  0  0
   28.7408   -5.1488  -22.4605 C   0  0  0  0  0  0  0  0  0  0  0  0
   28.5595   -6.1069  -21.5517 N   0  0  0  0  0  0  0  0  0  0  0  0
   26.5741   -9.1965  -19.0708 C   0  0  0  0  0  0  0  0  0  0  0  0
   25.5168   -9.8626  -19.2027 O   0  0  0  0  0  0  0  0  0  0  0  0
   26.3276  -14.3568  -14.5020 C   0  0  0  0  0  0  0  0  0  0  0  0
   26.8559  -13.0494  -15.6586 S   0  0  0  0  0  0  0  0  0  0  0  0
   27.2076  -11.5015  -14.7295 C   0  0  0  0  0  0  0  0  0  0  0  0
   27.7038  -10.4342  -15.6622 C   0  0  0  0  0  0  0  0  0  0  0  0
   26.7293  -10.0037  -16.6908 C   0  0  2  0  0  0  0  0  0  0  0  0
   27.2453   -9.2663  -17.8224 N   0  0  0  0  0  0  0  0  0  0  0  0
   25.5593   -9.3794  -16.0954 C   0  0  0  0  0  0  0  0  0  0  0  0
   25.4918   -8.1448  -15.9703 O   0  0  0  0  0  0  0  0  0  0  0  0
   24.4280  -10.1144  -15.6109 N   0  0  0  0  0  0  0  0  0  0  0  0
   23.1875   -9.4687  -15.3589 C   0  0  1  0  0  0  0  0  0  0  0  0
   22.7824   -8.4467  -16.3436 C   0  0  0  0  0  0  0  0  0  0  0  0
   23.2457   -7.0673  -16.0705 C   0  0  0  0  0  0  0  0  0  0  0  0
   22.6144   -6.3592  -15.0375 C   0  0  0  0  0  0  0  0  0  0  0  0
   22.9781   -5.0627  -14.7074 C   0  0  0  0  0  0  0  0  0  0  0  0
   23.9844   -4.4328  -15.4057 C   0  0  0  0  0  0  0  0  0  0  0  0
   24.6131   -5.1088  -16.4202 C   0  0  0  0  0  0  0  0  0  0  0  0
   24.2453   -6.4025  -16.7407 C   0  0  0  0  0  0  0  0  0  0  0  0
   22.0464  -10.4863  -15.3840 C   0  0  0  0  0  0  0  0  0  0  0  0
   22.2540  -11.7574  -15.8179 O   0  0  0  0  0  0  0  0  0  0  0  0
   20.9527  -10.0759  -14.9864 O   0  0  0  0  0  0  0  0  0  0  0  0
  2  1  1  6
  2  9  1  0
  3  2  1  0
  3  4  1  0
  4  5  2  0
  4  8  1  0
  5  6  1  0
  6  7  1  0
  8  7  2  0
  9 10  2  0
 11 12  1  0
 13 12  1  0
 13 14  1  0
 15 14  1  1
 15 17  1  0
 16  9  1  0
 16 15  1  0
 17 18  2  0
 19 20  1  0
 19 17  1  0
 20 21  1  6
 21 22  1  0
 22 23  2  0
 23 24  1  0
 25 24  2  0
 26 25  1  0
 27 26  2  0
 27 22  1  0
 28 20  1  0
 28 29  1  0
 30 28  2  0
M  END
$$$$
