HMF.pdb
     RDKit          3D

 30 31  0  0  1  0  0  0  0  0999 V2000
   25.4274  -21.6612  -17.9819 N   0  0  0  0  0  0  0  0  0  0  0  0
   25.0420  -20.5581  -17.1161 C   0  0  1  0  0  0  0  0  0  0  0  0
   24.3098  -19.4949  -17.8698 C   0  0  0  0  0  0  0  0  0  0  0  0
   25.1192  -18.7466  -18.8522 C   0  0  0  0  0  0  0  0  0  0  0  0
   25.6212  -17.4956  -18.6270 C   0  0  0  0  0  0  0  0  0  0  0  0
   26.2946  -17.1244  -19.7284 N   0  0  0  0  0  0  0  0  0  0  0  0
   26.2058  -18.1201  -20.6043 C   0  0  0  0  0  0  0  0  0  0  0  0
   25.4922  -19.1149  -20.0772 N   0  0  0  0  0  0  0  0  0  0  0  0
   24.3853  -21.0279  -15.8861 C   0  0  0  0  0  0  0  0  0  0  0  0
   23.4483  -21.8578  -15.9972 O   0  0  0  0  0  0  0  0  0  0  0  0
   26.5919  -20.8481   -9.8525 C   0  0  0  0  0  0  0  0  0  0  0  0
   24.8700  -21.2523   -9.4074 S   0  0  0  0  0  0  0  0  0  0  0  0
   23.8025  -21.1584  -10.9023 C   0  0  0  0  0  0  0  0  0  0  0  0
   24.6012  -20.6923  -12.0856 C   0  0  0  0  0  0  0  0  0  0  0  0
   23.9789  -20.9614  -13.4020 C   0  0  2  0  0  0  0  0  0  0  0  0
   24.7420  -20.6083  -14.5783 N   0  0  0  0  0  0  0  0  0  0  0  0
   22.6061  -20.4862  -13.4554 C   0  0  0  0  0  0  0  0  0  0  0  0
   22.3546  -19.2691  -13.4658 O   0  0  0  0  0  0  0  0  0  0  0  0
   21.4666  -21.3551  -13.4896 N   0  0  0  0  0  0  0  0  0  0  0  0
   20.1523  -20.8351  -13.6362 C   0  0  1  0  0  0  0  0  0  0  0  0
   19.1696  -21.7383  -14.2663 C   0  0  0  0  0  0  0  0  0  0  0  0
   18.9327  -23.0225  -13.5688 C   0  0  0  0  0  0  0  0  0  0  0  0
   17.8523  -23.0915  -12.6772 C   0  0  0  0  0  0  0  0  0  0  0  0
   17.5506  -24.2499  -11.9777 C   0  0  0  0  0  0  0  0  0  0  0  0
   18.3258  -25.3757  -12.1467 C   0  0  0  0  0  0  0  0  0  0  0  0
   19.3876  -25.3275  -13.0138 C   0  0  0  0  0  0  0  0  0  0  0  0
   19.6792  -24.1685  -13.7090 C   0  0  0  0  0  0  0  0  0  0  0  0
   19.5502  -20.5239  -12.2655 C   0  0  0  0  0  0  0  0  0  0  0  0
   18.3821  -19.8381  -12.1555 O   0  0  0  0  0  0  0  0  0  0  0  0
   20.1883  -20.9365  -11.2931 O   0  0  0  0  0  0  0  0  0  0  0  0
  2  1  1  6
  2  9  1  0
  3  2  1  0
  3  4  1  0
  4  5  2  0
  4  8  1  0
  5  6  1  0
  6  7  1  0
  8  7  2  0
  9 10  2  0
 11 12  1  0
 13 12  1  0
 13 14  1  0
 15 14  1  1
 15 17  1  0
 16  9  1  0
 16 15  1  0
 17 18  2  0
 19 20  1  0
 19 17  1  0
 20 21  1  1
 21 22  1  0
 22 23  2  0
 23 24  1  0
 25 24  2  0
 26 25  1  0
 27 26  2  0
 27 22  1  0
 28 20  1  0
 28 29  1  0
 30 28  2  0
M  END
$$$$
