HMF.pdb
     RDKit          3D

 30 31  0  0  1  0  0  0  0  0999 V2000
   28.1849  -19.8269  -18.0625 N   0  0  0  0  0  0  0  0  0  0  0  0
   27.4755  -18.9415  -17.1528 C   0  0  1  0  0  0  0  0  0  0  0  0
   26.7338  -17.8728  -17.8892 C   0  0  0  0  0  0  0  0  0  0  0  0
   27.5704  -16.9763  -18.7117 C   0  0  0  0  0  0  0  0  0  0  0  0
   27.1943  -16.4972  -19.9352 C   0  0  0  0  0  0  0  0  0  0  0  0
   28.1936  -15.7252  -20.3931 N   0  0  0  0  0  0  0  0  0  0  0  0
   29.1556  -15.7328  -19.4760 C   0  0  0  0  0  0  0  0  0  0  0  0
   28.7828  -16.4919  -18.4457 N   0  0  0  0  0  0  0  0  0  0  0  0
   26.6877  -19.6892  -16.1603 C   0  0  0  0  0  0  0  0  0  0  0  0
   25.8788  -20.5548  -16.5793 O   0  0  0  0  0  0  0  0  0  0  0  0
   24.6166  -21.3477   -8.6003 C   0  0  0  0  0  0  0  0  0  0  0  0
   25.7600  -20.4537   -9.7047 S   0  0  0  0  0  0  0  0  0  0  0  0
   25.2020  -20.6252  -11.4488 C   0  0  0  0  0  0  0  0  0  0  0  0
   26.1821  -19.9675  -12.3774 C   0  0  0  0  0  0  0  0  0  0  0  0
   25.8645  -20.1049  -13.8172 C   0  0  2  0  0  0  0  0  0  0  0  0
   26.7823  -19.5007  -14.7570 N   0  0  0  0  0  0  0  0  0  0  0  0
   24.4753  -19.7791  -14.0951 C   0  0  0  0  0  0  0  0  0  0  0  0
   24.1451  -18.6251  -14.4171 O   0  0  0  0  0  0  0  0  0  0  0  0
   23.4059  -20.7301  -14.0136 N   0  0  0  0  0  0  0  0  0  0  0  0
   22.0681  -20.3564  -14.3136 C   0  0  1  0  0  0  0  0  0  0  0  0
   21.6298  -20.5940  -15.7027 C   0  0  0  0  0  0  0  0  0  0  0  0
   20.2531  -20.1581  -16.0292 C   0  0  0  0  0  0  0  0  0  0  0  0
   20.0784  -18.8516  -16.5082 C   0  0  0  0  0  0  0  0  0  0  0  0
   18.8283  -18.3527  -16.8406 C   0  0  0  0  0  0  0  0  0  0  0  0
   17.7120  -19.1470  -16.6993 C   0  0  0  0  0  0  0  0  0  0  0  0
   17.8626  -20.4276  -16.2313 C   0  0  0  0  0  0  0  0  0  0  0  0
   19.1137  -20.9174  -15.9046 C   0  0  0  0  0  0  0  0  0  0  0  0
   21.0887  -21.1705  -13.4672 C   0  0  0  0  0  0  0  0  0  0  0  0
   19.8992  -20.6431  -13.0749 O   0  0  0  0  0  0  0  0  0  0  0  0
   21.4509  -22.3146  -13.1794 O   0  0  0  0  0  0  0  0  0  0  0  0
  2  1  1  6
  2  9  1  0
  3  2  1  0
  3  4  1  0
  4  5  2  0
  4  8  1  0
  5  6  1  0
  6  7  1  0
  8  7  2  0
  9 10  2  0
 11 12  1  0
 13 12  1  0
 13 14  1  0
 15 14  1  1
 15 17  1  0
 16  9  1  0
 16 15  1  0
 17 18  2  0
 19 20  1  0
 19 17  1  0
 20 21  1  6
 21 22  1  0
 22 23  2  0
 23 24  1  0
 25 24  2  0
 26 25  1  0
 27 26  2  0
 27 22  1  0
 28 20  1  0
 28 29  1  0
 30 28  2  0
M  END
$$$$
