HMF.pdb
     RDKit          3D

 30 31  0  0  1  0  0  0  0  0999 V2000
   27.2100  -19.4084  -20.3950 N   0  0  0  0  0  0  0  0  0  0  0  0
   27.3844  -19.5498  -18.9581 C   0  0  1  0  0  0  0  0  0  0  0  0
   27.4560  -18.2208  -18.2775 C   0  0  0  0  0  0  0  0  0  0  0  0
   27.4951  -18.2686  -16.8023 C   0  0  0  0  0  0  0  0  0  0  0  0
   28.6427  -18.4302  -16.0779 C   0  0  0  0  0  0  0  0  0  0  0  0
   28.3047  -18.4334  -14.7779 N   0  0  0  0  0  0  0  0  0  0  0  0
   26.9864  -18.2796  -14.7084 C   0  0  0  0  0  0  0  0  0  0  0  0
   26.4845  -18.1760  -15.9390 N   0  0  0  0  0  0  0  0  0  0  0  0
   26.4276  -20.5062  -18.3795 C   0  0  0  0  0  0  0  0  0  0  0  0
   25.2277  -20.4358  -18.7460 O   0  0  0  0  0  0  0  0  0  0  0  0
   27.4812  -26.4453  -16.0703 C   0  0  0  0  0  0  0  0  0  0  0  0
   25.8292  -26.2174  -15.3321 S   0  0  0  0  0  0  0  0  0  0  0  0
   25.1412  -24.5881  -15.8372 C   0  0  0  0  0  0  0  0  0  0  0  0
   26.2293  -23.7089  -16.3836 C   0  0  0  0  0  0  0  0  0  0  0  0
   25.7892  -22.3563  -16.7953 C   0  0  2  0  0  0  0  0  0  0  0  0
   26.7702  -21.5083  -17.4349 N   0  0  0  0  0  0  0  0  0  0  0  0
   25.0646  -21.6796  -15.7321 C   0  0  0  0  0  0  0  0  0  0  0  0
   25.6735  -21.0886  -14.8240 O   0  0  0  0  0  0  0  0  0  0  0  0
   23.6343  -21.6480  -15.6423 N   0  0  0  0  0  0  0  0  0  0  0  0
   22.9801  -20.9052  -14.6227 C   0  0  1  0  0  0  0  0  0  0  0  0
   23.0067  -19.4378  -14.7780 C   0  0  0  0  0  0  0  0  0  0  0  0
   22.5648  -18.9192  -16.0924 C   0  0  0  0  0  0  0  0  0  0  0  0
   23.5396  -18.3727  -16.9397 C   0  0  0  0  0  0  0  0  0  0  0  0
   23.2232  -17.8621  -18.1893 C   0  0  0  0  0  0  0  0  0  0  0  0
   21.9176  -17.8794  -18.6278 C   0  0  0  0  0  0  0  0  0  0  0  0
   20.9498  -18.4091  -17.8127 C   0  0  0  0  0  0  0  0  0  0  0  0
   21.2752  -18.9183  -16.5691 C   0  0  0  0  0  0  0  0  0  0  0  0
   21.4911  -21.2514  -14.5884 C   0  0  0  0  0  0  0  0  0  0  0  0
   20.9557  -22.1211  -15.4850 O   0  0  0  0  0  0  0  0  0  0  0  0
   20.8318  -20.6978  -13.7042 O   0  0  0  0  0  0  0  0  0  0  0  0
  2  1  1  6
  2  9  1  0
  3  2  1  0
  3  4  1  0
  4  5  2  0
  4  8  1  0
  5  6  1  0
  6  7  1  0
  8  7  2  0
  9 10  2  0
 11 12  1  0
 13 12  1  0
 13 14  1  0
 15 14  1  1
 15 17  1  0
 16  9  1  0
 16 15  1  0
 17 18  2  0
 19 20  1  0
 19 17  1  0
 20 21  1  6
 21 22  1  0
 22 23  2  0
 23 24  1  0
 25 24  2  0
 26 25  1  0
 27 26  2  0
 27 22  1  0
 28 20  1  0
 28 29  1  0
 30 28  2  0
M  END
$$$$
