RNT.pdb
     RDKit          3D

 27 26  0  0  1  0  0  0  0  0999 V2000
    9.0833  -14.3077   18.7661 N   0  0  0  0  0  0  0  0  0  0  0  0
    8.9114  -13.4944   17.6129 C   0  0  0  0  0  0  0  0  0  0  0  0
    9.0384  -12.2074   17.6429 N   0  0  0  0  0  0  0  0  0  0  0  0
    8.5827  -14.1021   16.3592 N   0  0  0  0  0  0  0  0  0  0  0  0
    8.2721  -15.5196   16.3381 C   0  0  0  0  0  0  0  0  0  0  0  0
    9.5418  -16.2881   16.1716 C   0  0  0  0  0  0  0  0  0  0  0  0
    9.4005  -17.6937   16.6005 C   0  0  0  0  0  0  0  0  0  0  0  0
    9.5256  -17.9964   18.0462 C   0  0  2  0  0  0  0  0  0  0  0  0
    8.5497  -17.4379   18.9170 N   0  0  0  0  0  0  0  0  0  0  0  0
   10.8775  -17.6139   18.5910 C   0  0  0  0  0  0  0  0  0  0  0  0
   11.9328  -18.1932   18.2276 O   0  0  0  0  0  0  0  0  0  0  0  0
    8.8592  -11.6987   16.7498 N   0  0  0  0  0  0  0  0  0  0  0  0
   14.7367  -15.7666   18.3154 C   0  0  0  0  0  0  0  0  0  0  0  0
   13.9834  -14.7090   18.9476 O   0  0  0  0  0  0  0  0  0  0  0  0
   14.6502  -13.6690   19.1489 C   0  0  0  0  0  0  0  0  0  0  0  0
   12.5814  -14.9048   19.2915 C   0  0  2  0  0  0  0  0  0  0  0  0
   12.3112  -16.1528   20.0962 N   0  0  0  0  0  0  0  0  0  0  0  0
   10.9783  -16.5828   19.5326 C   0  0  0  0  0  0  0  0  0  0  0  0
   11.9900  -15.8736   21.5120 O   0  0  0  0  0  0  0  0  0  0  0  0
   12.9475  -15.4658   22.2609 C   0  0  0  0  0  0  0  0  0  0  0  0
    9.0129  -13.9087   23.1650 C   0  0  2  0  0  0  0  0  0  0  0  0
    9.1549  -15.2836   23.8193 O   0  0  0  0  0  0  0  0  0  0  0  0
    8.2179  -16.1027   23.2069 C   0  0  2  0  0  0  0  0  0  0  0  0
   10.5599  -15.7692   23.5146 N   0  0  0  0  0  0  0  0  0  0  0  0
   10.7142  -16.0195   22.0824 C   0  0  0  0  0  0  0  0  0  0  0  0
   10.8287  -17.0535   24.2136 O   0  0  0  0  0  0  0  0  0  0  0  0
   11.0326  -18.1003   23.5785 O   0  0  0  0  0  0  0  0  0  0  0  0
  2  1  1  0
  3  2  2  0
  4  2  1  0
  5  4  1  0
  6  5  1  0
  7  8  1  0
  7  6  1  0
  8  9  1  1
 10  8  1  0
 10 17  1  0
 11 10  2  0
 13 12  1  0
 14 13  2  0
 16 15  1  6
 15 13  1  0
 16 17  1  0
 18 16  1  0
 19 18  2  0
 21 20  1  1
 21 22  1  0
 23 21  1  0
 23 24  1  1
 24 18  1  0
 25 23  1  0
 26 25  2  0
 27 25  1  0
M  END
$$$$
