RNT.pdb
     RDKit          3D

 27 26  0  0  1  0  0  0  0  0999 V2000
    8.2555  -11.8439   19.6532 N   0  0  0  0  0  0  0  0  0  0  0  0
    8.5548  -12.9237   18.7783 C   0  0  0  0  0  0  0  0  0  0  0  0
    8.5198  -12.8071   17.4904 N   0  0  0  0  0  0  0  0  0  0  0  0
    8.9098  -14.1994   19.3220 N   0  0  0  0  0  0  0  0  0  0  0  0
    7.8452  -15.1018   19.7203 C   0  0  0  0  0  0  0  0  0  0  0  0
    6.9989  -14.4242   20.7474 C   0  0  0  0  0  0  0  0  0  0  0  0
    7.1470  -15.0382   22.0818 C   0  0  0  0  0  0  0  0  0  0  0  0
    7.2691  -16.5134   22.1599 C   0  0  2  0  0  0  0  0  0  0  0  0
    6.1644  -17.2849   21.7047 N   0  0  0  0  0  0  0  0  0  0  0  0
    7.5935  -16.9828   23.5545 C   0  0  0  0  0  0  0  0  0  0  0  0
    6.6997  -17.3336   24.3665 O   0  0  0  0  0  0  0  0  0  0  0  0
    8.7607  -13.6581   16.9369 N   0  0  0  0  0  0  0  0  0  0  0  0
   12.3305  -19.7943   25.9679 C   0  0  0  0  0  0  0  0  0  0  0  0
   11.0316  -19.1813   26.1194 O   0  0  0  0  0  0  0  0  0  0  0  0
   10.5883  -19.2274   27.2891 C   0  0  0  0  0  0  0  0  0  0  0  0
   10.3585  -18.5844   24.9737 C   0  0  2  0  0  0  0  0  0  0  0  0
    9.3088  -17.5625   25.3372 N   0  0  0  0  0  0  0  0  0  0  0  0
    8.9279  -17.0354   23.9748 C   0  0  0  0  0  0  0  0  0  0  0  0
    9.8675  -16.3669   26.0033 O   0  0  0  0  0  0  0  0  0  0  0  0
   10.0340  -15.3189   25.2835 C   0  0  0  0  0  0  0  0  0  0  0  0
    9.2922  -13.7691   26.3078 C   0  0  2  0  0  0  0  0  0  0  0  0
    9.5370  -13.9947   27.8004 O   0  0  0  0  0  0  0  0  0  0  0  0
    8.3555  -14.5096   28.3134 C   0  0  2  0  0  0  0  0  0  0  0  0
   10.6509  -15.0193   27.9104 N   0  0  0  0  0  0  0  0  0  0  0  0
   10.2188  -16.3041   27.3623 C   0  0  0  0  0  0  0  0  0  0  0  0
   11.0059  -15.2499   29.3355 O   0  0  0  0  0  0  0  0  0  0  0  0
   10.7550  -16.3297   29.8936 O   0  0  0  0  0  0  0  0  0  0  0  0
  2  1  1  0
  3  2  2  0
  4  2  1  0
  5  4  1  0
  6  5  1  0
  7  8  1  0
  7  6  1  0
  8  9  1  1
 10  8  1  0
 10 17  1  0
 11 10  2  0
 13 12  1  0
 14 13  2  0
 16 15  1  6
 15 13  1  0
 16 17  1  0
 18 16  1  0
 19 18  2  0
 21 20  1  1
 21 22  1  0
 23 21  1  0
 23 24  1  1
 24 18  1  0
 25 23  1  0
 26 25  2  0
 27 25  1  0
M  END
$$$$
