RNT.pdb
     RDKit          3D

 27 26  0  0  1  0  0  0  0  0999 V2000
    8.3944  -12.8070   16.6533 N   0  0  0  0  0  0  0  0  0  0  0  0
    7.8146  -13.9941   16.1283 C   0  0  0  0  0  0  0  0  0  0  0  0
    7.8103  -14.2671   14.8639 N   0  0  0  0  0  0  0  0  0  0  0  0
    7.2046  -14.9375   17.0154 N   0  0  0  0  0  0  0  0  0  0  0  0
    7.3362  -14.7274   18.4454 C   0  0  0  0  0  0  0  0  0  0  0  0
    8.0010  -15.9213   19.0480 C   0  0  0  0  0  0  0  0  0  0  0  0
    8.3073  -15.7233   20.4786 C   0  0  0  0  0  0  0  0  0  0  0  0
    8.8494  -14.4093   20.8992 C   0  0  2  0  0  0  0  0  0  0  0  0
   10.0303  -13.9527   20.2514 N   0  0  0  0  0  0  0  0  0  0  0  0
    9.1060  -14.3502   22.3829 C   0  0  0  0  0  0  0  0  0  0  0  0
   10.2441  -14.5633   22.8733 O   0  0  0  0  0  0  0  0  0  0  0  0
    7.4173  -15.1930   14.5865 N   0  0  0  0  0  0  0  0  0  0  0  0
    5.8083  -12.1887   27.1306 C   0  0  0  0  0  0  0  0  0  0  0  0
    6.9469  -12.8903   26.5853 O   0  0  0  0  0  0  0  0  0  0  0  0
    7.7997  -13.2074   27.4448 C   0  0  0  0  0  0  0  0  0  0  0  0
    7.0285  -13.1683   25.1577 C   0  0  1  0  0  0  0  0  0  0  0  0
    8.2741  -13.9135   24.7437 N   0  0  0  0  0  0  0  0  0  0  0  0
    8.0540  -14.0498   23.2563 C   0  0  0  0  0  0  0  0  0  0  0  0
    8.2890  -15.3196   25.1998 O   0  0  0  0  0  0  0  0  0  0  0  0
    7.2288  -16.0123   24.9990 C   0  0  0  0  0  0  0  0  0  0  0  0
    9.6662  -18.1904   24.0092 C   0  0  2  0  0  0  0  0  0  0  0  0
   10.1599  -18.2314   25.4560 O   0  0  0  0  0  0  0  0  0  0  0  0
   11.4468  -17.7139   25.4411 C   0  0  2  0  0  0  0  0  0  0  0  0
    9.2382  -17.3311   26.2577 N   0  0  0  0  0  0  0  0  0  0  0  0
    9.3816  -15.9411   25.8278 C   0  0  0  0  0  0  0  0  0  0  0  0
    9.5905  -17.3802   27.7012 O   0  0  0  0  0  0  0  0  0  0  0  0
   10.0639  -16.3902   28.2810 O   0  0  0  0  0  0  0  0  0  0  0  0
  2  1  1  0
  3  2  2  0
  4  2  1  0
  5  4  1  0
  6  5  1  0
  7  8  1  0
  7  6  1  0
  8  9  1  6
 10  8  1  0
 10 17  1  0
 11 10  2  0
 13 12  1  0
 14 13  2  0
 16 15  1  6
 15 13  1  0
 16 17  1  0
 18 16  1  0
 19 18  2  0
 21 20  1  6
 21 22  1  0
 23 21  1  0
 23 24  1  1
 24 18  1  0
 25 23  1  0
 26 25  2  0
 27 25  1  0
M  END
$$$$
