RNT.pdb
     RDKit          3D

 27 26  0  0  1  0  0  0  0  0999 V2000
    6.8293  -11.9273   18.8136 N   0  0  0  0  0  0  0  0  0  0  0  0
    7.2927  -13.1012   18.1591 C   0  0  0  0  0  0  0  0  0  0  0  0
    7.1669  -13.2840   16.8847 N   0  0  0  0  0  0  0  0  0  0  0  0
    7.9248  -14.1351   18.9210 N   0  0  0  0  0  0  0  0  0  0  0  0
    8.1979  -13.8908   20.3253 C   0  0  0  0  0  0  0  0  0  0  0  0
    8.8244  -15.1123   20.9134 C   0  0  0  0  0  0  0  0  0  0  0  0
    9.1149  -14.9498   22.3517 C   0  0  0  0  0  0  0  0  0  0  0  0
    9.7242  -16.0928   23.0725 C   0  0  2  0  0  0  0  0  0  0  0  0
    9.9246  -17.2949   22.3395 N   0  0  0  0  0  0  0  0  0  0  0  0
    8.9544  -16.4545   24.3163 C   0  0  0  0  0  0  0  0  0  0  0  0
    8.6404  -15.5972   25.1810 O   0  0  0  0  0  0  0  0  0  0  0  0
    7.6361  -14.1255   16.4843 N   0  0  0  0  0  0  0  0  0  0  0  0
    5.9444  -16.7549   24.2097 C   0  0  0  0  0  0  0  0  0  0  0  0
    5.7524  -18.1809   24.3344 O   0  0  0  0  0  0  0  0  0  0  0  0
    4.7645  -18.6118   23.6979 C   0  0  0  0  0  0  0  0  0  0  0  0
    6.6627  -18.9807   25.1430 C   0  0  2  0  0  0  0  0  0  0  0  0
    7.7944  -18.1948   25.7593 N   0  0  0  0  0  0  0  0  0  0  0  0
    8.5693  -17.7833   24.5307 C   0  0  0  0  0  0  0  0  0  0  0  0
    8.7634  -19.0429   26.4853 O   0  0  0  0  0  0  0  0  0  0  0  0
    8.3969  -19.5108   27.6215 C   0  0  0  0  0  0  0  0  0  0  0  0
   12.7578  -19.5835   25.4289 C   0  0  2  0  0  0  0  0  0  0  0  0
   12.0235  -20.8110   25.9698 O   0  0  0  0  0  0  0  0  0  0  0  0
   12.9310  -21.4810   26.7769 C   0  0  1  0  0  0  0  0  0  0  0  0
   10.8613  -20.2949   26.7979 N   0  0  0  0  0  0  0  0  0  0  0  0
   10.0452  -19.3707   26.0121 C   0  0  0  0  0  0  0  0  0  0  0  0
   11.3591  -19.5418   27.9791 O   0  0  0  0  0  0  0  0  0  0  0  0
   11.1540  -18.3234   28.0974 O   0  0  0  0  0  0  0  0  0  0  0  0
  2  1  1  0
  3  2  2  0
  4  2  1  0
  5  4  1  0
  6  5  1  0
  7  8  1  0
  7  6  1  0
  8  9  1  6
 10  8  1  0
 10 17  1  0
 11 10  2  0
 13 12  1  0
 14 13  2  0
 16 15  1  6
 15 13  1  0
 16 17  1  0
 18 16  1  0
 19 18  2  0
 21 20  1  6
 21 22  1  0
 23 21  1  0
 23 24  1  6
 24 18  1  0
 25 23  1  0
 26 25  2  0
 27 25  1  0
M  END
$$$$
