RNT.pdb
     RDKit          3D

 27 26  0  0  1  0  0  0  0  0999 V2000
    8.5413  -15.8505   16.6586 N   0  0  0  0  0  0  0  0  0  0  0  0
    8.1986  -14.4722   16.7200 C   0  0  0  0  0  0  0  0  0  0  0  0
    7.3392  -13.9317   15.9184 N   0  0  0  0  0  0  0  0  0  0  0  0
    8.8179  -13.6305   17.6983 N   0  0  0  0  0  0  0  0  0  0  0  0
    8.8447  -14.0783   19.0786 C   0  0  0  0  0  0  0  0  0  0  0  0
    7.5058  -13.8291   19.6915 C   0  0  0  0  0  0  0  0  0  0  0  0
    7.4106  -14.3771   21.0591 C   0  0  0  0  0  0  0  0  0  0  0  0
    8.5389  -14.1303   21.9882 C   0  0  2  0  0  0  0  0  0  0  0  0
    9.8216  -13.9122   21.4141 N   0  0  0  0  0  0  0  0  0  0  0  0
    8.6889  -15.2331   23.0040 C   0  0  0  0  0  0  0  0  0  0  0  0
    7.7044  -15.7069   23.6265 O   0  0  0  0  0  0  0  0  0  0  0  0
    7.1545  -12.9131   16.0484 N   0  0  0  0  0  0  0  0  0  0  0  0
   12.8311  -19.6299   23.7728 C   0  0  0  0  0  0  0  0  0  0  0  0
   11.6536  -18.9086   24.1960 O   0  0  0  0  0  0  0  0  0  0  0  0
   11.0544  -19.4446   25.1552 C   0  0  0  0  0  0  0  0  0  0  0  0
   11.2594  -17.6785   23.5226 C   0  0  2  0  0  0  0  0  0  0  0  0
   10.1496  -16.9242   24.2136 N   0  0  0  0  0  0  0  0  0  0  0  0
    9.9584  -15.7576   23.2746 C   0  0  0  0  0  0  0  0  0  0  0  0
   10.5844  -16.2665   25.4641 O   0  0  0  0  0  0  0  0  0  0  0  0
   11.8417  -16.0641   25.6134 C   0  0  0  0  0  0  0  0  0  0  0  0
    9.5828  -13.0192   27.3942 C   0  0  2  0  0  0  0  0  0  0  0  0
    9.4243  -14.2369   28.3057 O   0  0  0  0  0  0  0  0  0  0  0  0
    8.0870  -14.5994   28.2389 C   0  0  2  0  0  0  0  0  0  0  0  0
   10.2981  -15.3334   27.7255 N   0  0  0  0  0  0  0  0  0  0  0  0
    9.7164  -15.8479   26.4866 C   0  0  0  0  0  0  0  0  0  0  0  0
   10.3931  -16.4769   28.6709 O   0  0  0  0  0  0  0  0  0  0  0  0
    9.9417  -17.5945   28.3750 O   0  0  0  0  0  0  0  0  0  0  0  0
  2  1  1  0
  3  2  2  0
  4  2  1  0
  5  4  1  0
  6  5  1  0
  7  8  1  0
  7  6  1  0
  8  9  1  6
 10  8  1  0
 10 17  1  0
 11 10  2  0
 13 12  1  0
 14 13  2  0
 16 15  1  6
 15 13  1  0
 16 17  1  0
 18 16  1  0
 19 18  2  0
 21 20  1  1
 21 22  1  0
 23 21  1  0
 23 24  1  1
 24 18  1  0
 25 23  1  0
 26 25  2  0
 27 25  1  0
M  END
$$$$
