RNT.pdb
     RDKit          3D

 27 26  0  0  1  0  0  0  0  0999 V2000
    8.9052  -11.9143   19.6546 N   0  0  0  0  0  0  0  0  0  0  0  0
    8.3679  -12.5755   18.5166 C   0  0  0  0  0  0  0  0  0  0  0  0
    8.7886  -12.3469   17.3149 N   0  0  0  0  0  0  0  0  0  0  0  0
    7.3183  -13.5345   18.6836 N   0  0  0  0  0  0  0  0  0  0  0  0
    7.3454  -14.7377   17.8725 C   0  0  0  0  0  0  0  0  0  0  0  0
    8.7508  -15.2378   17.8002 C   0  0  0  0  0  0  0  0  0  0  0  0
    9.0319  -16.2553   18.8323 C   0  0  0  0  0  0  0  0  0  0  0  0
   10.0915  -15.9638   19.8271 C   0  0  2  0  0  0  0  0  0  0  0  0
   11.4405  -16.0254   19.3810 N   0  0  0  0  0  0  0  0  0  0  0  0
    9.9857  -16.8466   21.0437 C   0  0  0  0  0  0  0  0  0  0  0  0
    8.8905  -17.0539   21.6258 O   0  0  0  0  0  0  0  0  0  0  0  0
    8.4648  -13.0051   16.5728 N   0  0  0  0  0  0  0  0  0  0  0  0
   13.8813  -20.2484   21.2012 C   0  0  0  0  0  0  0  0  0  0  0  0
   12.6490  -20.0560   21.9294 O   0  0  0  0  0  0  0  0  0  0  0  0
   11.7998  -20.9523   21.7242 C   0  0  0  0  0  0  0  0  0  0  0  0
   12.4799  -18.9028   22.8032 C   0  0  2  0  0  0  0  0  0  0  0  0
   11.0872  -18.3209   22.7956 N   0  0  0  0  0  0  0  0  0  0  0  0
   11.1344  -17.4625   21.5546 C   0  0  0  0  0  0  0  0  0  0  0  0
   10.8660  -17.3283   23.8685 O   0  0  0  0  0  0  0  0  0  0  0  0
   11.6955  -16.3536   23.9456 C   0  0  0  0  0  0  0  0  0  0  0  0
    8.3537  -14.5008   26.7200 C   0  0  2  0  0  0  0  0  0  0  0  0
    8.3463  -15.6438   25.7040 O   0  0  0  0  0  0  0  0  0  0  0  0
    8.1753  -15.0552   24.4597 C   0  0  1  0  0  0  0  0  0  0  0  0
    9.7057  -16.3127   25.7892 N   0  0  0  0  0  0  0  0  0  0  0  0
    9.8122  -17.3808   24.7965 C   0  0  0  0  0  0  0  0  0  0  0  0
    9.8944  -16.9377   27.1248 O   0  0  0  0  0  0  0  0  0  0  0  0
    9.6943  -18.1498   27.3011 O   0  0  0  0  0  0  0  0  0  0  0  0
  2  1  1  0
  3  2  2  0
  4  2  1  0
  5  4  1  0
  6  5  1  0
  7  8  1  0
  7  6  1  0
  8  9  1  6
 10  8  1  0
 10 17  1  0
 11 10  2  0
 13 12  1  0
 14 13  2  0
 16 15  1  6
 15 13  1  0
 16 17  1  0
 18 16  1  0
 19 18  2  0
 21 20  1  1
 21 22  1  0
 23 21  1  0
 23 24  1  1
 24 18  1  0
 25 23  1  0
 26 25  2  0
 27 25  1  0
M  END
$$$$
