RNT.pdb
     RDKit          3D

 27 26  0  0  1  0  0  0  0  0999 V2000
    9.7024  -14.5731   16.4041 N   0  0  0  0  0  0  0  0  0  0  0  0
    8.3795  -14.0695   16.5351 C   0  0  0  0  0  0  0  0  0  0  0  0
    7.4055  -14.4657   15.7817 N   0  0  0  0  0  0  0  0  0  0  0  0
    8.0916  -13.0834   17.5321 N   0  0  0  0  0  0  0  0  0  0  0  0
    8.2205  -13.4544   18.9292 C   0  0  0  0  0  0  0  0  0  0  0  0
    6.9403  -14.0760   19.3822 C   0  0  0  0  0  0  0  0  0  0  0  0
    7.1634  -15.1478   20.3727 C   0  0  0  0  0  0  0  0  0  0  0  0
    8.4843  -15.2135   21.0420 C   0  0  2  0  0  0  0  0  0  0  0  0
    9.4700  -16.0574   20.4598 N   0  0  0  0  0  0  0  0  0  0  0  0
    8.3665  -15.6040   22.4926 C   0  0  0  0  0  0  0  0  0  0  0  0
    7.3366  -15.3557   23.1700 O   0  0  0  0  0  0  0  0  0  0  0  0
    6.4875  -13.9876   15.9138 N   0  0  0  0  0  0  0  0  0  0  0  0
   10.9969  -19.5667   22.7870 C   0  0  0  0  0  0  0  0  0  0  0  0
   10.0848  -19.0617   23.7864 O   0  0  0  0  0  0  0  0  0  0  0  0
    9.0527  -19.7569   23.9210 C   0  0  0  0  0  0  0  0  0  0  0  0
   10.4013  -17.8497   24.5300 C   0  0  2  0  0  0  0  0  0  0  0  0
    9.3028  -16.8146   24.5209 N   0  0  0  0  0  0  0  0  0  0  0  0
    9.4290  -16.2647   23.1206 C   0  0  0  0  0  0  0  0  0  0  0  0
    9.6069  -15.6367   25.3608 O   0  0  0  0  0  0  0  0  0  0  0  0
   10.6527  -14.9578   25.0619 C   0  0  0  0  0  0  0  0  0  0  0  0
    7.9403  -12.4561   25.7950 C   0  0  2  0  0  0  0  0  0  0  0  0
    8.0951  -13.0069   27.2131 O   0  0  0  0  0  0  0  0  0  0  0  0
    6.9014  -13.6468   27.5127 C   0  0  2  0  0  0  0  0  0  0  0  0
    9.2345  -14.0082   27.1708 N   0  0  0  0  0  0  0  0  0  0  0  0
    8.8279  -15.2143   26.4513 C   0  0  0  0  0  0  0  0  0  0  0  0
    9.6098  -14.4267   28.5472 O   0  0  0  0  0  0  0  0  0  0  0  0
    9.4653  -15.6005   28.9237 O   0  0  0  0  0  0  0  0  0  0  0  0
  2  1  1  0
  3  2  2  0
  4  2  1  0
  5  4  1  0
  6  5  1  0
  7  8  1  0
  7  6  1  0
  8  9  1  6
 10  8  1  0
 10 17  1  0
 11 10  2  0
 13 12  1  0
 14 13  2  0
 16 15  1  6
 15 13  1  0
 16 17  1  0
 18 16  1  0
 19 18  2  0
 21 20  1  1
 21 22  1  0
 23 21  1  0
 23 24  1  1
 24 18  1  0
 25 23  1  0
 26 25  2  0
 27 25  1  0
M  END
$$$$
