CTS.pdb
     RDKit          3D

 20 19  0  0  1  0  0  0  0  0999 V2000
    8.1127  -15.7208   15.8940 N   0  0  0  0  0  0  0  0  0  0  0  0
    8.9539  -15.0783   16.9051 C   0  0  1  0  0  0  0  0  0  0  0  0
    8.2710  -13.7792   17.3226 C   0  0  0  0  0  0  0  0  0  0  0  0
    8.2008  -12.6111   15.9486 S   0  0  0  0  0  0  0  0  0  0  0  0
    9.1319  -15.9555   18.0683 C   0  0  0  0  0  0  0  0  0  0  0  0
    8.1418  -16.6034   18.4844 O   0  0  0  0  0  0  0  0  0  0  0  0
   10.9127  -19.0917   18.5063 C   0  0  0  0  0  0  0  0  0  0  0  0
   11.4238  -18.1691   19.5742 C   0  0  1  0  0  0  0  0  0  0  0  0
   12.6659  -17.6952   19.1694 O   0  0  0  0  0  0  0  0  0  0  0  0
   10.4607  -17.0401   19.8731 C   0  0  2  0  0  0  0  0  0  0  0  0
   10.3562  -16.1253   18.7635 N   0  0  0  0  0  0  0  0  0  0  0  0
   10.9801  -16.3513   21.0998 C   0  0  0  0  0  0  0  0  0  0  0  0
   11.7722  -15.3868   20.9704 O   0  0  0  0  0  0  0  0  0  0  0  0
    8.7641  -15.5895   24.0895 O   0  0  0  0  0  0  0  0  0  0  0  0
    9.8765  -16.2731   24.6138 C   0  0  0  0  0  0  0  0  0  0  0  0
   10.9979  -16.1995   23.5880 C   0  0  2  0  0  0  0  0  0  0  0  0
   10.5630  -16.8076   22.3749 N   0  0  0  0  0  0  0  0  0  0  0  0
   12.2562  -16.7726   24.1158 C   0  0  0  0  0  0  0  0  0  0  0  0
   12.7976  -17.8010   23.6560 O   0  0  0  0  0  0  0  0  0  0  0  0
   12.8685  -16.1296   25.1826 O   0  0  0  0  0  0  0  0  0  0  0  0
  2  3  1  0
  2  1  1  6
  4  3  1  0
  5  2  1  0
  5  6  2  0
  8  7  1  6
  8 10  1  0
  9  8  1  0
 10 12  1  0
 10 11  1  6
 11  5  1  0
 12 13  2  0
 15 14  1  0
 16 15  1  1
 17 16  1  0
 17 12  1  0
 18 16  1  0
 19 18  2  0
 20 18  1  0
M  END
$$$$
