CTS.pdb
     RDKit          3D

 20 19  0  0  1  0  0  0  0  0999 V2000
    6.9639  -18.4256   16.1131 N   0  0  0  0  0  0  0  0  0  0  0  0
    6.4761  -17.7556   17.3197 C   0  0  1  0  0  0  0  0  0  0  0  0
    5.9126  -18.8248   18.2511 C   0  0  0  0  0  0  0  0  0  0  0  0
    4.1294  -19.0005   18.0353 S   0  0  0  0  0  0  0  0  0  0  0  0
    7.5613  -17.0238   17.9838 C   0  0  0  0  0  0  0  0  0  0  0  0
    8.6910  -17.5645   18.0527 O   0  0  0  0  0  0  0  0  0  0  0  0
    7.0994  -13.2351   20.0514 C   0  0  0  0  0  0  0  0  0  0  0  0
    8.3065  -13.5534   19.2181 C   0  0  1  0  0  0  0  0  0  0  0  0
    9.3923  -12.8817   19.7667 O   0  0  0  0  0  0  0  0  0  0  0  0
    8.5604  -15.0419   19.1122 C   0  0  2  0  0  0  0  0  0  0  0  0
    7.4234  -15.7352   18.5594 N   0  0  0  0  0  0  0  0  0  0  0  0
    8.8685  -15.5207   20.4997 C   0  0  0  0  0  0  0  0  0  0  0  0
    7.9277  -15.6800   21.3146 O   0  0  0  0  0  0  0  0  0  0  0  0
   11.5127  -18.1854   21.2124 O   0  0  0  0  0  0  0  0  0  0  0  0
   10.6077  -17.7378   22.1923 C   0  0  0  0  0  0  0  0  0  0  0  0
   10.5945  -16.2166   22.1582 C   0  0  2  0  0  0  0  0  0  0  0  0
   10.2151  -15.7811   20.8555 N   0  0  0  0  0  0  0  0  0  0  0  0
   11.8834  -15.6513   22.6158 C   0  0  0  0  0  0  0  0  0  0  0  0
   12.6179  -14.9319   21.9050 O   0  0  0  0  0  0  0  0  0  0  0  0
   12.2986  -15.9375   23.9090 O   0  0  0  0  0  0  0  0  0  0  0  0
  2  3  1  0
  2  1  1  6
  4  3  1  0
  5  2  1  0
  5  6  2  0
  8  7  1  1
  8 10  1  0
  9  8  1  0
 10 12  1  0
 10 11  1  1
 11  5  1  0
 12 13  2  0
 15 14  1  0
 16 15  1  6
 17 16  1  0
 17 12  1  0
 18 16  1  0
 19 18  2  0
 20 18  1  0
M  END
$$$$
