CTS.pdb
     RDKit          3D

 20 19  0  0  1  0  0  0  0  0999 V2000
    4.5488  -18.9969   19.3551 N   0  0  0  0  0  0  0  0  0  0  0  0
    4.4348  -17.7629   20.1341 C   0  0  1  0  0  0  0  0  0  0  0  0
    3.8384  -18.1221   21.4918 C   0  0  0  0  0  0  0  0  0  0  0  0
    2.1975  -18.8509   21.3084 S   0  0  0  0  0  0  0  0  0  0  0  0
    5.7493  -17.1331   20.3071 C   0  0  0  0  0  0  0  0  0  0  0  0
    6.7560  -17.8732   20.4167 O   0  0  0  0  0  0  0  0  0  0  0  0
    8.6863  -13.1103   20.3236 C   0  0  0  0  0  0  0  0  0  0  0  0
    7.3348  -13.7243   20.1021 C   0  0  1  0  0  0  0  0  0  0  0  0
    6.9888  -13.5246   18.7711 O   0  0  0  0  0  0  0  0  0  0  0  0
    7.2959  -15.1896   20.4801 C   0  0  2  0  0  0  0  0  0  0  0  0
    5.9657  -15.7326   20.3597 N   0  0  0  0  0  0  0  0  0  0  0  0
    7.7947  -15.2781   21.8917 C   0  0  0  0  0  0  0  0  0  0  0  0
    7.0777  -14.8374   22.8224 O   0  0  0  0  0  0  0  0  0  0  0  0
    7.9478  -17.4484   24.2589 O   0  0  0  0  0  0  0  0  0  0  0  0
    9.3266  -17.3637   23.9916 C   0  0  0  0  0  0  0  0  0  0  0  0
    9.6140  -15.9716   23.4484 C   0  0  2  0  0  0  0  0  0  0  0  0
    9.0640  -15.8577   22.1389 N   0  0  0  0  0  0  0  0  0  0  0  0
   11.0575  -15.6510   23.5107 C   0  0  0  0  0  0  0  0  0  0  0  0
   11.7547  -15.3888   22.5070 O   0  0  0  0  0  0  0  0  0  0  0  0
   11.6702  -15.6413   24.7561 O   0  0  0  0  0  0  0  0  0  0  0  0
  2  3  1  0
  2  1  1  6
  4  3  1  0
  5  2  1  0
  5  6  2  0
  8  7  1  6
  8 10  1  0
  9  8  1  0
 10 12  1  0
 10 11  1  1
 11  5  1  0
 12 13  2  0
 15 14  1  0
 16 15  1  6
 17 16  1  0
 17 12  1  0
 18 16  1  0
 19 18  2  0
 20 18  1  0
M  END
$$$$
