CTS.pdb
     RDKit          3D

 20 19  0  0  1  0  0  0  0  0999 V2000
    8.0031  -13.5891   18.1917 N   0  0  0  0  0  0  0  0  0  0  0  0
    8.4639  -13.4726   19.5762 C   0  0  1  0  0  0  0  0  0  0  0  0
    7.6239  -12.3967   20.2580 C   0  0  0  0  0  0  0  0  0  0  0  0
    8.0446  -12.2551   22.0074 S   0  0  0  0  0  0  0  0  0  0  0  0
    8.3216  -14.7517   20.2818 C   0  0  0  0  0  0  0  0  0  0  0  0
    7.3069  -15.4516   20.0498 O   0  0  0  0  0  0  0  0  0  0  0  0
   10.0037  -17.8604   20.0373 C   0  0  0  0  0  0  0  0  0  0  0  0
   10.0368  -17.5578   21.5071 C   0  0  1  0  0  0  0  0  0  0  0  0
   11.3327  -17.1782   21.8350 O   0  0  0  0  0  0  0  0  0  0  0  0
    9.0243  -16.5049   21.9040 C   0  0  2  0  0  0  0  0  0  0  0  0
    9.2588  -15.2589   21.2173 N   0  0  0  0  0  0  0  0  0  0  0  0
    9.1435  -16.3388   23.3898 C   0  0  0  0  0  0  0  0  0  0  0  0
    9.9652  -15.5088   23.8483 O   0  0  0  0  0  0  0  0  0  0  0  0
    6.4208  -18.3822   25.7325 O   0  0  0  0  0  0  0  0  0  0  0  0
    6.9136  -17.1435   26.1826 C   0  0  0  0  0  0  0  0  0  0  0  0
    8.3326  -16.9847   25.6568 C   0  0  2  0  0  0  0  0  0  0  0  0
    8.3245  -17.1240   24.2387 N   0  0  0  0  0  0  0  0  0  0  0  0
    9.2699  -17.9085   26.3338 C   0  0  0  0  0  0  0  0  0  0  0  0
    9.4619  -17.9216   27.5688 O   0  0  0  0  0  0  0  0  0  0  0  0
    9.9752  -18.8115   25.5505 O   0  0  0  0  0  0  0  0  0  0  0  0
  2  3  1  0
  2  1  1  6
  4  3  1  0
  5  2  1  0
  5  6  2  0
  8  7  1  6
  8 10  1  0
  9  8  1  0
 10 12  1  0
 10 11  1  6
 11  5  1  0
 12 13  2  0
 15 14  1  0
 16 15  1  1
 17 16  1  0
 17 12  1  0
 18 16  1  0
 19 18  2  0
 20 18  1  0
M  END
$$$$
