CTS.pdb
     RDKit          3D

 20 19  0  0  1  0  0  0  0  0999 V2000
   13.6616  -14.3263   17.7085 N   0  0  0  0  0  0  0  0  0  0  0  0
   12.7928  -15.2669   18.4181 C   0  0  1  0  0  0  0  0  0  0  0  0
   13.6854  -16.2710   19.1414 C   0  0  0  0  0  0  0  0  0  0  0  0
   14.2939  -17.5353   18.0063 S   0  0  0  0  0  0  0  0  0  0  0  0
   11.9378  -14.5616   19.3802 C   0  0  0  0  0  0  0  0  0  0  0  0
   12.4542  -13.6712   20.0971 O   0  0  0  0  0  0  0  0  0  0  0  0
    8.3127  -12.8483   19.0956 C   0  0  0  0  0  0  0  0  0  0  0  0
    8.3860  -13.8782   20.1850 C   0  0  1  0  0  0  0  0  0  0  0  0
    7.7368  -15.0216   19.7350 O   0  0  0  0  0  0  0  0  0  0  0  0
    9.8091  -14.1697   20.6109 C   0  0  2  0  0  0  0  0  0  0  0  0
   10.5545  -14.8169   19.5599 N   0  0  0  0  0  0  0  0  0  0  0  0
    9.7189  -15.0391   21.8295 C   0  0  0  0  0  0  0  0  0  0  0  0
   10.0520  -16.2459   21.7458 O   0  0  0  0  0  0  0  0  0  0  0  0
    7.4173  -13.8226   24.9988 O   0  0  0  0  0  0  0  0  0  0  0  0
    8.6817  -14.3147   25.3716 C   0  0  0  0  0  0  0  0  0  0  0  0
    9.1787  -15.2226   24.2562 C   0  0  2  0  0  0  0  0  0  0  0  0
    9.2594  -14.4752   23.0457 N   0  0  0  0  0  0  0  0  0  0  0  0
    8.3514  -16.4441   24.1400 C   0  0  0  0  0  0  0  0  0  0  0  0
    7.6267  -16.7012   23.1546 O   0  0  0  0  0  0  0  0  0  0  0  0
    8.3834  -17.3553   25.1865 O   0  0  0  0  0  0  0  0  0  0  0  0
  2  3  1  0
  2  1  1  1
  4  3  1  0
  5  2  1  0
  5  6  2  0
  8  7  1  6
  8 10  1  0
  9  8  1  0
 10 12  1  0
 10 11  1  6
 11  5  1  0
 12 13  2  0
 15 14  1  0
 16 15  1  1
 17 16  1  0
 17 12  1  0
 18 16  1  0
 19 18  2  0
 20 18  1  0
M  END
$$$$
