CTS.pdb
     RDKit          3D

 20 19  0  0  1  0  0  0  0  0999 V2000
    5.4092  -13.1464   26.5519 N   0  0  0  0  0  0  0  0  0  0  0  0
    6.7169  -12.9340   25.9294 C   0  0  1  0  0  0  0  0  0  0  0  0
    7.7228  -12.6538   27.0421 C   0  0  0  0  0  0  0  0  0  0  0  0
    7.5098  -10.9895   27.7069 S   0  0  0  0  0  0  0  0  0  0  0  0
    7.1256  -14.1155   25.1605 C   0  0  0  0  0  0  0  0  0  0  0  0
    6.8808  -15.2505   25.6350 O   0  0  0  0  0  0  0  0  0  0  0  0
    6.9912  -14.1509   21.2020 C   0  0  0  0  0  0  0  0  0  0  0  0
    8.1264  -15.0101   21.6774 C   0  0  1  0  0  0  0  0  0  0  0  0
    9.3139  -14.3913   21.3058 O   0  0  0  0  0  0  0  0  0  0  0  0
    8.0699  -15.2710   23.1674 C   0  0  2  0  0  0  0  0  0  0  0  0
    7.7846  -14.0659   23.9058 N   0  0  0  0  0  0  0  0  0  0  0  0
    9.4029  -15.8418   23.5502 C   0  0  0  0  0  0  0  0  0  0  0  0
   10.2905  -15.0757   23.9972 O   0  0  0  0  0  0  0  0  0  0  0  0
   10.2292  -19.5201   22.1664 O   0  0  0  0  0  0  0  0  0  0  0  0
   10.7678  -19.3454   23.4545 C   0  0  0  0  0  0  0  0  0  0  0  0
   10.8688  -17.8508   23.7215 C   0  0  2  0  0  0  0  0  0  0  0  0
    9.6264  -17.2327   23.3973 N   0  0  0  0  0  0  0  0  0  0  0  0
   12.0258  -17.2502   23.0209 C   0  0  0  0  0  0  0  0  0  0  0  0
   11.9229  -16.3788   22.1307 O   0  0  0  0  0  0  0  0  0  0  0  0
   13.2972  -17.6806   23.3741 O   0  0  0  0  0  0  0  0  0  0  0  0
  2  3  1  0
  2  1  1  1
  4  3  1  0
  5  2  1  0
  5  6  2  0
  8  7  1  1
  8 10  1  0
  9  8  1  0
 10 12  1  0
 10 11  1  1
 11  5  1  0
 12 13  2  0
 15 14  1  0
 16 15  1  6
 17 16  1  0
 17 12  1  0
 18 16  1  0
 19 18  2  0
 20 18  1  0
M  END
$$$$
