CTS.pdb
     RDKit          3D

 20 19  0  0  1  0  0  0  0  0999 V2000
    8.1581  -17.4191   16.3400 N   0  0  0  0  0  0  0  0  0  0  0  0
    7.5078  -17.3108   17.6470 C   0  0  1  0  0  0  0  0  0  0  0  0
    7.2413  -18.7251   18.1537 C   0  0  0  0  0  0  0  0  0  0  0  0
    5.8918  -19.4997   17.2391 S   0  0  0  0  0  0  0  0  0  0  0  0
    8.3611  -16.5838   18.5945 C   0  0  0  0  0  0  0  0  0  0  0  0
    9.6056  -16.6647   18.4605 O   0  0  0  0  0  0  0  0  0  0  0  0
    7.7974  -12.8528   20.0885 C   0  0  0  0  0  0  0  0  0  0  0  0
    8.1540  -13.8617   21.1410 C   0  0  1  0  0  0  0  0  0  0  0  0
    7.0021  -14.1499   21.8629 O   0  0  0  0  0  0  0  0  0  0  0  0
    8.7798  -15.1103   20.5573 C   0  0  2  0  0  0  0  0  0  0  0  0
    7.8747  -15.7878   19.6624 N   0  0  0  0  0  0  0  0  0  0  0  0
    9.1518  -15.9827   21.7191 C   0  0  0  0  0  0  0  0  0  0  0  0
    8.3472  -16.8657   22.1031 O   0  0  0  0  0  0  0  0  0  0  0  0
   11.9319  -18.1738   22.0790 O   0  0  0  0  0  0  0  0  0  0  0  0
   10.8967  -18.0414   23.0227 C   0  0  0  0  0  0  0  0  0  0  0  0
   10.8389  -16.5831   23.4534 C   0  0  2  0  0  0  0  0  0  0  0  0
   10.4035  -15.7877   22.3542 N   0  0  0  0  0  0  0  0  0  0  0  0
   12.1257  -16.1352   24.0310 C   0  0  0  0  0  0  0  0  0  0  0  0
   12.8265  -15.2230   23.5422 O   0  0  0  0  0  0  0  0  0  0  0  0
   12.5785  -16.7656   25.1817 O   0  0  0  0  0  0  0  0  0  0  0  0
  2  3  1  0
  2  1  1  6
  4  3  1  0
  5  2  1  0
  5  6  2  0
  8  7  1  6
  8 10  1  0
  9  8  1  0
 10 12  1  0
 10 11  1  6
 11  5  1  0
 12 13  2  0
 15 14  1  0
 16 15  1  6
 17 16  1  0
 17 12  1  0
 18 16  1  0
 19 18  2  0
 20 18  1  0
M  END
$$$$
