LMA.pdb
     RDKit          3D

 22 21  0  0  1  0  0  0  0  0999 V2000
    8.2855  -17.4232   18.4473 C   0  0  0  0  0  0  0  0  0  0  0  0
    7.7211  -17.8713   19.7755 C   0  0  2  0  0  0  0  0  0  0  0  0
    7.3573  -19.3380   19.7880 C   0  0  0  0  0  0  0  0  0  0  0  0
    6.6109  -16.9807   20.2587 C   0  0  0  0  0  0  0  0  0  0  0  0
    6.9576  -15.5137   20.1646 C   0  0  2  0  0  0  0  0  0  0  0  0
    7.8133  -15.2356   19.0337 N   0  0  0  0  0  0  0  0  0  0  0  0
    7.6630  -15.1459   21.4134 C   0  0  0  0  0  0  0  0  0  0  0  0
    8.9162  -15.1184   21.4129 O   0  0  0  0  0  0  0  0  0  0  0  0
    6.6932  -10.5585   26.6425 C   0  0  0  0  0  0  0  0  0  0  0  0
    6.5787  -12.3030   27.1284 S   0  0  0  0  0  0  0  0  0  0  0  0
    7.6669  -13.2361   25.9798 C   0  0  0  0  0  0  0  0  0  0  0  0
    6.9016  -13.6485   24.7571 C   0  0  0  0  0  0  0  0  0  0  0  0
    7.7515  -14.4682   23.8478 C   0  0  2  0  0  0  0  0  0  0  0  0
    7.0115  -14.8197   22.6206 N   0  0  0  0  0  0  0  0  0  0  0  0
    8.3989  -15.6458   24.4232 C   0  0  0  0  0  0  0  0  0  0  0  0
    7.7923  -16.6705   24.8065 O   0  0  0  0  0  0  0  0  0  0  0  0
   11.9219  -16.8695   24.5257 C   0  0  0  0  0  0  0  0  0  0  0  0
   10.4833  -16.9052   25.0365 C   0  0  2  0  0  0  0  0  0  0  0  0
    9.8373  -15.7016   24.5919 N   0  0  0  0  0  0  0  0  0  0  0  0
   10.4302  -17.1045   26.4817 C   0  0  0  0  0  0  0  0  0  0  0  0
   10.1514  -16.1449   27.2304 O   0  0  0  0  0  0  0  0  0  0  0  0
   10.6816  -18.3354   27.0497 O   0  0  0  0  0  0  0  0  0  0  0  0
  2  1  1  6
  2  4  1  0
  2  3  1  0
  4  5  1  0
  5  7  1  0
  5  6  1  6
  7  8  2  0
  9 10  1  0
 10 11  1  0
 11 12  1  0
 13 12  1  1
 13 15  1  0
 14 13  1  0
 14  7  1  0
 15 19  1  0
 15 16  2  0
 18 17  1  1
 18 20  1  0
 19 18  1  0
 20 21  2  0
 20 22  1  0
M  END
$$$$
