LMA.pdb
     RDKit          3D

 22 21  0  0  1  0  0  0  0  0999 V2000
    8.1579  -14.0746   18.1757 C   0  0  0  0  0  0  0  0  0  0  0  0
    7.8304  -13.1799   19.3485 C   0  0  2  0  0  0  0  0  0  0  0  0
    7.8893  -11.7118   18.9946 C   0  0  0  0  0  0  0  0  0  0  0  0
    8.6254  -13.5263   20.5762 C   0  0  0  0  0  0  0  0  0  0  0  0
    8.4827  -14.9767   20.9728 C   0  0  2  0  0  0  0  0  0  0  0  0
    7.1134  -15.4283   20.8740 N   0  0  0  0  0  0  0  0  0  0  0  0
    8.9369  -15.0971   22.3769 C   0  0  0  0  0  0  0  0  0  0  0  0
   10.1143  -14.7730   22.6600 O   0  0  0  0  0  0  0  0  0  0  0  0
    6.5515  -10.9058   26.6230 C   0  0  0  0  0  0  0  0  0  0  0  0
    6.3930  -12.7048   26.7990 S   0  0  0  0  0  0  0  0  0  0  0  0
    7.6091  -13.4505   25.6418 C   0  0  0  0  0  0  0  0  0  0  0  0
    7.5563  -14.9475   25.7245 C   0  0  0  0  0  0  0  0  0  0  0  0
    8.5798  -15.5667   24.8356 C   0  0  2  0  0  0  0  0  0  0  0  0
    8.1236  -15.5580   23.4324 N   0  0  0  0  0  0  0  0  0  0  0  0
    9.0797  -16.8870   25.2145 C   0  0  0  0  0  0  0  0  0  0  0  0
    8.3741  -17.9176   25.2845 O   0  0  0  0  0  0  0  0  0  0  0  0
   12.4271  -18.4721   25.5909 C   0  0  0  0  0  0  0  0  0  0  0  0
   10.9526  -18.3769   25.9761 C   0  0  2  0  0  0  0  0  0  0  0  0
   10.4759  -17.0920   25.5453 N   0  0  0  0  0  0  0  0  0  0  0  0
   10.7503  -18.6350   27.3986 C   0  0  0  0  0  0  0  0  0  0  0  0
   10.4591  -17.6930   28.1648 O   0  0  0  0  0  0  0  0  0  0  0  0
   10.8727  -19.9029   27.9261 O   0  0  0  0  0  0  0  0  0  0  0  0
  2  1  1  6
  2  4  1  0
  2  3  1  0
  4  5  1  0
  5  7  1  0
  5  6  1  1
  7  8  2  0
  9 10  1  0
 10 11  1  0
 11 12  1  0
 13 12  1  1
 13 15  1  0
 14 13  1  0
 14  7  1  0
 15 19  1  0
 15 16  2  0
 18 17  1  1
 18 20  1  0
 19 18  1  0
 20 21  2  0
 20 22  1  0
M  END
$$$$
