LMA.pdb
     RDKit          3D

 22 21  0  0  1  0  0  0  0  0999 V2000
    7.1387  -14.1657   18.5291 C   0  0  0  0  0  0  0  0  0  0  0  0
    7.8129  -13.4769   19.6929 C   0  0  2  0  0  0  0  0  0  0  0  0
    7.9614  -11.9880   19.4811 C   0  0  0  0  0  0  0  0  0  0  0  0
    9.0954  -14.1495   20.0952 C   0  0  0  0  0  0  0  0  0  0  0  0
    8.8662  -15.4230   20.8743 C   0  0  2  0  0  0  0  0  0  0  0  0
    7.5095  -15.9011   20.7348 N   0  0  0  0  0  0  0  0  0  0  0  0
    9.1347  -15.1231   22.2992 C   0  0  0  0  0  0  0  0  0  0  0  0
   10.2725  -14.7098   22.6248 O   0  0  0  0  0  0  0  0  0  0  0  0
    6.4081  -11.3361   26.1957 C   0  0  0  0  0  0  0  0  0  0  0  0
    6.6963  -12.5729   27.4918 S   0  0  0  0  0  0  0  0  0  0  0  0
    7.8656  -13.8023   26.7879 C   0  0  0  0  0  0  0  0  0  0  0  0
    7.5239  -14.0847   25.3547 C   0  0  0  0  0  0  0  0  0  0  0  0
    8.5091  -15.0234   24.7471 C   0  0  2  0  0  0  0  0  0  0  0  0
    8.1840  -15.2728   23.3296 N   0  0  0  0  0  0  0  0  0  0  0  0
    8.7576  -16.2780   25.4549 C   0  0  0  0  0  0  0  0  0  0  0  0
    7.8856  -17.1444   25.6870 O   0  0  0  0  0  0  0  0  0  0  0  0
   11.6310  -18.4192   26.1145 C   0  0  0  0  0  0  0  0  0  0  0  0
   10.3204  -17.8427   26.6452 C   0  0  2  0  0  0  0  0  0  0  0  0
   10.0789  -16.6086   25.9506 N   0  0  0  0  0  0  0  0  0  0  0  0
   10.3414  -17.7076   28.0986 C   0  0  0  0  0  0  0  0  0  0  0  0
   10.2521  -16.5756   28.6178 O   0  0  0  0  0  0  0  0  0  0  0  0
   10.4583  -18.8063   28.9234 O   0  0  0  0  0  0  0  0  0  0  0  0
  2  1  1  6
  2  4  1  0
  2  3  1  0
  4  5  1  0
  5  7  1  0
  5  6  1  1
  7  8  2  0
  9 10  1  0
 10 11  1  0
 11 12  1  0
 13 12  1  1
 13 15  1  0
 14 13  1  0
 14  7  1  0
 15 19  1  0
 15 16  2  0
 18 17  1  6
 18 20  1  0
 19 18  1  0
 20 21  2  0
 20 22  1  0
M  END
$$$$
