LMA.pdb
     RDKit          3D

 22 21  0  0  1  0  0  0  0  0999 V2000
    7.8238  -14.4830   18.2059 C   0  0  0  0  0  0  0  0  0  0  0  0
    7.7273  -13.5523   19.3924 C   0  0  2  0  0  0  0  0  0  0  0  0
    7.5657  -12.1058   18.9855 C   0  0  0  0  0  0  0  0  0  0  0  0
    8.8346  -13.7689   20.3854 C   0  0  0  0  0  0  0  0  0  0  0  0
    8.7562  -15.1177   21.0607 C   0  0  2  0  0  0  0  0  0  0  0  0
    7.5097  -15.7903   20.7738 N   0  0  0  0  0  0  0  0  0  0  0  0
    8.8630  -14.8877   22.5195 C   0  0  0  0  0  0  0  0  0  0  0  0
    9.8739  -14.2948   22.9644 O   0  0  0  0  0  0  0  0  0  0  0  0
    6.3439  -11.5008   26.4037 C   0  0  0  0  0  0  0  0  0  0  0  0
    7.5558  -12.7092   27.0066 S   0  0  0  0  0  0  0  0  0  0  0  0
    6.7404  -14.3529   26.9188 C   0  0  0  0  0  0  0  0  0  0  0  0
    6.6419  -14.8098   25.4932 C   0  0  0  0  0  0  0  0  0  0  0  0
    7.9954  -14.9779   24.8928 C   0  0  2  0  0  0  0  0  0  0  0  0
    7.8910  -15.2960   23.4558 N   0  0  0  0  0  0  0  0  0  0  0  0
    8.9132  -15.8953   25.5659 C   0  0  0  0  0  0  0  0  0  0  0  0
    9.4128  -15.6947   26.6950 O   0  0  0  0  0  0  0  0  0  0  0  0
   11.5855  -17.8933   24.9375 C   0  0  0  0  0  0  0  0  0  0  0  0
   10.2206  -18.0393   25.6065 C   0  0  2  0  0  0  0  0  0  0  0  0
    9.3166  -17.1407   24.9437 N   0  0  0  0  0  0  0  0  0  0  0  0
   10.3039  -17.8348   27.0495 C   0  0  0  0  0  0  0  0  0  0  0  0
   11.0929  -18.5237   27.7292 O   0  0  0  0  0  0  0  0  0  0  0  0
    9.5279  -16.8924   27.6904 O   0  0  0  0  0  0  0  0  0  0  0  0
  2  1  1  6
  2  4  1  0
  2  3  1  0
  4  5  1  0
  5  7  1  0
  5  6  1  1
  7  8  2  0
  9 10  1  0
 10 11  1  0
 11 12  1  0
 13 12  1  1
 13 15  1  0
 14 13  1  0
 14  7  1  0
 15 19  1  0
 15 16  2  0
 18 17  1  6
 18 20  1  0
 19 18  1  0
 20 21  2  0
 20 22  1  0
M  END
$$$$
