LMA.pdb
     RDKit          3D

 22 21  0  0  1  0  0  0  0  0999 V2000
    6.9650  -14.1673   19.2611 C   0  0  0  0  0  0  0  0  0  0  0  0
    8.0057  -13.3797   20.0226 C   0  0  2  0  0  0  0  0  0  0  0  0
    8.3077  -12.0441   19.3831 C   0  0  0  0  0  0  0  0  0  0  0  0
    9.2380  -14.1884   20.3170 C   0  0  0  0  0  0  0  0  0  0  0  0
    8.9492  -15.4013   21.1695 C   0  0  2  0  0  0  0  0  0  0  0  0
    7.5743  -15.8292   21.0464 N   0  0  0  0  0  0  0  0  0  0  0  0
    9.2205  -15.0269   22.5761 C   0  0  0  0  0  0  0  0  0  0  0  0
   10.3610  -14.6037   22.8786 O   0  0  0  0  0  0  0  0  0  0  0  0
    6.0962  -11.1714   26.1226 C   0  0  0  0  0  0  0  0  0  0  0  0
    6.5565  -12.2104   27.5372 S   0  0  0  0  0  0  0  0  0  0  0  0
    7.8390  -13.3774   26.9309 C   0  0  0  0  0  0  0  0  0  0  0  0
    7.4835  -13.8760   25.5613 C   0  0  0  0  0  0  0  0  0  0  0  0
    8.5761  -14.7213   25.0019 C   0  0  2  0  0  0  0  0  0  0  0  0
    8.2696  -15.1153   23.6134 N   0  0  0  0  0  0  0  0  0  0  0  0
    8.9954  -15.8769   25.7928 C   0  0  0  0  0  0  0  0  0  0  0  0
    9.0539  -15.8957   27.0422 O   0  0  0  0  0  0  0  0  0  0  0  0
    9.7321  -19.4809   25.0339 C   0  0  0  0  0  0  0  0  0  0  0  0
    9.8056  -18.2499   25.9344 C   0  0  2  0  0  0  0  0  0  0  0  0
    9.3839  -17.1191   25.1550 N   0  0  0  0  0  0  0  0  0  0  0  0
   11.1299  -18.0962   26.5289 C   0  0  0  0  0  0  0  0  0  0  0  0
   11.5900  -18.9976   27.2603 O   0  0  0  0  0  0  0  0  0  0  0  0
   11.8958  -16.9721   26.3033 O   0  0  0  0  0  0  0  0  0  0  0  0
  2  1  1  6
  2  4  1  0
  2  3  1  0
  4  5  1  0
  5  7  1  0
  5  6  1  1
  7  8  2  0
  9 10  1  0
 10 11  1  0
 11 12  1  0
 13 12  1  1
 13 15  1  0
 14 13  1  0
 14  7  1  0
 15 19  1  0
 15 16  2  0
 18 17  1  6
 18 20  1  0
 19 18  1  0
 20 21  2  0
 20 22  1  0
M  END
$$$$
