LMA.pdb
     RDKit          3D

 22 21  0  0  1  0  0  0  0  0999 V2000
    8.0237  -12.3905   27.1902 C   0  0  0  0  0  0  0  0  0  0  0  0
    6.9124  -12.7399   26.2278 C   0  0  2  0  0  0  0  0  0  0  0  0
    5.8243  -11.6918   26.1903 C   0  0  0  0  0  0  0  0  0  0  0  0
    6.3873  -14.1327   26.4363 C   0  0  0  0  0  0  0  0  0  0  0  0
    7.4178  -15.1952   26.1355 C   0  0  2  0  0  0  0  0  0  0  0  0
    8.7638  -14.6745   26.2109 N   0  0  0  0  0  0  0  0  0  0  0  0
    7.1593  -15.6847   24.7622 C   0  0  0  0  0  0  0  0  0  0  0  0
    6.1548  -16.4063   24.5579 O   0  0  0  0  0  0  0  0  0  0  0  0
    8.7820  -11.4295   19.9449 C   0  0  0  0  0  0  0  0  0  0  0  0
    7.5280  -12.7345   20.0757 S   0  0  0  0  0  0  0  0  0  0  0  0
    8.3322  -14.1453   20.9342 C   0  0  0  0  0  0  0  0  0  0  0  0
    7.3089  -15.1734   21.3172 C   0  0  0  0  0  0  0  0  0  0  0  0
    7.8423  -16.0925   22.3621 C   0  0  2  0  0  0  0  0  0  0  0  0
    7.9778  -15.3901   23.6526 N   0  0  0  0  0  0  0  0  0  0  0  0
    9.0611  -16.8322   22.0391 C   0  0  0  0  0  0  0  0  0  0  0  0
    9.2155  -17.5272   21.0105 O   0  0  0  0  0  0  0  0  0  0  0  0
   12.4831  -16.7158   22.1917 C   0  0  0  0  0  0  0  0  0  0  0  0
   11.3575  -17.6306   22.6690 C   0  0  2  0  0  0  0  0  0  0  0  0
   10.2092  -16.8056   22.9234 N   0  0  0  0  0  0  0  0  0  0  0  0
   11.7691  -18.4384   23.8131 C   0  0  0  0  0  0  0  0  0  0  0  0
   11.1453  -18.3506   24.8911 O   0  0  0  0  0  0  0  0  0  0  0  0
   12.8385  -19.3052   23.7365 O   0  0  0  0  0  0  0  0  0  0  0  0
  2  1  1  1
  2  4  1  0
  2  3  1  0
  4  5  1  0
  5  7  1  0
  5  6  1  6
  7  8  2  0
  9 10  1  0
 10 11  1  0
 11 12  1  0
 13 12  1  6
 13 15  1  0
 14 13  1  0
 14  7  1  0
 15 19  1  0
 15 16  2  0
 18 17  1  1
 18 20  1  0
 19 18  1  0
 20 21  2  0
 20 22  1  0
M  END
$$$$
