LMA.pdb
     RDKit          3D

 22 21  0  0  1  0  0  0  0  0999 V2000
    8.4110  -18.5077   19.2388 C   0  0  0  0  0  0  0  0  0  0  0  0
    9.0293  -18.8189   20.5820 C   0  0  2  0  0  0  0  0  0  0  0  0
    9.0513  -20.2996   20.8833 C   0  0  0  0  0  0  0  0  0  0  0  0
    8.4377  -17.9965   21.6922 C   0  0  0  0  0  0  0  0  0  0  0  0
    8.4208  -16.5192   21.3779 C   0  0  2  0  0  0  0  0  0  0  0  0
    9.5454  -16.1319   20.5572 N   0  0  0  0  0  0  0  0  0  0  0  0
    8.4830  -15.7930   22.6668 C   0  0  0  0  0  0  0  0  0  0  0  0
    9.5949  -15.3826   23.0750 O   0  0  0  0  0  0  0  0  0  0  0  0
    6.9366  -10.6747   27.3816 C   0  0  0  0  0  0  0  0  0  0  0  0
    7.2766  -11.8198   26.0158 S   0  0  0  0  0  0  0  0  0  0  0  0
    6.2410  -13.3075   26.3133 C   0  0  0  0  0  0  0  0  0  0  0  0
    6.1423  -14.1317   25.0637 C   0  0  0  0  0  0  0  0  0  0  0  0
    7.4556  -14.7516   24.7291 C   0  0  2  0  0  0  0  0  0  0  0  0
    7.3606  -15.5278   23.4778 N   0  0  0  0  0  0  0  0  0  0  0  0
    8.1111  -15.5300   25.7785 C   0  0  0  0  0  0  0  0  0  0  0  0
    8.4115  -15.0835   26.9078 O   0  0  0  0  0  0  0  0  0  0  0  0
    8.7087  -19.1762   26.3173 C   0  0  0  0  0  0  0  0  0  0  0  0
    9.0087  -17.7133   26.6358 C   0  0  2  0  0  0  0  0  0  0  0  0
    8.4674  -16.9191   25.5681 N   0  0  0  0  0  0  0  0  0  0  0  0
   10.4328  -17.4947   26.8706 C   0  0  0  0  0  0  0  0  0  0  0  0
   11.0789  -16.7441   26.1102 O   0  0  0  0  0  0  0  0  0  0  0  0
   11.0921  -18.1000   27.9194 O   0  0  0  0  0  0  0  0  0  0  0  0
  2  1  1  6
  2  4  1  0
  2  3  1  0
  4  5  1  0
  5  7  1  0
  5  6  1  6
  7  8  2  0
  9 10  1  0
 10 11  1  0
 11 12  1  0
 13 12  1  1
 13 15  1  0
 14 13  1  0
 14  7  1  0
 15 19  1  0
 15 16  2  0
 18 17  1  6
 18 20  1  0
 19 18  1  0
 20 21  2  0
 20 22  1  0
M  END
$$$$
