GHK.pdb
     RDKit          3D

 24 24  0  0  1  0  0  0  0  0999 V2000
    4.9043  -18.9113   22.1182 N   0  0  0  0  0  0  0  0  0  0  0  0
    4.9772  -17.5453   22.5725 C   0  0  0  0  0  0  0  0  0  0  0  0
    6.3553  -17.0164   22.3110 C   0  0  0  0  0  0  0  0  0  0  0  0
    7.2561  -17.7635   21.8544 O   0  0  0  0  0  0  0  0  0  0  0  0
    6.6650  -15.6764   22.5715 N   0  0  0  0  0  0  0  0  0  0  0  0
    7.9621  -15.0576   22.1776 C   0  0  1  0  0  0  0  0  0  0  0  0
    7.5824  -13.7766   21.5382 C   0  0  0  0  0  0  0  0  0  0  0  0
    7.5773  -13.8389   20.0686 C   0  0  0  0  0  0  0  0  0  0  0  0
    8.3494  -13.0293   19.2356 C   0  0  0  0  0  0  0  0  0  0  0  0
    8.1207  -13.3267   17.9500 N   0  0  0  0  0  0  0  0  0  0  0  0
    7.2092  -14.3200   17.9359 C   0  0  0  0  0  0  0  0  0  0  0  0
    6.8936  -14.6156   19.2131 N   0  0  0  0  0  0  0  0  0  0  0  0
    8.7816  -15.0209   23.3727 C   0  0  0  0  0  0  0  0  0  0  0  0
    8.1951  -14.8173   24.5006 O   0  0  0  0  0  0  0  0  0  0  0  0
   10.1959  -15.1968   23.4126 N   0  0  0  0  0  0  0  0  0  0  0  0
   10.7820  -15.8902   24.5710 C   0  0  1  0  0  0  0  0  0  0  0  0
   10.1340  -17.2532   24.6907 C   0  0  0  0  0  0  0  0  0  0  0  0
    9.7745  -17.6163   26.1016 C   0  0  0  0  0  0  0  0  0  0  0  0
    9.0631  -18.9514   26.1839 C   0  0  0  0  0  0  0  0  0  0  0  0
    8.7502  -19.3074   27.6251 C   0  0  0  0  0  0  0  0  0  0  0  0
    8.0841  -20.5733   27.6880 N   0  0  0  0  0  0  0  0  0  0  0  0
   12.2338  -16.0678   24.3835 C   0  0  0  0  0  0  0  0  0  0  0  0
   13.0398  -16.2483   25.4936 O   0  0  0  0  0  0  0  0  0  0  0  0
   12.8044  -16.0672   23.2721 O   0  0  0  0  0  0  0  0  0  0  0  0
  2  1  1  0
  3  4  2  0
  3  2  1  0
  5  3  1  0
  6  7  1  1
  6  5  1  0
  8  9  2  0
  8  7  1  0
 10  9  1  0
 11 12  2  0
 11 10  1  0
 12  8  1  0
 13  6  1  0
 13 14  2  0
 15 13  1  0
 16 15  1  0
 16 17  1  6
 17 18  1  0
 19 18  1  0
 20 19  1  0
 20 21  1  0
 22 16  1  0
 23 22  1  0
 24 22  2  0
M  END
$$$$
