GHK.pdb
     RDKit          3D

 24 24  0  0  1  0  0  0  0  0999 V2000
   12.1056  -16.9969   17.4956 N   0  0  0  0  0  0  0  0  0  0  0  0
   11.1843  -17.6448   18.3951 C   0  0  0  0  0  0  0  0  0  0  0  0
   10.9632  -16.7626   19.5868 C   0  0  0  0  0  0  0  0  0  0  0  0
   11.8686  -15.9936   19.9959 O   0  0  0  0  0  0  0  0  0  0  0  0
    9.7405  -16.7792   20.2680 N   0  0  0  0  0  0  0  0  0  0  0  0
    9.4462  -15.8787   21.4181 C   0  0  1  0  0  0  0  0  0  0  0  0
    8.0187  -15.5202   21.2522 C   0  0  0  0  0  0  0  0  0  0  0  0
    7.7562  -14.7190   20.0470 C   0  0  0  0  0  0  0  0  0  0  0  0
    8.0181  -13.3543   19.9266 C   0  0  0  0  0  0  0  0  0  0  0  0
    7.6692  -12.9157   18.7102 N   0  0  0  0  0  0  0  0  0  0  0  0
    7.1833  -13.9781   18.0373 C   0  0  0  0  0  0  0  0  0  0  0  0
    7.2422  -15.0512   18.8519 N   0  0  0  0  0  0  0  0  0  0  0  0
    9.8483  -16.5921   22.6142 C   0  0  0  0  0  0  0  0  0  0  0  0
    9.9788  -17.8707   22.5391 O   0  0  0  0  0  0  0  0  0  0  0  0
   10.1203  -15.9972   23.8811 N   0  0  0  0  0  0  0  0  0  0  0  0
   10.8124  -16.8046   24.8987 C   0  0  1  0  0  0  0  0  0  0  0  0
   11.2682  -15.8841   26.0108 C   0  0  0  0  0  0  0  0  0  0  0  0
   10.1473  -15.4241   26.8960 C   0  0  0  0  0  0  0  0  0  0  0  0
   10.6277  -14.4876   27.9856 C   0  0  0  0  0  0  0  0  0  0  0  0
    9.4592  -13.9597   28.7965 C   0  0  0  0  0  0  0  0  0  0  0  0
    9.9258  -13.0596   29.8076 N   0  0  0  0  0  0  0  0  0  0  0  0
    9.8986  -17.8157   25.4616 C   0  0  0  0  0  0  0  0  0  0  0  0
   10.4226  -18.8578   26.2060 O   0  0  0  0  0  0  0  0  0  0  0  0
    8.6583  -17.8025   25.3135 O   0  0  0  0  0  0  0  0  0  0  0  0
  2  1  1  0
  3  4  2  0
  3  2  1  0
  5  3  1  0
  6  7  1  1
  6  5  1  0
  8  9  2  0
  8  7  1  0
 10  9  1  0
 11 12  2  0
 11 10  1  0
 12  8  1  0
 13  6  1  0
 13 14  2  0
 15 13  1  0
 16 15  1  0
 16 17  1  1
 17 18  1  0
 19 18  1  0
 20 19  1  0
 20 21  1  0
 22 16  1  0
 23 22  1  0
 24 22  2  0
M  END
$$$$
