GHK.pdb
     RDKit          3D

 24 24  0  0  1  0  0  0  0  0999 V2000
    6.6156  -12.7155   19.4811 N   0  0  0  0  0  0  0  0  0  0  0  0
    7.9859  -12.9020   19.0750 C   0  0  0  0  0  0  0  0  0  0  0  0
    8.4398  -14.2662   19.4996 C   0  0  0  0  0  0  0  0  0  0  0  0
    7.7169  -14.9866   20.2322 O   0  0  0  0  0  0  0  0  0  0  0  0
    9.6811  -14.7642   19.0866 N   0  0  0  0  0  0  0  0  0  0  0  0
   10.1264  -16.1571   19.3727 C   0  0  1  0  0  0  0  0  0  0  0  0
   10.8628  -16.5681   18.1550 C   0  0  0  0  0  0  0  0  0  0  0  0
   11.4467  -17.9144   18.2548 C   0  0  0  0  0  0  0  0  0  0  0  0
   10.8060  -19.0196   18.8145 C   0  0  0  0  0  0  0  0  0  0  0  0
   11.5974  -20.0986   18.7575 N   0  0  0  0  0  0  0  0  0  0  0  0
   12.7454  -19.7093   18.1675 C   0  0  0  0  0  0  0  0  0  0  0  0
   12.6395  -18.3978   17.8722 N   0  0  0  0  0  0  0  0  0  0  0  0
   10.8403  -16.1115   20.6335 C   0  0  0  0  0  0  0  0  0  0  0  0
   11.6531  -15.1329   20.8316 O   0  0  0  0  0  0  0  0  0  0  0  0
   10.7182  -17.0621   21.6891 N   0  0  0  0  0  0  0  0  0  0  0  0
   11.5424  -16.8783   22.8946 C   0  0  1  0  0  0  0  0  0  0  0  0
   10.8965  -17.6351   24.0356 C   0  0  0  0  0  0  0  0  0  0  0  0
   11.7162  -17.6250   25.2924 C   0  0  0  0  0  0  0  0  0  0  0  0
   11.1278  -18.5184   26.3651 C   0  0  0  0  0  0  0  0  0  0  0  0
   11.9855  -18.4949   27.6163 C   0  0  0  0  0  0  0  0  0  0  0  0
   11.4981  -19.4478   28.5675 N   0  0  0  0  0  0  0  0  0  0  0  0
   12.8992  -17.4128   22.6761 C   0  0  0  0  0  0  0  0  0  0  0  0
   13.9811  -16.7534   23.2324 O   0  0  0  0  0  0  0  0  0  0  0  0
   13.1517  -18.4396   22.0108 O   0  0  0  0  0  0  0  0  0  0  0  0
  2  1  1  0
  3  4  2  0
  3  2  1  0
  5  3  1  0
  6  7  1  6
  6  5  1  0
  8  9  2  0
  8  7  1  0
 10  9  1  0
 11 12  2  0
 11 10  1  0
 12  8  1  0
 13  6  1  0
 13 14  2  0
 15 13  1  0
 16 15  1  0
 16 17  1  1
 17 18  1  0
 19 18  1  0
 20 19  1  0
 20 21  1  0
 22 16  1  0
 23 22  1  0
 24 22  2  0
M  END
$$$$
