GHK.pdb
     RDKit          3D

 24 24  0  0  1  0  0  0  0  0999 V2000
   13.8532  -14.1299   17.3509 N   0  0  0  0  0  0  0  0  0  0  0  0
   14.0299  -15.1374   18.3665 C   0  0  0  0  0  0  0  0  0  0  0  0
   13.0536  -14.8886   19.4765 C   0  0  0  0  0  0  0  0  0  0  0  0
   13.2379  -13.9580   20.3002 O   0  0  0  0  0  0  0  0  0  0  0  0
   11.9150  -15.6907   19.6165 N   0  0  0  0  0  0  0  0  0  0  0  0
   10.8382  -15.3967   20.6036 C   0  0  1  0  0  0  0  0  0  0  0  0
    9.5868  -15.7872   19.9141 C   0  0  0  0  0  0  0  0  0  0  0  0
    9.1566  -14.8171   18.8955 C   0  0  0  0  0  0  0  0  0  0  0  0
    9.2798  -13.4329   19.0134 C   0  0  0  0  0  0  0  0  0  0  0  0
    8.7967  -12.8248   17.9223 N   0  0  0  0  0  0  0  0  0  0  0  0
    8.3606  -13.7963   17.0956 C   0  0  0  0  0  0  0  0  0  0  0  0
    8.5833  -14.9845   17.6931 N   0  0  0  0  0  0  0  0  0  0  0  0
   11.2006  -16.0849   21.8269 C   0  0  0  0  0  0  0  0  0  0  0  0
   12.0165  -17.0773   21.7420 O   0  0  0  0  0  0  0  0  0  0  0  0
   10.7326  -15.7546   23.1325 N   0  0  0  0  0  0  0  0  0  0  0  0
   11.1742  -16.5852   24.2646 C   0  0  1  0  0  0  0  0  0  0  0  0
   10.6479  -15.9694   25.5435 C   0  0  0  0  0  0  0  0  0  0  0  0
   11.1272  -16.6715   26.7801 C   0  0  0  0  0  0  0  0  0  0  0  0
   10.6365  -15.9982   28.0454 C   0  0  0  0  0  0  0  0  0  0  0  0
   11.2745  -16.6242   29.2712 C   0  0  0  0  0  0  0  0  0  0  0  0
   10.7254  -16.0494   30.4622 N   0  0  0  0  0  0  0  0  0  0  0  0
   10.6381  -17.9530   24.1387 C   0  0  0  0  0  0  0  0  0  0  0  0
   11.3638  -19.0117   24.6557 O   0  0  0  0  0  0  0  0  0  0  0  0
    9.5532  -18.2349   23.5872 O   0  0  0  0  0  0  0  0  0  0  0  0
  2  1  1  0
  3  4  2  0
  3  2  1  0
  5  3  1  0
  6  7  1  6
  6  5  1  0
  8  9  2  0
  8  7  1  0
 10  9  1  0
 11 12  2  0
 11 10  1  0
 12  8  1  0
 13  6  1  0
 13 14  2  0
 15 13  1  0
 16 15  1  0
 16 17  1  1
 17 18  1  0
 19 18  1  0
 20 19  1  0
 20 21  1  0
 22 16  1  0
 23 22  1  0
 24 22  2  0
M  END
$$$$
