GHK.pdb
     RDKit          3D

 24 24  0  0  1  0  0  0  0  0999 V2000
    8.1684  -18.4654   18.6250 N   0  0  0  0  0  0  0  0  0  0  0  0
    9.5813  -18.3104   18.3855 C   0  0  0  0  0  0  0  0  0  0  0  0
   10.0722  -17.1015   19.1235 C   0  0  0  0  0  0  0  0  0  0  0  0
   11.1387  -16.5297   18.7860 O   0  0  0  0  0  0  0  0  0  0  0  0
    9.3495  -16.5857   20.2056 N   0  0  0  0  0  0  0  0  0  0  0  0
    9.8334  -15.4390   21.0249 C   0  0  1  0  0  0  0  0  0  0  0  0
    8.6481  -14.5631   21.1729 C   0  0  0  0  0  0  0  0  0  0  0  0
    8.1308  -14.0623   19.8903 C   0  0  0  0  0  0  0  0  0  0  0  0
    8.4784  -12.8401   19.3153 C   0  0  0  0  0  0  0  0  0  0  0  0
    7.8403  -12.6722   18.1499 N   0  0  0  0  0  0  0  0  0  0  0  0
    7.0816  -13.7701   17.9591 C   0  0  0  0  0  0  0  0  0  0  0  0
    7.2667  -14.5937   19.0108 N   0  0  0  0  0  0  0  0  0  0  0  0
   10.4303  -16.0067   22.2177 C   0  0  0  0  0  0  0  0  0  0  0  0
    9.6456  -16.3621   23.1746 O   0  0  0  0  0  0  0  0  0  0  0  0
   11.8253  -16.2140   22.4273 N   0  0  0  0  0  0  0  0  0  0  0  0
   12.2507  -16.9417   23.6339 C   0  0  1  0  0  0  0  0  0  0  0  0
   12.8470  -18.2665   23.2082 C   0  0  0  0  0  0  0  0  0  0  0  0
   13.2850  -19.1176   24.3638 C   0  0  0  0  0  0  0  0  0  0  0  0
   14.0747  -20.3294   23.9133 C   0  0  0  0  0  0  0  0  0  0  0  0
   14.4395  -21.2055   25.0969 C   0  0  0  0  0  0  0  0  0  0  0  0
   15.1068  -22.3902   24.6479 N   0  0  0  0  0  0  0  0  0  0  0  0
   13.2739  -16.1715   24.3647 C   0  0  0  0  0  0  0  0  0  0  0  0
   13.5308  -16.4791   25.6891 O   0  0  0  0  0  0  0  0  0  0  0  0
   13.9416  -15.2403   23.8671 O   0  0  0  0  0  0  0  0  0  0  0  0
  2  1  1  0
  3  4  2  0
  3  2  1  0
  5  3  1  0
  6  7  1  1
  6  5  1  0
  8  9  2  0
  8  7  1  0
 10  9  1  0
 11 12  2  0
 11 10  1  0
 12  8  1  0
 13  6  1  0
 13 14  2  0
 15 13  1  0
 16 15  1  0
 16 17  1  6
 17 18  1  0
 19 18  1  0
 20 19  1  0
 20 21  1  0
 22 16  1  0
 23 22  1  0
 24 22  2  0
M  END
$$$$
