GHK.pdb
     RDKit          3D

 24 24  0  0  1  0  0  0  0  0999 V2000
    9.9277  -18.2435   17.1900 N   0  0  0  0  0  0  0  0  0  0  0  0
    8.9941  -18.2348   18.2882 C   0  0  0  0  0  0  0  0  0  0  0  0
    9.5389  -17.3712   19.3857 C   0  0  0  0  0  0  0  0  0  0  0  0
   10.7449  -17.0192   19.3900 O   0  0  0  0  0  0  0  0  0  0  0  0
    8.7119  -16.9396   20.4293 N   0  0  0  0  0  0  0  0  0  0  0  0
    9.1802  -16.0135   21.4986 C   0  0  1  0  0  0  0  0  0  0  0  0
    8.0510  -15.0755   21.6970 C   0  0  0  0  0  0  0  0  0  0  0  0
    7.7947  -14.2183   20.5295 C   0  0  0  0  0  0  0  0  0  0  0  0
    8.3617  -12.9603   20.3268 C   0  0  0  0  0  0  0  0  0  0  0  0
    7.9313  -12.4326   19.1736 N   0  0  0  0  0  0  0  0  0  0  0  0
    7.0910  -13.3317   18.6232 C   0  0  0  0  0  0  0  0  0  0  0  0
    7.0197  -14.3963   19.4478 N   0  0  0  0  0  0  0  0  0  0  0  0
    9.5961  -16.8444   22.6112 C   0  0  0  0  0  0  0  0  0  0  0  0
    8.7777  -17.7456   23.0304 O   0  0  0  0  0  0  0  0  0  0  0  0
   10.8475  -16.7555   23.2886 N   0  0  0  0  0  0  0  0  0  0  0  0
   11.1651  -17.7695   24.3070 C   0  0  1  0  0  0  0  0  0  0  0  0
   12.6357  -18.1121   24.1985 C   0  0  0  0  0  0  0  0  0  0  0  0
   12.8921  -19.3983   23.4692 C   0  0  0  0  0  0  0  0  0  0  0  0
   14.3699  -19.7195   23.3805 C   0  0  0  0  0  0  0  0  0  0  0  0
   14.5966  -21.0051   22.6074 C   0  0  0  0  0  0  0  0  0  0  0  0
   15.9953  -21.3055   22.5472 N   0  0  0  0  0  0  0  0  0  0  0  0
   10.8971  -17.2429   25.6580 C   0  0  0  0  0  0  0  0  0  0  0  0
   11.0713  -18.0726   26.7516 O   0  0  0  0  0  0  0  0  0  0  0  0
   10.5152  -16.0774   25.8953 O   0  0  0  0  0  0  0  0  0  0  0  0
  2  1  1  0
  3  4  2  0
  3  2  1  0
  5  3  1  0
  6  7  1  1
  6  5  1  0
  8  9  2  0
  8  7  1  0
 10  9  1  0
 11 12  2  0
 11 10  1  0
 12  8  1  0
 13  6  1  0
 13 14  2  0
 15 13  1  0
 16 15  1  0
 16 17  1  1
 17 18  1  0
 19 18  1  0
 20 19  1  0
 20 21  1  0
 22 16  1  0
 23 22  1  0
 24 22  2  0
M  END
$$$$
