GHK.pdb
     RDKit          3D

 24 24  0  0  1  0  0  0  0  0999 V2000
    4.3726  -18.9556   20.9616 N   0  0  0  0  0  0  0  0  0  0  0  0
    4.3768  -17.5652   21.3418 C   0  0  0  0  0  0  0  0  0  0  0  0
    5.7779  -17.0393   21.2547 C   0  0  0  0  0  0  0  0  0  0  0  0
    6.7436  -17.8122   21.0348 O   0  0  0  0  0  0  0  0  0  0  0  0
    6.0371  -15.6734   21.4172 N   0  0  0  0  0  0  0  0  0  0  0  0
    7.4179  -15.1159   21.4721 C   0  0  1  0  0  0  0  0  0  0  0  0
    7.3263  -13.8273   20.7476 C   0  0  0  0  0  0  0  0  0  0  0  0
    7.6174  -13.9456   19.3107 C   0  0  0  0  0  0  0  0  0  0  0  0
    7.9961  -15.1254   18.6705 C   0  0  0  0  0  0  0  0  0  0  0  0
    8.1901  -14.9079   17.3634 N   0  0  0  0  0  0  0  0  0  0  0  0
    7.9423  -13.6008   17.1448 C   0  0  0  0  0  0  0  0  0  0  0  0
    7.6004  -13.0380   18.3215 N   0  0  0  0  0  0  0  0  0  0  0  0
    7.8015  -15.1007   22.8699 C   0  0  0  0  0  0  0  0  0  0  0  0
    6.9020  -14.7962   23.7393 O   0  0  0  0  0  0  0  0  0  0  0  0
    9.1004  -15.4010   23.3755 N   0  0  0  0  0  0  0  0  0  0  0  0
    9.2391  -15.7111   24.8076 C   0  0  1  0  0  0  0  0  0  0  0  0
    8.5644  -17.0392   25.0770 C   0  0  0  0  0  0  0  0  0  0  0  0
    8.7407  -17.5178   26.4882 C   0  0  0  0  0  0  0  0  0  0  0  0
    8.2298  -18.9312   26.6797 C   0  0  0  0  0  0  0  0  0  0  0  0
    8.3732  -19.3645   28.1266 C   0  0  0  0  0  0  0  0  0  0  0  0
    7.9840  -20.7347   28.2729 N   0  0  0  0  0  0  0  0  0  0  0  0
   10.6631  -15.8168   25.1753 C   0  0  0  0  0  0  0  0  0  0  0  0
   11.6228  -15.7489   24.1808 O   0  0  0  0  0  0  0  0  0  0  0  0
   11.0782  -15.9671   26.3439 O   0  0  0  0  0  0  0  0  0  0  0  0
  2  1  1  0
  3  4  2  0
  3  2  1  0
  5  3  1  0
  6  7  1  1
  6  5  1  0
  8  9  2  0
  8  7  1  0
 10  9  1  0
 11 12  2  0
 11 10  1  0
 12  8  1  0
 13  6  1  0
 13 14  2  0
 15 13  1  0
 16 15  1  0
 16 17  1  6
 17 18  1  0
 19 18  1  0
 20 19  1  0
 20 21  1  0
 22 16  1  0
 23 22  1  0
 24 22  2  0
M  END
$$$$
