GHK.pdb
     RDKit          3D

 24 24  0  0  1  0  0  0  0  0999 V2000
    9.7089  -18.8230   19.2705 N   0  0  0  0  0  0  0  0  0  0  0  0
    8.7425  -18.5272   20.2984 C   0  0  0  0  0  0  0  0  0  0  0  0
    9.0593  -17.1895   20.8962 C   0  0  0  0  0  0  0  0  0  0  0  0
   10.2465  -16.8563   21.1369 O   0  0  0  0  0  0  0  0  0  0  0  0
    8.0355  -16.2841   21.1985 N   0  0  0  0  0  0  0  0  0  0  0  0
    8.2649  -15.0427   21.9900 C   0  0  1  0  0  0  0  0  0  0  0  0
    7.2731  -14.0778   21.4616 C   0  0  0  0  0  0  0  0  0  0  0  0
    7.4693  -13.7621   20.0385 C   0  0  0  0  0  0  0  0  0  0  0  0
    8.1463  -12.6411   19.5585 C   0  0  0  0  0  0  0  0  0  0  0  0
    8.1541  -12.6361   18.2193 N   0  0  0  0  0  0  0  0  0  0  0  0
    7.4904  -13.7401   17.8216 C   0  0  0  0  0  0  0  0  0  0  0  0
    7.0864  -14.4044   18.9234 N   0  0  0  0  0  0  0  0  0  0  0  0
    8.1872  -15.4234   23.3866 C   0  0  0  0  0  0  0  0  0  0  0  0
    7.0321  -15.4011   23.9547 O   0  0  0  0  0  0  0  0  0  0  0  0
    9.2880  -15.8299   24.1964 N   0  0  0  0  0  0  0  0  0  0  0  0
    9.0123  -16.3180   25.5574 C   0  0  1  0  0  0  0  0  0  0  0  0
    8.6200  -17.7777   25.4717 C   0  0  0  0  0  0  0  0  0  0  0  0
    8.3535  -18.3991   26.8112 C   0  0  0  0  0  0  0  0  0  0  0  0
    8.2064  -19.9044   26.7232 C   0  0  0  0  0  0  0  0  0  0  0  0
    7.8852  -20.4950   28.0832 C   0  0  0  0  0  0  0  0  0  0  0  0
    7.8541  -21.9244   28.0065 N   0  0  0  0  0  0  0  0  0  0  0  0
   10.2158  -16.1969   26.4007 C   0  0  0  0  0  0  0  0  0  0  0  0
   10.0897  -16.3034   27.7745 O   0  0  0  0  0  0  0  0  0  0  0  0
   11.3674  -16.0003   25.9583 O   0  0  0  0  0  0  0  0  0  0  0  0
  2  1  1  0
  3  4  2  0
  3  2  1  0
  5  3  1  0
  6  7  1  6
  6  5  1  0
  8  9  2  0
  8  7  1  0
 10  9  1  0
 11 12  2  0
 11 10  1  0
 12  8  1  0
 13  6  1  0
 13 14  2  0
 15 13  1  0
 16 15  1  0
 16 17  1  6
 17 18  1  0
 19 18  1  0
 20 19  1  0
 20 21  1  0
 22 16  1  0
 23 22  1  0
 24 22  2  0
M  END
$$$$
