GHK.pdb
     RDKit          3D

 24 24  0  0  1  0  0  0  0  0999 V2000
   14.1982  -20.5492   23.2612 N   0  0  0  0  0  0  0  0  0  0  0  0
   15.5226  -20.6729   23.8165 C   0  0  0  0  0  0  0  0  0  0  0  0
   15.4371  -21.3943   25.1278 C   0  0  0  0  0  0  0  0  0  0  0  0
   14.3285  -21.7660   25.5874 O   0  0  0  0  0  0  0  0  0  0  0  0
   16.5939  -21.6680   25.8667 N   0  0  0  0  0  0  0  0  0  0  0  0
   16.5636  -22.3682   27.1817 C   0  0  1  0  0  0  0  0  0  0  0  0
   17.7126  -23.3016   27.1310 C   0  0  0  0  0  0  0  0  0  0  0  0
   17.4730  -24.4734   26.2749 C   0  0  0  0  0  0  0  0  0  0  0  0
   16.5548  -25.4861   26.5516 C   0  0  0  0  0  0  0  0  0  0  0  0
   16.5715  -26.4112   25.5834 N   0  0  0  0  0  0  0  0  0  0  0  0
   17.4894  -26.0131   24.6797 C   0  0  0  0  0  0  0  0  0  0  0  0
   18.0208  -24.8502   25.1085 N   0  0  0  0  0  0  0  0  0  0  0  0
   16.5526  -21.3355   28.1989 C   0  0  0  0  0  0  0  0  0  0  0  0
   17.5650  -20.5430   28.2653 O   0  0  0  0  0  0  0  0  0  0  0  0
   15.5060  -21.1126   29.1413 N   0  0  0  0  0  0  0  0  0  0  0  0
   15.6072  -19.9487   30.0365 C   0  0  1  0  0  0  0  0  0  0  0  0
   14.2106  -19.5536   30.4670 C   0  0  0  0  0  0  0  0  0  0  0  0
   13.3905  -18.9703   29.3540 C   0  0  0  0  0  0  0  0  0  0  0  0
   12.0182  -18.5335   29.8244 C   0  0  0  0  0  0  0  0  0  0  0  0
   11.2224  -17.9327   28.6809 C   0  0  0  0  0  0  0  0  0  0  0  0
    9.9296  -17.5230   29.1402 N   0  0  0  0  0  0  0  0  0  0  0  0
   16.3967  -20.2886   31.2346 C   0  0  0  0  0  0  0  0  0  0  0  0
   16.8239  -19.2725   32.0710 O   0  0  0  0  0  0  0  0  0  0  0  0
   16.7170  -21.4518   31.5588 O   0  0  0  0  0  0  0  0  0  0  0  0
  2  1  1  0
  3  4  2  0
  3  2  1  0
  5  3  1  0
  6  7  1  1
  6  5  1  0
  8  9  2  0
  8  7  1  0
 10  9  1  0
 11 12  2  0
 11 10  1  0
 12  8  1  0
 13  6  1  0
 13 14  2  0
 15 13  1  0
 16 15  1  0
 16 17  1  1
 17 18  1  0
 19 18  1  0
 20 19  1  0
 20 21  1  0
 22 16  1  0
 23 22  1  0
 24 22  2  0
M  END
$$$$
