MPT.pdb
     RDKit          3D

 23 23  0  0  1  0  0  0  0  0999 V2000
   15.5313  -14.9889  -17.3624 C   0  0  0  0  0  0  0  0  0  0  0  0
   16.3484  -15.2823  -18.9302 S   0  0  0  0  0  0  0  0  0  0  0  0
   18.1648  -15.3068  -18.7411 C   0  0  0  0  0  0  0  0  0  0  0  0
   18.5991  -14.2218  -17.8003 C   0  0  0  0  0  0  0  0  0  0  0  0
   20.0763  -14.3354  -17.5114 C   0  0  2  0  0  0  0  0  0  0  0  0
   20.3098  -15.4523  -16.5856 N   0  0  0  0  0  0  0  0  0  0  0  0
   20.6335  -13.0795  -16.9956 C   0  0  0  0  0  0  0  0  0  0  0  0
   20.3203  -12.6818  -15.8511 O   0  0  0  0  0  0  0  0  0  0  0  0
   21.5528  -12.2476  -17.7565 N   0  0  0  0  0  0  0  0  0  0  0  0
   22.0306  -12.6040  -19.0604 C   0  0  0  0  0  0  0  0  0  0  0  0
   23.1613  -11.6397  -19.3364 C   0  0  0  0  0  0  0  0  0  0  0  0
   22.8587  -10.4408  -18.4776 C   0  0  0  0  0  0  0  0  0  0  0  0
   22.0830  -11.0075  -17.3308 C   0  0  1  0  0  0  0  0  0  0  0  0
   21.0323  -10.0293  -16.9177 C   0  0  0  0  0  0  0  0  0  0  0  0
   19.9593  -10.0040  -17.5601 O   0  0  0  0  0  0  0  0  0  0  0  0
   18.8286   -9.6718  -14.1100 C   0  0  0  0  0  0  0  0  0  0  0  0
   19.6800   -8.4257  -14.0475 C   0  0  1  0  0  0  0  0  0  0  0  0
   20.7088   -8.6696  -13.1294 O   0  0  0  0  0  0  0  0  0  0  0  0
   20.2127   -8.1509  -15.4250 C   0  0  2  0  0  0  0  0  0  0  0  0
   21.1946   -9.1351  -15.8398 N   0  0  0  0  0  0  0  0  0  0  0  0
   20.9501   -6.8534  -15.3692 C   0  0  0  0  0  0  0  0  0  0  0  0
   20.1924   -5.7027  -15.2129 O   0  0  0  0  0  0  0  0  0  0  0  0
   22.1951   -6.7535  -15.4551 O   0  0  0  0  0  0  0  0  0  0  0  0
  1  2  1  0
  3  2  1  0
  4  3  1  0
  5  7  1  0
  5  4  1  0
  5  6  1  1
  7  9  1  0
  8  7  2  0
  9 10  1  0
  9 13  1  0
 10 11  1  0
 11 12  1  0
 13 12  1  0
 13 14  1  6
 14 20  1  0
 15 14  2  0
 17 16  1  6
 18 17  1  0
 19 17  1  0
 19 20  1  1
 19 21  1  0
 21 22  1  0
 23 21  2  0
M  END
$$$$
