MPT.pdb
     RDKit          3D

 23 23  0  0  1  0  0  0  0  0999 V2000
   23.7739  -19.7277   -8.1675 C   0  0  0  0  0  0  0  0  0  0  0  0
   24.4803  -21.3495   -8.4546 S   0  0  0  0  0  0  0  0  0  0  0  0
   23.9956  -22.0084  -10.0876 C   0  0  0  0  0  0  0  0  0  0  0  0
   24.3470  -21.0247  -11.1645 C   0  0  0  0  0  0  0  0  0  0  0  0
   25.6828  -21.3693  -11.7772 C   0  0  2  0  0  0  0  0  0  0  0  0
   26.7264  -21.3044  -10.7449 N   0  0  0  0  0  0  0  0  0  0  0  0
   26.0004  -20.5087  -12.9227 C   0  0  0  0  0  0  0  0  0  0  0  0
   26.2556  -19.2971  -12.7406 O   0  0  0  0  0  0  0  0  0  0  0  0
   26.0371  -20.9938  -14.2936 N   0  0  0  0  0  0  0  0  0  0  0  0
   25.8441  -22.3719  -14.6390 C   0  0  0  0  0  0  0  0  0  0  0  0
   26.2564  -22.4697  -16.0899 C   0  0  0  0  0  0  0  0  0  0  0  0
   26.0677  -21.0791  -16.6349 C   0  0  0  0  0  0  0  0  0  0  0  0
   26.2568  -20.1972  -15.4414 C   0  0  1  0  0  0  0  0  0  0  0  0
   25.3241  -19.0343  -15.5375 C   0  0  0  0  0  0  0  0  0  0  0  0
   24.1612  -19.1680  -15.0967 O   0  0  0  0  0  0  0  0  0  0  0  0
   26.6056  -15.3140  -15.2032 C   0  0  0  0  0  0  0  0  0  0  0  0
   25.1234  -15.6026  -15.1673 C   0  0  1  0  0  0  0  0  0  0  0  0
   24.4580  -14.3977  -15.4241 O   0  0  0  0  0  0  0  0  0  0  0  0
   24.8216  -16.6417  -16.2094 C   0  0  2  0  0  0  0  0  0  0  0  0
   25.6936  -17.7962  -16.1017 N   0  0  0  0  0  0  0  0  0  0  0  0
   25.1227  -16.0396  -17.5424 C   0  0  0  0  0  0  0  0  0  0  0  0
   24.0972  -15.3479  -18.1691 O   0  0  0  0  0  0  0  0  0  0  0  0
   26.2338  -16.1261  -18.1128 O   0  0  0  0  0  0  0  0  0  0  0  0
  1  2  1  0
  3  2  1  0
  4  3  1  0
  5  7  1  0
  5  4  1  0
  5  6  1  1
  7  9  1  0
  8  7  2  0
  9 10  1  0
  9 13  1  0
 10 11  1  0
 11 12  1  0
 13 12  1  0
 13 14  1  6
 14 20  1  0
 15 14  2  0
 17 16  1  6
 18 17  1  0
 19 17  1  0
 19 20  1  1
 19 21  1  0
 21 22  1  0
 23 21  2  0
M  END
$$$$
