MPT.pdb
     RDKit          3D

 23 23  0  0  1  0  0  0  0  0999 V2000
   25.5106  -22.1505   -8.3365 C   0  0  0  0  0  0  0  0  0  0  0  0
   26.2613  -20.7467   -9.1596 S   0  0  0  0  0  0  0  0  0  0  0  0
   25.1751  -20.0822  -10.4689 C   0  0  0  0  0  0  0  0  0  0  0  0
   25.7244  -20.4322  -11.8204 C   0  0  0  0  0  0  0  0  0  0  0  0
   24.7949  -19.9502  -12.9077 C   0  0  2  0  0  0  0  0  0  0  0  0
   23.5755  -20.7700  -12.9086 N   0  0  0  0  0  0  0  0  0  0  0  0
   25.4445  -19.9451  -14.2237 C   0  0  0  0  0  0  0  0  0  0  0  0
   25.4156  -20.9727  -14.9374 O   0  0  0  0  0  0  0  0  0  0  0  0
   26.1384  -18.7853  -14.7616 N   0  0  0  0  0  0  0  0  0  0  0  0
   26.2500  -17.5445  -14.0521 C   0  0  0  0  0  0  0  0  0  0  0  0
   26.7639  -16.5574  -15.0750 C   0  0  0  0  0  0  0  0  0  0  0  0
   27.4804  -17.4023  -16.0944 C   0  0  0  0  0  0  0  0  0  0  0  0
   26.7836  -18.7239  -16.0187 C   0  0  1  0  0  0  0  0  0  0  0  0
   27.7811  -19.8172  -16.2219 C   0  0  0  0  0  0  0  0  0  0  0  0
   28.6353  -20.0147  -15.3297 O   0  0  0  0  0  0  0  0  0  0  0  0
   27.8558  -23.3727  -16.2036 C   0  0  0  0  0  0  0  0  0  0  0  0
   28.2282  -23.0349  -17.6278 C   0  0  1  0  0  0  0  0  0  0  0  0
   27.0611  -23.1251  -18.3963 O   0  0  0  0  0  0  0  0  0  0  0  0
   28.8046  -21.6478  -17.6465 C   0  0  2  0  0  0  0  0  0  0  0  0
   27.8040  -20.6341  -17.3707 N   0  0  0  0  0  0  0  0  0  0  0  0
   29.2721  -21.3759  -19.0386 C   0  0  0  0  0  0  0  0  0  0  0  0
   30.4052  -22.0504  -19.4673 O   0  0  0  0  0  0  0  0  0  0  0  0
   28.7033  -20.5841  -19.8241 O   0  0  0  0  0  0  0  0  0  0  0  0
  1  2  1  0
  3  2  1  0
  4  3  1  0
  5  7  1  0
  5  4  1  0
  5  6  1  6
  7  9  1  0
  8  7  2  0
  9 10  1  0
  9 13  1  0
 10 11  1  0
 11 12  1  0
 13 12  1  0
 13 14  1  1
 14 20  1  0
 15 14  2  0
 17 16  1  1
 18 17  1  0
 19 17  1  0
 19 20  1  6
 19 21  1  0
 21 22  1  0
 23 21  2  0
M  END
$$$$
