MPT.pdb
     RDKit          3D

 23 23  0  0  1  0  0  0  0  0999 V2000
   19.7768  -22.9527  -19.7459 C   0  0  0  0  0  0  0  0  0  0  0  0
   21.3021  -22.0177  -19.8511 S   0  0  0  0  0  0  0  0  0  0  0  0
   21.2463  -20.5297  -18.7935 C   0  0  0  0  0  0  0  0  0  0  0  0
   20.4170  -20.7970  -17.5721 C   0  0  0  0  0  0  0  0  0  0  0  0
   21.1013  -20.2531  -16.3415 C   0  0  2  0  0  0  0  0  0  0  0  0
   21.7557  -21.3523  -15.6187 N   0  0  0  0  0  0  0  0  0  0  0  0
   20.1729  -19.5144  -15.4777 C   0  0  0  0  0  0  0  0  0  0  0  0
   19.2589  -20.1245  -14.8788 O   0  0  0  0  0  0  0  0  0  0  0  0
   20.2544  -18.0768  -15.2711 N   0  0  0  0  0  0  0  0  0  0  0  0
   21.2875  -17.2638  -15.8433 C   0  0  0  0  0  0  0  0  0  0  0  0
   21.1654  -15.9306  -15.1417 C   0  0  0  0  0  0  0  0  0  0  0  0
   19.7319  -15.8691  -14.6857 C   0  0  0  0  0  0  0  0  0  0  0  0
   19.3511  -17.3043  -14.5045 C   0  0  1  0  0  0  0  0  0  0  0  0
   17.9260  -17.4894  -14.9123 C   0  0  0  0  0  0  0  0  0  0  0  0
   17.6671  -17.6028  -16.1307 O   0  0  0  0  0  0  0  0  0  0  0  0
   15.4131  -20.1318  -14.1576 C   0  0  0  0  0  0  0  0  0  0  0  0
   14.8211  -18.8492  -13.6229 C   0  0  1  0  0  0  0  0  0  0  0  0
   15.0793  -18.8129  -12.2471 O   0  0  0  0  0  0  0  0  0  0  0  0
   15.4640  -17.6986  -14.3435 C   0  0  2  0  0  0  0  0  0  0  0  0
   16.8619  -17.5413  -13.9887 N   0  0  0  0  0  0  0  0  0  0  0  0
   14.7932  -16.4480  -13.8785 C   0  0  0  0  0  0  0  0  0  0  0  0
   13.4656  -16.2722  -14.2382 O   0  0  0  0  0  0  0  0  0  0  0  0
   15.3583  -15.5659  -13.1929 O   0  0  0  0  0  0  0  0  0  0  0  0
  1  2  1  0
  3  2  1  0
  4  3  1  0
  5  7  1  0
  5  4  1  0
  5  6  1  1
  7  9  1  0
  8  7  2  0
  9 10  1  0
  9 13  1  0
 10 11  1  0
 11 12  1  0
 13 12  1  0
 13 14  1  6
 14 20  1  0
 15 14  2  0
 17 16  1  6
 18 17  1  0
 19 17  1  0
 19 20  1  1
 19 21  1  0
 21 22  1  0
 23 21  2  0
M  END
$$$$
