MPT.pdb
     RDKit          3D

 23 23  0  0  1  0  0  0  0  0999 V2000
   26.5496  -20.5890   -8.8557 C   0  0  0  0  0  0  0  0  0  0  0  0
   24.8088  -21.0002   -8.9662 S   0  0  0  0  0  0  0  0  0  0  0  0
   24.0623  -20.3351  -10.4945 C   0  0  0  0  0  0  0  0  0  0  0  0
   24.8086  -20.8402  -11.6940 C   0  0  0  0  0  0  0  0  0  0  0  0
   24.2086  -20.2814  -12.9614 C   0  0  2  0  0  0  0  0  0  0  0  0
   22.8333  -20.7760  -13.1118 N   0  0  0  0  0  0  0  0  0  0  0  0
   25.0269  -20.5908  -14.1397 C   0  0  0  0  0  0  0  0  0  0  0  0
   24.6447  -21.4618  -14.9530 O   0  0  0  0  0  0  0  0  0  0  0  0
   26.2894  -19.9272  -14.4257 N   0  0  0  0  0  0  0  0  0  0  0  0
   26.8043  -18.8529  -13.6280 C   0  0  0  0  0  0  0  0  0  0  0  0
   27.9451  -18.2806  -14.4376 C   0  0  0  0  0  0  0  0  0  0  0  0
   28.3934  -19.4148  -15.3203 C   0  0  0  0  0  0  0  0  0  0  0  0
   27.1599  -20.2429  -15.4947 C   0  0  1  0  0  0  0  0  0  0  0  0
   27.5398  -21.6870  -15.5370 C   0  0  0  0  0  0  0  0  0  0  0  0
   27.9301  -22.2292  -14.4796 O   0  0  0  0  0  0  0  0  0  0  0  0
   25.8600  -24.7326  -15.5911 C   0  0  0  0  0  0  0  0  0  0  0  0
   26.5824  -24.7366  -16.9176 C   0  0  1  0  0  0  0  0  0  0  0  0
   25.6932  -24.2383  -17.8777 O   0  0  0  0  0  0  0  0  0  0  0  0
   27.8067  -23.8757  -16.7885 C   0  0  2  0  0  0  0  0  0  0  0  0
   27.4794  -22.4645  -16.7116 N   0  0  0  0  0  0  0  0  0  0  0  0
   28.5983  -24.0318  -18.0453 C   0  0  0  0  0  0  0  0  0  0  0  0
   29.2377  -25.2464  -18.2421 O   0  0  0  0  0  0  0  0  0  0  0  0
   28.7121  -23.1380  -18.9144 O   0  0  0  0  0  0  0  0  0  0  0  0
  1  2  1  0
  3  2  1  0
  4  3  1  0
  5  7  1  0
  5  4  1  0
  5  6  1  6
  7  9  1  0
  8  7  2  0
  9 10  1  0
  9 13  1  0
 10 11  1  0
 11 12  1  0
 13 12  1  0
 13 14  1  1
 14 20  1  0
 15 14  2  0
 17 16  1  1
 18 17  1  0
 19 17  1  0
 19 20  1  6
 19 21  1  0
 21 22  1  0
 23 21  2  0
M  END
$$$$
