MPT.pdb
     RDKit          3D

 23 23  0  0  1  0  0  0  0  0999 V2000
   21.9822  -15.8539  -15.9800 C   0  0  0  0  0  0  0  0  0  0  0  0
   23.0940  -15.6080  -17.3638 S   0  0  0  0  0  0  0  0  0  0  0  0
   24.0777  -17.1088  -17.7036 C   0  0  0  0  0  0  0  0  0  0  0  0
   24.1727  -17.9530  -16.4669 C   0  0  0  0  0  0  0  0  0  0  0  0
   24.9847  -19.1960  -16.7388 C   0  0  2  0  0  0  0  0  0  0  0  0
   24.2377  -20.0810  -17.6432 N   0  0  0  0  0  0  0  0  0  0  0  0
   25.3662  -19.8851  -15.5005 C   0  0  0  0  0  0  0  0  0  0  0  0
   24.5071  -20.5238  -14.8522 O   0  0  0  0  0  0  0  0  0  0  0  0
   26.7198  -19.8689  -14.9680 N   0  0  0  0  0  0  0  0  0  0  0  0
   27.8233  -19.2699  -15.6601 C   0  0  0  0  0  0  0  0  0  0  0  0
   29.0507  -19.7389  -14.9130 C   0  0  0  0  0  0  0  0  0  0  0  0
   28.5570  -20.0504  -13.5253 C   0  0  0  0  0  0  0  0  0  0  0  0
   27.1222  -20.4209  -13.7296 C   0  0  1  0  0  0  0  0  0  0  0  0
   26.3171  -19.9224  -12.5742 C   0  0  0  0  0  0  0  0  0  0  0  0
   25.9845  -18.7167  -12.5587 O   0  0  0  0  0  0  0  0  0  0  0  0
   23.1942  -20.5498   -8.9275 C   0  0  0  0  0  0  0  0  0  0  0  0
   23.9143  -21.1036  -10.1342 C   0  0  1  0  0  0  0  0  0  0  0  0
   23.0384  -21.0076  -11.2224 O   0  0  0  0  0  0  0  0  0  0  0  0
   25.1629  -20.2962  -10.3479 C   0  0  2  0  0  0  0  0  0  0  0  0
   25.9166  -20.7467  -11.5028 N   0  0  0  0  0  0  0  0  0  0  0  0
   26.0556  -20.5331   -9.1742 C   0  0  0  0  0  0  0  0  0  0  0  0
   25.7961  -19.8009   -8.0256 O   0  0  0  0  0  0  0  0  0  0  0  0
   27.0092  -21.3443   -9.1746 O   0  0  0  0  0  0  0  0  0  0  0  0
  1  2  1  0
  3  2  1  0
  4  3  1  0
  5  7  1  0
  5  4  1  0
  5  6  1  6
  7  9  1  0
  8  7  2  0
  9 10  1  0
  9 13  1  0
 10 11  1  0
 11 12  1  0
 13 12  1  0
 13 14  1  1
 14 20  1  0
 15 14  2  0
 17 16  1  1
 18 17  1  0
 19 17  1  0
 19 20  1  6
 19 21  1  0
 21 22  1  0
 23 21  2  0
M  END
$$$$
