MPT.pdb
     RDKit          3D

 23 23  0  0  1  0  0  0  0  0999 V2000
   14.6051  -13.0889  -19.6993 C   0  0  0  0  0  0  0  0  0  0  0  0
   14.6722  -14.5015  -18.5984 S   0  0  0  0  0  0  0  0  0  0  0  0
   16.3960  -14.9600  -18.2064 C   0  0  0  0  0  0  0  0  0  0  0  0
   17.1220  -13.7831  -17.6243 C   0  0  0  0  0  0  0  0  0  0  0  0
   18.3425  -14.2409  -16.8633 C   0  0  2  0  0  0  0  0  0  0  0  0
   17.9235  -14.9705  -15.6587 N   0  0  0  0  0  0  0  0  0  0  0  0
   19.2370  -13.1244  -16.5360 C   0  0  0  0  0  0  0  0  0  0  0  0
   19.0283  -12.4381  -15.5106 O   0  0  0  0  0  0  0  0  0  0  0  0
   20.3822  -12.7587  -17.3551 N   0  0  0  0  0  0  0  0  0  0  0  0
   20.7433  -13.4632  -18.5504 C   0  0  0  0  0  0  0  0  0  0  0  0
   22.1236  -12.9550  -18.8985 C   0  0  0  0  0  0  0  0  0  0  0  0
   22.2000  -11.5922  -18.2633 C   0  0  0  0  0  0  0  0  0  0  0  0
   21.2687  -11.6874  -17.0965 C   0  0  1  0  0  0  0  0  0  0  0  0
   20.5722  -10.3782  -16.9161 C   0  0  0  0  0  0  0  0  0  0  0  0
   19.5498  -10.1506  -17.5997 O   0  0  0  0  0  0  0  0  0  0  0  0
   19.9670   -8.8739  -13.4571 C   0  0  0  0  0  0  0  0  0  0  0  0
   19.3006   -8.2651  -14.6682 C   0  0  1  0  0  0  0  0  0  0  0  0
   18.7922   -7.0190  -14.2816 O   0  0  0  0  0  0  0  0  0  0  0  0
   20.3289   -8.1371  -15.7558 C   0  0  2  0  0  0  0  0  0  0  0  0
   21.0141   -9.3896  -16.0132 N   0  0  0  0  0  0  0  0  0  0  0  0
   21.3841   -7.2005  -15.2663 C   0  0  0  0  0  0  0  0  0  0  0  0
   22.6332   -7.7403  -14.9996 O   0  0  0  0  0  0  0  0  0  0  0  0
   21.2016   -5.9748  -15.0874 O   0  0  0  0  0  0  0  0  0  0  0  0
  1  2  1  0
  3  2  1  0
  4  3  1  0
  5  7  1  0
  5  4  1  0
  5  6  1  1
  7  9  1  0
  8  7  2  0
  9 10  1  0
  9 13  1  0
 10 11  1  0
 11 12  1  0
 13 12  1  0
 13 14  1  6
 14 20  1  0
 15 14  2  0
 17 16  1  1
 18 17  1  0
 19 17  1  0
 19 20  1  1
 19 21  1  0
 21 22  1  0
 23 21  2  0
M  END
$$$$
