MPT.pdb
     RDKit          3D

 23 23  0  0  1  0  0  0  0  0999 V2000
   14.2111  -31.9359   -5.8617 C   0  0  0  0  0  0  0  0  0  0  0  0
   15.3845  -33.2066   -5.3924 S   0  0  0  0  0  0  0  0  0  0  0  0
   17.0775  -32.5344   -5.2593 C   0  0  0  0  0  0  0  0  0  0  0  0
   17.2429  -31.8102   -3.9559 C   0  0  0  0  0  0  0  0  0  0  0  0
   18.6481  -31.2747   -3.8255 C   0  0  2  0  0  0  0  0  0  0  0  0
   19.5900  -32.3957   -3.7024 N   0  0  0  0  0  0  0  0  0  0  0  0
   18.7764  -30.3347   -2.7057 C   0  0  0  0  0  0  0  0  0  0  0  0
   19.1013  -30.7552   -1.5727 O   0  0  0  0  0  0  0  0  0  0  0  0
   18.5418  -28.9053   -2.8388 N   0  0  0  0  0  0  0  0  0  0  0  0
   18.2181  -28.2807   -4.0881 C   0  0  0  0  0  0  0  0  0  0  0  0
   18.3586  -26.7983   -3.8287 C   0  0  0  0  0  0  0  0  0  0  0  0
   18.1489  -26.6487   -2.3454 C   0  0  0  0  0  0  0  0  0  0  0  0
   18.5943  -27.9626   -1.7858 C   0  0  1  0  0  0  0  0  0  0  0  0
   17.7219  -28.3243   -0.6284 C   0  0  0  0  0  0  0  0  0  0  0  0
   16.6153  -28.8580   -0.8632 O   0  0  0  0  0  0  0  0  0  0  0  0
   18.9472  -29.9664    2.8298 C   0  0  0  0  0  0  0  0  0  0  0  0
   18.1287  -28.7223    3.0818 C   0  0  1  0  0  0  0  0  0  0  0  0
   19.0260  -27.6767    3.3313 O   0  0  0  0  0  0  0  0  0  0  0  0
   17.2869  -28.4592    1.8658 C   0  0  2  0  0  0  0  0  0  0  0  0
   18.0877  -28.0917    0.7132 N   0  0  0  0  0  0  0  0  0  0  0  0
   16.4396  -27.2644    2.1577 C   0  0  0  0  0  0  0  0  0  0  0  0
   15.4063  -27.4302    3.0674 O   0  0  0  0  0  0  0  0  0  0  0  0
   16.6115  -26.1412    1.6322 O   0  0  0  0  0  0  0  0  0  0  0  0
  1  2  1  0
  3  2  1  0
  4  3  1  0
  5  7  1  0
  5  4  1  0
  5  6  1  1
  7  9  1  0
  8  7  2  0
  9 10  1  0
  9 13  1  0
 10 11  1  0
 11 12  1  0
 13 12  1  0
 13 14  1  1
 14 20  1  0
 15 14  2  0
 17 16  1  6
 18 17  1  0
 19 17  1  0
 19 20  1  6
 19 21  1  0
 21 22  1  0
 23 21  2  0
M  END
$$$$
