DCY.pdb
     RDKit          3D

 27 27  0  0  1  0  0  0  0  0999 V2000
   18.5707  -14.4853  -16.9567 N   0  0  0  0  0  0  0  0  0  0  0  0
   18.0320  -13.3643  -16.2341 C   0  0  1  0  0  0  0  0  0  0  0  0
   17.7286  -13.6808  -14.8070 C   0  0  0  0  0  0  0  0  0  0  0  0
   16.6506  -14.6885  -14.6437 C   0  0  0  0  0  0  0  0  0  0  0  0
   15.6062  -14.7008  -15.3371 O   0  0  0  0  0  0  0  0  0  0  0  0
   18.8711  -12.1582  -16.3504 C   0  0  0  0  0  0  0  0  0  0  0  0
   20.1301  -12.1908  -16.1388 O   0  0  0  0  0  0  0  0  0  0  0  0
   16.7577  -15.7028  -13.6755 O   0  0  0  0  0  0  0  0  0  0  0  0
   18.3629  -10.8729  -16.7003 N   0  0  0  0  0  0  0  0  0  0  0  0
   19.2091   -9.7337  -16.9889 C   0  0  1  0  0  0  0  0  0  0  0  0
   18.7778   -9.1097  -18.2667 C   0  0  0  0  0  0  0  0  0  0  0  0
   19.2855  -10.1706  -19.6442 S   0  0  0  0  0  0  0  0  0  0  0  0
   19.2377   -8.7766  -15.8519 C   0  0  0  0  0  0  0  0  0  0  0  0
   18.2043   -8.6852  -15.1453 O   0  0  0  0  0  0  0  0  0  0  0  0
   25.8107   -5.0748  -17.0822 O   0  0  0  0  0  0  0  0  0  0  0  0
   24.8107   -5.5830  -16.2516 C   0  0  0  0  0  0  0  0  0  0  0  0
   24.5484   -6.9352  -16.2095 C   0  0  0  0  0  0  0  0  0  0  0  0
   23.5458   -7.4464  -15.3770 C   0  0  0  0  0  0  0  0  0  0  0  0
   22.7915   -6.6277  -14.5771 C   0  0  0  0  0  0  0  0  0  0  0  0
   21.7346   -7.1392  -13.6940 C   0  0  0  0  0  0  0  0  0  0  0  0
   20.3611   -7.1671  -14.3226 C   0  0  2  0  0  0  0  0  0  0  0  0
   20.3445   -7.9789  -15.5291 N   0  0  0  0  0  0  0  0  0  0  0  0
   19.8487   -5.7979  -14.5869 C   0  0  0  0  0  0  0  0  0  0  0  0
   19.5283   -4.9112  -13.5691 O   0  0  0  0  0  0  0  0  0  0  0  0
   23.0581   -5.2749  -14.6230 C   0  0  0  0  0  0  0  0  0  0  0  0
   24.0492   -4.7640  -15.4453 C   0  0  0  0  0  0  0  0  0  0  0  0
   19.7039   -5.4395  -15.7725 O   0  0  0  0  0  0  0  0  0  0  0  0
  2  1  1  1
  3  2  1  0
  4  3  1  0
  5  4  2  0
  6  2  1  0
  7  6  2  0
  8  4  1  0
  9  6  1  0
 10  9  1  0
 10 11  1  6
 11 12  1  0
 13 22  1  0
 13 10  1  0
 14 13  2  0
 16 15  1  0
 17 16  2  0
 18 17  1  0
 19 25  1  0
 19 18  2  0
 20 19  1  0
 21 23  1  0
 21 20  1  6
 21 22  1  0
 23 24  1  0
 25 26  2  0
 26 16  1  0
 27 23  2  0
M  END
$$$$
