DCY.pdb
     RDKit          3D

 27 27  0  0  1  0  0  0  0  0999 V2000
   20.1317  -13.8926  -18.6535 N   0  0  0  0  0  0  0  0  0  0  0  0
   20.9409  -12.7462  -18.3372 C   0  0  1  0  0  0  0  0  0  0  0  0
   21.9559  -12.4400  -19.3883 C   0  0  0  0  0  0  0  0  0  0  0  0
   22.9480  -13.5272  -19.5832 C   0  0  0  0  0  0  0  0  0  0  0  0
   23.9072  -13.7345  -18.8030 O   0  0  0  0  0  0  0  0  0  0  0  0
   20.1353  -11.5573  -18.0056 C   0  0  0  0  0  0  0  0  0  0  0  0
   19.2578  -11.0929  -18.8089 O   0  0  0  0  0  0  0  0  0  0  0  0
   22.8517  -14.3972  -20.6839 O   0  0  0  0  0  0  0  0  0  0  0  0
   20.2621  -10.8326  -16.7843 N   0  0  0  0  0  0  0  0  0  0  0  0
   19.4120   -9.7152  -16.4297 C   0  0  1  0  0  0  0  0  0  0  0  0
   18.0018  -10.1757  -16.3432 C   0  0  0  0  0  0  0  0  0  0  0  0
   17.8671  -11.4273  -15.0408 S   0  0  0  0  0  0  0  0  0  0  0  0
   19.8848   -9.0454  -15.1897 C   0  0  0  0  0  0  0  0  0  0  0  0
   20.4229   -9.7637  -14.3122 O   0  0  0  0  0  0  0  0  0  0  0  0
   25.0856   -4.7582  -17.3892 O   0  0  0  0  0  0  0  0  0  0  0  0
   24.2719   -5.3993  -16.4539 C   0  0  0  0  0  0  0  0  0  0  0  0
   24.1335   -6.7704  -16.4614 C   0  0  0  0  0  0  0  0  0  0  0  0
   23.3177   -7.4148  -15.5239 C   0  0  0  0  0  0  0  0  0  0  0  0
   22.6298   -6.7120  -14.5689 C   0  0  0  0  0  0  0  0  0  0  0  0
   21.7683   -7.3643  -13.5734 C   0  0  0  0  0  0  0  0  0  0  0  0
   20.2962   -7.0671  -13.7376 C   0  0  2  0  0  0  0  0  0  0  0  0
   19.7637   -7.6695  -14.9494 N   0  0  0  0  0  0  0  0  0  0  0  0
   20.0212   -5.6078  -13.6951 C   0  0  0  0  0  0  0  0  0  0  0  0
   19.4345   -4.9275  -14.7524 O   0  0  0  0  0  0  0  0  0  0  0  0
   22.7718   -5.3397  -14.5657 C   0  0  0  0  0  0  0  0  0  0  0  0
   23.5779   -4.6973  -15.4913 C   0  0  0  0  0  0  0  0  0  0  0  0
   20.3328   -4.9773  -12.6654 O   0  0  0  0  0  0  0  0  0  0  0  0
  2  1  1  6
  3  2  1  0
  4  3  1  0
  5  4  2  0
  6  2  1  0
  7  6  2  0
  8  4  1  0
  9  6  1  0
 10  9  1  0
 10 11  1  1
 11 12  1  0
 13 22  1  0
 13 10  1  0
 14 13  2  0
 16 15  1  0
 17 16  2  0
 18 17  1  0
 19 25  1  0
 19 18  2  0
 20 19  1  0
 21 23  1  0
 21 20  1  6
 21 22  1  0
 23 24  1  0
 25 26  2  0
 26 16  1  0
 27 23  2  0
M  END
$$$$
