DCY.pdb
     RDKit          3D

 27 27  0  0  1  0  0  0  0  0999 V2000
   19.6529  -12.9841  -16.4103 N   0  0  0  0  0  0  0  0  0  0  0  0
   20.5312  -11.9659  -16.9209 C   0  0  1  0  0  0  0  0  0  0  0  0
   20.8863  -12.1673  -18.3570 C   0  0  0  0  0  0  0  0  0  0  0  0
   21.4908  -13.4950  -18.6333 C   0  0  0  0  0  0  0  0  0  0  0  0
   21.7286  -14.3442  -17.7423 O   0  0  0  0  0  0  0  0  0  0  0  0
   20.0219  -10.6040  -16.6793 C   0  0  0  0  0  0  0  0  0  0  0  0
   20.3188   -9.6278  -17.4474 O   0  0  0  0  0  0  0  0  0  0  0  0
   21.8327  -13.8682  -19.9453 O   0  0  0  0  0  0  0  0  0  0  0  0
   19.1712  -10.2607  -15.5880 N   0  0  0  0  0  0  0  0  0  0  0  0
   18.7883   -8.8998  -15.2744 C   0  0  1  0  0  0  0  0  0  0  0  0
   17.6367   -8.9150  -14.3353 C   0  0  0  0  0  0  0  0  0  0  0  0
   16.2226   -9.7047  -15.1461 S   0  0  0  0  0  0  0  0  0  0  0  0
   19.9439   -8.1133  -14.7688 C   0  0  0  0  0  0  0  0  0  0  0  0
   20.8719   -8.7436  -14.2057 O   0  0  0  0  0  0  0  0  0  0  0  0
   26.9042   -3.7946  -17.4195 O   0  0  0  0  0  0  0  0  0  0  0  0
   25.7374   -4.4941  -17.1078 C   0  0  0  0  0  0  0  0  0  0  0  0
   25.3950   -4.7462  -15.7969 C   0  0  0  0  0  0  0  0  0  0  0  0
   24.2251   -5.4477  -15.4827 C   0  0  0  0  0  0  0  0  0  0  0  0
   23.3806   -5.9077  -16.4597 C   0  0  0  0  0  0  0  0  0  0  0  0
   22.1467   -6.6452  -16.1563 C   0  0  0  0  0  0  0  0  0  0  0  0
   21.3499   -6.0742  -15.0068 C   0  0  2  0  0  0  0  0  0  0  0  0
   20.0528   -6.7204  -14.8855 N   0  0  0  0  0  0  0  0  0  0  0  0
   21.2094   -4.5990  -15.1134 C   0  0  0  0  0  0  0  0  0  0  0  0
   21.9481   -3.7205  -14.3340 O   0  0  0  0  0  0  0  0  0  0  0  0
   23.7280   -5.6527  -17.7702 C   0  0  0  0  0  0  0  0  0  0  0  0
   24.8848   -4.9589  -18.0864 C   0  0  0  0  0  0  0  0  0  0  0  0
   20.3937   -4.1410  -15.9378 O   0  0  0  0  0  0  0  0  0  0  0  0
  2  1  1  6
  3  2  1  0
  4  3  1  0
  5  4  2  0
  6  2  1  0
  7  6  2  0
  8  4  1  0
  9  6  1  0
 10  9  1  0
 10 11  1  1
 11 12  1  0
 13 22  1  0
 13 10  1  0
 14 13  2  0
 16 15  1  0
 17 16  2  0
 18 17  1  0
 19 25  1  0
 19 18  2  0
 20 19  1  0
 21 23  1  0
 21 20  1  6
 21 22  1  0
 23 24  1  0
 25 26  2  0
 26 16  1  0
 27 23  2  0
M  END
$$$$
