DCY.pdb
     RDKit          3D

 27 27  0  0  1  0  0  0  0  0999 V2000
   30.9810  -36.3361   -3.1908 N   0  0  0  0  0  0  0  0  0  0  0  0
   30.3994  -36.1664   -1.8863 C   0  0  1  0  0  0  0  0  0  0  0  0
   31.4060  -36.2283   -0.7855 C   0  0  0  0  0  0  0  0  0  0  0  0
   31.4225  -37.5322   -0.0755 C   0  0  0  0  0  0  0  0  0  0  0  0
   30.6260  -38.4665   -0.3291 O   0  0  0  0  0  0  0  0  0  0  0  0
   29.5703  -34.9517   -1.7885 C   0  0  0  0  0  0  0  0  0  0  0  0
   30.0505  -33.7890   -2.0089 O   0  0  0  0  0  0  0  0  0  0  0  0
   32.3603  -37.7829    0.9421 O   0  0  0  0  0  0  0  0  0  0  0  0
   28.1868  -34.9650   -1.4442 N   0  0  0  0  0  0  0  0  0  0  0  0
   27.3508  -33.7827   -1.4607 C   0  0  1  0  0  0  0  0  0  0  0  0
   26.2902  -33.9425   -2.4892 C   0  0  0  0  0  0  0  0  0  0  0  0
   25.2493  -32.4602   -2.5008 S   0  0  0  0  0  0  0  0  0  0  0  0
   26.8125  -33.4794   -0.1087 C   0  0  0  0  0  0  0  0  0  0  0  0
   26.4540  -34.4490    0.6032 O   0  0  0  0  0  0  0  0  0  0  0  0
   24.0128  -29.4523    7.2902 O   0  0  0  0  0  0  0  0  0  0  0  0
   24.5893  -29.7291    6.0496 C   0  0  0  0  0  0  0  0  0  0  0  0
   23.9364  -29.4046    4.8802 C   0  0  0  0  0  0  0  0  0  0  0  0
   24.5133  -29.6815    3.6352 C   0  0  0  0  0  0  0  0  0  0  0  0
   25.7414  -30.2819    3.5317 C   0  0  0  0  0  0  0  0  0  0  0  0
   26.3689  -30.5822    2.2376 C   0  0  0  0  0  0  0  0  0  0  0  0
   26.0192  -31.9419    1.6796 C   0  0  2  0  0  0  0  0  0  0  0  0
   26.6846  -32.1829    0.4092 N   0  0  0  0  0  0  0  0  0  0  0  0
   24.5498  -32.1276    1.5624 C   0  0  0  0  0  0  0  0  0  0  0  0
   23.8751  -32.0009    0.3568 O   0  0  0  0  0  0  0  0  0  0  0  0
   26.3907  -30.6047    4.7053 C   0  0  0  0  0  0  0  0  0  0  0  0
   25.8240  -30.3327    5.9399 C   0  0  0  0  0  0  0  0  0  0  0  0
   23.9055  -32.4080    2.5925 O   0  0  0  0  0  0  0  0  0  0  0  0
  2  1  1  6
  3  2  1  0
  4  3  1  0
  5  4  2  0
  6  2  1  0
  7  6  2  0
  8  4  1  0
  9  6  1  0
 10  9  1  0
 10 11  1  6
 11 12  1  0
 13 22  1  0
 13 10  1  0
 14 13  2  0
 16 15  1  0
 17 16  2  0
 18 17  1  0
 19 25  1  0
 19 18  2  0
 20 19  1  0
 21 23  1  0
 21 20  1  6
 21 22  1  0
 23 24  1  0
 25 26  2  0
 26 16  1  0
 27 23  2  0
M  END
$$$$
