DCY.pdb
     RDKit          3D

 27 27  0  0  1  0  0  0  0  0999 V2000
   12.8903  -12.3345  -13.7015 N   0  0  0  0  0  0  0  0  0  0  0  0
   13.8896  -12.2588  -12.6697 C   0  0  1  0  0  0  0  0  0  0  0  0
   15.2268  -12.7516  -13.1145 C   0  0  0  0  0  0  0  0  0  0  0  0
   15.2572  -14.2118  -13.3814 C   0  0  0  0  0  0  0  0  0  0  0  0
   15.3840  -14.7015  -14.5284 O   0  0  0  0  0  0  0  0  0  0  0  0
   13.9843  -10.9162  -12.0690 C   0  0  0  0  0  0  0  0  0  0  0  0
   13.9763   -9.8570  -12.7827 O   0  0  0  0  0  0  0  0  0  0  0  0
   15.1417  -15.1360  -12.3276 O   0  0  0  0  0  0  0  0  0  0  0  0
   14.0931  -10.6839  -10.6666 N   0  0  0  0  0  0  0  0  0  0  0  0
   14.0889   -9.3617  -10.0758 C   0  0  1  0  0  0  0  0  0  0  0  0
   13.4089   -9.4133   -8.7555 C   0  0  0  0  0  0  0  0  0  0  0  0
   13.5395   -7.7917   -7.9592 S   0  0  0  0  0  0  0  0  0  0  0  0
   15.4611   -8.7946  -10.0043 C   0  0  0  0  0  0  0  0  0  0  0  0
   16.4216   -9.6024   -9.9824 O   0  0  0  0  0  0  0  0  0  0  0  0
   22.6692   -5.1027  -12.8649 O   0  0  0  0  0  0  0  0  0  0  0  0
   21.4389   -5.6682  -12.5263 C   0  0  0  0  0  0  0  0  0  0  0  0
   20.2582   -5.0711  -12.9115 C   0  0  0  0  0  0  0  0  0  0  0  0
   19.0235   -5.6371  -12.5726 C   0  0  0  0  0  0  0  0  0  0  0  0
   18.9417   -6.7989  -11.8496 C   0  0  0  0  0  0  0  0  0  0  0  0
   17.6589   -7.4136  -11.4821 C   0  0  0  0  0  0  0  0  0  0  0  0
   17.0852   -6.9173  -10.1756 C   0  0  2  0  0  0  0  0  0  0  0  0
   15.7381   -7.4210   -9.9604 N   0  0  0  0  0  0  0  0  0  0  0  0
   17.1279   -5.4352  -10.0833 C   0  0  0  0  0  0  0  0  0  0  0  0
   18.2297   -4.7490   -9.5933 O   0  0  0  0  0  0  0  0  0  0  0  0
   20.1266   -7.3925  -11.4664 C   0  0  0  0  0  0  0  0  0  0  0  0
   21.3510   -6.8364  -11.7993 C   0  0  0  0  0  0  0  0  0  0  0  0
   16.1305   -4.7903  -10.4630 O   0  0  0  0  0  0  0  0  0  0  0  0
  2  1  1  6
  3  2  1  0
  4  3  1  0
  5  4  2  0
  6  2  1  0
  7  6  2  0
  8  4  1  0
  9  6  1  0
 10  9  1  0
 10 11  1  1
 11 12  1  0
 13 22  1  0
 13 10  1  0
 14 13  2  0
 16 15  1  0
 17 16  2  0
 18 17  1  0
 19 25  1  0
 19 18  2  0
 20 19  1  0
 21 23  1  0
 21 20  1  6
 21 22  1  0
 23 24  1  0
 25 26  2  0
 26 16  1  0
 27 23  2  0
M  END
$$$$
