GDQ.pdb
     RDKit          3D

 22 21  0  0  1  0  0  0  0  0999 V2000
    7.5969  -13.6558   17.7438 N   0  0  0  0  0  0  0  0  0  0  0  0
    8.8927  -13.0498   17.8962 C   0  0  0  0  0  0  0  0  0  0  0  0
    9.8462  -14.0934   18.3507 C   0  0  0  0  0  0  0  0  0  0  0  0
    9.4944  -15.2788   18.5961 O   0  0  0  0  0  0  0  0  0  0  0  0
   11.2451  -13.7972   18.5367 N   0  0  0  0  0  0  0  0  0  0  0  0
   12.1715  -14.7509   19.0506 C   0  0  1  0  0  0  0  0  0  0  0  0
   13.6052  -14.4673   18.7692 C   0  0  0  0  0  0  0  0  0  0  0  0
   14.4061  -15.6765   18.4826 C   0  0  0  0  0  0  0  0  0  0  0  0
   13.8561  -16.7985   18.5869 O   0  0  0  0  0  0  0  0  0  0  0  0
   11.9789  -14.8067   20.5361 C   0  0  0  0  0  0  0  0  0  0  0  0
   12.2653  -13.8500   21.2964 O   0  0  0  0  0  0  0  0  0  0  0  0
   15.7322  -15.6244   18.1052 O   0  0  0  0  0  0  0  0  0  0  0  0
    6.9060  -14.1957   22.0045 N   0  0  0  0  0  0  0  0  0  0  0  0
    7.3332  -14.6637   23.2738 C   0  0  0  0  0  0  0  0  0  0  0  0
    6.6132  -14.5599   24.3136 O   0  0  0  0  0  0  0  0  0  0  0  0
    8.6485  -15.3112   23.4589 C   0  0  0  0  0  0  0  0  0  0  0  0
    9.5133  -15.3138   22.2577 C   0  0  0  0  0  0  0  0  0  0  0  0
   10.8492  -15.9224   22.4550 C   0  0  2  0  0  0  0  0  0  0  0  0
   11.4529  -15.9875   21.0972 N   0  0  0  0  0  0  0  0  0  0  0  0
   10.9442  -17.2673   23.0046 C   0  0  0  0  0  0  0  0  0  0  0  0
   10.9394  -17.5076   24.3907 O   0  0  0  0  0  0  0  0  0  0  0  0
   11.0394  -18.3410   22.3166 O   0  0  0  0  0  0  0  0  0  0  0  0
  1  2  1  0
  3  2  1  0
  3  5  1  0
  4  3  2  0
  5  6  1  0
  6  7  1  1
  6 10  1  0
  7  8  1  0
  8 12  1  0
  9  8  2  0
 10 11  2  0
 10 19  1  0
 14 13  1  0
 14 16  1  0
 15 14  2  0
 17 16  1  0
 18 17  1  6
 19 18  1  0
 20 21  1  0
 20 18  1  0
 22 20  2  0
M  END
$$$$
