GDQ.pdb
     RDKit          3D

 22 21  0  0  1  0  0  0  0  0999 V2000
    3.2303  -23.1162   23.5099 N   0  0  0  0  0  0  0  0  0  0  0  0
    3.6688  -21.7544   23.3591 C   0  0  0  0  0  0  0  0  0  0  0  0
    5.1403  -21.7128   23.5545 C   0  0  0  0  0  0  0  0  0  0  0  0
    5.8204  -22.7364   23.8357 O   0  0  0  0  0  0  0  0  0  0  0  0
    5.8758  -20.4789   23.4302 N   0  0  0  0  0  0  0  0  0  0  0  0
    7.2933  -20.4115   23.5646 C   0  0  1  0  0  0  0  0  0  0  0  0
    7.9578  -19.3191   22.8028 C   0  0  0  0  0  0  0  0  0  0  0  0
    7.8553  -19.4689   21.3356 C   0  0  0  0  0  0  0  0  0  0  0  0
    8.4075  -20.4556   20.7937 O   0  0  0  0  0  0  0  0  0  0  0  0
    7.5967  -20.2302   25.0213 C   0  0  0  0  0  0  0  0  0  0  0  0
    6.9415  -19.4578   25.7625 O   0  0  0  0  0  0  0  0  0  0  0  0
    7.1785  -18.5705   20.5366 O   0  0  0  0  0  0  0  0  0  0  0  0
    8.5284  -22.6091   31.2735 N   0  0  0  0  0  0  0  0  0  0  0  0
    8.4351  -22.7768   29.8679 C   0  0  0  0  0  0  0  0  0  0  0  0
    7.4383  -23.3345   29.3151 O   0  0  0  0  0  0  0  0  0  0  0  0
    9.4980  -22.3013   28.9581 C   0  0  0  0  0  0  0  0  0  0  0  0
    9.0987  -22.2006   27.5365 C   0  0  0  0  0  0  0  0  0  0  0  0
    8.9474  -20.8170   27.0299 C   0  0  2  0  0  0  0  0  0  0  0  0
    8.6654  -20.9619   25.5767 N   0  0  0  0  0  0  0  0  0  0  0  0
   10.0690  -19.8945   27.1341 C   0  0  0  0  0  0  0  0  0  0  0  0
   10.4335  -19.2999   28.3558 O   0  0  0  0  0  0  0  0  0  0  0  0
   10.8208  -19.5339   26.1645 O   0  0  0  0  0  0  0  0  0  0  0  0
  1  2  1  0
  3  2  1  0
  3  5  1  0
  4  3  2  0
  5  6  1  0
  6  7  1  6
  6 10  1  0
  7  8  1  0
  8 12  1  0
  9  8  2  0
 10 11  2  0
 10 19  1  0
 14 13  1  0
 14 16  1  0
 15 14  2  0
 17 16  1  0
 18 17  1  6
 19 18  1  0
 20 21  1  0
 20 18  1  0
 22 20  2  0
M  END
$$$$
