GDQ.pdb
     RDKit          3D

 22 21  0  0  1  0  0  0  0  0999 V2000
   10.6307  -16.4386   17.7648 N   0  0  0  0  0  0  0  0  0  0  0  0
    9.9689  -15.4603   18.5860 C   0  0  0  0  0  0  0  0  0  0  0  0
   10.8683  -15.1123   19.7151 C   0  0  0  0  0  0  0  0  0  0  0  0
   11.5977  -14.0841   19.7144 O   0  0  0  0  0  0  0  0  0  0  0  0
   10.9531  -15.9474   20.8874 N   0  0  0  0  0  0  0  0  0  0  0  0
   11.8298  -15.6607   21.9743 C   0  0  1  0  0  0  0  0  0  0  0  0
   11.5401  -16.3881   23.2400 C   0  0  0  0  0  0  0  0  0  0  0  0
   12.4734  -16.0639   24.3398 C   0  0  0  0  0  0  0  0  0  0  0  0
   13.4140  -15.2667   24.1125 O   0  0  0  0  0  0  0  0  0  0  0  0
   13.2194  -16.0075   21.5320 C   0  0  0  0  0  0  0  0  0  0  0  0
   13.5635  -17.1733   21.2193 O   0  0  0  0  0  0  0  0  0  0  0  0
   12.3546  -16.6004   25.6054 O   0  0  0  0  0  0  0  0  0  0  0  0
   16.0772  -12.4600   17.5518 N   0  0  0  0  0  0  0  0  0  0  0  0
   17.1595  -13.2080   18.0828 C   0  0  0  0  0  0  0  0  0  0  0  0
   18.3655  -12.9795   17.7609 O   0  0  0  0  0  0  0  0  0  0  0  0
   16.9443  -14.2999   19.0548 C   0  0  0  0  0  0  0  0  0  0  0  0
   15.6736  -14.2174   19.8093 C   0  0  0  0  0  0  0  0  0  0  0  0
   15.4940  -15.2652   20.8407 C   0  0  2  0  0  0  0  0  0  0  0  0
   14.1763  -14.9752   21.4667 N   0  0  0  0  0  0  0  0  0  0  0  0
   16.4499  -15.3576   21.9350 C   0  0  0  0  0  0  0  0  0  0  0  0
   16.4221  -14.4693   23.0255 O   0  0  0  0  0  0  0  0  0  0  0  0
   17.3870  -16.2230   22.0256 O   0  0  0  0  0  0  0  0  0  0  0  0
  1  2  1  0
  3  2  1  0
  3  5  1  0
  4  3  2  0
  5  6  1  0
  6  7  1  1
  6 10  1  0
  7  8  1  0
  8 12  1  0
  9  8  2  0
 10 11  2  0
 10 19  1  0
 14 13  1  0
 14 16  1  0
 15 14  2  0
 17 16  1  0
 18 17  1  6
 19 18  1  0
 20 21  1  0
 20 18  1  0
 22 20  2  0
M  END
$$$$
