GDQ.pdb
     RDKit          3D

 22 21  0  0  1  0  0  0  0  0999 V2000
    5.6630  -26.2819   22.2653 N   0  0  0  0  0  0  0  0  0  0  0  0
    4.5568  -25.3657   22.3441 C   0  0  0  0  0  0  0  0  0  0  0  0
    5.0690  -23.9928   22.1035 C   0  0  0  0  0  0  0  0  0  0  0  0
    6.2957  -23.7367   21.9656 O   0  0  0  0  0  0  0  0  0  0  0  0
    4.1735  -22.8663   22.0142 N   0  0  0  0  0  0  0  0  0  0  0  0
    4.6327  -21.5335   21.8022 C   0  0  1  0  0  0  0  0  0  0  0  0
    3.7169  -20.6569   21.0224 C   0  0  0  0  0  0  0  0  0  0  0  0
    4.2473  -19.2960   20.7935 C   0  0  0  0  0  0  0  0  0  0  0  0
    5.2487  -19.1598   20.0514 O   0  0  0  0  0  0  0  0  0  0  0  0
    4.8515  -20.9157   23.1504 C   0  0  0  0  0  0  0  0  0  0  0  0
    4.0940  -21.1287   24.1282 O   0  0  0  0  0  0  0  0  0  0  0  0
    3.6884  -18.1693   21.3607 O   0  0  0  0  0  0  0  0  0  0  0  0
    9.8358  -21.0235   26.4253 N   0  0  0  0  0  0  0  0  0  0  0  0
    9.5856  -19.6271   26.4352 C   0  0  0  0  0  0  0  0  0  0  0  0
   10.3304  -18.8080   27.0554 O   0  0  0  0  0  0  0  0  0  0  0  0
    8.4387  -19.0399   25.7120 C   0  0  0  0  0  0  0  0  0  0  0  0
    7.5404  -20.0249   25.0689 C   0  0  0  0  0  0  0  0  0  0  0  0
    6.2169  -19.4922   24.6709 C   0  0  2  0  0  0  0  0  0  0  0  0
    5.9576  -20.0594   23.3206 N   0  0  0  0  0  0  0  0  0  0  0  0
    6.0376  -18.0527   24.5461 C   0  0  0  0  0  0  0  0  0  0  0  0
    5.9549  -17.4182   23.2933 O   0  0  0  0  0  0  0  0  0  0  0  0
    5.9388  -17.2336   25.5230 O   0  0  0  0  0  0  0  0  0  0  0  0
  1  2  1  0
  3  2  1  0
  3  5  1  0
  4  3  2  0
  5  6  1  0
  6  7  1  1
  6 10  1  0
  7  8  1  0
  8 12  1  0
  9  8  2  0
 10 11  2  0
 10 19  1  0
 14 13  1  0
 14 16  1  0
 15 14  2  0
 17 16  1  0
 18 17  1  6
 19 18  1  0
 20 21  1  0
 20 18  1  0
 22 20  2  0
M  END
$$$$
