GDQ.pdb
     RDKit          3D

 22 21  0  0  1  0  0  0  0  0999 V2000
    9.3389  -16.0241   18.7502 N   0  0  0  0  0  0  0  0  0  0  0  0
   10.4496  -16.1935   19.6486 C   0  0  0  0  0  0  0  0  0  0  0  0
    9.9204  -16.6042   20.9738 C   0  0  0  0  0  0  0  0  0  0  0  0
    8.6928  -16.5711   21.2584 O   0  0  0  0  0  0  0  0  0  0  0  0
   10.7996  -17.0690   22.0179 N   0  0  0  0  0  0  0  0  0  0  0  0
   10.3249  -17.4739   23.2996 C   0  0  1  0  0  0  0  0  0  0  0  0
   11.0834  -18.5809   23.9433 C   0  0  0  0  0  0  0  0  0  0  0  0
   11.0880  -19.8341   23.1590 C   0  0  0  0  0  0  0  0  0  0  0  0
   10.0069  -20.2389   22.6694 O   0  0  0  0  0  0  0  0  0  0  0  0
   10.3789  -16.2740   24.1965 C   0  0  0  0  0  0  0  0  0  0  0  0
   11.3848  -15.5277   24.2758 O   0  0  0  0  0  0  0  0  0  0  0  0
   12.2298  -20.5776   22.9422 O   0  0  0  0  0  0  0  0  0  0  0  0
    5.9474  -11.1462   26.9411 N   0  0  0  0  0  0  0  0  0  0  0  0
    6.2882  -12.3984   26.3678 C   0  0  0  0  0  0  0  0  0  0  0  0
    5.4578  -13.0887   25.7013 O   0  0  0  0  0  0  0  0  0  0  0  0
    7.6425  -12.9724   26.5082 C   0  0  0  0  0  0  0  0  0  0  0  0
    7.8887  -14.1865   25.6983 C   0  0  0  0  0  0  0  0  0  0  0  0
    9.2592  -14.7380   25.8059 C   0  0  2  0  0  0  0  0  0  0  0  0
    9.2476  -15.9764   24.9822 N   0  0  0  0  0  0  0  0  0  0  0  0
    9.7692  -15.1266   27.1130 C   0  0  0  0  0  0  0  0  0  0  0  0
    9.9801  -16.4735   27.4601 O   0  0  0  0  0  0  0  0  0  0  0  0
   10.0715  -14.3192   28.0574 O   0  0  0  0  0  0  0  0  0  0  0  0
  1  2  1  0
  3  2  1  0
  3  5  1  0
  4  3  2  0
  5  6  1  0
  6  7  1  1
  6 10  1  0
  7  8  1  0
  8 12  1  0
  9  8  2  0
 10 11  2  0
 10 19  1  0
 14 13  1  0
 14 16  1  0
 15 14  2  0
 17 16  1  0
 18 17  1  1
 19 18  1  0
 20 21  1  0
 20 18  1  0
 22 20  2  0
M  END
$$$$
