LIA.pdb
     RDKit          3D

 22 21  0  0  1  0  0  0  0  0999 V2000
   18.7250  -34.5564   -8.2339 C   0  0  0  0  0  0  0  0  0  0  0  0
   18.9636  -36.0654   -8.1312 C   0  0  2  0  0  0  0  0  0  0  0  0
   17.9467  -36.6257   -7.1879 C   0  0  0  0  0  0  0  0  0  0  0  0
   20.3812  -36.2801   -7.7067 C   0  0  0  0  0  0  0  0  0  0  0  0
   21.4129  -35.7460   -8.6366 C   0  0  2  0  0  0  0  0  0  0  0  0
   21.3018  -36.4523   -9.9163 N   0  0  0  0  0  0  0  0  0  0  0  0
   22.7942  -35.7494   -8.1293 C   0  0  0  0  0  0  0  0  0  0  0  0
   23.5162  -36.7563   -8.2318 O   0  0  0  0  0  0  0  0  0  0  0  0
   24.8969  -31.4725   -8.5899 C   0  0  0  0  0  0  0  0  0  0  0  0
   25.5795  -32.8477   -8.6563 C   0  0  0  0  0  0  0  0  0  0  0  0
   25.5860  -33.4014   -7.2762 C   0  0  2  0  0  0  0  0  0  0  0  0
   26.9737  -33.4860   -6.6781 C   0  0  0  0  0  0  0  0  0  0  0  0
   24.7411  -34.5864   -7.0332 C   0  0  2  0  0  0  0  0  0  0  0  0
   23.4306  -34.6565   -7.4953 N   0  0  0  0  0  0  0  0  0  0  0  0
   24.7474  -34.8410   -5.5498 C   0  0  0  0  0  0  0  0  0  0  0  0
   24.0287  -34.1547   -4.7764 O   0  0  0  0  0  0  0  0  0  0  0  0
   26.1915  -37.4292   -3.1832 C   0  0  0  0  0  0  0  0  0  0  0  0
   25.5184  -36.1311   -3.5256 C   0  0  2  0  0  0  0  0  0  0  0  0
   25.5460  -35.8463   -4.9552 N   0  0  0  0  0  0  0  0  0  0  0  0
   26.2945  -35.0450   -2.8400 C   0  0  0  0  0  0  0  0  0  0  0  0
   27.0459  -34.2574   -3.4698 O   0  0  0  0  0  0  0  0  0  0  0  0
   26.2001  -34.8798   -1.4668 O   0  0  0  0  0  0  0  0  0  0  0  0
  2  1  1  1
  2  3  1  0
  4  2  1  0
  5  4  1  0
  5  7  1  0
  5  6  1  6
  7 14  1  0
  7  8  2  0
  9 10  1  0
 10 11  1  0
 11 12  1  6
 13 11  1  0
 13 14  1  1
 15 13  1  0
 15 16  2  0
 18 17  1  6
 18 19  1  0
 19 15  1  0
 20 18  1  0
 21 20  2  0
 22 20  1  0
M  END
$$$$
