LIA.pdb
     RDKit          3D

 22 21  0  0  1  0  0  0  0  0999 V2000
   16.0216   -9.8750  -18.5406 C   0  0  0  0  0  0  0  0  0  0  0  0
   15.1561   -9.3500  -17.3918 C   0  0  2  0  0  0  0  0  0  0  0  0
   14.2489   -8.2981  -17.9469 C   0  0  0  0  0  0  0  0  0  0  0  0
   16.0689   -8.8673  -16.3103 C   0  0  0  0  0  0  0  0  0  0  0  0
   17.0184   -9.8818  -15.7776 C   0  0  2  0  0  0  0  0  0  0  0  0
   16.2502  -10.9456  -15.1240 N   0  0  0  0  0  0  0  0  0  0  0  0
   18.0848   -9.3640  -14.9058 C   0  0  0  0  0  0  0  0  0  0  0  0
   17.8883   -9.1672  -13.6941 O   0  0  0  0  0  0  0  0  0  0  0  0
   23.2081  -11.1128  -14.3915 C   0  0  0  0  0  0  0  0  0  0  0  0
   21.7505  -10.6407  -14.2746 C   0  0  0  0  0  0  0  0  0  0  0  0
   21.7488   -9.1675  -14.4775 C   0  0  2  0  0  0  0  0  0  0  0  0
   22.7527   -8.4477  -13.6029 C   0  0  0  0  0  0  0  0  0  0  0  0
   20.4300   -8.5114  -14.5633 C   0  0  2  0  0  0  0  0  0  0  0  0
   19.3970   -9.0451  -15.3275 N   0  0  0  0  0  0  0  0  0  0  0  0
   20.6676   -7.0888  -14.9936 C   0  0  0  0  0  0  0  0  0  0  0  0
   21.1741   -6.8329  -16.1176 O   0  0  0  0  0  0  0  0  0  0  0  0
   19.5890   -3.6480  -13.9609 C   0  0  0  0  0  0  0  0  0  0  0  0
   20.5646   -4.6027  -14.5871 C   0  0  2  0  0  0  0  0  0  0  0  0
   20.3410   -5.9829  -14.1737 N   0  0  0  0  0  0  0  0  0  0  0  0
   21.9295   -4.2087  -14.1040 C   0  0  0  0  0  0  0  0  0  0  0  0
   22.4853   -4.7749  -13.1282 O   0  0  0  0  0  0  0  0  0  0  0  0
   22.6260   -3.1892  -14.7346 O   0  0  0  0  0  0  0  0  0  0  0  0
  2  1  1  6
  2  3  1  0
  4  2  1  0
  5  4  1  0
  5  7  1  0
  5  6  1  1
  7 14  1  0
  7  8  2  0
  9 10  1  0
 10 11  1  0
 11 12  1  1
 13 11  1  0
 13 14  1  6
 15 13  1  0
 15 16  2  0
 18 17  1  1
 18 19  1  0
 19 15  1  0
 20 18  1  0
 21 20  2  0
 22 20  1  0
M  END
$$$$
