LIA.pdb
     RDKit          3D

 22 21  0  0  1  0  0  0  0  0999 V2000
   14.2182  -24.2263   -6.5923 C   0  0  0  0  0  0  0  0  0  0  0  0
   14.9331  -24.8116   -7.8134 C   0  0  2  0  0  0  0  0  0  0  0  0
   13.9092  -25.5098   -8.6512 C   0  0  0  0  0  0  0  0  0  0  0  0
   16.0342  -25.6963   -7.3227 C   0  0  0  0  0  0  0  0  0  0  0  0
   17.1196  -25.0072   -6.5735 C   0  0  2  0  0  0  0  0  0  0  0  0
   17.8518  -24.1394   -7.5007 N   0  0  0  0  0  0  0  0  0  0  0  0
   18.0263  -25.8816   -5.8128 C   0  0  0  0  0  0  0  0  0  0  0  0
   19.0921  -26.2901   -6.3056 O   0  0  0  0  0  0  0  0  0  0  0  0
   20.2688  -27.0795   -0.2926 C   0  0  0  0  0  0  0  0  0  0  0  0
   19.9350  -27.7207   -1.6486 C   0  0  0  0  0  0  0  0  0  0  0  0
   18.9629  -26.8251   -2.3300 C   0  0  2  0  0  0  0  0  0  0  0  0
   17.7791  -26.4633   -1.4591 C   0  0  0  0  0  0  0  0  0  0  0  0
   18.6172  -27.1604   -3.7247 C   0  0  2  0  0  0  0  0  0  0  0  0
   17.7996  -26.3372   -4.4928 N   0  0  0  0  0  0  0  0  0  0  0  0
   18.0389  -28.5499   -3.7183 C   0  0  0  0  0  0  0  0  0  0  0  0
   16.8007  -28.7305   -3.5774 O   0  0  0  0  0  0  0  0  0  0  0  0
   19.2932  -32.0599   -4.4319 C   0  0  0  0  0  0  0  0  0  0  0  0
   18.2752  -31.0443   -3.9989 C   0  0  2  0  0  0  0  0  0  0  0  0
   18.8400  -29.7065   -3.8674 N   0  0  0  0  0  0  0  0  0  0  0  0
   17.7964  -31.4611   -2.6392 C   0  0  0  0  0  0  0  0  0  0  0  0
   18.3355  -31.0460   -1.5815 O   0  0  0  0  0  0  0  0  0  0  0  0
   16.7255  -32.3324   -2.5130 O   0  0  0  0  0  0  0  0  0  0  0  0
  2  1  1  1
  2  3  1  0
  4  2  1  0
  5  4  1  0
  5  7  1  0
  5  6  1  6
  7 14  1  0
  7  8  2  0
  9 10  1  0
 10 11  1  0
 11 12  1  1
 13 11  1  0
 13 14  1  1
 15 13  1  0
 15 16  2  0
 18 17  1  1
 18 19  1  0
 19 15  1  0
 20 18  1  0
 21 20  2  0
 22 20  1  0
M  END
$$$$
