LIA.pdb
     RDKit          3D

 22 21  0  0  1  0  0  0  0  0999 V2000
   24.6349  -13.5207  -15.1924 C   0  0  0  0  0  0  0  0  0  0  0  0
   24.4037  -13.7130  -16.6938 C   0  0  2  0  0  0  0  0  0  0  0  0
   25.7166  -14.0686  -17.3165 C   0  0  0  0  0  0  0  0  0  0  0  0
   23.7876  -12.4602  -17.2294 C   0  0  0  0  0  0  0  0  0  0  0  0
   22.4400  -12.1317  -16.6905 C   0  0  2  0  0  0  0  0  0  0  0  0
   21.5244  -13.2295  -17.0153 N   0  0  0  0  0  0  0  0  0  0  0  0
   21.8915  -10.8265  -17.0918 C   0  0  0  0  0  0  0  0  0  0  0  0
   21.8648  -10.4777  -18.2848 O   0  0  0  0  0  0  0  0  0  0  0  0
   17.1575   -7.3858  -16.9815 C   0  0  0  0  0  0  0  0  0  0  0  0
   18.6882   -7.2587  -17.0260 C   0  0  0  0  0  0  0  0  0  0  0  0
   19.2497   -8.5580  -16.5699 C   0  0  2  0  0  0  0  0  0  0  0  0
   18.5466   -9.1118  -15.3493 C   0  0  0  0  0  0  0  0  0  0  0  0
   20.7206   -8.6679  -16.5317 C   0  0  2  0  0  0  0  0  0  0  0  0
   21.3558   -9.8622  -16.2060 N   0  0  0  0  0  0  0  0  0  0  0  0
   21.2243   -7.5845  -15.6163 C   0  0  0  0  0  0  0  0  0  0  0  0
   21.2965   -7.7746  -14.3736 O   0  0  0  0  0  0  0  0  0  0  0  0
   22.9114   -4.2136  -16.0025 C   0  0  0  0  0  0  0  0  0  0  0  0
   22.2298   -5.3052  -15.2286 C   0  0  2  0  0  0  0  0  0  0  0  0
   21.6362   -6.3179  -16.0935 N   0  0  0  0  0  0  0  0  0  0  0  0
   21.1109   -4.6619  -14.4631 C   0  0  0  0  0  0  0  0  0  0  0  0
   19.9296   -4.6384  -14.8941 O   0  0  0  0  0  0  0  0  0  0  0  0
   21.3570   -4.0651  -13.2362 O   0  0  0  0  0  0  0  0  0  0  0  0
  2  1  1  1
  2  3  1  0
  4  2  1  0
  5  4  1  0
  5  7  1  0
  5  6  1  6
  7 14  1  0
  7  8  2  0
  9 10  1  0
 10 11  1  0
 11 12  1  1
 13 11  1  0
 13 14  1  1
 15 13  1  0
 15 16  2  0
 18 17  1  6
 18 19  1  0
 19 15  1  0
 20 18  1  0
 21 20  2  0
 22 20  1  0
M  END
$$$$
