LIA.pdb
     RDKit          3D

 22 21  0  0  1  0  0  0  0  0999 V2000
   29.1613  -18.0269  -15.8208 C   0  0  0  0  0  0  0  0  0  0  0  0
   28.4291  -18.9214  -16.8250 C   0  0  2  0  0  0  0  0  0  0  0  0
   27.9406  -18.0520  -17.9400 C   0  0  0  0  0  0  0  0  0  0  0  0
   27.3473  -19.6480  -16.0917 C   0  0  0  0  0  0  0  0  0  0  0  0
   27.8102  -20.5496  -15.0021 C   0  0  2  0  0  0  0  0  0  0  0  0
   28.6252  -21.6166  -15.5906 N   0  0  0  0  0  0  0  0  0  0  0  0
   26.7571  -21.0871  -14.1261 C   0  0  0  0  0  0  0  0  0  0  0  0
   26.1235  -22.1116  -14.4334 O   0  0  0  0  0  0  0  0  0  0  0  0
   26.4553  -20.3132   -8.4858 C   0  0  0  0  0  0  0  0  0  0  0  0
   26.5467  -21.0064   -9.8541 C   0  0  0  0  0  0  0  0  0  0  0  0
   25.3226  -20.6391  -10.6145 C   0  0  2  0  0  0  0  0  0  0  0  0
   24.0441  -21.0155   -9.8973 C   0  0  0  0  0  0  0  0  0  0  0  0
   25.3250  -20.9381  -12.0594 C   0  0  2  0  0  0  0  0  0  0  0  0
   26.3626  -20.5250  -12.8892 N   0  0  0  0  0  0  0  0  0  0  0  0
   24.0233  -20.4324  -12.6208 C   0  0  0  0  0  0  0  0  0  0  0  0
   23.8022  -19.1967  -12.7194 O   0  0  0  0  0  0  0  0  0  0  0  0
   21.5188  -21.4612  -15.0226 C   0  0  0  0  0  0  0  0  0  0  0  0
   21.7724  -20.8205  -13.6882 C   0  0  2  0  0  0  0  0  0  0  0  0
   22.9969  -21.3017  -13.0598 N   0  0  0  0  0  0  0  0  0  0  0  0
   20.6310  -21.2096  -12.7952 C   0  0  0  0  0  0  0  0  0  0  0  0
   20.7676  -22.0268  -11.8491 O   0  0  0  0  0  0  0  0  0  0  0  0
   19.3713  -20.6664  -12.9955 O   0  0  0  0  0  0  0  0  0  0  0  0
  2  1  1  1
  2  3  1  0
  4  2  1  0
  5  4  1  0
  5  7  1  0
  5  6  1  6
  7 14  1  0
  7  8  2  0
  9 10  1  0
 10 11  1  0
 11 12  1  1
 13 11  1  0
 13 14  1  6
 15 13  1  0
 15 16  2  0
 18 17  1  6
 18 19  1  0
 19 15  1  0
 20 18  1  0
 21 20  2  0
 22 20  1  0
M  END
$$$$
