LIA.pdb
     RDKit          3D

 22 21  0  0  1  0  0  0  0  0999 V2000
   26.8067  -12.6315  -15.6899 C   0  0  0  0  0  0  0  0  0  0  0  0
   27.0141  -11.9210  -17.0303 C   0  0  2  0  0  0  0  0  0  0  0  0
   28.4303  -11.4418  -17.0793 C   0  0  0  0  0  0  0  0  0  0  0  0
   25.9925  -10.8345  -17.1390 C   0  0  0  0  0  0  0  0  0  0  0  0
   24.5762  -11.2906  -17.1567 C   0  0  2  0  0  0  0  0  0  0  0  0
   24.3889  -12.1955  -18.2947 N   0  0  0  0  0  0  0  0  0  0  0  0
   23.5610  -10.2256  -17.1332 C   0  0  0  0  0  0  0  0  0  0  0  0
   23.3783   -9.4873  -18.1166 O   0  0  0  0  0  0  0  0  0  0  0  0
   19.3794  -11.4188  -15.1621 C   0  0  0  0  0  0  0  0  0  0  0  0
   19.6172  -10.2783  -16.1640 C   0  0  0  0  0  0  0  0  0  0  0  0
   20.3860   -9.2226  -15.4527 C   0  0  2  0  0  0  0  0  0  0  0  0
   19.5597   -7.9919  -15.1472 C   0  0  0  0  0  0  0  0  0  0  0  0
   21.7441   -8.9391  -15.9549 C   0  0  2  0  0  0  0  0  0  0  0  0
   22.7144   -9.9329  -16.0382 N   0  0  0  0  0  0  0  0  0  0  0  0
   22.2891   -7.7948  -15.1432 C   0  0  0  0  0  0  0  0  0  0  0  0
   22.6163   -7.9594  -13.9385 O   0  0  0  0  0  0  0  0  0  0  0  0
   23.2452   -4.1638  -15.7310 C   0  0  0  0  0  0  0  0  0  0  0  0
   22.9759   -5.3817  -14.8947 C   0  0  2  0  0  0  0  0  0  0  0  0
   22.4601   -6.4969  -15.6797 N   0  0  0  0  0  0  0  0  0  0  0  0
   21.9125   -5.0037  -13.9059 C   0  0  0  0  0  0  0  0  0  0  0  0
   22.1861   -4.5092  -12.7823 O   0  0  0  0  0  0  0  0  0  0  0  0
   20.5740   -5.1942  -14.2130 O   0  0  0  0  0  0  0  0  0  0  0  0
  2  1  1  1
  2  3  1  0
  4  2  1  0
  5  4  1  0
  5  7  1  0
  5  6  1  6
  7 14  1  0
  7  8  2  0
  9 10  1  0
 10 11  1  0
 11 12  1  6
 13 11  1  0
 13 14  1  1
 15 13  1  0
 15 16  2  0
 18 17  1  6
 18 19  1  0
 19 15  1  0
 20 18  1  0
 21 20  2  0
 22 20  1  0
M  END
$$$$
