LIA.pdb
     RDKit          3D

 22 21  0  0  1  0  0  0  0  0999 V2000
   27.9824  -18.0121  -17.4282 C   0  0  0  0  0  0  0  0  0  0  0  0
   29.1525  -18.3618  -18.3519 C   0  0  2  0  0  0  0  0  0  0  0  0
   29.2634  -17.2797  -19.3788 C   0  0  0  0  0  0  0  0  0  0  0  0
   28.9026  -19.7235  -18.9170 C   0  0  0  0  0  0  0  0  0  0  0  0
   28.7702  -20.8153  -17.9145 C   0  0  2  0  0  0  0  0  0  0  0  0
   29.9847  -20.8487  -17.0943 N   0  0  0  0  0  0  0  0  0  0  0  0
   28.4399  -22.1434  -18.4553 C   0  0  0  0  0  0  0  0  0  0  0  0
   28.7024  -22.4435  -19.6329 O   0  0  0  0  0  0  0  0  0  0  0  0
   28.8525  -28.0025  -17.4612 C   0  0  0  0  0  0  0  0  0  0  0  0
   27.8569  -26.9870  -18.0431 C   0  0  0  0  0  0  0  0  0  0  0  0
   28.2998  -25.6371  -17.6036 C   0  0  2  0  0  0  0  0  0  0  0  0
   28.5694  -25.5569  -16.1164 C   0  0  0  0  0  0  0  0  0  0  0  0
   27.5614  -24.4848  -18.1550 C   0  0  2  0  0  0  0  0  0  0  0  0
   27.8139  -23.1842  -17.7300 N   0  0  0  0  0  0  0  0  0  0  0  0
   26.0940  -24.7745  -17.9870 C   0  0  0  0  0  0  0  0  0  0  0  0
   25.5065  -24.5121  -16.9046 O   0  0  0  0  0  0  0  0  0  0  0  0
   23.1074  -25.0527  -20.0766 C   0  0  0  0  0  0  0  0  0  0  0  0
   23.8733  -25.5578  -18.8877 C   0  0  2  0  0  0  0  0  0  0  0  0
   25.3102  -25.3466  -19.0166 N   0  0  0  0  0  0  0  0  0  0  0  0
   23.6451  -27.0394  -18.8210 C   0  0  0  0  0  0  0  0  0  0  0  0
   24.5205  -27.8698  -19.1759 O   0  0  0  0  0  0  0  0  0  0  0  0
   22.4384  -27.5398  -18.3569 O   0  0  0  0  0  0  0  0  0  0  0  0
  2  1  1  1
  2  3  1  0
  4  2  1  0
  5  4  1  0
  5  7  1  0
  5  6  1  6
  7 14  1  0
  7  8  2  0
  9 10  1  0
 10 11  1  0
 11 12  1  1
 13 11  1  0
 13 14  1  1
 15 13  1  0
 15 16  2  0
 18 17  1  6
 18 19  1  0
 19 15  1  0
 20 18  1  0
 21 20  2  0
 22 20  1  0
M  END
$$$$
