QIR.pdb
     RDKit          3D

 29 28  0  0  1  0  0  0  0  0999 V2000
    7.3075  -19.2062   20.9496 N   0  0  0  0  0  0  0  0  0  0  0  0
    6.7673  -18.4903   19.8635 C   0  0  0  0  0  0  0  0  0  0  0  0
    6.3413  -19.1620   18.8712 O   0  0  0  0  0  0  0  0  0  0  0  0
    6.6856  -16.9874   19.8522 C   0  0  0  0  0  0  0  0  0  0  0  0
    7.2812  -16.4473   21.1167 C   0  0  0  0  0  0  0  0  0  0  0  0
    7.1222  -14.9803   21.3212 C   0  0  2  0  0  0  0  0  0  0  0  0
    7.8428  -14.3306   20.2147 N   0  0  0  0  0  0  0  0  0  0  0  0
    7.7720  -14.5335   22.5693 C   0  0  0  0  0  0  0  0  0  0  0  0
    9.0226  -14.5280   22.6288 O   0  0  0  0  0  0  0  0  0  0  0  0
    5.6179  -10.9705   26.0622 C   0  0  0  0  0  0  0  0  0  0  0  0
    6.6691  -11.6795   25.2331 C   0  0  0  0  0  0  0  0  0  0  0  0
    6.9536  -12.9991   25.9068 C   0  0  2  0  0  0  0  0  0  0  0  0
    7.8047  -12.7634   27.1385 C   0  0  0  0  0  0  0  0  0  0  0  0
    7.6868  -13.9615   25.0183 C   0  0  2  0  0  0  0  0  0  0  0  0
    7.0597  -14.1048   23.7202 N   0  0  0  0  0  0  0  0  0  0  0  0
    7.9022  -15.2792   25.6509 C   0  0  0  0  0  0  0  0  0  0  0  0
    7.2281  -16.2576   25.2382 O   0  0  0  0  0  0  0  0  0  0  0  0
   13.4920  -15.6403   22.3436 N   0  0  0  0  0  0  0  0  0  0  0  0
   14.2728  -16.3899   23.2729 C   0  0  0  0  0  0  0  0  0  0  0  0
   15.4963  -16.0899   23.4238 N   0  0  0  0  0  0  0  0  0  0  0  0
   13.7168  -17.4591   24.0302 N   0  0  0  0  0  0  0  0  0  0  0  0
   12.3055  -17.7040   23.9575 C   0  0  0  0  0  0  0  0  0  0  0  0
   11.6037  -17.6293   25.2660 C   0  0  0  0  0  0  0  0  0  0  0  0
   10.5160  -16.6354   25.4029 C   0  0  0  0  0  0  0  0  0  0  0  0
    9.7835  -16.5962   26.6928 C   0  0  2  0  0  0  0  0  0  0  0  0
    8.8200  -15.4876   26.6862 N   0  0  0  0  0  0  0  0  0  0  0  0
   10.5704  -16.6780   27.9157 C   0  0  0  0  0  0  0  0  0  0  0  0
   10.9531  -15.6317   28.5381 O   0  0  0  0  0  0  0  0  0  0  0  0
   10.9426  -17.8923   28.4686 O   0  0  0  0  0  0  0  0  0  0  0  0
  2  1  1  0
  2  3  2  0
  4  2  1  0
  5  4  1  0
  5  6  1  0
  6  7  1  6
  8  6  1  0
  8  9  2  0
 11 10  1  0
 12 11  1  0
 12 14  1  0
 12 13  1  1
 14 15  1  6
 15  8  1  0
 16 26  1  0
 16 14  1  0
 17 16  2  0
 18 19  1  0
 19 21  1  0
 20 19  2  0
 21 22  1  0
 22 23  1  0
 23 24  1  0
 25 24  1  6
 25 26  1  0
 25 27  1  0
 27 29  1  0
 28 27  2  0
M  END
$$$$
