QIR.pdb
     RDKit          3D

 29 28  0  0  1  0  0  0  0  0999 V2000
    7.2163  -18.1103   17.4922 N   0  0  0  0  0  0  0  0  0  0  0  0
    6.9901  -17.5089   18.7456 C   0  0  0  0  0  0  0  0  0  0  0  0
    6.1827  -18.0894   19.5383 O   0  0  0  0  0  0  0  0  0  0  0  0
    7.6653  -16.2278   19.1561 C   0  0  0  0  0  0  0  0  0  0  0  0
    7.2484  -15.8705   20.5504 C   0  0  0  0  0  0  0  0  0  0  0  0
    7.2416  -14.4136   20.8609 C   0  0  2  0  0  0  0  0  0  0  0  0
    8.1342  -13.7796   19.8773 N   0  0  0  0  0  0  0  0  0  0  0  0
    7.8175  -14.1405   22.1926 C   0  0  0  0  0  0  0  0  0  0  0  0
    9.0631  -14.1289   22.3194 O   0  0  0  0  0  0  0  0  0  0  0  0
    5.5109  -11.0734   26.0991 C   0  0  0  0  0  0  0  0  0  0  0  0
    6.5502  -11.6843   25.1816 C   0  0  0  0  0  0  0  0  0  0  0  0
    6.7947  -13.0940   25.6602 C   0  0  2  0  0  0  0  0  0  0  0  0
    7.5517  -13.0570   26.9726 C   0  0  0  0  0  0  0  0  0  0  0  0
    7.5980  -13.9087   24.6886 C   0  0  2  0  0  0  0  0  0  0  0  0
    7.0387  -13.8873   23.3523 N   0  0  0  0  0  0  0  0  0  0  0  0
    7.8217  -15.2953   25.1470 C   0  0  0  0  0  0  0  0  0  0  0  0
    7.1196  -16.2110   24.6463 O   0  0  0  0  0  0  0  0  0  0  0  0
   12.8859  -20.6515   22.0053 N   0  0  0  0  0  0  0  0  0  0  0  0
   13.5606  -19.3989   22.1115 C   0  0  0  0  0  0  0  0  0  0  0  0
   14.7161  -19.2831   21.6007 N   0  0  0  0  0  0  0  0  0  0  0  0
   12.9732  -18.2834   22.7720 N   0  0  0  0  0  0  0  0  0  0  0  0
   11.5508  -18.2503   22.9524 C   0  0  0  0  0  0  0  0  0  0  0  0
   11.1173  -18.0466   24.3598 C   0  0  0  0  0  0  0  0  0  0  0  0
   10.1716  -16.9414   24.6311 C   0  0  0  0  0  0  0  0  0  0  0  0
    9.6316  -16.8256   26.0083 C   0  0  2  0  0  0  0  0  0  0  0  0
    8.7770  -15.6354   26.1110 N   0  0  0  0  0  0  0  0  0  0  0  0
   10.5706  -16.9666   27.1128 C   0  0  0  0  0  0  0  0  0  0  0  0
   11.2666  -18.0245   27.2704 O   0  0  0  0  0  0  0  0  0  0  0  0
   10.7597  -15.9619   28.0476 O   0  0  0  0  0  0  0  0  0  0  0  0
  2  1  1  0
  2  3  2  0
  4  2  1  0
  5  4  1  0
  5  6  1  0
  6  7  1  6
  8  6  1  0
  8  9  2  0
 11 10  1  0
 12 11  1  0
 12 14  1  0
 12 13  1  1
 14 15  1  6
 15  8  1  0
 16 26  1  0
 16 14  1  0
 17 16  2  0
 18 19  1  0
 19 21  1  0
 20 19  2  0
 21 22  1  0
 22 23  1  0
 23 24  1  0
 25 24  1  6
 25 26  1  0
 25 27  1  0
 27 29  1  0
 28 27  2  0
M  END
$$$$
