QIR.pdb
     RDKit          3D

 29 28  0  0  1  0  0  0  0  0999 V2000
    7.7730  -22.6122   18.3418 N   0  0  0  0  0  0  0  0  0  0  0  0
    7.3734  -21.3194   17.9508 C   0  0  0  0  0  0  0  0  0  0  0  0
    6.1404  -21.0275   18.0606 O   0  0  0  0  0  0  0  0  0  0  0  0
    8.3481  -20.3028   17.4198 C   0  0  0  0  0  0  0  0  0  0  0  0
    8.6796  -19.3195   18.5009 C   0  0  0  0  0  0  0  0  0  0  0  0
    9.1090  -17.9732   18.0293 C   0  0  2  0  0  0  0  0  0  0  0  0
   10.3945  -18.1698   17.3403 N   0  0  0  0  0  0  0  0  0  0  0  0
    9.3702  -17.0607   19.1600 C   0  0  0  0  0  0  0  0  0  0  0  0
   10.5100  -17.0542   19.6780 O   0  0  0  0  0  0  0  0  0  0  0  0
    7.2427  -12.0790   19.4225 C   0  0  0  0  0  0  0  0  0  0  0  0
    8.2218  -13.2336   19.4813 C   0  0  0  0  0  0  0  0  0  0  0  0
    7.9228  -14.0086   20.7407 C   0  0  2  0  0  0  0  0  0  0  0  0
    8.2994  -13.1736   21.9481 C   0  0  0  0  0  0  0  0  0  0  0  0
    8.6787  -15.3028   20.8225 C   0  0  2  0  0  0  0  0  0  0  0  0
    8.3987  -16.1796   19.7036 N   0  0  0  0  0  0  0  0  0  0  0  0
    8.4813  -16.0045   22.1076 C   0  0  0  0  0  0  0  0  0  0  0  0
    7.5192  -16.8084   22.2081 O   0  0  0  0  0  0  0  0  0  0  0  0
   12.9140  -21.8355   20.7043 N   0  0  0  0  0  0  0  0  0  0  0  0
   13.5204  -20.5898   21.0446 C   0  0  0  0  0  0  0  0  0  0  0  0
   14.6358  -20.2904   20.5194 N   0  0  0  0  0  0  0  0  0  0  0  0
   12.9088  -19.6804   21.9528 N   0  0  0  0  0  0  0  0  0  0  0  0
   11.7401  -20.0953   22.6731 C   0  0  0  0  0  0  0  0  0  0  0  0
   11.2051  -19.0737   23.6113 C   0  0  0  0  0  0  0  0  0  0  0  0
   10.4531  -17.9392   23.0309 C   0  0  0  0  0  0  0  0  0  0  0  0
    9.9104  -16.9263   23.9697 C   0  0  2  0  0  0  0  0  0  0  0  0
    9.3143  -15.8156   23.2158 N   0  0  0  0  0  0  0  0  0  0  0  0
   10.7699  -16.4942   25.0633 C   0  0  0  0  0  0  0  0  0  0  0  0
   11.6152  -15.5491   24.9187 O   0  0  0  0  0  0  0  0  0  0  0  0
   10.7148  -17.0827   26.3161 O   0  0  0  0  0  0  0  0  0  0  0  0
  2  1  1  0
  2  3  2  0
  4  2  1  0
  5  4  1  0
  5  6  1  0
  6  7  1  1
  8  6  1  0
  8  9  2  0
 11 10  1  0
 12 11  1  0
 12 14  1  0
 12 13  1  1
 14 15  1  6
 15  8  1  0
 16 26  1  0
 16 14  1  0
 17 16  2  0
 18 19  1  0
 19 21  1  0
 20 19  2  0
 21 22  1  0
 22 23  1  0
 23 24  1  0
 25 24  1  6
 25 26  1  0
 25 27  1  0
 27 29  1  0
 28 27  2  0
M  END
$$$$
