QIR.pdb
     RDKit          3D

 29 28  0  0  1  0  0  0  0  0999 V2000
    7.8101  -18.4456   20.0139 N   0  0  0  0  0  0  0  0  0  0  0  0
    7.0259  -17.7371   19.0828 C   0  0  0  0  0  0  0  0  0  0  0  0
    6.8233  -18.2811   17.9513 O   0  0  0  0  0  0  0  0  0  0  0  0
    6.4383  -16.3858   19.3897 C   0  0  0  0  0  0  0  0  0  0  0  0
    6.7439  -16.0218   20.8109 C   0  0  0  0  0  0  0  0  0  0  0  0
    7.1261  -14.5998   21.0373 C   0  0  2  0  0  0  0  0  0  0  0  0
    8.1204  -14.2718   20.0031 N   0  0  0  0  0  0  0  0  0  0  0  0
    7.7960  -14.4196   22.3405 C   0  0  0  0  0  0  0  0  0  0  0  0
    9.0327  -14.6013   22.4124 O   0  0  0  0  0  0  0  0  0  0  0  0
    6.4773  -10.6042   25.8249 C   0  0  0  0  0  0  0  0  0  0  0  0
    7.3056  -11.5620   24.9933 C   0  0  0  0  0  0  0  0  0  0  0  0
    7.2777  -12.8988   25.6920 C   0  0  2  0  0  0  0  0  0  0  0  0
    8.1585  -12.8425   26.9239 C   0  0  0  0  0  0  0  0  0  0  0  0
    7.7706  -14.0206   24.8249 C   0  0  2  0  0  0  0  0  0  0  0  0
    7.1182  -14.0490   23.5317 N   0  0  0  0  0  0  0  0  0  0  0  0
    7.6903  -15.3385   25.4878 C   0  0  0  0  0  0  0  0  0  0  0  0
    6.6645  -16.0413   25.2983 O   0  0  0  0  0  0  0  0  0  0  0  0
   13.2813  -19.6001   24.9415 N   0  0  0  0  0  0  0  0  0  0  0  0
   13.1216  -20.0612   23.6009 C   0  0  0  0  0  0  0  0  0  0  0  0
   14.1016  -20.6304   23.0306 N   0  0  0  0  0  0  0  0  0  0  0  0
   11.8979  -19.8997   22.8921 N   0  0  0  0  0  0  0  0  0  0  0  0
   11.1272  -18.7074   23.0956 C   0  0  0  0  0  0  0  0  0  0  0  0
   10.5776  -18.5614   24.4692 C   0  0  0  0  0  0  0  0  0  0  0  0
    9.8150  -17.3304   24.7735 C   0  0  0  0  0  0  0  0  0  0  0  0
    9.2832  -17.1778   26.1503 C   0  0  2  0  0  0  0  0  0  0  0  0
    8.7013  -15.8393   26.3152 N   0  0  0  0  0  0  0  0  0  0  0  0
   10.1465  -17.5784   27.2528 C   0  0  0  0  0  0  0  0  0  0  0  0
   10.1925  -18.7856   27.6641 O   0  0  0  0  0  0  0  0  0  0  0  0
   10.9635  -16.6737   27.9109 O   0  0  0  0  0  0  0  0  0  0  0  0
  2  1  1  0
  2  3  2  0
  4  2  1  0
  5  4  1  0
  5  6  1  0
  6  7  1  6
  8  6  1  0
  8  9  2  0
 11 10  1  0
 12 11  1  0
 12 14  1  0
 12 13  1  1
 14 15  1  6
 15  8  1  0
 16 26  1  0
 16 14  1  0
 17 16  2  0
 18 19  1  0
 19 21  1  0
 20 19  2  0
 21 22  1  0
 22 23  1  0
 23 24  1  0
 25 24  1  6
 25 26  1  0
 25 27  1  0
 27 29  1  0
 28 27  2  0
M  END
$$$$
