QIR.pdb
     RDKit          3D

 29 28  0  0  1  0  0  0  0  0999 V2000
    5.0632  -18.7357   22.4436 N   0  0  0  0  0  0  0  0  0  0  0  0
    5.9761  -18.6241   21.3768 C   0  0  0  0  0  0  0  0  0  0  0  0
    5.9936  -19.5623   20.5184 O   0  0  0  0  0  0  0  0  0  0  0  0
    6.9068  -17.4498   21.2346 C   0  0  0  0  0  0  0  0  0  0  0  0
    6.1037  -16.1976   21.0540 C   0  0  0  0  0  0  0  0  0  0  0  0
    6.8867  -14.9304   21.0632 C   0  0  2  0  0  0  0  0  0  0  0  0
    7.9097  -15.0717   20.0147 N   0  0  0  0  0  0  0  0  0  0  0  0
    7.6095  -14.7491   22.3378 C   0  0  0  0  0  0  0  0  0  0  0  0
    8.8274  -15.0353   22.3855 O   0  0  0  0  0  0  0  0  0  0  0  0
    5.6822  -11.1099   25.9869 C   0  0  0  0  0  0  0  0  0  0  0  0
    6.6323  -11.8096   25.0368 C   0  0  0  0  0  0  0  0  0  0  0  0
    7.0400  -13.1076   25.6887 C   0  0  2  0  0  0  0  0  0  0  0  0
    7.9729  -12.8187   26.8477 C   0  0  0  0  0  0  0  0  0  0  0  0
    7.7503  -14.0356   24.7468 C   0  0  2  0  0  0  0  0  0  0  0  0
    7.0032  -14.2652   23.5268 N   0  0  0  0  0  0  0  0  0  0  0  0
    8.1366  -15.3135   25.3797 C   0  0  0  0  0  0  0  0  0  0  0  0
    7.2308  -16.0355   25.8701 O   0  0  0  0  0  0  0  0  0  0  0  0
   13.1101  -21.4509   27.2854 N   0  0  0  0  0  0  0  0  0  0  0  0
   12.9639  -21.6920   25.8869 C   0  0  0  0  0  0  0  0  0  0  0  0
   12.9148  -22.8915   25.4764 N   0  0  0  0  0  0  0  0  0  0  0  0
   12.8722  -20.6272   24.9470 N   0  0  0  0  0  0  0  0  0  0  0  0
   12.9368  -19.2743   25.4184 C   0  0  0  0  0  0  0  0  0  0  0  0
   11.6741  -18.7772   26.0256 C   0  0  0  0  0  0  0  0  0  0  0  0
   11.0579  -17.5704   25.4309 C   0  0  0  0  0  0  0  0  0  0  0  0
    9.8474  -17.0237   26.0923 C   0  0  2  0  0  0  0  0  0  0  0  0
    9.4615  -15.7562   25.4583 N   0  0  0  0  0  0  0  0  0  0  0  0
    9.8412  -16.9734   27.5480 C   0  0  0  0  0  0  0  0  0  0  0  0
   10.1774  -15.9195   28.1841 O   0  0  0  0  0  0  0  0  0  0  0  0
    9.4689  -18.0631   28.3180 O   0  0  0  0  0  0  0  0  0  0  0  0
  2  1  1  0
  2  3  2  0
  4  2  1  0
  5  4  1  0
  5  6  1  0
  6  7  1  6
  8  6  1  0
  8  9  2  0
 11 10  1  0
 12 11  1  0
 12 14  1  0
 12 13  1  1
 14 15  1  6
 15  8  1  0
 16 26  1  0
 16 14  1  0
 17 16  2  0
 18 19  1  0
 19 21  1  0
 20 19  2  0
 21 22  1  0
 22 23  1  0
 23 24  1  0
 25 24  1  6
 25 26  1  0
 25 27  1  0
 27 29  1  0
 28 27  2  0
M  END
$$$$
