QIR.pdb
     RDKit          3D

 29 28  0  0  1  0  0  0  0  0999 V2000
    5.2160  -19.2133   21.5248 N   0  0  0  0  0  0  0  0  0  0  0  0
    5.6745  -18.7315   20.2832 C   0  0  0  0  0  0  0  0  0  0  0  0
    5.4156  -19.4281   19.2511 O   0  0  0  0  0  0  0  0  0  0  0  0
    6.4440  -17.4443   20.1548 C   0  0  0  0  0  0  0  0  0  0  0  0
    6.4174  -16.7163   21.4643 C   0  0  0  0  0  0  0  0  0  0  0  0
    6.9802  -15.3372   21.4393 C   0  0  2  0  0  0  0  0  0  0  0  0
    7.8931  -15.2867   20.2861 N   0  0  0  0  0  0  0  0  0  0  0  0
    7.7972  -15.0633   22.6380 C   0  0  0  0  0  0  0  0  0  0  0  0
    9.0427  -15.1576   22.5525 O   0  0  0  0  0  0  0  0  0  0  0  0
    6.0988  -11.3624   26.1427 C   0  0  0  0  0  0  0  0  0  0  0  0
    7.0570  -12.1107   25.2387 C   0  0  0  0  0  0  0  0  0  0  0  0
    7.4495  -13.3784   25.9563 C   0  0  2  0  0  0  0  0  0  0  0  0
    8.4467  -13.0511   27.0496 C   0  0  0  0  0  0  0  0  0  0  0  0
    8.0805  -14.3921   25.0466 C   0  0  2  0  0  0  0  0  0  0  0  0
    7.2530  -14.6956   23.8967 N   0  0  0  0  0  0  0  0  0  0  0  0
    8.4816  -15.6272   25.7513 C   0  0  0  0  0  0  0  0  0  0  0  0
    7.6124  -16.2427   26.4204 O   0  0  0  0  0  0  0  0  0  0  0  0
   11.0874  -20.4483   21.8270 N   0  0  0  0  0  0  0  0  0  0  0  0
   11.4324  -19.1396   21.3757 C   0  0  0  0  0  0  0  0  0  0  0  0
   10.8543  -18.6772   20.3454 N   0  0  0  0  0  0  0  0  0  0  0  0
   12.4030  -18.3451   22.0485 N   0  0  0  0  0  0  0  0  0  0  0  0
   12.5158  -18.4427   23.4749 C   0  0  0  0  0  0  0  0  0  0  0  0
   11.2557  -18.1546   24.2092 C   0  0  0  0  0  0  0  0  0  0  0  0
   11.3423  -17.9873   25.6768 C   0  0  0  0  0  0  0  0  0  0  0  0
   10.1704  -17.3954   26.3683 C   0  0  2  0  0  0  0  0  0  0  0  0
    9.7818  -16.1421   25.7083 N   0  0  0  0  0  0  0  0  0  0  0  0
   10.2254  -17.2973   27.8205 C   0  0  0  0  0  0  0  0  0  0  0  0
   10.3277  -16.1718   28.4132 O   0  0  0  0  0  0  0  0  0  0  0  0
   10.1676  -18.4169   28.6341 O   0  0  0  0  0  0  0  0  0  0  0  0
  2  1  1  0
  2  3  2  0
  4  2  1  0
  5  4  1  0
  5  6  1  0
  6  7  1  6
  8  6  1  0
  8  9  2  0
 11 10  1  0
 12 11  1  0
 12 14  1  0
 12 13  1  1
 14 15  1  6
 15  8  1  0
 16 26  1  0
 16 14  1  0
 17 16  2  0
 18 19  1  0
 19 21  1  0
 20 19  2  0
 21 22  1  0
 22 23  1  0
 23 24  1  0
 25 24  1  6
 25 26  1  0
 25 27  1  0
 27 29  1  0
 28 27  2  0
M  END
$$$$
