QIR.pdb
     RDKit          3D

 29 28  0  0  1  0  0  0  0  0999 V2000
    7.6085  -12.2636   18.1098 N   0  0  0  0  0  0  0  0  0  0  0  0
    8.0137  -13.5786   17.8089 C   0  0  0  0  0  0  0  0  0  0  0  0
    8.0725  -13.9087   16.5821 O   0  0  0  0  0  0  0  0  0  0  0  0
    8.3688  -14.5753   18.8794 C   0  0  0  0  0  0  0  0  0  0  0  0
    8.1607  -13.9534   20.2267 C   0  0  0  0  0  0  0  0  0  0  0  0
    7.6479  -14.8722   21.2813 C   0  0  2  0  0  0  0  0  0  0  0  0
    6.1818  -14.7451   21.2597 N   0  0  0  0  0  0  0  0  0  0  0  0
    8.0890  -14.4531   22.6265 C   0  0  0  0  0  0  0  0  0  0  0  0
    8.6443  -13.3388   22.7584 O   0  0  0  0  0  0  0  0  0  0  0  0
    6.3211  -11.6833   25.6716 C   0  0  0  0  0  0  0  0  0  0  0  0
    7.3874  -12.5227   24.9982 C   0  0  0  0  0  0  0  0  0  0  0  0
    7.4638  -13.8309   25.7457 C   0  0  2  0  0  0  0  0  0  0  0  0
    7.9654  -13.5789   27.1535 C   0  0  0  0  0  0  0  0  0  0  0  0
    8.3888  -14.8197   25.0979 C   0  0  2  0  0  0  0  0  0  0  0  0
    7.9213  -15.2437   23.7938 N   0  0  0  0  0  0  0  0  0  0  0  0
    8.6822  -15.9835   25.9595 C   0  0  0  0  0  0  0  0  0  0  0  0
    7.7174  -16.6618   26.3968 O   0  0  0  0  0  0  0  0  0  0  0  0
   14.6604  -18.6902   22.6648 N   0  0  0  0  0  0  0  0  0  0  0  0
   13.4192  -19.1941   22.1740 C   0  0  0  0  0  0  0  0  0  0  0  0
   13.2641  -19.3191   20.9211 N   0  0  0  0  0  0  0  0  0  0  0  0
   12.3576  -19.5577   23.0496 N   0  0  0  0  0  0  0  0  0  0  0  0
   12.4972  -19.3082   24.4550 C   0  0  0  0  0  0  0  0  0  0  0  0
   11.3306  -18.6255   25.0738 C   0  0  0  0  0  0  0  0  0  0  0  0
   11.4134  -18.3010   26.5151 C   0  0  0  0  0  0  0  0  0  0  0  0
   10.2784  -17.5570   27.1152 C   0  0  2  0  0  0  0  0  0  0  0  0
    9.9819  -16.3645   26.3105 N   0  0  0  0  0  0  0  0  0  0  0  0
   10.3272  -17.2968   28.5474 C   0  0  0  0  0  0  0  0  0  0  0  0
   10.1827  -18.2316   29.4042 O   0  0  0  0  0  0  0  0  0  0  0  0
   10.5345  -16.0248   29.0553 O   0  0  0  0  0  0  0  0  0  0  0  0
  2  1  1  0
  2  3  2  0
  4  2  1  0
  5  4  1  0
  5  6  1  0
  6  7  1  1
  8  6  1  0
  8  9  2  0
 11 10  1  0
 12 11  1  0
 12 14  1  0
 12 13  1  1
 14 15  1  6
 15  8  1  0
 16 26  1  0
 16 14  1  0
 17 16  2  0
 18 19  1  0
 19 21  1  0
 20 19  2  0
 21 22  1  0
 22 23  1  0
 23 24  1  0
 25 24  1  6
 25 26  1  0
 25 27  1  0
 27 29  1  0
 28 27  2  0
M  END
$$$$
