MAC.pdb
     RDKit          3D

 20 19  0  0  1  0  0  0  0  0999 V2000
    7.4418  -11.7426   27.0745 C   0  0  0  0  0  0  0  0  0  0  0  0
    5.9400  -11.6989   26.0357 S   0  0  0  0  0  0  0  0  0  0  0  0
    5.7133  -13.3252   25.3327 C   0  0  0  0  0  0  0  0  0  0  0  0
    6.9676  -14.1447   25.2633 C   0  0  0  0  0  0  0  0  0  0  0  0
    6.7815  -15.4789   24.5946 C   0  0  2  0  0  0  0  0  0  0  0  0
    5.7737  -16.2727   25.2147 N   0  0  0  0  0  0  0  0  0  0  0  0
    8.1068  -16.1320   24.5172 C   0  0  0  0  0  0  0  0  0  0  0  0
    8.4344  -16.8394   25.5148 O   0  0  0  0  0  0  0  0  0  0  0  0
   10.8586  -16.6075   22.0827 C   0  0  0  0  0  0  0  0  0  0  0  0
   10.2368  -16.7757   23.4751 C   0  0  2  0  0  0  0  0  0  0  0  0
    8.9995  -16.0288   23.4535 N   0  0  0  0  0  0  0  0  0  0  0  0
   11.1380  -16.2558   24.5214 C   0  0  0  0  0  0  0  0  0  0  0  0
   11.9838  -15.3345   24.3024 O   0  0  0  0  0  0  0  0  0  0  0  0
   11.0752  -16.7921   25.8345 N   0  0  0  0  0  0  0  0  0  0  0  0
   12.0102  -16.4243   26.8558 C   0  0  1  0  0  0  0  0  0  0  0  0
   11.5589  -15.2246   27.6563 C   0  0  0  0  0  0  0  0  0  0  0  0
    9.8881  -15.5107   28.2869 S   0  0  0  0  0  0  0  0  0  0  0  0
   12.2397  -17.5842   27.7579 C   0  0  0  0  0  0  0  0  0  0  0  0
   13.2173  -17.5577   28.7545 O   0  0  0  0  0  0  0  0  0  0  0  0
   11.5452  -18.6260   27.6362 O   0  0  0  0  0  0  0  0  0  0  0  0
  2  1  1  0
  3  2  1  0
  4  5  1  0
  4  3  1  0
  5  6  1  1
  7 11  1  0
  7  5  1  0
  8  7  2  0
 10  9  1  6
 10 11  1  0
 12 10  1  0
 12 14  1  0
 13 12  2  0
 15 14  1  0
 15 16  1  1
 16 17  1  0
 18 15  1  0
 19 18  1  0
 20 18  2  0
M  END
$$$$
