MAC.pdb
     RDKit          3D

 20 19  0  0  1  0  0  0  0  0999 V2000
    7.5774  -11.9006   26.4390 C   0  0  0  0  0  0  0  0  0  0  0  0
    5.8959  -12.5513   26.7319 S   0  0  0  0  0  0  0  0  0  0  0  0
    5.7417  -14.0909   25.8396 C   0  0  0  0  0  0  0  0  0  0  0  0
    7.0512  -14.7453   25.5126 C   0  0  0  0  0  0  0  0  0  0  0  0
    6.9188  -15.9508   24.6232 C   0  0  2  0  0  0  0  0  0  0  0  0
    6.0461  -16.9411   25.1598 N   0  0  0  0  0  0  0  0  0  0  0  0
    8.2823  -16.4408   24.3240 C   0  0  0  0  0  0  0  0  0  0  0  0
    8.6590  -17.4603   24.9733 O   0  0  0  0  0  0  0  0  0  0  0  0
   11.1399  -15.6409   22.0990 C   0  0  0  0  0  0  0  0  0  0  0  0
   10.4949  -16.4151   23.2557 C   0  0  2  0  0  0  0  0  0  0  0  0
    9.1615  -15.8771   23.4028 N   0  0  0  0  0  0  0  0  0  0  0  0
   11.2652  -16.2396   24.5021 C   0  0  0  0  0  0  0  0  0  0  0  0
   12.5094  -16.4805   24.5792 O   0  0  0  0  0  0  0  0  0  0  0  0
   10.6097  -15.7838   25.6761 N   0  0  0  0  0  0  0  0  0  0  0  0
   11.3268  -15.4476   26.8701 C   0  0  1  0  0  0  0  0  0  0  0  0
   10.8473  -14.1582   27.4957 C   0  0  0  0  0  0  0  0  0  0  0  0
   10.7310  -14.3615   29.2891 S   0  0  0  0  0  0  0  0  0  0  0  0
   11.2128  -16.5633   27.8468 C   0  0  0  0  0  0  0  0  0  0  0  0
   12.0993  -16.6958   28.9175 O   0  0  0  0  0  0  0  0  0  0  0  0
   10.3008  -17.4207   27.7226 O   0  0  0  0  0  0  0  0  0  0  0  0
  2  1  1  0
  3  2  1  0
  4  5  1  0
  4  3  1  0
  5  6  1  1
  7 11  1  0
  7  5  1  0
  8  7  2  0
 10  9  1  6
 10 11  1  0
 12 10  1  0
 12 14  1  0
 13 12  2  0
 15 14  1  0
 15 16  1  1
 16 17  1  0
 18 15  1  0
 19 18  1  0
 20 18  2  0
M  END
$$$$
