MAC.pdb
     RDKit          3D

 20 19  0  0  1  0  0  0  0  0999 V2000
    6.5770  -11.5990   26.6625 C   0  0  0  0  0  0  0  0  0  0  0  0
    7.4059  -12.8336   27.7233 S   0  0  0  0  0  0  0  0  0  0  0  0
    6.9125  -14.4562   27.1628 C   0  0  0  0  0  0  0  0  0  0  0  0
    7.2265  -14.7302   25.7219 C   0  0  0  0  0  0  0  0  0  0  0  0
    6.7232  -16.0616   25.2364 C   0  0  2  0  0  0  0  0  0  0  0  0
    7.1051  -17.1404   26.0853 N   0  0  0  0  0  0  0  0  0  0  0  0
    7.1490  -16.2170   23.8281 C   0  0  0  0  0  0  0  0  0  0  0  0
    7.6189  -17.3499   23.5137 O   0  0  0  0  0  0  0  0  0  0  0  0
    7.0125  -14.3205   20.6472 C   0  0  0  0  0  0  0  0  0  0  0  0
    7.3851  -15.5589   21.4726 C   0  0  2  0  0  0  0  0  0  0  0  0
    7.0730  -15.2330   22.8457 N   0  0  0  0  0  0  0  0  0  0  0  0
    8.8188  -15.8770   21.3282 C   0  0  0  0  0  0  0  0  0  0  0  0
    9.3507  -16.1535   20.2090 O   0  0  0  0  0  0  0  0  0  0  0  0
    9.6576  -15.8803   22.4736 N   0  0  0  0  0  0  0  0  0  0  0  0
   11.0484  -16.2171   22.4014 C   0  0  1  0  0  0  0  0  0  0  0  0
   11.9361  -15.1720   23.0365 C   0  0  0  0  0  0  0  0  0  0  0  0
   13.6584  -15.7205   22.9736 S   0  0  0  0  0  0  0  0  0  0  0  0
   11.2719  -17.5384   23.0463 C   0  0  0  0  0  0  0  0  0  0  0  0
   10.3805  -18.0566   23.9879 O   0  0  0  0  0  0  0  0  0  0  0  0
   12.2848  -18.2227   22.7494 O   0  0  0  0  0  0  0  0  0  0  0  0
  2  1  1  0
  3  2  1  0
  4  5  1  0
  4  3  1  0
  5  6  1  1
  7 11  1  0
  7  5  1  0
  8  7  2  0
 10  9  1  6
 10 11  1  0
 12 10  1  0
 12 14  1  0
 13 12  2  0
 15 14  1  0
 15 16  1  1
 16 17  1  0
 18 15  1  0
 19 18  1  0
 20 18  2  0
M  END
$$$$
