MAC.pdb
     RDKit          3D

 20 19  0  0  1  0  0  0  0  0999 V2000
    6.4389  -11.4192   25.3550 C   0  0  0  0  0  0  0  0  0  0  0  0
    6.5630  -12.7107   26.6408 S   0  0  0  0  0  0  0  0  0  0  0  0
    6.3059  -14.2933   25.8536 C   0  0  0  0  0  0  0  0  0  0  0  0
    6.9977  -14.4411   24.5310 C   0  0  0  0  0  0  0  0  0  0  0  0
    6.9326  -15.8339   23.9673 C   0  0  2  0  0  0  0  0  0  0  0  0
    5.7865  -16.5563   24.4086 N   0  0  0  0  0  0  0  0  0  0  0  0
    8.2206  -16.4993   24.2625 C   0  0  0  0  0  0  0  0  0  0  0  0
    8.2441  -17.2240   25.3004 O   0  0  0  0  0  0  0  0  0  0  0  0
   11.5689  -16.9605   22.7526 C   0  0  0  0  0  0  0  0  0  0  0  0
   10.5906  -17.0562   23.9305 C   0  0  2  0  0  0  0  0  0  0  0  0
    9.3817  -16.3901   23.5015 N   0  0  0  0  0  0  0  0  0  0  0  0
   11.1451  -16.4015   25.1311 C   0  0  0  0  0  0  0  0  0  0  0  0
   11.5860  -15.2108   25.1213 O   0  0  0  0  0  0  0  0  0  0  0  0
   11.1983  -17.1122   26.3590 N   0  0  0  0  0  0  0  0  0  0  0  0
   11.5552  -16.4791   27.5937 C   0  0  1  0  0  0  0  0  0  0  0  0
   10.5157  -15.4879   28.0636 C   0  0  0  0  0  0  0  0  0  0  0  0
   11.1018  -14.6592   29.5606 S   0  0  0  0  0  0  0  0  0  0  0  0
   11.7803  -17.5166   28.6351 C   0  0  0  0  0  0  0  0  0  0  0  0
   12.8157  -17.4107   29.5660 O   0  0  0  0  0  0  0  0  0  0  0  0
   11.0292  -18.5238   28.6959 O   0  0  0  0  0  0  0  0  0  0  0  0
  2  1  1  0
  3  2  1  0
  4  5  1  0
  4  3  1  0
  5  6  1  1
  7 11  1  0
  7  5  1  0
  8  7  2  0
 10  9  1  6
 10 11  1  0
 12 10  1  0
 12 14  1  0
 13 12  2  0
 15 14  1  0
 15 16  1  1
 16 17  1  0
 18 15  1  0
 19 18  1  0
 20 18  2  0
M  END
$$$$
