MAC.pdb
     RDKit          3D

 20 19  0  0  1  0  0  0  0  0999 V2000
    8.8602  -12.1103   20.0227 C   0  0  0  0  0  0  0  0  0  0  0  0
    8.0154  -12.9997   18.6691 S   0  0  0  0  0  0  0  0  0  0  0  0
    7.9261  -14.7256   19.1202 C   0  0  0  0  0  0  0  0  0  0  0  0
    7.3527  -14.9754   20.4835 C   0  0  0  0  0  0  0  0  0  0  0  0
    7.3316  -16.4277   20.8734 C   0  0  2  0  0  0  0  0  0  0  0  0
    6.4160  -17.1957   20.0974 N   0  0  0  0  0  0  0  0  0  0  0  0
    7.0989  -16.4983   22.3327 C   0  0  0  0  0  0  0  0  0  0  0  0
    5.8977  -16.3624   22.7089 O   0  0  0  0  0  0  0  0  0  0  0  0
    8.1530  -18.0016   25.2921 C   0  0  0  0  0  0  0  0  0  0  0  0
    7.7309  -16.6497   24.7023 C   0  0  2  0  0  0  0  0  0  0  0  0
    8.0799  -16.6985   23.3005 N   0  0  0  0  0  0  0  0  0  0  0  0
    8.4338  -15.5391   25.3732 C   0  0  0  0  0  0  0  0  0  0  0  0
    9.5999  -15.1640   25.0393 O   0  0  0  0  0  0  0  0  0  0  0  0
    7.8001  -14.8466   26.4384 N   0  0  0  0  0  0  0  0  0  0  0  0
    8.4710  -13.8335   27.1975 C   0  0  1  0  0  0  0  0  0  0  0  0
    7.5251  -12.7866   27.7387 C   0  0  0  0  0  0  0  0  0  0  0  0
    6.1747  -12.5250   26.5643 S   0  0  0  0  0  0  0  0  0  0  0  0
    9.2242  -14.4674   28.3122 C   0  0  0  0  0  0  0  0  0  0  0  0
   10.1034  -13.7366   29.1139 O   0  0  0  0  0  0  0  0  0  0  0  0
    9.0795  -15.6931   28.5555 O   0  0  0  0  0  0  0  0  0  0  0  0
  2  1  1  0
  3  2  1  0
  4  5  1  0
  4  3  1  0
  5  6  1  6
  7 11  1  0
  7  5  1  0
  8  7  2  0
 10  9  1  1
 10 11  1  0
 12 10  1  0
 12 14  1  0
 13 12  2  0
 15 14  1  0
 15 16  1  1
 16 17  1  0
 18 15  1  0
 19 18  1  0
 20 18  2  0
M  END
$$$$
