CQS.pdb
     RDKit          3D

 22 21  0  0  1  0  0  0  0  0999 V2000
   14.3956  -10.6301  -13.0131 N   0  0  0  0  0  0  0  0  0  0  0  0
   15.0212   -9.4312  -12.4639 C   0  0  1  0  0  0  0  0  0  0  0  0
   15.6734   -9.7856  -11.1346 C   0  0  0  0  0  0  0  0  0  0  0  0
   14.3532  -10.0188   -9.9173 S   0  0  0  0  0  0  0  0  0  0  0  0
   16.0508   -8.9334  -13.3916 C   0  0  0  0  0  0  0  0  0  0  0  0
   16.6413   -9.7691  -14.1286 O   0  0  0  0  0  0  0  0  0  0  0  0
   16.0148   -3.3123  -15.8525 N   0  0  0  0  0  0  0  0  0  0  0  0
   17.1573   -3.8637  -16.4861 C   0  0  0  0  0  0  0  0  0  0  0  0
   17.7048   -3.2361  -17.4335 O   0  0  0  0  0  0  0  0  0  0  0  0
   17.6825   -5.1617  -16.0233 C   0  0  0  0  0  0  0  0  0  0  0  0
   16.8061   -5.6681  -14.8858 C   0  0  0  0  0  0  0  0  0  0  0  0
   17.2896   -7.0344  -14.4187 C   0  0  2  0  0  0  0  0  0  0  0  0
   16.3723   -7.5583  -13.4584 N   0  0  0  0  0  0  0  0  0  0  0  0
   18.6557   -6.8689  -13.9179 C   0  0  0  0  0  0  0  0  0  0  0  0
   18.8105   -6.3657  -12.7780 O   0  0  0  0  0  0  0  0  0  0  0  0
   23.3330   -8.0284  -13.9329 O   0  0  0  0  0  0  0  0  0  0  0  0
   22.1504   -8.0443  -14.6702 C   0  0  0  0  0  0  0  0  0  0  0  0
   21.1208   -7.1523  -14.0036 C   0  0  2  0  0  0  0  0  0  0  0  0
   19.8356   -7.2346  -14.6225 N   0  0  0  0  0  0  0  0  0  0  0  0
   21.6502   -5.7654  -13.9509 C   0  0  0  0  0  0  0  0  0  0  0  0
   22.2695   -5.3789  -12.7605 O   0  0  0  0  0  0  0  0  0  0  0  0
   21.5610   -4.9612  -14.9075 O   0  0  0  0  0  0  0  0  0  0  0  0
  2  1  1  6
  2  3  1  0
  3  4  1  0
  5  2  1  0
  5 13  1  0
  6  5  2  0
  7  8  1  0
  8 10  1  0
  8  9  2  0
 10 11  1  0
 12 11  1  1
 12 13  1  0
 12 14  1  0
 14 15  2  0
 14 19  1  0
 16 17  1  0
 18 17  1  6
 18 20  1  0
 19 18  1  0
 20 21  1  0
 22 20  2  0
M  END
$$$$
