CQS.pdb
     RDKit          3D

 22 21  0  0  1  0  0  0  0  0999 V2000
   18.4988  -11.2112  -14.3686 N   0  0  0  0  0  0  0  0  0  0  0  0
   18.8629   -9.9690  -13.6943 C   0  0  1  0  0  0  0  0  0  0  0  0
   19.7864   -9.1713  -14.6047 C   0  0  0  0  0  0  0  0  0  0  0  0
   20.3972   -7.7504  -13.6627 S   0  0  0  0  0  0  0  0  0  0  0  0
   17.6533   -9.1767  -13.4161 C   0  0  0  0  0  0  0  0  0  0  0  0
   16.7830   -9.0814  -14.3237 O   0  0  0  0  0  0  0  0  0  0  0  0
   15.1430   -7.8799   -7.9135 N   0  0  0  0  0  0  0  0  0  0  0  0
   14.3203   -7.1090   -8.7734 C   0  0  0  0  0  0  0  0  0  0  0  0
   13.2997   -6.5342   -8.3049 O   0  0  0  0  0  0  0  0  0  0  0  0
   14.6754   -6.9951  -10.2002 C   0  0  0  0  0  0  0  0  0  0  0  0
   15.9199   -7.8316  -10.4642 C   0  0  0  0  0  0  0  0  0  0  0  0
   16.3640   -7.6698  -11.9118 C   0  0  2  0  0  0  0  0  0  0  0  0
   17.4676   -8.5384  -12.1683 N   0  0  0  0  0  0  0  0  0  0  0  0
   16.6532   -6.2503  -12.1261 C   0  0  0  0  0  0  0  0  0  0  0  0
   17.6832   -5.7697  -11.5924 O   0  0  0  0  0  0  0  0  0  0  0  0
   17.1755   -4.4944  -15.2787 O   0  0  0  0  0  0  0  0  0  0  0  0
   16.2919   -3.6537  -14.6042 C   0  0  0  0  0  0  0  0  0  0  0  0
   16.2697   -4.0125  -13.1308 C   0  0  2  0  0  0  0  0  0  0  0  0
   15.8560   -5.3600  -12.8970 N   0  0  0  0  0  0  0  0  0  0  0  0
   15.4371   -3.0175  -12.4074 C   0  0  0  0  0  0  0  0  0  0  0  0
   15.9385   -1.7160  -12.3395 O   0  0  0  0  0  0  0  0  0  0  0  0
   14.3384   -3.3006  -11.8758 O   0  0  0  0  0  0  0  0  0  0  0  0
  2  1  1  6
  2  3  1  0
  3  4  1  0
  5  2  1  0
  5 13  1  0
  6  5  2  0
  7  8  1  0
  8 10  1  0
  8  9  2  0
 10 11  1  0
 12 11  1  1
 12 13  1  0
 12 14  1  0
 14 15  2  0
 14 19  1  0
 16 17  1  0
 18 17  1  6
 18 20  1  0
 19 18  1  0
 20 21  1  0
 22 20  2  0
M  END
$$$$
