FTW.pdb
     RDKit          3D

 33 35  0  0  1  0  0  0  0  0999 V2000
   27.9587  -20.3342  -17.5474 N   0  0  0  0  0  0  0  0  0  0  0  0
   28.1889  -21.1415  -16.3699 C   0  0  1  0  0  0  0  0  0  0  0  0
   29.6958  -21.4397  -16.3646 C   0  0  0  0  0  0  0  0  0  0  0  0
   29.9817  -22.4558  -17.4026 C   0  0  0  0  0  0  0  0  0  0  0  0
   30.3410  -22.0520  -18.6820 C   0  0  0  0  0  0  0  0  0  0  0  0
   30.6164  -22.9607  -19.6747 C   0  0  0  0  0  0  0  0  0  0  0  0
   30.5245  -24.3064  -19.3594 C   0  0  0  0  0  0  0  0  0  0  0  0
   30.1676  -24.7153  -18.0884 C   0  0  0  0  0  0  0  0  0  0  0  0
   29.8932  -23.7949  -17.0991 C   0  0  0  0  0  0  0  0  0  0  0  0
   27.7805  -20.3808  -15.1792 C   0  0  0  0  0  0  0  0  0  0  0  0
   27.7736  -19.1009  -15.2018 O   0  0  0  0  0  0  0  0  0  0  0  0
   25.7995  -18.5042  -14.4528 C   0  0  0  0  0  0  0  0  0  0  0  0
   25.5782  -19.4336  -13.2797 C   0  0  1  0  0  0  0  0  0  0  0  0
   24.6104  -20.3469  -13.6631 O   0  0  0  0  0  0  0  0  0  0  0  0
   26.8176  -20.1738  -12.8830 C   0  0  2  0  0  0  0  0  0  0  0  0
   27.3785  -20.9525  -13.9638 N   0  0  0  0  0  0  0  0  0  0  0  0
   26.5046  -21.0330  -11.7128 C   0  0  0  0  0  0  0  0  0  0  0  0
   26.5050  -22.3122  -11.8354 O   0  0  0  0  0  0  0  0  0  0  0  0
   26.1940  -20.5663  -10.4147 N   0  0  0  0  0  0  0  0  0  0  0  0
   25.9571  -21.4959   -9.3235 C   0  0  1  0  0  0  0  0  0  0  0  0
   27.1495  -21.7285   -8.4758 C   0  0  0  0  0  0  0  0  0  0  0  0
   27.3920  -20.5540   -7.6116 C   0  0  0  0  0  0  0  0  0  0  0  0
   26.9382  -19.2595   -7.8390 C   0  0  0  0  0  0  0  0  0  0  0  0
   27.3697  -18.4600   -6.8529 N   0  0  0  0  0  0  0  0  0  0  0  0
   28.0965  -19.1674   -5.9708 C   0  0  0  0  0  0  0  0  0  0  0  0
   28.7395  -18.8107   -4.8130 C   0  0  0  0  0  0  0  0  0  0  0  0
   29.4280  -19.7606   -4.0790 C   0  0  0  0  0  0  0  0  0  0  0  0
   29.4476  -21.0551   -4.5390 C   0  0  0  0  0  0  0  0  0  0  0  0
   28.8028  -21.4109   -5.6994 C   0  0  0  0  0  0  0  0  0  0  0  0
   28.1149  -20.4819   -6.4404 C   0  0  0  0  0  0  0  0  0  0  0  0
   24.8459  -20.9835   -8.4934 C   0  0  0  0  0  0  0  0  0  0  0  0
   24.4420  -21.6677   -7.3606 O   0  0  0  0  0  0  0  0  0  0  0  0
   24.2272  -19.9171   -8.7790 O   0  0  0  0  0  0  0  0  0  0  0  0
  2  1  1  6
  2 10  1  0
  2  3  1  0
  4  3  1  0
  4  5  2  0
  6  5  1  0
  7  6  2  0
  8  9  2  0
  8  7  1  0
  9  4  1  0
 10 11  2  0
 13 12  1  6
 13 14  1  0
 15 13  1  0
 15 16  1  6
 16 10  1  0
 17 15  1  0
 18 17  2  0
 19 17  1  0
 20 21  1  1
 20 19  1  0
 21 22  1  0
 22 30  1  0
 23 24  1  0
 23 22  2  0
 24 25  1  0
 25 30  2  0
 25 26  1  0
 26 27  2  0
 27 28  1  0
 29 28  2  0
 30 29  1  0
 31 20  1  0
 31 32  1  0
 33 31  2  0
M  END
$$$$
