FTW.pdb
     RDKit          3D

 33 35  0  0  1  0  0  0  0  0999 V2000
   26.5236  -21.8147   -7.0452 N   0  0  0  0  0  0  0  0  0  0  0  0
   26.5943  -20.6464   -7.8945 C   0  0  1  0  0  0  0  0  0  0  0  0
   28.0251  -20.1100   -7.7366 C   0  0  0  0  0  0  0  0  0  0  0  0
   28.1854  -19.5847   -6.3617 C   0  0  0  0  0  0  0  0  0  0  0  0
   27.9313  -18.2442   -6.1020 C   0  0  0  0  0  0  0  0  0  0  0  0
   28.0657  -17.7154   -4.8413 C   0  0  0  0  0  0  0  0  0  0  0  0
   28.4666  -18.5673   -3.8252 C   0  0  0  0  0  0  0  0  0  0  0  0
   28.7212  -19.9022   -4.0764 C   0  0  0  0  0  0  0  0  0  0  0  0
   28.5831  -20.4230   -5.3458 C   0  0  0  0  0  0  0  0  0  0  0  0
   26.3123  -21.0440   -9.2821 C   0  0  0  0  0  0  0  0  0  0  0  0
   26.6542  -22.2034   -9.7036 O   0  0  0  0  0  0  0  0  0  0  0  0
   23.2134  -21.7178  -10.9304 C   0  0  0  0  0  0  0  0  0  0  0  0
   24.5430  -21.9051  -11.6276 C   0  0  1  0  0  0  0  0  0  0  0  0
   24.2677  -22.2120  -12.9497 O   0  0  0  0  0  0  0  0  0  0  0  0
   25.4017  -20.6797  -11.5800 C   0  0  2  0  0  0  0  0  0  0  0  0
   25.6736  -20.2346  -10.2320 N   0  0  0  0  0  0  0  0  0  0  0  0
   24.7468  -19.6087  -12.3737 C   0  0  0  0  0  0  0  0  0  0  0  0
   24.7185  -18.4037  -11.9283 O   0  0  0  0  0  0  0  0  0  0  0  0
   24.1238  -19.7863  -13.6305 N   0  0  0  0  0  0  0  0  0  0  0  0
   23.7404  -18.6439  -14.4423 C   0  0  1  0  0  0  0  0  0  0  0  0
   24.8422  -17.6784  -14.6617 C   0  0  0  0  0  0  0  0  0  0  0  0
   25.9672  -18.3437  -15.3521 C   0  0  0  0  0  0  0  0  0  0  0  0
   26.0523  -18.6112  -16.7140 C   0  0  0  0  0  0  0  0  0  0  0  0
   27.2078  -19.2412  -16.9695 N   0  0  0  0  0  0  0  0  0  0  0  0
   27.9036  -19.4077  -15.8316 C   0  0  0  0  0  0  0  0  0  0  0  0
   29.1220  -19.9824  -15.5741 C   0  0  0  0  0  0  0  0  0  0  0  0
   29.6150  -20.0176  -14.2815 C   0  0  0  0  0  0  0  0  0  0  0  0
   28.8569  -19.4666  -13.2768 C   0  0  0  0  0  0  0  0  0  0  0  0
   27.6360  -18.8912  -13.5365 C   0  0  0  0  0  0  0  0  0  0  0  0
   27.1312  -18.8472  -14.8126 C   0  0  0  0  0  0  0  0  0  0  0  0
   23.2367  -19.1317  -15.7441 C   0  0  0  0  0  0  0  0  0  0  0  0
   22.5752  -18.2756  -16.6067 O   0  0  0  0  0  0  0  0  0  0  0  0
   23.3852  -20.3316  -16.1177 O   0  0  0  0  0  0  0  0  0  0  0  0
  2  1  1  1
  2 10  1  0
  2  3  1  0
  4  3  1  0
  4  5  2  0
  6  5  1  0
  7  6  2  0
  8  9  2  0
  8  7  1  0
  9  4  1  0
 10 11  2  0
 13 12  1  1
 13 14  1  0
 15 13  1  0
 15 16  1  1
 16 10  1  0
 17 15  1  0
 18 17  2  0
 19 17  1  0
 20 21  1  6
 20 19  1  0
 21 22  1  0
 22 30  1  0
 23 24  1  0
 23 22  2  0
 24 25  1  0
 25 30  2  0
 25 26  1  0
 26 27  2  0
 27 28  1  0
 29 28  2  0
 30 29  1  0
 31 20  1  0
 31 32  1  0
 33 31  2  0
M  END
$$$$
