FTW.pdb
     RDKit          3D

 33 35  0  0  1  0  0  0  0  0999 V2000
   28.7105  -21.1406   -8.9603 N   0  0  0  0  0  0  0  0  0  0  0  0
   27.2948  -20.9014   -8.7880 C   0  0  1  0  0  0  0  0  0  0  0  0
   27.1941  -19.6157   -7.9534 C   0  0  0  0  0  0  0  0  0  0  0  0
   27.8541  -19.8449   -6.6481 C   0  0  0  0  0  0  0  0  0  0  0  0
   28.4687  -21.0635   -6.3911 C   0  0  0  0  0  0  0  0  0  0  0  0
   29.0941  -21.3181   -5.1948 C   0  0  0  0  0  0  0  0  0  0  0  0
   29.0940  -20.3131   -4.2415 C   0  0  0  0  0  0  0  0  0  0  0  0
   28.4845  -19.0980   -4.4905 C   0  0  0  0  0  0  0  0  0  0  0  0
   27.8595  -18.8527   -5.6949 C   0  0  0  0  0  0  0  0  0  0  0  0
   26.6705  -20.7421  -10.1101 C   0  0  0  0  0  0  0  0  0  0  0  0
   27.3870  -20.4584  -11.1323 O   0  0  0  0  0  0  0  0  0  0  0  0
   26.8607  -21.7240  -12.6669 C   0  0  0  0  0  0  0  0  0  0  0  0
   25.3486  -21.7738  -12.6522 C   0  0  1  0  0  0  0  0  0  0  0  0
   24.9889  -23.0540  -12.2655 O   0  0  0  0  0  0  0  0  0  0  0  0
   24.7441  -20.7889  -11.7004 C   0  0  2  0  0  0  0  0  0  0  0  0
   25.2995  -20.8787  -10.3691 N   0  0  0  0  0  0  0  0  0  0  0  0
   23.2726  -20.9891  -11.6794 C   0  0  0  0  0  0  0  0  0  0  0  0
   22.6617  -21.1546  -10.5611 O   0  0  0  0  0  0  0  0  0  0  0  0
   22.4340  -21.0149  -12.8176 N   0  0  0  0  0  0  0  0  0  0  0  0
   21.2207  -20.2171  -12.8697 C   0  0  1  0  0  0  0  0  0  0  0  0
   21.4703  -18.7579  -12.8175 C   0  0  0  0  0  0  0  0  0  0  0  0
   20.1889  -18.0235  -12.8787 C   0  0  0  0  0  0  0  0  0  0  0  0
   19.2850  -17.8607  -11.8348 C   0  0  0  0  0  0  0  0  0  0  0  0
   18.2311  -17.1546  -12.2685 N   0  0  0  0  0  0  0  0  0  0  0  0
   18.3914  -16.8360  -13.5644 C   0  0  0  0  0  0  0  0  0  0  0  0
   17.6066  -16.1336  -14.4429 C   0  0  0  0  0  0  0  0  0  0  0  0
   18.0215  -15.9466  -15.7498 C   0  0  0  0  0  0  0  0  0  0  0  0
   19.2278  -16.4790  -16.1358 C   0  0  0  0  0  0  0  0  0  0  0  0
   20.0130  -17.1828  -15.2544 C   0  0  0  0  0  0  0  0  0  0  0  0
   19.6175  -17.3781  -13.9541 C   0  0  0  0  0  0  0  0  0  0  0  0
   20.4815  -20.5539  -14.1051 C   0  0  0  0  0  0  0  0  0  0  0  0
   21.1541  -20.7203  -15.3029 O   0  0  0  0  0  0  0  0  0  0  0  0
   19.2246  -20.7005  -14.1200 O   0  0  0  0  0  0  0  0  0  0  0  0
  2  1  1  6
  2 10  1  0
  2  3  1  0
  4  3  1  0
  4  5  2  0
  6  5  1  0
  7  6  2  0
  8  9  2  0
  8  7  1  0
  9  4  1  0
 10 11  2  0
 13 12  1  1
 13 14  1  0
 15 13  1  0
 15 16  1  1
 16 10  1  0
 17 15  1  0
 18 17  2  0
 19 17  1  0
 20 21  1  6
 20 19  1  0
 21 22  1  0
 22 30  1  0
 23 24  1  0
 23 22  2  0
 24 25  1  0
 25 30  2  0
 25 26  1  0
 26 27  2  0
 27 28  1  0
 29 28  2  0
 30 29  1  0
 31 20  1  0
 31 32  1  0
 33 31  2  0
M  END
$$$$
