FTW.pdb
     RDKit          3D

 33 35  0  0  1  0  0  0  0  0999 V2000
   27.0782  -19.8644  -19.2354 N   0  0  0  0  0  0  0  0  0  0  0  0
   26.4221  -19.2599  -18.0973 C   0  0  1  0  0  0  0  0  0  0  0  0
   25.6567  -18.0520  -18.6582 C   0  0  0  0  0  0  0  0  0  0  0  0
   26.6361  -17.0591  -19.1548 C   0  0  0  0  0  0  0  0  0  0  0  0
   26.8884  -16.9615  -20.5171 C   0  0  0  0  0  0  0  0  0  0  0  0
   27.7876  -16.0535  -21.0212 C   0  0  0  0  0  0  0  0  0  0  0  0
   28.4429  -15.2289  -20.1215 C   0  0  0  0  0  0  0  0  0  0  0  0
   28.1967  -15.3204  -18.7647 C   0  0  0  0  0  0  0  0  0  0  0  0
   27.2919  -16.2354  -18.2691 C   0  0  0  0  0  0  0  0  0  0  0  0
   25.5146  -20.2440  -17.4880 C   0  0  0  0  0  0  0  0  0  0  0  0
   24.8949  -21.0912  -18.2209 O   0  0  0  0  0  0  0  0  0  0  0  0
   25.8517  -23.2527  -15.8381 C   0  0  0  0  0  0  0  0  0  0  0  0
   24.9691  -22.4590  -14.8999 C   0  0  1  0  0  0  0  0  0  0  0  0
   25.7801  -21.9904  -13.8798 O   0  0  0  0  0  0  0  0  0  0  0  0
   24.3069  -21.2956  -15.5702 C   0  0  2  0  0  0  0  0  0  0  0  0
   25.2518  -20.3471  -16.1148 N   0  0  0  0  0  0  0  0  0  0  0  0
   23.3951  -20.6418  -14.5971 C   0  0  0  0  0  0  0  0  0  0  0  0
   23.7879  -19.6089  -13.9411 O   0  0  0  0  0  0  0  0  0  0  0  0
   22.0751  -21.0568  -14.3063 N   0  0  0  0  0  0  0  0  0  0  0  0
   21.2298  -20.2857  -13.4108 C   0  0  1  0  0  0  0  0  0  0  0  0
   21.0386  -18.8813  -13.8417 C   0  0  0  0  0  0  0  0  0  0  0  0
   20.3169  -18.8422  -15.1311 C   0  0  0  0  0  0  0  0  0  0  0  0
   18.9631  -19.0949  -15.3225 C   0  0  0  0  0  0  0  0  0  0  0  0
   18.6727  -18.9842  -16.6267 N   0  0  0  0  0  0  0  0  0  0  0  0
   19.7794  -18.6666  -17.3201 C   0  0  0  0  0  0  0  0  0  0  0  0
   19.9959  -18.4452  -18.6563 C   0  0  0  0  0  0  0  0  0  0  0  0
   21.2626  -18.1234  -19.1115 C   0  0  0  0  0  0  0  0  0  0  0  0
   22.2835  -18.0336  -18.1965 C   0  0  0  0  0  0  0  0  0  0  0  0
   22.0650  -18.2559  -16.8580 C   0  0  0  0  0  0  0  0  0  0  0  0
   20.8151  -18.5760  -16.3883 C   0  0  0  0  0  0  0  0  0  0  0  0
   19.9172  -20.9570  -13.2981 C   0  0  0  0  0  0  0  0  0  0  0  0
   18.9909  -20.5355  -12.3607 O   0  0  0  0  0  0  0  0  0  0  0  0
   19.5913  -21.9291  -14.0400 O   0  0  0  0  0  0  0  0  0  0  0  0
  2  1  1  6
  2 10  1  0
  2  3  1  0
  4  3  1  0
  4  5  2  0
  6  5  1  0
  7  6  2  0
  8  9  2  0
  8  7  1  0
  9  4  1  0
 10 11  2  0
 13 12  1  6
 13 14  1  0
 15 13  1  0
 15 16  1  1
 16 10  1  0
 17 15  1  0
 18 17  2  0
 19 17  1  0
 20 21  1  6
 20 19  1  0
 21 22  1  0
 22 30  1  0
 23 24  1  0
 23 22  2  0
 24 25  1  0
 25 30  2  0
 25 26  1  0
 26 27  2  0
 27 28  1  0
 29 28  2  0
 30 29  1  0
 31 20  1  0
 31 32  1  0
 33 31  2  0
M  END
$$$$
