FTW.pdb
     RDKit          3D

 33 35  0  0  1  0  0  0  0  0999 V2000
   22.5670  -10.5585  -20.8332 N   0  0  0  0  0  0  0  0  0  0  0  0
   23.0014   -9.3307  -20.2047 C   0  0  1  0  0  0  0  0  0  0  0  0
   22.9663   -8.2673  -21.3127 C   0  0  0  0  0  0  0  0  0  0  0  0
   24.0758   -8.5300  -22.2571 C   0  0  0  0  0  0  0  0  0  0  0  0
   23.8360   -9.2535  -23.4181 C   0  0  0  0  0  0  0  0  0  0  0  0
   24.8355   -9.5187  -24.3224 C   0  0  0  0  0  0  0  0  0  0  0  0
   26.1036   -9.0382  -24.0398 C   0  0  0  0  0  0  0  0  0  0  0  0
   26.3493   -8.3174  -22.8865 C   0  0  0  0  0  0  0  0  0  0  0  0
   25.3388   -8.0568  -21.9853 C   0  0  0  0  0  0  0  0  0  0  0  0
   22.0805   -9.0022  -19.1059 C   0  0  0  0  0  0  0  0  0  0  0  0
   20.8646   -9.4008  -19.1416 O   0  0  0  0  0  0  0  0  0  0  0  0
   20.9649   -8.0579  -14.4678 C   0  0  0  0  0  0  0  0  0  0  0  0
   21.9101   -8.4592  -15.5789 C   0  0  1  0  0  0  0  0  0  0  0  0
   21.9379   -9.8435  -15.6073 O   0  0  0  0  0  0  0  0  0  0  0  0
   21.4788   -7.9524  -16.9200 C   0  0  2  0  0  0  0  0  0  0  0  0
   22.4252   -8.2584  -17.9686 N   0  0  0  0  0  0  0  0  0  0  0  0
   21.2446   -6.4890  -16.8228 C   0  0  0  0  0  0  0  0  0  0  0  0
   22.2346   -5.6729  -16.8948 O   0  0  0  0  0  0  0  0  0  0  0  0
   19.9839   -5.8715  -16.6539 N   0  0  0  0  0  0  0  0  0  0  0  0
   19.8643   -4.4253  -16.5803 C   0  0  1  0  0  0  0  0  0  0  0  0
   19.7214   -3.7760  -17.9042 C   0  0  0  0  0  0  0  0  0  0  0  0
   18.5647   -4.3478  -18.6252 C   0  0  0  0  0  0  0  0  0  0  0  0
   17.2560   -4.4104  -18.1596 C   0  0  0  0  0  0  0  0  0  0  0  0
   16.4879   -5.0126  -19.0788 N   0  0  0  0  0  0  0  0  0  0  0  0
   17.2299   -5.3574  -20.1452 C   0  0  0  0  0  0  0  0  0  0  0  0
   16.9117   -5.9823  -21.3240 C   0  0  0  0  0  0  0  0  0  0  0  0
   17.8912   -6.2173  -22.2729 C   0  0  0  0  0  0  0  0  0  0  0  0
   19.1754   -5.8110  -22.0022 C   0  0  0  0  0  0  0  0  0  0  0  0
   19.4927   -5.1850  -20.8205 C   0  0  0  0  0  0  0  0  0  0  0  0
   18.5340   -4.9436  -19.8677 C   0  0  0  0  0  0  0  0  0  0  0  0
   18.7039   -4.0857  -15.7292 C   0  0  0  0  0  0  0  0  0  0  0  0
   18.5276   -2.7942  -15.2649 O   0  0  0  0  0  0  0  0  0  0  0  0
   17.8388   -4.9462  -15.3940 O   0  0  0  0  0  0  0  0  0  0  0  0
  2  1  1  6
  2 10  1  0
  2  3  1  0
  4  3  1  0
  4  5  2  0
  6  5  1  0
  7  6  2  0
  8  9  2  0
  8  7  1  0
  9  4  1  0
 10 11  2  0
 13 12  1  1
 13 14  1  0
 15 13  1  0
 15 16  1  6
 16 10  1  0
 17 15  1  0
 18 17  2  0
 19 17  1  0
 20 21  1  6
 20 19  1  0
 21 22  1  0
 22 30  1  0
 23 24  1  0
 23 22  2  0
 24 25  1  0
 25 30  2  0
 25 26  1  0
 26 27  2  0
 27 28  1  0
 29 28  2  0
 30 29  1  0
 31 20  1  0
 31 32  1  0
 33 31  2  0
M  END
$$$$
