FTW.pdb
     RDKit          3D

 33 35  0  0  1  0  0  0  0  0999 V2000
   30.1988  -20.8322  -15.0294 N   0  0  0  0  0  0  0  0  0  0  0  0
   29.2130  -21.2213  -14.0455 C   0  0  1  0  0  0  0  0  0  0  0  0
   29.5685  -20.4349  -12.7748 C   0  0  0  0  0  0  0  0  0  0  0  0
   30.4841  -21.2554  -11.9500 C   0  0  0  0  0  0  0  0  0  0  0  0
   30.8080  -22.5440  -12.3543 C   0  0  0  0  0  0  0  0  0  0  0  0
   31.6545  -23.3391  -11.6206 C   0  0  0  0  0  0  0  0  0  0  0  0
   32.1815  -22.8127  -10.4527 C   0  0  0  0  0  0  0  0  0  0  0  0
   31.8636  -21.5313  -10.0444 C   0  0  0  0  0  0  0  0  0  0  0  0
   31.0127  -20.7414  -10.7884 C   0  0  0  0  0  0  0  0  0  0  0  0
   27.8739  -20.8731  -14.5441 C   0  0  0  0  0  0  0  0  0  0  0  0
   27.7338  -19.9735  -15.4440 O   0  0  0  0  0  0  0  0  0  0  0  0
   25.9561  -20.0067  -16.6567 C   0  0  0  0  0  0  0  0  0  0  0  0
   25.0398  -20.8904  -15.8390 C   0  0  1  0  0  0  0  0  0  0  0  0
   25.1716  -22.1776  -16.3325 O   0  0  0  0  0  0  0  0  0  0  0  0
   25.3808  -20.8897  -14.3812 C   0  0  2  0  0  0  0  0  0  0  0  0
   26.6792  -21.4619  -14.1063 N   0  0  0  0  0  0  0  0  0  0  0  0
   24.3128  -21.6104  -13.6425 C   0  0  0  0  0  0  0  0  0  0  0  0
   24.5820  -22.7077  -13.0304 O   0  0  0  0  0  0  0  0  0  0  0  0
   22.9663  -21.1921  -13.5358 N   0  0  0  0  0  0  0  0  0  0  0  0
   22.0105  -21.9459  -12.7427 C   0  0  1  0  0  0  0  0  0  0  0  0
   22.3378  -21.9804  -11.2983 C   0  0  0  0  0  0  0  0  0  0  0  0
   22.8191  -20.6541  -10.8575 C   0  0  0  0  0  0  0  0  0  0  0  0
   22.3120  -19.4223  -11.2560 C   0  0  0  0  0  0  0  0  0  0  0  0
   23.0117  -18.4436  -10.6644 N   0  0  0  0  0  0  0  0  0  0  0  0
   23.9703  -18.9700   -9.8828 C   0  0  0  0  0  0  0  0  0  0  0  0
   24.9250  -18.3942   -9.0841 C   0  0  0  0  0  0  0  0  0  0  0  0
   25.8044  -19.1881   -8.3689 C   0  0  0  0  0  0  0  0  0  0  0  0
   25.6936  -20.5529   -8.4816 C   0  0  0  0  0  0  0  0  0  0  0  0
   24.7364  -21.1284   -9.2825 C   0  0  0  0  0  0  0  0  0  0  0  0
   23.8556  -20.3565   -9.9992 C   0  0  0  0  0  0  0  0  0  0  0  0
   20.6654  -21.3633  -12.9366 C   0  0  0  0  0  0  0  0  0  0  0  0
   19.5612  -21.9249  -12.3202 O   0  0  0  0  0  0  0  0  0  0  0  0
   20.4699  -20.3453  -13.6625 O   0  0  0  0  0  0  0  0  0  0  0  0
  2  1  1  6
  2 10  1  0
  2  3  1  0
  4  3  1  0
  4  5  2  0
  6  5  1  0
  7  6  2  0
  8  9  2  0
  8  7  1  0
  9  4  1  0
 10 11  2  0
 13 12  1  6
 13 14  1  0
 15 13  1  0
 15 16  1  6
 16 10  1  0
 17 15  1  0
 18 17  2  0
 19 17  1  0
 20 21  1  1
 20 19  1  0
 21 22  1  0
 22 30  1  0
 23 24  1  0
 23 22  2  0
 24 25  1  0
 25 30  2  0
 25 26  1  0
 26 27  2  0
 27 28  1  0
 29 28  2  0
 30 29  1  0
 31 20  1  0
 31 32  1  0
 33 31  2  0
M  END
$$$$
