FTW.pdb
     RDKit          3D

 33 35  0  0  1  0  0  0  0  0999 V2000
   28.3169  -15.9555  -18.0765 N   0  0  0  0  0  0  0  0  0  0  0  0
   28.6553  -17.1545  -17.3422 C   0  0  1  0  0  0  0  0  0  0  0  0
   30.0798  -16.9249  -16.8151 C   0  0  0  0  0  0  0  0  0  0  0  0
   31.0303  -17.0636  -17.9417 C   0  0  0  0  0  0  0  0  0  0  0  0
   31.8234  -15.9851  -18.3111 C   0  0  0  0  0  0  0  0  0  0  0  0
   32.7195  -16.0703  -19.3488 C   0  0  0  0  0  0  0  0  0  0  0  0
   32.8102  -17.2766  -20.0238 C   0  0  0  0  0  0  0  0  0  0  0  0
   32.0241  -18.3539  -19.6616 C   0  0  0  0  0  0  0  0  0  0  0  0
   31.1276  -18.2578  -18.6182 C   0  0  0  0  0  0  0  0  0  0  0  0
   27.6917  -17.3336  -16.2456 C   0  0  0  0  0  0  0  0  0  0  0  0
   26.9456  -16.3611  -15.8765 O   0  0  0  0  0  0  0  0  0  0  0  0
   24.8802  -17.1430  -15.9115 C   0  0  0  0  0  0  0  0  0  0  0  0
   25.0551  -18.5540  -15.3943 C   0  0  1  0  0  0  0  0  0  0  0  0
   25.0057  -19.3971  -16.4919 O   0  0  0  0  0  0  0  0  0  0  0  0
   26.3571  -18.7549  -14.6831 C   0  0  2  0  0  0  0  0  0  0  0  0
   27.5038  -18.5260  -15.5326 N   0  0  0  0  0  0  0  0  0  0  0  0
   26.3809  -20.1258  -14.1124 C   0  0  0  0  0  0  0  0  0  0  0  0
   26.7798  -21.1145  -14.8297 O   0  0  0  0  0  0  0  0  0  0  0  0
   25.9939  -20.4714  -12.7970 N   0  0  0  0  0  0  0  0  0  0  0  0
   26.0367  -21.8512  -12.3439 C   0  0  1  0  0  0  0  0  0  0  0  0
   26.9785  -22.0762  -11.2227 C   0  0  0  0  0  0  0  0  0  0  0  0
   26.6127  -21.2186  -10.0757 C   0  0  0  0  0  0  0  0  0  0  0  0
   25.4043  -20.5535   -9.9000 C   0  0  0  0  0  0  0  0  0  0  0  0
   25.4440  -19.8597   -8.7535 N   0  0  0  0  0  0  0  0  0  0  0  0
   26.6330  -20.0326   -8.1510 C   0  0  0  0  0  0  0  0  0  0  0  0
   27.1494  -19.5446   -6.9778 C   0  0  0  0  0  0  0  0  0  0  0  0
   28.4297  -19.8920   -6.5838 C   0  0  0  0  0  0  0  0  0  0  0  0
   29.1586  -20.7297   -7.3929 C   0  0  0  0  0  0  0  0  0  0  0  0
   28.6398  -21.2178   -8.5684 C   0  0  0  0  0  0  0  0  0  0  0  0
   27.3716  -20.8839   -8.9750 C   0  0  0  0  0  0  0  0  0  0  0  0
   24.6746  -22.2637  -11.9430 C   0  0  0  0  0  0  0  0  0  0  0  0
   23.6421  -21.3430  -11.9130 O   0  0  0  0  0  0  0  0  0  0  0  0
   24.4001  -23.4547  -11.6148 O   0  0  0  0  0  0  0  0  0  0  0  0
  2  1  1  1
  2 10  1  0
  2  3  1  0
  4  3  1  0
  4  5  2  0
  6  5  1  0
  7  6  2  0
  8  9  2  0
  8  7  1  0
  9  4  1  0
 10 11  2  0
 13 12  1  6
 13 14  1  0
 15 13  1  0
 15 16  1  6
 16 10  1  0
 17 15  1  0
 18 17  2  0
 19 17  1  0
 20 21  1  1
 20 19  1  0
 21 22  1  0
 22 30  1  0
 23 24  1  0
 23 22  2  0
 24 25  1  0
 25 30  2  0
 25 26  1  0
 26 27  2  0
 27 28  1  0
 29 28  2  0
 30 29  1  0
 31 20  1  0
 31 32  1  0
 33 31  2  0
M  END
$$$$
