FTW.pdb
     RDKit          3D

 33 35  0  0  1  0  0  0  0  0999 V2000
   26.4912  -22.0320   -9.0492 N   0  0  0  0  0  0  0  0  0  0  0  0
   26.3471  -20.7653   -9.7318 C   0  0  1  0  0  0  0  0  0  0  0  0
   27.6679  -20.0179   -9.4935 C   0  0  0  0  0  0  0  0  0  0  0  0
   27.7882  -19.7167   -8.0490 C   0  0  0  0  0  0  0  0  0  0  0  0
   28.6095  -20.4993   -7.2479 C   0  0  0  0  0  0  0  0  0  0  0  0
   28.7519  -20.2543   -5.9037 C   0  0  0  0  0  0  0  0  0  0  0  0
   28.0447  -19.1923   -5.3643 C   0  0  0  0  0  0  0  0  0  0  0  0
   27.2257  -18.4094   -6.1556 C   0  0  0  0  0  0  0  0  0  0  0  0
   27.0899  -18.6639   -7.5041 C   0  0  0  0  0  0  0  0  0  0  0  0
   26.1135  -21.0148  -11.1623 C   0  0  0  0  0  0  0  0  0  0  0  0
   26.8009  -21.8976  -11.7843 O   0  0  0  0  0  0  0  0  0  0  0  0
   25.2362  -23.1959  -12.9692 C   0  0  0  0  0  0  0  0  0  0  0  0
   24.2646  -22.1144  -13.3882 C   0  0  1  0  0  0  0  0  0  0  0  0
   23.1764  -22.1946  -12.5353 O   0  0  0  0  0  0  0  0  0  0  0  0
   24.8521  -20.7402  -13.3014 C   0  0  2  0  0  0  0  0  0  0  0  0
   25.1634  -20.3454  -11.9463 N   0  0  0  0  0  0  0  0  0  0  0  0
   23.9122  -19.7801  -13.9343 C   0  0  0  0  0  0  0  0  0  0  0  0
   22.9507  -19.2738  -13.2483 O   0  0  0  0  0  0  0  0  0  0  0  0
   23.9706  -19.3425  -15.2776 N   0  0  0  0  0  0  0  0  0  0  0  0
   22.9891  -18.4086  -15.8025 C   0  0  1  0  0  0  0  0  0  0  0  0
   23.3755  -17.8141  -17.1031 C   0  0  0  0  0  0  0  0  0  0  0  0
   22.4066  -16.7661  -17.4875 C   0  0  0  0  0  0  0  0  0  0  0  0
   22.4181  -15.4417  -17.0639 C   0  0  0  0  0  0  0  0  0  0  0  0
   21.3749  -14.7956  -17.6040 N   0  0  0  0  0  0  0  0  0  0  0  0
   20.6619  -15.6346  -18.3749 C   0  0  0  0  0  0  0  0  0  0  0  0
   19.5297  -15.4544  -19.1276 C   0  0  0  0  0  0  0  0  0  0  0  0
   18.9947  -16.5113  -19.8431 C   0  0  0  0  0  0  0  0  0  0  0  0
   19.6240  -17.7309  -19.7775 C   0  0  0  0  0  0  0  0  0  0  0  0
   20.7584  -17.9099  -19.0225 C   0  0  0  0  0  0  0  0  0  0  0  0
   21.3032  -16.8728  -18.3064 C   0  0  0  0  0  0  0  0  0  0  0  0
   21.6922  -19.1057  -15.9372 C   0  0  0  0  0  0  0  0  0  0  0  0
   20.5242  -18.5073  -15.4985 O   0  0  0  0  0  0  0  0  0  0  0  0
   21.5967  -20.2591  -16.4490 O   0  0  0  0  0  0  0  0  0  0  0  0
  2  1  1  1
  2 10  1  0
  2  3  1  0
  4  3  1  0
  4  5  2  0
  6  5  1  0
  7  6  2  0
  8  9  2  0
  8  7  1  0
  9  4  1  0
 10 11  2  0
 13 12  1  1
 13 14  1  0
 15 13  1  0
 15 16  1  1
 16 10  1  0
 17 15  1  0
 18 17  2  0
 19 17  1  0
 20 21  1  6
 20 19  1  0
 21 22  1  0
 22 30  1  0
 23 24  1  0
 23 22  2  0
 24 25  1  0
 25 30  2  0
 25 26  1  0
 26 27  2  0
 27 28  1  0
 29 28  2  0
 30 29  1  0
 31 20  1  0
 31 32  1  0
 33 31  2  0
M  END
$$$$
