RCL.pdb
     RDKit          3D

 26 25  0  0  1  0  0  0  0  0999 V2000
   25.0451  -16.8096  -19.0378 N   0  0  0  0  0  0  0  0  0  0  0  0
   26.1643  -16.3929  -18.2836 C   0  0  0  0  0  0  0  0  0  0  0  0
   26.4316  -15.1365  -18.1767 N   0  0  0  0  0  0  0  0  0  0  0  0
   27.0355  -17.3186  -17.6172 N   0  0  0  0  0  0  0  0  0  0  0  0
   27.0228  -18.7239  -17.8752 C   0  0  0  0  0  0  0  0  0  0  0  0
   26.6424  -19.5248  -16.6250 C   0  0  0  0  0  0  0  0  0  0  0  0
   27.6924  -19.3450  -15.5497 C   0  0  0  0  0  0  0  0  0  0  0  0
   27.9602  -20.6891  -14.9067 C   0  0  2  0  0  0  0  0  0  0  0  0
   28.1249  -21.6838  -15.9501 N   0  0  0  0  0  0  0  0  0  0  0  0
   26.8634  -21.1126  -14.0208 C   0  0  0  0  0  0  0  0  0  0  0  0
   26.0210  -21.9389  -14.4535 O   0  0  0  0  0  0  0  0  0  0  0  0
   27.2165  -14.7962  -17.6020 N   0  0  0  0  0  0  0  0  0  0  0  0
   26.6921  -20.6436  -12.6928 C   0  0  2  0  0  0  0  0  0  0  0  0
   25.5814  -21.0607  -11.8776 C   0  0  0  0  0  0  0  0  0  0  0  0
   25.8239  -20.4804  -10.4763 S   0  0  0  0  0  0  0  0  0  0  0  0
   24.4601  -21.0665   -9.4338 C   0  0  0  0  0  0  0  0  0  0  0  0
   24.2966  -20.4793  -12.3338 O   0  0  0  0  0  0  0  0  0  0  0  0
   24.2738  -19.2424  -12.6274 C   0  0  0  0  0  0  0  0  0  0  0  0
   22.1449  -18.8303  -15.6926 C   0  0  2  0  0  0  0  0  0  0  0  0
   22.5159  -20.2680  -15.5101 C   0  0  0  0  0  0  0  0  0  0  0  0
   22.4724  -20.9321  -16.8960 C   0  0  0  0  0  0  0  0  0  0  0  0
   21.8253  -21.0703  -14.4983 C   0  0  2  0  0  0  0  0  0  0  0  0
   21.8789  -20.6369  -13.1005 N   0  0  0  0  0  0  0  0  0  0  0  0
   23.1048  -21.2026  -12.4628 C   0  0  0  0  0  0  0  0  0  0  0  0
   20.7838  -21.0400  -12.2498 O   0  0  0  0  0  0  0  0  0  0  0  0
   20.7322  -22.0611  -11.5406 O   0  0  0  0  0  0  0  0  0  0  0  0
  2  1  1  0
  2  3  2  0
  4  2  1  0
  5  4  1  0
  6  5  1  0
  7  6  1  0
  8  7  1  0
  8  9  1  6
 10  8  1  0
 10 12  1  0
 11 10  2  0
 13 12  1  0
 13 16  1  0
 13 14  1  1
 15 14  1  0
 16 23  1  0
 16 17  2  0
 19 18  1  6
 19 21  1  0
 20 19  1  0
 22 21  1  6
 22 24  1  0
 23 22  1  0
 24 26  1  0
 25 24  2  0
M  END
$$$$
