RCL.pdb
     RDKit          3D

 26 25  0  0  1  0  0  0  0  0999 V2000
   24.3710  -22.8157  -15.4355 N   0  0  0  0  0  0  0  0  0  0  0  0
   25.0614  -23.8908  -14.8334 C   0  0  0  0  0  0  0  0  0  0  0  0
   25.6108  -24.7924  -15.5728 N   0  0  0  0  0  0  0  0  0  0  0  0
   25.1836  -24.0309  -13.4101 N   0  0  0  0  0  0  0  0  0  0  0  0
   24.7314  -23.0374  -12.4881 C   0  0  0  0  0  0  0  0  0  0  0  0
   25.8732  -22.1159  -12.0449 C   0  0  0  0  0  0  0  0  0  0  0  0
   25.4984  -20.6686  -12.2816 C   0  0  0  0  0  0  0  0  0  0  0  0
   25.4193  -20.4282  -13.7740 C   0  0  2  0  0  0  0  0  0  0  0  0
   26.7525  -20.5315  -14.3372 N   0  0  0  0  0  0  0  0  0  0  0  0
   24.8728  -19.1000  -14.0974 C   0  0  0  0  0  0  0  0  0  0  0  0
   23.8808  -18.6800  -13.4498 O   0  0  0  0  0  0  0  0  0  0  0  0
   26.0788  -25.6157  -15.1663 N   0  0  0  0  0  0  0  0  0  0  0  0
   25.3989  -18.2511  -15.1051 C   0  0  2  0  0  0  0  0  0  0  0  0
   24.7958  -16.9827  -15.4205 C   0  0  0  0  0  0  0  0  0  0  0  0
   25.8446  -16.1820  -16.2065 S   0  0  0  0  0  0  0  0  0  0  0  0
   27.1410  -15.7297  -15.0212 C   0  0  0  0  0  0  0  0  0  0  0  0
   23.6341  -17.1207  -16.3306 O   0  0  0  0  0  0  0  0  0  0  0  0
   23.7641  -17.8654  -17.3530 C   0  0  0  0  0  0  0  0  0  0  0  0
   18.0340  -16.4223  -17.3980 C   0  0  1  0  0  0  0  0  0  0  0  0
   18.8592  -17.5683  -16.9040 C   0  0  0  0  0  0  0  0  0  0  0  0
   17.9442  -18.4549  -16.0438 C   0  0  0  0  0  0  0  0  0  0  0  0
   20.1408  -17.3057  -16.2460 C   0  0  2  0  0  0  0  0  0  0  0  0
   21.2255  -16.7121  -17.0305 N   0  0  0  0  0  0  0  0  0  0  0  0
   22.4018  -16.4845  -16.1393 C   0  0  0  0  0  0  0  0  0  0  0  0
   20.9603  -15.4343  -17.6487 O   0  0  0  0  0  0  0  0  0  0  0  0
   21.0464  -14.3166  -17.1085 O   0  0  0  0  0  0  0  0  0  0  0  0
  2  1  1  0
  2  3  2  0
  4  2  1  0
  5  4  1  0
  6  5  1  0
  7  6  1  0
  8  7  1  0
  8  9  1  1
 10  8  1  0
 10 12  1  0
 11 10  2  0
 13 12  1  0
 13 16  1  0
 13 14  1  1
 15 14  1  0
 16 23  1  0
 16 17  2  0
 19 18  1  6
 19 21  1  0
 20 19  1  0
 22 21  1  6
 22 24  1  0
 23 22  1  0
 24 26  1  0
 25 24  2  0
M  END
$$$$
