RCL.pdb
     RDKit          3D

 26 25  0  0  1  0  0  0  0  0999 V2000
   28.3401  -20.0643  -19.6079 N   0  0  0  0  0  0  0  0  0  0  0  0
   29.3627  -20.8842  -19.0816 C   0  0  0  0  0  0  0  0  0  0  0  0
   30.4918  -20.9727  -19.6971 N   0  0  0  0  0  0  0  0  0  0  0  0
   29.2028  -21.6385  -17.8710 N   0  0  0  0  0  0  0  0  0  0  0  0
   28.1114  -21.4428  -16.9698 C   0  0  0  0  0  0  0  0  0  0  0  0
   27.8239  -19.9541  -16.7450 C   0  0  0  0  0  0  0  0  0  0  0  0
   26.6165  -19.7849  -15.8480 C   0  0  0  0  0  0  0  0  0  0  0  0
   26.8348  -20.5930  -14.5867 C   0  0  2  0  0  0  0  0  0  0  0  0
   26.1921  -21.8848  -14.7400 N   0  0  0  0  0  0  0  0  0  0  0  0
   26.2804  -19.9293  -13.3954 C   0  0  0  0  0  0  0  0  0  0  0  0
   25.7455  -18.7994  -13.5262 O   0  0  0  0  0  0  0  0  0  0  0  0
   31.2462  -21.5886  -19.3600 N   0  0  0  0  0  0  0  0  0  0  0  0
   26.3101  -20.4881  -12.0917 C   0  0  1  0  0  0  0  0  0  0  0  0
   25.2981  -20.1869  -11.1132 C   0  0  0  0  0  0  0  0  0  0  0  0
   24.0249  -20.9211  -11.5591 S   0  0  0  0  0  0  0  0  0  0  0  0
   22.7125  -20.4178  -10.4125 C   0  0  0  0  0  0  0  0  0  0  0  0
   25.6264  -20.7332   -9.7751 O   0  0  0  0  0  0  0  0  0  0  0  0
   25.7693  -21.9918   -9.6646 C   0  0  0  0  0  0  0  0  0  0  0  0
   29.2086  -20.5300   -6.6002 C   0  0  2  0  0  0  0  0  0  0  0  0
   28.2852  -19.3612   -6.7395 C   0  0  0  0  0  0  0  0  0  0  0  0
   28.8670  -18.2145   -5.8969 C   0  0  0  0  0  0  0  0  0  0  0  0
   26.8513  -19.5402   -6.5022 C   0  0  2  0  0  0  0  0  0  0  0  0
   26.1273  -20.5389   -7.2912 N   0  0  0  0  0  0  0  0  0  0  0  0
   25.7893  -19.9544   -8.6231 C   0  0  0  0  0  0  0  0  0  0  0  0
   24.8745  -21.0136   -6.7522 O   0  0  0  0  0  0  0  0  0  0  0  0
   24.7269  -21.8686   -5.8603 O   0  0  0  0  0  0  0  0  0  0  0  0
  2  1  1  0
  2  3  2  0
  4  2  1  0
  5  4  1  0
  6  5  1  0
  7  6  1  0
  8  7  1  0
  8  9  1  6
 10  8  1  0
 10 12  1  0
 11 10  2  0
 13 12  1  0
 13 16  1  0
 13 14  1  6
 15 14  1  0
 16 23  1  0
 16 17  2  0
 19 18  1  6
 19 21  1  0
 20 19  1  0
 22 21  1  6
 22 24  1  0
 23 22  1  0
 24 26  1  0
 25 24  2  0
M  END
$$$$
