RCL.pdb
     RDKit          3D

 26 25  0  0  1  0  0  0  0  0999 V2000
   26.4716  -24.7438  -17.3966 N   0  0  0  0  0  0  0  0  0  0  0  0
   25.1591  -24.3744  -17.0278 C   0  0  0  0  0  0  0  0  0  0  0  0
   24.2171  -25.2539  -17.0498 N   0  0  0  0  0  0  0  0  0  0  0  0
   24.8166  -23.0410  -16.6216 N   0  0  0  0  0  0  0  0  0  0  0  0
   25.7880  -22.0101  -16.4342 C   0  0  0  0  0  0  0  0  0  0  0  0
   26.8785  -22.4341  -15.4441 C   0  0  0  0  0  0  0  0  0  0  0  0
   26.9659  -21.4401  -14.3059 C   0  0  0  0  0  0  0  0  0  0  0  0
   26.5713  -22.1395  -13.0227 C   0  0  2  0  0  0  0  0  0  0  0  0
   25.3879  -22.9417  -13.2703 N   0  0  0  0  0  0  0  0  0  0  0  0
   26.2782  -21.1900  -11.9367 C   0  0  0  0  0  0  0  0  0  0  0  0
   27.1112  -20.2831  -11.6846 O   0  0  0  0  0  0  0  0  0  0  0  0
   23.2374  -25.0041  -16.8500 N   0  0  0  0  0  0  0  0  0  0  0  0
   25.1016  -21.2310  -11.1450 C   0  0  1  0  0  0  0  0  0  0  0  0
   24.8871  -20.3150  -10.0554 C   0  0  0  0  0  0  0  0  0  0  0  0
   23.3733  -20.2868   -9.7979 S   0  0  0  0  0  0  0  0  0  0  0  0
   23.0668  -18.8884   -8.6839 C   0  0  0  0  0  0  0  0  0  0  0  0
   25.4986  -20.7886   -8.7910 O   0  0  0  0  0  0  0  0  0  0  0  0
   25.3056  -21.9991   -8.4533 C   0  0  0  0  0  0  0  0  0  0  0  0
   29.7633  -20.8782   -6.0672 C   0  0  1  0  0  0  0  0  0  0  0  0
   29.0601  -19.5910   -6.3617 C   0  0  0  0  0  0  0  0  0  0  0  0
   29.9031  -18.4585   -5.7534 C   0  0  0  0  0  0  0  0  0  0  0  0
   27.6398  -19.4514   -6.0334 C   0  0  2  0  0  0  0  0  0  0  0  0
   26.6931  -20.4273   -6.5773 N   0  0  0  0  0  0  0  0  0  0  0  0
   26.2753  -19.9904   -7.9427 C   0  0  0  0  0  0  0  0  0  0  0  0
   25.4640  -20.6226   -5.8448 O   0  0  0  0  0  0  0  0  0  0  0  0
   24.4177  -19.9592   -5.9608 O   0  0  0  0  0  0  0  0  0  0  0  0
  2  1  1  0
  2  3  2  0
  4  2  1  0
  5  4  1  0
  6  5  1  0
  7  6  1  0
  8  7  1  0
  8  9  1  6
 10  8  1  0
 10 12  1  0
 11 10  2  0
 13 12  1  0
 13 16  1  0
 13 14  1  6
 15 14  1  0
 16 23  1  0
 16 17  2  0
 19 18  1  6
 19 21  1  0
 20 19  1  0
 22 21  1  6
 22 24  1  0
 23 22  1  0
 24 26  1  0
 25 24  2  0
M  END
$$$$
