RCL.pdb
     RDKit          3D

 26 25  0  0  1  0  0  0  0  0999 V2000
   29.9763  -23.1910  -16.2209 N   0  0  0  0  0  0  0  0  0  0  0  0
   29.0232  -23.4473  -17.2313 C   0  0  0  0  0  0  0  0  0  0  0  0
   29.2942  -24.2916  -18.1668 N   0  0  0  0  0  0  0  0  0  0  0  0
   27.7422  -22.8009  -17.2677 N   0  0  0  0  0  0  0  0  0  0  0  0
   27.5099  -21.5013  -16.7213 C   0  0  0  0  0  0  0  0  0  0  0  0
   27.2345  -21.5624  -15.2147 C   0  0  0  0  0  0  0  0  0  0  0  0
   26.9669  -20.1735  -14.6758 C   0  0  0  0  0  0  0  0  0  0  0  0
   26.1178  -19.4217  -15.6784 C   0  0  2  0  0  0  0  0  0  0  0  0
   26.9217  -19.1338  -16.8516 N   0  0  0  0  0  0  0  0  0  0  0  0
   25.6049  -18.1530  -15.1358 C   0  0  0  0  0  0  0  0  0  0  0  0
   24.8397  -18.1866  -14.1392 O   0  0  0  0  0  0  0  0  0  0  0  0
   28.6336  -24.4802  -18.9350 N   0  0  0  0  0  0  0  0  0  0  0  0
   25.9216  -16.8775  -15.6702 C   0  0  2  0  0  0  0  0  0  0  0  0
   25.3139  -15.6723  -15.1698 C   0  0  0  0  0  0  0  0  0  0  0  0
   26.4417  -14.6398  -15.0258 S   0  0  0  0  0  0  0  0  0  0  0  0
   27.3640  -14.6640  -16.5875 C   0  0  0  0  0  0  0  0  0  0  0  0
   24.3532  -15.0828  -16.1323 O   0  0  0  0  0  0  0  0  0  0  0  0
   24.5755  -15.2497  -17.3730 C   0  0  0  0  0  0  0  0  0  0  0  0
   20.1138  -16.0427  -17.0515 C   0  0  2  0  0  0  0  0  0  0  0  0
   20.2961  -15.0556  -15.9421 C   0  0  0  0  0  0  0  0  0  0  0  0
   18.9351  -14.8918  -15.2461 C   0  0  0  0  0  0  0  0  0  0  0  0
   20.9262  -13.7633  -16.2203 C   0  0  2  0  0  0  0  0  0  0  0  0
   22.2859  -13.7465  -16.7637 N   0  0  0  0  0  0  0  0  0  0  0  0
   23.2159  -14.3533  -15.7655 C   0  0  0  0  0  0  0  0  0  0  0  0
   22.8485  -12.4535  -17.0749 O   0  0  0  0  0  0  0  0  0  0  0  0
   23.6967  -11.8335  -16.4081 O   0  0  0  0  0  0  0  0  0  0  0  0
  2  1  1  0
  2  3  2  0
  4  2  1  0
  5  4  1  0
  6  5  1  0
  7  6  1  0
  8  7  1  0
  8  9  1  6
 10  8  1  0
 10 12  1  0
 11 10  2  0
 13 12  1  0
 13 16  1  0
 13 14  1  1
 15 14  1  0
 16 23  1  0
 16 17  2  0
 19 18  1  1
 19 21  1  0
 20 19  1  0
 22 21  1  6
 22 24  1  0
 23 22  1  0
 24 26  1  0
 25 24  2  0
M  END
$$$$
