RCL.pdb
     RDKit          3D

 26 25  0  0  1  0  0  0  0  0999 V2000
   28.0710  -25.1861  -16.2011 N   0  0  0  0  0  0  0  0  0  0  0  0
   26.8495  -24.5828  -16.5736 C   0  0  0  0  0  0  0  0  0  0  0  0
   25.8270  -25.3208  -16.8407 N   0  0  0  0  0  0  0  0  0  0  0  0
   26.6879  -23.1599  -16.6709 N   0  0  0  0  0  0  0  0  0  0  0  0
   27.6260  -22.2305  -16.1252 C   0  0  0  0  0  0  0  0  0  0  0  0
   27.8279  -22.4479  -14.6215 C   0  0  0  0  0  0  0  0  0  0  0  0
   27.5038  -21.1793  -13.8620 C   0  0  0  0  0  0  0  0  0  0  0  0
   26.0265  -21.1782  -13.5319 C   0  0  2  0  0  0  0  0  0  0  0  0
   25.2945  -20.6305  -14.6586 N   0  0  0  0  0  0  0  0  0  0  0  0
   25.7221  -20.3745  -12.3367 C   0  0  0  0  0  0  0  0  0  0  0  0
   25.2274  -19.2290  -12.4878 O   0  0  0  0  0  0  0  0  0  0  0  0
   24.9446  -24.9188  -17.1900 N   0  0  0  0  0  0  0  0  0  0  0  0
   25.9530  -20.8134  -11.0074 C   0  0  1  0  0  0  0  0  0  0  0  0
   25.6462  -19.9856   -9.8704 C   0  0  0  0  0  0  0  0  0  0  0  0
   24.1147  -19.9256   -9.7722 S   0  0  0  0  0  0  0  0  0  0  0  0
   23.5514  -21.6235   -9.4719 C   0  0  0  0  0  0  0  0  0  0  0  0
   26.1050  -20.5856   -8.5951 O   0  0  0  0  0  0  0  0  0  0  0  0
   25.9773  -21.8421   -8.4485 C   0  0  0  0  0  0  0  0  0  0  0  0
   30.1842  -20.0237   -6.3141 C   0  0  1  0  0  0  0  0  0  0  0  0
   29.1080  -19.0393   -5.9807 C   0  0  0  0  0  0  0  0  0  0  0  0
   29.7333  -17.9658   -5.0751 C   0  0  0  0  0  0  0  0  0  0  0  0
   27.8274  -19.5181   -5.4561 C   0  0  2  0  0  0  0  0  0  0  0  0
   27.0633  -20.4879   -6.2434 N   0  0  0  0  0  0  0  0  0  0  0  0
   26.6700  -19.8597   -7.5397 C   0  0  0  0  0  0  0  0  0  0  0  0
   25.8330  -20.9742   -5.6645 O   0  0  0  0  0  0  0  0  0  0  0  0
   24.6779  -20.6715   -6.0145 O   0  0  0  0  0  0  0  0  0  0  0  0
  2  1  1  0
  2  3  2  0
  4  2  1  0
  5  4  1  0
  6  5  1  0
  7  6  1  0
  8  7  1  0
  8  9  1  6
 10  8  1  0
 10 12  1  0
 11 10  2  0
 13 12  1  0
 13 16  1  0
 13 14  1  6
 15 14  1  0
 16 23  1  0
 16 17  2  0
 19 18  1  6
 19 21  1  0
 20 19  1  0
 22 21  1  6
 22 24  1  0
 23 22  1  0
 24 26  1  0
 25 24  2  0
M  END
$$$$
