RCL.pdb
     RDKit          3D

 26 25  0  0  1  0  0  0  0  0999 V2000
   23.0731  -32.8968   -6.5574 N   0  0  0  0  0  0  0  0  0  0  0  0
   22.2772  -34.0458   -6.7613 C   0  0  0  0  0  0  0  0  0  0  0  0
   22.7937  -35.2168   -6.6087 N   0  0  0  0  0  0  0  0  0  0  0  0
   20.8940  -33.9713   -7.1374 N   0  0  0  0  0  0  0  0  0  0  0  0
   20.2174  -32.7358   -7.3765 C   0  0  0  0  0  0  0  0  0  0  0  0
   19.9233  -31.9902   -6.0701 C   0  0  0  0  0  0  0  0  0  0  0  0
   19.1584  -30.7158   -6.3566 C   0  0  0  0  0  0  0  0  0  0  0  0
   17.8219  -30.7854   -5.6492 C   0  0  2  0  0  0  0  0  0  0  0  0
   16.7792  -30.9963   -6.6359 N   0  0  0  0  0  0  0  0  0  0  0  0
   17.5211  -29.5534   -4.9017 C   0  0  0  0  0  0  0  0  0  0  0  0
   16.9367  -28.6126   -5.4960 O   0  0  0  0  0  0  0  0  0  0  0  0
   22.2538  -36.0755   -6.7914 N   0  0  0  0  0  0  0  0  0  0  0  0
   17.8513  -29.3549   -3.5362 C   0  0  2  0  0  0  0  0  0  0  0  0
   17.5580  -28.1208   -2.8557 C   0  0  0  0  0  0  0  0  0  0  0  0
   16.0287  -27.9808   -2.8412 S   0  0  0  0  0  0  0  0  0  0  0  0
   15.3679  -29.6034   -2.3710 C   0  0  0  0  0  0  0  0  0  0  0  0
   17.9700  -28.1494   -1.4322 O   0  0  0  0  0  0  0  0  0  0  0  0
   17.6320  -29.1574   -0.7349 C   0  0  0  0  0  0  0  0  0  0  0  0
   22.0312  -27.1514   -0.6342 C   0  0  1  0  0  0  0  0  0  0  0  0
   21.2349  -25.9847   -0.1414 C   0  0  0  0  0  0  0  0  0  0  0  0
   22.2332  -24.9038    0.3043 C   0  0  0  0  0  0  0  0  0  0  0  0
   20.1802  -26.1969    0.8520 C   0  0  2  0  0  0  0  0  0  0  0  0
   19.1840  -27.2420    0.6077 N   0  0  0  0  0  0  0  0  0  0  0  0
   18.7073  -27.1388   -0.8036 C   0  0  0  0  0  0  0  0  0  0  0  0
   17.9897  -27.2079    1.4188 O   0  0  0  0  0  0  0  0  0  0  0  0
   16.8749  -26.7714    1.0799 O   0  0  0  0  0  0  0  0  0  0  0  0
  2  1  1  0
  2  3  2  0
  4  2  1  0
  5  4  1  0
  6  5  1  0
  7  6  1  0
  8  7  1  0
  8  9  1  6
 10  8  1  0
 10 12  1  0
 11 10  2  0
 13 12  1  0
 13 16  1  0
 13 14  1  6
 15 14  1  0
 16 23  1  0
 16 17  2  0
 19 18  1  6
 19 21  1  0
 20 19  1  0
 22 21  1  6
 22 24  1  0
 23 22  1  0
 24 26  1  0
 25 24  2  0
M  END
$$$$
