RCL.pdb
     RDKit          3D

 26 25  0  0  1  0  0  0  0  0999 V2000
   27.5329  -30.0188  -17.6416 N   0  0  0  0  0  0  0  0  0  0  0  0
   27.5325  -29.4693  -18.9428 C   0  0  0  0  0  0  0  0  0  0  0  0
   27.8934  -30.1963  -19.9441 N   0  0  0  0  0  0  0  0  0  0  0  0
   27.1419  -28.1141  -19.2097 N   0  0  0  0  0  0  0  0  0  0  0  0
   27.1810  -27.0833  -18.2210 C   0  0  0  0  0  0  0  0  0  0  0  0
   26.0455  -27.2333  -17.2026 C   0  0  0  0  0  0  0  0  0  0  0  0
   26.0377  -26.0557  -16.2516 C   0  0  0  0  0  0  0  0  0  0  0  0
   27.0350  -25.0296  -16.7454 C   0  0  2  0  0  0  0  0  0  0  0  0
   28.3706  -25.4549  -16.3702 N   0  0  0  0  0  0  0  0  0  0  0  0
   26.7891  -23.6937  -16.1778 C   0  0  0  0  0  0  0  0  0  0  0  0
   27.0321  -23.4998  -14.9599 O   0  0  0  0  0  0  0  0  0  0  0  0
   27.8836  -29.8337  -20.9088 N   0  0  0  0  0  0  0  0  0  0  0  0
   26.2895  -22.5957  -16.9245 C   0  0  2  0  0  0  0  0  0  0  0  0
   26.0400  -21.3149  -16.3168 C   0  0  0  0  0  0  0  0  0  0  0  0
   26.5237  -20.2538  -17.3163 S   0  0  0  0  0  0  0  0  0  0  0  0
   26.4294  -18.6582  -16.4587 C   0  0  0  0  0  0  0  0  0  0  0  0
   24.5938  -21.0531  -16.1250 O   0  0  0  0  0  0  0  0  0  0  0  0
   23.7995  -21.3854  -17.0606 C   0  0  0  0  0  0  0  0  0  0  0  0
   21.3137  -22.3198  -12.8173 C   0  0  1  0  0  0  0  0  0  0  0  0
   22.2218  -21.1790  -12.4825 C   0  0  0  0  0  0  0  0  0  0  0  0
   21.9150  -20.7582  -11.0360 C   0  0  0  0  0  0  0  0  0  0  0  0
   22.2966  -20.0262  -13.3824 C   0  0  2  0  0  0  0  0  0  0  0  0
   22.5754  -20.2585  -14.8010 N   0  0  0  0  0  0  0  0  0  0  0  0
   24.0436  -20.4631  -14.9808 C   0  0  0  0  0  0  0  0  0  0  0  0
   22.2211  -19.2005  -15.7177 O   0  0  0  0  0  0  0  0  0  0  0  0
   22.9863  -18.3399  -16.1891 O   0  0  0  0  0  0  0  0  0  0  0  0
  2  1  1  0
  2  3  2  0
  4  2  1  0
  5  4  1  0
  6  5  1  0
  7  6  1  0
  8  7  1  0
  8  9  1  1
 10  8  1  0
 10 12  1  0
 11 10  2  0
 13 12  1  0
 13 16  1  0
 13 14  1  1
 15 14  1  0
 16 23  1  0
 16 17  2  0
 19 18  1  1
 19 21  1  0
 20 19  1  0
 22 21  1  1
 22 24  1  0
 23 22  1  0
 24 26  1  0
 25 24  2  0
M  END
$$$$
