RCL.pdb
     RDKit          3D

 26 25  0  0  1  0  0  0  0  0999 V2000
   18.1663  -16.5875  -17.6477 N   0  0  0  0  0  0  0  0  0  0  0  0
   17.0097  -16.6312  -16.8382 C   0  0  0  0  0  0  0  0  0  0  0  0
   16.3409  -17.7284  -16.7372 N   0  0  0  0  0  0  0  0  0  0  0  0
   16.5334  -15.4909  -16.1081 N   0  0  0  0  0  0  0  0  0  0  0  0
   17.2704  -14.2715  -16.0008 C   0  0  0  0  0  0  0  0  0  0  0  0
   16.4938  -13.2087  -15.2155 C   0  0  0  0  0  0  0  0  0  0  0  0
   16.5460  -11.8811  -15.9408 C   0  0  0  0  0  0  0  0  0  0  0  0
   15.8493  -10.8394  -15.0918 C   0  0  2  0  0  0  0  0  0  0  0  0
   14.4484  -10.7892  -15.4663 N   0  0  0  0  0  0  0  0  0  0  0  0
   16.4314   -9.4983  -15.2642 C   0  0  0  0  0  0  0  0  0  0  0  0
   16.0000   -8.7660  -16.1902 O   0  0  0  0  0  0  0  0  0  0  0  0
   15.4916  -17.7942  -16.1571 N   0  0  0  0  0  0  0  0  0  0  0  0
   17.4610   -8.9703  -14.4433 C   0  0  1  0  0  0  0  0  0  0  0  0
   17.9607   -7.6317  -14.6185 C   0  0  0  0  0  0  0  0  0  0  0  0
   16.7860   -6.6844  -14.3329 S   0  0  0  0  0  0  0  0  0  0  0  0
   17.4007   -5.0019  -14.6183 C   0  0  0  0  0  0  0  0  0  0  0  0
   19.0046   -7.2842  -13.6253 O   0  0  0  0  0  0  0  0  0  0  0  0
   19.0527   -7.9618  -12.5505 C   0  0  0  0  0  0  0  0  0  0  0  0
   22.6790   -9.0211  -12.7243 C   0  0  2  0  0  0  0  0  0  0  0  0
   21.9986   -8.9263  -14.0533 C   0  0  0  0  0  0  0  0  0  0  0  0
   22.7532   -9.8518  -15.0216 C   0  0  0  0  0  0  0  0  0  0  0  0
   21.7436   -7.6103  -14.6428 C   0  0  2  0  0  0  0  0  0  0  0  0
   21.4162   -6.4933  -13.7544 N   0  0  0  0  0  0  0  0  0  0  0  0
   19.9421   -6.2580  -13.7922 C   0  0  0  0  0  0  0  0  0  0  0  0
   22.0160   -5.2164  -14.0629 O   0  0  0  0  0  0  0  0  0  0  0  0
   21.6499   -4.4183  -14.9446 O   0  0  0  0  0  0  0  0  0  0  0  0
  2  1  1  0
  2  3  2  0
  4  2  1  0
  5  4  1  0
  6  5  1  0
  7  6  1  0
  8  7  1  0
  8  9  1  6
 10  8  1  0
 10 12  1  0
 11 10  2  0
 13 12  1  0
 13 16  1  0
 13 14  1  6
 15 14  1  0
 16 23  1  0
 16 17  2  0
 19 18  1  1
 19 21  1  0
 20 19  1  0
 22 21  1  1
 22 24  1  0
 23 22  1  0
 24 26  1  0
 25 24  2  0
M  END
$$$$
