RCL.pdb
     RDKit          3D

 26 25  0  0  1  0  0  0  0  0999 V2000
   14.4370  -14.6927  -18.8524 N   0  0  0  0  0  0  0  0  0  0  0  0
   15.2793  -15.2202  -17.8487 C   0  0  0  0  0  0  0  0  0  0  0  0
   15.0216  -16.3762  -17.3401 N   0  0  0  0  0  0  0  0  0  0  0  0
   16.4309  -14.5180  -17.3580 N   0  0  0  0  0  0  0  0  0  0  0  0
   16.7545  -13.1827  -17.7502 C   0  0  0  0  0  0  0  0  0  0  0  0
   18.0300  -12.6846  -17.0616 C   0  0  0  0  0  0  0  0  0  0  0  0
   18.9764  -12.0895  -18.0821 C   0  0  0  0  0  0  0  0  0  0  0  0
   20.1568  -11.4859  -17.3517 C   0  0  2  0  0  0  0  0  0  0  0  0
   20.5987  -12.4134  -16.3271 N   0  0  0  0  0  0  0  0  0  0  0  0
   19.8214  -10.2028  -16.7127 C   0  0  0  0  0  0  0  0  0  0  0  0
   19.4231   -9.2537  -17.4340 O   0  0  0  0  0  0  0  0  0  0  0  0
   15.6253  -16.7981  -16.6192 N   0  0  0  0  0  0  0  0  0  0  0  0
   19.9189   -9.9634  -15.3177 C   0  0  1  0  0  0  0  0  0  0  0  0
   19.7108   -8.6547  -14.7555 C   0  0  0  0  0  0  0  0  0  0  0  0
   19.2291   -8.8689  -13.3129 S   0  0  0  0  0  0  0  0  0  0  0  0
   18.8465   -7.2248  -12.6488 C   0  0  0  0  0  0  0  0  0  0  0  0
   20.9700   -7.8808  -14.6454 O   0  0  0  0  0  0  0  0  0  0  0  0
   21.9554   -8.4279  -14.0568 C   0  0  0  0  0  0  0  0  0  0  0  0
   24.5183   -7.7150  -16.6173 C   0  0  2  0  0  0  0  0  0  0  0  0
   23.4142   -6.8639  -17.1601 C   0  0  0  0  0  0  0  0  0  0  0  0
   23.7693   -6.5269  -18.6175 C   0  0  0  0  0  0  0  0  0  0  0  0
   22.9815   -5.6794  -16.4156 C   0  0  2  0  0  0  0  0  0  0  0  0
   22.4464   -5.8551  -15.0639 N   0  0  0  0  0  0  0  0  0  0  0  0
   21.1467   -6.5857  -15.1468 C   0  0  0  0  0  0  0  0  0  0  0  0
   22.1638   -4.6547  -14.3126 O   0  0  0  0  0  0  0  0  0  0  0  0
   21.0461   -4.1390  -14.1309 O   0  0  0  0  0  0  0  0  0  0  0  0
  2  1  1  0
  2  3  2  0
  4  2  1  0
  5  4  1  0
  6  5  1  0
  7  6  1  0
  8  7  1  0
  8  9  1  1
 10  8  1  0
 10 12  1  0
 11 10  2  0
 13 12  1  0
 13 16  1  0
 13 14  1  6
 15 14  1  0
 16 23  1  0
 16 17  2  0
 19 18  1  6
 19 21  1  0
 20 19  1  0
 22 21  1  1
 22 24  1  0
 23 22  1  0
 24 26  1  0
 25 24  2  0
M  END
$$$$
