RCL.pdb
     RDKit          3D

 26 25  0  0  1  0  0  0  0  0999 V2000
   25.7250  -16.0720  -17.9338 N   0  0  0  0  0  0  0  0  0  0  0  0
   26.9587  -15.8264  -17.2915 C   0  0  0  0  0  0  0  0  0  0  0  0
   27.9957  -15.5212  -17.9935 N   0  0  0  0  0  0  0  0  0  0  0  0
   27.1170  -15.9014  -15.8669 N   0  0  0  0  0  0  0  0  0  0  0  0
   26.1288  -16.4646  -15.0021 C   0  0  0  0  0  0  0  0  0  0  0  0
   26.2277  -17.9932  -14.9505 C   0  0  0  0  0  0  0  0  0  0  0  0
   27.5450  -18.4111  -14.3331 C   0  0  0  0  0  0  0  0  0  0  0  0
   27.6194  -19.9230  -14.3312 C   0  0  2  0  0  0  0  0  0  0  0  0
   27.5950  -20.3956  -15.7028 N   0  0  0  0  0  0  0  0  0  0  0  0
   26.4976  -20.5363  -13.6015 C   0  0  0  0  0  0  0  0  0  0  0  0
   25.6562  -21.2138  -14.2440 O   0  0  0  0  0  0  0  0  0  0  0  0
   27.9255  -15.3054  -18.9988 N   0  0  0  0  0  0  0  0  0  0  0  0
   26.3007  -20.4119  -12.2020 C   0  0  2  0  0  0  0  0  0  0  0  0
   25.1599  -20.9900  -11.5413 C   0  0  0  0  0  0  0  0  0  0  0  0
   25.3641  -20.7641  -10.0360 S   0  0  0  0  0  0  0  0  0  0  0  0
   26.9989  -21.4381   -9.6317 C   0  0  0  0  0  0  0  0  0  0  0  0
   23.8970  -20.2930  -11.8821 O   0  0  0  0  0  0  0  0  0  0  0  0
   23.9227  -19.0251  -11.9729 C   0  0  0  0  0  0  0  0  0  0  0  0
   21.7749  -20.1522  -16.9009 C   0  0  1  0  0  0  0  0  0  0  0  0
   21.4629  -19.7554  -15.4926 C   0  0  0  0  0  0  0  0  0  0  0  0
   21.3936  -18.2201  -15.4536 C   0  0  0  0  0  0  0  0  0  0  0  0
   22.2683  -20.2936  -14.3943 C   0  0  2  0  0  0  0  0  0  0  0  0
   21.6549  -20.4248  -13.0711 N   0  0  0  0  0  0  0  0  0  0  0  0
   22.6761  -20.9389  -12.1107 C   0  0  0  0  0  0  0  0  0  0  0  0
   20.5337  -21.3279  -12.9580 O   0  0  0  0  0  0  0  0  0  0  0  0
   20.5857  -22.5683  -12.8740 O   0  0  0  0  0  0  0  0  0  0  0  0
  2  1  1  0
  2  3  2  0
  4  2  1  0
  5  4  1  0
  6  5  1  0
  7  6  1  0
  8  7  1  0
  8  9  1  6
 10  8  1  0
 10 12  1  0
 11 10  2  0
 13 12  1  0
 13 16  1  0
 13 14  1  6
 15 14  1  0
 16 23  1  0
 16 17  2  0
 19 18  1  6
 19 21  1  0
 20 19  1  0
 22 21  1  1
 22 24  1  0
 23 22  1  0
 24 26  1  0
 25 24  2  0
M  END
$$$$
