RCL.pdb
     RDKit          3D

 26 25  0  0  1  0  0  0  0  0999 V2000
   25.7238  -25.2144  -15.9510 N   0  0  0  0  0  0  0  0  0  0  0  0
   24.7309  -24.3562  -15.4288 C   0  0  0  0  0  0  0  0  0  0  0  0
   23.7575  -24.8479  -14.7418 N   0  0  0  0  0  0  0  0  0  0  0  0
   24.7536  -22.9352  -15.6298 N   0  0  0  0  0  0  0  0  0  0  0  0
   25.3707  -22.3184  -16.7613 C   0  0  0  0  0  0  0  0  0  0  0  0
   26.8574  -22.0404  -16.5129 C   0  0  0  0  0  0  0  0  0  0  0  0
   27.0952  -20.5516  -16.3785 C   0  0  0  0  0  0  0  0  0  0  0  0
   27.7229  -20.2828  -15.0275 C   0  0  2  0  0  0  0  0  0  0  0  0
   28.4379  -21.4701  -14.5979 N   0  0  0  0  0  0  0  0  0  0  0  0
   26.7211  -19.9401  -14.0046 C   0  0  0  0  0  0  0  0  0  0  0  0
   26.0281  -18.9032  -14.1601 O   0  0  0  0  0  0  0  0  0  0  0  0
   23.0123  -24.2512  -14.3535 N   0  0  0  0  0  0  0  0  0  0  0  0
   26.4828  -20.7133  -12.8393 C   0  0  2  0  0  0  0  0  0  0  0  0
   25.4781  -20.3454  -11.8762 C   0  0  0  0  0  0  0  0  0  0  0  0
   24.1625  -20.9800  -12.3509 S   0  0  0  0  0  0  0  0  0  0  0  0
   22.8732  -20.4037  -11.2126 C   0  0  0  0  0  0  0  0  0  0  0  0
   25.7406  -20.9245  -10.5373 O   0  0  0  0  0  0  0  0  0  0  0  0
   25.8728  -22.1861  -10.4499 C   0  0  0  0  0  0  0  0  0  0  0  0
   28.9426  -20.2001   -7.0961 C   0  0  1  0  0  0  0  0  0  0  0  0
   27.7807  -19.2608   -7.1729 C   0  0  0  0  0  0  0  0  0  0  0  0
   28.0463  -18.1207   -6.1764 C   0  0  0  0  0  0  0  0  0  0  0  0
   26.4184  -19.7844   -7.0531 C   0  0  2  0  0  0  0  0  0  0  0  0
   25.9680  -20.7979   -8.0094 N   0  0  0  0  0  0  0  0  0  0  0  0
   25.8525  -20.1737   -9.3609 C   0  0  0  0  0  0  0  0  0  0  0  0
   24.6832  -21.4074   -7.7579 O   0  0  0  0  0  0  0  0  0  0  0  0
   23.5841  -21.0328   -8.2050 O   0  0  0  0  0  0  0  0  0  0  0  0
  2  1  1  0
  2  3  2  0
  4  2  1  0
  5  4  1  0
  6  5  1  0
  7  6  1  0
  8  7  1  0
  8  9  1  1
 10  8  1  0
 10 12  1  0
 11 10  2  0
 13 12  1  0
 13 16  1  0
 13 14  1  6
 15 14  1  0
 16 23  1  0
 16 17  2  0
 19 18  1  6
 19 21  1  0
 20 19  1  0
 22 21  1  6
 22 24  1  0
 23 22  1  0
 24 26  1  0
 25 24  2  0
M  END
$$$$
