KVV.pdb
     RDKit          3D

 24 23  0  0  1  0  0  0  0  0999 V2000
    9.8879  -17.3640   20.3994 N   0  0  0  0  0  0  0  0  0  0  0  0
   10.5118  -16.2142   20.9801 C   0  0  1  0  0  0  0  0  0  0  0  0
   10.4015  -15.0312   20.0742 C   0  0  0  0  0  0  0  0  0  0  0  0
    9.0903  -14.9193   19.3945 C   0  0  0  0  0  0  0  0  0  0  0  0
    8.9007  -13.7409   18.4892 C   0  0  0  0  0  0  0  0  0  0  0  0
    7.4452  -13.7476   17.9406 C   0  0  0  0  0  0  0  0  0  0  0  0
    7.3935  -12.6216   17.0229 N   0  0  0  0  0  0  0  0  0  0  0  0
    9.8368  -15.9451   22.3015 C   0  0  0  0  0  0  0  0  0  0  0  0
   10.0223  -14.8575   22.8942 O   0  0  0  0  0  0  0  0  0  0  0  0
    7.8248  -19.0832   24.5746 C   0  0  0  0  0  0  0  0  0  0  0  0
    7.2723  -17.6870   24.4760 C   0  0  1  0  0  0  0  0  0  0  0  0
    6.4915  -17.2669   25.6843 C   0  0  0  0  0  0  0  0  0  0  0  0
    8.3362  -16.6586   24.1879 C   0  0  2  0  0  0  0  0  0  0  0  0
    8.9805  -16.8972   22.9132 N   0  0  0  0  0  0  0  0  0  0  0  0
    9.3161  -16.5315   25.2913 C   0  0  0  0  0  0  0  0  0  0  0  0
   10.4422  -17.0728   25.1421 O   0  0  0  0  0  0  0  0  0  0  0  0
    9.4390  -13.3870   27.8375 C   0  0  0  0  0  0  0  0  0  0  0  0
    9.6674  -14.6788   28.5487 C   0  0  2  0  0  0  0  0  0  0  0  0
   10.7199  -14.4859   29.6088 C   0  0  0  0  0  0  0  0  0  0  0  0
   10.0216  -15.7852   27.5829 C   0  0  2  0  0  0  0  0  0  0  0  0
    9.0733  -15.8447   26.4990 N   0  0  0  0  0  0  0  0  0  0  0  0
   10.2346  -17.0836   28.2355 C   0  0  0  0  0  0  0  0  0  0  0  0
   11.4794  -17.4493   28.7245 O   0  0  0  0  0  0  0  0  0  0  0  0
    9.2991  -17.9118   28.3759 O   0  0  0  0  0  0  0  0  0  0  0  0
  2  1  1  6
  2  8  1  0
  2  3  1  0
  4  5  1  0
  4  3  1  0
  6  5  1  0
  7  6  1  0
  8 14  1  0
  9  8  2  0
 11 12  1  1
 11 10  1  0
 13 11  1  0
 13 15  1  0
 13 14  1  6
 15 16  2  0
 15 21  1  0
 18 17  1  6
 18 20  1  0
 18 19  1  0
 20 22  1  0
 20 21  1  6
 22 24  2  0
 22 23  1  0
M  END
$$$$
