KVV.pdb
     RDKit          3D

 24 23  0  0  1  0  0  0  0  0999 V2000
    8.8201  -15.7706   20.6496 N   0  0  0  0  0  0  0  0  0  0  0  0
    8.0341  -16.1989   21.7664 C   0  0  1  0  0  0  0  0  0  0  0  0
    8.1996  -17.6644   22.0061 C   0  0  0  0  0  0  0  0  0  0  0  0
    7.5922  -18.5139   20.9557 C   0  0  0  0  0  0  0  0  0  0  0  0
    8.5035  -18.9918   19.8671 C   0  0  0  0  0  0  0  0  0  0  0  0
    7.7348  -19.9963   18.9619 C   0  0  0  0  0  0  0  0  0  0  0  0
    8.6877  -20.3615   17.9268 N   0  0  0  0  0  0  0  0  0  0  0  0
    8.4756  -15.4036   22.9692 C   0  0  0  0  0  0  0  0  0  0  0  0
    9.6892  -15.1499   23.1462 O   0  0  0  0  0  0  0  0  0  0  0  0
    7.1587  -12.8727   27.0855 C   0  0  0  0  0  0  0  0  0  0  0  0
    6.8187  -13.4384   25.7333 C   0  0  1  0  0  0  0  0  0  0  0  0
    6.3308  -12.4083   24.7602 C   0  0  0  0  0  0  0  0  0  0  0  0
    7.9625  -14.2032   25.1175 C   0  0  2  0  0  0  0  0  0  0  0  0
    7.5491  -14.9208   23.9296 N   0  0  0  0  0  0  0  0  0  0  0  0
    8.6443  -15.0863   26.0917 C   0  0  0  0  0  0  0  0  0  0  0  0
    8.0404  -16.1249   26.4659 O   0  0  0  0  0  0  0  0  0  0  0  0
   12.6735  -15.5536   26.2232 C   0  0  0  0  0  0  0  0  0  0  0  0
   12.0707  -15.4720   27.5857 C   0  0  2  0  0  0  0  0  0  0  0  0
   12.7966  -16.4139   28.5101 C   0  0  0  0  0  0  0  0  0  0  0  0
   10.5838  -15.7371   27.5480 C   0  0  2  0  0  0  0  0  0  0  0  0
    9.9253  -14.8427   26.6294 N   0  0  0  0  0  0  0  0  0  0  0  0
    9.9612  -15.7600   28.8780 C   0  0  0  0  0  0  0  0  0  0  0  0
    9.8892  -16.9286   29.6206 O   0  0  0  0  0  0  0  0  0  0  0  0
    9.4705  -14.7236   29.3936 O   0  0  0  0  0  0  0  0  0  0  0  0
  2  1  1  6
  2  8  1  0
  2  3  1  0
  4  5  1  0
  4  3  1  0
  6  5  1  0
  7  6  1  0
  8 14  1  0
  9  8  2  0
 11 12  1  6
 11 10  1  0
 13 11  1  0
 13 15  1  0
 13 14  1  6
 15 16  2  0
 15 21  1  0
 18 17  1  6
 18 20  1  0
 18 19  1  0
 20 22  1  0
 20 21  1  6
 22 24  2  0
 22 23  1  0
M  END
$$$$
