KVV.pdb
     RDKit          3D

 24 23  0  0  1  0  0  0  0  0999 V2000
   11.2718  -17.2174   19.2007 N   0  0  0  0  0  0  0  0  0  0  0  0
   10.5979  -17.6900   20.3716 C   0  0  1  0  0  0  0  0  0  0  0  0
   11.3794  -18.7761   21.0367 C   0  0  0  0  0  0  0  0  0  0  0  0
   11.7020  -19.9128   20.1436 C   0  0  0  0  0  0  0  0  0  0  0  0
   12.4423  -21.0612   20.7577 C   0  0  0  0  0  0  0  0  0  0  0  0
   12.7288  -22.1281   19.6628 C   0  0  0  0  0  0  0  0  0  0  0  0
   13.3601  -23.2261   20.3761 N   0  0  0  0  0  0  0  0  0  0  0  0
   10.4123  -16.5153   21.2989 C   0  0  0  0  0  0  0  0  0  0  0  0
   11.3092  -15.6477   21.4044 O   0  0  0  0  0  0  0  0  0  0  0  0
    7.3982  -14.0011   21.6012 C   0  0  0  0  0  0  0  0  0  0  0  0
    7.6726  -14.6700   22.9210 C   0  0  1  0  0  0  0  0  0  0  0  0
    6.6705  -15.7267   23.2748 C   0  0  0  0  0  0  0  0  0  0  0  0
    9.0606  -15.2527   23.0012 C   0  0  2  0  0  0  0  0  0  0  0  0
    9.2348  -16.3511   22.0738 N   0  0  0  0  0  0  0  0  0  0  0  0
    9.4400  -15.6263   24.3834 C   0  0  0  0  0  0  0  0  0  0  0  0
    9.4973  -16.8510   24.6661 O   0  0  0  0  0  0  0  0  0  0  0  0
   10.8204  -14.2482   28.9668 C   0  0  0  0  0  0  0  0  0  0  0  0
   10.2037  -13.8990   27.6537 C   0  0  2  0  0  0  0  0  0  0  0  0
    8.8351  -13.3137   27.8846 C   0  0  0  0  0  0  0  0  0  0  0  0
   10.1690  -15.0910   26.7261 C   0  0  2  0  0  0  0  0  0  0  0  0
    9.7417  -14.7023   25.4055 N   0  0  0  0  0  0  0  0  0  0  0  0
    9.4134  -16.2288   27.2658 C   0  0  0  0  0  0  0  0  0  0  0  0
   10.0206  -17.1819   28.0691 O   0  0  0  0  0  0  0  0  0  0  0  0
    8.1897  -16.3826   27.0212 O   0  0  0  0  0  0  0  0  0  0  0  0
  2  1  1  6
  2  8  1  0
  2  3  1  0
  4  5  1  0
  4  3  1  0
  6  5  1  0
  7  6  1  0
  8 14  1  0
  9  8  2  0
 11 12  1  6
 11 10  1  0
 13 11  1  0
 13 15  1  0
 13 14  1  6
 15 16  2  0
 15 21  1  0
 18 17  1  1
 18 20  1  0
 18 19  1  0
 20 22  1  0
 20 21  1  6
 22 24  2  0
 22 23  1  0
M  END
$$$$
