KVV.pdb
     RDKit          3D

 24 23  0  0  1  0  0  0  0  0999 V2000
    9.7062  -16.2973   20.6402 N   0  0  0  0  0  0  0  0  0  0  0  0
    8.7274  -16.6288   21.6304 C   0  0  1  0  0  0  0  0  0  0  0  0
    8.7931  -18.0794   21.9825 C   0  0  0  0  0  0  0  0  0  0  0  0
    8.5625  -18.9844   20.8329 C   0  0  0  0  0  0  0  0  0  0  0  0
    9.2161  -20.3308   20.8954 C   0  0  0  0  0  0  0  0  0  0  0  0
    8.1979  -21.3673   21.4507 C   0  0  0  0  0  0  0  0  0  0  0  0
    7.1985  -21.4977   20.4033 N   0  0  0  0  0  0  0  0  0  0  0  0
    8.9908  -15.7687   22.8408 C   0  0  0  0  0  0  0  0  0  0  0  0
   10.1521  -15.3729   23.0921 O   0  0  0  0  0  0  0  0  0  0  0  0
    7.0969  -13.3132   26.7722 C   0  0  0  0  0  0  0  0  0  0  0  0
    6.9354  -13.9223   25.4058 C   0  0  1  0  0  0  0  0  0  0  0  0
    6.4521  -12.9508   24.3720 C   0  0  0  0  0  0  0  0  0  0  0  0
    8.1944  -14.5891   24.9128 C   0  0  2  0  0  0  0  0  0  0  0  0
    7.9511  -15.3819   23.7257 N   0  0  0  0  0  0  0  0  0  0  0  0
    8.8757  -15.3684   25.9722 C   0  0  0  0  0  0  0  0  0  0  0  0
    8.6519  -16.6054   26.0274 O   0  0  0  0  0  0  0  0  0  0  0  0
   10.1133  -14.0421   29.8350 C   0  0  0  0  0  0  0  0  0  0  0  0
   11.1072  -14.7109   28.9454 C   0  0  2  0  0  0  0  0  0  0  0  0
   11.9785  -13.6674   28.2969 C   0  0  0  0  0  0  0  0  0  0  0  0
   10.4284  -15.6024   27.9319 C   0  0  2  0  0  0  0  0  0  0  0  0
    9.7592  -14.8185   26.9243 N   0  0  0  0  0  0  0  0  0  0  0  0
    9.5636  -16.6226   28.5385 C   0  0  0  0  0  0  0  0  0  0  0  0
   10.0937  -17.7633   29.1219 O   0  0  0  0  0  0  0  0  0  0  0  0
    8.3121  -16.5018   28.5526 O   0  0  0  0  0  0  0  0  0  0  0  0
  2  1  1  6
  2  8  1  0
  2  3  1  0
  4  5  1  0
  4  3  1  0
  6  5  1  0
  7  6  1  0
  8 14  1  0
  9  8  2  0
 11 12  1  6
 11 10  1  0
 13 11  1  0
 13 15  1  0
 13 14  1  6
 15 16  2  0
 15 21  1  0
 18 17  1  6
 18 20  1  0
 18 19  1  0
 20 22  1  0
 20 21  1  6
 22 24  2  0
 22 23  1  0
M  END
$$$$
