KVV.pdb
     RDKit          3D

 24 23  0  0  1  0  0  0  0  0999 V2000
    8.0502  -19.4779   21.4986 N   0  0  0  0  0  0  0  0  0  0  0  0
    7.3260  -18.5198   22.2771 C   0  0  1  0  0  0  0  0  0  0  0  0
    7.2407  -18.9468   23.7064 C   0  0  0  0  0  0  0  0  0  0  0  0
    7.0103  -20.3991   23.8834 C   0  0  0  0  0  0  0  0  0  0  0  0
    6.7208  -20.8691   25.2760 C   0  0  0  0  0  0  0  0  0  0  0  0
    6.6172  -22.4211   25.2800 C   0  0  0  0  0  0  0  0  0  0  0  0
    6.2670  -22.7623   26.6488 N   0  0  0  0  0  0  0  0  0  0  0  0
    8.0376  -17.1961   22.1523 C   0  0  0  0  0  0  0  0  0  0  0  0
    9.2890  -17.1487   22.1742 O   0  0  0  0  0  0  0  0  0  0  0  0
    5.7346  -13.6805   21.5343 C   0  0  0  0  0  0  0  0  0  0  0  0
    7.1820  -13.6991   21.1232 C   0  0  1  0  0  0  0  0  0  0  0  0
    7.8402  -12.3545   21.1931 C   0  0  0  0  0  0  0  0  0  0  0  0
    7.9978  -14.6945   21.9082 C   0  0  2  0  0  0  0  0  0  0  0  0
    7.3291  -15.9751   22.0079 N   0  0  0  0  0  0  0  0  0  0  0  0
    8.4044  -14.1747   23.2342 C   0  0  0  0  0  0  0  0  0  0  0  0
    8.8314  -12.9927   23.2961 O   0  0  0  0  0  0  0  0  0  0  0  0
    6.1844  -13.8489   26.2249 C   0  0  0  0  0  0  0  0  0  0  0  0
    7.5434  -13.2646   26.0296 C   0  0  2  0  0  0  0  0  0  0  0  0
    7.4857  -12.2159   24.9500 C   0  0  0  0  0  0  0  0  0  0  0  0
    8.5674  -14.3357   25.7350 C   0  0  2  0  0  0  0  0  0  0  0  0
    8.3459  -14.9146   24.4336 N   0  0  0  0  0  0  0  0  0  0  0  0
    8.6854  -15.3393   26.8008 C   0  0  0  0  0  0  0  0  0  0  0  0
    8.4591  -16.6846   26.5529 O   0  0  0  0  0  0  0  0  0  0  0  0
    8.9953  -15.0186   27.9763 O   0  0  0  0  0  0  0  0  0  0  0  0
  2  1  1  6
  2  8  1  0
  2  3  1  0
  4  5  1  0
  4  3  1  0
  6  5  1  0
  7  6  1  0
  8 14  1  0
  9  8  2  0
 11 12  1  1
 11 10  1  0
 13 11  1  0
 13 15  1  0
 13 14  1  1
 15 16  2  0
 15 21  1  0
 18 17  1  6
 18 20  1  0
 18 19  1  0
 20 22  1  0
 20 21  1  6
 22 24  2  0
 22 23  1  0
M  END
$$$$
