KVV.pdb
     RDKit          3D

 24 23  0  0  1  0  0  0  0  0999 V2000
    7.7778  -14.1695   20.5322 N   0  0  0  0  0  0  0  0  0  0  0  0
    7.1935  -14.8257   21.6620 C   0  0  1  0  0  0  0  0  0  0  0  0
    7.2455  -16.3106   21.5039 C   0  0  0  0  0  0  0  0  0  0  0  0
    6.7124  -16.7925   20.2087 C   0  0  0  0  0  0  0  0  0  0  0  0
    6.7564  -18.2711   19.9720 C   0  0  0  0  0  0  0  0  0  0  0  0
    6.1714  -18.5803   18.5643 C   0  0  0  0  0  0  0  0  0  0  0  0
    6.2972  -20.0215   18.4228 N   0  0  0  0  0  0  0  0  0  0  0  0
    7.9530  -14.3883   22.8892 C   0  0  0  0  0  0  0  0  0  0  0  0
    9.2014  -14.2933   22.8573 O   0  0  0  0  0  0  0  0  0  0  0  0
    7.0895  -11.3897   25.4213 C   0  0  0  0  0  0  0  0  0  0  0  0
    7.2590  -12.7046   26.1331 C   0  0  1  0  0  0  0  0  0  0  0  0
    5.9659  -13.3045   26.5956 C   0  0  0  0  0  0  0  0  0  0  0  0
    8.0132  -13.7188   25.3115 C   0  0  2  0  0  0  0  0  0  0  0  0
    7.2938  -14.0730   24.1057 N   0  0  0  0  0  0  0  0  0  0  0  0
    8.4004  -14.9120   26.0989 C   0  0  0  0  0  0  0  0  0  0  0  0
    7.5297  -15.8011   26.2847 O   0  0  0  0  0  0  0  0  0  0  0  0
   12.5019  -16.0198   27.0063 C   0  0  0  0  0  0  0  0  0  0  0  0
   11.3297  -16.9044   26.7414 C   0  0  2  0  0  0  0  0  0  0  0  0
   11.2109  -17.1454   25.2593 C   0  0  0  0  0  0  0  0  0  0  0  0
   10.0625  -16.3332   27.3333 C   0  0  2  0  0  0  0  0  0  0  0  0
    9.6797  -15.1202   26.6554 N   0  0  0  0  0  0  0  0  0  0  0  0
   10.1151  -16.1864   28.7937 C   0  0  0  0  0  0  0  0  0  0  0  0
   10.2933  -17.2833   29.6229 O   0  0  0  0  0  0  0  0  0  0  0  0
   10.0008  -15.0634   29.3475 O   0  0  0  0  0  0  0  0  0  0  0  0
  2  1  1  6
  2  8  1  0
  2  3  1  0
  4  5  1  0
  4  3  1  0
  6  5  1  0
  7  6  1  0
  8 14  1  0
  9  8  2  0
 11 12  1  6
 11 10  1  0
 13 11  1  0
 13 15  1  0
 13 14  1  6
 15 16  2  0
 15 21  1  0
 18 17  1  6
 18 20  1  0
 18 19  1  0
 20 22  1  0
 20 21  1  6
 22 24  2  0
 22 23  1  0
M  END
$$$$
