SRI.pdb
     RDKit          3D

 26 25  0  0  1  0  0  0  0  0999 V2000
    7.7939  -11.8569   18.9549 O   0  0  0  0  0  0  0  0  0  0  0  0
    8.9738  -12.5758   19.0518 C   0  0  0  0  0  0  0  0  0  0  0  0
    8.6828  -14.0053   18.6856 C   0  0  2  0  0  0  0  0  0  0  0  0
    7.9503  -14.1356   17.4473 N   0  0  0  0  0  0  0  0  0  0  0  0
    7.9247  -14.6608   19.7635 C   0  0  0  0  0  0  0  0  0  0  0  0
    6.6811  -14.8707   19.7084 O   0  0  0  0  0  0  0  0  0  0  0  0
   13.0190  -19.9938   23.5089 N   0  0  0  0  0  0  0  0  0  0  0  0
   12.1140  -19.4333   22.5385 C   0  0  0  0  0  0  0  0  0  0  0  0
   12.6005  -18.7663   21.5573 N   0  0  0  0  0  0  0  0  0  0  0  0
   10.7219  -19.6169   22.6677 N   0  0  0  0  0  0  0  0  0  0  0  0
    9.8164  -19.1228   21.6773 C   0  0  0  0  0  0  0  0  0  0  0  0
    9.6599  -17.6206   21.7574 C   0  0  0  0  0  0  0  0  0  0  0  0
    8.2413  -17.2423   22.0904 C   0  0  0  0  0  0  0  0  0  0  0  0
    7.9860  -15.8032   22.0084 C   0  0  2  0  0  0  0  0  0  0  0  0
    8.5748  -15.0896   20.9293 N   0  0  0  0  0  0  0  0  0  0  0  0
    8.4664  -15.1832   23.2828 C   0  0  0  0  0  0  0  0  0  0  0  0
    9.6321  -14.7414   23.3248 O   0  0  0  0  0  0  0  0  0  0  0  0
   11.9927  -18.3528   20.8417 C   0  0  0  0  0  0  0  0  0  0  0  0
    5.5933  -11.5032   25.4847 C   0  0  0  0  0  0  0  0  0  0  0  0
    6.6262  -12.4724   25.0720 C   0  0  2  0  0  0  0  0  0  0  0  0
    7.1193  -13.4653   26.0503 C   0  0  0  0  0  0  0  0  0  0  0  0
    7.4492  -12.7737   27.3763 C   0  0  2  0  0  0  0  0  0  0  0  0
    8.1394  -14.4496   25.6528 N   0  0  0  0  0  0  0  0  0  0  0  0
    7.6433  -15.0883   24.4200 C   0  0  0  0  0  0  0  0  0  0  0  0
    8.5819  -15.4744   26.5605 O   0  0  0  0  0  0  0  0  0  0  0  0
    9.7204  -15.2040   27.3710 O   0  0  0  0  0  0  0  0  0  0  0  0
  2  1  1  0
  3  2  1  0
  3  4  1  6
  5  3  1  0
  5  6  2  0
  7  8  1  0
  8 10  1  0
  9  8  2  0
 10 11  1  0
 11 12  1  0
 12 13  1  0
 14 13  1  1
 14 15  1  0
 15  5  1  0
 16 14  1  0
 17 16  2  0
 19 18  1  0
 20 19  1  0
 20 22  1  0
 20 21  1  1
 22 24  1  0
 22 23  1  6
 23 16  1  0
 24 25  1  0
 26 24  2  0
M  END
$$$$
