SRI.pdb
     RDKit          3D

 26 25  0  0  1  0  0  0  0  0999 V2000
    7.4793  -19.1937   26.8870 O   0  0  0  0  0  0  0  0  0  0  0  0
    6.2831  -18.9109   26.2485 C   0  0  0  0  0  0  0  0  0  0  0  0
    6.3057  -19.5715   24.8974 C   0  0  2  0  0  0  0  0  0  0  0  0
    6.8406  -20.9130   24.9311 N   0  0  0  0  0  0  0  0  0  0  0  0
    7.0926  -18.7642   23.9512 C   0  0  0  0  0  0  0  0  0  0  0  0
    8.1150  -19.1986   23.3517 O   0  0  0  0  0  0  0  0  0  0  0  0
    8.9196  -12.2472   19.3675 N   0  0  0  0  0  0  0  0  0  0  0  0
    8.5012  -13.2740   18.4481 C   0  0  0  0  0  0  0  0  0  0  0  0
    9.1258  -13.3942   17.3347 N   0  0  0  0  0  0  0  0  0  0  0  0
    7.4265  -14.1286   18.7695 N   0  0  0  0  0  0  0  0  0  0  0  0
    6.7878  -14.0641   20.0473 C   0  0  0  0  0  0  0  0  0  0  0  0
    7.5898  -14.7760   21.1138 C   0  0  0  0  0  0  0  0  0  0  0  0
    6.7184  -15.7076   21.9132 C   0  0  0  0  0  0  0  0  0  0  0  0
    7.4605  -16.5101   22.8870 C   0  0  2  0  0  0  0  0  0  0  0  0
    6.7257  -17.4402   23.6715 N   0  0  0  0  0  0  0  0  0  0  0  0
    8.1495  -15.5668   23.8222 C   0  0  0  0  0  0  0  0  0  0  0  0
    8.8881  -14.6858   23.3384 O   0  0  0  0  0  0  0  0  0  0  0  0
    8.8561  -14.1066   16.6475 C   0  0  0  0  0  0  0  0  0  0  0  0
    5.5976  -12.4782   26.6634 C   0  0  0  0  0  0  0  0  0  0  0  0
    6.6497  -13.2505   25.9755 C   0  0  2  0  0  0  0  0  0  0  0  0
    7.7113  -13.8990   26.7746 C   0  0  0  0  0  0  0  0  0  0  0  0
    8.3269  -12.8871   27.7455 C   0  0  2  0  0  0  0  0  0  0  0  0
    8.7220  -14.7413   26.1141 N   0  0  0  0  0  0  0  0  0  0  0  0
    7.9848  -15.6499   25.2171 C   0  0  0  0  0  0  0  0  0  0  0  0
    9.6680  -15.5103   26.8782 O   0  0  0  0  0  0  0  0  0  0  0  0
   10.9319  -14.9218   27.1653 O   0  0  0  0  0  0  0  0  0  0  0  0
  2  1  1  0
  3  2  1  0
  3  4  1  1
  5  3  1  0
  5  6  2  0
  7  8  1  0
  8 10  1  0
  9  8  2  0
 10 11  1  0
 11 12  1  0
 12 13  1  0
 14 13  1  6
 14 15  1  0
 15  5  1  0
 16 14  1  0
 17 16  2  0
 19 18  1  0
 20 19  1  0
 20 22  1  0
 20 21  1  1
 22 24  1  0
 22 23  1  6
 23 16  1  0
 24 25  1  0
 26 24  2  0
M  END
$$$$
