SRI.pdb
     RDKit          3D

 26 25  0  0  1  0  0  0  0  0999 V2000
   12.4731  -18.0450   23.3623 O   0  0  0  0  0  0  0  0  0  0  0  0
   11.8885  -18.4917   22.1889 C   0  0  0  0  0  0  0  0  0  0  0  0
   11.8895  -17.3558   21.2031 C   0  0  2  0  0  0  0  0  0  0  0  0
   13.2134  -16.8512   20.9207 N   0  0  0  0  0  0  0  0  0  0  0  0
   11.0507  -16.2529   21.6992 C   0  0  0  0  0  0  0  0  0  0  0  0
   11.5200  -15.1573   22.1153 O   0  0  0  0  0  0  0  0  0  0  0  0
    8.5036  -14.1812   16.1381 N   0  0  0  0  0  0  0  0  0  0  0  0
    7.9552  -13.7149   17.3857 C   0  0  0  0  0  0  0  0  0  0  0  0
    8.4077  -12.6249   17.8872 N   0  0  0  0  0  0  0  0  0  0  0  0
    6.9407  -14.4444   18.0393 N   0  0  0  0  0  0  0  0  0  0  0  0
    7.2401  -15.2944   19.1496 C   0  0  0  0  0  0  0  0  0  0  0  0
    7.0456  -14.5840   20.4705 C   0  0  0  0  0  0  0  0  0  0  0  0
    7.3518  -15.4989   21.6261 C   0  0  0  0  0  0  0  0  0  0  0  0
    8.7250  -15.3785   22.1186 C   0  0  2  0  0  0  0  0  0  0  0  0
    9.6549  -16.3812   21.7305 N   0  0  0  0  0  0  0  0  0  0  0  0
    8.6715  -15.3588   23.6139 C   0  0  0  0  0  0  0  0  0  0  0  0
    9.2874  -16.2436   24.2411 O   0  0  0  0  0  0  0  0  0  0  0  0
    8.1050  -12.2986   18.8116 C   0  0  0  0  0  0  0  0  0  0  0  0
    6.5828  -10.7472   25.8803 C   0  0  0  0  0  0  0  0  0  0  0  0
    7.4325  -11.9132   25.5719 C   0  0  2  0  0  0  0  0  0  0  0  0
    7.1296  -13.2162   26.2017 C   0  0  0  0  0  0  0  0  0  0  0  0
    7.0567  -13.0573   27.7232 C   0  0  2  0  0  0  0  0  0  0  0  0
    7.8649  -14.4235   25.7903 N   0  0  0  0  0  0  0  0  0  0  0  0
    7.9515  -14.3770   24.3192 C   0  0  0  0  0  0  0  0  0  0  0  0
    7.4284  -15.7354   26.1881 O   0  0  0  0  0  0  0  0  0  0  0  0
    8.1112  -16.3701   27.2637 O   0  0  0  0  0  0  0  0  0  0  0  0
  2  1  1  0
  3  2  1  0
  3  4  1  1
  5  3  1  0
  5  6  2  0
  7  8  1  0
  8 10  1  0
  9  8  2  0
 10 11  1  0
 11 12  1  0
 12 13  1  0
 14 13  1  6
 14 15  1  0
 15  5  1  0
 16 14  1  0
 17 16  2  0
 19 18  1  0
 20 19  1  0
 20 22  1  0
 20 21  1  6
 22 24  1  0
 22 23  1  1
 23 16  1  0
 24 25  1  0
 26 24  2  0
M  END
$$$$
