SRI.pdb
     RDKit          3D

 26 25  0  0  1  0  0  0  0  0999 V2000
    8.0820  -11.8679   20.0663 O   0  0  0  0  0  0  0  0  0  0  0  0
    8.7420  -12.9085   19.4338 C   0  0  0  0  0  0  0  0  0  0  0  0
    7.8043  -14.0823   19.3607 C   0  0  2  0  0  0  0  0  0  0  0  0
    6.4787  -13.7220   18.9134 N   0  0  0  0  0  0  0  0  0  0  0  0
    7.7065  -14.7360   20.6757 C   0  0  0  0  0  0  0  0  0  0  0  0
    6.6817  -14.6679   21.4098 O   0  0  0  0  0  0  0  0  0  0  0  0
   12.5674  -21.3384   24.3632 N   0  0  0  0  0  0  0  0  0  0  0  0
   11.3313  -21.2446   25.0966 C   0  0  0  0  0  0  0  0  0  0  0  0
   11.1002  -22.0994   26.0241 N   0  0  0  0  0  0  0  0  0  0  0  0
   10.3969  -20.2314   24.7987 N   0  0  0  0  0  0  0  0  0  0  0  0
   10.6180  -19.3152   23.7233 C   0  0  0  0  0  0  0  0  0  0  0  0
    9.4960  -18.3084   23.6021 C   0  0  0  0  0  0  0  0  0  0  0  0
    9.6801  -17.4379   22.3878 C   0  0  0  0  0  0  0  0  0  0  0  0
    8.7716  -16.2907   22.3482 C   0  0  2  0  0  0  0  0  0  0  0  0
    8.7815  -15.4818   21.1794 N   0  0  0  0  0  0  0  0  0  0  0  0
    9.0979  -15.4123   23.5149 C   0  0  0  0  0  0  0  0  0  0  0  0
   10.1582  -14.7561   23.4849 O   0  0  0  0  0  0  0  0  0  0  0  0
   10.2247  -22.0808   26.5587 C   0  0  0  0  0  0  0  0  0  0  0  0
    5.9182  -11.7949   24.9803 C   0  0  0  0  0  0  0  0  0  0  0  0
    7.0549  -12.7186   24.8032 C   0  0  2  0  0  0  0  0  0  0  0  0
    7.5446  -13.4945   25.9626 C   0  0  0  0  0  0  0  0  0  0  0  0
    7.7815  -12.5615   27.1538 C   0  0  2  0  0  0  0  0  0  0  0  0
    8.6242  -14.4802   25.7884 N   0  0  0  0  0  0  0  0  0  0  0  0
    8.2464  -15.3109   24.6304 C   0  0  0  0  0  0  0  0  0  0  0  0
    9.0285  -15.3431   26.8663 O   0  0  0  0  0  0  0  0  0  0  0  0
   10.0005  -14.8557   27.7848 O   0  0  0  0  0  0  0  0  0  0  0  0
  2  1  1  0
  3  2  1  0
  3  4  1  1
  5  3  1  0
  5  6  2  0
  7  8  1  0
  8 10  1  0
  9  8  2  0
 10 11  1  0
 11 12  1  0
 12 13  1  0
 14 13  1  6
 14 15  1  0
 15  5  1  0
 16 14  1  0
 17 16  2  0
 19 18  1  0
 20 19  1  0
 20 22  1  0
 20 21  1  1
 22 24  1  0
 22 23  1  6
 23 16  1  0
 24 25  1  0
 26 24  2  0
M  END
$$$$
