SRI.pdb
     RDKit          3D

 26 25  0  0  1  0  0  0  0  0999 V2000
    9.7346  -13.2915   20.4339 O   0  0  0  0  0  0  0  0  0  0  0  0
    8.7033  -13.0861   19.5326 C   0  0  0  0  0  0  0  0  0  0  0  0
    7.9647  -14.3852   19.3619 C   0  0  2  0  0  0  0  0  0  0  0  0
    6.9491  -14.3294   18.3360 N   0  0  0  0  0  0  0  0  0  0  0  0
    7.3413  -14.7852   20.6337 C   0  0  0  0  0  0  0  0  0  0  0  0
    6.2757  -14.2725   21.0755 O   0  0  0  0  0  0  0  0  0  0  0  0
    8.6749  -19.2167   26.7930 N   0  0  0  0  0  0  0  0  0  0  0  0
    7.3782  -19.8371   26.8848 C   0  0  0  0  0  0  0  0  0  0  0  0
    6.9577  -20.2154   28.0356 N   0  0  0  0  0  0  0  0  0  0  0  0
    6.5896  -20.0224   25.7306 N   0  0  0  0  0  0  0  0  0  0  0  0
    7.0597  -19.6191   24.4418 C   0  0  0  0  0  0  0  0  0  0  0  0
    7.0622  -18.1143   24.2894 C   0  0  0  0  0  0  0  0  0  0  0  0
    7.4975  -17.7123   22.9054 C   0  0  0  0  0  0  0  0  0  0  0  0
    7.4300  -16.2694   22.6680 C   0  0  2  0  0  0  0  0  0  0  0  0
    7.9259  -15.7814   21.4285 N   0  0  0  0  0  0  0  0  0  0  0  0
    8.1920  -15.5925   23.7636 C   0  0  0  0  0  0  0  0  0  0  0  0
    9.4293  -15.4865   23.6476 O   0  0  0  0  0  0  0  0  0  0  0  0
    6.0343  -20.6481   28.1488 C   0  0  0  0  0  0  0  0  0  0  0  0
    5.4938  -11.7248   26.4061 C   0  0  0  0  0  0  0  0  0  0  0  0
    6.5437  -12.5323   25.7562 C   0  0  2  0  0  0  0  0  0  0  0  0
    7.3846  -13.4256   26.5814 C   0  0  0  0  0  0  0  0  0  0  0  0
    8.0289  -12.6315   27.7215 C   0  0  2  0  0  0  0  0  0  0  0  0
    8.3230  -14.3592   25.9371 N   0  0  0  0  0  0  0  0  0  0  0  0
    7.5522  -15.0792   24.9069 C   0  0  0  0  0  0  0  0  0  0  0  0
    9.0729  -15.3149   26.7080 O   0  0  0  0  0  0  0  0  0  0  0  0
   10.4009  -15.6150   26.2927 O   0  0  0  0  0  0  0  0  0  0  0  0
  2  1  1  0
  3  2  1  0
  3  4  1  6
  5  3  1  0
  5  6  2  0
  7  8  1  0
  8 10  1  0
  9  8  2  0
 10 11  1  0
 11 12  1  0
 12 13  1  0
 14 13  1  6
 14 15  1  0
 15  5  1  0
 16 14  1  0
 17 16  2  0
 19 18  1  0
 20 19  1  0
 20 22  1  0
 20 21  1  1
 22 24  1  0
 22 23  1  6
 23 16  1  0
 24 25  1  0
 26 24  2  0
M  END
$$$$
