SRI.pdb
     RDKit          3D

 26 25  0  0  1  0  0  0  0  0999 V2000
    7.2124  -12.6087   19.2215 O   0  0  0  0  0  0  0  0  0  0  0  0
    8.5706  -12.8255   19.0590 C   0  0  0  0  0  0  0  0  0  0  0  0
    8.7820  -14.2897   18.7869 C   0  0  2  0  0  0  0  0  0  0  0  0
    8.0450  -14.7652   17.6390 N   0  0  0  0  0  0  0  0  0  0  0  0
    8.4011  -15.0847   19.9654 C   0  0  0  0  0  0  0  0  0  0  0  0
    7.2898  -15.6733   20.0756 O   0  0  0  0  0  0  0  0  0  0  0  0
   13.4840  -19.4382   22.1171 N   0  0  0  0  0  0  0  0  0  0  0  0
   12.8494  -19.7274   20.8568 C   0  0  0  0  0  0  0  0  0  0  0  0
   13.5886  -19.9747   19.8385 N   0  0  0  0  0  0  0  0  0  0  0  0
   11.4435  -19.7384   20.7487 N   0  0  0  0  0  0  0  0  0  0  0  0
   10.6132  -19.4642   21.8802 C   0  0  0  0  0  0  0  0  0  0  0  0
    9.6443  -18.3355   21.6068 C   0  0  0  0  0  0  0  0  0  0  0  0
    9.9636  -17.1325   22.4537 C   0  0  0  0  0  0  0  0  0  0  0  0
    9.0700  -15.9975   22.2167 C   0  0  2  0  0  0  0  0  0  0  0  0
    9.2853  -15.2225   21.0448 N   0  0  0  0  0  0  0  0  0  0  0  0
    9.1754  -15.0822   23.3959 C   0  0  0  0  0  0  0  0  0  0  0  0
   10.2083  -14.3947   23.5225 O   0  0  0  0  0  0  0  0  0  0  0  0
   13.1792  -20.1555   18.9153 C   0  0  0  0  0  0  0  0  0  0  0  0
    6.1779  -11.0741   26.5512 C   0  0  0  0  0  0  0  0  0  0  0  0
    7.2914  -12.0417   26.5319 C   0  0  2  0  0  0  0  0  0  0  0  0
    7.2690  -13.1517   25.5555 C   0  0  0  0  0  0  0  0  0  0  0  0
    5.8672  -13.7654   25.4934 C   0  0  2  0  0  0  0  0  0  0  0  0
    8.3346  -14.1675   25.5680 N   0  0  0  0  0  0  0  0  0  0  0  0
    8.1486  -14.9808   24.3525 C   0  0  0  0  0  0  0  0  0  0  0  0
    8.5143  -15.0474   26.6920 O   0  0  0  0  0  0  0  0  0  0  0  0
    9.1510  -14.5270   27.8539 O   0  0  0  0  0  0  0  0  0  0  0  0
  2  1  1  0
  3  2  1  0
  3  4  1  6
  5  3  1  0
  5  6  2  0
  7  8  1  0
  8 10  1  0
  9  8  2  0
 10 11  1  0
 11 12  1  0
 12 13  1  0
 14 13  1  1
 14 15  1  0
 15  5  1  0
 16 14  1  0
 17 16  2  0
 19 18  1  0
 20 19  1  0
 20 22  1  0
 20 21  1  6
 22 24  1  0
 22 23  1  1
 23 16  1  0
 24 25  1  0
 26 24  2  0
M  END
$$$$
