SRI.pdb
     RDKit          3D

 26 25  0  0  1  0  0  0  0  0999 V2000
   10.3575  -12.8321   20.0347 O   0  0  0  0  0  0  0  0  0  0  0  0
    9.9278  -13.8431   19.1911 C   0  0  0  0  0  0  0  0  0  0  0  0
    8.4292  -13.7634   19.0899 C   0  0  2  0  0  0  0  0  0  0  0  0
    7.9571  -12.4607   18.6811 N   0  0  0  0  0  0  0  0  0  0  0  0
    7.8143  -14.1142   20.3802 C   0  0  0  0  0  0  0  0  0  0  0  0
    7.2381  -13.2737   21.1253 O   0  0  0  0  0  0  0  0  0  0  0  0
   10.9070  -18.8445   22.3263 N   0  0  0  0  0  0  0  0  0  0  0  0
   10.3078  -20.1519   22.4068 C   0  0  0  0  0  0  0  0  0  0  0  0
   10.8645  -21.0389   23.1468 N   0  0  0  0  0  0  0  0  0  0  0  0
    9.1324  -20.4466   21.6858 N   0  0  0  0  0  0  0  0  0  0  0  0
    7.9468  -19.6648   21.8538 C   0  0  0  0  0  0  0  0  0  0  0  0
    8.2512  -18.1841   21.9000 C   0  0  0  0  0  0  0  0  0  0  0  0
    6.9949  -17.3806   22.1059 C   0  0  0  0  0  0  0  0  0  0  0  0
    7.2043  -15.9348   22.0118 C   0  0  2  0  0  0  0  0  0  0  0  0
    7.8468  -15.4362   20.8460 N   0  0  0  0  0  0  0  0  0  0  0  0
    8.0166  -15.5152   23.1964 C   0  0  0  0  0  0  0  0  0  0  0  0
    9.2500  -15.3933   23.0565 O   0  0  0  0  0  0  0  0  0  0  0  0
   10.4755  -21.9848   23.2276 C   0  0  0  0  0  0  0  0  0  0  0  0
    6.1475  -11.4244   25.7456 C   0  0  0  0  0  0  0  0  0  0  0  0
    7.0092  -12.4928   25.2046 C   0  0  2  0  0  0  0  0  0  0  0  0
    7.4696  -13.5748   26.1009 C   0  0  0  0  0  0  0  0  0  0  0  0
    8.1141  -12.9765   27.3548 C   0  0  2  0  0  0  0  0  0  0  0  0
    8.2319  -14.7104   25.5560 N   0  0  0  0  0  0  0  0  0  0  0  0
    7.4279  -15.2582   24.4482 C   0  0  0  0  0  0  0  0  0  0  0  0
    8.6607  -15.7949   26.3986 O   0  0  0  0  0  0  0  0  0  0  0  0
    9.9159  -15.6733   27.0587 O   0  0  0  0  0  0  0  0  0  0  0  0
  2  1  1  0
  3  2  1  0
  3  4  1  1
  5  3  1  0
  5  6  2  0
  7  8  1  0
  8 10  1  0
  9  8  2  0
 10 11  1  0
 11 12  1  0
 12 13  1  0
 14 13  1  6
 14 15  1  0
 15  5  1  0
 16 14  1  0
 17 16  2  0
 19 18  1  0
 20 19  1  0
 20 22  1  0
 20 21  1  1
 22 24  1  0
 22 23  1  6
 23 16  1  0
 24 25  1  0
 26 24  2  0
M  END
$$$$
