SRI.pdb
     RDKit          3D

 26 25  0  0  1  0  0  0  0  0999 V2000
   10.3739  -12.4916   18.5488 O   0  0  0  0  0  0  0  0  0  0  0  0
    9.7071  -12.8344   19.7134 C   0  0  0  0  0  0  0  0  0  0  0  0
    8.5663  -13.7446   19.3493 C   0  0  2  0  0  0  0  0  0  0  0  0
    7.5236  -13.0770   18.6050 N   0  0  0  0  0  0  0  0  0  0  0  0
    7.9846  -14.3393   20.5634 C   0  0  0  0  0  0  0  0  0  0  0  0
    7.0439  -13.8061   21.2149 O   0  0  0  0  0  0  0  0  0  0  0  0
   10.4309  -20.3125   22.6964 N   0  0  0  0  0  0  0  0  0  0  0  0
    9.4792  -21.1872   22.0610 C   0  0  0  0  0  0  0  0  0  0  0  0
    9.3757  -22.3937   22.4829 N   0  0  0  0  0  0  0  0  0  0  0  0
    8.6783  -20.7226   20.9974 N   0  0  0  0  0  0  0  0  0  0  0  0
    8.7136  -19.3525   20.5895 C   0  0  0  0  0  0  0  0  0  0  0  0
    7.6903  -18.5190   21.3281 C   0  0  0  0  0  0  0  0  0  0  0  0
    8.3491  -17.6493   22.3654 C   0  0  0  0  0  0  0  0  0  0  0  0
    8.0220  -16.2289   22.2299 C   0  0  2  0  0  0  0  0  0  0  0  0
    8.4686  -15.5584   21.0588 N   0  0  0  0  0  0  0  0  0  0  0  0
    8.5972  -15.5153   23.4127 C   0  0  0  0  0  0  0  0  0  0  0  0
    9.7932  -15.1641   23.3696 O   0  0  0  0  0  0  0  0  0  0  0  0
    8.7461  -23.0641   22.0284 C   0  0  0  0  0  0  0  0  0  0  0  0
    5.4622  -11.9409   25.7852 C   0  0  0  0  0  0  0  0  0  0  0  0
    6.5711  -12.7627   25.2640 C   0  0  2  0  0  0  0  0  0  0  0  0
    7.3460  -13.6083   26.1970 C   0  0  0  0  0  0  0  0  0  0  0  0
    7.7900  -12.7808   27.4069 C   0  0  2  0  0  0  0  0  0  0  0  0
    8.4118  -14.4860   25.6861 N   0  0  0  0  0  0  0  0  0  0  0  0
    7.8289  -15.2348   24.5577 C   0  0  0  0  0  0  0  0  0  0  0  0
    9.0974  -15.4092   26.5508 O   0  0  0  0  0  0  0  0  0  0  0  0
   10.3051  -14.9770   27.1677 O   0  0  0  0  0  0  0  0  0  0  0  0
  2  1  1  0
  3  2  1  0
  3  4  1  1
  5  3  1  0
  5  6  2  0
  7  8  1  0
  8 10  1  0
  9  8  2  0
 10 11  1  0
 11 12  1  0
 12 13  1  0
 14 13  1  6
 14 15  1  0
 15  5  1  0
 16 14  1  0
 17 16  2  0
 19 18  1  0
 20 19  1  0
 20 22  1  0
 20 21  1  1
 22 24  1  0
 22 23  1  6
 23 16  1  0
 24 25  1  0
 26 24  2  0
M  END
$$$$
