SRI.pdb
     RDKit          3D

 26 25  0  0  1  0  0  0  0  0999 V2000
    9.7558  -13.3256   20.3079 O   0  0  0  0  0  0  0  0  0  0  0  0
    8.6945  -13.0020   19.4790 C   0  0  0  0  0  0  0  0  0  0  0  0
    7.8641  -14.2396   19.2763 C   0  0  2  0  0  0  0  0  0  0  0  0
    6.8285  -14.0711   18.2832 N   0  0  0  0  0  0  0  0  0  0  0  0
    7.2478  -14.6509   20.5480 C   0  0  0  0  0  0  0  0  0  0  0  0
    6.1967  -14.1270   21.0109 O   0  0  0  0  0  0  0  0  0  0  0  0
    7.1451  -19.0665   27.7048 N   0  0  0  0  0  0  0  0  0  0  0  0
    7.3536  -20.0333   26.6577 C   0  0  0  0  0  0  0  0  0  0  0  0
    8.2976  -20.8908   26.7916 N   0  0  0  0  0  0  0  0  0  0  0  0
    6.5338  -20.0346   25.5104 N   0  0  0  0  0  0  0  0  0  0  0  0
    7.0311  -19.5878   24.2463 C   0  0  0  0  0  0  0  0  0  0  0  0
    6.9354  -18.0853   24.1032 C   0  0  0  0  0  0  0  0  0  0  0  0
    7.3732  -17.6443   22.7320 C   0  0  0  0  0  0  0  0  0  0  0  0
    7.3150  -16.1944   22.5384 C   0  0  2  0  0  0  0  0  0  0  0  0
    7.8232  -15.6713   21.3183 N   0  0  0  0  0  0  0  0  0  0  0  0
    8.0717  -15.5555   23.6602 C   0  0  0  0  0  0  0  0  0  0  0  0
    9.3097  -15.4463   23.5540 O   0  0  0  0  0  0  0  0  0  0  0  0
    8.4949  -21.5834   26.0608 C   0  0  0  0  0  0  0  0  0  0  0  0
    5.5057  -11.4919   26.0435 C   0  0  0  0  0  0  0  0  0  0  0  0
    6.5581  -12.3688   25.4956 C   0  0  2  0  0  0  0  0  0  0  0  0
    7.2353  -13.3324   26.3894 C   0  0  0  0  0  0  0  0  0  0  0  0
    7.7973  -12.6040   27.6138 C   0  0  2  0  0  0  0  0  0  0  0  0
    8.1752  -14.3199   25.8338 N   0  0  0  0  0  0  0  0  0  0  0  0
    7.4264  -15.0809   24.8169 C   0  0  0  0  0  0  0  0  0  0  0  0
    8.8748  -15.2458   26.6843 O   0  0  0  0  0  0  0  0  0  0  0  0
   10.1281  -14.8419   27.2248 O   0  0  0  0  0  0  0  0  0  0  0  0
  2  1  1  0
  3  2  1  0
  3  4  1  6
  5  3  1  0
  5  6  2  0
  7  8  1  0
  8 10  1  0
  9  8  2  0
 10 11  1  0
 11 12  1  0
 12 13  1  0
 14 13  1  6
 14 15  1  0
 15  5  1  0
 16 14  1  0
 17 16  2  0
 19 18  1  0
 20 19  1  0
 20 22  1  0
 20 21  1  1
 22 24  1  0
 22 23  1  6
 23 16  1  0
 24 25  1  0
 26 24  2  0
M  END
$$$$
