DVK.pdb
     RDKit          3D

 25 24  0  0  1  0  0  0  0  0999 V2000
    9.7784  -17.5989   16.5885 N   0  0  0  0  0  0  0  0  0  0  0  0
    8.7658  -17.6227   17.6263 C   0  0  1  0  0  0  0  0  0  0  0  0
    8.7020  -19.0446   18.1396 C   0  0  0  0  0  0  0  0  0  0  0  0
    8.3451  -19.8924   16.9822 C   0  0  0  0  0  0  0  0  0  0  0  0
    7.5679  -19.4581   16.1174 O   0  0  0  0  0  0  0  0  0  0  0  0
    9.2345  -16.6708   18.6966 C   0  0  0  0  0  0  0  0  0  0  0  0
   10.4541  -16.4923   18.9400 O   0  0  0  0  0  0  0  0  0  0  0  0
    8.8767  -21.1601   16.8679 O   0  0  0  0  0  0  0  0  0  0  0  0
    7.4525  -13.2443   19.2103 C   0  0  0  0  0  0  0  0  0  0  0  0
    7.6236  -13.9351   20.5133 C   0  0  2  0  0  0  0  0  0  0  0  0
    7.7273  -12.9859   21.6810 C   0  0  0  0  0  0  0  0  0  0  0  0
    8.7361  -14.9599   20.5121 C   0  0  2  0  0  0  0  0  0  0  0  0
    8.3154  -15.9306   19.4806 N   0  0  0  0  0  0  0  0  0  0  0  0
    8.8725  -15.6753   21.8144 C   0  0  0  0  0  0  0  0  0  0  0  0
    8.0219  -16.5735   22.1502 O   0  0  0  0  0  0  0  0  0  0  0  0
    9.9005  -15.4504   22.7605 N   0  0  0  0  0  0  0  0  0  0  0  0
   10.3193  -16.4941   23.7083 C   0  0  1  0  0  0  0  0  0  0  0  0
   10.7791  -17.7308   23.0137 C   0  0  0  0  0  0  0  0  0  0  0  0
   11.2063  -18.8443   23.9041 C   0  0  0  0  0  0  0  0  0  0  0  0
   11.6776  -20.0760   23.2107 C   0  0  0  0  0  0  0  0  0  0  0  0
   11.9477  -21.2206   24.1643 C   0  0  0  0  0  0  0  0  0  0  0  0
   12.1714  -22.4444   23.4039 N   0  0  0  0  0  0  0  0  0  0  0  0
   11.3515  -15.9642   24.6363 C   0  0  0  0  0  0  0  0  0  0  0  0
   11.4996  -16.4112   25.9446 O   0  0  0  0  0  0  0  0  0  0  0  0
   12.1221  -15.0696   24.2070 O   0  0  0  0  0  0  0  0  0  0  0  0
  2  1  1  6
  3  4  1  0
  3  2  1  0
  4  8  1  0
  5  4  2  0
  6  2  1  0
  6  7  2  0
 10  9  1  6
 10 12  1  0
 11 10  1  0
 12 13  1  6
 13  6  1  0
 14 12  1  0
 15 14  2  0
 16 14  1  0
 17 16  1  0
 17 23  1  0
 17 18  1  6
 19 18  1  0
 20 19  1  0
 20 21  1  0
 22 21  1  0
 23 24  1  0
 25 23  2  0
M  END
$$$$
