DVK.pdb
     RDKit          3D

 25 24  0  0  1  0  0  0  0  0999 V2000
    9.6717  -17.4305   16.6565 N   0  0  0  0  0  0  0  0  0  0  0  0
    8.6945  -17.4923   17.7263 C   0  0  1  0  0  0  0  0  0  0  0  0
    8.6136  -18.9400   18.1588 C   0  0  0  0  0  0  0  0  0  0  0  0
    7.9776  -19.6753   17.0449 C   0  0  0  0  0  0  0  0  0  0  0  0
    7.3510  -19.0514   16.1739 O   0  0  0  0  0  0  0  0  0  0  0  0
    9.2221  -16.6152   18.8325 C   0  0  0  0  0  0  0  0  0  0  0  0
   10.4468  -16.5553   19.1067 O   0  0  0  0  0  0  0  0  0  0  0  0
    8.0833  -21.0490   16.9780 O   0  0  0  0  0  0  0  0  0  0  0  0
    7.4964  -13.1122   19.6974 C   0  0  0  0  0  0  0  0  0  0  0  0
    7.7241  -13.9498   20.9019 C   0  0  2  0  0  0  0  0  0  0  0  0
    7.8860  -13.1428   22.1660 C   0  0  0  0  0  0  0  0  0  0  0  0
    8.8306  -14.9668   20.7301 C   0  0  2  0  0  0  0  0  0  0  0  0
    8.3557  -15.8145   19.6170 N   0  0  0  0  0  0  0  0  0  0  0  0
    9.0270  -15.8252   21.9346 C   0  0  0  0  0  0  0  0  0  0  0  0
    8.0316  -16.4379   22.4605 O   0  0  0  0  0  0  0  0  0  0  0  0
   10.2656  -16.0419   22.5839 N   0  0  0  0  0  0  0  0  0  0  0  0
   10.3714  -16.8879   23.7822 C   0  0  1  0  0  0  0  0  0  0  0  0
   11.6794  -17.6004   23.8521 C   0  0  0  0  0  0  0  0  0  0  0  0
   12.0140  -18.4424   22.6713 C   0  0  0  0  0  0  0  0  0  0  0  0
   12.4852  -19.8219   22.9794 C   0  0  0  0  0  0  0  0  0  0  0  0
   12.7674  -20.6382   21.7358 C   0  0  0  0  0  0  0  0  0  0  0  0
   14.1679  -21.0440   21.7280 N   0  0  0  0  0  0  0  0  0  0  0  0
   10.1124  -16.0850   25.0052 C   0  0  0  0  0  0  0  0  0  0  0  0
   10.0427  -14.6964   25.0029 O   0  0  0  0  0  0  0  0  0  0  0  0
    9.9499  -16.7016   26.0877 O   0  0  0  0  0  0  0  0  0  0  0  0
  2  1  1  6
  3  4  1  0
  3  2  1  0
  4  8  1  0
  5  4  2  0
  6  2  1  0
  6  7  2  0
 10  9  1  6
 10 12  1  0
 11 10  1  0
 12 13  1  6
 13  6  1  0
 14 12  1  0
 15 14  2  0
 16 14  1  0
 17 16  1  0
 17 23  1  0
 17 18  1  1
 19 18  1  0
 20 19  1  0
 20 21  1  0
 22 21  1  0
 23 24  1  0
 25 23  2  0
M  END
$$$$
