DVK.pdb
     RDKit          3D

 25 24  0  0  1  0  0  0  0  0999 V2000
   10.6650  -17.1850   18.8188 N   0  0  0  0  0  0  0  0  0  0  0  0
    9.8074  -17.7233   19.8570 C   0  0  1  0  0  0  0  0  0  0  0  0
   10.2666  -19.1430   20.1081 C   0  0  0  0  0  0  0  0  0  0  0  0
   10.1322  -19.8606   18.8226 C   0  0  0  0  0  0  0  0  0  0  0  0
    9.7951  -19.2387   17.8027 O   0  0  0  0  0  0  0  0  0  0  0  0
   10.0150  -16.8540   21.0703 C   0  0  0  0  0  0  0  0  0  0  0  0
   11.1384  -16.3696   21.3569 O   0  0  0  0  0  0  0  0  0  0  0  0
   10.3820  -21.2159   18.7617 O   0  0  0  0  0  0  0  0  0  0  0  0
    7.5668  -14.0642   22.0751 C   0  0  0  0  0  0  0  0  0  0  0  0
    7.8162  -14.9418   23.2463 C   0  0  2  0  0  0  0  0  0  0  0  0
    7.6682  -14.2282   24.5670 C   0  0  0  0  0  0  0  0  0  0  0  0
    9.1149  -15.7124   23.1580 C   0  0  2  0  0  0  0  0  0  0  0  0
    8.9466  -16.5423   21.9471 N   0  0  0  0  0  0  0  0  0  0  0  0
    9.3407  -16.6122   24.3266 C   0  0  0  0  0  0  0  0  0  0  0  0
    8.4457  -17.4637   24.6686 O   0  0  0  0  0  0  0  0  0  0  0  0
   10.5039  -16.6200   25.1324 N   0  0  0  0  0  0  0  0  0  0  0  0
   10.6882  -17.6010   26.2125 C   0  0  1  0  0  0  0  0  0  0  0  0
   12.0781  -18.1397   26.2499 C   0  0  0  0  0  0  0  0  0  0  0  0
   12.2603  -19.4849   25.6398 C   0  0  0  0  0  0  0  0  0  0  0  0
   12.9882  -19.5069   24.3399 C   0  0  0  0  0  0  0  0  0  0  0  0
   13.0214  -20.8824   23.7079 C   0  0  0  0  0  0  0  0  0  0  0  0
   13.7542  -20.8215   22.4489 N   0  0  0  0  0  0  0  0  0  0  0  0
   10.2869  -17.0137   27.5169 C   0  0  0  0  0  0  0  0  0  0  0  0
   10.0849  -17.7739   28.6635 O   0  0  0  0  0  0  0  0  0  0  0  0
   10.1256  -15.7691   27.5746 O   0  0  0  0  0  0  0  0  0  0  0  0
  2  1  1  6
  3  4  1  0
  3  2  1  0
  4  8  1  0
  5  4  2  0
  6  2  1  0
  6  7  2  0
 10  9  1  6
 10 12  1  0
 11 10  1  0
 12 13  1  6
 13  6  1  0
 14 12  1  0
 15 14  2  0
 16 14  1  0
 17 16  1  0
 17 23  1  0
 17 18  1  1
 19 18  1  0
 20 19  1  0
 20 21  1  0
 22 21  1  0
 23 24  1  0
 25 23  2  0
M  END
$$$$
