DVK.pdb
     RDKit          3D

 25 24  0  0  1  0  0  0  0  0999 V2000
    8.5976  -17.7495   16.5600 N   0  0  0  0  0  0  0  0  0  0  0  0
    7.8685  -17.6520   17.8098 C   0  0  1  0  0  0  0  0  0  0  0  0
    7.8962  -19.0281   18.4384 C   0  0  0  0  0  0  0  0  0  0  0  0
    7.0944  -19.9064   17.5600 C   0  0  0  0  0  0  0  0  0  0  0  0
    5.9749  -19.5345   17.1741 O   0  0  0  0  0  0  0  0  0  0  0  0
    8.6078  -16.6456   18.6535 C   0  0  0  0  0  0  0  0  0  0  0  0
    9.8630  -16.6052   18.6932 O   0  0  0  0  0  0  0  0  0  0  0  0
    7.5929  -21.1330   17.1733 O   0  0  0  0  0  0  0  0  0  0  0  0
    7.2521  -12.9207   19.4388 C   0  0  0  0  0  0  0  0  0  0  0  0
    7.5821  -13.7070   20.6542 C   0  0  2  0  0  0  0  0  0  0  0  0
    7.9528  -12.8471   21.8368 C   0  0  0  0  0  0  0  0  0  0  0  0
    8.5947  -14.8034   20.4078 C   0  0  2  0  0  0  0  0  0  0  0  0
    7.9164  -15.6947   19.4441 N   0  0  0  0  0  0  0  0  0  0  0  0
    8.9189  -15.5858   21.6363 C   0  0  0  0  0  0  0  0  0  0  0  0
    8.0413  -16.3598   22.1594 O   0  0  0  0  0  0  0  0  0  0  0  0
   10.1617  -15.5577   22.3123 N   0  0  0  0  0  0  0  0  0  0  0  0
   10.4833  -16.5199   23.3770 C   0  0  1  0  0  0  0  0  0  0  0  0
   11.0741  -17.7778   22.8367 C   0  0  0  0  0  0  0  0  0  0  0  0
   11.4274  -18.8071   23.8519 C   0  0  0  0  0  0  0  0  0  0  0  0
   12.0870  -20.0330   23.3206 C   0  0  0  0  0  0  0  0  0  0  0  0
   12.3848  -21.0543   24.3979 C   0  0  0  0  0  0  0  0  0  0  0  0
   13.0008  -22.2307   23.7959 N   0  0  0  0  0  0  0  0  0  0  0  0
   11.3622  -15.8884   24.3950 C   0  0  0  0  0  0  0  0  0  0  0  0
   11.3760  -16.2720   25.7313 O   0  0  0  0  0  0  0  0  0  0  0  0
   12.1256  -14.9644   24.0182 O   0  0  0  0  0  0  0  0  0  0  0  0
  2  1  1  6
  3  4  1  0
  3  2  1  0
  4  8  1  0
  5  4  2  0
  6  2  1  0
  6  7  2  0
 10  9  1  6
 10 12  1  0
 11 10  1  0
 12 13  1  6
 13  6  1  0
 14 12  1  0
 15 14  2  0
 16 14  1  0
 17 16  1  0
 17 23  1  0
 17 18  1  6
 19 18  1  0
 20 19  1  0
 20 21  1  0
 22 21  1  0
 23 24  1  0
 25 23  2  0
M  END
$$$$
