DVK.pdb
     RDKit          3D

 25 24  0  0  1  0  0  0  0  0999 V2000
    9.6025  -17.1141   16.0548 N   0  0  0  0  0  0  0  0  0  0  0  0
    8.6267  -17.2790   17.1149 C   0  0  1  0  0  0  0  0  0  0  0  0
    8.5710  -18.7581   17.4290 C   0  0  0  0  0  0  0  0  0  0  0  0
    7.4766  -19.3198   16.6090 C   0  0  0  0  0  0  0  0  0  0  0  0
    7.2360  -18.8383   15.4906 O   0  0  0  0  0  0  0  0  0  0  0  0
    9.1392  -16.4851   18.2889 C   0  0  0  0  0  0  0  0  0  0  0  0
   10.3656  -16.3971   18.5477 O   0  0  0  0  0  0  0  0  0  0  0  0
    6.7290  -20.3751   17.0889 O   0  0  0  0  0  0  0  0  0  0  0  0
    7.3567  -13.1256   19.4663 C   0  0  0  0  0  0  0  0  0  0  0  0
    7.5948  -14.0595   20.5956 C   0  0  2  0  0  0  0  0  0  0  0  0
    7.7427  -13.3611   21.9243 C   0  0  0  0  0  0  0  0  0  0  0  0
    8.7166  -15.0419   20.3408 C   0  0  2  0  0  0  0  0  0  0  0  0
    8.2559  -15.7986   19.1583 N   0  0  0  0  0  0  0  0  0  0  0  0
    8.9240  -15.9968   21.4684 C   0  0  0  0  0  0  0  0  0  0  0  0
    8.7257  -17.2515   21.2971 O   0  0  0  0  0  0  0  0  0  0  0  0
    9.3409  -15.6359   22.7716 N   0  0  0  0  0  0  0  0  0  0  0  0
   10.2701  -16.4737   23.5447 C   0  0  1  0  0  0  0  0  0  0  0  0
   11.5452  -16.7200   22.8122 C   0  0  0  0  0  0  0  0  0  0  0  0
   12.5415  -17.5638   23.5267 C   0  0  0  0  0  0  0  0  0  0  0  0
   13.8332  -17.7741   22.8144 C   0  0  0  0  0  0  0  0  0  0  0  0
   14.7971  -18.6467   23.5903 C   0  0  0  0  0  0  0  0  0  0  0  0
   16.0564  -18.7468   22.8622 N   0  0  0  0  0  0  0  0  0  0  0  0
   10.5078  -15.8788   24.8852 C   0  0  0  0  0  0  0  0  0  0  0  0
   10.7380  -16.6404   26.0255 O   0  0  0  0  0  0  0  0  0  0  0  0
   10.4983  -14.6261   24.9807 O   0  0  0  0  0  0  0  0  0  0  0  0
  2  1  1  6
  3  4  1  0
  3  2  1  0
  4  8  1  0
  5  4  2  0
  6  2  1  0
  6  7  2  0
 10  9  1  6
 10 12  1  0
 11 10  1  0
 12 13  1  6
 13  6  1  0
 14 12  1  0
 15 14  2  0
 16 14  1  0
 17 16  1  0
 17 23  1  0
 17 18  1  6
 19 18  1  0
 20 19  1  0
 20 21  1  0
 22 21  1  0
 23 24  1  0
 25 23  2  0
M  END
$$$$
