DVK.pdb
     RDKit          3D

 25 24  0  0  1  0  0  0  0  0999 V2000
    6.8837  -16.0151   21.9117 N   0  0  0  0  0  0  0  0  0  0  0  0
    8.3334  -16.0313   21.8774 C   0  0  1  0  0  0  0  0  0  0  0  0
    8.7461  -15.3438   20.5943 C   0  0  0  0  0  0  0  0  0  0  0  0
    8.5366  -16.3239   19.5074 C   0  0  0  0  0  0  0  0  0  0  0  0
    8.0407  -17.4321   19.7651 O   0  0  0  0  0  0  0  0  0  0  0  0
    8.7939  -15.2612   23.0881 C   0  0  0  0  0  0  0  0  0  0  0  0
   10.0119  -15.0733   23.3330 O   0  0  0  0  0  0  0  0  0  0  0  0
    8.8919  -16.0032   18.2137 O   0  0  0  0  0  0  0  0  0  0  0  0
    6.8955  -12.1148   24.5502 C   0  0  0  0  0  0  0  0  0  0  0  0
    7.1313  -13.1414   25.5965 C   0  0  2  0  0  0  0  0  0  0  0  0
    7.2388  -12.5622   26.9851 C   0  0  0  0  0  0  0  0  0  0  0  0
    8.2781  -14.0753   25.2788 C   0  0  2  0  0  0  0  0  0  0  0  0
    7.8687  -14.7115   24.0097 N   0  0  0  0  0  0  0  0  0  0  0  0
    8.4670  -15.1392   26.3078 C   0  0  0  0  0  0  0  0  0  0  0  0
    7.5542  -16.0173   26.5042 O   0  0  0  0  0  0  0  0  0  0  0  0
    9.6123  -15.2826   27.1265 N   0  0  0  0  0  0  0  0  0  0  0  0
    9.8815  -16.5246   27.8667 C   0  0  1  0  0  0  0  0  0  0  0  0
   10.5472  -17.5519   27.0153 C   0  0  0  0  0  0  0  0  0  0  0  0
   10.9406  -18.8057   27.7141 C   0  0  0  0  0  0  0  0  0  0  0  0
   11.5766  -19.8457   26.8574 C   0  0  0  0  0  0  0  0  0  0  0  0
   11.9659  -21.0874   27.6313 C   0  0  0  0  0  0  0  0  0  0  0  0
   12.5073  -22.0826   26.7135 N   0  0  0  0  0  0  0  0  0  0  0  0
   10.6634  -16.2334   29.0961 C   0  0  0  0  0  0  0  0  0  0  0  0
   10.6819  -17.0747   30.2029 O   0  0  0  0  0  0  0  0  0  0  0  0
   11.3366  -15.1730   29.1252 O   0  0  0  0  0  0  0  0  0  0  0  0
  2  1  1  6
  3  4  1  0
  3  2  1  0
  4  8  1  0
  5  4  2  0
  6  2  1  0
  6  7  2  0
 10  9  1  6
 10 12  1  0
 11 10  1  0
 12 13  1  6
 13  6  1  0
 14 12  1  0
 15 14  2  0
 16 14  1  0
 17 16  1  0
 17 23  1  0
 17 18  1  6
 19 18  1  0
 20 19  1  0
 20 21  1  0
 22 21  1  0
 23 24  1  0
 25 23  2  0
M  END
$$$$
