DVK.pdb
     RDKit          3D

 25 24  0  0  1  0  0  0  0  0999 V2000
    8.3246  -15.2126   20.7392 N   0  0  0  0  0  0  0  0  0  0  0  0
    7.6933  -15.7773   21.9163 C   0  0  1  0  0  0  0  0  0  0  0  0
    8.0259  -17.2534   21.9227 C   0  0  0  0  0  0  0  0  0  0  0  0
    7.3213  -17.8469   20.7664 C   0  0  0  0  0  0  0  0  0  0  0  0
    7.9742  -18.3787   19.8546 O   0  0  0  0  0  0  0  0  0  0  0  0
    8.2991  -15.0706   23.1015 C   0  0  0  0  0  0  0  0  0  0  0  0
    9.5416  -14.9389   23.2334 O   0  0  0  0  0  0  0  0  0  0  0  0
    5.9438  -17.8077   20.7058 O   0  0  0  0  0  0  0  0  0  0  0  0
    6.3958  -12.0585   24.8484 C   0  0  0  0  0  0  0  0  0  0  0  0
    6.9060  -13.0302   25.8483 C   0  0  2  0  0  0  0  0  0  0  0  0
    7.2216  -12.4010   27.1824 C   0  0  0  0  0  0  0  0  0  0  0  0
    8.0470  -13.8811   25.3360 C   0  0  2  0  0  0  0  0  0  0  0  0
    7.4898  -14.5200   24.1259 N   0  0  0  0  0  0  0  0  0  0  0  0
    8.4557  -14.9485   26.2951 C   0  0  0  0  0  0  0  0  0  0  0  0
    7.6945  -15.9593   26.4995 O   0  0  0  0  0  0  0  0  0  0  0  0
    9.6616  -14.9563   27.0356 N   0  0  0  0  0  0  0  0  0  0  0  0
   10.0120  -16.0711   27.9285 C   0  0  1  0  0  0  0  0  0  0  0  0
   11.0487  -16.9622   27.3330 C   0  0  0  0  0  0  0  0  0  0  0  0
   11.4606  -18.1177   28.1757 C   0  0  0  0  0  0  0  0  0  0  0  0
   12.4968  -19.0085   27.5816 C   0  0  0  0  0  0  0  0  0  0  0  0
   12.8378  -20.1870   28.4689 C   0  0  0  0  0  0  0  0  0  0  0  0
   13.6504  -21.1393   27.7214 N   0  0  0  0  0  0  0  0  0  0  0  0
   10.4235  -15.5560   29.2599 C   0  0  0  0  0  0  0  0  0  0  0  0
   10.5233  -16.3607   30.3894 O   0  0  0  0  0  0  0  0  0  0  0  0
   10.6922  -14.3325   29.3577 O   0  0  0  0  0  0  0  0  0  0  0  0
  2  1  1  6
  3  4  1  0
  3  2  1  0
  4  8  1  0
  5  4  2  0
  6  2  1  0
  6  7  2  0
 10  9  1  6
 10 12  1  0
 11 10  1  0
 12 13  1  6
 13  6  1  0
 14 12  1  0
 15 14  2  0
 16 14  1  0
 17 16  1  0
 17 23  1  0
 17 18  1  6
 19 18  1  0
 20 19  1  0
 20 21  1  0
 22 21  1  0
 23 24  1  0
 25 23  2  0
M  END
$$$$
