DVK.pdb
     RDKit          3D

 25 24  0  0  1  0  0  0  0  0999 V2000
    9.0599  -17.2032   15.9330 N   0  0  0  0  0  0  0  0  0  0  0  0
    8.1028  -17.2221   17.0223 C   0  0  1  0  0  0  0  0  0  0  0  0
    7.8612  -18.6760   17.3643 C   0  0  0  0  0  0  0  0  0  0  0  0
    6.9673  -19.2105   16.3150 C   0  0  0  0  0  0  0  0  0  0  0  0
    7.4253  -19.4744   15.1920 O   0  0  0  0  0  0  0  0  0  0  0  0
    8.7505  -16.4868   18.1674 C   0  0  0  0  0  0  0  0  0  0  0  0
    9.9900  -16.5295   18.3688 O   0  0  0  0  0  0  0  0  0  0  0  0
    5.6305  -19.4138   16.5877 O   0  0  0  0  0  0  0  0  0  0  0  0
    7.0753  -13.0521   19.4645 C   0  0  0  0  0  0  0  0  0  0  0  0
    7.4931  -13.9596   20.5627 C   0  0  2  0  0  0  0  0  0  0  0  0
    7.8103  -13.2336   21.8463 C   0  0  0  0  0  0  0  0  0  0  0  0
    8.5910  -14.9217   20.1666 C   0  0  2  0  0  0  0  0  0  0  0  0
    7.9863  -15.7101   19.0729 N   0  0  0  0  0  0  0  0  0  0  0  0
    8.9787  -15.8508   21.2678 C   0  0  0  0  0  0  0  0  0  0  0  0
    8.1848  -16.7894   21.6307 O   0  0  0  0  0  0  0  0  0  0  0  0
   10.1978  -15.7966   21.9844 N   0  0  0  0  0  0  0  0  0  0  0  0
   10.5295  -16.7872   23.0195 C   0  0  1  0  0  0  0  0  0  0  0  0
   11.9295  -17.2844   22.8920 C   0  0  0  0  0  0  0  0  0  0  0  0
   12.3695  -18.2368   23.9477 C   0  0  0  0  0  0  0  0  0  0  0  0
   13.7692  -18.7319   23.8226 C   0  0  0  0  0  0  0  0  0  0  0  0
   14.1367  -19.7336   24.8968 C   0  0  0  0  0  0  0  0  0  0  0  0
   15.5513  -20.0688   24.7858 N   0  0  0  0  0  0  0  0  0  0  0  0
   10.2605  -16.2313   24.3708 C   0  0  0  0  0  0  0  0  0  0  0  0
   10.0324  -17.0259   25.4888 O   0  0  0  0  0  0  0  0  0  0  0  0
   10.2411  -14.9814   24.4973 O   0  0  0  0  0  0  0  0  0  0  0  0
  2  1  1  6
  3  4  1  0
  3  2  1  0
  4  8  1  0
  5  4  2  0
  6  2  1  0
  6  7  2  0
 10  9  1  6
 10 12  1  0
 11 10  1  0
 12 13  1  6
 13  6  1  0
 14 12  1  0
 15 14  2  0
 16 14  1  0
 17 16  1  0
 17 23  1  0
 17 18  1  1
 19 18  1  0
 20 19  1  0
 20 21  1  0
 22 21  1  0
 23 24  1  0
 25 23  2  0
M  END
$$$$
