LMY.pdb
     RDKit          3D

 29 29  0  0  1  0  0  0  0  0999 V2000
    8.3706  -17.1634   18.3781 C   0  0  0  0  0  0  0  0  0  0  0  0
    7.8485  -15.8338   18.8342 C   0  0  2  0  0  0  0  0  0  0  0  0
    7.6656  -14.9632   17.5831 C   0  0  0  0  0  0  0  0  0  0  0  0
    8.8140  -15.0848   19.7275 C   0  0  0  0  0  0  0  0  0  0  0  0
    8.9096  -15.7486   21.0733 C   0  0  2  0  0  0  0  0  0  0  0  0
    7.8752  -16.7274   21.2167 N   0  0  0  0  0  0  0  0  0  0  0  0
    8.9109  -14.7929   22.1931 C   0  0  0  0  0  0  0  0  0  0  0  0
    9.7976  -13.8862   22.1959 O   0  0  0  0  0  0  0  0  0  0  0  0
    5.7044  -10.0055   27.0676 C   0  0  0  0  0  0  0  0  0  0  0  0
    5.9622  -11.7924   26.7998 S   0  0  0  0  0  0  0  0  0  0  0  0
    6.4704  -12.1108   25.1079 C   0  0  0  0  0  0  0  0  0  0  0  0
    6.6722  -13.5931   24.9221 C   0  0  0  0  0  0  0  0  0  0  0  0
    8.0286  -13.8149   24.2721 C   0  0  2  0  0  0  0  0  0  0  0  0
    7.9864  -14.8273   23.2595 N   0  0  0  0  0  0  0  0  0  0  0  0
    8.9303  -14.2657   25.3768 C   0  0  0  0  0  0  0  0  0  0  0  0
    8.9107  -13.6544   26.4484 O   0  0  0  0  0  0  0  0  0  0  0  0
   12.7955  -18.5237   31.7242 O   0  0  0  0  0  0  0  0  0  0  0  0
   12.0207  -17.9912   30.6908 C   0  0  0  0  0  0  0  0  0  0  0  0
   11.1604  -18.7641   29.9456 C   0  0  0  0  0  0  0  0  0  0  0  0
   10.3981  -18.2342   28.9273 C   0  0  0  0  0  0  0  0  0  0  0  0
   10.4605  -16.8738   28.5967 C   0  0  0  0  0  0  0  0  0  0  0  0
    9.6629  -16.3182   27.4842 C   0  0  0  0  0  0  0  0  0  0  0  0
   10.5194  -16.0055   26.3216 C   0  0  2  0  0  0  0  0  0  0  0  0
    9.7984  -15.3621   25.2360 N   0  0  0  0  0  0  0  0  0  0  0  0
   11.3131  -17.1539   25.8301 C   0  0  0  0  0  0  0  0  0  0  0  0
   12.4462  -17.4308   26.3743 O   0  0  0  0  0  0  0  0  0  0  0  0
   11.3321  -16.1246   29.3617 C   0  0  0  0  0  0  0  0  0  0  0  0
   12.0974  -16.6488   30.3819 C   0  0  0  0  0  0  0  0  0  0  0  0
   10.8891  -17.9665   24.7918 O   0  0  0  0  0  0  0  0  0  0  0  0
  2  1  1  6
  3  2  1  0
  4  2  1  0
  4  5  1  0
  5  6  1  1
  7  5  1  0
  7  8  2  0
  9 10  1  0
 10 11  1  0
 11 12  1  0
 13 12  1  1
 13 14  1  0
 14  7  1  0
 15 13  1  0
 16 15  2  0
 18 17  1  0
 19 18  2  0
 20 19  1  0
 21 27  1  0
 21 20  2  0
 22 21  1  0
 23 22  1  1
 23 24  1  0
 24 15  1  0
 25 23  1  0
 26 25  2  0
 27 28  2  0
 28 18  1  0
 29 25  1  0
M  END
$$$$
