LMY.pdb
     RDKit          3D

 29 29  0  0  1  0  0  0  0  0999 V2000
    6.4445  -19.0000   18.7715 C   0  0  0  0  0  0  0  0  0  0  0  0
    7.9091  -19.3213   18.7651 C   0  0  2  0  0  0  0  0  0  0  0  0
    8.0556  -20.7858   19.2014 C   0  0  0  0  0  0  0  0  0  0  0  0
    8.7063  -18.5064   19.7608 C   0  0  0  0  0  0  0  0  0  0  0  0
    8.5376  -17.0364   19.4935 C   0  0  2  0  0  0  0  0  0  0  0  0
    9.2790  -16.6570   18.3294 N   0  0  0  0  0  0  0  0  0  0  0  0
    8.8773  -16.1932   20.6515 C   0  0  0  0  0  0  0  0  0  0  0  0
   10.0553  -15.7284   20.7196 O   0  0  0  0  0  0  0  0  0  0  0  0
    6.8258  -11.3406   26.4700 C   0  0  0  0  0  0  0  0  0  0  0  0
    6.2590  -12.5524   25.2285 S   0  0  0  0  0  0  0  0  0  0  0  0
    7.6598  -13.3513   24.4400 C   0  0  0  0  0  0  0  0  0  0  0  0
    7.1569  -14.3142   23.3948 C   0  0  0  0  0  0  0  0  0  0  0  0
    8.3570  -14.9489   22.7102 C   0  0  2  0  0  0  0  0  0  0  0  0
    7.9716  -15.8736   21.6863 N   0  0  0  0  0  0  0  0  0  0  0  0
    9.0850  -15.6878   23.7874 C   0  0  0  0  0  0  0  0  0  0  0  0
    8.6128  -16.7483   24.2057 O   0  0  0  0  0  0  0  0  0  0  0  0
   11.2384  -16.6858   31.8455 O   0  0  0  0  0  0  0  0  0  0  0  0
   11.2731  -16.2199   30.5289 C   0  0  0  0  0  0  0  0  0  0  0  0
   12.0655  -16.8006   29.5656 C   0  0  0  0  0  0  0  0  0  0  0  0
   12.0962  -16.3374   28.2682 C   0  0  0  0  0  0  0  0  0  0  0  0
   11.3181  -15.2453   27.8612 C   0  0  0  0  0  0  0  0  0  0  0  0
   11.3785  -14.7352   26.4761 C   0  0  0  0  0  0  0  0  0  0  0  0
   10.9471  -15.7677   25.5111 C   0  0  2  0  0  0  0  0  0  0  0  0
   10.2887  -15.2160   24.3387 N   0  0  0  0  0  0  0  0  0  0  0  0
   10.1461  -16.8580   26.1111 C   0  0  0  0  0  0  0  0  0  0  0  0
   10.6639  -18.0267   26.2616 O   0  0  0  0  0  0  0  0  0  0  0  0
   10.5340  -14.6842   28.8495 C   0  0  0  0  0  0  0  0  0  0  0  0
   10.4988  -15.1430   30.1493 C   0  0  0  0  0  0  0  0  0  0  0  0
    8.8382  -16.6814   26.5308 O   0  0  0  0  0  0  0  0  0  0  0  0
  2  1  1  1
  3  2  1  0
  4  2  1  0
  4  5  1  0
  5  6  1  6
  7  5  1  0
  7  8  2  0
  9 10  1  0
 10 11  1  0
 11 12  1  0
 13 12  1  1
 13 14  1  0
 14  7  1  0
 15 13  1  0
 16 15  2  0
 18 17  1  0
 19 18  2  0
 20 19  1  0
 21 27  1  0
 21 20  2  0
 22 21  1  0
 23 22  1  1
 23 24  1  0
 24 15  1  0
 25 23  1  0
 26 25  2  0
 27 28  2  0
 28 18  1  0
 29 25  1  0
M  END
$$$$
