LMY.pdb
     RDKit          3D

 29 29  0  0  1  0  0  0  0  0999 V2000
    6.9999  -14.8024   18.2303 C   0  0  0  0  0  0  0  0  0  0  0  0
    7.1306  -13.7809   19.3203 C   0  0  2  0  0  0  0  0  0  0  0  0
    6.7510  -12.4211   18.7173 C   0  0  0  0  0  0  0  0  0  0  0  0
    8.5463  -13.6300   19.8342 C   0  0  0  0  0  0  0  0  0  0  0  0
    8.9351  -14.8219   20.6643 C   0  0  2  0  0  0  0  0  0  0  0  0
    7.9793  -15.8742   20.4972 N   0  0  0  0  0  0  0  0  0  0  0  0
    9.1413  -14.4972   22.0854 C   0  0  0  0  0  0  0  0  0  0  0  0
    9.5350  -13.3266   22.3736 O   0  0  0  0  0  0  0  0  0  0  0  0
    6.6196  -11.4814   28.0331 C   0  0  0  0  0  0  0  0  0  0  0  0
    6.5397  -12.1637   26.3421 S   0  0  0  0  0  0  0  0  0  0  0  0
    7.7892  -13.4319   26.1130 C   0  0  0  0  0  0  0  0  0  0  0  0
    7.7339  -13.9305   24.6914 C   0  0  0  0  0  0  0  0  0  0  0  0
    8.8582  -14.9341   24.4908 C   0  0  2  0  0  0  0  0  0  0  0  0
    8.9273  -15.4095   23.1413 N   0  0  0  0  0  0  0  0  0  0  0  0
    8.5357  -16.0795   25.3967 C   0  0  0  0  0  0  0  0  0  0  0  0
    7.4764  -16.6901   25.2304 O   0  0  0  0  0  0  0  0  0  0  0  0
   15.3170  -16.2028   23.9543 O   0  0  0  0  0  0  0  0  0  0  0  0
   14.0989  -16.7784   24.3241 C   0  0  0  0  0  0  0  0  0  0  0  0
   12.9586  -16.6318   23.5683 C   0  0  0  0  0  0  0  0  0  0  0  0
   11.7594  -17.2015   23.9372 C   0  0  0  0  0  0  0  0  0  0  0  0
   11.6390  -17.9633   25.1073 C   0  0  0  0  0  0  0  0  0  0  0  0
   10.3434  -18.5462   25.5123 C   0  0  0  0  0  0  0  0  0  0  0  0
    9.7986  -17.8552   26.6993 C   0  0  2  0  0  0  0  0  0  0  0  0
    9.3982  -16.4842   26.4300 N   0  0  0  0  0  0  0  0  0  0  0  0
   10.6667  -17.9339   27.8953 C   0  0  0  0  0  0  0  0  0  0  0  0
   11.0095  -16.8572   28.5116 O   0  0  0  0  0  0  0  0  0  0  0  0
   12.7996  -18.0923   25.8440 C   0  0  0  0  0  0  0  0  0  0  0  0
   14.0025  -17.5248   25.4802 C   0  0  0  0  0  0  0  0  0  0  0  0
   11.1391  -19.1345   28.3988 O   0  0  0  0  0  0  0  0  0  0  0  0
  2  1  1  6
  3  2  1  0
  4  2  1  0
  4  5  1  0
  5  6  1  1
  7  5  1  0
  7  8  2  0
  9 10  1  0
 10 11  1  0
 11 12  1  0
 13 12  1  6
 13 14  1  0
 14  7  1  0
 15 13  1  0
 16 15  2  0
 18 17  1  0
 19 18  2  0
 20 19  1  0
 21 27  1  0
 21 20  2  0
 22 21  1  0
 23 22  1  6
 23 24  1  0
 24 15  1  0
 25 23  1  0
 26 25  2  0
 27 28  2  0
 28 18  1  0
 29 25  1  0
M  END
$$$$
