LMY.pdb
     RDKit          3D

 29 29  0  0  1  0  0  0  0  0999 V2000
    6.7720  -16.8868   18.6700 C   0  0  0  0  0  0  0  0  0  0  0  0
    7.8390  -17.7729   19.2401 C   0  0  2  0  0  0  0  0  0  0  0  0
    7.2685  -19.1972   19.2911 C   0  0  0  0  0  0  0  0  0  0  0  0
    8.2134  -17.4209   20.6638 C   0  0  0  0  0  0  0  0  0  0  0  0
    8.5325  -15.9560   20.7778 C   0  0  2  0  0  0  0  0  0  0  0  0
    9.6035  -15.6126   19.8924 N   0  0  0  0  0  0  0  0  0  0  0  0
    8.8121  -15.5285   22.1585 C   0  0  0  0  0  0  0  0  0  0  0  0
   10.0090  -15.6054   22.5707 O   0  0  0  0  0  0  0  0  0  0  0  0
    6.7694  -10.2667   26.5506 C   0  0  0  0  0  0  0  0  0  0  0  0
    6.6318  -12.0830   26.6651 S   0  0  0  0  0  0  0  0  0  0  0  0
    6.9827  -12.8444   25.0778 C   0  0  0  0  0  0  0  0  0  0  0  0
    6.9626  -14.3438   25.2325 C   0  0  0  0  0  0  0  0  0  0  0  0
    8.1257  -14.9232   24.4431 C   0  0  2  0  0  0  0  0  0  0  0  0
    7.8292  -15.0404   23.0466 N   0  0  0  0  0  0  0  0  0  0  0  0
    8.3514  -16.2881   25.0111 C   0  0  0  0  0  0  0  0  0  0  0  0
    7.7967  -17.2536   24.4793 O   0  0  0  0  0  0  0  0  0  0  0  0
   14.6840  -22.0696   25.6559 O   0  0  0  0  0  0  0  0  0  0  0  0
   13.7896  -21.0042   25.5265 C   0  0  0  0  0  0  0  0  0  0  0  0
   12.4727  -21.1902   25.1741 C   0  0  0  0  0  0  0  0  0  0  0  0
   11.5944  -20.1360   25.0478 C   0  0  0  0  0  0  0  0  0  0  0  0
   11.9994  -18.8134   25.2729 C   0  0  0  0  0  0  0  0  0  0  0  0
   11.0601  -17.6855   25.1065 C   0  0  0  0  0  0  0  0  0  0  0  0
   10.1411  -17.5858   26.2593 C   0  0  2  0  0  0  0  0  0  0  0  0
    9.1742  -16.5084   26.1290 N   0  0  0  0  0  0  0  0  0  0  0  0
   10.8225  -17.5374   27.5722 C   0  0  0  0  0  0  0  0  0  0  0  0
   11.2086  -16.4079   28.0537 O   0  0  0  0  0  0  0  0  0  0  0  0
   13.3256  -18.6589   25.6247 C   0  0  0  0  0  0  0  0  0  0  0  0
   14.2094  -19.7096   25.7528 C   0  0  0  0  0  0  0  0  0  0  0  0
   11.0702  -18.6708   28.3285 O   0  0  0  0  0  0  0  0  0  0  0  0
  2  1  1  1
  3  2  1  0
  4  2  1  0
  4  5  1  0
  5  6  1  6
  7  5  1  0
  7  8  2  0
  9 10  1  0
 10 11  1  0
 11 12  1  0
 13 12  1  1
 13 14  1  0
 14  7  1  0
 15 13  1  0
 16 15  2  0
 18 17  1  0
 19 18  2  0
 20 19  1  0
 21 27  1  0
 21 20  2  0
 22 21  1  0
 23 22  1  6
 23 24  1  0
 24 15  1  0
 25 23  1  0
 26 25  2  0
 27 28  2  0
 28 18  1  0
 29 25  1  0
M  END
$$$$
