LMY.pdb
     RDKit          3D

 29 29  0  0  1  0  0  0  0  0999 V2000
    8.4977  -20.5116   19.1889 C   0  0  0  0  0  0  0  0  0  0  0  0
    9.5241  -19.9435   20.1230 C   0  0  2  0  0  0  0  0  0  0  0  0
   10.1783  -21.1249   20.8530 C   0  0  0  0  0  0  0  0  0  0  0  0
    8.9312  -19.0621   21.2012 C   0  0  0  0  0  0  0  0  0  0  0  0
    8.2434  -17.8727   20.5901 C   0  0  2  0  0  0  0  0  0  0  0  0
    8.5975  -17.7524   19.2085 N   0  0  0  0  0  0  0  0  0  0  0  0
    8.4885  -16.6202   21.3239 C   0  0  0  0  0  0  0  0  0  0  0  0
    9.3571  -15.8220   20.8581 O   0  0  0  0  0  0  0  0  0  0  0  0
    6.9204  -11.5395   27.1383 C   0  0  0  0  0  0  0  0  0  0  0  0
    6.3157  -12.9452   26.1436 S   0  0  0  0  0  0  0  0  0  0  0  0
    7.4802  -13.3414   24.8363 C   0  0  0  0  0  0  0  0  0  0  0  0
    7.0284  -14.5965   24.1341 C   0  0  0  0  0  0  0  0  0  0  0  0
    8.1028  -15.0020   23.1377 C   0  0  2  0  0  0  0  0  0  0  0  0
    7.8158  -16.2578   22.5109 N   0  0  0  0  0  0  0  0  0  0  0  0
    9.3595  -15.1310   23.9379 C   0  0  0  0  0  0  0  0  0  0  0  0
    9.6172  -14.2712   24.7846 O   0  0  0  0  0  0  0  0  0  0  0  0
   10.3522  -13.8166   30.4344 O   0  0  0  0  0  0  0  0  0  0  0  0
   10.3302  -14.6665   29.3257 C   0  0  0  0  0  0  0  0  0  0  0  0
    9.7353  -14.3081   28.1381 C   0  0  0  0  0  0  0  0  0  0  0  0
    9.7163  -15.1499   27.0473 C   0  0  0  0  0  0  0  0  0  0  0  0
   10.3049  -16.4209   27.0919 C   0  0  0  0  0  0  0  0  0  0  0  0
   10.2547  -17.3299   25.9285 C   0  0  0  0  0  0  0  0  0  0  0  0
   11.0606  -16.8026   24.8079 C   0  0  2  0  0  0  0  0  0  0  0  0
   10.2562  -16.1984   23.7590 N   0  0  0  0  0  0  0  0  0  0  0  0
   12.0263  -17.7748   24.2487 C   0  0  0  0  0  0  0  0  0  0  0  0
   12.9028  -18.3224   25.0158 O   0  0  0  0  0  0  0  0  0  0  0  0
   10.8935  -16.7517   28.2963 C   0  0  0  0  0  0  0  0  0  0  0  0
   10.9159  -15.9139   29.3913 C   0  0  0  0  0  0  0  0  0  0  0  0
   12.0347  -18.1359   22.9118 O   0  0  0  0  0  0  0  0  0  0  0  0
  2  1  1  6
  3  2  1  0
  4  2  1  0
  4  5  1  0
  5  6  1  6
  7  5  1  0
  7  8  2  0
  9 10  1  0
 10 11  1  0
 11 12  1  0
 13 12  1  1
 13 14  1  0
 14  7  1  0
 15 13  1  0
 16 15  2  0
 18 17  1  0
 19 18  2  0
 20 19  1  0
 21 27  1  0
 21 20  2  0
 22 21  1  0
 23 22  1  1
 23 24  1  0
 24 15  1  0
 25 23  1  0
 26 25  2  0
 27 28  2  0
 28 18  1  0
 29 25  1  0
M  END
$$$$
