LMY.pdb
     RDKit          3D

 29 29  0  0  1  0  0  0  0  0999 V2000
    8.8030  -14.9429   16.8506 C   0  0  0  0  0  0  0  0  0  0  0  0
    7.7124  -14.2162   17.5794 C   0  0  2  0  0  0  0  0  0  0  0  0
    7.4288  -12.9232   16.8020 C   0  0  0  0  0  0  0  0  0  0  0  0
    8.1074  -13.7865   18.9760 C   0  0  0  0  0  0  0  0  0  0  0  0
    8.4369  -14.9848   19.8224 C   0  0  2  0  0  0  0  0  0  0  0  0
    7.4120  -15.9760   19.6970 N   0  0  0  0  0  0  0  0  0  0  0  0
    8.6949  -14.6467   21.2318 C   0  0  0  0  0  0  0  0  0  0  0  0
    9.7701  -14.0324   21.5055 O   0  0  0  0  0  0  0  0  0  0  0  0
    6.6036  -11.4314   26.5491 C   0  0  0  0  0  0  0  0  0  0  0  0
    6.1882  -13.1959   26.7619 S   0  0  0  0  0  0  0  0  0  0  0  0
    7.4015  -14.2338   25.9417 C   0  0  0  0  0  0  0  0  0  0  0  0
    6.9369  -14.5236   24.5372 C   0  0  0  0  0  0  0  0  0  0  0  0
    8.1572  -14.5930   23.6329 C   0  0  2  0  0  0  0  0  0  0  0  0
    7.8186  -14.9656   22.2917 N   0  0  0  0  0  0  0  0  0  0  0  0
    9.0334  -15.6491   24.2272 C   0  0  0  0  0  0  0  0  0  0  0  0
    9.0665  -16.7630   23.6973 O   0  0  0  0  0  0  0  0  0  0  0  0
   10.1186  -16.7651   31.6620 O   0  0  0  0  0  0  0  0  0  0  0  0
   10.5629  -16.3063   30.4195 C   0  0  0  0  0  0  0  0  0  0  0  0
   11.3346  -15.1749   30.2882 C   0  0  0  0  0  0  0  0  0  0  0  0
   11.7705  -14.7263   29.0604 C   0  0  0  0  0  0  0  0  0  0  0  0
   11.4484  -15.4030   27.8762 C   0  0  0  0  0  0  0  0  0  0  0  0
   11.8939  -14.8999   26.5606 C   0  0  0  0  0  0  0  0  0  0  0  0
   11.2522  -15.6494   25.4608 C   0  0  2  0  0  0  0  0  0  0  0  0
    9.8207  -15.4159   25.3679 N   0  0  0  0  0  0  0  0  0  0  0  0
   11.5596  -17.0971   25.4568 C   0  0  0  0  0  0  0  0  0  0  0  0
   12.7802  -17.4938   25.3602 O   0  0  0  0  0  0  0  0  0  0  0  0
   10.6734  -16.5339   28.0402 C   0  0  0  0  0  0  0  0  0  0  0  0
   10.2342  -16.9879   29.2660 C   0  0  0  0  0  0  0  0  0  0  0  0
   10.5791  -18.0701   25.5559 O   0  0  0  0  0  0  0  0  0  0  0  0
  2  1  1  6
  3  2  1  0
  4  2  1  0
  4  5  1  0
  5  6  1  1
  7  5  1  0
  7  8  2  0
  9 10  1  0
 10 11  1  0
 11 12  1  0
 13 12  1  1
 13 14  1  0
 14  7  1  0
 15 13  1  0
 16 15  2  0
 18 17  1  0
 19 18  2  0
 20 19  1  0
 21 27  1  0
 21 20  2  0
 22 21  1  0
 23 22  1  1
 23 24  1  0
 24 15  1  0
 25 23  1  0
 26 25  2  0
 27 28  2  0
 28 18  1  0
 29 25  1  0
M  END
$$$$
