LMY.pdb
     RDKit          3D

 29 29  0  0  1  0  0  0  0  0999 V2000
    8.3746  -14.2629   18.0643 C   0  0  0  0  0  0  0  0  0  0  0  0
    7.5196  -13.6341   19.1235 C   0  0  2  0  0  0  0  0  0  0  0  0
    7.1602  -12.2222   18.6395 C   0  0  0  0  0  0  0  0  0  0  0  0
    8.2366  -13.4535   20.4443 C   0  0  0  0  0  0  0  0  0  0  0  0
    8.5400  -14.7887   21.0656 C   0  0  2  0  0  0  0  0  0  0  0  0
    7.4725  -15.7074   20.8102 N   0  0  0  0  0  0  0  0  0  0  0  0
    8.8499  -14.7033   22.5023 C   0  0  0  0  0  0  0  0  0  0  0  0
    9.9475  -14.1649   22.8397 O   0  0  0  0  0  0  0  0  0  0  0  0
    6.5677  -11.0251   27.3133 C   0  0  0  0  0  0  0  0  0  0  0  0
    6.0810  -12.7668   27.0668 S   0  0  0  0  0  0  0  0  0  0  0  0
    6.8377  -13.4299   25.5802 C   0  0  0  0  0  0  0  0  0  0  0  0
    7.3051  -14.8378   25.8480 C   0  0  0  0  0  0  0  0  0  0  0  0
    8.4375  -15.1587   24.8855 C   0  0  2  0  0  0  0  0  0  0  0  0
    7.9999  -15.1843   23.5217 N   0  0  0  0  0  0  0  0  0  0  0  0
    8.9137  -16.5226   25.2718 C   0  0  0  0  0  0  0  0  0  0  0  0
    8.3592  -17.5087   24.7789 O   0  0  0  0  0  0  0  0  0  0  0  0
   15.2401  -16.0565   22.7550 O   0  0  0  0  0  0  0  0  0  0  0  0
   14.1992  -16.7325   23.3963 C   0  0  0  0  0  0  0  0  0  0  0  0
   12.9171  -16.7482   22.8974 C   0  0  0  0  0  0  0  0  0  0  0  0
   11.8937  -17.4166   23.5336 C   0  0  0  0  0  0  0  0  0  0  0  0
   12.1073  -18.1181   24.7278 C   0  0  0  0  0  0  0  0  0  0  0  0
   10.9993  -18.8073   25.4203 C   0  0  0  0  0  0  0  0  0  0  0  0
   10.5123  -18.0110   26.5657 C   0  0  2  0  0  0  0  0  0  0  0  0
    9.9714  -16.7194   26.1761 N   0  0  0  0  0  0  0  0  0  0  0  0
   11.4938  -17.8707   27.6645 C   0  0  0  0  0  0  0  0  0  0  0  0
   12.0923  -18.9119   28.1273 O   0  0  0  0  0  0  0  0  0  0  0  0
   13.4031  -18.0839   25.2033 C   0  0  0  0  0  0  0  0  0  0  0  0
   14.4314  -17.4171   24.5713 C   0  0  0  0  0  0  0  0  0  0  0  0
   11.8106  -16.6481   28.2327 O   0  0  0  0  0  0  0  0  0  0  0  0
  2  1  1  6
  3  2  1  0
  4  2  1  0
  4  5  1  0
  5  6  1  1
  7  5  1  0
  7  8  2  0
  9 10  1  0
 10 11  1  0
 11 12  1  0
 13 12  1  1
 13 14  1  0
 14  7  1  0
 15 13  1  0
 16 15  2  0
 18 17  1  0
 19 18  2  0
 20 19  1  0
 21 27  1  0
 21 20  2  0
 22 21  1  0
 23 22  1  6
 23 24  1  0
 24 15  1  0
 25 23  1  0
 26 25  2  0
 27 28  2  0
 28 18  1  0
 29 25  1  0
M  END
$$$$
