LMY.pdb
     RDKit          3D

 29 29  0  0  1  0  0  0  0  0999 V2000
    9.5357  -20.8727   16.4992 C   0  0  0  0  0  0  0  0  0  0  0  0
    9.6626  -19.3855   16.3547 C   0  0  2  0  0  0  0  0  0  0  0  0
   10.1115  -19.1051   14.9136 C   0  0  0  0  0  0  0  0  0  0  0  0
   10.7261  -18.7846   17.2485 C   0  0  0  0  0  0  0  0  0  0  0  0
   10.3864  -19.0097   18.6959 C   0  0  2  0  0  0  0  0  0  0  0  0
    9.1618  -19.7421   18.8085 N   0  0  0  0  0  0  0  0  0  0  0  0
   10.3492  -17.7665   19.4835 C   0  0  0  0  0  0  0  0  0  0  0  0
   11.3950  -17.0494   19.5067 O   0  0  0  0  0  0  0  0  0  0  0  0
    7.2899  -11.5165   20.3357 C   0  0  0  0  0  0  0  0  0  0  0  0
    6.9112  -12.9047   21.4584 S   0  0  0  0  0  0  0  0  0  0  0  0
    8.3365  -13.9814   21.6349 C   0  0  0  0  0  0  0  0  0  0  0  0
    8.0768  -15.2714   20.8992 C   0  0  0  0  0  0  0  0  0  0  0  0
    9.3109  -16.1509   21.0226 C   0  0  2  0  0  0  0  0  0  0  0  0
    9.2218  -17.3282   20.2114 N   0  0  0  0  0  0  0  0  0  0  0  0
    9.3713  -16.5523   22.4619 C   0  0  0  0  0  0  0  0  0  0  0  0
    8.9914  -17.6820   22.7814 O   0  0  0  0  0  0  0  0  0  0  0  0
    6.3491  -10.9390   27.4717 O   0  0  0  0  0  0  0  0  0  0  0  0
    6.7789  -12.1484   26.9200 C   0  0  0  0  0  0  0  0  0  0  0  0
    7.7488  -12.9224   27.5142 C   0  0  0  0  0  0  0  0  0  0  0  0
    8.1693  -14.1147   26.9661 C   0  0  0  0  0  0  0  0  0  0  0  0
    7.6280  -14.6025   25.7691 C   0  0  0  0  0  0  0  0  0  0  0  0
    8.1047  -15.8667   25.1715 C   0  0  0  0  0  0  0  0  0  0  0  0
    9.5521  -15.8036   24.8809 C   0  0  2  0  0  0  0  0  0  0  0  0
    9.8465  -15.6871   23.4624 N   0  0  0  0  0  0  0  0  0  0  0  0
   10.3409  -16.8900   25.5037 C   0  0  0  0  0  0  0  0  0  0  0  0
   10.2078  -18.1003   25.0863 O   0  0  0  0  0  0  0  0  0  0  0  0
    6.6575  -13.8042   25.1970 C   0  0  0  0  0  0  0  0  0  0  0  0
    6.2324  -12.6103   25.7405 C   0  0  0  0  0  0  0  0  0  0  0  0
   11.2375  -16.6664   26.5353 O   0  0  0  0  0  0  0  0  0  0  0  0
  2  1  1  6
  3  2  1  0
  4  2  1  0
  4  5  1  0
  5  6  1  6
  7  5  1  0
  7  8  2  0
  9 10  1  0
 10 11  1  0
 11 12  1  0
 13 12  1  1
 13 14  1  0
 14  7  1  0
 15 13  1  0
 16 15  2  0
 18 17  1  0
 19 18  2  0
 20 19  1  0
 21 27  1  0
 21 20  2  0
 22 21  1  0
 23 22  1  6
 23 24  1  0
 24 15  1  0
 25 23  1  0
 26 25  2  0
 27 28  2  0
 28 18  1  0
 29 25  1  0
M  END
$$$$
