VTE.pdb
     RDKit          3D

 24 23  0  0  1  0  0  0  0  0999 V2000
    7.9696  -16.6430   20.0463 C   0  0  0  0  0  0  0  0  0  0  0  0
    8.4886  -16.0350   21.3326 C   0  0  2  0  0  0  0  0  0  0  0  0
    8.3781  -17.0986   22.4036 C   0  0  0  0  0  0  0  0  0  0  0  0
    7.6017  -14.8332   21.6817 C   0  0  2  0  0  0  0  0  0  0  0  0
    7.5753  -13.9118   20.5889 N   0  0  0  0  0  0  0  0  0  0  0  0
    8.0469  -14.2091   22.9532 C   0  0  0  0  0  0  0  0  0  0  0  0
    9.1017  -13.5239   22.9760 O   0  0  0  0  0  0  0  0  0  0  0  0
    6.1967  -11.9323   25.6136 C   0  0  0  0  0  0  0  0  0  0  0  0
    6.7374  -13.1912   26.2516 C   0  0  1  0  0  0  0  0  0  0  0  0
    5.6806  -14.0855   26.3547 O   0  0  0  0  0  0  0  0  0  0  0  0
    7.8158  -13.8364   25.4450 C   0  0  2  0  0  0  0  0  0  0  0  0
    7.3544  -14.3322   24.1690 N   0  0  0  0  0  0  0  0  0  0  0  0
    8.4164  -14.9603   26.1792 C   0  0  0  0  0  0  0  0  0  0  0  0
    8.3486  -16.1476   25.6863 O   0  0  0  0  0  0  0  0  0  0  0  0
    9.0893  -14.8833   27.4154 N   0  0  0  0  0  0  0  0  0  0  0  0
   10.1804  -15.7885   27.8095 C   0  0  1  0  0  0  0  0  0  0  0  0
   11.1837  -15.8047   26.6837 C   0  0  0  0  0  0  0  0  0  0  0  0
   12.3591  -16.7145   26.9394 C   0  0  0  0  0  0  0  0  0  0  0  0
   13.3134  -16.6386   25.7875 C   0  0  0  0  0  0  0  0  0  0  0  0
   14.0659  -17.5957   25.4790 O   0  0  0  0  0  0  0  0  0  0  0  0
   10.7381  -15.4177   29.1050 C   0  0  0  0  0  0  0  0  0  0  0  0
   10.6585  -14.2549   29.5494 O   0  0  0  0  0  0  0  0  0  0  0  0
   13.3886  -15.4909   25.0232 O   0  0  0  0  0  0  0  0  0  0  0  0
   11.3786  -16.3708   29.8787 O   0  0  0  0  0  0  0  0  0  0  0  0
  2  1  1  6
  2  3  1  0
  4  2  1  0
  4  6  1  0
  4  5  1  6
  6 12  1  0
  7  6  2  0
  9 11  1  0
  9  8  1  6
 10  9  1  0
 11 12  1  6
 13 14  2  0
 13 11  1  0
 15 13  1  0
 16 15  1  0
 16 21  1  0
 16 17  1  6
 18 17  1  0
 19 18  1  0
 20 19  2  0
 21 24  1  0
 22 21  2  0
 23 19  1  0
M  END
$$$$
