VTE.pdb
     RDKit          3D

 24 23  0  0  1  0  0  0  0  0999 V2000
    8.4599  -16.6892   21.1321 C   0  0  0  0  0  0  0  0  0  0  0  0
    7.0772  -16.0715   21.1362 C   0  0  2  0  0  0  0  0  0  0  0  0
    6.4618  -16.3493   19.7817 C   0  0  0  0  0  0  0  0  0  0  0  0
    7.2325  -14.5607   21.3512 C   0  0  2  0  0  0  0  0  0  0  0  0
    7.9066  -13.9752   20.2347 N   0  0  0  0  0  0  0  0  0  0  0  0
    7.9088  -14.2852   22.6440 C   0  0  0  0  0  0  0  0  0  0  0  0
    9.1081  -13.9056   22.6520 O   0  0  0  0  0  0  0  0  0  0  0  0
    6.6045  -12.1493   25.6725 C   0  0  0  0  0  0  0  0  0  0  0  0
    7.0654  -13.5034   26.1603 C   0  0  1  0  0  0  0  0  0  0  0  0
    5.9288  -14.2719   26.3723 O   0  0  0  0  0  0  0  0  0  0  0  0
    7.9305  -14.2151   25.1729 C   0  0  2  0  0  0  0  0  0  0  0  0
    7.2874  -14.4221   23.8961 N   0  0  0  0  0  0  0  0  0  0  0  0
    8.3450  -15.5275   25.6914 C   0  0  0  0  0  0  0  0  0  0  0  0
    7.8934  -16.5986   25.1381 O   0  0  0  0  0  0  0  0  0  0  0  0
    9.2202  -15.7579   26.7721 N   0  0  0  0  0  0  0  0  0  0  0  0
    9.5959  -17.0987   27.2477 C   0  0  1  0  0  0  0  0  0  0  0  0
   10.2166  -17.8333   26.0859 C   0  0  0  0  0  0  0  0  0  0  0  0
   11.5702  -17.2983   25.6909 C   0  0  0  0  0  0  0  0  0  0  0  0
   12.0959  -18.0742   24.5226 C   0  0  0  0  0  0  0  0  0  0  0  0
   11.4546  -19.0235   24.0078 O   0  0  0  0  0  0  0  0  0  0  0  0
   10.4428  -17.0254   28.4327 C   0  0  0  0  0  0  0  0  0  0  0  0
   10.8748  -15.9396   28.8690 O   0  0  0  0  0  0  0  0  0  0  0  0
   13.3228  -17.7565   23.9741 O   0  0  0  0  0  0  0  0  0  0  0  0
   10.7881  -18.1846   29.1067 O   0  0  0  0  0  0  0  0  0  0  0  0
  2  1  1  6
  2  3  1  0
  4  2  1  0
  4  6  1  0
  4  5  1  6
  6 12  1  0
  7  6  2  0
  9 11  1  0
  9  8  1  6
 10  9  1  0
 11 12  1  6
 13 14  2  0
 13 11  1  0
 15 13  1  0
 16 15  1  0
 16 21  1  0
 16 17  1  6
 18 17  1  0
 19 18  1  0
 20 19  2  0
 21 24  1  0
 22 21  2  0
 23 19  1  0
M  END
$$$$
