VTE.pdb
     RDKit          3D

 24 23  0  0  1  0  0  0  0  0999 V2000
   10.3216  -17.9673   16.4887 C   0  0  0  0  0  0  0  0  0  0  0  0
   10.4162  -17.2787   15.1431 C   0  0  2  0  0  0  0  0  0  0  0  0
   11.8878  -17.1249   14.8246 C   0  0  0  0  0  0  0  0  0  0  0  0
    9.7509  -15.9022   15.2662 C   0  0  2  0  0  0  0  0  0  0  0  0
    9.9844  -15.1390   14.0801 N   0  0  0  0  0  0  0  0  0  0  0  0
   10.2086  -15.2106   16.4978 C   0  0  0  0  0  0  0  0  0  0  0  0
   11.2694  -14.5347   16.4761 O   0  0  0  0  0  0  0  0  0  0  0  0
    7.9640  -12.9951   18.8518 C   0  0  0  0  0  0  0  0  0  0  0  0
    8.7625  -13.9801   19.6742 C   0  0  1  0  0  0  0  0  0  0  0  0
    7.9046  -15.0146   20.0222 O   0  0  0  0  0  0  0  0  0  0  0  0
    9.9156  -14.5639   18.9262 C   0  0  2  0  0  0  0  0  0  0  0  0
    9.5217  -15.2580   17.7221 N   0  0  0  0  0  0  0  0  0  0  0  0
   10.6629  -15.5076   19.7712 C   0  0  0  0  0  0  0  0  0  0  0  0
   10.5968  -16.7691   19.5234 O   0  0  0  0  0  0  0  0  0  0  0  0
   11.4812  -15.1746   20.8696 N   0  0  0  0  0  0  0  0  0  0  0  0
   12.6256  -15.9869   21.3119 C   0  0  1  0  0  0  0  0  0  0  0  0
   13.4913  -16.2445   20.1042 C   0  0  0  0  0  0  0  0  0  0  0  0
   14.6923  -17.1079   20.3989 C   0  0  0  0  0  0  0  0  0  0  0  0
   15.5170  -17.2621   19.1582 C   0  0  0  0  0  0  0  0  0  0  0  0
   15.8671  -16.2773   18.4618 O   0  0  0  0  0  0  0  0  0  0  0  0
   13.3240  -15.3597   22.4280 C   0  0  0  0  0  0  0  0  0  0  0  0
   14.1796  -15.9713   23.0988 O   0  0  0  0  0  0  0  0  0  0  0  0
   15.9192  -18.5166   18.7439 O   0  0  0  0  0  0  0  0  0  0  0  0
   13.0423  -14.0474   22.7681 O   0  0  0  0  0  0  0  0  0  0  0  0
  2  1  1  1
  2  3  1  0
  4  2  1  0
  4  6  1  0
  4  5  1  6
  6 12  1  0
  7  6  2  0
  9 11  1  0
  9  8  1  6
 10  9  1  0
 11 12  1  6
 13 14  2  0
 13 11  1  0
 15 13  1  0
 16 15  1  0
 16 21  1  0
 16 17  1  6
 18 17  1  0
 19 18  1  0
 20 19  2  0
 21 24  1  0
 22 21  2  0
 23 19  1  0
M  END
$$$$
