VTE.pdb
     RDKit          3D

 24 23  0  0  1  0  0  0  0  0999 V2000
    7.9916  -12.9492   27.2662 C   0  0  0  0  0  0  0  0  0  0  0  0
    7.3200  -12.1976   26.1359 C   0  0  2  0  0  0  0  0  0  0  0  0
    6.6314  -10.9967   26.7475 C   0  0  0  0  0  0  0  0  0  0  0  0
    6.2887  -13.1320   25.4909 C   0  0  2  0  0  0  0  0  0  0  0  0
    5.2906  -13.4932   26.4486 N   0  0  0  0  0  0  0  0  0  0  0  0
    6.9599  -14.3091   24.8839 C   0  0  0  0  0  0  0  0  0  0  0  0
    7.0246  -15.3896   25.5248 O   0  0  0  0  0  0  0  0  0  0  0  0
    6.8284  -14.9376   20.8958 C   0  0  0  0  0  0  0  0  0  0  0  0
    8.1658  -15.3414   21.4725 C   0  0  1  0  0  0  0  0  0  0  0  0
    9.0797  -14.3588   21.1167 O   0  0  0  0  0  0  0  0  0  0  0  0
    8.1506  -15.4450   22.9621 C   0  0  2  0  0  0  0  0  0  0  0  0
    7.5454  -14.3029   23.6071 N   0  0  0  0  0  0  0  0  0  0  0  0
    9.5153  -15.5949   23.4896 C   0  0  0  0  0  0  0  0  0  0  0  0
    9.9580  -14.7472   24.3514 O   0  0  0  0  0  0  0  0  0  0  0  0
   10.4350  -16.6062   23.1458 N   0  0  0  0  0  0  0  0  0  0  0  0
   11.4891  -17.0937   24.0495 C   0  0  1  0  0  0  0  0  0  0  0  0
   10.8218  -17.5268   25.3307 C   0  0  0  0  0  0  0  0  0  0  0  0
   11.7700  -18.1608   26.3174 C   0  0  0  0  0  0  0  0  0  0  0  0
   11.0270  -18.5243   27.5661 C   0  0  0  0  0  0  0  0  0  0  0  0
   10.7809  -19.7168   27.8740 O   0  0  0  0  0  0  0  0  0  0  0  0
   12.2980  -18.1279   23.4149 C   0  0  0  0  0  0  0  0  0  0  0  0
   11.8376  -18.8748   22.5282 O   0  0  0  0  0  0  0  0  0  0  0  0
   10.5870  -17.5359   28.4243 O   0  0  0  0  0  0  0  0  0  0  0  0
   13.6183  -18.3009   23.7946 O   0  0  0  0  0  0  0  0  0  0  0  0
  2  1  1  1
  2  3  1  0
  4  2  1  0
  4  6  1  0
  4  5  1  1
  6 12  1  0
  7  6  2  0
  9 11  1  0
  9  8  1  1
 10  9  1  0
 11 12  1  1
 13 14  2  0
 13 11  1  0
 15 13  1  0
 16 15  1  0
 16 21  1  0
 16 17  1  1
 18 17  1  0
 19 18  1  0
 20 19  2  0
 21 24  1  0
 22 21  2  0
 23 19  1  0
M  END
$$$$
