VTE.pdb
     RDKit          3D

 24 23  0  0  1  0  0  0  0  0999 V2000
    7.2524  -13.1334   21.2138 C   0  0  0  0  0  0  0  0  0  0  0  0
    8.5370  -13.1325   20.4116 C   0  0  2  0  0  0  0  0  0  0  0  0
    8.4293  -12.0112   19.4007 C   0  0  0  0  0  0  0  0  0  0  0  0
    8.6517  -14.4849   19.6970 C   0  0  2  0  0  0  0  0  0  0  0  0
    7.5246  -14.6817   18.8399 N   0  0  0  0  0  0  0  0  0  0  0  0
    8.8268  -15.5816   20.6825 C   0  0  0  0  0  0  0  0  0  0  0  0
    7.8384  -16.2853   21.0147 O   0  0  0  0  0  0  0  0  0  0  0  0
    9.5808  -18.7684   20.6141 C   0  0  0  0  0  0  0  0  0  0  0  0
   10.6382  -18.2656   21.5697 C   0  0  1  0  0  0  0  0  0  0  0  0
   11.7934  -18.0545   20.8294 O   0  0  0  0  0  0  0  0  0  0  0  0
   10.2649  -16.9776   22.2266 C   0  0  2  0  0  0  0  0  0  0  0  0
   10.0533  -15.8994   21.2888 N   0  0  0  0  0  0  0  0  0  0  0  0
   11.3041  -16.5555   23.1778 C   0  0  0  0  0  0  0  0  0  0  0  0
   11.5404  -15.3007   23.3424 O   0  0  0  0  0  0  0  0  0  0  0  0
   12.1063  -17.4048   23.9665 N   0  0  0  0  0  0  0  0  0  0  0  0
   12.5492  -17.0757   25.3306 C   0  0  1  0  0  0  0  0  0  0  0  0
   11.3381  -16.6108   26.0997 C   0  0  0  0  0  0  0  0  0  0  0  0
   11.3916  -15.1525   26.4805 C   0  0  0  0  0  0  0  0  0  0  0  0
   10.4456  -14.8935   27.6124 C   0  0  0  0  0  0  0  0  0  0  0  0
    9.7644  -15.8092   28.1368 O   0  0  0  0  0  0  0  0  0  0  0  0
   13.2573  -18.1931   25.9445 C   0  0  0  0  0  0  0  0  0  0  0  0
   12.8386  -19.3652   25.8621 O   0  0  0  0  0  0  0  0  0  0  0  0
   10.2981  -13.6157   28.1150 O   0  0  0  0  0  0  0  0  0  0  0  0
   14.4308  -17.9658   26.6436 O   0  0  0  0  0  0  0  0  0  0  0  0
  2  1  1  1
  2  3  1  0
  4  2  1  0
  4  6  1  0
  4  5  1  1
  6 12  1  0
  7  6  2  0
  9 11  1  0
  9  8  1  6
 10  9  1  0
 11 12  1  6
 13 14  2  0
 13 11  1  0
 15 13  1  0
 16 15  1  0
 16 21  1  0
 16 17  1  1
 18 17  1  0
 19 18  1  0
 20 19  2  0
 21 24  1  0
 22 21  2  0
 23 19  1  0
M  END
$$$$
