VTE.pdb
     RDKit          3D

 24 23  0  0  1  0  0  0  0  0999 V2000
    7.9294  -12.2278   18.9214 C   0  0  0  0  0  0  0  0  0  0  0  0
    7.9345  -13.3047   19.9861 C   0  0  2  0  0  0  0  0  0  0  0  0
    8.9377  -12.8848   21.0387 C   0  0  0  0  0  0  0  0  0  0  0  0
    8.3706  -14.6203   19.3291 C   0  0  2  0  0  0  0  0  0  0  0  0
    7.4404  -14.9881   18.3077 N   0  0  0  0  0  0  0  0  0  0  0  0
    8.5523  -15.6793   20.3539 C   0  0  0  0  0  0  0  0  0  0  0  0
    7.5445  -16.2138   20.8840 O   0  0  0  0  0  0  0  0  0  0  0  0
   11.0191  -19.4409   22.2262 C   0  0  0  0  0  0  0  0  0  0  0  0
   10.7845  -18.3520   21.2048 C   0  0  1  0  0  0  0  0  0  0  0  0
   10.0433  -18.9105   20.1723 O   0  0  0  0  0  0  0  0  0  0  0  0
   10.0183  -17.1935   21.7534 C   0  0  2  0  0  0  0  0  0  0  0  0
    9.8061  -16.1410   20.7870 N   0  0  0  0  0  0  0  0  0  0  0  0
   10.7095  -16.6124   22.9143 C   0  0  0  0  0  0  0  0  0  0  0  0
   11.7241  -15.8424   22.7273 O   0  0  0  0  0  0  0  0  0  0  0  0
   10.3728  -16.8092   24.2689 N   0  0  0  0  0  0  0  0  0  0  0  0
   11.1095  -16.2047   25.3900 C   0  0  1  0  0  0  0  0  0  0  0  0
   10.0920  -15.6166   26.3352 C   0  0  0  0  0  0  0  0  0  0  0  0
   10.6981  -15.0547   27.5967 C   0  0  0  0  0  0  0  0  0  0  0  0
    9.6184  -14.4762   28.4586 C   0  0  0  0  0  0  0  0  0  0  0  0
    8.4015  -14.5817   28.1663 O   0  0  0  0  0  0  0  0  0  0  0  0
   12.0189  -17.1628   26.0078 C   0  0  0  0  0  0  0  0  0  0  0  0
   11.7402  -18.3754   26.0956 O   0  0  0  0  0  0  0  0  0  0  0  0
    9.9437  -13.7999   29.6180 O   0  0  0  0  0  0  0  0  0  0  0  0
   13.2323  -16.7324   26.5177 O   0  0  0  0  0  0  0  0  0  0  0  0
  2  1  1  6
  2  3  1  0
  4  2  1  0
  4  6  1  0
  4  5  1  6
  6 12  1  0
  7  6  2  0
  9 11  1  0
  9  8  1  1
 10  9  1  0
 11 12  1  6
 13 14  2  0
 13 11  1  0
 15 13  1  0
 16 15  1  0
 16 21  1  0
 16 17  1  1
 18 17  1  0
 19 18  1  0
 20 19  2  0
 21 24  1  0
 22 21  2  0
 23 19  1  0
M  END
$$$$
