VTE.pdb
     RDKit          3D

 24 23  0  0  1  0  0  0  0  0999 V2000
   11.6919  -20.8868   18.7978 C   0  0  0  0  0  0  0  0  0  0  0  0
   10.2160  -20.5694   18.6780 C   0  0  2  0  0  0  0  0  0  0  0  0
    9.6819  -21.3713   17.5109 C   0  0  0  0  0  0  0  0  0  0  0  0
   10.0740  -19.0673   18.4018 C   0  0  2  0  0  0  0  0  0  0  0  0
   10.3474  -18.7958   17.0252 N   0  0  0  0  0  0  0  0  0  0  0  0
   10.9317  -18.2842   19.3268 C   0  0  0  0  0  0  0  0  0  0  0  0
   12.0791  -17.9230   18.9584 O   0  0  0  0  0  0  0  0  0  0  0  0
    9.6890  -15.1984   21.6809 C   0  0  0  0  0  0  0  0  0  0  0  0
   10.4887  -16.2427   22.4251 C   0  0  1  0  0  0  0  0  0  0  0  0
    9.5813  -17.0680   23.0754 O   0  0  0  0  0  0  0  0  0  0  0  0
   11.3238  -17.0898   21.5224 C   0  0  2  0  0  0  0  0  0  0  0  0
   10.5427  -17.9062   20.6225 N   0  0  0  0  0  0  0  0  0  0  0  0
   12.1976  -17.9800   22.3015 C   0  0  0  0  0  0  0  0  0  0  0  0
   11.9996  -19.2516   22.2664 O   0  0  0  0  0  0  0  0  0  0  0  0
   13.2762  -17.5836   23.1178 N   0  0  0  0  0  0  0  0  0  0  0  0
   14.3250  -18.5019   23.5889 C   0  0  1  0  0  0  0  0  0  0  0  0
   14.9746  -19.1097   22.3711 C   0  0  0  0  0  0  0  0  0  0  0  0
   14.4402  -20.4769   22.0245 C   0  0  0  0  0  0  0  0  0  0  0  0
   15.2459  -21.0626   20.9061 C   0  0  0  0  0  0  0  0  0  0  0  0
   16.0674  -21.9944   21.0910 O   0  0  0  0  0  0  0  0  0  0  0  0
   15.2530  -17.8315   24.4924 C   0  0  0  0  0  0  0  0  0  0  0  0
   15.8478  -18.4443   25.4016 O   0  0  0  0  0  0  0  0  0  0  0  0
   15.1003  -20.5812   19.6199 O   0  0  0  0  0  0  0  0  0  0  0  0
   15.4938  -16.4751   24.3523 O   0  0  0  0  0  0  0  0  0  0  0  0
  2  1  1  6
  2  3  1  0
  4  2  1  0
  4  6  1  0
  4  5  1  6
  6 12  1  0
  7  6  2  0
  9 11  1  0
  9  8  1  6
 10  9  1  0
 11 12  1  6
 13 14  2  0
 13 11  1  0
 15 13  1  0
 16 15  1  0
 16 21  1  0
 16 17  1  6
 18 17  1  0
 19 18  1  0
 20 19  2  0
 21 24  1  0
 22 21  2  0
 23 19  1  0
M  END
$$$$
