KDA.pdb
     RDKit          3D

 23 22  0  0  1  0  0  0  0  0999 V2000
   29.8201  -35.0740   -5.0678 N   0  0  0  0  0  0  0  0  0  0  0  0
   28.6770  -34.7757   -4.2065 C   0  0  1  0  0  0  0  0  0  0  0  0
   27.4960  -35.4502   -4.8617 C   0  0  0  0  0  0  0  0  0  0  0  0
   26.9049  -34.6511   -5.9834 C   0  0  0  0  0  0  0  0  0  0  0  0
   25.4867  -34.2237   -5.6733 C   0  0  0  0  0  0  0  0  0  0  0  0
   24.9346  -33.5339   -6.9067 C   0  0  0  0  0  0  0  0  0  0  0  0
   23.5804  -33.1311   -6.6220 N   0  0  0  0  0  0  0  0  0  0  0  0
   28.8688  -35.3680   -2.8621 C   0  0  0  0  0  0  0  0  0  0  0  0
   29.4468  -36.4628   -2.6555 O   0  0  0  0  0  0  0  0  0  0  0  0
   28.3970  -34.7179   -1.6732 N   0  0  0  0  0  0  0  0  0  0  0  0
   28.5206  -35.2294   -0.3566 C   0  0  1  0  0  0  0  0  0  0  0  0
   29.1632  -34.3112    0.6340 C   0  0  0  0  0  0  0  0  0  0  0  0
   29.2989  -34.9026    1.9836 C   0  0  0  0  0  0  0  0  0  0  0  0
   29.5919  -36.0856    2.2113 O   0  0  0  0  0  0  0  0  0  0  0  0
   27.2338  -35.7727    0.0920 C   0  0  0  0  0  0  0  0  0  0  0  0
   26.2181  -35.0372    0.0551 O   0  0  0  0  0  0  0  0  0  0  0  0
   29.0803  -34.0637    3.0682 O   0  0  0  0  0  0  0  0  0  0  0  0
   25.9000  -39.1360    1.0715 C   0  0  0  0  0  0  0  0  0  0  0  0
   25.7544  -37.6194    0.9807 C   0  0  2  0  0  0  0  0  0  0  0  0
   27.0465  -37.0996    0.5763 N   0  0  0  0  0  0  0  0  0  0  0  0
   25.3121  -37.0588    2.2799 C   0  0  0  0  0  0  0  0  0  0  0  0
   26.1940  -36.5145    2.9932 O   0  0  0  0  0  0  0  0  0  0  0  0
   24.0242  -37.0929    2.7503 O   0  0  0  0  0  0  0  0  0  0  0  0
  2  1  1  6
  3  2  1  0
  4  3  1  0
  5  6  1  0
  5  4  1  0
  7  6  1  0
  8  2  1  0
  8 10  1  0
  9  8  2  0
 11 10  1  0
 12 13  1  0
 11 12  1  1
 13 17  1  0
 14 13  2  0
 15 11  1  0
 15 20  1  0
 16 15  2  0
 19 18  1  1
 19 20  1  0
 19 21  1  0
 21 22  2  0
 21 23  1  0
M  END
$$$$
