KDA.pdb
     RDKit          3D

 23 22  0  0  1  0  0  0  0  0999 V2000
   24.6477  -23.4392  -15.4742 N   0  0  0  0  0  0  0  0  0  0  0  0
   24.1346  -22.0923  -15.7192 C   0  0  1  0  0  0  0  0  0  0  0  0
   23.2934  -21.7589  -14.5108 C   0  0  0  0  0  0  0  0  0  0  0  0
   21.8285  -21.9905  -14.7269 C   0  0  0  0  0  0  0  0  0  0  0  0
   21.0409  -21.7924  -13.4500 C   0  0  0  0  0  0  0  0  0  0  0  0
   19.5817  -22.0656  -13.7630 C   0  0  0  0  0  0  0  0  0  0  0  0
   18.8483  -22.0377  -12.5227 N   0  0  0  0  0  0  0  0  0  0  0  0
   25.2473  -21.1173  -15.7994 C   0  0  0  0  0  0  0  0  0  0  0  0
   26.4286  -21.3741  -15.4622 O   0  0  0  0  0  0  0  0  0  0  0  0
   25.0497  -19.7796  -16.2793 N   0  0  0  0  0  0  0  0  0  0  0  0
   26.0789  -18.9019  -16.7043 C   0  0  1  0  0  0  0  0  0  0  0  0
   26.7805  -19.2942  -17.9656 C   0  0  0  0  0  0  0  0  0  0  0  0
   27.8777  -18.3745  -18.3399 C   0  0  0  0  0  0  0  0  0  0  0  0
   28.7763  -17.9967  -17.5738 O   0  0  0  0  0  0  0  0  0  0  0  0
   25.5877  -17.5196  -16.7086 C   0  0  0  0  0  0  0  0  0  0  0  0
   24.6485  -17.2113  -17.4812 O   0  0  0  0  0  0  0  0  0  0  0  0
   27.8937  -17.9054  -19.6467 O   0  0  0  0  0  0  0  0  0  0  0  0
   26.4805  -14.3079  -14.9618 C   0  0  0  0  0  0  0  0  0  0  0  0
   25.6376  -15.1088  -15.9506 C   0  0  2  0  0  0  0  0  0  0  0  0
   26.1071  -16.4794  -15.8849 N   0  0  0  0  0  0  0  0  0  0  0  0
   25.7590  -14.5451  -17.3164 C   0  0  0  0  0  0  0  0  0  0  0  0
   26.5913  -15.0925  -18.0848 O   0  0  0  0  0  0  0  0  0  0  0  0
   25.0351  -13.4818  -17.7923 O   0  0  0  0  0  0  0  0  0  0  0  0
  2  1  1  1
  3  2  1  0
  4  3  1  0
  5  6  1  0
  5  4  1  0
  7  6  1  0
  8  2  1  0
  8 10  1  0
  9  8  2  0
 11 10  1  0
 12 13  1  0
 11 12  1  6
 13 17  1  0
 14 13  2  0
 15 11  1  0
 15 20  1  0
 16 15  2  0
 19 18  1  1
 19 20  1  0
 19 21  1  0
 21 22  2  0
 21 23  1  0
M  END
$$$$
