KDA.pdb
     RDKit          3D

 23 22  0  0  1  0  0  0  0  0999 V2000
   19.6772  -10.1198  -17.2225 N   0  0  0  0  0  0  0  0  0  0  0  0
   18.5780   -9.8708  -16.2912 C   0  0  1  0  0  0  0  0  0  0  0  0
   18.4826  -11.1162  -15.4433 C   0  0  0  0  0  0  0  0  0  0  0  0
   18.3555  -12.3732  -16.2495 C   0  0  0  0  0  0  0  0  0  0  0  0
   18.5022  -13.6054  -15.3834 C   0  0  0  0  0  0  0  0  0  0  0  0
   18.3582  -14.8190  -16.2825 C   0  0  0  0  0  0  0  0  0  0  0  0
   18.6142  -15.9938  -15.4879 N   0  0  0  0  0  0  0  0  0  0  0  0
   18.8936   -8.7246  -15.4071 C   0  0  0  0  0  0  0  0  0  0  0  0
   18.1961   -8.3902  -14.4187 O   0  0  0  0  0  0  0  0  0  0  0  0
   20.0450   -7.8960  -15.6223 N   0  0  0  0  0  0  0  0  0  0  0  0
   20.4164   -6.7866  -14.8213 C   0  0  1  0  0  0  0  0  0  0  0  0
   21.8495   -6.7507  -14.3944 C   0  0  0  0  0  0  0  0  0  0  0  0
   22.1739   -5.6052  -13.5157 C   0  0  0  0  0  0  0  0  0  0  0  0
   21.8141   -5.4959  -12.3343 O   0  0  0  0  0  0  0  0  0  0  0  0
   19.9564   -5.5417  -15.4465 C   0  0  0  0  0  0  0  0  0  0  0  0
   20.4970   -5.1619  -16.5130 O   0  0  0  0  0  0  0  0  0  0  0  0
   22.9375   -4.5827  -14.0630 O   0  0  0  0  0  0  0  0  0  0  0  0
   17.0224   -3.2871  -15.1789 C   0  0  0  0  0  0  0  0  0  0  0  0
   18.4844   -3.4905  -15.5674 C   0  0  2  0  0  0  0  0  0  0  0  0
   18.9209   -4.7144  -14.9233 N   0  0  0  0  0  0  0  0  0  0  0  0
   19.3012   -2.3241  -15.1550 C   0  0  0  0  0  0  0  0  0  0  0  0
   19.0139   -1.2163  -15.6776 O   0  0  0  0  0  0  0  0  0  0  0  0
   20.3348   -2.3704  -14.2546 O   0  0  0  0  0  0  0  0  0  0  0  0
  2  1  1  6
  3  2  1  0
  4  3  1  0
  5  6  1  0
  5  4  1  0
  7  6  1  0
  8  2  1  0
  8 10  1  0
  9  8  2  0
 11 10  1  0
 12 13  1  0
 11 12  1  6
 13 17  1  0
 14 13  2  0
 15 11  1  0
 15 20  1  0
 16 15  2  0
 19 18  1  1
 19 20  1  0
 19 21  1  0
 21 22  2  0
 21 23  1  0
M  END
$$$$
