KDA.pdb
     RDKit          3D

 23 22  0  0  1  0  0  0  0  0999 V2000
   27.9289  -21.3020  -14.8916 N   0  0  0  0  0  0  0  0  0  0  0  0
   27.0666  -20.4411  -14.0835 C   0  0  1  0  0  0  0  0  0  0  0  0
   27.9383  -19.2820  -13.6647 C   0  0  0  0  0  0  0  0  0  0  0  0
   29.2687  -19.7076  -13.1214 C   0  0  0  0  0  0  0  0  0  0  0  0
   29.1147  -20.7085  -11.9969 C   0  0  0  0  0  0  0  0  0  0  0  0
   30.4909  -20.9512  -11.4060 C   0  0  0  0  0  0  0  0  0  0  0  0
   30.3648  -21.9612  -10.3858 N   0  0  0  0  0  0  0  0  0  0  0  0
   25.9458  -19.9150  -14.8971 C   0  0  0  0  0  0  0  0  0  0  0  0
   26.0026  -18.8528  -15.5632 O   0  0  0  0  0  0  0  0  0  0  0  0
   24.6866  -20.5975  -14.9839 N   0  0  0  0  0  0  0  0  0  0  0  0
   23.6039  -20.2151  -15.8157 C   0  0  1  0  0  0  0  0  0  0  0  0
   23.2933  -21.1508  -16.9405 C   0  0  0  0  0  0  0  0  0  0  0  0
   22.1706  -20.6974  -17.7910 C   0  0  0  0  0  0  0  0  0  0  0  0
   22.2764  -19.9049  -18.7387 O   0  0  0  0  0  0  0  0  0  0  0  0
   22.4376  -19.8741  -14.9937 C   0  0  0  0  0  0  0  0  0  0  0  0
   22.1781  -20.5762  -13.9868 O   0  0  0  0  0  0  0  0  0  0  0  0
   20.9102  -21.2016  -17.4990 O   0  0  0  0  0  0  0  0  0  0  0  0
   19.7970  -17.1950  -14.9790 C   0  0  0  0  0  0  0  0  0  0  0  0
   20.3778  -18.5088  -14.4628 C   0  0  2  0  0  0  0  0  0  0  0  0
   21.5593  -18.7836  -15.2577 N   0  0  0  0  0  0  0  0  0  0  0  0
   19.3760  -19.5971  -14.5623 C   0  0  0  0  0  0  0  0  0  0  0  0
   19.3992  -20.2964  -15.6079 O   0  0  0  0  0  0  0  0  0  0  0  0
   18.4385  -19.8890  -13.6046 O   0  0  0  0  0  0  0  0  0  0  0  0
  2  1  1  6
  3  2  1  0
  4  3  1  0
  5  6  1  0
  5  4  1  0
  7  6  1  0
  8  2  1  0
  8 10  1  0
  9  8  2  0
 11 10  1  0
 12 13  1  0
 11 12  1  6
 13 17  1  0
 14 13  2  0
 15 11  1  0
 15 20  1  0
 16 15  2  0
 19 18  1  6
 19 20  1  0
 19 21  1  0
 21 22  2  0
 21 23  1  0
M  END
$$$$
