KDA.pdb
     RDKit          3D

 23 22  0  0  1  0  0  0  0  0999 V2000
   16.1581  -11.0013  -17.1075 N   0  0  0  0  0  0  0  0  0  0  0  0
   17.1782  -10.6363  -16.1258 C   0  0  1  0  0  0  0  0  0  0  0  0
   18.2936  -11.6352  -16.3180 C   0  0  0  0  0  0  0  0  0  0  0  0
   17.9213  -13.0259  -15.9016 C   0  0  0  0  0  0  0  0  0  0  0  0
   19.0816  -13.9837  -16.0649 C   0  0  0  0  0  0  0  0  0  0  0  0
   18.5903  -15.3691  -15.6894 C   0  0  0  0  0  0  0  0  0  0  0  0
   19.6509  -16.3060  -15.9624 N   0  0  0  0  0  0  0  0  0  0  0  0
   17.7088   -9.2814  -16.4049 C   0  0  0  0  0  0  0  0  0  0  0  0
   18.1881   -8.9314  -17.5108 O   0  0  0  0  0  0  0  0  0  0  0  0
   17.7128   -8.2490  -15.4084 N   0  0  0  0  0  0  0  0  0  0  0  0
   18.2250   -6.9392  -15.5887 C   0  0  1  0  0  0  0  0  0  0  0  0
   17.2163   -5.8372  -15.5173 C   0  0  0  0  0  0  0  0  0  0  0  0
   17.7930   -4.4947  -15.7509 C   0  0  0  0  0  0  0  0  0  0  0  0
   18.8288   -4.2721  -16.3950 O   0  0  0  0  0  0  0  0  0  0  0  0
   19.3870   -6.7320  -14.7175 C   0  0  0  0  0  0  0  0  0  0  0  0
   19.2242   -6.7500  -13.4736 O   0  0  0  0  0  0  0  0  0  0  0  0
   17.1180   -3.4109  -15.2049 O   0  0  0  0  0  0  0  0  0  0  0  0
   23.0885   -6.2501  -15.1828 C   0  0  0  0  0  0  0  0  0  0  0  0
   21.8456   -6.3203  -14.2997 C   0  0  2  0  0  0  0  0  0  0  0  0
   20.7135   -6.5072  -15.1866 N   0  0  0  0  0  0  0  0  0  0  0  0
   21.7146   -5.0894  -13.4839 C   0  0  0  0  0  0  0  0  0  0  0  0
   22.4472   -5.0029  -12.4647 O   0  0  0  0  0  0  0  0  0  0  0  0
   20.8606   -4.0527  -13.7614 O   0  0  0  0  0  0  0  0  0  0  0  0
  2  1  1  6
  3  2  1  0
  4  3  1  0
  5  6  1  0
  5  4  1  0
  7  6  1  0
  8  2  1  0
  8 10  1  0
  9  8  2  0
 11 10  1  0
 12 13  1  0
 11 12  1  1
 13 17  1  0
 14 13  2  0
 15 11  1  0
 15 20  1  0
 16 15  2  0
 19 18  1  6
 19 20  1  0
 19 21  1  0
 21 22  2  0
 21 23  1  0
M  END
$$$$
