KDA.pdb
     RDKit          3D

 23 22  0  0  1  0  0  0  0  0999 V2000
   13.5478  -12.7371  -11.2449 N   0  0  0  0  0  0  0  0  0  0  0  0
   13.2363  -11.3205  -11.4285 C   0  0  1  0  0  0  0  0  0  0  0  0
   12.2774  -10.9744  -10.3151 C   0  0  0  0  0  0  0  0  0  0  0  0
   11.0294  -11.8041  -10.3292 C   0  0  0  0  0  0  0  0  0  0  0  0
   10.1341  -11.4802   -9.1529 C   0  0  0  0  0  0  0  0  0  0  0  0
    8.9339  -12.4058   -9.2202 C   0  0  0  0  0  0  0  0  0  0  0  0
    8.1119  -12.1527   -8.0637 N   0  0  0  0  0  0  0  0  0  0  0  0
   14.4559  -10.4941  -11.2708 C   0  0  0  0  0  0  0  0  0  0  0  0
   15.4559  -10.8435  -10.5978 O   0  0  0  0  0  0  0  0  0  0  0  0
   14.5839   -9.2062  -11.8901 N   0  0  0  0  0  0  0  0  0  0  0  0
   15.7221   -8.3653  -11.8027 C   0  0  1  0  0  0  0  0  0  0  0  0
   16.4760   -8.1661  -13.0791 C   0  0  0  0  0  0  0  0  0  0  0  0
   17.6562   -7.2854  -12.9348 C   0  0  0  0  0  0  0  0  0  0  0  0
   18.5304   -7.4110  -12.0646 O   0  0  0  0  0  0  0  0  0  0  0  0
   15.3682   -7.1129  -11.1257 C   0  0  0  0  0  0  0  0  0  0  0  0
   14.5429   -6.3406  -11.6700 O   0  0  0  0  0  0  0  0  0  0  0  0
   17.7858   -6.2448  -13.8451 O   0  0  0  0  0  0  0  0  0  0  0  0
   16.2023   -5.4479   -7.8581 C   0  0  0  0  0  0  0  0  0  0  0  0
   15.5550   -5.4397   -9.2404 C   0  0  2  0  0  0  0  0  0  0  0  0
   15.9019   -6.6987   -9.8711 N   0  0  0  0  0  0  0  0  0  0  0  0
   16.0240   -4.2756  -10.0295 C   0  0  0  0  0  0  0  0  0  0  0  0
   16.9737   -4.4774  -10.8296 O   0  0  0  0  0  0  0  0  0  0  0  0
   15.4998   -3.0108   -9.9473 O   0  0  0  0  0  0  0  0  0  0  0  0
  2  1  1  1
  3  2  1  0
  4  3  1  0
  5  6  1  0
  5  4  1  0
  7  6  1  0
  8  2  1  0
  8 10  1  0
  9  8  2  0
 11 10  1  0
 12 13  1  0
 11 12  1  6
 13 17  1  0
 14 13  2  0
 15 11  1  0
 15 20  1  0
 16 15  2  0
 19 18  1  1
 19 20  1  0
 19 21  1  0
 21 22  2  0
 21 23  1  0
M  END
$$$$
