KDA.pdb
     RDKit          3D

 23 22  0  0  1  0  0  0  0  0999 V2000
   14.5451  -12.5094  -11.4641 N   0  0  0  0  0  0  0  0  0  0  0  0
   14.0903  -11.1259  -11.5934 C   0  0  1  0  0  0  0  0  0  0  0  0
   13.1400  -10.9081  -10.4409 C   0  0  0  0  0  0  0  0  0  0  0  0
   11.8685  -11.6916  -10.5656 C   0  0  0  0  0  0  0  0  0  0  0  0
   11.0097  -11.5570   -9.3268 C   0  0  0  0  0  0  0  0  0  0  0  0
    9.7945  -12.4465   -9.5112 C   0  0  0  0  0  0  0  0  0  0  0  0
    9.0660  -12.4671   -8.2678 N   0  0  0  0  0  0  0  0  0  0  0  0
   15.2276  -10.1877  -11.4472 C   0  0  0  0  0  0  0  0  0  0  0  0
   16.1624  -10.3436  -10.6243 O   0  0  0  0  0  0  0  0  0  0  0  0
   15.3445   -9.0069  -12.2539 N   0  0  0  0  0  0  0  0  0  0  0  0
   16.4020   -8.0654  -12.1787 C   0  0  1  0  0  0  0  0  0  0  0  0
   17.1543   -7.8378  -13.4512 C   0  0  0  0  0  0  0  0  0  0  0  0
   18.2037   -6.8008  -13.3377 C   0  0  0  0  0  0  0  0  0  0  0  0
   18.0609   -5.6117  -13.6584 O   0  0  0  0  0  0  0  0  0  0  0  0
   15.9279   -6.8300  -11.5453 C   0  0  0  0  0  0  0  0  0  0  0  0
   15.0454   -6.1511  -12.1236 O   0  0  0  0  0  0  0  0  0  0  0  0
   19.4354   -7.1979  -12.8342 O   0  0  0  0  0  0  0  0  0  0  0  0
   16.2768   -5.2090   -8.1932 C   0  0  0  0  0  0  0  0  0  0  0  0
   15.8646   -5.1459   -9.6615 C   0  0  2  0  0  0  0  0  0  0  0  0
   16.4035   -6.3326  -10.2976 N   0  0  0  0  0  0  0  0  0  0  0  0
   16.3667   -3.9015  -10.2916 C   0  0  0  0  0  0  0  0  0  0  0  0
   15.8885   -2.8176   -9.8680 O   0  0  0  0  0  0  0  0  0  0  0  0
   17.3044   -3.8526  -11.2913 O   0  0  0  0  0  0  0  0  0  0  0  0
  2  1  1  1
  3  2  1  0
  4  3  1  0
  5  6  1  0
  5  4  1  0
  7  6  1  0
  8  2  1  0
  8 10  1  0
  9  8  2  0
 11 10  1  0
 12 13  1  0
 11 12  1  6
 13 17  1  0
 14 13  2  0
 15 11  1  0
 15 20  1  0
 16 15  2  0
 19 18  1  1
 19 20  1  0
 19 21  1  0
 21 22  2  0
 21 23  1  0
M  END
$$$$
