KDA.pdb
     RDKit          3D

 23 22  0  0  1  0  0  0  0  0999 V2000
   14.8558  -12.9216  -12.9717 N   0  0  0  0  0  0  0  0  0  0  0  0
   14.3915  -11.5577  -13.2200 C   0  0  1  0  0  0  0  0  0  0  0  0
   13.0045  -11.4935  -12.6274 C   0  0  0  0  0  0  0  0  0  0  0  0
   12.6064  -12.7501  -11.9144 C   0  0  0  0  0  0  0  0  0  0  0  0
   11.1544  -12.7111  -11.4895 C   0  0  0  0  0  0  0  0  0  0  0  0
   10.8455  -14.0206  -10.7883 C   0  0  0  0  0  0  0  0  0  0  0  0
    9.4858  -13.9609  -10.3143 N   0  0  0  0  0  0  0  0  0  0  0  0
   15.2493  -10.5783  -12.5129 C   0  0  0  0  0  0  0  0  0  0  0  0
   15.9654  -10.8621  -11.5219 O   0  0  0  0  0  0  0  0  0  0  0  0
   15.3247   -9.2044  -12.9194 N   0  0  0  0  0  0  0  0  0  0  0  0
   16.1748   -8.2260  -12.3445 C   0  0  1  0  0  0  0  0  0  0  0  0
   16.8957   -7.3469  -13.3165 C   0  0  0  0  0  0  0  0  0  0  0  0
   17.7945   -6.3659  -12.6691 C   0  0  0  0  0  0  0  0  0  0  0  0
   17.5253   -5.1686  -12.4929 O   0  0  0  0  0  0  0  0  0  0  0  0
   15.4534   -7.4859  -11.3033 C   0  0  0  0  0  0  0  0  0  0  0  0
   14.3273   -7.0024  -11.5716 O   0  0  0  0  0  0  0  0  0  0  0  0
   19.0277   -6.8293  -12.2301 O   0  0  0  0  0  0  0  0  0  0  0  0
   15.9076   -6.7871   -7.6442 C   0  0  0  0  0  0  0  0  0  0  0  0
   15.2114   -6.5267   -8.9774 C   0  0  2  0  0  0  0  0  0  0  0  0
   15.9450   -7.2702   -9.9835 N   0  0  0  0  0  0  0  0  0  0  0  0
   15.1784   -5.0746   -9.2741 C   0  0  0  0  0  0  0  0  0  0  0  0
   15.9316   -4.6659  -10.1953 O   0  0  0  0  0  0  0  0  0  0  0  0
   14.3931   -4.1590   -8.6212 O   0  0  0  0  0  0  0  0  0  0  0  0
  2  1  1  1
  3  2  1  0
  4  3  1  0
  5  6  1  0
  5  4  1  0
  7  6  1  0
  8  2  1  0
  8 10  1  0
  9  8  2  0
 11 10  1  0
 12 13  1  0
 11 12  1  6
 13 17  1  0
 14 13  2  0
 15 11  1  0
 15 20  1  0
 16 15  2  0
 19 18  1  1
 19 20  1  0
 19 21  1  0
 21 22  2  0
 21 23  1  0
M  END
$$$$
