TFK.pdb
     RDKit          3D

 28 28  0  0  1  0  0  0  0  0999 V2000
   20.8367  -11.5506  -21.7553 C   0  0  0  0  0  0  0  0  0  0  0  0
   20.5799  -10.8414  -20.4532 C   0  0  1  0  0  0  0  0  0  0  0  0
   19.3184  -10.2872  -20.3784 O   0  0  0  0  0  0  0  0  0  0  0  0
   20.8082  -11.6972  -19.2468 C   0  0  2  0  0  0  0  0  0  0  0  0
   19.9295  -12.8290  -19.1721 N   0  0  0  0  0  0  0  0  0  0  0  0
   20.5630  -10.8550  -18.0427 C   0  0  0  0  0  0  0  0  0  0  0  0
   19.4239  -10.9225  -17.5279 O   0  0  0  0  0  0  0  0  0  0  0  0
   21.5220  -10.0112  -17.4715 N   0  0  0  0  0  0  0  0  0  0  0  0
   21.3040   -9.2013  -16.2742 C   0  0  1  0  0  0  0  0  0  0  0  0
   22.5749   -9.0815  -15.4711 C   0  0  0  0  0  0  0  0  0  0  0  0
   22.4467   -8.2098  -14.2840 C   0  0  0  0  0  0  0  0  0  0  0  0
   22.0094   -8.6316  -13.0455 C   0  0  0  0  0  0  0  0  0  0  0  0
   21.9238   -7.7477  -11.9938 C   0  0  0  0  0  0  0  0  0  0  0  0
   22.2675   -6.4142  -12.1285 C   0  0  0  0  0  0  0  0  0  0  0  0
   22.7050   -5.9922  -13.3677 C   0  0  0  0  0  0  0  0  0  0  0  0
   22.7917   -6.8765  -14.4236 C   0  0  0  0  0  0  0  0  0  0  0  0
   20.6940   -7.8956  -16.6237 C   0  0  0  0  0  0  0  0  0  0  0  0
   21.1334   -7.2759  -17.6223 O   0  0  0  0  0  0  0  0  0  0  0  0
   19.6418   -7.3188  -15.8840 N   0  0  0  0  0  0  0  0  0  0  0  0
   19.0411   -6.0670  -16.3802 C   0  0  1  0  0  0  0  0  0  0  0  0
   17.6582   -6.3308  -16.8745 C   0  0  0  0  0  0  0  0  0  0  0  0
   17.0201   -5.0768  -17.3909 C   0  0  0  0  0  0  0  0  0  0  0  0
   15.6203   -5.3815  -17.9576 C   0  0  0  0  0  0  0  0  0  0  0  0
   15.1067   -4.0390  -18.4788 C   0  0  0  0  0  0  0  0  0  0  0  0
   13.8187   -4.1539  -19.0928 N   0  0  0  0  0  0  0  0  0  0  0  0
   19.0415   -5.0576  -15.3114 C   0  0  0  0  0  0  0  0  0  0  0  0
   18.6586   -5.4021  -14.1408 O   0  0  0  0  0  0  0  0  0  0  0  0
   19.4285   -3.7493  -15.4618 O   0  0  0  0  0  0  0  0  0  0  0  0
  2  1  1  6
  2  4  1  0
  3  2  1  0
  4  5  1  6
  4  6  1  0
  6  7  2  0
  8  6  1  0
  8  9  1  0
  9 10  1  6
 10 11  1  0
 11 12  2  0
 12 13  1  0
 14 13  2  0
 15 14  1  0
 16 11  1  0
 16 15  2  0
 17 19  1  0
 17  9  1  0
 18 17  2  0
 20 21  1  1
 20 19  1  0
 22 23  1  0
 22 21  1  0
 24 25  1  0
 24 23  1  0
 26 20  1  0
 26 28  1  0
 27 26  2  0
M  END
$$$$
