TFK.pdb
     RDKit          3D

 28 28  0  0  1  0  0  0  0  0999 V2000
   28.8021  -18.8077  -19.2994 C   0  0  0  0  0  0  0  0  0  0  0  0
   27.9740  -19.3249  -18.1543 C   0  0  1  0  0  0  0  0  0  0  0  0
   26.6170  -19.2640  -18.3970 O   0  0  0  0  0  0  0  0  0  0  0  0
   28.3315  -20.7160  -17.7336 C   0  0  2  0  0  0  0  0  0  0  0  0
   28.0725  -21.7042  -18.7411 N   0  0  0  0  0  0  0  0  0  0  0  0
   27.5012  -21.0555  -16.5442 C   0  0  0  0  0  0  0  0  0  0  0  0
   26.4672  -21.7303  -16.7504 O   0  0  0  0  0  0  0  0  0  0  0  0
   27.8134  -20.6660  -15.2370 N   0  0  0  0  0  0  0  0  0  0  0  0
   26.9333  -20.8536  -14.0848 C   0  0  1  0  0  0  0  0  0  0  0  0
   27.6608  -20.5440  -12.8005 C   0  0  0  0  0  0  0  0  0  0  0  0
   26.8148  -20.6686  -11.5945 C   0  0  0  0  0  0  0  0  0  0  0  0
   26.1912  -21.8312  -11.1915 C   0  0  0  0  0  0  0  0  0  0  0  0
   25.4221  -21.8550  -10.0502 C   0  0  0  0  0  0  0  0  0  0  0  0
   25.2417  -20.7296   -9.2657 C   0  0  0  0  0  0  0  0  0  0  0  0
   25.8657  -19.5663   -9.6690 C   0  0  0  0  0  0  0  0  0  0  0  0
   26.6372  -19.5401  -10.8128 C   0  0  0  0  0  0  0  0  0  0  0  0
   25.6720  -20.0925  -14.2543 C   0  0  0  0  0  0  0  0  0  0  0  0
   25.7397  -18.8857  -14.5909 O   0  0  0  0  0  0  0  0  0  0  0  0
   24.3992  -20.6643  -14.0541 N   0  0  0  0  0  0  0  0  0  0  0  0
   23.2197  -19.7806  -14.0988 C   0  0  1  0  0  0  0  0  0  0  0  0
   22.6873  -19.7175  -15.4912 C   0  0  0  0  0  0  0  0  0  0  0  0
   21.4237  -18.9139  -15.5512 C   0  0  0  0  0  0  0  0  0  0  0  0
   20.8798  -18.8763  -16.9921 C   0  0  0  0  0  0  0  0  0  0  0  0
   19.6536  -17.9655  -16.9256 C   0  0  0  0  0  0  0  0  0  0  0  0
   19.1087  -17.6962  -18.2215 N   0  0  0  0  0  0  0  0  0  0  0  0
   22.1987  -20.2665  -13.1593 C   0  0  0  0  0  0  0  0  0  0  0  0
   22.1477  -21.5180  -12.9007 O   0  0  0  0  0  0  0  0  0  0  0  0
   21.2766  -19.4773  -12.5184 O   0  0  0  0  0  0  0  0  0  0  0  0
  2  1  1  6
  2  4  1  0
  3  2  1  0
  4  5  1  6
  4  6  1  0
  6  7  2  0
  8  6  1  0
  8  9  1  0
  9 10  1  1
 10 11  1  0
 11 12  2  0
 12 13  1  0
 14 13  2  0
 15 14  1  0
 16 11  1  0
 16 15  2  0
 17 19  1  0
 17  9  1  0
 18 17  2  0
 20 21  1  6
 20 19  1  0
 22 23  1  0
 22 21  1  0
 24 25  1  0
 24 23  1  0
 26 20  1  0
 26 28  1  0
 27 26  2  0
M  END
$$$$
