TFK.pdb
     RDKit          3D

 28 28  0  0  1  0  0  0  0  0999 V2000
   28.7202  -21.1563  -19.3684 C   0  0  0  0  0  0  0  0  0  0  0  0
   27.8697  -21.4138  -18.1540 C   0  0  1  0  0  0  0  0  0  0  0  0
   26.7369  -22.1506  -18.4329 O   0  0  0  0  0  0  0  0  0  0  0  0
   28.6099  -22.0659  -17.0285 C   0  0  2  0  0  0  0  0  0  0  0  0
   29.0739  -23.3881  -17.3372 N   0  0  0  0  0  0  0  0  0  0  0  0
   27.6737  -22.1739  -15.8748 C   0  0  0  0  0  0  0  0  0  0  0  0
   27.2074  -23.3094  -15.6294 O   0  0  0  0  0  0  0  0  0  0  0  0
   27.2983  -21.0927  -15.0698 N   0  0  0  0  0  0  0  0  0  0  0  0
   26.4667  -21.2015  -13.8725 C   0  0  1  0  0  0  0  0  0  0  0  0
   26.8023  -20.1099  -12.8875 C   0  0  0  0  0  0  0  0  0  0  0  0
   26.0092  -20.1707  -11.6413 C   0  0  0  0  0  0  0  0  0  0  0  0
   24.7024  -19.7451  -11.5227 C   0  0  0  0  0  0  0  0  0  0  0  0
   24.0398  -19.8423  -10.3201 C   0  0  0  0  0  0  0  0  0  0  0  0
   24.6456  -20.3642   -9.1908 C   0  0  0  0  0  0  0  0  0  0  0  0
   25.9531  -20.7900   -9.3096 C   0  0  0  0  0  0  0  0  0  0  0  0
   26.6194  -20.6935  -10.5142 C   0  0  0  0  0  0  0  0  0  0  0  0
   25.0291  -21.2596  -14.2316 C   0  0  0  0  0  0  0  0  0  0  0  0
   24.5878  -20.4429  -15.0757 O   0  0  0  0  0  0  0  0  0  0  0  0
   24.1352  -22.1918  -13.6668 N   0  0  0  0  0  0  0  0  0  0  0  0
   22.7425  -22.2085  -14.1507 C   0  0  1  0  0  0  0  0  0  0  0  0
   22.2908  -23.6174  -14.3435 C   0  0  0  0  0  0  0  0  0  0  0  0
   23.0926  -24.3013  -15.4091 C   0  0  0  0  0  0  0  0  0  0  0  0
   22.6402  -25.7658  -15.5640 C   0  0  0  0  0  0  0  0  0  0  0  0
   23.4190  -26.2923  -16.7698 C   0  0  0  0  0  0  0  0  0  0  0  0
   23.0633  -27.6396  -17.0974 N   0  0  0  0  0  0  0  0  0  0  0  0
   21.8770  -21.4968  -13.1991 C   0  0  0  0  0  0  0  0  0  0  0  0
   20.6622  -21.2673  -13.5266 O   0  0  0  0  0  0  0  0  0  0  0  0
   22.2657  -21.0497  -11.9610 O   0  0  0  0  0  0  0  0  0  0  0  0
  2  1  1  6
  2  4  1  0
  3  2  1  0
  4  5  1  6
  4  6  1  0
  6  7  2  0
  8  6  1  0
  8  9  1  0
  9 10  1  1
 10 11  1  0
 11 12  2  0
 12 13  1  0
 14 13  2  0
 15 14  1  0
 16 11  1  0
 16 15  2  0
 17 19  1  0
 17  9  1  0
 18 17  2  0
 20 21  1  1
 20 19  1  0
 22 23  1  0
 22 21  1  0
 24 25  1  0
 24 23  1  0
 26 20  1  0
 26 28  1  0
 27 26  2  0
M  END
$$$$
