TFK.pdb
     RDKit          3D

 28 28  0  0  1  0  0  0  0  0999 V2000
   28.3341  -19.6397  -19.3178 C   0  0  0  0  0  0  0  0  0  0  0  0
   27.5438  -20.1164  -18.1292 C   0  0  1  0  0  0  0  0  0  0  0  0
   26.2559  -20.4926  -18.4512 O   0  0  0  0  0  0  0  0  0  0  0  0
   28.2024  -21.2295  -17.3762 C   0  0  2  0  0  0  0  0  0  0  0  0
   28.3134  -22.4451  -18.1305 N   0  0  0  0  0  0  0  0  0  0  0  0
   27.3688  -21.5178  -16.1756 C   0  0  0  0  0  0  0  0  0  0  0  0
   26.7385  -22.5994  -16.1713 O   0  0  0  0  0  0  0  0  0  0  0  0
   27.2582  -20.6582  -15.0771 N   0  0  0  0  0  0  0  0  0  0  0  0
   26.4013  -20.9022  -13.9180 C   0  0  1  0  0  0  0  0  0  0  0  0
   26.9010  -20.1430  -12.7145 C   0  0  0  0  0  0  0  0  0  0  0  0
   26.0383  -20.2861  -11.5225 C   0  0  0  0  0  0  0  0  0  0  0  0
   24.8645  -19.5912  -11.3168 C   0  0  0  0  0  0  0  0  0  0  0  0
   24.1225  -19.7908  -10.1748 C   0  0  0  0  0  0  0  0  0  0  0  0
   24.5144  -20.6851   -9.1943 C   0  0  0  0  0  0  0  0  0  0  0  0
   25.6889  -21.3802   -9.4002 C   0  0  0  0  0  0  0  0  0  0  0  0
   26.4344  -21.1818  -10.5443 C   0  0  0  0  0  0  0  0  0  0  0  0
   24.9804  -20.6326  -14.2457 C   0  0  0  0  0  0  0  0  0  0  0  0
   24.7010  -19.5988  -14.8996 O   0  0  0  0  0  0  0  0  0  0  0  0
   23.9287  -21.4860  -13.8553 N   0  0  0  0  0  0  0  0  0  0  0  0
   22.5453  -21.0781  -14.1618 C   0  0  1  0  0  0  0  0  0  0  0  0
   21.9664  -21.9879  -15.1930 C   0  0  0  0  0  0  0  0  0  0  0  0
   20.6178  -21.5105  -15.6395 C   0  0  0  0  0  0  0  0  0  0  0  0
   20.0673  -22.4227  -16.7524 C   0  0  0  0  0  0  0  0  0  0  0  0
   18.7645  -21.7576  -17.1972 C   0  0  0  0  0  0  0  0  0  0  0  0
   18.1879  -22.4048  -18.3364 N   0  0  0  0  0  0  0  0  0  0  0  0
   21.7405  -21.0861  -12.9317 C   0  0  0  0  0  0  0  0  0  0  0  0
   21.8344  -22.0881  -12.1425 O   0  0  0  0  0  0  0  0  0  0  0  0
   20.8801  -20.0889  -12.5451 O   0  0  0  0  0  0  0  0  0  0  0  0
  2  1  1  6
  2  4  1  0
  3  2  1  0
  4  5  1  6
  4  6  1  0
  6  7  2  0
  8  6  1  0
  8  9  1  0
  9 10  1  1
 10 11  1  0
 11 12  2  0
 12 13  1  0
 14 13  2  0
 15 14  1  0
 16 11  1  0
 16 15  2  0
 17 19  1  0
 17  9  1  0
 18 17  2  0
 20 21  1  6
 20 19  1  0
 22 23  1  0
 22 21  1  0
 24 25  1  0
 24 23  1  0
 26 20  1  0
 26 28  1  0
 27 26  2  0
M  END
$$$$
