TFK.pdb
     RDKit          3D

 28 28  0  0  1  0  0  0  0  0999 V2000
   28.7029  -19.4702  -12.6025 C   0  0  0  0  0  0  0  0  0  0  0  0
   29.6738  -20.5810  -12.3060 C   0  0  1  0  0  0  0  0  0  0  0  0
   30.8808  -20.4332  -12.9582 O   0  0  0  0  0  0  0  0  0  0  0  0
   29.9309  -20.7812  -10.8453 C   0  0  2  0  0  0  0  0  0  0  0  0
   30.8238  -21.8686  -10.5640 N   0  0  0  0  0  0  0  0  0  0  0  0
   28.6263  -21.0886  -10.1950 C   0  0  0  0  0  0  0  0  0  0  0  0
   28.2988  -22.2948  -10.1267 O   0  0  0  0  0  0  0  0  0  0  0  0
   27.7681  -20.1168   -9.6685 N   0  0  0  0  0  0  0  0  0  0  0  0
   26.4174  -20.3839   -9.1773 C   0  0  1  0  0  0  0  0  0  0  0  0
   26.0953  -19.5053   -7.9945 C   0  0  0  0  0  0  0  0  0  0  0  0
   26.9101  -19.8004   -6.7968 C   0  0  0  0  0  0  0  0  0  0  0  0
   26.8491  -20.9760   -6.0777 C   0  0  0  0  0  0  0  0  0  0  0  0
   27.6492  -21.1650   -4.9738 C   0  0  0  0  0  0  0  0  0  0  0  0
   28.5390  -20.1979   -4.5405 C   0  0  0  0  0  0  0  0  0  0  0  0
   28.5999  -19.0216   -5.2600 C   0  0  0  0  0  0  0  0  0  0  0  0
   27.7988  -18.8299   -6.3671 C   0  0  0  0  0  0  0  0  0  0  0  0
   25.4273  -20.2901  -10.2772 C   0  0  0  0  0  0  0  0  0  0  0  0
   25.0708  -19.1525  -10.6685 O   0  0  0  0  0  0  0  0  0  0  0  0
   24.8681  -21.4224  -10.9035 N   0  0  0  0  0  0  0  0  0  0  0  0
   24.0935  -21.2262  -12.1427 C   0  0  1  0  0  0  0  0  0  0  0  0
   24.2984  -22.3877  -13.0565 C   0  0  0  0  0  0  0  0  0  0  0  0
   23.1640  -23.3620  -12.9554 C   0  0  0  0  0  0  0  0  0  0  0  0
   23.4233  -24.5827  -13.8587 C   0  0  0  0  0  0  0  0  0  0  0  0
   22.1703  -25.4477  -13.7197 C   0  0  0  0  0  0  0  0  0  0  0  0
   21.1165  -25.0170  -14.5875 N   0  0  0  0  0  0  0  0  0  0  0  0
   22.6710  -21.0487  -11.8170 C   0  0  0  0  0  0  0  0  0  0  0  0
   21.8801  -20.6256  -12.7287 O   0  0  0  0  0  0  0  0  0  0  0  0
   22.1035  -21.3060  -10.5940 O   0  0  0  0  0  0  0  0  0  0  0  0
  2  1  1  1
  2  4  1  0
  3  2  1  0
  4  5  1  6
  4  6  1  0
  6  7  2  0
  8  6  1  0
  8  9  1  0
  9 10  1  1
 10 11  1  0
 11 12  2  0
 12 13  1  0
 14 13  2  0
 15 14  1  0
 16 11  1  0
 16 15  2  0
 17 19  1  0
 17  9  1  0
 18 17  2  0
 20 21  1  6
 20 19  1  0
 22 23  1  0
 22 21  1  0
 24 25  1  0
 24 23  1  0
 26 20  1  0
 26 28  1  0
 27 26  2  0
M  END
$$$$
