TFK.pdb
     RDKit          3D

 28 28  0  0  1  0  0  0  0  0999 V2000
   29.2302  -18.2805  -14.1741 C   0  0  0  0  0  0  0  0  0  0  0  0
   28.0708  -19.0800  -13.6441 C   0  0  1  0  0  0  0  0  0  0  0  0
   27.0131  -19.1505  -14.5276 O   0  0  0  0  0  0  0  0  0  0  0  0
   28.4410  -20.4656  -13.2163 C   0  0  2  0  0  0  0  0  0  0  0  0
   28.9303  -21.2851  -14.2876 N   0  0  0  0  0  0  0  0  0  0  0  0
   27.2138  -21.1145  -12.6757 C   0  0  0  0  0  0  0  0  0  0  0  0
   26.5813  -21.8642  -13.4534 O   0  0  0  0  0  0  0  0  0  0  0  0
   26.7440  -20.9312  -11.3705 N   0  0  0  0  0  0  0  0  0  0  0  0
   25.4951  -21.4890  -10.8543 C   0  0  1  0  0  0  0  0  0  0  0  0
   25.5689  -21.6716   -9.3591 C   0  0  0  0  0  0  0  0  0  0  0  0
   26.5871  -20.8209   -8.7069 C   0  0  0  0  0  0  0  0  0  0  0  0
   27.9253  -21.1396   -8.6042 C   0  0  0  0  0  0  0  0  0  0  0  0
   28.8040  -20.2834   -7.9801 C   0  0  0  0  0  0  0  0  0  0  0  0
   28.3911  -19.0807   -7.4346 C   0  0  0  0  0  0  0  0  0  0  0  0
   27.0521  -18.7620   -7.5373 C   0  0  0  0  0  0  0  0  0  0  0  0
   26.1694  -19.6187   -8.1626 C   0  0  0  0  0  0  0  0  0  0  0  0
   24.3328  -20.6833  -11.3003 C   0  0  0  0  0  0  0  0  0  0  0  0
   23.9901  -19.6920  -10.6118 O   0  0  0  0  0  0  0  0  0  0  0  0
   23.5950  -20.9813  -12.4638 N   0  0  0  0  0  0  0  0  0  0  0  0
   22.4608  -20.1078  -12.8167 C   0  0  1  0  0  0  0  0  0  0  0  0
   22.3311  -20.0218  -14.3006 C   0  0  0  0  0  0  0  0  0  0  0  0
   21.2254  -19.0896  -14.6937 C   0  0  0  0  0  0  0  0  0  0  0  0
   21.0659  -19.0625  -16.2258 C   0  0  0  0  0  0  0  0  0  0  0  0
   19.9992  -17.9998  -16.4911 C   0  0  0  0  0  0  0  0  0  0  0  0
   19.7679  -17.8027  -17.8899 N   0  0  0  0  0  0  0  0  0  0  0  0
   21.2278  -20.6217  -12.2029 C   0  0  0  0  0  0  0  0  0  0  0  0
   21.0826  -21.8866  -12.0821 O   0  0  0  0  0  0  0  0  0  0  0  0
   20.1968  -19.8459  -11.7344 O   0  0  0  0  0  0  0  0  0  0  0  0
  2  1  1  6
  2  4  1  0
  3  2  1  0
  4  5  1  6
  4  6  1  0
  6  7  2  0
  8  6  1  0
  8  9  1  0
  9 10  1  1
 10 11  1  0
 11 12  2  0
 12 13  1  0
 14 13  2  0
 15 14  1  0
 16 11  1  0
 16 15  2  0
 17 19  1  0
 17  9  1  0
 18 17  2  0
 20 21  1  6
 20 19  1  0
 22 23  1  0
 22 21  1  0
 24 25  1  0
 24 23  1  0
 26 20  1  0
 26 28  1  0
 27 26  2  0
M  END
$$$$
