WIE.pdb
     RDKit          3D

 32 33  0  0  1  0  0  0  0  0999 V2000
   23.6485  -20.2994   -9.2368 N   0  0  0  0  0  0  0  0  0  0  0  0
   23.4056  -21.3648   -8.3039 C   0  0  1  0  0  0  0  0  0  0  0  0
   24.1653  -21.1701   -7.0084 C   0  0  0  0  0  0  0  0  0  0  0  0
   25.5498  -20.6981   -7.2344 C   0  0  0  0  0  0  0  0  0  0  0  0
   26.1706  -20.3884   -8.4375 C   0  0  0  0  0  0  0  0  0  0  0  0
   27.4396  -20.0000   -8.2108 N   0  0  0  0  0  0  0  0  0  0  0  0
   27.6870  -20.0407   -6.8864 C   0  0  0  0  0  0  0  0  0  0  0  0
   28.8172  -19.7423   -6.1472 C   0  0  0  0  0  0  0  0  0  0  0  0
   28.7312  -19.8929   -4.7782 C   0  0  0  0  0  0  0  0  0  0  0  0
   27.5675  -20.3252   -4.1449 C   0  0  0  0  0  0  0  0  0  0  0  0
   26.4601  -20.6151   -4.8989 C   0  0  0  0  0  0  0  0  0  0  0  0
   26.5251  -20.4708   -6.2746 C   0  0  0  0  0  0  0  0  0  0  0  0
   21.9699  -21.3917   -7.9444 C   0  0  0  0  0  0  0  0  0  0  0  0
   21.2436  -20.4375   -8.3087 O   0  0  0  0  0  0  0  0  0  0  0  0
   19.7486  -22.8719  -11.1988 C   0  0  0  0  0  0  0  0  0  0  0  0
   19.9691  -22.2147   -9.8472 C   0  0  0  0  0  0  0  0  0  0  0  0
   19.8078  -23.2670   -8.7941 C   0  0  2  0  0  0  0  0  0  0  0  0
   18.5627  -24.0987   -8.9796 C   0  0  0  0  0  0  0  0  0  0  0  0
   19.9454  -22.7620   -7.3822 C   0  0  2  0  0  0  0  0  0  0  0  0
   21.3708  -22.4455   -7.2063 N   0  0  0  0  0  0  0  0  0  0  0  0
   19.5227  -23.7050   -6.3449 C   0  0  0  0  0  0  0  0  0  0  0  0
   20.2923  -24.6340   -6.0046 O   0  0  0  0  0  0  0  0  0  0  0  0
   18.2481  -23.5779   -5.7198 N   0  0  0  0  0  0  0  0  0  0  0  0
   17.9835  -24.4435   -4.5456 C   0  0  1  0  0  0  0  0  0  0  0  0
   17.0272  -23.7539   -3.6622 C   0  0  0  0  0  0  0  0  0  0  0  0
   15.5788  -24.0494   -3.7854 C   0  0  0  0  0  0  0  0  0  0  0  0
   14.6809  -23.3254   -2.8651 C   0  0  0  0  0  0  0  0  0  0  0  0
   15.1146  -22.4876   -2.0290 O   0  0  0  0  0  0  0  0  0  0  0  0
   17.7567  -25.8150   -4.9446 C   0  0  0  0  0  0  0  0  0  0  0  0
   17.3004  -26.0150   -6.1326 O   0  0  0  0  0  0  0  0  0  0  0  0
   13.3155  -23.5503   -2.9019 O   0  0  0  0  0  0  0  0  0  0  0  0
   17.9696  -26.9629   -4.2202 O   0  0  0  0  0  0  0  0  0  0  0  0
  2  1  1  6
  2  3  1  0
  3  4  1  0
  4  5  2  0
  6  5  1  0
  7  6  1  0
  8  7  2  0
  9  8  1  0
 10  9  2  0
 10 11  1  0
 11 12  2  0
 12  7  1  0
 12  4  1  0
 13 14  2  0
 13  2  1  0
 15 16  1  0
 16 17  1  0
 17 19  1  0
 17 18  1  1
 19 20  1  1
 19 21  1  0
 20 13  1  0
 21 23  1  0
 22 21  2  0
 23 24  1  0
 24 25  1  6
 24 29  1  0
 26 25  1  0
 27 26  1  0
 28 27  2  0
 29 30  2  0
 29 32  1  0
 31 27  1  0
M  END
$$$$
