WIE.pdb
     RDKit          3D

 32 33  0  0  1  0  0  0  0  0999 V2000
   27.0481  -20.7198  -14.8842 N   0  0  0  0  0  0  0  0  0  0  0  0
   27.0173  -19.9135  -13.6954 C   0  0  1  0  0  0  0  0  0  0  0  0
   26.2636  -18.6172  -13.9071 C   0  0  0  0  0  0  0  0  0  0  0  0
   26.8009  -17.8337  -15.0420 C   0  0  0  0  0  0  0  0  0  0  0  0
   26.1118  -17.0215  -15.9333 C   0  0  0  0  0  0  0  0  0  0  0  0
   26.9693  -16.4900  -16.8248 N   0  0  0  0  0  0  0  0  0  0  0  0
   28.2167  -16.9241  -16.5551 C   0  0  0  0  0  0  0  0  0  0  0  0
   29.4340  -16.6751  -17.1625 C   0  0  0  0  0  0  0  0  0  0  0  0
   30.5442  -17.2911  -16.6220 C   0  0  0  0  0  0  0  0  0  0  0  0
   30.4676  -18.1316  -15.5129 C   0  0  0  0  0  0  0  0  0  0  0  0
   29.2497  -18.3632  -14.9282 C   0  0  0  0  0  0  0  0  0  0  0  0
   28.1228  -17.7549  -15.4550 C   0  0  0  0  0  0  0  0  0  0  0  0
   26.3027  -20.6398  -12.6216 C   0  0  0  0  0  0  0  0  0  0  0  0
   25.7052  -21.7023  -12.9128 O   0  0  0  0  0  0  0  0  0  0  0  0
   27.7174  -20.0356   -7.3817 C   0  0  0  0  0  0  0  0  0  0  0  0
   27.3400  -20.6932   -8.6979 C   0  0  0  0  0  0  0  0  0  0  0  0
   25.8862  -20.4301   -8.9414 C   0  0  2  0  0  0  0  0  0  0  0  0
   25.0027  -20.9333   -7.8267 C   0  0  0  0  0  0  0  0  0  0  0  0
   25.3920  -20.8666  -10.2953 C   0  0  2  0  0  0  0  0  0  0  0  0
   26.2590  -20.1943  -11.2748 N   0  0  0  0  0  0  0  0  0  0  0  0
   23.9926  -20.5407  -10.5767 C   0  0  0  0  0  0  0  0  0  0  0  0
   23.6282  -19.3414  -10.5872 O   0  0  0  0  0  0  0  0  0  0  0  0
   23.0425  -21.5706  -10.8379 N   0  0  0  0  0  0  0  0  0  0  0  0
   21.6444  -21.1493  -11.0938 C   0  0  1  0  0  0  0  0  0  0  0  0
   21.3097  -21.4643  -12.4935 C   0  0  0  0  0  0  0  0  0  0  0  0
   19.9381  -21.1979  -12.9917 C   0  0  0  0  0  0  0  0  0  0  0  0
   19.6771  -21.5313  -14.4052 C   0  0  0  0  0  0  0  0  0  0  0  0
   18.5286  -21.4305  -14.9148 O   0  0  0  0  0  0  0  0  0  0  0  0
   20.7674  -21.5590  -10.0193 C   0  0  0  0  0  0  0  0  0  0  0  0
   21.2382  -22.3975   -9.1619 O   0  0  0  0  0  0  0  0  0  0  0  0
   20.7074  -21.9664  -15.2210 O   0  0  0  0  0  0  0  0  0  0  0  0
   19.4736  -21.1666   -9.7744 O   0  0  0  0  0  0  0  0  0  0  0  0
  2  1  1  6
  2  3  1  0
  3  4  1  0
  4  5  2  0
  6  5  1  0
  7  6  1  0
  8  7  2  0
  9  8  1  0
 10  9  2  0
 10 11  1  0
 11 12  2  0
 12  7  1  0
 12  4  1  0
 13 14  2  0
 13  2  1  0
 15 16  1  0
 16 17  1  0
 17 19  1  0
 17 18  1  1
 19 20  1  6
 19 21  1  0
 20 13  1  0
 21 23  1  0
 22 21  2  0
 23 24  1  0
 24 25  1  6
 24 29  1  0
 26 25  1  0
 27 26  1  0
 28 27  2  0
 29 30  2  0
 29 32  1  0
 31 27  1  0
M  END
$$$$
