WIE.pdb
     RDKit          3D

 32 33  0  0  1  0  0  0  0  0999 V2000
   27.9201  -21.3871   -9.4886 N   0  0  0  0  0  0  0  0  0  0  0  0
   26.5423  -21.0201   -9.6659 C   0  0  1  0  0  0  0  0  0  0  0  0
   26.1032  -19.9638   -8.6736 C   0  0  0  0  0  0  0  0  0  0  0  0
   26.3430  -20.3751   -7.2722 C   0  0  0  0  0  0  0  0  0  0  0  0
   25.6271  -21.2851   -6.5051 C   0  0  0  0  0  0  0  0  0  0  0  0
   26.1677  -21.3718   -5.2752 N   0  0  0  0  0  0  0  0  0  0  0  0
   27.2284  -20.5436   -5.1964 C   0  0  0  0  0  0  0  0  0  0  0  0
   28.1115  -20.2672   -4.1686 C   0  0  0  0  0  0  0  0  0  0  0  0
   29.1087  -19.3488   -4.4261 C   0  0  0  0  0  0  0  0  0  0  0  0
   29.2408  -18.7143   -5.6598 C   0  0  0  0  0  0  0  0  0  0  0  0
   28.3531  -19.0046   -6.6632 C   0  0  0  0  0  0  0  0  0  0  0  0
   27.3447  -19.9234   -6.4257 C   0  0  0  0  0  0  0  0  0  0  0  0
   26.3548  -20.4312  -11.0109 C   0  0  0  0  0  0  0  0  0  0  0  0
   26.6553  -19.2269  -11.1842 O   0  0  0  0  0  0  0  0  0  0  0  0
   29.1332  -21.7033  -14.6943 C   0  0  0  0  0  0  0  0  0  0  0  0
   28.1814  -21.0049  -13.7384 C   0  0  0  0  0  0  0  0  0  0  0  0
   26.7974  -21.1308  -14.2961 C   0  0  2  0  0  0  0  0  0  0  0  0
   26.6987  -20.6787  -15.7321 C   0  0  0  0  0  0  0  0  0  0  0  0
   25.7213  -20.5221  -13.4364 C   0  0  2  0  0  0  0  0  0  0  0  0
   25.8509  -21.1618  -12.1184 N   0  0  0  0  0  0  0  0  0  0  0  0
   24.3565  -20.7025  -13.9349 C   0  0  0  0  0  0  0  0  0  0  0  0
   23.8047  -21.8233  -13.8316 O   0  0  0  0  0  0  0  0  0  0  0  0
   23.6506  -19.6196  -14.5354 N   0  0  0  0  0  0  0  0  0  0  0  0
   22.2659  -19.8878  -14.9919 C   0  0  1  0  0  0  0  0  0  0  0  0
   21.3302  -19.2835  -14.0277 C   0  0  0  0  0  0  0  0  0  0  0  0
   19.8770  -19.2841  -14.3252 C   0  0  0  0  0  0  0  0  0  0  0  0
   19.0077  -18.5954  -13.3519 C   0  0  0  0  0  0  0  0  0  0  0  0
   17.7638  -18.4877  -13.5255 O   0  0  0  0  0  0  0  0  0  0  0  0
   22.1224  -19.6379  -16.4092 C   0  0  0  0  0  0  0  0  0  0  0  0
   22.9626  -18.8262  -16.9522 O   0  0  0  0  0  0  0  0  0  0  0  0
   19.5471  -18.0451  -12.2019 O   0  0  0  0  0  0  0  0  0  0  0  0
   21.1978  -20.1609  -17.2807 O   0  0  0  0  0  0  0  0  0  0  0  0
  2  1  1  1
  2  3  1  0
  3  4  1  0
  4  5  2  0
  6  5  1  0
  7  6  1  0
  8  7  2  0
  9  8  1  0
 10  9  2  0
 10 11  1  0
 11 12  2  0
 12  7  1  0
 12  4  1  0
 13 14  2  0
 13  2  1  0
 15 16  1  0
 16 17  1  0
 17 19  1  0
 17 18  1  6
 19 20  1  1
 19 21  1  0
 20 13  1  0
 21 23  1  0
 22 21  2  0
 23 24  1  0
 24 25  1  1
 24 29  1  0
 26 25  1  0
 27 26  1  0
 28 27  2  0
 29 30  2  0
 29 32  1  0
 31 27  1  0
M  END
$$$$
