WIE.pdb
     RDKit          3D

 32 33  0  0  1  0  0  0  0  0999 V2000
   28.3960  -20.2664  -10.6525 N   0  0  0  0  0  0  0  0  0  0  0  0
   27.2433  -20.9230  -10.1006 C   0  0  1  0  0  0  0  0  0  0  0  0
   26.9962  -20.5231   -8.6610 C   0  0  0  0  0  0  0  0  0  0  0  0
   28.2286  -20.5779   -7.8431 C   0  0  0  0  0  0  0  0  0  0  0  0
   29.4301  -21.2109   -8.1339 C   0  0  0  0  0  0  0  0  0  0  0  0
   30.3008  -21.0258   -7.1239 N   0  0  0  0  0  0  0  0  0  0  0  0
   29.7151  -20.2846   -6.1623 C   0  0  0  0  0  0  0  0  0  0  0  0
   30.1743  -19.8229   -4.9422 C   0  0  0  0  0  0  0  0  0  0  0  0
   29.2993  -19.0718   -4.1842 C   0  0  0  0  0  0  0  0  0  0  0  0
   28.0047  -18.7779   -4.6081 C   0  0  0  0  0  0  0  0  0  0  0  0
   27.5722  -19.2469   -5.8213 C   0  0  0  0  0  0  0  0  0  0  0  0
   28.4344  -20.0028   -6.5977 C   0  0  0  0  0  0  0  0  0  0  0  0
   26.0352  -20.5235  -10.8568 C   0  0  0  0  0  0  0  0  0  0  0  0
   25.6319  -19.3408  -10.7593 O   0  0  0  0  0  0  0  0  0  0  0  0
   26.6808  -21.0934  -15.7038 C   0  0  0  0  0  0  0  0  0  0  0  0
   26.2392  -20.6139  -14.3317 C   0  0  0  0  0  0  0  0  0  0  0  0
   24.9188  -21.2508  -14.0266 C   0  0  2  0  0  0  0  0  0  0  0  0
   23.9090  -21.0700  -15.1329 C   0  0  0  0  0  0  0  0  0  0  0  0
   24.3509  -20.8931  -12.6786 C   0  0  2  0  0  0  0  0  0  0  0  0
   25.3072  -21.4128  -11.6895 N   0  0  0  0  0  0  0  0  0  0  0  0
   23.0199  -21.4381  -12.4046 C   0  0  0  0  0  0  0  0  0  0  0  0
   22.8937  -22.6582  -12.1466 O   0  0  0  0  0  0  0  0  0  0  0  0
   21.8689  -20.5978  -12.4284 N   0  0  0  0  0  0  0  0  0  0  0  0
   20.5534  -21.2500  -12.2242 C   0  0  1  0  0  0  0  0  0  0  0  0
   19.5969  -20.2352  -11.7489 C   0  0  0  0  0  0  0  0  0  0  0  0
   18.1807  -20.6169  -11.5274 C   0  0  0  0  0  0  0  0  0  0  0  0
   17.1724  -19.8835  -12.3164 C   0  0  0  0  0  0  0  0  0  0  0  0
   17.3129  -19.6739  -13.5515 O   0  0  0  0  0  0  0  0  0  0  0  0
   20.2167  -22.1125  -13.3353 C   0  0  0  0  0  0  0  0  0  0  0  0
   20.6468  -21.7679  -14.4998 O   0  0  0  0  0  0  0  0  0  0  0  0
   16.0251  -19.4032  -11.7085 O   0  0  0  0  0  0  0  0  0  0  0  0
   19.4903  -23.2787  -13.3233 O   0  0  0  0  0  0  0  0  0  0  0  0
  2  1  1  6
  2  3  1  0
  3  4  1  0
  4  5  2  0
  6  5  1  0
  7  6  1  0
  8  7  2  0
  9  8  1  0
 10  9  2  0
 10 11  1  0
 11 12  2  0
 12  7  1  0
 12  4  1  0
 13 14  2  0
 13  2  1  0
 15 16  1  0
 16 17  1  0
 17 19  1  0
 17 18  1  6
 19 20  1  1
 19 21  1  0
 20 13  1  0
 21 23  1  0
 22 21  2  0
 23 24  1  0
 24 25  1  6
 24 29  1  0
 26 25  1  0
 27 26  1  0
 28 27  2  0
 29 30  2  0
 29 32  1  0
 31 27  1  0
M  END
$$$$
