WIE.pdb
     RDKit          3D

 32 33  0  0  1  0  0  0  0  0999 V2000
   28.2323  -20.7692   -9.3284 N   0  0  0  0  0  0  0  0  0  0  0  0
   26.8707  -21.2213   -9.2509 C   0  0  1  0  0  0  0  0  0  0  0  0
   26.1593  -20.6763   -8.0301 C   0  0  0  0  0  0  0  0  0  0  0  0
   27.0439  -19.8350   -7.1933 C   0  0  0  0  0  0  0  0  0  0  0  0
   27.4443  -18.5227   -7.4091 C   0  0  0  0  0  0  0  0  0  0  0  0
   28.2567  -18.1226   -6.4129 N   0  0  0  0  0  0  0  0  0  0  0  0
   28.4122  -19.1323   -5.5334 C   0  0  0  0  0  0  0  0  0  0  0  0
   29.1337  -19.2317   -4.3578 C   0  0  0  0  0  0  0  0  0  0  0  0
   29.0746  -20.4341   -3.6833 C   0  0  0  0  0  0  0  0  0  0  0  0
   28.3274  -21.5155   -4.1463 C   0  0  0  0  0  0  0  0  0  0  0  0
   27.6205  -21.3929   -5.3144 C   0  0  0  0  0  0  0  0  0  0  0  0
   27.6663  -20.1947   -6.0070 C   0  0  0  0  0  0  0  0  0  0  0  0
   26.1169  -20.7295  -10.4260 C   0  0  0  0  0  0  0  0  0  0  0  0
   26.0182  -19.4920  -10.5987 O   0  0  0  0  0  0  0  0  0  0  0  0
   27.9136  -21.3151  -14.8145 C   0  0  0  0  0  0  0  0  0  0  0  0
   27.1335  -20.8522  -13.5961 C   0  0  0  0  0  0  0  0  0  0  0  0
   25.7345  -21.3704  -13.7236 C   0  0  2  0  0  0  0  0  0  0  0  0
   25.0987  -21.0275  -15.0482 C   0  0  0  0  0  0  0  0  0  0  0  0
   24.8372  -21.0344  -12.5618 C   0  0  2  0  0  0  0  0  0  0  0  0
   25.4981  -21.5889  -11.3708 N   0  0  0  0  0  0  0  0  0  0  0  0
   23.4766  -21.5668  -12.6580 C   0  0  0  0  0  0  0  0  0  0  0  0
   23.2857  -22.7993  -12.5321 O   0  0  0  0  0  0  0  0  0  0  0  0
   22.3696  -20.7003  -12.8930 N   0  0  0  0  0  0  0  0  0  0  0  0
   21.0373  -21.3334  -13.0418 C   0  0  1  0  0  0  0  0  0  0  0  0
   20.2279  -21.0040  -11.8557 C   0  0  0  0  0  0  0  0  0  0  0  0
   18.8029  -21.4137  -11.8102 C   0  0  0  0  0  0  0  0  0  0  0  0
   18.5311  -22.7948  -11.3673 C   0  0  0  0  0  0  0  0  0  0  0  0
   18.7729  -23.1795  -10.1914 O   0  0  0  0  0  0  0  0  0  0  0  0
   20.5061  -21.1327  -14.3719 C   0  0  0  0  0  0  0  0  0  0  0  0
   20.9332  -20.1100  -15.0286 O   0  0  0  0  0  0  0  0  0  0  0  0
   17.9903  -23.7161  -12.2476 O   0  0  0  0  0  0  0  0  0  0  0  0
   19.5923  -21.9003  -15.0528 O   0  0  0  0  0  0  0  0  0  0  0  0
  2  1  1  6
  2  3  1  0
  3  4  1  0
  4  5  2  0
  6  5  1  0
  7  6  1  0
  8  7  2  0
  9  8  1  0
 10  9  2  0
 10 11  1  0
 11 12  2  0
 12  7  1  0
 12  4  1  0
 13 14  2  0
 13  2  1  0
 15 16  1  0
 16 17  1  0
 17 19  1  0
 17 18  1  6
 19 20  1  1
 19 21  1  0
 20 13  1  0
 21 23  1  0
 22 21  2  0
 23 24  1  0
 24 25  1  1
 24 29  1  0
 26 25  1  0
 27 26  1  0
 28 27  2  0
 29 30  2  0
 29 32  1  0
 31 27  1  0
M  END
$$$$
