WIE.pdb
     RDKit          3D

 32 33  0  0  1  0  0  0  0  0999 V2000
   28.2872  -20.9616  -15.4992 N   0  0  0  0  0  0  0  0  0  0  0  0
   27.3420  -20.1178  -14.8218 C   0  0  1  0  0  0  0  0  0  0  0  0
   26.3257  -19.5236  -15.7744 C   0  0  0  0  0  0  0  0  0  0  0  0
   26.9242  -18.5150  -16.6771 C   0  0  0  0  0  0  0  0  0  0  0  0
   27.1932  -18.6236  -18.0354 C   0  0  0  0  0  0  0  0  0  0  0  0
   27.7458  -17.4812  -18.4851 N   0  0  0  0  0  0  0  0  0  0  0  0
   27.8546  -16.6080  -17.4639 C   0  0  0  0  0  0  0  0  0  0  0  0
   28.3461  -15.3169  -17.3996 C   0  0  0  0  0  0  0  0  0  0  0  0
   28.3087  -14.6901  -16.1708 C   0  0  0  0  0  0  0  0  0  0  0  0
   27.8025  -15.3101  -15.0300 C   0  0  0  0  0  0  0  0  0  0  0  0
   27.3210  -16.5904  -15.1187 C   0  0  0  0  0  0  0  0  0  0  0  0
   27.3494  -17.2377  -16.3425 C   0  0  0  0  0  0  0  0  0  0  0  0
   26.5749  -20.9191  -13.8416 C   0  0  0  0  0  0  0  0  0  0  0  0
   26.1967  -22.0673  -14.1723 O   0  0  0  0  0  0  0  0  0  0  0  0
   27.1559  -20.7615   -8.4522 C   0  0  0  0  0  0  0  0  0  0  0  0
   26.9190  -21.2968   -9.8538 C   0  0  0  0  0  0  0  0  0  0  0  0
   25.5661  -20.8341  -10.2987 C   0  0  2  0  0  0  0  0  0  0  0  0
   24.4631  -21.2511   -9.3574 C   0  0  0  0  0  0  0  0  0  0  0  0
   25.2377  -21.1560  -11.7326 C   0  0  2  0  0  0  0  0  0  0  0  0
   26.2445  -20.4534  -12.5423 N   0  0  0  0  0  0  0  0  0  0  0  0
   23.8972  -20.7553  -12.1642 C   0  0  0  0  0  0  0  0  0  0  0  0
   23.6513  -19.5434  -12.3693 O   0  0  0  0  0  0  0  0  0  0  0  0
   22.8713  -21.7267  -12.3530 N   0  0  0  0  0  0  0  0  0  0  0  0
   21.5670  -21.2397  -12.8624 C   0  0  1  0  0  0  0  0  0  0  0  0
   21.1759  -22.0696  -14.0151 C   0  0  0  0  0  0  0  0  0  0  0  0
   19.8235  -21.9079  -14.6030 C   0  0  0  0  0  0  0  0  0  0  0  0
   19.4975  -22.7793  -15.7483 C   0  0  0  0  0  0  0  0  0  0  0  0
   19.5305  -22.3612  -16.9371 O   0  0  0  0  0  0  0  0  0  0  0  0
   20.6370  -21.0004  -11.7810 C   0  0  0  0  0  0  0  0  0  0  0  0
   20.7816  -21.7060  -10.7128 O   0  0  0  0  0  0  0  0  0  0  0  0
   19.1454  -24.1019  -15.5406 O   0  0  0  0  0  0  0  0  0  0  0  0
   19.5995  -20.1012  -11.7283 O   0  0  0  0  0  0  0  0  0  0  0  0
  2  1  1  6
  2  3  1  0
  3  4  1  0
  4  5  2  0
  6  5  1  0
  7  6  1  0
  8  7  2  0
  9  8  1  0
 10  9  2  0
 10 11  1  0
 11 12  2  0
 12  7  1  0
 12  4  1  0
 13 14  2  0
 13  2  1  0
 15 16  1  0
 16 17  1  0
 17 19  1  0
 17 18  1  1
 19 20  1  6
 19 21  1  0
 20 13  1  0
 21 23  1  0
 22 21  2  0
 23 24  1  0
 24 25  1  6
 24 29  1  0
 26 25  1  0
 27 26  1  0
 28 27  2  0
 29 30  2  0
 29 32  1  0
 31 27  1  0
M  END
$$$$
