FEH.pdb
     RDKit          3D

 31 32  0  0  1  0  0  0  0  0999 V2000
   23.0761  -11.2099  -15.8709 N   0  0  0  0  0  0  0  0  0  0  0  0
   22.2160  -10.4390  -16.7484 C   0  0  1  0  0  0  0  0  0  0  0  0
   21.2437  -11.3746  -17.4873 C   0  0  0  0  0  0  0  0  0  0  0  0
   21.9236  -12.2467  -18.4491 C   0  0  0  0  0  0  0  0  0  0  0  0
   22.1190  -13.5710  -18.1651 C   0  0  0  0  0  0  0  0  0  0  0  0
   22.7636  -14.3913  -19.0762 C   0  0  0  0  0  0  0  0  0  0  0  0
   23.1973  -13.8502  -20.2586 C   0  0  0  0  0  0  0  0  0  0  0  0
   23.0039  -12.5202  -20.5499 C   0  0  0  0  0  0  0  0  0  0  0  0
   22.3613  -11.7212  -19.6317 C   0  0  0  0  0  0  0  0  0  0  0  0
   21.3334   -9.5582  -15.9307 C   0  0  0  0  0  0  0  0  0  0  0  0
   20.8203  -10.0493  -14.8937 O   0  0  0  0  0  0  0  0  0  0  0  0
   21.0519   -8.2043  -16.2721 N   0  0  0  0  0  0  0  0  0  0  0  0
   20.1767   -7.3891  -15.4831 C   0  0  1  0  0  0  0  0  0  0  0  0
   20.7528   -6.0733  -15.0466 C   0  0  0  0  0  0  0  0  0  0  0  0
   22.0394   -6.1090  -14.3142 C   0  0  0  0  0  0  0  0  0  0  0  0
   22.4426   -4.7712  -13.8762 C   0  0  0  0  0  0  0  0  0  0  0  0
   23.1903   -4.0961  -14.6289 O   0  0  0  0  0  0  0  0  0  0  0  0
   18.8231   -7.2022  -16.0515 C   0  0  0  0  0  0  0  0  0  0  0  0
   18.6943   -6.9752  -17.2906 O   0  0  0  0  0  0  0  0  0  0  0  0
   22.0295   -4.2295  -12.6677 O   0  0  0  0  0  0  0  0  0  0  0  0
   17.6272   -7.2570  -15.2864 N   0  0  0  0  0  0  0  0  0  0  0  0
   16.3317   -7.0741  -15.9514 C   0  0  1  0  0  0  0  0  0  0  0  0
   15.2473   -7.8305  -15.2735 C   0  0  0  0  0  0  0  0  0  0  0  0
   15.3993   -9.2741  -15.5153 C   0  0  0  0  0  0  0  0  0  0  0  0
   16.3229   -9.9344  -16.2910 C   0  0  0  0  0  0  0  0  0  0  0  0
   16.1027  -11.2553  -16.2754 N   0  0  0  0  0  0  0  0  0  0  0  0
   15.0327  -11.4640  -15.4889 C   0  0  0  0  0  0  0  0  0  0  0  0
   14.6051  -10.2736  -15.0285 N   0  0  0  0  0  0  0  0  0  0  0  0
   16.0574   -5.6314  -15.9306 C   0  0  0  0  0  0  0  0  0  0  0  0
   16.4962   -4.8986  -15.0184 O   0  0  0  0  0  0  0  0  0  0  0  0
   15.3034   -5.0046  -16.9118 O   0  0  0  0  0  0  0  0  0  0  0  0
  2  1  1  1
  2  3  1  0
  2 10  1  0
  3  4  1  0
  4  9  1  0
  4  5  2  0
  5  6  1  0
  6  7  2  0
  8  7  1  0
  9  8  2  0
 10 11  2  0
 12 13  1  0
 12 10  1  0
 14 15  1  0
 13 14  1  6
 16 20  1  0
 16 15  1  0
 17 16  2  0
 18 13  1  0
 18 21  1  0
 19 18  2  0
 22 21  1  0
 22 23  1  1
 24 23  1  0
 25 24  2  0
 26 25  1  0
 27 26  1  0
 27 28  2  0
 28 24  1  0
 29 22  1  0
 30 29  2  0
 31 29  1  0
M  END
$$$$
