FEH.pdb
     RDKit          3D

 31 32  0  0  1  0  0  0  0  0999 V2000
   28.4382  -20.8411  -16.6569 N   0  0  0  0  0  0  0  0  0  0  0  0
   27.9295  -19.9395  -15.6409 C   0  0  1  0  0  0  0  0  0  0  0  0
   27.0612  -18.8490  -16.2919 C   0  0  0  0  0  0  0  0  0  0  0  0
   27.8556  -17.8643  -17.0315 C   0  0  0  0  0  0  0  0  0  0  0  0
   28.0499  -18.0029  -18.3791 C   0  0  0  0  0  0  0  0  0  0  0  0
   28.8028  -17.0708  -19.0740 C   0  0  0  0  0  0  0  0  0  0  0  0
   29.3438  -16.0156  -18.3863 C   0  0  0  0  0  0  0  0  0  0  0  0
   29.1520  -15.8707  -17.0322 C   0  0  0  0  0  0  0  0  0  0  0  0
   28.4009  -16.8074  -16.3594 C   0  0  0  0  0  0  0  0  0  0  0  0
   26.9905  -20.6766  -14.7475 C   0  0  0  0  0  0  0  0  0  0  0  0
   26.2920  -21.5868  -15.2608 O   0  0  0  0  0  0  0  0  0  0  0  0
   26.8544  -20.3952  -13.3578 N   0  0  0  0  0  0  0  0  0  0  0  0
   25.8269  -20.9949  -12.5593 C   0  0  1  0  0  0  0  0  0  0  0  0
   26.0610  -20.9448  -11.0773 C   0  0  0  0  0  0  0  0  0  0  0  0
   25.0691  -21.6251  -10.2135 C   0  0  0  0  0  0  0  0  0  0  0  0
   24.0580  -20.6880   -9.7198 C   0  0  0  0  0  0  0  0  0  0  0  0
   22.8481  -21.0239   -9.7879 O   0  0  0  0  0  0  0  0  0  0  0  0
   24.4521  -20.5539  -12.8847 C   0  0  0  0  0  0  0  0  0  0  0  0
   24.1604  -19.3236  -12.8161 O   0  0  0  0  0  0  0  0  0  0  0  0
   24.3897  -19.4522   -9.1838 O   0  0  0  0  0  0  0  0  0  0  0  0
   23.4082  -21.4352  -13.2752 N   0  0  0  0  0  0  0  0  0  0  0  0
   22.1238  -20.8844  -13.7235 C   0  0  1  0  0  0  0  0  0  0  0  0
   21.7719  -21.3393  -15.0935 C   0  0  0  0  0  0  0  0  0  0  0  0
   20.5146  -20.7149  -15.5349 C   0  0  0  0  0  0  0  0  0  0  0  0
   20.0372  -19.4494  -15.2874 C   0  0  0  0  0  0  0  0  0  0  0  0
   18.8306  -19.2771  -15.8423 N   0  0  0  0  0  0  0  0  0  0  0  0
   18.5137  -20.4309  -16.4550 C   0  0  0  0  0  0  0  0  0  0  0  0
   19.5249  -21.3005  -16.2727 N   0  0  0  0  0  0  0  0  0  0  0  0
   21.1205  -21.3310  -12.7483 C   0  0  0  0  0  0  0  0  0  0  0  0
   20.3062  -20.5313  -12.2396 O   0  0  0  0  0  0  0  0  0  0  0  0
   21.0195  -22.6526  -12.3393 O   0  0  0  0  0  0  0  0  0  0  0  0
  2  1  1  6
  2  3  1  0
  2 10  1  0
  3  4  1  0
  4  9  1  0
  4  5  2  0
  5  6  1  0
  6  7  2  0
  8  7  1  0
  9  8  2  0
 10 11  2  0
 12 13  1  0
 12 10  1  0
 14 15  1  0
 13 14  1  1
 16 20  1  0
 16 15  1  0
 17 16  2  0
 18 13  1  0
 18 21  1  0
 19 18  2  0
 22 21  1  0
 22 23  1  6
 24 23  1  0
 25 24  2  0
 26 25  1  0
 27 26  1  0
 27 28  2  0
 28 24  1  0
 29 22  1  0
 30 29  2  0
 31 29  1  0
M  END
$$$$
