FEH.pdb
     RDKit          3D

 31 32  0  0  1  0  0  0  0  0999 V2000
   20.4310  -15.1757  -19.1735 N   0  0  0  0  0  0  0  0  0  0  0  0
   20.6812  -15.0318  -17.7520 C   0  0  1  0  0  0  0  0  0  0  0  0
   19.6384  -14.0892  -17.1268 C   0  0  0  0  0  0  0  0  0  0  0  0
   19.7121  -12.7297  -17.6690 C   0  0  0  0  0  0  0  0  0  0  0  0
   20.7869  -11.9301  -17.3891 C   0  0  0  0  0  0  0  0  0  0  0  0
   20.8518  -10.6452  -17.9021 C   0  0  0  0  0  0  0  0  0  0  0  0
   19.8233  -10.1972  -18.6898 C   0  0  0  0  0  0  0  0  0  0  0  0
   18.7406  -10.9959  -18.9748 C   0  0  0  0  0  0  0  0  0  0  0  0
   18.6944  -12.2697  -18.4556 C   0  0  0  0  0  0  0  0  0  0  0  0
   20.4533  -16.3394  -17.0726 C   0  0  0  0  0  0  0  0  0  0  0  0
   19.3718  -16.9359  -17.3055 O   0  0  0  0  0  0  0  0  0  0  0  0
   21.3964  -16.9304  -16.1836 N   0  0  0  0  0  0  0  0  0  0  0  0
   21.1666  -18.2055  -15.5718 C   0  0  1  0  0  0  0  0  0  0  0  0
   22.4055  -18.9492  -15.1644 C   0  0  0  0  0  0  0  0  0  0  0  0
   23.7040  -18.3922  -15.6077 C   0  0  0  0  0  0  0  0  0  0  0  0
   24.8267  -19.1812  -15.0966 C   0  0  0  0  0  0  0  0  0  0  0  0
   25.9949  -18.8047  -15.3699 O   0  0  0  0  0  0  0  0  0  0  0  0
   20.1790  -18.1953  -14.4696 C   0  0  0  0  0  0  0  0  0  0  0  0
   19.8368  -17.0922  -13.9506 O   0  0  0  0  0  0  0  0  0  0  0  0
   24.6440  -20.3208  -14.3270 O   0  0  0  0  0  0  0  0  0  0  0  0
   19.5743  -19.3651  -13.9359 N   0  0  0  0  0  0  0  0  0  0  0  0
   18.1376  -19.3665  -13.6361 C   0  0  1  0  0  0  0  0  0  0  0  0
   17.4285  -18.2470  -14.3081 C   0  0  0  0  0  0  0  0  0  0  0  0
   15.9783  -18.3466  -14.0793 C   0  0  0  0  0  0  0  0  0  0  0  0
   15.2723  -19.2837  -13.3621 C   0  0  0  0  0  0  0  0  0  0  0  0
   13.9569  -19.0403  -13.4233 N   0  0  0  0  0  0  0  0  0  0  0  0
   13.7973  -17.9421  -14.1819 C   0  0  0  0  0  0  0  0  0  0  0  0
   15.0121  -17.5203  -14.5797 N   0  0  0  0  0  0  0  0  0  0  0  0
   17.6222  -20.6637  -14.0930 C   0  0  0  0  0  0  0  0  0  0  0  0
   16.3980  -20.9144  -14.0926 O   0  0  0  0  0  0  0  0  0  0  0  0
   18.4555  -21.6756  -14.5469 O   0  0  0  0  0  0  0  0  0  0  0  0
  2  1  1  6
  2  3  1  0
  2 10  1  0
  3  4  1  0
  4  9  1  0
  4  5  2  0
  5  6  1  0
  6  7  2  0
  8  7  1  0
  9  8  2  0
 10 11  2  0
 12 13  1  0
 12 10  1  0
 14 15  1  0
 13 14  1  1
 16 20  1  0
 16 15  1  0
 17 16  2  0
 18 13  1  0
 18 21  1  0
 19 18  2  0
 22 21  1  0
 22 23  1  6
 24 23  1  0
 25 24  2  0
 26 25  1  0
 27 26  1  0
 27 28  2  0
 28 24  1  0
 29 22  1  0
 30 29  2  0
 31 29  1  0
M  END
$$$$
