FEH.pdb
     RDKit          3D

 31 32  0  0  1  0  0  0  0  0999 V2000
   35.1740  -23.0290    7.5929 N   0  0  0  0  0  0  0  0  0  0  0  0
   33.8079  -22.6426    7.8904 C   0  0  1  0  0  0  0  0  0  0  0  0
   32.9714  -22.6301    6.5993 C   0  0  0  0  0  0  0  0  0  0  0  0
   32.9070  -21.3018    5.9835 C   0  0  0  0  0  0  0  0  0  0  0  0
   32.2774  -20.2706    6.6262 C   0  0  0  0  0  0  0  0  0  0  0  0
   32.2172  -19.0172    6.0399 C   0  0  0  0  0  0  0  0  0  0  0  0
   32.7981  -18.8355    4.8116 C   0  0  0  0  0  0  0  0  0  0  0  0
   33.4323  -19.8677    4.1608 C   0  0  0  0  0  0  0  0  0  0  0  0
   33.4814  -21.1059    4.7597 C   0  0  0  0  0  0  0  0  0  0  0  0
   33.1681  -23.6908    8.7362 C   0  0  0  0  0  0  0  0  0  0  0  0
   33.4927  -24.8867    8.5263 O   0  0  0  0  0  0  0  0  0  0  0  0
   32.2182  -23.3965    9.7561 N   0  0  0  0  0  0  0  0  0  0  0  0
   31.5534  -24.4288   10.4945 C   0  0  1  0  0  0  0  0  0  0  0  0
   30.9554  -23.9935   11.8009 C   0  0  0  0  0  0  0  0  0  0  0  0
   31.8942  -23.5810   12.8693 C   0  0  0  0  0  0  0  0  0  0  0  0
   32.2776  -24.7157   13.7116 C   0  0  0  0  0  0  0  0  0  0  0  0
   33.3788  -25.2804   13.4883 O   0  0  0  0  0  0  0  0  0  0  0  0
   30.5770  -25.2198    9.7125 C   0  0  0  0  0  0  0  0  0  0  0  0
   29.6761  -24.6213    9.0541 O   0  0  0  0  0  0  0  0  0  0  0  0
   31.4717  -25.1834   14.7393 O   0  0  0  0  0  0  0  0  0  0  0  0
   30.5758  -26.6392    9.6489 N   0  0  0  0  0  0  0  0  0  0  0  0
   29.5875  -27.3267    8.8095 C   0  0  1  0  0  0  0  0  0  0  0  0
   30.1432  -28.5590    8.1928 C   0  0  0  0  0  0  0  0  0  0  0  0
   29.1171  -29.2363    7.3842 C   0  0  0  0  0  0  0  0  0  0  0  0
   28.0501  -28.6987    6.7036 C   0  0  0  0  0  0  0  0  0  0  0  0
   27.3273  -29.6592    6.1132 N   0  0  0  0  0  0  0  0  0  0  0  0
   27.9193  -30.8300    6.4063 C   0  0  0  0  0  0  0  0  0  0  0  0
   28.9980  -30.5807    7.1719 N   0  0  0  0  0  0  0  0  0  0  0  0
   28.4521  -27.6443    9.6854 C   0  0  0  0  0  0  0  0  0  0  0  0
   28.6239  -27.9946   10.8725 O   0  0  0  0  0  0  0  0  0  0  0  0
   27.1367  -27.5746    9.2506 O   0  0  0  0  0  0  0  0  0  0  0  0
  2  1  1  6
  2  3  1  0
  2 10  1  0
  3  4  1  0
  4  9  1  0
  4  5  2  0
  5  6  1  0
  6  7  2  0
  8  7  1  0
  9  8  2  0
 10 11  2  0
 12 13  1  0
 12 10  1  0
 14 15  1  0
 13 14  1  1
 16 20  1  0
 16 15  1  0
 17 16  2  0
 18 13  1  0
 18 21  1  0
 19 18  2  0
 22 21  1  0
 22 23  1  1
 24 23  1  0
 25 24  2  0
 26 25  1  0
 27 26  1  0
 27 28  2  0
 28 24  1  0
 29 22  1  0
 30 29  2  0
 31 29  1  0
M  END
$$$$
