FEH.pdb
     RDKit          3D

 31 32  0  0  1  0  0  0  0  0999 V2000
   19.9040  -13.9426  -15.5822 N   0  0  0  0  0  0  0  0  0  0  0  0
   19.5314  -12.8672  -16.4815 C   0  0  1  0  0  0  0  0  0  0  0  0
   18.0053  -12.8472  -16.6742 C   0  0  0  0  0  0  0  0  0  0  0  0
   17.5206  -13.9940  -17.4473 C   0  0  0  0  0  0  0  0  0  0  0  0
   17.0134  -15.0938  -16.8101 C   0  0  0  0  0  0  0  0  0  0  0  0
   16.5581  -16.1763  -17.5445 C   0  0  0  0  0  0  0  0  0  0  0  0
   16.6268  -16.1205  -18.9124 C   0  0  0  0  0  0  0  0  0  0  0  0
   17.1353  -15.0182  -19.5585 C   0  0  0  0  0  0  0  0  0  0  0  0
   17.5829  -13.9526  -18.8113 C   0  0  0  0  0  0  0  0  0  0  0  0
   19.8416  -11.5558  -15.8433 C   0  0  0  0  0  0  0  0  0  0  0  0
   19.5302  -11.4083  -14.6345 O   0  0  0  0  0  0  0  0  0  0  0  0
   20.4662  -10.4799  -16.5370 N   0  0  0  0  0  0  0  0  0  0  0  0
   20.8316   -9.2619  -15.8769 C   0  0  1  0  0  0  0  0  0  0  0  0
   22.2755   -8.8731  -16.0107 C   0  0  0  0  0  0  0  0  0  0  0  0
   23.2852   -9.8670  -15.5800 C   0  0  0  0  0  0  0  0  0  0  0  0
   24.6437   -9.4195  -15.8934 C   0  0  0  0  0  0  0  0  0  0  0  0
   24.7962   -8.2726  -16.3860 O   0  0  0  0  0  0  0  0  0  0  0  0
   19.9522   -8.1086  -16.1720 C   0  0  0  0  0  0  0  0  0  0  0  0
   19.5794   -7.8992  -17.3639 O   0  0  0  0  0  0  0  0  0  0  0  0
   25.7582  -10.2137  -15.6662 O   0  0  0  0  0  0  0  0  0  0  0  0
   19.4871   -7.1940  -15.1892 N   0  0  0  0  0  0  0  0  0  0  0  0
   18.6249   -6.0758  -15.5894 C   0  0  1  0  0  0  0  0  0  0  0  0
   17.3874   -6.0073  -14.7698 C   0  0  0  0  0  0  0  0  0  0  0  0
   16.4602   -7.0855  -15.1484 C   0  0  0  0  0  0  0  0  0  0  0  0
   16.1405   -7.5597  -16.3989 C   0  0  0  0  0  0  0  0  0  0  0  0
   15.2240   -8.5330  -16.3206 N   0  0  0  0  0  0  0  0  0  0  0  0
   14.9402   -8.6989  -15.0171 C   0  0  0  0  0  0  0  0  0  0  0  0
   15.6823   -7.8291  -14.3067 N   0  0  0  0  0  0  0  0  0  0  0  0
   19.4288   -4.8572  -15.4289 C   0  0  0  0  0  0  0  0  0  0  0  0
   20.6060   -4.9042  -15.0123 O   0  0  0  0  0  0  0  0  0  0  0  0
   18.9335   -3.5963  -15.7272 O   0  0  0  0  0  0  0  0  0  0  0  0
  2  1  1  1
  2  3  1  0
  2 10  1  0
  3  4  1  0
  4  9  1  0
  4  5  2  0
  5  6  1  0
  6  7  2  0
  8  7  1  0
  9  8  2  0
 10 11  2  0
 12 13  1  0
 12 10  1  0
 14 15  1  0
 13 14  1  6
 16 20  1  0
 16 15  1  0
 17 16  2  0
 18 13  1  0
 18 21  1  0
 19 18  2  0
 22 21  1  0
 22 23  1  1
 24 23  1  0
 25 24  2  0
 26 25  1  0
 27 26  1  0
 27 28  2  0
 28 24  1  0
 29 22  1  0
 30 29  2  0
 31 29  1  0
M  END
$$$$
