FEH.pdb
     RDKit          3D

 31 32  0  0  1  0  0  0  0  0999 V2000
   24.0587  -33.8715   -4.6409 N   0  0  0  0  0  0  0  0  0  0  0  0
   25.3670  -33.7585   -4.0247 C   0  0  1  0  0  0  0  0  0  0  0  0
   26.0488  -32.4542   -4.4725 C   0  0  0  0  0  0  0  0  0  0  0  0
   26.2479  -32.3926   -5.9231 C   0  0  0  0  0  0  0  0  0  0  0  0
   27.3728  -32.9267   -6.4908 C   0  0  0  0  0  0  0  0  0  0  0  0
   27.5578  -32.8648   -7.8621 C   0  0  0  0  0  0  0  0  0  0  0  0
   26.5962  -32.2614   -8.6304 C   0  0  0  0  0  0  0  0  0  0  0  0
   25.4636  -31.7229   -8.0659 C   0  0  0  0  0  0  0  0  0  0  0  0
   25.2980  -31.7943   -6.7014 C   0  0  0  0  0  0  0  0  0  0  0  0
   25.2101  -33.6072   -2.5496 C   0  0  0  0  0  0  0  0  0  0  0  0
   24.0424  -33.5071   -2.0955 O   0  0  0  0  0  0  0  0  0  0  0  0
   26.3126  -33.5713   -1.6484 N   0  0  0  0  0  0  0  0  0  0  0  0
   26.3659  -34.4010   -0.4815 C   0  0  1  0  0  0  0  0  0  0  0  0
   26.0302  -35.8461   -0.7114 C   0  0  0  0  0  0  0  0  0  0  0  0
   25.9518  -36.7194    0.4819 C   0  0  0  0  0  0  0  0  0  0  0  0
   24.5855  -36.7908    1.0035 C   0  0  0  0  0  0  0  0  0  0  0  0
   23.6689  -37.1660    0.2286 O   0  0  0  0  0  0  0  0  0  0  0  0
   27.6083  -34.2749    0.3128 C   0  0  0  0  0  0  0  0  0  0  0  0
   28.4604  -35.2112    0.2884 O   0  0  0  0  0  0  0  0  0  0  0  0
   24.2727  -36.4605    2.3141 O   0  0  0  0  0  0  0  0  0  0  0  0
   27.9199  -33.1511    1.1245 N   0  0  0  0  0  0  0  0  0  0  0  0
   28.2079  -33.3440    2.5506 C   0  0  1  0  0  0  0  0  0  0  0  0
   26.9670  -33.5107    3.3506 C   0  0  0  0  0  0  0  0  0  0  0  0
   26.2993  -32.2129    3.5391 C   0  0  0  0  0  0  0  0  0  0  0  0
   25.6849  -31.4068    2.6099 C   0  0  0  0  0  0  0  0  0  0  0  0
   25.2249  -30.2857    3.1800 N   0  0  0  0  0  0  0  0  0  0  0  0
   25.5375  -30.3542    4.4856 C   0  0  0  0  0  0  0  0  0  0  0  0
   26.1850  -31.5134    4.7072 N   0  0  0  0  0  0  0  0  0  0  0  0
   29.0558  -34.5398    2.6421 C   0  0  0  0  0  0  0  0  0  0  0  0
   29.1534  -35.1886    3.7055 O   0  0  0  0  0  0  0  0  0  0  0  0
   29.7900  -35.0136    1.5648 O   0  0  0  0  0  0  0  0  0  0  0  0
  2  1  1  6
  2  3  1  0
  2 10  1  0
  3  4  1  0
  4  9  1  0
  4  5  2  0
  5  6  1  0
  6  7  2  0
  8  7  1  0
  9  8  2  0
 10 11  2  0
 12 13  1  0
 12 10  1  0
 14 15  1  0
 13 14  1  6
 16 20  1  0
 16 15  1  0
 17 16  2  0
 18 13  1  0
 18 21  1  0
 19 18  2  0
 22 21  1  0
 22 23  1  1
 24 23  1  0
 25 24  2  0
 26 25  1  0
 27 26  1  0
 27 28  2  0
 28 24  1  0
 29 22  1  0
 30 29  2  0
 31 29  1  0
M  END
$$$$
