FEH.pdb
     RDKit          3D

 31 32  0  0  1  0  0  0  0  0999 V2000
   23.3005  -33.2651  -10.0624 N   0  0  0  0  0  0  0  0  0  0  0  0
   23.8373  -32.5764   -8.9041 C   0  0  1  0  0  0  0  0  0  0  0  0
   22.7367  -31.7351   -8.2351 C   0  0  0  0  0  0  0  0  0  0  0  0
   22.3719  -30.5557   -9.0248 C   0  0  0  0  0  0  0  0  0  0  0  0
   23.2366  -29.5005   -9.1332 C   0  0  0  0  0  0  0  0  0  0  0  0
   22.8871  -28.3870   -9.8791 C   0  0  0  0  0  0  0  0  0  0  0  0
   21.6655  -28.3669  -10.5007 C   0  0  0  0  0  0  0  0  0  0  0  0
   20.7922  -29.4241  -10.3957 C   0  0  0  0  0  0  0  0  0  0  0  0
   21.1577  -30.5216   -9.6499 C   0  0  0  0  0  0  0  0  0  0  0  0
   24.2223  -33.5756   -7.8663 C   0  0  0  0  0  0  0  0  0  0  0  0
   23.7227  -34.7257   -7.9516 O   0  0  0  0  0  0  0  0  0  0  0  0
   25.1187  -33.2839   -6.7985 N   0  0  0  0  0  0  0  0  0  0  0  0
   25.5045  -34.2759   -5.8394 C   0  0  1  0  0  0  0  0  0  0  0  0
   26.7010  -33.9231   -5.0040 C   0  0  0  0  0  0  0  0  0  0  0  0
   27.2750  -34.9955   -4.1594 C   0  0  0  0  0  0  0  0  0  0  0  0
   28.5199  -34.5644   -3.5204 C   0  0  0  0  0  0  0  0  0  0  0  0
   28.6782  -33.3390   -3.2864 O   0  0  0  0  0  0  0  0  0  0  0  0
   24.4029  -34.7756   -4.9866 C   0  0  0  0  0  0  0  0  0  0  0  0
   23.5887  -33.9514   -4.4755 O   0  0  0  0  0  0  0  0  0  0  0  0
   29.5215  -35.4571   -3.1679 O   0  0  0  0  0  0  0  0  0  0  0  0
   24.1900  -36.1486   -4.6898 N   0  0  0  0  0  0  0  0  0  0  0  0
   23.0605  -36.5399   -3.8383 C   0  0  1  0  0  0  0  0  0  0  0  0
   22.7472  -37.9871   -3.9610 C   0  0  0  0  0  0  0  0  0  0  0  0
   21.5234  -38.3130   -3.2116 C   0  0  0  0  0  0  0  0  0  0  0  0
   20.2922  -37.7016   -3.2467 C   0  0  0  0  0  0  0  0  0  0  0  0
   19.4465  -38.2811   -2.3850 N   0  0  0  0  0  0  0  0  0  0  0  0
   20.1223  -39.2745   -1.7821 C   0  0  0  0  0  0  0  0  0  0  0  0
   21.3741  -39.2979   -2.2765 N   0  0  0  0  0  0  0  0  0  0  0  0
   23.4448  -36.2009   -2.4619 C   0  0  0  0  0  0  0  0  0  0  0  0
   24.6373  -36.2406   -2.0906 O   0  0  0  0  0  0  0  0  0  0  0  0
   22.5163  -35.8209   -1.5039 O   0  0  0  0  0  0  0  0  0  0  0  0
  2  1  1  6
  2  3  1  0
  2 10  1  0
  3  4  1  0
  4  9  1  0
  4  5  2  0
  5  6  1  0
  6  7  2  0
  8  7  1  0
  9  8  2  0
 10 11  2  0
 12 13  1  0
 12 10  1  0
 14 15  1  0
 13 14  1  1
 16 20  1  0
 16 15  1  0
 17 16  2  0
 18 13  1  0
 18 21  1  0
 19 18  2  0
 22 21  1  0
 22 23  1  1
 24 23  1  0
 25 24  2  0
 26 25  1  0
 27 26  1  0
 27 28  2  0
 28 24  1  0
 29 22  1  0
 30 29  2  0
 31 29  1  0
M  END
$$$$
