FEH.pdb
     RDKit          3D

 31 32  0  0  1  0  0  0  0  0999 V2000
   26.0523  -22.0308  -14.7903 N   0  0  0  0  0  0  0  0  0  0  0  0
   25.0730  -21.3883  -15.6459 C   0  0  1  0  0  0  0  0  0  0  0  0
   24.7296  -22.3044  -16.8332 C   0  0  0  0  0  0  0  0  0  0  0  0
   25.8194  -22.3930  -17.8090 C   0  0  0  0  0  0  0  0  0  0  0  0
   26.0190  -21.3887  -18.7170 C   0  0  0  0  0  0  0  0  0  0  0  0
   27.0491  -21.4773  -19.6387 C   0  0  0  0  0  0  0  0  0  0  0  0
   27.8568  -22.5848  -19.6201 C   0  0  0  0  0  0  0  0  0  0  0  0
   27.6614  -23.5972  -18.7101 C   0  0  0  0  0  0  0  0  0  0  0  0
   26.6324  -23.4908  -17.8023 C   0  0  0  0  0  0  0  0  0  0  0  0
   23.7865  -21.2425  -14.9062 C   0  0  0  0  0  0  0  0  0  0  0  0
   23.4994  -22.1244  -14.0579 O   0  0  0  0  0  0  0  0  0  0  0  0
   22.8834  -20.1617  -15.1190 N   0  0  0  0  0  0  0  0  0  0  0  0
   21.7139  -19.9800  -14.3115 C   0  0  1  0  0  0  0  0  0  0  0  0
   21.1490  -18.5890  -14.3123 C   0  0  0  0  0  0  0  0  0  0  0  0
   19.9625  -18.3415  -13.4615 C   0  0  0  0  0  0  0  0  0  0  0  0
   19.5291  -16.9451  -13.5415 C   0  0  0  0  0  0  0  0  0  0  0  0
   20.1955  -16.1526  -14.2551 O   0  0  0  0  0  0  0  0  0  0  0  0
   20.6436  -20.9770  -14.5370 C   0  0  0  0  0  0  0  0  0  0  0  0
   20.3294  -21.2957  -15.7215 O   0  0  0  0  0  0  0  0  0  0  0  0
   18.4164  -16.4728  -12.8610 O   0  0  0  0  0  0  0  0  0  0  0  0
   19.9225  -21.6161  -13.4929 N   0  0  0  0  0  0  0  0  0  0  0  0
   18.9702  -22.6846  -13.8177 C   0  0  1  0  0  0  0  0  0  0  0  0
   19.0609  -23.8191  -12.8626 C   0  0  0  0  0  0  0  0  0  0  0  0
   20.3250  -24.5488  -13.0504 C   0  0  0  0  0  0  0  0  0  0  0  0
   21.3205  -24.3417  -13.9761 C   0  0  0  0  0  0  0  0  0  0  0  0
   22.2981  -25.2463  -13.8364 N   0  0  0  0  0  0  0  0  0  0  0  0
   21.9450  -26.0496  -12.8180 C   0  0  0  0  0  0  0  0  0  0  0  0
   20.7569  -25.6337  -12.3411 N   0  0  0  0  0  0  0  0  0  0  0  0
   17.6355  -22.0728  -13.7807 C   0  0  0  0  0  0  0  0  0  0  0  0
   17.4741  -20.8832  -13.4338 O   0  0  0  0  0  0  0  0  0  0  0  0
   16.4882  -22.7724  -14.1249 O   0  0  0  0  0  0  0  0  0  0  0  0
  2  1  1  1
  2  3  1  0
  2 10  1  0
  3  4  1  0
  4  9  1  0
  4  5  2  0
  5  6  1  0
  6  7  2  0
  8  7  1  0
  9  8  2  0
 10 11  2  0
 12 13  1  0
 12 10  1  0
 14 15  1  0
 13 14  1  6
 16 20  1  0
 16 15  1  0
 17 16  2  0
 18 13  1  0
 18 21  1  0
 19 18  2  0
 22 21  1  0
 22 23  1  1
 24 23  1  0
 25 24  2  0
 26 25  1  0
 27 26  1  0
 27 28  2  0
 28 24  1  0
 29 22  1  0
 30 29  2  0
 31 29  1  0
M  END
$$$$
