FEH.pdb
     RDKit          3D

 31 32  0  0  1  0  0  0  0  0999 V2000
   25.5180  -11.0888  -18.3350 N   0  0  0  0  0  0  0  0  0  0  0  0
   25.1530  -10.4381  -17.0910 C   0  0  1  0  0  0  0  0  0  0  0  0
   26.2884   -9.5078  -16.6308 C   0  0  0  0  0  0  0  0  0  0  0  0
   27.5359  -10.2304  -16.3670 C   0  0  0  0  0  0  0  0  0  0  0  0
   28.6871   -9.8860  -17.0219 C   0  0  0  0  0  0  0  0  0  0  0  0
   29.8635  -10.5728  -16.7710 C   0  0  0  0  0  0  0  0  0  0  0  0
   29.8477  -11.5963  -15.8592 C   0  0  0  0  0  0  0  0  0  0  0  0
   28.6940  -11.9470  -15.1979 C   0  0  0  0  0  0  0  0  0  0  0  0
   27.5351  -11.2527  -15.4610 C   0  0  0  0  0  0  0  0  0  0  0  0
   23.9986   -9.5246  -17.3283 C   0  0  0  0  0  0  0  0  0  0  0  0
   23.8300   -9.0904  -18.4957 O   0  0  0  0  0  0  0  0  0  0  0  0
   23.0937   -9.1296  -16.3016 N   0  0  0  0  0  0  0  0  0  0  0  0
   21.9073   -8.3776  -16.5841 C   0  0  1  0  0  0  0  0  0  0  0  0
   20.7811   -8.5750  -15.6111 C   0  0  0  0  0  0  0  0  0  0  0  0
   19.5031   -7.8889  -15.9090 C   0  0  0  0  0  0  0  0  0  0  0  0
   18.5139   -8.1193  -14.8542 C   0  0  0  0  0  0  0  0  0  0  0  0
   18.3212   -9.2989  -14.4632 O   0  0  0  0  0  0  0  0  0  0  0  0
   22.1317   -6.9365  -16.8355 C   0  0  0  0  0  0  0  0  0  0  0  0
   22.8309   -6.2641  -16.0215 O   0  0  0  0  0  0  0  0  0  0  0  0
   17.7890   -7.0867  -14.2776 O   0  0  0  0  0  0  0  0  0  0  0  0
   21.6024   -6.2344  -17.9516 N   0  0  0  0  0  0  0  0  0  0  0  0
   21.8368   -4.7911  -18.0781 C   0  0  1  0  0  0  0  0  0  0  0  0
   21.5867   -4.3065  -19.4602 C   0  0  0  0  0  0  0  0  0  0  0  0
   21.9558   -2.8871  -19.5814 C   0  0  0  0  0  0  0  0  0  0  0  0
   23.2041   -2.3111  -19.6051 C   0  0  0  0  0  0  0  0  0  0  0  0
   23.1133   -0.9780  -19.6951 N   0  0  0  0  0  0  0  0  0  0  0  0
   21.8037   -0.6768  -19.7302 C   0  0  0  0  0  0  0  0  0  0  0  0
   21.1020   -1.8235  -19.6619 N   0  0  0  0  0  0  0  0  0  0  0  0
   20.9311   -4.1408  -17.1221 C   0  0  0  0  0  0  0  0  0  0  0  0
   21.3672   -3.4186  -16.2003 O   0  0  0  0  0  0  0  0  0  0  0  0
   19.5533   -4.2887  -17.1859 O   0  0  0  0  0  0  0  0  0  0  0  0
  2  1  1  6
  2  3  1  0
  2 10  1  0
  3  4  1  0
  4  9  1  0
  4  5  2  0
  5  6  1  0
  6  7  2  0
  8  7  1  0
  9  8  2  0
 10 11  2  0
 12 13  1  0
 12 10  1  0
 14 15  1  0
 13 14  1  1
 16 20  1  0
 16 15  1  0
 17 16  2  0
 18 13  1  0
 18 21  1  0
 19 18  2  0
 22 21  1  0
 22 23  1  6
 24 23  1  0
 25 24  2  0
 26 25  1  0
 27 26  1  0
 27 28  2  0
 28 24  1  0
 29 22  1  0
 30 29  2  0
 31 29  1  0
M  END
$$$$
