NLF.pdb
     RDKit          3D

 28 28  0  0  1  0  0  0  0  0999 V2000
    9.5599  -20.2825   17.6686 N   0  0  0  0  0  0  0  0  0  0  0  0
   10.3841  -19.8989   18.7485 C   0  0  0  0  0  0  0  0  0  0  0  0
   11.1498  -20.7484   19.2814 O   0  0  0  0  0  0  0  0  0  0  0  0
   10.3278  -18.4981   19.2341 C   0  0  0  0  0  0  0  0  0  0  0  0
   10.0232  -18.4673   20.7390 C   0  0  2  0  0  0  0  0  0  0  0  0
    8.7075  -18.9963   20.9373 N   0  0  0  0  0  0  0  0  0  0  0  0
   10.1524  -17.0475   21.1573 C   0  0  0  0  0  0  0  0  0  0  0  0
   11.2376  -16.4083   21.0102 O   0  0  0  0  0  0  0  0  0  0  0  0
    6.1032  -13.7171   20.0692 C   0  0  0  0  0  0  0  0  0  0  0  0
    7.4536  -14.2112   20.4149 C   0  0  1  0  0  0  0  0  0  0  0  0
    8.4754  -13.2686   19.7772 C   0  0  0  0  0  0  0  0  0  0  0  0
    7.8021  -14.4218   21.8280 C   0  0  0  0  0  0  0  0  0  0  0  0
    9.1116  -14.9846   22.2135 C   0  0  2  0  0  0  0  0  0  0  0  0
    9.0561  -16.3980   21.7260 N   0  0  0  0  0  0  0  0  0  0  0  0
    9.4502  -15.0456   23.6422 C   0  0  0  0  0  0  0  0  0  0  0  0
   10.1462  -14.2095   24.2531 O   0  0  0  0  0  0  0  0  0  0  0  0
    8.9766  -16.1341   24.4775 N   0  0  0  0  0  0  0  0  0  0  0  0
    9.2946  -16.1818   25.8893 C   0  0  1  0  0  0  0  0  0  0  0  0
    8.0103  -15.8305   26.6262 C   0  0  0  0  0  0  0  0  0  0  0  0
    7.7485  -14.3724   26.6581 C   0  0  0  0  0  0  0  0  0  0  0  0
    6.5318  -13.9020   26.2485 C   0  0  0  0  0  0  0  0  0  0  0  0
    6.3211  -12.5240   26.2946 C   0  0  0  0  0  0  0  0  0  0  0  0
    7.3212  -11.6771   26.7430 C   0  0  0  0  0  0  0  0  0  0  0  0
    8.5402  -12.1815   27.1509 C   0  0  0  0  0  0  0  0  0  0  0  0
    8.7715  -13.5461   27.1138 C   0  0  0  0  0  0  0  0  0  0  0  0
    9.8070  -17.5185   26.2148 C   0  0  0  0  0  0  0  0  0  0  0  0
   10.0416  -18.4623   25.2327 O   0  0  0  0  0  0  0  0  0  0  0  0
   10.0392  -17.8258   27.4046 O   0  0  0  0  0  0  0  0  0  0  0  0
  2  1  1  0
  2  3  2  0
  4  2  1  0
  5  4  1  0
  5  6  1  6
  7  8  2  0
  7  5  1  0
 10  9  1  1
 10 12  1  0
 11 10  1  0
 13 12  1  1
 13 14  1  0
 14  7  1  0
 15 17  1  0
 15 13  1  0
 16 15  2  0
 18 17  1  0
 18 26  1  0
 18 19  1  1
 20 19  1  0
 20 25  2  0
 21 20  1  0
 22 23  1  0
 22 21  2  0
 23 24  2  0
 24 25  1  0
 26 27  1  0
 28 26  2  0
M  END
$$$$
