NLF.pdb
     RDKit          3D

 28 28  0  0  1  0  0  0  0  0999 V2000
    9.6899  -20.6940   19.1589 N   0  0  0  0  0  0  0  0  0  0  0  0
    9.6731  -19.5819   18.2896 C   0  0  0  0  0  0  0  0  0  0  0  0
    9.7841  -19.7606   17.0457 O   0  0  0  0  0  0  0  0  0  0  0  0
    9.5264  -18.2220   18.8644 C   0  0  0  0  0  0  0  0  0  0  0  0
    9.4651  -18.2946   20.3972 C   0  0  2  0  0  0  0  0  0  0  0  0
    8.1377  -18.6792   20.7714 N   0  0  0  0  0  0  0  0  0  0  0  0
    9.8444  -16.9452   20.8898 C   0  0  0  0  0  0  0  0  0  0  0  0
   11.0159  -16.4860   20.7319 O   0  0  0  0  0  0  0  0  0  0  0  0
    6.4464  -12.9782   20.0103 C   0  0  0  0  0  0  0  0  0  0  0  0
    7.7075  -13.6795   20.3346 C   0  0  1  0  0  0  0  0  0  0  0  0
    8.8606  -12.8710   19.7382 C   0  0  0  0  0  0  0  0  0  0  0  0
    8.0122  -13.9988   21.7375 C   0  0  0  0  0  0  0  0  0  0  0  0
    9.1967  -14.8045   22.0949 C   0  0  2  0  0  0  0  0  0  0  0  0
    8.8923  -16.1612   21.5424 N   0  0  0  0  0  0  0  0  0  0  0  0
    9.5086  -14.9907   23.5189 C   0  0  0  0  0  0  0  0  0  0  0  0
   10.2080  -14.2217   24.2089 O   0  0  0  0  0  0  0  0  0  0  0  0
    9.0014  -16.1360   24.2522 N   0  0  0  0  0  0  0  0  0  0  0  0
    9.2292  -16.2688   25.6760 C   0  0  1  0  0  0  0  0  0  0  0  0
    7.8696  -16.1083   26.3406 C   0  0  0  0  0  0  0  0  0  0  0  0
    7.4301  -14.6950   26.4124 C   0  0  0  0  0  0  0  0  0  0  0  0
    8.2192  -13.7806   27.0532 C   0  0  0  0  0  0  0  0  0  0  0  0
    7.7739  -12.4596   27.0989 C   0  0  0  0  0  0  0  0  0  0  0  0
    6.5717  -12.1050   26.5096 C   0  0  0  0  0  0  0  0  0  0  0  0
    5.7960  -13.0507   25.8687 C   0  0  0  0  0  0  0  0  0  0  0  0
    6.2183  -14.3681   25.8110 C   0  0  0  0  0  0  0  0  0  0  0  0
    9.8558  -17.5705   25.9364 C   0  0  0  0  0  0  0  0  0  0  0  0
   10.2117  -18.4211   24.9067 O   0  0  0  0  0  0  0  0  0  0  0  0
   10.0769  -17.9332   27.1126 O   0  0  0  0  0  0  0  0  0  0  0  0
  2  1  1  0
  2  3  2  0
  4  2  1  0
  5  4  1  0
  5  6  1  6
  7  8  2  0
  7  5  1  0
 10  9  1  1
 10 12  1  0
 11 10  1  0
 13 12  1  1
 13 14  1  0
 14  7  1  0
 15 17  1  0
 15 13  1  0
 16 15  2  0
 18 17  1  0
 18 26  1  0
 18 19  1  1
 20 19  1  0
 20 25  2  0
 21 20  1  0
 22 23  1  0
 22 21  2  0
 23 24  2  0
 24 25  1  0
 26 27  1  0
 28 26  2  0
M  END
$$$$
