NLF.pdb
     RDKit          3D

 28 28  0  0  1  0  0  0  0  0999 V2000
    8.4993  -20.6468   20.5044 N   0  0  0  0  0  0  0  0  0  0  0  0
    7.7880  -19.7676   21.3493 C   0  0  0  0  0  0  0  0  0  0  0  0
    6.5851  -20.0160   21.6374 O   0  0  0  0  0  0  0  0  0  0  0  0
    8.4765  -18.5649   21.8791 C   0  0  0  0  0  0  0  0  0  0  0  0
    7.6974  -17.2958   21.5039 C   0  0  2  0  0  0  0  0  0  0  0  0
    7.7073  -17.1734   20.0773 N   0  0  0  0  0  0  0  0  0  0  0  0
    8.3829  -16.1719   22.1925 C   0  0  0  0  0  0  0  0  0  0  0  0
    9.4065  -15.6133   21.6942 O   0  0  0  0  0  0  0  0  0  0  0  0
    5.4578  -12.6320   25.4163 C   0  0  0  0  0  0  0  0  0  0  0  0
    6.4813  -13.2081   24.5176 C   0  0  1  0  0  0  0  0  0  0  0  0
    7.1689  -12.0529   23.7883 C   0  0  0  0  0  0  0  0  0  0  0  0
    7.5026  -14.1079   25.0746 C   0  0  0  0  0  0  0  0  0  0  0  0
    8.5765  -14.6595   24.2247 C   0  0  2  0  0  0  0  0  0  0  0  0
    7.8923  -15.7169   23.4170 N   0  0  0  0  0  0  0  0  0  0  0  0
    9.7213  -15.3065   24.8809 C   0  0  0  0  0  0  0  0  0  0  0  0
   10.8238  -14.7660   25.1018 O   0  0  0  0  0  0  0  0  0  0  0  0
    9.6428  -16.6824   25.3364 N   0  0  0  0  0  0  0  0  0  0  0  0
   10.7199  -17.2761   26.1006 C   0  0  1  0  0  0  0  0  0  0  0  0
   10.2081  -17.4034   27.5281 C   0  0  0  0  0  0  0  0  0  0  0  0
   10.3283  -16.1410   28.2947 C   0  0  0  0  0  0  0  0  0  0  0  0
    9.4518  -15.1215   28.0466 C   0  0  0  0  0  0  0  0  0  0  0  0
    9.5945  -13.9493   28.7889 C   0  0  0  0  0  0  0  0  0  0  0  0
   10.5951  -13.8405   29.7405 C   0  0  0  0  0  0  0  0  0  0  0  0
   11.4656  -14.8876   29.9695 C   0  0  0  0  0  0  0  0  0  0  0  0
   11.3426  -16.0606   29.2443 C   0  0  0  0  0  0  0  0  0  0  0  0
   11.0790  -18.5632   25.4927 C   0  0  0  0  0  0  0  0  0  0  0  0
   12.0471  -19.3798   26.0462 O   0  0  0  0  0  0  0  0  0  0  0  0
   10.5056  -18.9421   24.4479 O   0  0  0  0  0  0  0  0  0  0  0  0
  2  1  1  0
  2  3  2  0
  4  2  1  0
  5  4  1  0
  5  6  1  6
  7  8  2  0
  7  5  1  0
 10  9  1  1
 10 12  1  0
 11 10  1  0
 13 12  1  1
 13 14  1  0
 14  7  1  0
 15 17  1  0
 15 13  1  0
 16 15  2  0
 18 17  1  0
 18 26  1  0
 18 19  1  1
 20 19  1  0
 20 25  2  0
 21 20  1  0
 22 23  1  0
 22 21  2  0
 23 24  2  0
 24 25  1  0
 26 27  1  0
 28 26  2  0
M  END
$$$$
