NLF.pdb
     RDKit          3D

 28 28  0  0  1  0  0  0  0  0999 V2000
    6.6683  -19.5146   19.9059 N   0  0  0  0  0  0  0  0  0  0  0  0
    7.6020  -18.5800   19.4084 C   0  0  0  0  0  0  0  0  0  0  0  0
    7.6912  -18.3890   18.1645 O   0  0  0  0  0  0  0  0  0  0  0  0
    8.4617  -17.8424   20.3665 C   0  0  0  0  0  0  0  0  0  0  0  0
    7.9586  -16.4012   20.5343 C   0  0  2  0  0  0  0  0  0  0  0  0
    8.2887  -15.6739   19.3459 N   0  0  0  0  0  0  0  0  0  0  0  0
    8.6264  -15.8697   21.7503 C   0  0  0  0  0  0  0  0  0  0  0  0
    9.8452  -15.5195   21.7390 O   0  0  0  0  0  0  0  0  0  0  0  0
    5.7063  -12.9998   25.8169 C   0  0  0  0  0  0  0  0  0  0  0  0
    6.7674  -13.4311   24.8813 C   0  0  1  0  0  0  0  0  0  0  0  0
    7.9114  -12.4200   24.9711 C   0  0  0  0  0  0  0  0  0  0  0  0
    7.3123  -14.7927   24.9907 C   0  0  0  0  0  0  0  0  0  0  0  0
    8.4874  -15.2083   24.1993 C   0  0  2  0  0  0  0  0  0  0  0  0
    7.8993  -15.7515   22.9354 N   0  0  0  0  0  0  0  0  0  0  0  0
    9.3576  -16.2598   24.7440 C   0  0  0  0  0  0  0  0  0  0  0  0
    9.1724  -17.4866   24.6130 O   0  0  0  0  0  0  0  0  0  0  0  0
   10.5459  -15.9262   25.5079 N   0  0  0  0  0  0  0  0  0  0  0  0
   11.4117  -16.9635   26.0285 C   0  0  1  0  0  0  0  0  0  0  0  0
   12.4423  -16.2593   26.8992 C   0  0  0  0  0  0  0  0  0  0  0  0
   11.8284  -15.5029   28.0157 C   0  0  0  0  0  0  0  0  0  0  0  0
   11.3622  -14.2375   27.7902 C   0  0  0  0  0  0  0  0  0  0  0  0
   10.7890  -13.5572   28.8644 C   0  0  0  0  0  0  0  0  0  0  0  0
   10.7033  -14.1589   30.1091 C   0  0  0  0  0  0  0  0  0  0  0  0
   11.1826  -15.4387   30.3067 C   0  0  0  0  0  0  0  0  0  0  0  0
   11.7555  -16.1329   29.2546 C   0  0  0  0  0  0  0  0  0  0  0  0
   10.5955  -17.9378   26.7631 C   0  0  0  0  0  0  0  0  0  0  0  0
    9.2637  -17.6993   27.0454 O   0  0  0  0  0  0  0  0  0  0  0  0
   11.1040  -19.0124   27.1510 O   0  0  0  0  0  0  0  0  0  0  0  0
  2  1  1  0
  2  3  2  0
  4  2  1  0
  5  4  1  0
  5  6  1  6
  7  8  2  0
  7  5  1  0
 10  9  1  1
 10 12  1  0
 11 10  1  0
 13 12  1  1
 13 14  1  0
 14  7  1  0
 15 17  1  0
 15 13  1  0
 16 15  2  0
 18 17  1  0
 18 26  1  0
 18 19  1  1
 20 19  1  0
 20 25  2  0
 21 20  1  0
 22 23  1  0
 22 21  2  0
 23 24  2  0
 24 25  1  0
 26 27  1  0
 28 26  2  0
M  END
$$$$
