NLF.pdb
     RDKit          3D

 28 28  0  0  1  0  0  0  0  0999 V2000
   10.6747  -20.7149   16.9444 N   0  0  0  0  0  0  0  0  0  0  0  0
    9.6253  -20.0361   17.6008 C   0  0  0  0  0  0  0  0  0  0  0  0
    8.4933  -20.5843   17.6997 O   0  0  0  0  0  0  0  0  0  0  0  0
    9.8810  -18.6858   18.1600 C   0  0  0  0  0  0  0  0  0  0  0  0
    9.8479  -18.7291   19.6947 C   0  0  2  0  0  0  0  0  0  0  0  0
    8.5108  -19.0395   20.1020 N   0  0  0  0  0  0  0  0  0  0  0  0
   10.3048  -17.3926   20.1553 C   0  0  0  0  0  0  0  0  0  0  0  0
   11.4500  -16.9412   19.8508 O   0  0  0  0  0  0  0  0  0  0  0  0
    6.4373  -13.3845   20.7475 C   0  0  0  0  0  0  0  0  0  0  0  0
    7.7598  -13.9960   20.4941 C   0  0  1  0  0  0  0  0  0  0  0  0
    8.6313  -12.9544   19.7908 C   0  0  0  0  0  0  0  0  0  0  0  0
    8.5095  -14.5786   21.6173 C   0  0  0  0  0  0  0  0  0  0  0  0
    9.8149  -15.2343   21.4028 C   0  0  2  0  0  0  0  0  0  0  0  0
    9.4569  -16.6120   20.9420 N   0  0  0  0  0  0  0  0  0  0  0  0
   10.7109  -15.3963   22.5563 C   0  0  0  0  0  0  0  0  0  0  0  0
   11.7160  -14.6953   22.7908 O   0  0  0  0  0  0  0  0  0  0  0  0
   10.4765  -16.4319   23.5460 N   0  0  0  0  0  0  0  0  0  0  0  0
   10.6841  -16.1749   24.9558 C   0  0  1  0  0  0  0  0  0  0  0  0
    9.7007  -15.0778   25.3370 C   0  0  0  0  0  0  0  0  0  0  0  0
    9.6792  -14.8084   26.7939 C   0  0  0  0  0  0  0  0  0  0  0  0
   10.6478  -15.3542   27.5897 C   0  0  0  0  0  0  0  0  0  0  0  0
   10.5964  -15.0769   28.9556 C   0  0  0  0  0  0  0  0  0  0  0  0
    9.5916  -14.2741   29.4699 C   0  0  0  0  0  0  0  0  0  0  0  0
    8.6268  -13.7364   28.6413 C   0  0  0  0  0  0  0  0  0  0  0  0
    8.6583  -13.9982   27.2821 C   0  0  0  0  0  0  0  0  0  0  0  0
   10.4819  -17.4240   25.7000 C   0  0  0  0  0  0  0  0  0  0  0  0
    9.6587  -18.4260   25.2217 O   0  0  0  0  0  0  0  0  0  0  0  0
   11.0594  -17.5990   26.7954 O   0  0  0  0  0  0  0  0  0  0  0  0
  2  1  1  0
  2  3  2  0
  4  2  1  0
  5  4  1  0
  5  6  1  6
  7  8  2  0
  7  5  1  0
 10  9  1  1
 10 12  1  0
 11 10  1  0
 13 12  1  1
 13 14  1  0
 14  7  1  0
 15 17  1  0
 15 13  1  0
 16 15  2  0
 18 17  1  0
 18 26  1  0
 18 19  1  1
 20 19  1  0
 20 25  2  0
 21 20  1  0
 22 23  1  0
 22 21  2  0
 23 24  2  0
 24 25  1  0
 26 27  1  0
 28 26  2  0
M  END
$$$$
