NLF.pdb
     RDKit          3D

 28 28  0  0  1  0  0  0  0  0999 V2000
    7.8140  -19.5634   17.0811 N   0  0  0  0  0  0  0  0  0  0  0  0
    8.9648  -19.5116   17.8971 C   0  0  0  0  0  0  0  0  0  0  0  0
    9.6609  -20.5509   18.0606 O   0  0  0  0  0  0  0  0  0  0  0  0
    9.3280  -18.2285   18.5475 C   0  0  0  0  0  0  0  0  0  0  0  0
    9.2611  -18.3675   20.0755 C   0  0  2  0  0  0  0  0  0  0  0  0
    7.9067  -18.6602   20.4364 N   0  0  0  0  0  0  0  0  0  0  0  0
    9.7488  -17.0779   20.6290 C   0  0  0  0  0  0  0  0  0  0  0  0
   10.9246  -16.6606   20.4026 O   0  0  0  0  0  0  0  0  0  0  0  0
    6.7305  -12.8011   19.9509 C   0  0  0  0  0  0  0  0  0  0  0  0
    7.9579  -13.5608   20.2729 C   0  0  1  0  0  0  0  0  0  0  0  0
    9.1593  -12.6842   19.9158 C   0  0  0  0  0  0  0  0  0  0  0  0
    8.1351  -14.0988   21.6301 C   0  0  0  0  0  0  0  0  0  0  0  0
    9.2835  -14.9655   21.9615 C   0  0  2  0  0  0  0  0  0  0  0  0
    8.8961  -16.3043   21.4174 N   0  0  0  0  0  0  0  0  0  0  0  0
    9.6173  -15.1680   23.3783 C   0  0  0  0  0  0  0  0  0  0  0  0
   10.5431  -14.5960   23.9884 O   0  0  0  0  0  0  0  0  0  0  0  0
    8.8576  -16.0913   24.2012 N   0  0  0  0  0  0  0  0  0  0  0  0
    9.1225  -16.2156   25.6193 C   0  0  1  0  0  0  0  0  0  0  0  0
    7.7855  -16.0215   26.3199 C   0  0  0  0  0  0  0  0  0  0  0  0
    7.3464  -14.6063   26.3348 C   0  0  0  0  0  0  0  0  0  0  0  0
    6.1636  -14.2664   25.7390 C   0  0  0  0  0  0  0  0  0  0  0  0
    5.7822  -12.9253   25.7748 C   0  0  0  0  0  0  0  0  0  0  0  0
    6.5863  -11.9848   26.3971 C   0  0  0  0  0  0  0  0  0  0  0  0
    7.7757  -12.3581   26.9909 C   0  0  0  0  0  0  0  0  0  0  0  0
    8.1743  -13.6838   26.9676 C   0  0  0  0  0  0  0  0  0  0  0  0
    9.7299  -17.5273   25.8749 C   0  0  0  0  0  0  0  0  0  0  0  0
   10.0988  -18.3676   24.8412 O   0  0  0  0  0  0  0  0  0  0  0  0
    9.9223  -17.9083   27.0504 O   0  0  0  0  0  0  0  0  0  0  0  0
  2  1  1  0
  2  3  2  0
  4  2  1  0
  5  4  1  0
  5  6  1  6
  7  8  2  0
  7  5  1  0
 10  9  1  1
 10 12  1  0
 11 10  1  0
 13 12  1  1
 13 14  1  0
 14  7  1  0
 15 17  1  0
 15 13  1  0
 16 15  2  0
 18 17  1  0
 18 26  1  0
 18 19  1  1
 20 19  1  0
 20 25  2  0
 21 20  1  0
 22 23  1  0
 22 21  2  0
 23 24  2  0
 24 25  1  0
 26 27  1  0
 28 26  2  0
M  END
$$$$
