NLF.pdb
     RDKit          3D

 28 28  0  0  1  0  0  0  0  0999 V2000
   11.5364  -14.9114   18.5348 N   0  0  0  0  0  0  0  0  0  0  0  0
   11.6487  -14.0383   19.6384 C   0  0  0  0  0  0  0  0  0  0  0  0
   12.7906  -13.7396   20.0838 O   0  0  0  0  0  0  0  0  0  0  0  0
   10.4133  -13.4920   20.2519 C   0  0  0  0  0  0  0  0  0  0  0  0
    9.1735  -14.1608   19.6404 C   0  0  2  0  0  0  0  0  0  0  0  0
    8.5331  -13.2102   18.7822 N   0  0  0  0  0  0  0  0  0  0  0  0
    8.3244  -14.5812   20.7849 C   0  0  0  0  0  0  0  0  0  0  0  0
    7.7713  -13.7327   21.5479 O   0  0  0  0  0  0  0  0  0  0  0  0
    4.8362  -16.8726   20.3538 C   0  0  0  0  0  0  0  0  0  0  0  0
    5.4144  -17.8978   21.2492 C   0  0  1  0  0  0  0  0  0  0  0  0
    5.2439  -19.2598   20.5747 C   0  0  0  0  0  0  0  0  0  0  0  0
    6.8049  -17.7520   21.7055 C   0  0  0  0  0  0  0  0  0  0  0  0
    7.3182  -16.4513   22.1794 C   0  0  2  0  0  0  0  0  0  0  0  0
    8.1284  -15.9408   21.0298 N   0  0  0  0  0  0  0  0  0  0  0  0
    8.2004  -16.4369   23.3546 C   0  0  0  0  0  0  0  0  0  0  0  0
    9.4374  -16.5969   23.3279 O   0  0  0  0  0  0  0  0  0  0  0  0
    7.6667  -16.2269   24.6880 N   0  0  0  0  0  0  0  0  0  0  0  0
    8.5463  -16.1156   25.8329 C   0  0  1  0  0  0  0  0  0  0  0  0
    7.7555  -15.3821   26.9065 C   0  0  0  0  0  0  0  0  0  0  0  0
    7.4233  -13.9899   26.5229 C   0  0  0  0  0  0  0  0  0  0  0  0
    6.2197  -13.4614   26.8988 C   0  0  0  0  0  0  0  0  0  0  0  0
    5.9429  -12.1475   26.5215 C   0  0  0  0  0  0  0  0  0  0  0  0
    6.8676  -11.4187   25.7919 C   0  0  0  0  0  0  0  0  0  0  0  0
    8.0756  -11.9793   25.4268 C   0  0  0  0  0  0  0  0  0  0  0  0
    8.3717  -13.2820   25.7905 C   0  0  0  0  0  0  0  0  0  0  0  0
    8.9700  -17.4615   26.2377 C   0  0  0  0  0  0  0  0  0  0  0  0
    8.4461  -18.5943   25.6437 O   0  0  0  0  0  0  0  0  0  0  0  0
    9.8226  -17.6025   27.1416 O   0  0  0  0  0  0  0  0  0  0  0  0
  2  1  1  0
  2  3  2  0
  4  2  1  0
  5  4  1  0
  5  6  1  6
  7  8  2  0
  7  5  1  0
 10  9  1  6
 10 12  1  0
 11 10  1  0
 13 12  1  6
 13 14  1  0
 14  7  1  0
 15 17  1  0
 15 13  1  0
 16 15  2  0
 18 17  1  0
 18 26  1  0
 18 19  1  1
 20 19  1  0
 20 25  2  0
 21 20  1  0
 22 23  1  0
 22 21  2  0
 23 24  2  0
 24 25  1  0
 26 27  1  0
 28 26  2  0
M  END
$$$$
