NLF.pdb
     RDKit          3D

 28 28  0  0  1  0  0  0  0  0999 V2000
   11.8302  -20.4108   19.9722 N   0  0  0  0  0  0  0  0  0  0  0  0
   12.6357  -19.2674   20.1634 C   0  0  0  0  0  0  0  0  0  0  0  0
   13.6387  -19.0797   19.4214 O   0  0  0  0  0  0  0  0  0  0  0  0
   12.2816  -18.3099   21.2399 C   0  0  0  0  0  0  0  0  0  0  0  0
   11.8734  -16.9574   20.6378 C   0  0  2  0  0  0  0  0  0  0  0  0
   13.0659  -16.2618   20.2578 N   0  0  0  0  0  0  0  0  0  0  0  0
   11.0961  -16.2545   21.6908 C   0  0  0  0  0  0  0  0  0  0  0  0
   11.6583  -15.7702   22.7191 O   0  0  0  0  0  0  0  0  0  0  0  0
    6.6164  -13.4172   20.0516 C   0  0  0  0  0  0  0  0  0  0  0  0
    7.8001  -13.8200   20.8414 C   0  0  1  0  0  0  0  0  0  0  0  0
    8.2949  -12.5908   21.6052 C   0  0  0  0  0  0  0  0  0  0  0  0
    7.6932  -14.9573   21.7677 C   0  0  0  0  0  0  0  0  0  0  0  0
    8.8586  -15.4132   22.5513 C   0  0  2  0  0  0  0  0  0  0  0  0
    9.7143  -16.1218   21.5492 N   0  0  0  0  0  0  0  0  0  0  0  0
    8.6306  -16.3587   23.6530 C   0  0  0  0  0  0  0  0  0  0  0  0
    8.8506  -17.5858   23.6052 O   0  0  0  0  0  0  0  0  0  0  0  0
    8.1085  -15.9076   24.9299 N   0  0  0  0  0  0  0  0  0  0  0  0
    7.8132  -16.8504   25.9884 C   0  0  1  0  0  0  0  0  0  0  0  0
    7.4732  -16.0180   27.2162 C   0  0  0  0  0  0  0  0  0  0  0  0
    8.5890  -15.1399   27.6402 C   0  0  0  0  0  0  0  0  0  0  0  0
    9.6905  -15.6952   28.2300 C   0  0  0  0  0  0  0  0  0  0  0  0
   10.7214  -14.8377   28.6138 C   0  0  0  0  0  0  0  0  0  0  0  0
   10.6155  -13.4739   28.3965 C   0  0  0  0  0  0  0  0  0  0  0  0
    9.4906  -12.9418   27.7980 C   0  0  0  0  0  0  0  0  0  0  0  0
    8.4548  -13.7741   27.4087 C   0  0  0  0  0  0  0  0  0  0  0  0
    6.7159  -17.7232   25.5533 C   0  0  0  0  0  0  0  0  0  0  0  0
    5.8963  -17.3816   24.4941 O   0  0  0  0  0  0  0  0  0  0  0  0
    6.5040  -18.8033   26.1469 O   0  0  0  0  0  0  0  0  0  0  0  0
  2  1  1  0
  2  3  2  0
  4  2  1  0
  5  4  1  0
  5  6  1  1
  7  8  2  0
  7  5  1  0
 10  9  1  1
 10 12  1  0
 11 10  1  0
 13 12  1  6
 13 14  1  0
 14  7  1  0
 15 17  1  0
 15 13  1  0
 16 15  2  0
 18 17  1  0
 18 26  1  0
 18 19  1  1
 20 19  1  0
 20 25  2  0
 21 20  1  0
 22 23  1  0
 22 21  2  0
 23 24  2  0
 24 25  1  0
 26 27  1  0
 28 26  2  0
M  END
$$$$
