KIT.pdb
     RDKit          3D

 25 24  0  0  1  0  0  0  0  0999 V2000
   28.3737  -22.2068  -16.7397 N   0  0  0  0  0  0  0  0  0  0  0  0
   27.7080  -21.0678  -16.2187 C   0  0  1  0  0  0  0  0  0  0  0  0
   27.0109  -20.2574  -17.2662 C   0  0  0  0  0  0  0  0  0  0  0  0
   27.8739  -19.5810  -18.2778 C   0  0  0  0  0  0  0  0  0  0  0  0
   28.2764  -20.4609  -19.4029 C   0  0  0  0  0  0  0  0  0  0  0  0
   29.1188  -19.6198  -20.3767 C   0  0  0  0  0  0  0  0  0  0  0  0
   29.5907  -20.4822  -21.4244 N   0  0  0  0  0  0  0  0  0  0  0  0
   26.6862  -21.4066  -15.1884 C   0  0  0  0  0  0  0  0  0  0  0  0
   26.1014  -22.5306  -15.3542 O   0  0  0  0  0  0  0  0  0  0  0  0
   25.5512  -21.1606   -9.2653 C   0  0  0  0  0  0  0  0  0  0  0  0
   25.0598  -21.4087  -10.6898 C   0  0  0  0  0  0  0  0  0  0  0  0
   26.0366  -20.8919  -11.7068 C   0  0  2  0  0  0  0  0  0  0  0  0
   26.4882  -19.4869  -11.4009 C   0  0  0  0  0  0  0  0  0  0  0  0
   25.5120  -21.0813  -13.0737 C   0  0  2  0  0  0  0  0  0  0  0  0
   26.3818  -20.5483  -14.1027 N   0  0  0  0  0  0  0  0  0  0  0  0
   24.1718  -20.4810  -13.2832 C   0  0  0  0  0  0  0  0  0  0  0  0
   23.8737  -19.2762  -13.0925 O   0  0  0  0  0  0  0  0  0  0  0  0
   22.2359  -20.1573  -16.2309 C   0  0  0  0  0  0  0  0  0  0  0  0
   21.2679  -20.9089  -15.3345 C   0  0  1  0  0  0  0  0  0  0  0  0
   21.2065  -22.2210  -15.7406 O   0  0  0  0  0  0  0  0  0  0  0  0
   21.7804  -20.7538  -13.9108 C   0  0  2  0  0  0  0  0  0  0  0  0
   23.0854  -21.2970  -13.7417 N   0  0  0  0  0  0  0  0  0  0  0  0
   20.8054  -21.2707  -12.9328 C   0  0  0  0  0  0  0  0  0  0  0  0
   19.5366  -20.7688  -12.7904 O   0  0  0  0  0  0  0  0  0  0  0  0
   21.1602  -22.2200  -12.1939 O   0  0  0  0  0  0  0  0  0  0  0  0
  2  1  1  6
  3  2  1  0
  4  3  1  0
  5  4  1  0
  6  5  1  0
  7  6  1  0
  8  2  1  0
  8  9  2  0
 11 10  1  0
 12 14  1  0
 12 11  1  0
 12 13  1  1
 14 15  1  6
 15  8  1  0
 16 14  1  0
 17 16  2  0
 19 18  1  6
 19 21  1  0
 20 19  1  0
 21 23  1  0
 21 22  1  6
 22 16  1  0
 23 24  1  0
 25 23  2  0
M  END
$$$$
