KIT.pdb
     RDKit          3D

 25 24  0  0  1  0  0  0  0  0999 V2000
   23.6637  -34.5271  -13.1252 N   0  0  0  0  0  0  0  0  0  0  0  0
   22.6404  -33.5978  -13.4432 C   0  0  1  0  0  0  0  0  0  0  0  0
   21.6409  -34.1281  -14.4228 C   0  0  0  0  0  0  0  0  0  0  0  0
   22.1437  -34.4453  -15.7911 C   0  0  0  0  0  0  0  0  0  0  0  0
   21.0703  -34.7888  -16.7565 C   0  0  0  0  0  0  0  0  0  0  0  0
   21.7401  -35.1407  -18.0955 C   0  0  0  0  0  0  0  0  0  0  0  0
   20.7084  -35.4287  -19.0530 N   0  0  0  0  0  0  0  0  0  0  0  0
   21.8716  -33.1420  -12.2508 C   0  0  0  0  0  0  0  0  0  0  0  0
   22.0533  -33.8338  -11.1919 O   0  0  0  0  0  0  0  0  0  0  0  0
   22.0031  -28.1186  -10.8143 C   0  0  0  0  0  0  0  0  0  0  0  0
   21.9249  -29.6388  -10.9368 C   0  0  0  0  0  0  0  0  0  0  0  0
   20.5098  -30.1283  -10.8204 C   0  0  2  0  0  0  0  0  0  0  0  0
   19.8391  -29.6392   -9.5624 C   0  0  0  0  0  0  0  0  0  0  0  0
   20.4482  -31.5901  -11.0171 C   0  0  2  0  0  0  0  0  0  0  0  0
   21.0016  -32.0239  -12.2840 N   0  0  0  0  0  0  0  0  0  0  0  0
   19.0744  -32.1430  -10.9305 C   0  0  0  0  0  0  0  0  0  0  0  0
   18.0953  -31.7777  -11.6269 O   0  0  0  0  0  0  0  0  0  0  0  0
   18.1230  -35.8100  -11.1099 C   0  0  0  0  0  0  0  0  0  0  0  0
   17.5426  -35.2888   -9.8072 C   0  0  1  0  0  0  0  0  0  0  0  0
   18.3317  -35.7112   -8.7636 O   0  0  0  0  0  0  0  0  0  0  0  0
   17.4850  -33.7738   -9.9296 C   0  0  2  0  0  0  0  0  0  0  0  0
   18.7796  -33.1847   -9.9901 N   0  0  0  0  0  0  0  0  0  0  0  0
   16.6279  -33.1855   -8.8838 C   0  0  0  0  0  0  0  0  0  0  0  0
   17.0949  -32.3430   -7.9071 O   0  0  0  0  0  0  0  0  0  0  0  0
   15.4074  -33.4741   -8.8924 O   0  0  0  0  0  0  0  0  0  0  0  0
  2  1  1  1
  3  2  1  0
  4  3  1  0
  5  4  1  0
  6  5  1  0
  7  6  1  0
  8  2  1  0
  8  9  2  0
 11 10  1  0
 12 14  1  0
 12 11  1  0
 12 13  1  1
 14 15  1  6
 15  8  1  0
 16 14  1  0
 17 16  2  0
 19 18  1  6
 19 21  1  0
 20 19  1  0
 21 23  1  0
 21 22  1  1
 22 16  1  0
 23 24  1  0
 25 23  2  0
M  END
$$$$
