KIT.pdb
     RDKit          3D

 25 24  0  0  1  0  0  0  0  0999 V2000
   27.5761  -23.2379  -16.3241 N   0  0  0  0  0  0  0  0  0  0  0  0
   27.2016  -21.9498  -15.8632 C   0  0  1  0  0  0  0  0  0  0  0  0
   26.6555  -21.0690  -16.9430 C   0  0  0  0  0  0  0  0  0  0  0  0
   27.6374  -20.2213  -17.6799 C   0  0  0  0  0  0  0  0  0  0  0  0
   28.3606  -20.9438  -18.7555 C   0  0  0  0  0  0  0  0  0  0  0  0
   29.5870  -20.1005  -19.1431 C   0  0  0  0  0  0  0  0  0  0  0  0
   29.4748  -19.7552  -20.5332 N   0  0  0  0  0  0  0  0  0  0  0  0
   26.1761  -21.9893  -14.7828 C   0  0  0  0  0  0  0  0  0  0  0  0
   25.2949  -22.9064  -14.9053 O   0  0  0  0  0  0  0  0  0  0  0  0
   25.1871  -21.0025   -8.8504 C   0  0  0  0  0  0  0  0  0  0  0  0
   24.6754  -21.3081  -10.2563 C   0  0  0  0  0  0  0  0  0  0  0  0
   25.7393  -21.0785  -11.2912 C   0  0  2  0  0  0  0  0  0  0  0  0
   26.4265  -19.7484  -11.1170 C   0  0  0  0  0  0  0  0  0  0  0  0
   25.2054  -21.3175  -12.6467 C   0  0  2  0  0  0  0  0  0  0  0  0
   26.1744  -21.0786  -13.6971 N   0  0  0  0  0  0  0  0  0  0  0  0
   24.0085  -20.5012  -12.9653 C   0  0  0  0  0  0  0  0  0  0  0  0
   23.9941  -19.2546  -13.1159 O   0  0  0  0  0  0  0  0  0  0  0  0
   22.1506  -20.5182  -15.8519 C   0  0  0  0  0  0  0  0  0  0  0  0
   21.0353  -20.7674  -14.8521 C   0  0  1  0  0  0  0  0  0  0  0  0
   20.6561  -22.0871  -14.9225 O   0  0  0  0  0  0  0  0  0  0  0  0
   21.5790  -20.3803  -13.4853 C   0  0  2  0  0  0  0  0  0  0  0  0
   22.7320  -21.1344  -13.1267 N   0  0  0  0  0  0  0  0  0  0  0  0
   20.5202  -20.4156  -12.4596 C   0  0  0  0  0  0  0  0  0  0  0  0
   19.3526  -19.7013  -12.5514 O   0  0  0  0  0  0  0  0  0  0  0  0
   20.7019  -21.1390  -11.4513 O   0  0  0  0  0  0  0  0  0  0  0  0
  2  1  1  6
  3  2  1  0
  4  3  1  0
  5  4  1  0
  6  5  1  0
  7  6  1  0
  8  2  1  0
  8  9  2  0
 11 10  1  0
 12 14  1  0
 12 11  1  0
 12 13  1  6
 14 15  1  6
 15  8  1  0
 16 14  1  0
 17 16  2  0
 19 18  1  6
 19 21  1  0
 20 19  1  0
 21 23  1  0
 21 22  1  1
 22 16  1  0
 23 24  1  0
 25 23  2  0
M  END
$$$$
