KIT.pdb
     RDKit          3D

 25 24  0  0  1  0  0  0  0  0999 V2000
   28.6840  -20.9331  -15.9460 N   0  0  0  0  0  0  0  0  0  0  0  0
   27.8516  -19.9928  -15.2866 C   0  0  1  0  0  0  0  0  0  0  0  0
   27.0995  -19.1042  -16.2271 C   0  0  0  0  0  0  0  0  0  0  0  0
   27.9013  -18.1123  -17.0010 C   0  0  0  0  0  0  0  0  0  0  0  0
   28.4051  -18.6328  -18.2961 C   0  0  0  0  0  0  0  0  0  0  0  0
   29.1277  -17.4806  -19.0143 C   0  0  0  0  0  0  0  0  0  0  0  0
   29.6977  -17.9943  -20.2290 N   0  0  0  0  0  0  0  0  0  0  0  0
   26.8400  -20.6287  -14.3963 C   0  0  0  0  0  0  0  0  0  0  0  0
   26.3946  -21.7561  -14.8006 O   0  0  0  0  0  0  0  0  0  0  0  0
   25.0444  -21.4469   -8.6461 C   0  0  0  0  0  0  0  0  0  0  0  0
   24.8099  -21.5708  -10.1500 C   0  0  0  0  0  0  0  0  0  0  0  0
   25.7656  -20.7129  -10.9286 C   0  0  2  0  0  0  0  0  0  0  0  0
   25.8358  -19.3062  -10.3922 C   0  0  0  0  0  0  0  0  0  0  0  0
   25.4832  -20.8021  -12.3750 C   0  0  2  0  0  0  0  0  0  0  0  0
   26.4009  -20.0308  -13.1889 N   0  0  0  0  0  0  0  0  0  0  0  0
   24.1114  -20.3711  -12.7393 C   0  0  0  0  0  0  0  0  0  0  0  0
   23.6761  -19.1947  -12.6809 O   0  0  0  0  0  0  0  0  0  0  0  0
   22.4286  -21.0653  -15.9572 C   0  0  0  0  0  0  0  0  0  0  0  0
   21.4281  -21.5499  -14.9228 C   0  0  1  0  0  0  0  0  0  0  0  0
   21.4298  -22.9246  -14.9065 O   0  0  0  0  0  0  0  0  0  0  0  0
   21.8457  -20.9420  -13.5926 C   0  0  2  0  0  0  0  0  0  0  0  0
   23.1575  -21.3357  -13.2040 N   0  0  0  0  0  0  0  0  0  0  0  0
   20.8326  -21.1902  -12.5503 C   0  0  0  0  0  0  0  0  0  0  0  0
   19.5299  -20.7708  -12.6450 O   0  0  0  0  0  0  0  0  0  0  0  0
   21.1861  -21.8189  -11.5242 O   0  0  0  0  0  0  0  0  0  0  0  0
  2  1  1  6
  3  2  1  0
  4  3  1  0
  5  4  1  0
  6  5  1  0
  7  6  1  0
  8  2  1  0
  8  9  2  0
 11 10  1  0
 12 14  1  0
 12 11  1  0
 12 13  1  1
 14 15  1  6
 15  8  1  0
 16 14  1  0
 17 16  2  0
 19 18  1  6
 19 21  1  0
 20 19  1  0
 21 23  1  0
 21 22  1  1
 22 16  1  0
 23 24  1  0
 25 23  2  0
M  END
$$$$
