KIT.pdb
     RDKit          3D

 25 24  0  0  1  0  0  0  0  0999 V2000
   13.7411  -21.4302    1.7743 N   0  0  0  0  0  0  0  0  0  0  0  0
   14.0115  -20.1358    2.2873 C   0  0  1  0  0  0  0  0  0  0  0  0
   12.9950  -19.6672    3.2808 C   0  0  0  0  0  0  0  0  0  0  0  0
   11.6836  -19.2096    2.7361 C   0  0  0  0  0  0  0  0  0  0  0  0
   11.5359  -17.7336    2.6973 C   0  0  0  0  0  0  0  0  0  0  0  0
   10.1591  -17.4168    2.0894 C   0  0  0  0  0  0  0  0  0  0  0  0
   10.0428  -15.9909    1.9571 N   0  0  0  0  0  0  0  0  0  0  0  0
   15.3403  -20.0355    2.9540 C   0  0  0  0  0  0  0  0  0  0  0  0
   15.8481  -21.1493    3.3208 O   0  0  0  0  0  0  0  0  0  0  0  0
   19.4167  -18.4299    0.5751 C   0  0  0  0  0  0  0  0  0  0  0  0
   18.4368  -19.0666    1.5582 C   0  0  0  0  0  0  0  0  0  0  0  0
   18.3671  -18.2938    2.8441 C   0  0  2  0  0  0  0  0  0  0  0  0
   19.7206  -18.1352    3.4880 C   0  0  0  0  0  0  0  0  0  0  0  0
   17.3301  -18.8556    3.7320 C   0  0  2  0  0  0  0  0  0  0  0  0
   15.9968  -18.7980    3.1678 N   0  0  0  0  0  0  0  0  0  0  0  0
   17.2685  -18.2001    5.0613 C   0  0  0  0  0  0  0  0  0  0  0  0
   17.0719  -16.9764    5.2633 O   0  0  0  0  0  0  0  0  0  0  0  0
   15.0159  -18.8502    7.8857 C   0  0  0  0  0  0  0  0  0  0  0  0
   16.4008  -19.0757    8.4662 C   0  0  1  0  0  0  0  0  0  0  0  0
   16.6314  -20.4275    8.5648 O   0  0  0  0  0  0  0  0  0  0  0  0
   17.3824  -18.3742    7.5400 C   0  0  2  0  0  0  0  0  0  0  0  0
   17.4410  -18.9792    6.2527 N   0  0  0  0  0  0  0  0  0  0  0  0
   18.7057  -18.2300    8.1743 C   0  0  0  0  0  0  0  0  0  0  0  0
   19.8292  -18.8870    7.7407 O   0  0  0  0  0  0  0  0  0  0  0  0
   18.8039  -17.4645    9.1630 O   0  0  0  0  0  0  0  0  0  0  0  0
  2  1  1  1
  3  2  1  0
  4  3  1  0
  5  4  1  0
  6  5  1  0
  7  6  1  0
  8  2  1  0
  8  9  2  0
 11 10  1  0
 12 14  1  0
 12 11  1  0
 12 13  1  1
 14 15  1  6
 15  8  1  0
 16 14  1  0
 17 16  2  0
 19 18  1  6
 19 21  1  0
 20 19  1  0
 21 23  1  0
 21 22  1  6
 22 16  1  0
 23 24  1  0
 25 23  2  0
M  END
$$$$
