KIT.pdb
     RDKit          3D

 25 24  0  0  1  0  0  0  0  0999 V2000
   28.3718  -21.8072  -15.0373 N   0  0  0  0  0  0  0  0  0  0  0  0
   27.1689  -21.1611  -15.4212 C   0  0  1  0  0  0  0  0  0  0  0  0
   26.6869  -21.5634  -16.7798 C   0  0  0  0  0  0  0  0  0  0  0  0
   27.0232  -20.6497  -17.9102 C   0  0  0  0  0  0  0  0  0  0  0  0
   27.0999  -19.2202  -17.5195 C   0  0  0  0  0  0  0  0  0  0  0  0
   27.4033  -18.4040  -18.7872 C   0  0  0  0  0  0  0  0  0  0  0  0
   27.4639  -17.0151  -18.4247 N   0  0  0  0  0  0  0  0  0  0  0  0
   26.0434  -21.4088  -14.4765 C   0  0  0  0  0  0  0  0  0  0  0  0
   25.2690  -22.3733  -14.7972 O   0  0  0  0  0  0  0  0  0  0  0  0
   26.5746  -20.8553   -9.1136 C   0  0  0  0  0  0  0  0  0  0  0  0
   26.2482  -21.3043  -10.5363 C   0  0  0  0  0  0  0  0  0  0  0  0
   24.9660  -20.6942  -11.0254 C   0  0  2  0  0  0  0  0  0  0  0  0
   23.8023  -21.0119  -10.1218 C   0  0  0  0  0  0  0  0  0  0  0  0
   24.7434  -21.0237  -12.4472 C   0  0  2  0  0  0  0  0  0  0  0  0
   25.8427  -20.6342  -13.3070 N   0  0  0  0  0  0  0  0  0  0  0  0
   23.5135  -20.4160  -13.0115 C   0  0  0  0  0  0  0  0  0  0  0  0
   23.2764  -19.1852  -13.0880 O   0  0  0  0  0  0  0  0  0  0  0  0
   22.0686  -20.5455  -16.3094 C   0  0  0  0  0  0  0  0  0  0  0  0
   20.9584  -21.1194  -15.4470 C   0  0  1  0  0  0  0  0  0  0  0  0
   20.9254  -22.4844  -15.6079 O   0  0  0  0  0  0  0  0  0  0  0  0
   21.2555  -20.6995  -14.0156 C   0  0  2  0  0  0  0  0  0  0  0  0
   22.4722  -21.2555  -13.5285 N   0  0  0  0  0  0  0  0  0  0  0  0
   20.1037  -20.9601  -13.1325 C   0  0  0  0  0  0  0  0  0  0  0  0
   18.8621  -20.4094  -13.3245 O   0  0  0  0  0  0  0  0  0  0  0  0
   20.2739  -21.7271  -12.1548 O   0  0  0  0  0  0  0  0  0  0  0  0
  2  1  1  1
  3  2  1  0
  4  3  1  0
  5  4  1  0
  6  5  1  0
  7  6  1  0
  8  2  1  0
  8  9  2  0
 11 10  1  0
 12 14  1  0
 12 11  1  0
 12 13  1  1
 14 15  1  6
 15  8  1  0
 16 14  1  0
 17 16  2  0
 19 18  1  6
 19 21  1  0
 20 19  1  0
 21 23  1  0
 21 22  1  1
 22 16  1  0
 23 24  1  0
 25 23  2  0
M  END
$$$$
