KIT.pdb
     RDKit          3D

 25 24  0  0  1  0  0  0  0  0999 V2000
   34.7556  -24.1423  -20.0205 N   0  0  0  0  0  0  0  0  0  0  0  0
   33.3786  -23.8504  -19.8459 C   0  0  1  0  0  0  0  0  0  0  0  0
   32.6279  -23.7374  -21.1357 C   0  0  0  0  0  0  0  0  0  0  0  0
   32.9936  -22.5997  -22.0289 C   0  0  0  0  0  0  0  0  0  0  0  0
   32.1377  -22.4898  -23.2360 C   0  0  0  0  0  0  0  0  0  0  0  0
   32.6442  -21.2952  -24.0618 C   0  0  0  0  0  0  0  0  0  0  0  0
   31.8000  -21.1555  -25.2159 N   0  0  0  0  0  0  0  0  0  0  0  0
   32.6643  -24.8659  -19.0219 C   0  0  0  0  0  0  0  0  0  0  0  0
   32.9523  -26.0816  -19.2902 O   0  0  0  0  0  0  0  0  0  0  0  0
   33.4350  -25.2483  -14.1385 C   0  0  0  0  0  0  0  0  0  0  0  0
   33.0424  -25.5411  -15.5849 C   0  0  0  0  0  0  0  0  0  0  0  0
   31.5538  -25.4795  -15.7745 C   0  0  2  0  0  0  0  0  0  0  0  0
   30.8243  -26.4447  -14.8756 C   0  0  0  0  0  0  0  0  0  0  0  0
   31.2073  -25.5953  -17.2048 C   0  0  2  0  0  0  0  0  0  0  0  0
   31.7329  -24.5140  -18.0135 N   0  0  0  0  0  0  0  0  0  0  0  0
   29.7470  -25.6578  -17.4583 C   0  0  0  0  0  0  0  0  0  0  0  0
   28.9911  -24.6681  -17.6190 O   0  0  0  0  0  0  0  0  0  0  0  0
   25.8323  -28.3629  -18.6513 C   0  0  0  0  0  0  0  0  0  0  0  0
   27.3462  -28.3251  -18.5413 C   0  0  1  0  0  0  0  0  0  0  0  0
   27.8903  -28.4288  -19.7997 O   0  0  0  0  0  0  0  0  0  0  0  0
   27.7015  -27.0181  -17.8492 C   0  0  2  0  0  0  0  0  0  0  0  0
   29.0876  -26.9287  -17.5370 N   0  0  0  0  0  0  0  0  0  0  0  0
   26.8278  -26.7745  -16.6866 C   0  0  0  0  0  0  0  0  0  0  0  0
   25.6326  -26.1056  -16.7642 O   0  0  0  0  0  0  0  0  0  0  0  0
   27.2021  -27.2041  -15.5693 O   0  0  0  0  0  0  0  0  0  0  0  0
  2  1  1  6
  3  2  1  0
  4  3  1  0
  5  4  1  0
  6  5  1  0
  7  6  1  0
  8  2  1  0
  8  9  2  0
 11 10  1  0
 12 14  1  0
 12 11  1  0
 12 13  1  1
 14 15  1  6
 15  8  1  0
 16 14  1  0
 17 16  2  0
 19 18  1  6
 19 21  1  0
 20 19  1  0
 21 23  1  0
 21 22  1  1
 22 16  1  0
 23 24  1  0
 25 23  2  0
M  END
$$$$
