KIT.pdb
     RDKit          3D

 25 24  0  0  1  0  0  0  0  0999 V2000
   28.4377  -21.5956  -15.3691 N   0  0  0  0  0  0  0  0  0  0  0  0
   27.8344  -20.5095  -14.6849 C   0  0  1  0  0  0  0  0  0  0  0  0
   27.3820  -19.4119  -15.5964 C   0  0  0  0  0  0  0  0  0  0  0  0
   28.4383  -18.7190  -16.3900 C   0  0  0  0  0  0  0  0  0  0  0  0
   27.9208  -17.6164  -17.2377 C   0  0  0  0  0  0  0  0  0  0  0  0
   28.0252  -18.0655  -18.7050 C   0  0  0  0  0  0  0  0  0  0  0  0
   27.5717  -16.9873  -19.5392 N   0  0  0  0  0  0  0  0  0  0  0  0
   26.6486  -20.9118  -13.8771 C   0  0  0  0  0  0  0  0  0  0  0  0
   26.0222  -21.9387  -14.3084 O   0  0  0  0  0  0  0  0  0  0  0  0
   26.9014  -20.7440   -8.6005 C   0  0  0  0  0  0  0  0  0  0  0  0
   26.5723  -21.1983  -10.0208 C   0  0  0  0  0  0  0  0  0  0  0  0
   25.2793  -20.6053  -10.5026 C   0  0  2  0  0  0  0  0  0  0  0  0
   24.0971  -21.0892   -9.7027 C   0  0  0  0  0  0  0  0  0  0  0  0
   25.1412  -20.7774  -11.9623 C   0  0  2  0  0  0  0  0  0  0  0  0
   26.2416  -20.2101  -12.7152 N   0  0  0  0  0  0  0  0  0  0  0  0
   23.8923  -20.1962  -12.5127 C   0  0  0  0  0  0  0  0  0  0  0  0
   23.6340  -18.9704  -12.5994 O   0  0  0  0  0  0  0  0  0  0  0  0
   22.5834  -20.7683  -15.8491 C   0  0  0  0  0  0  0  0  0  0  0  0
   21.3992  -21.1240  -14.9678 C   0  0  1  0  0  0  0  0  0  0  0  0
   21.2589  -22.4913  -14.9349 O   0  0  0  0  0  0  0  0  0  0  0  0
   21.6784  -20.5249  -13.5979 C   0  0  2  0  0  0  0  0  0  0  0  0
   22.8563  -21.0583  -13.0023 N   0  0  0  0  0  0  0  0  0  0  0  0
   20.4941  -20.6151  -12.7239 C   0  0  0  0  0  0  0  0  0  0  0  0
   19.2900  -20.0267  -13.0169 O   0  0  0  0  0  0  0  0  0  0  0  0
   20.5988  -21.2657  -11.6568 O   0  0  0  0  0  0  0  0  0  0  0  0
  2  1  1  6
  3  2  1  0
  4  3  1  0
  5  4  1  0
  6  5  1  0
  7  6  1  0
  8  2  1  0
  8  9  2  0
 11 10  1  0
 12 14  1  0
 12 11  1  0
 12 13  1  1
 14 15  1  6
 15  8  1  0
 16 14  1  0
 17 16  2  0
 19 18  1  6
 19 21  1  0
 20 19  1  0
 21 23  1  0
 21 22  1  1
 22 16  1  0
 23 24  1  0
 25 23  2  0
M  END
$$$$
