AIV.pdb
     RDKit          3D

 21 20  0  0  1  0  0  0  0  0999 V2000
    6.5425  -15.5397   20.4405 C   0  0  0  0  0  0  0  0  0  0  0  0
    7.0704  -14.1927   20.8839 C   0  0  2  0  0  0  0  0  0  0  0  0
    7.9428  -13.6484   19.8897 N   0  0  0  0  0  0  0  0  0  0  0  0
    7.7703  -14.2598   22.1780 C   0  0  0  0  0  0  0  0  0  0  0  0
    9.0015  -14.4806   22.1855 O   0  0  0  0  0  0  0  0  0  0  0  0
    5.7010  -11.4795   26.5688 C   0  0  0  0  0  0  0  0  0  0  0  0
    6.6121  -12.0628   25.5544 C   0  0  0  0  0  0  0  0  0  0  0  0
    7.1890  -13.3963   25.8345 C   0  0  2  0  0  0  0  0  0  0  0  0
    8.0581  -13.3871   27.0761 C   0  0  0  0  0  0  0  0  0  0  0  0
    7.8400  -14.1026   24.6875 C   0  0  2  0  0  0  0  0  0  0  0  0
    7.1346  -14.0879   23.4519 N   0  0  0  0  0  0  0  0  0  0  0  0
    8.2065  -15.4864   25.1414 C   0  0  0  0  0  0  0  0  0  0  0  0
    7.3314  -16.3126   25.4998 O   0  0  0  0  0  0  0  0  0  0  0  0
   10.5815  -17.6808   23.1060 C   0  0  0  0  0  0  0  0  0  0  0  0
   11.0069  -17.7900   24.5537 C   0  0  1  0  0  0  0  0  0  0  0  0
   12.2320  -16.8832   24.7057 C   0  0  0  0  0  0  0  0  0  0  0  0
    9.8825  -17.2997   25.4424 C   0  0  2  0  0  0  0  0  0  0  0  0
    9.5732  -15.9230   25.1846 N   0  0  0  0  0  0  0  0  0  0  0  0
   10.3228  -17.4433   26.8467 C   0  0  0  0  0  0  0  0  0  0  0  0
   10.5510  -16.3709   27.6985 O   0  0  0  0  0  0  0  0  0  0  0  0
   10.5044  -18.5948   27.3075 O   0  0  0  0  0  0  0  0  0  0  0  0
  2  1  1  6
  2  4  1  0
  3  2  1  0
  4 11  1  0
  4  5  2  0
  7  6  1  0
  7  8  1  0
  8 10  1  0
  8  9  1  1
 10 12  1  0
 10 11  1  6
 12 13  2  0
 15 14  1  6
 15 17  1  0
 16 15  1  0
 17 19  1  0
 18 12  1  0
 17 18  1  6
 19 20  1  0
 21 19  2  0
M  END
$$$$
