AIV.pdb
     RDKit          3D

 21 20  0  0  1  0  0  0  0  0999 V2000
    6.5280  -16.1908   20.6153 C   0  0  0  0  0  0  0  0  0  0  0  0
    6.9895  -14.7512   20.6822 C   0  0  2  0  0  0  0  0  0  0  0  0
    7.7732  -14.4258   19.5309 N   0  0  0  0  0  0  0  0  0  0  0  0
    7.7572  -14.4618   21.9054 C   0  0  0  0  0  0  0  0  0  0  0  0
    9.0043  -14.5512   21.8684 O   0  0  0  0  0  0  0  0  0  0  0  0
    7.6585  -11.6743   27.5295 C   0  0  0  0  0  0  0  0  0  0  0  0
    8.1829  -12.6514   26.5449 C   0  0  0  0  0  0  0  0  0  0  0  0
    7.3514  -12.9430   25.3561 C   0  0  2  0  0  0  0  0  0  0  0  0
    5.9270  -13.2958   25.7350 C   0  0  0  0  0  0  0  0  0  0  0  0
    7.9250  -13.8889   24.3489 C   0  0  2  0  0  0  0  0  0  0  0  0
    7.1714  -14.0786   23.1570 N   0  0  0  0  0  0  0  0  0  0  0  0
    8.2509  -15.1752   25.0521 C   0  0  0  0  0  0  0  0  0  0  0  0
    7.3515  -15.9815   25.3951 O   0  0  0  0  0  0  0  0  0  0  0  0
   11.5190  -18.7392   25.7589 C   0  0  0  0  0  0  0  0  0  0  0  0
   11.2429  -17.3386   25.2579 C   0  0  1  0  0  0  0  0  0  0  0  0
   11.1776  -17.4392   23.7309 C   0  0  0  0  0  0  0  0  0  0  0  0
    9.9124  -16.8659   25.8062 C   0  0  2  0  0  0  0  0  0  0  0  0
    9.6050  -15.5372   25.3619 N   0  0  0  0  0  0  0  0  0  0  0  0
   10.0045  -16.8747   27.2820 C   0  0  0  0  0  0  0  0  0  0  0  0
   10.2117  -15.7369   28.0501 O   0  0  0  0  0  0  0  0  0  0  0  0
    9.8904  -17.9665   27.8873 O   0  0  0  0  0  0  0  0  0  0  0  0
  2  1  1  6
  2  4  1  0
  3  2  1  0
  4 11  1  0
  4  5  2  0
  7  6  1  0
  7  8  1  0
  8 10  1  0
  8  9  1  1
 10 12  1  0
 10 11  1  6
 12 13  2  0
 15 14  1  1
 15 17  1  0
 16 15  1  0
 17 19  1  0
 18 12  1  0
 17 18  1  6
 19 20  1  0
 21 19  2  0
M  END
$$$$
