AIV.pdb
     RDKit          3D

 21 20  0  0  1  0  0  0  0  0999 V2000
    6.4180  -16.0385   20.7154 C   0  0  0  0  0  0  0  0  0  0  0  0
    6.9201  -14.6374   20.9885 C   0  0  2  0  0  0  0  0  0  0  0  0
    7.7521  -14.1889   19.9150 N   0  0  0  0  0  0  0  0  0  0  0  0
    7.6540  -14.5398   22.2617 C   0  0  0  0  0  0  0  0  0  0  0  0
    8.8880  -14.7448   22.2622 O   0  0  0  0  0  0  0  0  0  0  0  0
    5.6633  -11.3199   26.3845 C   0  0  0  0  0  0  0  0  0  0  0  0
    6.5712  -11.9914   25.4233 C   0  0  0  0  0  0  0  0  0  0  0  0
    7.1525  -13.2928   25.8211 C   0  0  2  0  0  0  0  0  0  0  0  0
    8.0441  -13.1650   27.0400 C   0  0  0  0  0  0  0  0  0  0  0  0
    7.7822  -14.1085   24.7365 C   0  0  2  0  0  0  0  0  0  0  0  0
    7.0490  -14.2220   23.5224 N   0  0  0  0  0  0  0  0  0  0  0  0
    8.1683  -15.4377   25.3193 C   0  0  0  0  0  0  0  0  0  0  0  0
    7.3050  -16.2383   25.7557 O   0  0  0  0  0  0  0  0  0  0  0  0
   10.5455  -17.8224   23.5377 C   0  0  0  0  0  0  0  0  0  0  0  0
   10.9872  -17.7654   24.9835 C   0  0  1  0  0  0  0  0  0  0  0  0
   12.2108  -16.8446   25.0176 C   0  0  0  0  0  0  0  0  0  0  0  0
    9.8709  -17.1796   25.8234 C   0  0  2  0  0  0  0  0  0  0  0  0
    9.5411  -15.8489   25.4018 N   0  0  0  0  0  0  0  0  0  0  0  0
   10.3348  -17.1429   27.2269 C   0  0  0  0  0  0  0  0  0  0  0  0
   10.5422  -18.2760   28.0021 O   0  0  0  0  0  0  0  0  0  0  0  0
   10.5575  -16.0305   27.7601 O   0  0  0  0  0  0  0  0  0  0  0  0
  2  1  1  6
  2  4  1  0
  3  2  1  0
  4 11  1  0
  4  5  2  0
  7  6  1  0
  7  8  1  0
  8 10  1  0
  8  9  1  1
 10 12  1  0
 10 11  1  6
 12 13  2  0
 15 14  1  6
 15 17  1  0
 16 15  1  0
 17 19  1  0
 18 12  1  0
 17 18  1  6
 19 20  1  0
 21 19  2  0
M  END
$$$$
