AIV.pdb
     RDKit          3D

 21 20  0  0  1  0  0  0  0  0999 V2000
    5.5473  -19.3128   24.5641 C   0  0  0  0  0  0  0  0  0  0  0  0
    5.1260  -18.0094   23.9211 C   0  0  2  0  0  0  0  0  0  0  0  0
    4.7457  -18.2263   22.5595 N   0  0  0  0  0  0  0  0  0  0  0  0
    6.1795  -16.9822   23.9865 C   0  0  0  0  0  0  0  0  0  0  0  0
    6.9861  -16.8861   23.0353 O   0  0  0  0  0  0  0  0  0  0  0  0
    5.7916  -12.1596   26.8780 C   0  0  0  0  0  0  0  0  0  0  0  0
    6.1811  -13.1317   25.8280 C   0  0  0  0  0  0  0  0  0  0  0  0
    7.3208  -14.0315   26.1131 C   0  0  2  0  0  0  0  0  0  0  0  0
    8.6145  -13.2642   26.2985 C   0  0  0  0  0  0  0  0  0  0  0  0
    7.4838  -15.2166   25.2147 C   0  0  2  0  0  0  0  0  0  0  0  0
    6.3523  -16.0684   25.0781 N   0  0  0  0  0  0  0  0  0  0  0  0
    8.7267  -15.9489   25.6323 C   0  0  0  0  0  0  0  0  0  0  0  0
    8.7854  -16.5749   26.7192 O   0  0  0  0  0  0  0  0  0  0  0  0
   10.9211  -17.3744   22.5780 C   0  0  0  0  0  0  0  0  0  0  0  0
   11.7923  -17.1130   23.7868 C   0  0  1  0  0  0  0  0  0  0  0  0
   12.5332  -15.8032   23.5010 C   0  0  0  0  0  0  0  0  0  0  0  0
   10.9137  -16.9581   25.0110 C   0  0  2  0  0  0  0  0  0  0  0  0
    9.9005  -15.9637   24.8061 N   0  0  0  0  0  0  0  0  0  0  0  0
   11.7785  -16.5447   26.1369 C   0  0  0  0  0  0  0  0  0  0  0  0
   12.7582  -17.3540   26.6964 O   0  0  0  0  0  0  0  0  0  0  0  0
   11.6289  -15.3995   26.6240 O   0  0  0  0  0  0  0  0  0  0  0  0
  2  1  1  6
  2  4  1  0
  3  2  1  0
  4 11  1  0
  4  5  2  0
  7  6  1  0
  7  8  1  0
  8 10  1  0
  8  9  1  6
 10 12  1  0
 10 11  1  1
 12 13  2  0
 15 14  1  6
 15 17  1  0
 16 15  1  0
 17 19  1  0
 18 12  1  0
 17 18  1  6
 19 20  1  0
 21 19  2  0
M  END
$$$$
