AIV.pdb
     RDKit          3D

 21 20  0  0  1  0  0  0  0  0999 V2000
    7.6180  -17.3852   21.3151 C   0  0  0  0  0  0  0  0  0  0  0  0
    7.6366  -15.8723   21.2948 C   0  0  2  0  0  0  0  0  0  0  0  0
    8.3287  -15.3986   20.1363 N   0  0  0  0  0  0  0  0  0  0  0  0
    8.2454  -15.2997   22.5076 C   0  0  0  0  0  0  0  0  0  0  0  0
    9.4926  -15.2753   22.6007 O   0  0  0  0  0  0  0  0  0  0  0  0
    7.2788  -11.4119   27.3321 C   0  0  0  0  0  0  0  0  0  0  0  0
    8.0334  -12.4527   26.5929 C   0  0  0  0  0  0  0  0  0  0  0  0
    7.3289  -13.1733   25.5094 C   0  0  2  0  0  0  0  0  0  0  0  0
    5.9723  -13.6801   25.9561 C   0  0  0  0  0  0  0  0  0  0  0  0
    8.1122  -14.2132   24.7723 C   0  0  2  0  0  0  0  0  0  0  0  0
    7.5023  -14.7590   23.6083 N   0  0  0  0  0  0  0  0  0  0  0  0
    8.5401  -15.2600   25.7604 C   0  0  0  0  0  0  0  0  0  0  0  0
    7.7322  -16.1129   26.2037 O   0  0  0  0  0  0  0  0  0  0  0  0
   11.7051  -17.3599   25.2060 C   0  0  0  0  0  0  0  0  0  0  0  0
   11.7121  -16.8974   26.6464 C   0  0  1  0  0  0  0  0  0  0  0  0
   12.6845  -15.7155   26.7081 C   0  0  0  0  0  0  0  0  0  0  0  0
   10.3186  -16.4462   27.0323 C   0  0  2  0  0  0  0  0  0  0  0  0
    9.8913  -15.3295   26.2399 N   0  0  0  0  0  0  0  0  0  0  0  0
   10.3524  -16.0465   28.4555 C   0  0  0  0  0  0  0  0  0  0  0  0
   10.5274  -16.9388   29.5048 O   0  0  0  0  0  0  0  0  0  0  0  0
   10.2163  -14.8346   28.7455 O   0  0  0  0  0  0  0  0  0  0  0  0
  2  1  1  1
  2  4  1  0
  3  2  1  0
  4 11  1  0
  4  5  2  0
  7  6  1  0
  7  8  1  0
  8 10  1  0
  8  9  1  1
 10 12  1  0
 10 11  1  6
 12 13  2  0
 15 14  1  6
 15 17  1  0
 16 15  1  0
 17 19  1  0
 18 12  1  0
 17 18  1  6
 19 20  1  0
 21 19  2  0
M  END
$$$$
