AIV.pdb
     RDKit          3D

 21 20  0  0  1  0  0  0  0  0999 V2000
    7.5250  -19.5638   18.4214 C   0  0  0  0  0  0  0  0  0  0  0  0
    7.8715  -18.2327   17.7907 C   0  0  2  0  0  0  0  0  0  0  0  0
    8.6770  -18.4290   16.6251 N   0  0  0  0  0  0  0  0  0  0  0  0
    8.5613  -17.3282   18.7263 C   0  0  0  0  0  0  0  0  0  0  0  0
    9.8080  -17.3853   18.8096 O   0  0  0  0  0  0  0  0  0  0  0  0
    6.9309  -12.0919   19.9589 C   0  0  0  0  0  0  0  0  0  0  0  0
    7.6850  -13.3403   19.6907 C   0  0  0  0  0  0  0  0  0  0  0  0
    7.9539  -14.2400   20.8343 C   0  0  2  0  0  0  0  0  0  0  0  0
    8.6641  -13.5217   21.9642 C   0  0  0  0  0  0  0  0  0  0  0  0
    8.5771  -15.5629   20.5181 C   0  0  2  0  0  0  0  0  0  0  0  0
    7.8986  -16.3707   19.5632 N   0  0  0  0  0  0  0  0  0  0  0  0
    8.8387  -16.2751   21.8141 C   0  0  0  0  0  0  0  0  0  0  0  0
    7.8994  -16.7089   22.5255 O   0  0  0  0  0  0  0  0  0  0  0  0
   11.5591  -19.0230   22.1883 C   0  0  0  0  0  0  0  0  0  0  0  0
   11.6687  -18.0857   23.3709 C   0  0  1  0  0  0  0  0  0  0  0  0
   12.8615  -17.1705   23.0780 C   0  0  0  0  0  0  0  0  0  0  0  0
   10.3984  -17.2676   23.4784 C   0  0  2  0  0  0  0  0  0  0  0  0
   10.1744  -16.4898   22.2943 N   0  0  0  0  0  0  0  0  0  0  0  0
   10.5445  -16.3586   24.6355 C   0  0  0  0  0  0  0  0  0  0  0  0
   10.4588  -16.7716   25.9583 O   0  0  0  0  0  0  0  0  0  0  0  0
   10.7586  -15.1418   24.4238 O   0  0  0  0  0  0  0  0  0  0  0  0
  2  1  1  1
  2  4  1  0
  3  2  1  0
  4 11  1  0
  4  5  2  0
  7  6  1  0
  7  8  1  0
  8 10  1  0
  8  9  1  1
 10 12  1  0
 10 11  1  6
 12 13  2  0
 15 14  1  6
 15 17  1  0
 16 15  1  0
 17 19  1  0
 18 12  1  0
 17 18  1  6
 19 20  1  0
 21 19  2  0
M  END
$$$$
