SVM.pdb
     RDKit          3D

 22 21  0  0  1  0  0  0  0  0999 V2000
   11.3127  -19.0543   21.4683 O   0  0  0  0  0  0  0  0  0  0  0  0
   10.3505  -19.0532   20.4330 C   0  0  0  0  0  0  0  0  0  0  0  0
   10.7110  -17.9241   19.4913 C   0  0  2  0  0  0  0  0  0  0  0  0
   12.1334  -17.9971   19.1903 N   0  0  0  0  0  0  0  0  0  0  0  0
   10.4513  -16.5998   20.1017 C   0  0  0  0  0  0  0  0  0  0  0  0
   11.3692  -15.8849   20.5628 O   0  0  0  0  0  0  0  0  0  0  0  0
    7.7544  -13.7678   18.9967 C   0  0  0  0  0  0  0  0  0  0  0  0
    7.5866  -14.2162   20.4010 C   0  0  2  0  0  0  0  0  0  0  0  0
    7.2816  -13.1079   21.3714 C   0  0  0  0  0  0  0  0  0  0  0  0
    8.8182  -14.9481   20.9492 C   0  0  2  0  0  0  0  0  0  0  0  0
    9.1273  -16.1096   20.1747 N   0  0  0  0  0  0  0  0  0  0  0  0
    8.6326  -15.2507   22.3975 C   0  0  0  0  0  0  0  0  0  0  0  0
    8.6468  -16.4359   22.8162 O   0  0  0  0  0  0  0  0  0  0  0  0
    6.2936  -10.8631   27.0688 C   0  0  0  0  0  0  0  0  0  0  0  0
    7.0306  -12.2101   27.9338 S   0  0  0  0  0  0  0  0  0  0  0  0
    7.5815  -13.6302   27.0071 C   0  0  0  0  0  0  0  0  0  0  0  0
    7.8420  -13.3448   25.5652 C   0  0  0  0  0  0  0  0  0  0  0  0
    8.2388  -14.5289   24.7936 C   0  0  2  0  0  0  0  0  0  0  0  0
    8.4327  -14.2369   23.3674 N   0  0  0  0  0  0  0  0  0  0  0  0
    7.3164  -15.6462   24.8896 C   0  0  0  0  0  0  0  0  0  0  0  0
    7.5177  -16.7242   25.7012 O   0  0  0  0  0  0  0  0  0  0  0  0
    6.2551  -15.6429   24.1885 O   0  0  0  0  0  0  0  0  0  0  0  0
  2  1  1  0
  2  3  1  0
  3  4  1  1
  5 11  1  0
  5  3  1  0
  6  5  2  0
  8  7  1  6
  8 10  1  0
  9  8  1  0
 10 11  1  6
 10 12  1  0
 12 19  1  0
 12 13  2  0
 14 15  1  0
 16 17  1  0
 16 15  1  0
 18 20  1  0
 18 17  1  1
 19 18  1  0
 20 21  1  0
 22 20  2  0
M  END
$$$$
