SVM.pdb
     RDKit          3D

 22 21  0  0  1  0  0  0  0  0999 V2000
    6.0200  -18.0713   21.9144 O   0  0  0  0  0  0  0  0  0  0  0  0
    6.4836  -18.8487   20.8289 C   0  0  0  0  0  0  0  0  0  0  0  0
    6.7994  -17.8922   19.6989 C   0  0  2  0  0  0  0  0  0  0  0  0
    7.3640  -18.6448   18.5880 N   0  0  0  0  0  0  0  0  0  0  0  0
    7.7996  -16.8781   20.1051 C   0  0  0  0  0  0  0  0  0  0  0  0
    8.9995  -17.1681   20.3116 O   0  0  0  0  0  0  0  0  0  0  0  0
    7.0249  -12.4355   20.3502 C   0  0  0  0  0  0  0  0  0  0  0  0
    8.2167  -13.2366   19.9774 C   0  0  2  0  0  0  0  0  0  0  0  0
    8.2860  -13.5995   18.5192 C   0  0  0  0  0  0  0  0  0  0  0  0
    8.3248  -14.5521   20.7589 C   0  0  2  0  0  0  0  0  0  0  0  0
    7.4042  -15.5310   20.2703 N   0  0  0  0  0  0  0  0  0  0  0  0
    8.1745  -14.2946   22.2200 C   0  0  0  0  0  0  0  0  0  0  0  0
    7.4901  -13.3264   22.6375 O   0  0  0  0  0  0  0  0  0  0  0  0
    7.4606  -11.7975   27.6889 C   0  0  0  0  0  0  0  0  0  0  0  0
    6.4070  -12.9289   26.8428 S   0  0  0  0  0  0  0  0  0  0  0  0
    7.0058  -14.5737   26.5033 C   0  0  0  0  0  0  0  0  0  0  0  0
    7.2041  -14.8549   25.0507 C   0  0  0  0  0  0  0  0  0  0  0  0
    8.6145  -14.8828   24.6444 C   0  0  2  0  0  0  0  0  0  0  0  0
    8.7844  -15.1123   23.2037 N   0  0  0  0  0  0  0  0  0  0  0  0
    9.4221  -15.8673   25.3421 C   0  0  0  0  0  0  0  0  0  0  0  0
    9.7419  -15.7808   26.6655 O   0  0  0  0  0  0  0  0  0  0  0  0
    9.8674  -16.8749   24.7062 O   0  0  0  0  0  0  0  0  0  0  0  0
  2  1  1  0
  2  3  1  0
  3  4  1  6
  5 11  1  0
  5  3  1  0
  6  5  2  0
  8  7  1  6
  8 10  1  0
  9  8  1  0
 10 11  1  6
 10 12  1  0
 12 19  1  0
 12 13  2  0
 14 15  1  0
 16 17  1  0
 16 15  1  0
 18 20  1  0
 18 17  1  1
 19 18  1  0
 20 21  1  0
 22 20  2  0
M  END
$$$$
