SVM.pdb
     RDKit          3D

 22 21  0  0  1  0  0  0  0  0999 V2000
    6.7573  -18.4412   24.1189 O   0  0  0  0  0  0  0  0  0  0  0  0
    5.4947  -18.3801   23.4867 C   0  0  0  0  0  0  0  0  0  0  0  0
    5.7470  -18.2419   22.0005 C   0  0  2  0  0  0  0  0  0  0  0  0
    6.1460  -19.5364   21.4676 N   0  0  0  0  0  0  0  0  0  0  0  0
    6.8431  -17.2862   21.7191 C   0  0  0  0  0  0  0  0  0  0  0  0
    7.9949  -17.6634   21.4072 O   0  0  0  0  0  0  0  0  0  0  0  0
    6.4471  -13.7766   19.7385 C   0  0  0  0  0  0  0  0  0  0  0  0
    7.1328  -13.6257   21.0455 C   0  0  2  0  0  0  0  0  0  0  0  0
    8.3028  -12.6805   21.0241 C   0  0  0  0  0  0  0  0  0  0  0  0
    7.6567  -14.9541   21.6060 C   0  0  2  0  0  0  0  0  0  0  0  0
    6.5987  -15.8962   21.8004 N   0  0  0  0  0  0  0  0  0  0  0  0
    8.4500  -14.7109   22.8450 C   0  0  0  0  0  0  0  0  0  0  0  0
    8.2334  -13.7015   23.5622 O   0  0  0  0  0  0  0  0  0  0  0  0
   10.3089  -13.1164   29.4541 C   0  0  0  0  0  0  0  0  0  0  0  0
    9.4237  -13.6846   28.0401 S   0  0  0  0  0  0  0  0  0  0  0  0
   10.2400  -14.7830   26.8972 C   0  0  0  0  0  0  0  0  0  0  0  0
    9.4475  -15.0676   25.6647 C   0  0  0  0  0  0  0  0  0  0  0  0
   10.2752  -15.3431   24.4839 C   0  0  2  0  0  0  0  0  0  0  0  0
    9.4757  -15.5884   23.2766 N   0  0  0  0  0  0  0  0  0  0  0  0
   11.1891  -16.4609   24.6376 C   0  0  0  0  0  0  0  0  0  0  0  0
   12.2956  -16.4276   25.4348 O   0  0  0  0  0  0  0  0  0  0  0  0
   10.9671  -17.5417   24.0046 O   0  0  0  0  0  0  0  0  0  0  0  0
  2  1  1  0
  2  3  1  0
  3  4  1  1
  5 11  1  0
  5  3  1  0
  6  5  2  0
  8  7  1  6
  8 10  1  0
  9  8  1  0
 10 11  1  1
 10 12  1  0
 12 19  1  0
 12 13  2  0
 14 15  1  0
 16 17  1  0
 16 15  1  0
 18 20  1  0
 18 17  1  1
 19 18  1  0
 20 21  1  0
 22 20  2  0
M  END
$$$$
