SVM.pdb
     RDKit          3D

 22 21  0  0  1  0  0  0  0  0999 V2000
    7.3453  -18.6175   23.3995 O   0  0  0  0  0  0  0  0  0  0  0  0
    6.1983  -18.7523   22.5848 C   0  0  0  0  0  0  0  0  0  0  0  0
    6.6210  -18.4393   21.1653 C   0  0  2  0  0  0  0  0  0  0  0  0
    7.3065  -19.5979   20.6112 N   0  0  0  0  0  0  0  0  0  0  0  0
    7.5626  -17.2972   21.1150 C   0  0  0  0  0  0  0  0  0  0  0  0
    8.7891  -17.4503   20.9182 O   0  0  0  0  0  0  0  0  0  0  0  0
    6.8404  -13.7056   19.3584 C   0  0  0  0  0  0  0  0  0  0  0  0
    7.2820  -13.5947   20.7705 C   0  0  2  0  0  0  0  0  0  0  0  0
    8.2308  -12.4574   21.0338 C   0  0  0  0  0  0  0  0  0  0  0  0
    7.9711  -14.8646   21.2859 C   0  0  2  0  0  0  0  0  0  0  0  0
    7.0779  -15.9812   21.2931 N   0  0  0  0  0  0  0  0  0  0  0  0
    8.5880  -14.6083   22.6191 C   0  0  0  0  0  0  0  0  0  0  0  0
    9.4973  -13.7511   22.7554 O   0  0  0  0  0  0  0  0  0  0  0  0
    6.0143  -10.5086   26.4852 C   0  0  0  0  0  0  0  0  0  0  0  0
    6.4127  -12.2048   26.7499 S   0  0  0  0  0  0  0  0  0  0  0  0
    7.6488  -12.9701   25.7176 C   0  0  0  0  0  0  0  0  0  0  0  0
    7.9001  -14.4054   26.0419 C   0  0  0  0  0  0  0  0  0  0  0  0
    8.8084  -15.0708   25.1000 C   0  0  2  0  0  0  0  0  0  0  0  0
    8.1916  -15.3050   23.7878 N   0  0  0  0  0  0  0  0  0  0  0  0
    9.3358  -16.3402   25.5678 C   0  0  0  0  0  0  0  0  0  0  0  0
    9.2158  -17.5093   24.8750 O   0  0  0  0  0  0  0  0  0  0  0  0
    9.9474  -16.3907   26.6819 O   0  0  0  0  0  0  0  0  0  0  0  0
  2  1  1  0
  2  3  1  0
  3  4  1  1
  5 11  1  0
  5  3  1  0
  6  5  2  0
  8  7  1  6
  8 10  1  0
  9  8  1  0
 10 11  1  1
 10 12  1  0
 12 19  1  0
 12 13  2  0
 14 15  1  0
 16 17  1  0
 16 15  1  0
 18 20  1  0
 18 17  1  1
 19 18  1  0
 20 21  1  0
 22 20  2  0
M  END
$$$$
