SVM.pdb
     RDKit          3D

 22 21  0  0  1  0  0  0  0  0999 V2000
   12.8180  -20.0210   21.1060 O   0  0  0  0  0  0  0  0  0  0  0  0
   12.4268  -18.7332   21.5372 C   0  0  0  0  0  0  0  0  0  0  0  0
   11.9956  -17.9634   20.3072 C   0  0  2  0  0  0  0  0  0  0  0  0
   13.1742  -17.3949   19.6695 N   0  0  0  0  0  0  0  0  0  0  0  0
   11.0910  -16.8428   20.6533 C   0  0  0  0  0  0  0  0  0  0  0  0
   11.5014  -15.6674   20.7803 O   0  0  0  0  0  0  0  0  0  0  0  0
    7.4637  -16.1779   19.1410 C   0  0  0  0  0  0  0  0  0  0  0  0
    7.4396  -16.2016   20.6243 C   0  0  2  0  0  0  0  0  0  0  0  0
    6.5656  -15.1463   21.2451 C   0  0  0  0  0  0  0  0  0  0  0  0
    8.8304  -16.0386   21.2504 C   0  0  2  0  0  0  0  0  0  0  0  0
    9.7132  -17.0901   20.8509 N   0  0  0  0  0  0  0  0  0  0  0  0
    8.7144  -15.9117   22.7316 C   0  0  0  0  0  0  0  0  0  0  0  0
    9.0831  -16.8439   23.4901 O   0  0  0  0  0  0  0  0  0  0  0  0
    6.9723  -10.5489   27.6112 C   0  0  0  0  0  0  0  0  0  0  0  0
    6.0519  -11.9935   27.1968 S   0  0  0  0  0  0  0  0  0  0  0  0
    6.9316  -13.4574   26.6846 C   0  0  0  0  0  0  0  0  0  0  0  0
    7.1581  -13.5398   25.2115 C   0  0  0  0  0  0  0  0  0  0  0  0
    8.0605  -14.6277   24.8151 C   0  0  2  0  0  0  0  0  0  0  0  0
    8.1906  -14.7532   23.3577 N   0  0  0  0  0  0  0  0  0  0  0  0
    7.6941  -15.9328   25.3353 C   0  0  0  0  0  0  0  0  0  0  0  0
    6.7115  -16.7116   24.7973 O   0  0  0  0  0  0  0  0  0  0  0  0
    8.3085  -16.3977   26.3474 O   0  0  0  0  0  0  0  0  0  0  0  0
  2  1  1  0
  2  3  1  0
  3  4  1  1
  5 11  1  0
  5  3  1  0
  6  5  2  0
  8  7  1  6
  8 10  1  0
  9  8  1  0
 10 11  1  1
 10 12  1  0
 12 19  1  0
 12 13  2  0
 14 15  1  0
 16 17  1  0
 16 15  1  0
 18 20  1  0
 18 17  1  6
 19 18  1  0
 20 21  1  0
 22 20  2  0
M  END
$$$$
