SVM.pdb
     RDKit          3D

 22 21  0  0  1  0  0  0  0  0999 V2000
    9.2291  -19.4635   21.1373 O   0  0  0  0  0  0  0  0  0  0  0  0
    8.5683  -19.0532   19.9573 C   0  0  0  0  0  0  0  0  0  0  0  0
    9.3952  -17.9414   19.3474 C   0  0  2  0  0  0  0  0  0  0  0  0
   10.7427  -18.4353   19.1039 N   0  0  0  0  0  0  0  0  0  0  0  0
    9.5037  -16.7787   20.2585 C   0  0  0  0  0  0  0  0  0  0  0  0
   10.5497  -16.5256   20.8974 O   0  0  0  0  0  0  0  0  0  0  0  0
    7.9486  -13.2254   19.3198 C   0  0  0  0  0  0  0  0  0  0  0  0
    7.6220  -13.6063   20.7161 C   0  0  2  0  0  0  0  0  0  0  0  0
    7.7398  -12.4810   21.7074 C   0  0  0  0  0  0  0  0  0  0  0  0
    8.4977  -14.7482   21.2476 C   0  0  2  0  0  0  0  0  0  0  0  0
    8.3982  -15.9135   20.4250 N   0  0  0  0  0  0  0  0  0  0  0  0
    8.1739  -15.0198   22.6777 C   0  0  0  0  0  0  0  0  0  0  0  0
    7.2111  -15.7648   22.9911 O   0  0  0  0  0  0  0  0  0  0  0  0
    6.8057  -10.6509   26.9982 C   0  0  0  0  0  0  0  0  0  0  0  0
    6.1990  -12.2809   26.7140 S   0  0  0  0  0  0  0  0  0  0  0  0
    6.6642  -13.1232   25.2129 C   0  0  0  0  0  0  0  0  0  0  0  0
    7.1491  -14.5182   25.4302 C   0  0  0  0  0  0  0  0  0  0  0  0
    8.5808  -14.6925   25.1565 C   0  0  2  0  0  0  0  0  0  0  0  0
    8.9199  -14.4627   23.7461 N   0  0  0  0  0  0  0  0  0  0  0  0
    9.1101  -15.9928   25.5271 C   0  0  0  0  0  0  0  0  0  0  0  0
   10.4316  -16.2288   25.7705 O   0  0  0  0  0  0  0  0  0  0  0  0
    8.3181  -16.9820   25.6377 O   0  0  0  0  0  0  0  0  0  0  0  0
  2  1  1  0
  2  3  1  0
  3  4  1  1
  5 11  1  0
  5  3  1  0
  6  5  2  0
  8  7  1  6
  8 10  1  0
  9  8  1  0
 10 11  1  6
 10 12  1  0
 12 19  1  0
 12 13  2  0
 14 15  1  0
 16 17  1  0
 16 15  1  0
 18 20  1  0
 18 17  1  6
 19 18  1  0
 20 21  1  0
 22 20  2  0
M  END
$$$$
