CMC.pdb
     RDKit          3D

 21 20  0  0  1  0  0  0  0  0999 V2000
    8.9208  -15.7763   19.1759 N   0  0  0  0  0  0  0  0  0  0  0  0
    8.0303  -16.0607   20.2786 C   0  0  1  0  0  0  0  0  0  0  0  0
    7.7068  -17.5330   20.3737 C   0  0  0  0  0  0  0  0  0  0  0  0
    7.6245  -18.2422   18.7071 S   0  0  0  0  0  0  0  0  0  0  0  0
    8.6665  -15.5896   21.5364 C   0  0  0  0  0  0  0  0  0  0  0  0
    9.9200  -15.4861   21.6579 O   0  0  0  0  0  0  0  0  0  0  0  0
    6.6892  -11.6458   28.1154 C   0  0  0  0  0  0  0  0  0  0  0  0
    6.2689  -12.4050   26.5171 S   0  0  0  0  0  0  0  0  0  0  0  0
    7.6753  -13.4142   25.9218 C   0  0  0  0  0  0  0  0  0  0  0  0
    7.4024  -13.9368   24.5553 C   0  0  0  0  0  0  0  0  0  0  0  0
    8.4787  -14.7468   23.9159 C   0  0  2  0  0  0  0  0  0  0  0  0
    7.8883  -15.2357   22.6564 N   0  0  0  0  0  0  0  0  0  0  0  0
    8.9391  -15.9147   24.6614 C   0  0  0  0  0  0  0  0  0  0  0  0
    8.1496  -16.9219   24.7459 O   0  0  0  0  0  0  0  0  0  0  0  0
   10.1802  -16.0654   25.3121 N   0  0  0  0  0  0  0  0  0  0  0  0
   10.5087  -17.3047   25.9869 C   0  0  1  0  0  0  0  0  0  0  0  0
   11.9670  -17.6712   25.8177 C   0  0  0  0  0  0  0  0  0  0  0  0
   12.2469  -17.8277   24.0120 S   0  0  0  0  0  0  0  0  0  0  0  0
   10.2433  -17.1849   27.4434 C   0  0  0  0  0  0  0  0  0  0  0  0
   10.4982  -18.2609   28.2553 O   0  0  0  0  0  0  0  0  0  0  0  0
    9.7919  -16.1078   27.9105 O   0  0  0  0  0  0  0  0  0  0  0  0
  2  1  1  6
  2  5  1  0
  3  2  1  0
  3  4  1  0
  5  6  2  0
  7  8  1  0
  9 10  1  0
  9  8  1  0
 11 10  1  1
 11 13  1  0
 12 11  1  0
 12  5  1  0
 13 14  2  0
 13 15  1  0
 15 16  1  0
 16 19  1  0
 16 17  1  1
 18 17  1  0
 19 21  2  0
 19 20  1  0
M  END
$$$$
