CMC.pdb
     RDKit          3D

 21 20  0  0  1  0  0  0  0  0999 V2000
    6.9753  -19.8484   17.6229 N   0  0  0  0  0  0  0  0  0  0  0  0
    6.7015  -19.4354   18.9810 C   0  0  1  0  0  0  0  0  0  0  0  0
    6.7591  -20.5978   19.9437 C   0  0  0  0  0  0  0  0  0  0  0  0
    5.3816  -20.4793   21.1168 S   0  0  0  0  0  0  0  0  0  0  0  0
    7.6887  -18.3944   19.3688 C   0  0  0  0  0  0  0  0  0  0  0  0
    8.9177  -18.4977   19.0937 O   0  0  0  0  0  0  0  0  0  0  0  0
    8.4753  -11.7027   19.4614 C   0  0  0  0  0  0  0  0  0  0  0  0
    7.4430  -12.2946   20.8367 S   0  0  0  0  0  0  0  0  0  0  0  0
    8.1158  -13.8697   21.4829 C   0  0  0  0  0  0  0  0  0  0  0  0
    7.4176  -15.0293   20.8644 C   0  0  0  0  0  0  0  0  0  0  0  0
    8.2473  -16.2289   20.5546 C   0  0  2  0  0  0  0  0  0  0  0  0
    7.2890  -17.2376   20.0668 N   0  0  0  0  0  0  0  0  0  0  0  0
    8.9697  -16.8230   21.6756 C   0  0  0  0  0  0  0  0  0  0  0  0
    8.2815  -17.3448   22.6238 O   0  0  0  0  0  0  0  0  0  0  0  0
   10.3682  -16.8912   21.8378 N   0  0  0  0  0  0  0  0  0  0  0  0
   10.9398  -17.4170   23.0609 C   0  0  1  0  0  0  0  0  0  0  0  0
   11.6649  -18.7247   22.8296 C   0  0  0  0  0  0  0  0  0  0  0  0
   12.3842  -19.2017   24.4478 S   0  0  0  0  0  0  0  0  0  0  0  0
   11.9203  -16.4555   23.6268 C   0  0  0  0  0  0  0  0  0  0  0  0
   12.2575  -15.3441   22.8966 O   0  0  0  0  0  0  0  0  0  0  0  0
   12.4253  -16.6703   24.7586 O   0  0  0  0  0  0  0  0  0  0  0  0
  2  1  1  6
  2  5  1  0
  3  2  1  0
  3  4  1  0
  5  6  2  0
  7  8  1  0
  9 10  1  0
  9  8  1  0
 11 10  1  1
 11 13  1  0
 12 11  1  0
 12  5  1  0
 13 14  2  0
 13 15  1  0
 15 16  1  0
 16 19  1  0
 16 17  1  6
 18 17  1  0
 19 21  2  0
 19 20  1  0
M  END
$$$$
