CMC.pdb
     RDKit          3D

 21 20  0  0  1  0  0  0  0  0999 V2000
    8.3486  -14.8365   19.4328 N   0  0  0  0  0  0  0  0  0  0  0  0
    7.5291  -15.2488   20.5502 C   0  0  1  0  0  0  0  0  0  0  0  0
    7.1664  -16.7128   20.4704 C   0  0  0  0  0  0  0  0  0  0  0  0
    8.6295  -17.7185   20.8380 S   0  0  0  0  0  0  0  0  0  0  0  0
    8.2668  -14.9675   21.8094 C   0  0  0  0  0  0  0  0  0  0  0  0
    9.5159  -14.7781   21.8286 O   0  0  0  0  0  0  0  0  0  0  0  0
    6.2686  -10.8929   26.5629 C   0  0  0  0  0  0  0  0  0  0  0  0
    6.3269  -12.5401   27.3316 S   0  0  0  0  0  0  0  0  0  0  0  0
    7.6304  -13.5492   26.5356 C   0  0  0  0  0  0  0  0  0  0  0  0
    7.2770  -13.8364   25.1187 C   0  0  0  0  0  0  0  0  0  0  0  0
    8.2825  -14.5853   24.3116 C   0  0  2  0  0  0  0  0  0  0  0  0
    7.5949  -14.9003   23.0459 N   0  0  0  0  0  0  0  0  0  0  0  0
    8.7544  -15.8470   24.8747 C   0  0  0  0  0  0  0  0  0  0  0  0
    7.9289  -16.8273   24.9254 O   0  0  0  0  0  0  0  0  0  0  0  0
   10.0426  -16.1170   25.3790 N   0  0  0  0  0  0  0  0  0  0  0  0
   10.3496  -17.4125   25.9505 C   0  0  1  0  0  0  0  0  0  0  0  0
   11.7517  -17.8648   25.6052 C   0  0  0  0  0  0  0  0  0  0  0  0
   11.8492  -17.8690   23.7738 S   0  0  0  0  0  0  0  0  0  0  0  0
   10.2482  -17.3600   27.4314 C   0  0  0  0  0  0  0  0  0  0  0  0
    9.9194  -16.1715   28.0325 O   0  0  0  0  0  0  0  0  0  0  0  0
   10.4633  -18.3968   28.1103 O   0  0  0  0  0  0  0  0  0  0  0  0
  2  1  1  6
  2  5  1  0
  3  2  1  0
  3  4  1  0
  5  6  2  0
  7  8  1  0
  9 10  1  0
  9  8  1  0
 11 10  1  1
 11 13  1  0
 12 11  1  0
 12  5  1  0
 13 14  2  0
 13 15  1  0
 15 16  1  0
 16 19  1  0
 16 17  1  1
 18 17  1  0
 19 21  2  0
 19 20  1  0
M  END
$$$$
