CMC.pdb
     RDKit          3D

 21 20  0  0  1  0  0  0  0  0999 V2000
    8.2308  -12.4356   19.1302 N   0  0  0  0  0  0  0  0  0  0  0  0
    7.7049  -13.5798   19.8404 C   0  0  1  0  0  0  0  0  0  0  0  0
    7.9215  -14.8638   19.0751 C   0  0  0  0  0  0  0  0  0  0  0  0
    7.2098  -14.7048   17.4150 S   0  0  0  0  0  0  0  0  0  0  0  0
    8.3614  -13.6553   21.1716 C   0  0  0  0  0  0  0  0  0  0  0  0
    9.5783  -13.3586   21.3388 O   0  0  0  0  0  0  0  0  0  0  0  0
    6.5356  -11.0676   27.1754 C   0  0  0  0  0  0  0  0  0  0  0  0
    6.1271  -12.8283   26.9734 S   0  0  0  0  0  0  0  0  0  0  0  0
    7.4518  -13.6670   26.0287 C   0  0  0  0  0  0  0  0  0  0  0  0
    7.2001  -13.5582   24.5659 C   0  0  0  0  0  0  0  0  0  0  0  0
    8.2461  -14.1116   23.6588 C   0  0  2  0  0  0  0  0  0  0  0  0
    7.6448  -14.0653   22.3133 N   0  0  0  0  0  0  0  0  0  0  0  0
    8.6520  -15.4922   23.9055 C   0  0  0  0  0  0  0  0  0  0  0  0
    7.8908  -16.4282   23.4699 O   0  0  0  0  0  0  0  0  0  0  0  0
    9.8111  -15.9235   24.5814 N   0  0  0  0  0  0  0  0  0  0  0  0
   10.0763  -17.3373   24.7537 C   0  0  1  0  0  0  0  0  0  0  0  0
   11.1740  -17.8230   23.8325 C   0  0  0  0  0  0  0  0  0  0  0  0
   12.2121  -18.9582   24.8311 S   0  0  0  0  0  0  0  0  0  0  0  0
   10.5063  -17.6153   26.1479 C   0  0  0  0  0  0  0  0  0  0  0  0
   10.7468  -18.9130   26.5222 O   0  0  0  0  0  0  0  0  0  0  0  0
   10.6432  -16.6657   26.9614 O   0  0  0  0  0  0  0  0  0  0  0  0
  2  1  1  6
  2  5  1  0
  3  2  1  0
  3  4  1  0
  5  6  2  0
  7  8  1  0
  9 10  1  0
  9  8  1  0
 11 10  1  1
 11 13  1  0
 12 11  1  0
 12  5  1  0
 13 14  2  0
 13 15  1  0
 15 16  1  0
 16 19  1  0
 16 17  1  6
 18 17  1  0
 19 21  2  0
 19 20  1  0
M  END
$$$$
