CMC.pdb
     RDKit          3D

 21 20  0  0  1  0  0  0  0  0999 V2000
   10.5020  -15.8684   19.9771 N   0  0  0  0  0  0  0  0  0  0  0  0
   10.1861  -16.7154   21.1054 C   0  0  1  0  0  0  0  0  0  0  0  0
   11.2522  -17.7594   21.3395 C   0  0  0  0  0  0  0  0  0  0  0  0
   10.8439  -18.7172   22.8239 S   0  0  0  0  0  0  0  0  0  0  0  0
   10.0268  -15.8607   22.3108 C   0  0  0  0  0  0  0  0  0  0  0  0
   10.7675  -14.8604   22.5282 O   0  0  0  0  0  0  0  0  0  0  0  0
    6.4119  -11.7656   26.9349 C   0  0  0  0  0  0  0  0  0  0  0  0
    7.1150  -12.7049   25.5454 S   0  0  0  0  0  0  0  0  0  0  0  0
    6.7773  -14.4899   25.7706 C   0  0  0  0  0  0  0  0  0  0  0  0
    7.3141  -15.2723   24.6240 C   0  0  0  0  0  0  0  0  0  0  0  0
    8.7940  -15.2725   24.4419 C   0  0  2  0  0  0  0  0  0  0  0  0
    9.0321  -16.1352   23.2701 N   0  0  0  0  0  0  0  0  0  0  0  0
    9.5818  -15.8129   25.5459 C   0  0  0  0  0  0  0  0  0  0  0  0
    9.9521  -17.0388   25.4748 O   0  0  0  0  0  0  0  0  0  0  0  0
    9.9920  -15.1256   26.7060 N   0  0  0  0  0  0  0  0  0  0  0  0
   10.8285  -15.7822   27.6901 C   0  0  1  0  0  0  0  0  0  0  0  0
   11.1070  -14.8907   28.8805 C   0  0  0  0  0  0  0  0  0  0  0  0
   10.6511  -13.1915   28.3624 S   0  0  0  0  0  0  0  0  0  0  0  0
   10.1627  -17.0097   28.1962 C   0  0  0  0  0  0  0  0  0  0  0  0
   10.8594  -17.8469   29.0303 O   0  0  0  0  0  0  0  0  0  0  0  0
    8.9787  -17.2645   27.8566 O   0  0  0  0  0  0  0  0  0  0  0  0
  2  1  1  6
  2  5  1  0
  3  2  1  0
  3  4  1  0
  5  6  2  0
  7  8  1  0
  9 10  1  0
  9  8  1  0
 11 10  1  1
 11 13  1  0
 12 11  1  0
 12  5  1  0
 13 14  2  0
 13 15  1  0
 15 16  1  0
 16 19  1  0
 16 17  1  1
 18 17  1  0
 19 21  2  0
 19 20  1  0
M  END
$$$$
