CMC.pdb
     RDKit          3D

 21 20  0  0  1  0  0  0  0  0999 V2000
    9.3349  -15.9901   19.2801 N   0  0  0  0  0  0  0  0  0  0  0  0
    8.2744  -15.9126   20.2596 C   0  0  1  0  0  0  0  0  0  0  0  0
    7.5277  -17.2196   20.3832 C   0  0  0  0  0  0  0  0  0  0  0  0
    8.6526  -18.5022   20.9973 S   0  0  0  0  0  0  0  0  0  0  0  0
    8.8643  -15.5291   21.5687 C   0  0  0  0  0  0  0  0  0  0  0  0
   10.1032  -15.6196   21.8001 O   0  0  0  0  0  0  0  0  0  0  0  0
    5.7012  -11.3157   26.3655 C   0  0  0  0  0  0  0  0  0  0  0  0
    6.2231  -13.0017   26.8042 S   0  0  0  0  0  0  0  0  0  0  0  0
    7.8048  -13.3968   25.9717 C   0  0  0  0  0  0  0  0  0  0  0  0
    7.5632  -13.8303   24.5687 C   0  0  0  0  0  0  0  0  0  0  0  0
    8.5911  -14.7160   23.9502 C   0  0  2  0  0  0  0  0  0  0  0  0
    8.0562  -15.0440   22.6160 N   0  0  0  0  0  0  0  0  0  0  0  0
    8.8539  -15.9784   24.6348 C   0  0  0  0  0  0  0  0  0  0  0  0
    8.0753  -16.9675   24.3890 O   0  0  0  0  0  0  0  0  0  0  0  0
    9.8894  -16.2404   25.5544 N   0  0  0  0  0  0  0  0  0  0  0  0
   10.2130  -17.6030   25.9257 C   0  0  1  0  0  0  0  0  0  0  0  0
   11.4223  -18.1207   25.1781 C   0  0  0  0  0  0  0  0  0  0  0  0
   11.7794  -19.7798   25.8733 S   0  0  0  0  0  0  0  0  0  0  0  0
   10.5160  -17.6837   27.3776 C   0  0  0  0  0  0  0  0  0  0  0  0
   10.4719  -16.5373   28.1297 O   0  0  0  0  0  0  0  0  0  0  0  0
   10.8070  -18.7926   27.8952 O   0  0  0  0  0  0  0  0  0  0  0  0
  2  1  1  6
  2  5  1  0
  3  2  1  0
  3  4  1  0
  5  6  2  0
  7  8  1  0
  9 10  1  0
  9  8  1  0
 11 10  1  1
 11 13  1  0
 12 11  1  0
 12  5  1  0
 13 14  2  0
 13 15  1  0
 15 16  1  0
 16 19  1  0
 16 17  1  6
 18 17  1  0
 19 21  2  0
 19 20  1  0
M  END
$$$$
