NLW.pdb
     RDKit          3D

 31 32  0  0  1  0  0  0  0  0999 V2000
   29.5635  -18.7497  -15.3681 N   0  0  0  0  0  0  0  0  0  0  0  0
   28.1804  -18.5565  -15.5821 C   0  0  0  0  0  0  0  0  0  0  0  0
   27.7398  -17.8146  -16.5137 O   0  0  0  0  0  0  0  0  0  0  0  0
   27.1508  -19.2098  -14.7304 C   0  0  0  0  0  0  0  0  0  0  0  0
   27.8009  -20.2864  -13.8740 C   0  0  2  0  0  0  0  0  0  0  0  0
   28.4005  -21.3123  -14.6822 N   0  0  0  0  0  0  0  0  0  0  0  0
   26.8176  -20.8259  -12.9067 C   0  0  0  0  0  0  0  0  0  0  0  0
   26.0519  -21.7720  -13.2267 O   0  0  0  0  0  0  0  0  0  0  0  0
   27.2774  -20.1527   -7.3498 C   0  0  0  0  0  0  0  0  0  0  0  0
   26.9091  -20.8343   -8.6648 C   0  0  2  0  0  0  0  0  0  0  0  0
   28.1418  -20.8809   -9.5263 C   0  0  0  0  0  0  0  0  0  0  0  0
   25.7857  -20.1087   -9.3524 C   0  0  0  0  0  0  0  0  0  0  0  0
   25.5687  -20.6469  -10.7127 C   0  0  2  0  0  0  0  0  0  0  0  0
   26.6941  -20.3144  -11.6034 N   0  0  0  0  0  0  0  0  0  0  0  0
   24.3596  -20.2456  -11.4212 C   0  0  0  0  0  0  0  0  0  0  0  0
   24.3054  -19.1355  -11.9912 O   0  0  0  0  0  0  0  0  0  0  0  0
   23.1889  -21.0545  -11.5169 N   0  0  0  0  0  0  0  0  0  0  0  0
   22.0298  -20.6430  -12.3380 C   0  0  1  0  0  0  0  0  0  0  0  0
   22.5423  -20.3431  -13.7030 C   0  0  0  0  0  0  0  0  0  0  0  0
   22.5231  -21.4390  -14.6791 C   0  0  0  0  0  0  0  0  0  0  0  0
   21.6719  -21.5030  -15.7767 C   0  0  0  0  0  0  0  0  0  0  0  0
   21.8851  -22.6419  -16.4542 N   0  0  0  0  0  0  0  0  0  0  0  0
   22.8693  -23.3197  -15.8064 C   0  0  0  0  0  0  0  0  0  0  0  0
   23.4586  -24.5380  -16.1118 C   0  0  0  0  0  0  0  0  0  0  0  0
   24.4610  -25.0267  -15.3115 C   0  0  0  0  0  0  0  0  0  0  0  0
   24.8616  -24.2853  -14.2107 C   0  0  0  0  0  0  0  0  0  0  0  0
   24.2911  -23.0914  -13.9019 C   0  0  0  0  0  0  0  0  0  0  0  0
   23.2719  -22.5949  -14.7151 C   0  0  0  0  0  0  0  0  0  0  0  0
   20.9280  -21.5812  -12.2168 C   0  0  0  0  0  0  0  0  0  0  0  0
   21.0907  -22.8787  -11.7647 O   0  0  0  0  0  0  0  0  0  0  0  0
   19.7215  -21.2762  -12.5252 O   0  0  0  0  0  0  0  0  0  0  0  0
  1  2  1  0
  2  4  1  0
  2  3  2  0
  4  5  1  0
  5  6  1  6
  7  8  2  0
  7  5  1  0
 10  9  1  1
 10 12  1  0
 11 10  1  0
 13 12  1  1
 13 14  1  0
 14  7  1  0
 15 13  1  0
 16 15  2  0
 17 15  1  0
 18 29  1  0
 18 17  1  0
 18 19  1  6
 20 19  1  0
 21 20  2  0
 22 21  1  0
 23 22  1  0
 23 28  2  0
 24 25  2  0
 24 23  1  0
 25 26  1  0
 26 27  2  0
 28 27  1  0
 28 20  1  0
 29 30  1  0
 31 29  2  0
M  END
$$$$
