NLW.pdb
     RDKit          3D

 31 32  0  0  1  0  0  0  0  0999 V2000
   25.6512  -14.6854  -15.0043 N   0  0  0  0  0  0  0  0  0  0  0  0
   25.2032  -15.4384  -16.1125 C   0  0  0  0  0  0  0  0  0  0  0  0
   24.7617  -14.8871  -17.1678 O   0  0  0  0  0  0  0  0  0  0  0  0
   25.2201  -16.9258  -16.1153 C   0  0  0  0  0  0  0  0  0  0  0  0
   25.6158  -17.4371  -14.7379 C   0  0  2  0  0  0  0  0  0  0  0  0
   26.8700  -16.8815  -14.3097 N   0  0  0  0  0  0  0  0  0  0  0  0
   25.6167  -18.9181  -14.7291 C   0  0  0  0  0  0  0  0  0  0  0  0
   24.6163  -19.5653  -15.1343 O   0  0  0  0  0  0  0  0  0  0  0  0
   26.9391  -21.9995  -17.1095 C   0  0  0  0  0  0  0  0  0  0  0  0
   28.0291  -21.2979  -16.3038 C   0  0  2  0  0  0  0  0  0  0  0  0
   29.3598  -21.6652  -16.9023 C   0  0  0  0  0  0  0  0  0  0  0  0
   27.9562  -21.6793  -14.8510 C   0  0  0  0  0  0  0  0  0  0  0  0
   26.7317  -21.1339  -14.2264 C   0  0  2  0  0  0  0  0  0  0  0  0
   26.7193  -19.6616  -14.2738 N   0  0  0  0  0  0  0  0  0  0  0  0
   26.4509  -21.4967  -12.8428 C   0  0  0  0  0  0  0  0  0  0  0  0
   26.3242  -22.6972  -12.5221 O   0  0  0  0  0  0  0  0  0  0  0  0
   26.3041  -20.5494  -11.7868 N   0  0  0  0  0  0  0  0  0  0  0  0
   25.9911  -20.9741  -10.4052 C   0  0  1  0  0  0  0  0  0  0  0  0
   27.0475  -20.4092   -9.5216 C   0  0  0  0  0  0  0  0  0  0  0  0
   26.8140  -20.4771   -8.0742 C   0  0  0  0  0  0  0  0  0  0  0  0
   25.6697  -21.0013   -7.4833 C   0  0  0  0  0  0  0  0  0  0  0  0
   25.7533  -20.8908   -6.1483 N   0  0  0  0  0  0  0  0  0  0  0  0
   26.9440  -20.2992   -5.8653 C   0  0  0  0  0  0  0  0  0  0  0  0
   27.5068  -19.9769   -4.6388 C   0  0  0  0  0  0  0  0  0  0  0  0
   28.7467  -19.3899   -4.5944 C   0  0  0  0  0  0  0  0  0  0  0  0
   29.4096  -19.1320   -5.7843 C   0  0  0  0  0  0  0  0  0  0  0  0
   28.8676  -19.4429   -6.9910 C   0  0  0  0  0  0  0  0  0  0  0  0
   27.6071  -20.0390   -7.0362 C   0  0  0  0  0  0  0  0  0  0  0  0
   24.6051  -20.7066  -10.0640 C   0  0  0  0  0  0  0  0  0  0  0  0
   23.7219  -20.0900  -10.9324 O   0  0  0  0  0  0  0  0  0  0  0  0
   24.0987  -21.0188   -8.9283 O   0  0  0  0  0  0  0  0  0  0  0  0
  1  2  1  0
  2  4  1  0
  2  3  2  0
  4  5  1  0
  5  6  1  6
  7  8  2  0
  7  5  1  0
 10  9  1  6
 10 12  1  0
 11 10  1  0
 13 12  1  1
 13 14  1  0
 14  7  1  0
 15 13  1  0
 16 15  2  0
 17 15  1  0
 18 29  1  0
 18 17  1  0
 18 19  1  1
 20 19  1  0
 21 20  2  0
 22 21  1  0
 23 22  1  0
 23 28  2  0
 24 25  2  0
 24 23  1  0
 25 26  1  0
 26 27  2  0
 28 27  1  0
 28 20  1  0
 29 30  1  0
 31 29  2  0
M  END
$$$$
