NLW.pdb
     RDKit          3D

 31 32  0  0  1  0  0  0  0  0999 V2000
   29.1197  -20.3637  -15.7705 N   0  0  0  0  0  0  0  0  0  0  0  0
   29.4837  -21.5645  -15.1213 C   0  0  0  0  0  0  0  0  0  0  0  0
   30.2037  -22.4447  -15.6864 O   0  0  0  0  0  0  0  0  0  0  0  0
   29.0476  -21.8755  -13.7336 C   0  0  0  0  0  0  0  0  0  0  0  0
   28.1926  -20.7369  -13.1971 C   0  0  2  0  0  0  0  0  0  0  0  0
   28.9851  -19.5734  -12.9084 N   0  0  0  0  0  0  0  0  0  0  0  0
   27.4120  -21.1987  -12.0262 C   0  0  0  0  0  0  0  0  0  0  0  0
   26.7481  -22.2668  -12.0754 O   0  0  0  0  0  0  0  0  0  0  0  0
   28.2151  -21.3900   -7.6359 C   0  0  0  0  0  0  0  0  0  0  0  0
   27.9886  -20.0078   -8.2424 C   0  0  2  0  0  0  0  0  0  0  0  0
   28.4295  -18.9799   -7.2361 C   0  0  0  0  0  0  0  0  0  0  0  0
   26.5474  -19.8171   -8.6269 C   0  0  0  0  0  0  0  0  0  0  0  0
   26.2405  -20.5340   -9.8835 C   0  0  2  0  0  0  0  0  0  0  0  0
   27.3754  -20.4764  -10.8210 N   0  0  0  0  0  0  0  0  0  0  0  0
   25.0681  -20.1137  -10.6409 C   0  0  0  0  0  0  0  0  0  0  0  0
   25.1548  -19.1776  -11.4634 O   0  0  0  0  0  0  0  0  0  0  0  0
   23.7803  -20.7123  -10.5096 N   0  0  0  0  0  0  0  0  0  0  0  0
   22.6953  -20.4317  -11.4744 C   0  0  1  0  0  0  0  0  0  0  0  0
   23.1914  -20.8269  -12.8211 C   0  0  0  0  0  0  0  0  0  0  0  0
   22.2647  -20.6658  -13.9478 C   0  0  0  0  0  0  0  0  0  0  0  0
   21.8529  -19.4413  -14.4619 C   0  0  0  0  0  0  0  0  0  0  0  0
   20.9855  -19.6364  -15.4674 N   0  0  0  0  0  0  0  0  0  0  0  0
   20.8299  -20.9790  -15.6125 C   0  0  0  0  0  0  0  0  0  0  0  0
   20.0551  -21.6912  -16.5165 C   0  0  0  0  0  0  0  0  0  0  0  0
   20.0671  -23.0634  -16.4874 C   0  0  0  0  0  0  0  0  0  0  0  0
   20.8587  -23.7072  -15.5488 C   0  0  0  0  0  0  0  0  0  0  0  0
   21.6209  -23.0198  -14.6584 C   0  0  0  0  0  0  0  0  0  0  0  0
   21.6082  -21.6250  -14.6876 C   0  0  0  0  0  0  0  0  0  0  0  0
   21.4273  -20.9820  -11.0289 C   0  0  0  0  0  0  0  0  0  0  0  0
   20.2049  -20.5143  -11.4775 O   0  0  0  0  0  0  0  0  0  0  0  0
   21.3479  -21.9408  -10.1816 O   0  0  0  0  0  0  0  0  0  0  0  0
  1  2  1  0
  2  4  1  0
  2  3  2  0
  4  5  1  0
  5  6  1  1
  7  8  2  0
  7  5  1  0
 10  9  1  1
 10 12  1  0
 11 10  1  0
 13 12  1  1
 13 14  1  0
 14  7  1  0
 15 13  1  0
 16 15  2  0
 17 15  1  0
 18 29  1  0
 18 17  1  0
 18 19  1  6
 20 19  1  0
 21 20  2  0
 22 21  1  0
 23 22  1  0
 23 28  2  0
 24 25  2  0
 24 23  1  0
 25 26  1  0
 26 27  2  0
 28 27  1  0
 28 20  1  0
 29 30  1  0
 31 29  2  0
M  END
$$$$
