NLW.pdb
     RDKit          3D

 31 32  0  0  1  0  0  0  0  0999 V2000
   21.0058  -19.4329  -14.2539 N   0  0  0  0  0  0  0  0  0  0  0  0
   21.7170  -20.3886  -15.0135 C   0  0  0  0  0  0  0  0  0  0  0  0
   21.3126  -20.7815  -16.1513 O   0  0  0  0  0  0  0  0  0  0  0  0
   22.9856  -20.9962  -14.5299 C   0  0  0  0  0  0  0  0  0  0  0  0
   23.2547  -20.5523  -13.0996 C   0  0  2  0  0  0  0  0  0  0  0  0
   23.1879  -19.1226  -12.9700 N   0  0  0  0  0  0  0  0  0  0  0  0
   24.5463  -21.1063  -12.6324 C   0  0  0  0  0  0  0  0  0  0  0  0
   24.7544  -22.3475  -12.6377 O   0  0  0  0  0  0  0  0  0  0  0  0
   27.9064  -21.2018  -14.5118 C   0  0  0  0  0  0  0  0  0  0  0  0
   27.7826  -19.8999  -13.7250 C   0  0  2  0  0  0  0  0  0  0  0  0
   28.7724  -18.9180  -14.2908 C   0  0  0  0  0  0  0  0  0  0  0  0
   28.0167  -20.1319  -12.2578 C   0  0  0  0  0  0  0  0  0  0  0  0
   26.8577  -20.8148  -11.6434 C   0  0  2  0  0  0  0  0  0  0  0  0
   25.5871  -20.2842  -12.1670 N   0  0  0  0  0  0  0  0  0  0  0  0
   26.7399  -20.7871  -10.1907 C   0  0  0  0  0  0  0  0  0  0  0  0
   27.7578  -20.6438   -9.4811 O   0  0  0  0  0  0  0  0  0  0  0  0
   25.5039  -20.9162   -9.4908 N   0  0  0  0  0  0  0  0  0  0  0  0
   25.4448  -20.8824   -8.0135 C   0  0  1  0  0  0  0  0  0  0  0  0
   25.7116  -19.4791   -7.5948 C   0  0  0  0  0  0  0  0  0  0  0  0
   27.0318  -19.1931   -7.0209 C   0  0  0  0  0  0  0  0  0  0  0  0
   27.8768  -18.1770   -7.4533 C   0  0  0  0  0  0  0  0  0  0  0  0
   29.0164  -18.1980   -6.7445 N   0  0  0  0  0  0  0  0  0  0  0  0
   28.9195  -19.2198   -5.8531 C   0  0  0  0  0  0  0  0  0  0  0  0
   29.8220  -19.6473   -4.8900 C   0  0  0  0  0  0  0  0  0  0  0  0
   29.4983  -20.7066   -4.0794 C   0  0  0  0  0  0  0  0  0  0  0  0
   28.2695  -21.3268   -4.2450 C   0  0  0  0  0  0  0  0  0  0  0  0
   27.3784  -20.9168   -5.1854 C   0  0  0  0  0  0  0  0  0  0  0  0
   27.7076  -19.8403   -6.0096 C   0  0  0  0  0  0  0  0  0  0  0  0
   24.2431  -21.5246   -7.5111 C   0  0  0  0  0  0  0  0  0  0  0  0
   24.0845  -21.8938   -6.1871 O   0  0  0  0  0  0  0  0  0  0  0  0
   23.2405  -21.8014   -8.2608 O   0  0  0  0  0  0  0  0  0  0  0  0
  1  2  1  0
  2  4  1  0
  2  3  2  0
  4  5  1  0
  5  6  1  6
  7  8  2  0
  7  5  1  0
 10  9  1  6
 10 12  1  0
 11 10  1  0
 13 12  1  1
 13 14  1  0
 14  7  1  0
 15 13  1  0
 16 15  2  0
 17 15  1  0
 18 29  1  0
 18 17  1  0
 18 19  1  6
 20 19  1  0
 21 20  2  0
 22 21  1  0
 23 22  1  0
 23 28  2  0
 24 25  2  0
 24 23  1  0
 25 26  1  0
 26 27  2  0
 28 27  1  0
 28 20  1  0
 29 30  1  0
 31 29  2  0
M  END
$$$$
