NLW.pdb
     RDKit          3D

 31 32  0  0  1  0  0  0  0  0999 V2000
   24.8196  -16.8958  -18.8411 N   0  0  0  0  0  0  0  0  0  0  0  0
   26.0104  -17.6034  -19.1191 C   0  0  0  0  0  0  0  0  0  0  0  0
   26.7155  -17.3587  -20.1465 O   0  0  0  0  0  0  0  0  0  0  0  0
   26.5156  -18.6805  -18.2264 C   0  0  0  0  0  0  0  0  0  0  0  0
   25.5512  -18.8801  -17.0664 C   0  0  2  0  0  0  0  0  0  0  0  0
   25.5279  -17.7358  -16.1974 N   0  0  0  0  0  0  0  0  0  0  0  0
   25.8764  -20.1338  -16.3481 C   0  0  0  0  0  0  0  0  0  0  0  0
   25.8144  -21.2462  -16.9335 O   0  0  0  0  0  0  0  0  0  0  0  0
   29.2954  -20.9073  -15.6141 C   0  0  0  0  0  0  0  0  0  0  0  0
   28.8403  -20.2700  -14.3041 C   0  0  2  0  0  0  0  0  0  0  0  0
   30.0662  -19.9361  -13.4982 C   0  0  0  0  0  0  0  0  0  0  0  0
   27.9197  -21.1883  -13.5486 C   0  0  0  0  0  0  0  0  0  0  0  0
   26.6454  -21.3688  -14.2771 C   0  0  2  0  0  0  0  0  0  0  0  0
   26.2643  -20.1414  -14.9970 N   0  0  0  0  0  0  0  0  0  0  0  0
   25.4717  -21.7699  -13.5113 C   0  0  0  0  0  0  0  0  0  0  0  0
   25.4206  -22.9031  -12.9885 O   0  0  0  0  0  0  0  0  0  0  0  0
   24.3336  -20.9354  -13.3056 N   0  0  0  0  0  0  0  0  0  0  0  0
   23.1861  -21.3811  -12.4859 C   0  0  1  0  0  0  0  0  0  0  0  0
   23.6795  -21.5449  -11.0911 C   0  0  0  0  0  0  0  0  0  0  0  0
   24.6344  -20.5449  -10.5988 C   0  0  0  0  0  0  0  0  0  0  0  0
   25.1908  -19.5354  -11.3765 C   0  0  0  0  0  0  0  0  0  0  0  0
   26.0442  -18.8082  -10.6387 N   0  0  0  0  0  0  0  0  0  0  0  0
   26.0472  -19.3361   -9.3860 C   0  0  0  0  0  0  0  0  0  0  0  0
   26.7480  -18.9396   -8.2562 C   0  0  0  0  0  0  0  0  0  0  0  0
   26.5785  -19.6228   -7.0779 C   0  0  0  0  0  0  0  0  0  0  0  0
   25.7053  -20.6992   -7.0465 C   0  0  0  0  0  0  0  0  0  0  0  0
   25.0143  -21.0965   -8.1469 C   0  0  0  0  0  0  0  0  0  0  0  0
   25.1871  -20.4024   -9.3448 C   0  0  0  0  0  0  0  0  0  0  0  0
   22.0185  -20.5445  -12.6998 C   0  0  0  0  0  0  0  0  0  0  0  0
   20.7978  -20.7875  -12.0955 O   0  0  0  0  0  0  0  0  0  0  0  0
   22.0325  -19.5196  -13.4700 O   0  0  0  0  0  0  0  0  0  0  0  0
  1  2  1  0
  2  4  1  0
  2  3  2  0
  4  5  1  0
  5  6  1  1
  7  8  2  0
  7  5  1  0
 10  9  1  6
 10 12  1  0
 11 10  1  0
 13 12  1  1
 13 14  1  0
 14  7  1  0
 15 13  1  0
 16 15  2  0
 17 15  1  0
 18 29  1  0
 18 17  1  0
 18 19  1  1
 20 19  1  0
 21 20  2  0
 22 21  1  0
 23 22  1  0
 23 28  2  0
 24 25  2  0
 24 23  1  0
 25 26  1  0
 26 27  2  0
 28 27  1  0
 28 20  1  0
 29 30  1  0
 31 29  2  0
M  END
$$$$
