NWA.pdb
     RDKit          3D

 28 29  0  0  1  0  0  0  0  0999 V2000
   34.2818  -27.7093  -18.7051 N   0  0  0  0  0  0  0  0  0  0  0  0
   33.8124  -28.2270  -19.9474 C   0  0  0  0  0  0  0  0  0  0  0  0
   34.4774  -28.0096  -20.9872 O   0  0  0  0  0  0  0  0  0  0  0  0
   32.5635  -29.0037  -20.0130 C   0  0  0  0  0  0  0  0  0  0  0  0
   32.0855  -29.1783  -18.5756 C   0  0  2  0  0  0  0  0  0  0  0  0
   32.3875  -30.5243  -18.2038 N   0  0  0  0  0  0  0  0  0  0  0  0
   30.5993  -28.9062  -18.4880 C   0  0  0  0  0  0  0  0  0  0  0  0
   29.8189  -29.7679  -18.8954 O   0  0  0  0  0  0  0  0  0  0  0  0
   30.1567  -27.6810  -17.9481 N   0  0  0  0  0  0  0  0  0  0  0  0
   28.8074  -27.2071  -17.8779 C   0  0  1  0  0  0  0  0  0  0  0  0
   28.6746  -26.0068  -16.9871 C   0  0  0  0  0  0  0  0  0  0  0  0
   27.3534  -25.4300  -16.8626 C   0  0  0  0  0  0  0  0  0  0  0  0
   26.3532  -25.9700  -16.0709 C   0  0  0  0  0  0  0  0  0  0  0  0
   25.2928  -25.1636  -16.1657 N   0  0  0  0  0  0  0  0  0  0  0  0
   25.5274  -24.1160  -16.9776 C   0  0  0  0  0  0  0  0  0  0  0  0
   24.7592  -23.0369  -17.3904 C   0  0  0  0  0  0  0  0  0  0  0  0
   25.2591  -22.0951  -18.2526 C   0  0  0  0  0  0  0  0  0  0  0  0
   26.5477  -22.2504  -18.6963 C   0  0  0  0  0  0  0  0  0  0  0  0
   27.3018  -23.3201  -18.2830 C   0  0  0  0  0  0  0  0  0  0  0  0
   26.8401  -24.2937  -17.4162 C   0  0  0  0  0  0  0  0  0  0  0  0
   27.9888  -27.2594  -19.0694 C   0  0  0  0  0  0  0  0  0  0  0  0
   28.3408  -26.7762  -20.1587 O   0  0  0  0  0  0  0  0  0  0  0  0
   25.7516  -29.2227  -20.8894 C   0  0  0  0  0  0  0  0  0  0  0  0
   25.8842  -27.8369  -20.3053 C   0  0  2  0  0  0  0  0  0  0  0  0
   26.6979  -27.8859  -19.0764 N   0  0  0  0  0  0  0  0  0  0  0  0
   24.5630  -27.2872  -19.9040 C   0  0  0  0  0  0  0  0  0  0  0  0
   23.6361  -26.7968  -20.8034 O   0  0  0  0  0  0  0  0  0  0  0  0
   24.2564  -27.2605  -18.6744 O   0  0  0  0  0  0  0  0  0  0  0  0
  2  1  1  0
  2  3  2  0
  4  5  1  0
  4  2  1  0
  5  7  1  0
  5  6  1  6
  7  8  2  0
  9 10  1  0
  9  7  1  0
 10 11  1  6
 11 12  1  0
 12 20  1  0
 13 12  2  0
 13 14  1  0
 14 15  1  0
 15 16  1  0
 16 17  2  0
 18 17  1  0
 19 18  2  0
 20 15  2  0
 20 19  1  0
 21 22  2  0
 21 10  1  0
 24 23  1  1
 24 25  1  0
 24 26  1  0
 25 21  1  0
 26 27  1  0
 28 26  2  0
M  END
$$$$
