NWA.pdb
     RDKit          3D

 28 29  0  0  1  0  0  0  0  0999 V2000
   28.4431  -21.5123  -20.9965 N   0  0  0  0  0  0  0  0  0  0  0  0
   28.2987  -20.9768  -19.6836 C   0  0  0  0  0  0  0  0  0  0  0  0
   28.8706  -19.8982  -19.4003 O   0  0  0  0  0  0  0  0  0  0  0  0
   27.4928  -21.6786  -18.6711 C   0  0  0  0  0  0  0  0  0  0  0  0
   28.4049  -21.9019  -17.4697 C   0  0  2  0  0  0  0  0  0  0  0  0
   29.1514  -23.0904  -17.7368 N   0  0  0  0  0  0  0  0  0  0  0  0
   27.5768  -22.0465  -16.2112 C   0  0  0  0  0  0  0  0  0  0  0  0
   26.8847  -23.0566  -16.0758 O   0  0  0  0  0  0  0  0  0  0  0  0
   27.6209  -21.0254  -15.2395 N   0  0  0  0  0  0  0  0  0  0  0  0
   26.8615  -20.9551  -14.0278 C   0  0  1  0  0  0  0  0  0  0  0  0
   27.5473  -20.1320  -12.9770 C   0  0  0  0  0  0  0  0  0  0  0  0
   26.9917  -20.1845  -11.6419 C   0  0  0  0  0  0  0  0  0  0  0  0
   25.6851  -19.8362  -11.3415 C   0  0  0  0  0  0  0  0  0  0  0  0
   25.5100  -20.0415  -10.0336 N   0  0  0  0  0  0  0  0  0  0  0  0
   26.6266  -20.5059   -9.4425 C   0  0  0  0  0  0  0  0  0  0  0  0
   26.9411  -20.8564   -8.1374 C   0  0  0  0  0  0  0  0  0  0  0  0
   28.1930  -21.3045   -7.8023 C   0  0  0  0  0  0  0  0  0  0  0  0
   29.1297  -21.3985   -8.8000 C   0  0  0  0  0  0  0  0  0  0  0  0
   28.8110  -21.0507  -10.0888 C   0  0  0  0  0  0  0  0  0  0  0  0
   27.5635  -20.5936  -10.4728 C   0  0  0  0  0  0  0  0  0  0  0  0
   25.4196  -20.8775  -14.1139 C   0  0  0  0  0  0  0  0  0  0  0  0
   24.8180  -19.9026  -14.5951 O   0  0  0  0  0  0  0  0  0  0  0  0
   22.5914  -23.2104  -14.2978 C   0  0  0  0  0  0  0  0  0  0  0  0
   23.1212  -21.8565  -13.8913 C   0  0  2  0  0  0  0  0  0  0  0  0
   24.5732  -21.9382  -13.6473 N   0  0  0  0  0  0  0  0  0  0  0  0
   22.5135  -21.3953  -12.6158 C   0  0  0  0  0  0  0  0  0  0  0  0
   21.1898  -21.0192  -12.4940 O   0  0  0  0  0  0  0  0  0  0  0  0
   23.2361  -21.3388  -11.5760 O   0  0  0  0  0  0  0  0  0  0  0  0
  2  1  1  0
  2  3  2  0
  4  5  1  0
  4  2  1  0
  5  7  1  0
  5  6  1  6
  7  8  2  0
  9 10  1  0
  9  7  1  0
 10 11  1  6
 11 12  1  0
 12 20  1  0
 13 12  2  0
 13 14  1  0
 14 15  1  0
 15 16  1  0
 16 17  2  0
 18 17  1  0
 19 18  2  0
 20 15  2  0
 20 19  1  0
 21 22  2  0
 21 10  1  0
 24 23  1  1
 24 25  1  0
 24 26  1  0
 25 21  1  0
 26 27  1  0
 28 26  2  0
M  END
$$$$
