NWA.pdb
     RDKit          3D

 28 29  0  0  1  0  0  0  0  0999 V2000
   23.7742  -31.4951  -12.2560 N   0  0  0  0  0  0  0  0  0  0  0  0
   23.2634  -32.7812  -11.9146 C   0  0  0  0  0  0  0  0  0  0  0  0
   22.2514  -33.2128  -12.5149 O   0  0  0  0  0  0  0  0  0  0  0  0
   23.9101  -33.5928  -10.8704 C   0  0  0  0  0  0  0  0  0  0  0  0
   25.1250  -32.8021  -10.3971 C   0  0  2  0  0  0  0  0  0  0  0  0
   26.1244  -32.9414  -11.4084 N   0  0  0  0  0  0  0  0  0  0  0  0
   25.6098  -33.3439   -9.0697 C   0  0  0  0  0  0  0  0  0  0  0  0
   24.7727  -33.6694   -8.2266 O   0  0  0  0  0  0  0  0  0  0  0  0
   26.9966  -33.4561   -8.8396 N   0  0  0  0  0  0  0  0  0  0  0  0
   27.6390  -33.8635   -7.6266 C   0  0  1  0  0  0  0  0  0  0  0  0
   29.1181  -34.0456   -7.8030 C   0  0  0  0  0  0  0  0  0  0  0  0
   29.8406  -34.6264   -6.6920 C   0  0  0  0  0  0  0  0  0  0  0  0
   29.3011  -35.5752   -5.8391 C   0  0  0  0  0  0  0  0  0  0  0  0
   30.2530  -35.9101   -4.9643 N   0  0  0  0  0  0  0  0  0  0  0  0
   31.3980  -35.2373   -5.1834 C   0  0  0  0  0  0  0  0  0  0  0  0
   32.6365  -35.2309   -4.5580 C   0  0  0  0  0  0  0  0  0  0  0  0
   33.6512  -34.4190   -4.9957 C   0  0  0  0  0  0  0  0  0  0  0  0
   33.4058  -33.6105   -6.0763 C   0  0  0  0  0  0  0  0  0  0  0  0
   32.1784  -33.6228   -6.6903 C   0  0  0  0  0  0  0  0  0  0  0  0
   31.1265  -34.4234   -6.2838 C   0  0  0  0  0  0  0  0  0  0  0  0
   27.1694  -33.3159   -6.3728 C   0  0  0  0  0  0  0  0  0  0  0  0
   27.4273  -32.1604   -5.9957 O   0  0  0  0  0  0  0  0  0  0  0  0
   24.4044  -33.7147   -4.0464 C   0  0  0  0  0  0  0  0  0  0  0  0
   25.8787  -33.4440   -4.2261 C   0  0  2  0  0  0  0  0  0  0  0  0
   26.3579  -34.0787   -5.4679 N   0  0  0  0  0  0  0  0  0  0  0  0
   26.6790  -34.0379   -3.1235 C   0  0  0  0  0  0  0  0  0  0  0  0
   27.5454  -35.0999   -3.2966 O   0  0  0  0  0  0  0  0  0  0  0  0
   26.5711  -33.5547   -1.9567 O   0  0  0  0  0  0  0  0  0  0  0  0
  2  1  1  0
  2  3  2  0
  4  5  1  0
  4  2  1  0
  5  7  1  0
  5  6  1  6
  7  8  2  0
  9 10  1  0
  9  7  1  0
 10 11  1  6
 11 12  1  0
 12 20  1  0
 13 12  2  0
 13 14  1  0
 14 15  1  0
 15 16  1  0
 16 17  2  0
 18 17  1  0
 19 18  2  0
 20 15  2  0
 20 19  1  0
 21 22  2  0
 21 10  1  0
 24 23  1  1
 24 25  1  0
 24 26  1  0
 25 21  1  0
 26 27  1  0
 28 26  2  0
M  END
$$$$
