NWA.pdb
     RDKit          3D

 28 29  0  0  1  0  0  0  0  0999 V2000
   28.0944  -21.6239  -21.0273 N   0  0  0  0  0  0  0  0  0  0  0  0
   27.8383  -21.0327  -19.7560 C   0  0  0  0  0  0  0  0  0  0  0  0
   28.1935  -19.8480  -19.5534 O   0  0  0  0  0  0  0  0  0  0  0  0
   27.1692  -21.7998  -18.6925 C   0  0  0  0  0  0  0  0  0  0  0  0
   28.0444  -21.6731  -17.4503 C   0  0  2  0  0  0  0  0  0  0  0  0
   29.0753  -22.6547  -17.5732 N   0  0  0  0  0  0  0  0  0  0  0  0
   27.2138  -21.9040  -16.2064 C   0  0  0  0  0  0  0  0  0  0  0  0
   26.4519  -22.8717  -16.1796 O   0  0  0  0  0  0  0  0  0  0  0  0
   27.3353  -21.0082  -15.1241 N   0  0  0  0  0  0  0  0  0  0  0  0
   26.5907  -21.0275  -13.9013 C   0  0  1  0  0  0  0  0  0  0  0  0
   27.2075  -20.1531  -12.8492 C   0  0  0  0  0  0  0  0  0  0  0  0
   26.6647  -20.2599  -11.5121 C   0  0  0  0  0  0  0  0  0  0  0  0
   25.3227  -20.0897  -11.2141 C   0  0  0  0  0  0  0  0  0  0  0  0
   25.1778  -20.2959   -9.9026 N   0  0  0  0  0  0  0  0  0  0  0  0
   26.3478  -20.5927   -9.3069 C   0  0  0  0  0  0  0  0  0  0  0  0
   26.7078  -20.8754   -7.9971 C   0  0  0  0  0  0  0  0  0  0  0  0
   28.0095  -21.1417   -7.6579 C   0  0  0  0  0  0  0  0  0  0  0  0
   28.9500  -21.1221   -8.6563 C   0  0  0  0  0  0  0  0  0  0  0  0
   28.5862  -20.8424   -9.9497 C   0  0  0  0  0  0  0  0  0  0  0  0
   27.2876  -20.5675  -10.3379 C   0  0  0  0  0  0  0  0  0  0  0  0
   25.1471  -21.0917  -13.9667 C   0  0  0  0  0  0  0  0  0  0  0  0
   24.4355  -20.1187  -14.2682 O   0  0  0  0  0  0  0  0  0  0  0  0
   22.4904  -23.7648  -13.9636 C   0  0  0  0  0  0  0  0  0  0  0  0
   22.9693  -22.3343  -13.9043 C   0  0  2  0  0  0  0  0  0  0  0  0
   24.4278  -22.3019  -13.6889 N   0  0  0  0  0  0  0  0  0  0  0  0
   22.3663  -21.6060  -12.7577 C   0  0  0  0  0  0  0  0  0  0  0  0
   23.0693  -21.2584  -11.6204 O   0  0  0  0  0  0  0  0  0  0  0  0
   21.1426  -21.2800  -12.8120 O   0  0  0  0  0  0  0  0  0  0  0  0
  2  1  1  0
  2  3  2  0
  4  5  1  0
  4  2  1  0
  5  7  1  0
  5  6  1  6
  7  8  2  0
  9 10  1  0
  9  7  1  0
 10 11  1  6
 11 12  1  0
 12 20  1  0
 13 12  2  0
 13 14  1  0
 14 15  1  0
 15 16  1  0
 16 17  2  0
 18 17  1  0
 19 18  2  0
 20 15  2  0
 20 19  1  0
 21 22  2  0
 21 10  1  0
 24 23  1  1
 24 25  1  0
 24 26  1  0
 25 21  1  0
 26 27  1  0
 28 26  2  0
M  END
$$$$
