NWA.pdb
     RDKit          3D

 28 29  0  0  1  0  0  0  0  0999 V2000
   28.0060  -16.3272  -17.2117 N   0  0  0  0  0  0  0  0  0  0  0  0
   28.1173  -16.9739  -15.9464 C   0  0  0  0  0  0  0  0  0  0  0  0
   29.1140  -16.7332  -15.2259 O   0  0  0  0  0  0  0  0  0  0  0  0
   27.0803  -17.9139  -15.4901 C   0  0  0  0  0  0  0  0  0  0  0  0
   27.7964  -19.2149  -15.1440 C   0  0  2  0  0  0  0  0  0  0  0  0
   28.3868  -19.6925  -16.3542 N   0  0  0  0  0  0  0  0  0  0  0  0
   26.8090  -20.2159  -14.5841 C   0  0  0  0  0  0  0  0  0  0  0  0
   25.9922  -20.7279  -15.3511 O   0  0  0  0  0  0  0  0  0  0  0  0
   26.8527  -20.5276  -13.2095 N   0  0  0  0  0  0  0  0  0  0  0  0
   25.9591  -21.3854  -12.4912 C   0  0  1  0  0  0  0  0  0  0  0  0
   26.5953  -21.9624  -11.2607 C   0  0  0  0  0  0  0  0  0  0  0  0
   26.5197  -21.1678  -10.0538 C   0  0  0  0  0  0  0  0  0  0  0  0
   25.4078  -20.4241   -9.6944 C   0  0  0  0  0  0  0  0  0  0  0  0
   25.6740  -19.8558   -8.5155 N   0  0  0  0  0  0  0  0  0  0  0  0
   26.9021  -20.1765   -8.0675 C   0  0  0  0  0  0  0  0  0  0  0  0
   27.6214  -19.8404   -6.9296 C   0  0  0  0  0  0  0  0  0  0  0  0
   28.8913  -20.3151   -6.7238 C   0  0  0  0  0  0  0  0  0  0  0  0
   29.4322  -21.1372   -7.6793 C   0  0  0  0  0  0  0  0  0  0  0  0
   28.7144  -21.4659   -8.8019 C   0  0  0  0  0  0  0  0  0  0  0  0
   27.4325  -21.0109   -9.0520 C   0  0  0  0  0  0  0  0  0  0  0  0
   24.5578  -21.0326  -12.4265 C   0  0  0  0  0  0  0  0  0  0  0  0
   24.1513  -19.8585  -12.4140 O   0  0  0  0  0  0  0  0  0  0  0  0
   22.0458  -20.2103  -11.6894 C   0  0  0  0  0  0  0  0  0  0  0  0
   22.1188  -21.5986  -12.2781 C   0  0  2  0  0  0  0  0  0  0  0  0
   23.5259  -22.0286  -12.3766 N   0  0  0  0  0  0  0  0  0  0  0  0
   21.5792  -21.6314  -13.6625 C   0  0  0  0  0  0  0  0  0  0  0  0
   20.2551  -21.3856  -13.9707 O   0  0  0  0  0  0  0  0  0  0  0  0
   22.3638  -21.8976  -14.6216 O   0  0  0  0  0  0  0  0  0  0  0  0
  2  1  1  0
  2  3  2  0
  4  5  1  0
  4  2  1  0
  5  7  1  0
  5  6  1  6
  7  8  2  0
  9 10  1  0
  9  7  1  0
 10 11  1  1
 11 12  1  0
 12 20  1  0
 13 12  2  0
 13 14  1  0
 14 15  1  0
 15 16  1  0
 16 17  2  0
 18 17  1  0
 19 18  2  0
 20 15  2  0
 20 19  1  0
 21 22  2  0
 21 10  1  0
 24 23  1  6
 24 25  1  0
 24 26  1  0
 25 21  1  0
 26 27  1  0
 28 26  2  0
M  END
$$$$
