NWA.pdb
     RDKit          3D

 28 29  0  0  1  0  0  0  0  0999 V2000
   29.5850  -20.6441  -16.2182 N   0  0  0  0  0  0  0  0  0  0  0  0
   28.3257  -20.0037  -16.4065 C   0  0  0  0  0  0  0  0  0  0  0  0
   28.1333  -19.3346  -17.4486 O   0  0  0  0  0  0  0  0  0  0  0  0
   27.2647  -20.1213  -15.3927 C   0  0  0  0  0  0  0  0  0  0  0  0
   27.8468  -20.9455  -14.2495 C   0  0  2  0  0  0  0  0  0  0  0  0
   28.3874  -22.1322  -14.8334 N   0  0  0  0  0  0  0  0  0  0  0  0
   26.7638  -21.2740  -13.2447 C   0  0  0  0  0  0  0  0  0  0  0  0
   25.9904  -22.1995  -13.4955 O   0  0  0  0  0  0  0  0  0  0  0  0
   26.6725  -20.5132  -12.0609 N   0  0  0  0  0  0  0  0  0  0  0  0
   25.6037  -20.5260  -11.1082 C   0  0  1  0  0  0  0  0  0  0  0  0
   26.0120  -19.9331   -9.7915 C   0  0  0  0  0  0  0  0  0  0  0  0
   27.2101  -20.4661   -9.1798 C   0  0  0  0  0  0  0  0  0  0  0  0
   28.0311  -21.4004   -9.7895 C   0  0  0  0  0  0  0  0  0  0  0  0
   29.0527  -21.6323   -8.9610 N   0  0  0  0  0  0  0  0  0  0  0  0
   28.9597  -20.9069   -7.8310 C   0  0  0  0  0  0  0  0  0  0  0  0
   29.7488  -20.8042   -6.6945 C   0  0  0  0  0  0  0  0  0  0  0  0
   29.4055  -19.9696   -5.6621 C   0  0  0  0  0  0  0  0  0  0  0  0
   28.2543  -19.2342   -5.7866 C   0  0  0  0  0  0  0  0  0  0  0  0
   27.4791  -19.3405   -6.9142 C   0  0  0  0  0  0  0  0  0  0  0  0
   27.7850  -20.1684   -7.9789 C   0  0  0  0  0  0  0  0  0  0  0  0
   24.2556  -20.2807  -11.5718 C   0  0  0  0  0  0  0  0  0  0  0  0
   23.9172  -19.2405  -12.1611 O   0  0  0  0  0  0  0  0  0  0  0  0
   21.6872  -21.9858  -13.1488 C   0  0  0  0  0  0  0  0  0  0  0  0
   21.8958  -20.9997  -12.0248 C   0  0  2  0  0  0  0  0  0  0  0  0
   23.2027  -21.2375  -11.3845 N   0  0  0  0  0  0  0  0  0  0  0  0
   20.8760  -21.1685  -10.9570 C   0  0  0  0  0  0  0  0  0  0  0  0
   21.1788  -21.5687   -9.6699 O   0  0  0  0  0  0  0  0  0  0  0  0
   19.6595  -20.9365  -11.2269 O   0  0  0  0  0  0  0  0  0  0  0  0
  2  1  1  0
  2  3  2  0
  4  5  1  0
  4  2  1  0
  5  7  1  0
  5  6  1  6
  7  8  2  0
  9 10  1  0
  9  7  1  0
 10 11  1  1
 11 12  1  0
 12 20  1  0
 13 12  2  0
 13 14  1  0
 14 15  1  0
 15 16  1  0
 16 17  2  0
 18 17  1  0
 19 18  2  0
 20 15  2  0
 20 19  1  0
 21 22  2  0
 21 10  1  0
 24 23  1  6
 24 25  1  0
 24 26  1  0
 25 21  1  0
 26 27  1  0
 28 26  2  0
M  END
$$$$
