NWA.pdb
     RDKit          3D

 28 29  0  0  1  0  0  0  0  0999 V2000
   29.6555  -20.3127  -16.3211 N   0  0  0  0  0  0  0  0  0  0  0  0
   28.4559  -19.5434  -16.2980 C   0  0  0  0  0  0  0  0  0  0  0  0
   28.3821  -18.5102  -17.0035 O   0  0  0  0  0  0  0  0  0  0  0  0
   27.3187  -19.9513  -15.4567 C   0  0  0  0  0  0  0  0  0  0  0  0
   27.7380  -21.2387  -14.7555 C   0  0  2  0  0  0  0  0  0  0  0  0
   27.5505  -22.2978  -15.6960 N   0  0  0  0  0  0  0  0  0  0  0  0
   26.8953  -21.4511  -13.5164 C   0  0  0  0  0  0  0  0  0  0  0  0
   25.7487  -21.8806  -13.6519 O   0  0  0  0  0  0  0  0  0  0  0  0
   27.4447  -21.1500  -12.2530 N   0  0  0  0  0  0  0  0  0  0  0  0
   26.7436  -21.0574  -11.0080 C   0  0  1  0  0  0  0  0  0  0  0  0
   27.6767  -20.8983   -9.8435 C   0  0  0  0  0  0  0  0  0  0  0  0
   27.0789  -20.5564   -8.5709 C   0  0  0  0  0  0  0  0  0  0  0  0
   25.7115  -20.4979   -8.3578 C   0  0  0  0  0  0  0  0  0  0  0  0
   25.5227  -20.1932   -7.0713 N   0  0  0  0  0  0  0  0  0  0  0  0
   26.6871  -20.0430   -6.4129 C   0  0  0  0  0  0  0  0  0  0  0  0
   27.0082  -19.7282   -5.1003 C   0  0  0  0  0  0  0  0  0  0  0  0
   28.3130  -19.6302   -4.6903 C   0  0  0  0  0  0  0  0  0  0  0  0
   29.2967  -19.8551   -5.6194 C   0  0  0  0  0  0  0  0  0  0  0  0
   28.9713  -20.1668   -6.9158 C   0  0  0  0  0  0  0  0  0  0  0  0
   27.6711  -20.2758   -7.3743 C   0  0  0  0  0  0  0  0  0  0  0  0
   25.4856  -20.3444  -10.9694 C   0  0  0  0  0  0  0  0  0  0  0  0
   25.3976  -19.1330  -10.7074 O   0  0  0  0  0  0  0  0  0  0  0  0
   22.5604  -20.2072  -12.8337 C   0  0  0  0  0  0  0  0  0  0  0  0
   23.0198  -20.1759  -11.3960 C   0  0  2  0  0  0  0  0  0  0  0  0
   24.2357  -20.9954  -11.2396 N   0  0  0  0  0  0  0  0  0  0  0  0
   22.0034  -20.7675  -10.4873 C   0  0  0  0  0  0  0  0  0  0  0  0
   22.1426  -22.0057   -9.8907 O   0  0  0  0  0  0  0  0  0  0  0  0
   20.9473  -20.1127  -10.2372 O   0  0  0  0  0  0  0  0  0  0  0  0
  2  1  1  0
  2  3  2  0
  4  5  1  0
  4  2  1  0
  5  7  1  0
  5  6  1  6
  7  8  2  0
  9 10  1  0
  9  7  1  0
 10 11  1  1
 11 12  1  0
 12 20  1  0
 13 12  2  0
 13 14  1  0
 14 15  1  0
 15 16  1  0
 16 17  2  0
 18 17  1  0
 19 18  2  0
 20 15  2  0
 20 19  1  0
 21 22  2  0
 21 10  1  0
 24 23  1  6
 24 25  1  0
 24 26  1  0
 25 21  1  0
 26 27  1  0
 28 26  2  0
M  END
$$$$
