NWA.pdb
     RDKit          3D

 28 29  0  0  1  0  0  0  0  0999 V2000
   15.4159  -28.8736   -8.1321 N   0  0  0  0  0  0  0  0  0  0  0  0
   15.8511  -28.8647   -6.7749 C   0  0  0  0  0  0  0  0  0  0  0  0
   15.9885  -29.9553   -6.1730 O   0  0  0  0  0  0  0  0  0  0  0  0
   16.1331  -27.5949   -6.0854 C   0  0  0  0  0  0  0  0  0  0  0  0
   15.8882  -26.4856   -7.1025 C   0  0  2  0  0  0  0  0  0  0  0  0
   17.0869  -26.3606   -7.8697 N   0  0  0  0  0  0  0  0  0  0  0  0
   15.5576  -25.1927   -6.3885 C   0  0  0  0  0  0  0  0  0  0  0  0
   16.4595  -24.6047   -5.7899 O   0  0  0  0  0  0  0  0  0  0  0  0
   14.2348  -24.7057   -6.4282 N   0  0  0  0  0  0  0  0  0  0  0  0
   13.7331  -23.5211   -5.7998 C   0  0  1  0  0  0  0  0  0  0  0  0
   12.7123  -22.8198   -6.6473 C   0  0  0  0  0  0  0  0  0  0  0  0
   12.2010  -21.5625   -6.1456 C   0  0  0  0  0  0  0  0  0  0  0  0
   12.7078  -20.3273   -6.5146 C   0  0  0  0  0  0  0  0  0  0  0  0
   11.9775  -19.3969   -5.8944 N   0  0  0  0  0  0  0  0  0  0  0  0
   11.0122  -19.9408   -5.1301 C   0  0  0  0  0  0  0  0  0  0  0  0
   10.0291  -19.4065   -4.3098 C   0  0  0  0  0  0  0  0  0  0  0  0
    9.1592  -20.2133   -3.6222 C   0  0  0  0  0  0  0  0  0  0  0  0
    9.2886  -21.5707   -3.7708 C   0  0  0  0  0  0  0  0  0  0  0  0
   10.2631  -22.0920   -4.5847 C   0  0  0  0  0  0  0  0  0  0  0  0
   11.1618  -21.3182   -5.2960 C   0  0  0  0  0  0  0  0  0  0  0  0
   13.5362  -23.5238   -4.3668 C   0  0  0  0  0  0  0  0  0  0  0  0
   12.9097  -24.4138   -3.7674 O   0  0  0  0  0  0  0  0  0  0  0  0
   12.3955  -22.7244   -1.7563 C   0  0  0  0  0  0  0  0  0  0  0  0
   13.8653  -22.5766   -2.0678 C   0  0  2  0  0  0  0  0  0  0  0  0
   14.0627  -22.4865   -3.5264 N   0  0  0  0  0  0  0  0  0  0  0  0
   14.6384  -23.7639   -1.6190 C   0  0  0  0  0  0  0  0  0  0  0  0
   15.9684  -23.7123   -1.2487 O   0  0  0  0  0  0  0  0  0  0  0  0
   14.0600  -24.8905   -1.5683 O   0  0  0  0  0  0  0  0  0  0  0  0
  2  1  1  0
  2  3  2  0
  4  5  1  0
  4  2  1  0
  5  7  1  0
  5  6  1  1
  7  8  2  0
  9 10  1  0
  9  7  1  0
 10 11  1  6
 11 12  1  0
 12 20  1  0
 13 12  2  0
 13 14  1  0
 14 15  1  0
 15 16  1  0
 16 17  2  0
 18 17  1  0
 19 18  2  0
 20 15  2  0
 20 19  1  0
 21 22  2  0
 21 10  1  0
 24 23  1  6
 24 25  1  0
 24 26  1  0
 25 21  1  0
 26 27  1  0
 28 26  2  0
M  END
$$$$
