NWA.pdb
     RDKit          3D

 28 29  0  0  1  0  0  0  0  0999 V2000
   27.9027  -19.1393  -15.0116 N   0  0  0  0  0  0  0  0  0  0  0  0
   28.6523  -20.3444  -14.8809 C   0  0  0  0  0  0  0  0  0  0  0  0
   29.3750  -20.7177  -15.8344 O   0  0  0  0  0  0  0  0  0  0  0  0
   28.5794  -21.1437  -13.6468 C   0  0  0  0  0  0  0  0  0  0  0  0
   27.5774  -20.4434  -12.7353 C   0  0  2  0  0  0  0  0  0  0  0  0
   28.1635  -19.1943  -12.3646 N   0  0  0  0  0  0  0  0  0  0  0  0
   27.2980  -21.2997  -11.5191 C   0  0  0  0  0  0  0  0  0  0  0  0
   27.5880  -22.4961  -11.5634 O   0  0  0  0  0  0  0  0  0  0  0  0
   26.7155  -20.7054  -10.3806 N   0  0  0  0  0  0  0  0  0  0  0  0
   25.4222  -20.9800   -9.8312 C   0  0  1  0  0  0  0  0  0  0  0  0
   25.4014  -20.8438   -8.3369 C   0  0  0  0  0  0  0  0  0  0  0  0
   26.4741  -20.0804   -7.7367 C   0  0  0  0  0  0  0  0  0  0  0  0
   26.8838  -18.8404   -8.1987 C   0  0  0  0  0  0  0  0  0  0  0  0
   27.8594  -18.4178   -7.3906 N   0  0  0  0  0  0  0  0  0  0  0  0
   28.1262  -19.3064   -6.4153 C   0  0  0  0  0  0  0  0  0  0  0  0
   29.0320  -19.3278   -5.3646 C   0  0  0  0  0  0  0  0  0  0  0  0
   29.0972  -20.3917   -4.5020 C   0  0  0  0  0  0  0  0  0  0  0  0
   28.2354  -21.4389   -4.7078 C   0  0  0  0  0  0  0  0  0  0  0  0
   27.3416  -21.4103   -5.7490 C   0  0  0  0  0  0  0  0  0  0  0  0
   27.2406  -20.3603   -6.6433 C   0  0  0  0  0  0  0  0  0  0  0  0
   24.2501  -20.5565  -10.5656 C   0  0  0  0  0  0  0  0  0  0  0  0
   23.8676  -19.3753  -10.6145 O   0  0  0  0  0  0  0  0  0  0  0  0
   21.9383  -21.9476  -13.1730 C   0  0  0  0  0  0  0  0  0  0  0  0
   22.2893  -20.9759  -12.0722 C   0  0  2  0  0  0  0  0  0  0  0  0
   23.4400  -21.4838  -11.3025 N   0  0  0  0  0  0  0  0  0  0  0  0
   21.1746  -20.8295  -11.1002 C   0  0  0  0  0  0  0  0  0  0  0  0
   21.2244  -21.3079   -9.8052 O   0  0  0  0  0  0  0  0  0  0  0  0
   20.1154  -20.2364  -11.4648 O   0  0  0  0  0  0  0  0  0  0  0  0
  2  1  1  0
  2  3  2  0
  4  5  1  0
  4  2  1  0
  5  7  1  0
  5  6  1  1
  7  8  2  0
  9 10  1  0
  9  7  1  0
 10 11  1  1
 11 12  1  0
 12 20  1  0
 13 12  2  0
 13 14  1  0
 14 15  1  0
 15 16  1  0
 16 17  2  0
 18 17  1  0
 19 18  2  0
 20 15  2  0
 20 19  1  0
 21 22  2  0
 21 10  1  0
 24 23  1  6
 24 25  1  0
 24 26  1  0
 25 21  1  0
 26 27  1  0
 28 26  2  0
M  END
$$$$
