NWA.pdb
     RDKit          3D

 28 29  0  0  1  0  0  0  0  0999 V2000
   29.2345  -23.8725  -19.3516 N   0  0  0  0  0  0  0  0  0  0  0  0
   28.6252  -22.7915  -18.6504 C   0  0  0  0  0  0  0  0  0  0  0  0
   28.8766  -21.6166  -19.0068 O   0  0  0  0  0  0  0  0  0  0  0  0
   27.7155  -23.0468  -17.5214 C   0  0  0  0  0  0  0  0  0  0  0  0
   28.2405  -22.2271  -16.3477 C   0  0  2  0  0  0  0  0  0  0  0  0
   29.4119  -22.8934  -15.8735 N   0  0  0  0  0  0  0  0  0  0  0  0
   27.1855  -22.1377  -15.2662 C   0  0  0  0  0  0  0  0  0  0  0  0
   26.3808  -23.0634  -15.1520 O   0  0  0  0  0  0  0  0  0  0  0  0
   27.1552  -21.0030  -14.4294 N   0  0  0  0  0  0  0  0  0  0  0  0
   26.2511  -20.7537  -13.3475 C   0  0  1  0  0  0  0  0  0  0  0  0
   26.8301  -19.8135  -12.3312 C   0  0  0  0  0  0  0  0  0  0  0  0
   27.7489  -20.3800  -11.3676 C   0  0  0  0  0  0  0  0  0  0  0  0
   28.9730  -20.9316  -11.7085 C   0  0  0  0  0  0  0  0  0  0  0  0
   29.5646  -21.3168  -10.5748 N   0  0  0  0  0  0  0  0  0  0  0  0
   28.8040  -21.0554   -9.4955 C   0  0  0  0  0  0  0  0  0  0  0  0
   28.9723  -21.2674   -8.1347 C   0  0  0  0  0  0  0  0  0  0  0  0
   28.0075  -20.9004   -7.2320 C   0  0  0  0  0  0  0  0  0  0  0  0
   26.8660  -20.3131   -7.7155 C   0  0  0  0  0  0  0  0  0  0  0  0
   26.7070  -20.1059   -9.0629 C   0  0  0  0  0  0  0  0  0  0  0  0
   27.6515  -20.4598  -10.0091 C   0  0  0  0  0  0  0  0  0  0  0  0
   24.8362  -20.6550  -13.6318 C   0  0  0  0  0  0  0  0  0  0  0  0
   24.3519  -19.7944  -14.3860 O   0  0  0  0  0  0  0  0  0  0  0  0
   21.8350  -22.7210  -13.7157 C   0  0  0  0  0  0  0  0  0  0  0  0
   22.4513  -21.3865  -13.3713 C   0  0  2  0  0  0  0  0  0  0  0  0
   23.8818  -21.5601  -13.0582 N   0  0  0  0  0  0  0  0  0  0  0  0
   21.8309  -20.7986  -12.1555 C   0  0  0  0  0  0  0  0  0  0  0  0
   20.5346  -20.3226  -12.1151 O   0  0  0  0  0  0  0  0  0  0  0  0
   22.5155  -20.7232  -11.0915 O   0  0  0  0  0  0  0  0  0  0  0  0
  2  1  1  0
  2  3  2  0
  4  5  1  0
  4  2  1  0
  5  7  1  0
  5  6  1  1
  7  8  2  0
  9 10  1  0
  9  7  1  0
 10 11  1  6
 11 12  1  0
 12 20  1  0
 13 12  2  0
 13 14  1  0
 14 15  1  0
 15 16  1  0
 16 17  2  0
 18 17  1  0
 19 18  2  0
 20 15  2  0
 20 19  1  0
 21 22  2  0
 21 10  1  0
 24 23  1  1
 24 25  1  0
 24 26  1  0
 25 21  1  0
 26 27  1  0
 28 26  2  0
M  END
$$$$
