NWA.pdb
     RDKit          3D

 28 29  0  0  1  0  0  0  0  0999 V2000
   21.5451  -14.6842  -18.4792 N   0  0  0  0  0  0  0  0  0  0  0  0
   21.8940  -13.3514  -18.8443 C   0  0  0  0  0  0  0  0  0  0  0  0
   22.0901  -13.0833  -20.0527 O   0  0  0  0  0  0  0  0  0  0  0  0
   22.0263  -12.3027  -17.8197 C   0  0  0  0  0  0  0  0  0  0  0  0
   21.8159  -10.9712  -18.5324 C   0  0  2  0  0  0  0  0  0  0  0  0
   23.0102  -10.7083  -19.2712 N   0  0  0  0  0  0  0  0  0  0  0  0
   21.5467   -9.8791  -17.5198 C   0  0  0  0  0  0  0  0  0  0  0  0
   20.6262  -10.0364  -16.7164 O   0  0  0  0  0  0  0  0  0  0  0  0
   22.3518   -8.7213  -17.5288 N   0  0  0  0  0  0  0  0  0  0  0  0
   22.2190   -7.5725  -16.6848 C   0  0  1  0  0  0  0  0  0  0  0  0
   23.4014   -7.3970  -15.7775 C   0  0  0  0  0  0  0  0  0  0  0  0
   24.0605   -8.6029  -15.3246 C   0  0  0  0  0  0  0  0  0  0  0  0
   23.4950   -9.4947  -14.4281 C   0  0  0  0  0  0  0  0  0  0  0  0
   24.3593  -10.5004  -14.2696 N   0  0  0  0  0  0  0  0  0  0  0  0
   25.4715  -10.3301  -15.0084 C   0  0  0  0  0  0  0  0  0  0  0  0
   26.6299  -11.0751  -15.1761 C   0  0  0  0  0  0  0  0  0  0  0  0
   27.6347  -10.6520  -16.0079 C   0  0  0  0  0  0  0  0  0  0  0  0
   27.4599   -9.4657  -16.6740 C   0  0  0  0  0  0  0  0  0  0  0  0
   26.3110   -8.7346  -16.5037 C   0  0  0  0  0  0  0  0  0  0  0  0
   25.2727   -9.1210  -15.6759 C   0  0  0  0  0  0  0  0  0  0  0  0
   21.5960   -6.3827  -17.2221 C   0  0  0  0  0  0  0  0  0  0  0  0
   22.1969   -5.5637  -17.9377 O   0  0  0  0  0  0  0  0  0  0  0  0
   18.1789   -5.0560  -17.8518 C   0  0  0  0  0  0  0  0  0  0  0  0
   19.6446   -4.8434  -17.5592 C   0  0  2  0  0  0  0  0  0  0  0  0
   20.2203   -6.0646  -16.9660 N   0  0  0  0  0  0  0  0  0  0  0  0
   19.8484   -3.7630  -16.5592 C   0  0  0  0  0  0  0  0  0  0  0  0
   19.9109   -2.4224  -16.8871 O   0  0  0  0  0  0  0  0  0  0  0  0
   19.9731   -4.0730  -15.3365 O   0  0  0  0  0  0  0  0  0  0  0  0
  2  1  1  0
  2  3  2  0
  4  5  1  0
  4  2  1  0
  5  7  1  0
  5  6  1  1
  7  8  2  0
  9 10  1  0
  9  7  1  0
 10 11  1  6
 11 12  1  0
 12 20  1  0
 13 12  2  0
 13 14  1  0
 14 15  1  0
 15 16  1  0
 16 17  2  0
 18 17  1  0
 19 18  2  0
 20 15  2  0
 20 19  1  0
 21 22  2  0
 21 10  1  0
 24 23  1  1
 24 25  1  0
 24 26  1  0
 25 21  1  0
 26 27  1  0
 28 26  2  0
M  END
$$$$
