HKN.pdb
     RDKit          3D

 28 28  0  0  1  0  0  0  0  0999 V2000
   20.9508  -19.2920  -13.6223 N   0  0  0  0  0  0  0  0  0  0  0  0
   20.0390  -18.6261  -14.5506 C   0  0  1  0  0  0  0  0  0  0  0  0
   18.7663  -18.2448  -13.8014 C   0  0  0  0  0  0  0  0  0  0  0  0
   17.9484  -19.4477  -13.5057 C   0  0  0  0  0  0  0  0  0  0  0  0
   18.3212  -20.7507  -13.7560 C   0  0  0  0  0  0  0  0  0  0  0  0
   17.3228  -21.5438  -13.3530 N   0  0  0  0  0  0  0  0  0  0  0  0
   16.3645  -20.7381  -12.8684 C   0  0  0  0  0  0  0  0  0  0  0  0
   16.7394  -19.4510  -12.9579 N   0  0  0  0  0  0  0  0  0  0  0  0
   20.7307  -17.4054  -15.0336 C   0  0  0  0  0  0  0  0  0  0  0  0
   21.0745  -16.5364  -14.1924 O   0  0  0  0  0  0  0  0  0  0  0  0
   21.0144  -17.1889  -16.4028 N   0  0  0  0  0  0  0  0  0  0  0  0
   21.7709  -15.9834  -16.8167 C   0  0  1  0  0  0  0  0  0  0  0  0
   22.5420  -16.2937  -18.0596 C   0  0  0  0  0  0  0  0  0  0  0  0
   23.6556  -17.2466  -17.8023 C   0  0  0  0  0  0  0  0  0  0  0  0
   24.5167  -17.4798  -19.0334 C   0  0  0  0  0  0  0  0  0  0  0  0
   25.5885  -18.5156  -18.7739 C   0  0  0  0  0  0  0  0  0  0  0  0
   26.3692  -18.7770  -19.9614 N   0  0  0  0  0  0  0  0  0  0  0  0
   20.8570  -14.8602  -16.8416 C   0  0  0  0  0  0  0  0  0  0  0  0
   19.6471  -15.1041  -17.2011 O   0  0  0  0  0  0  0  0  0  0  0  0
   18.1321  -10.5758  -16.5244 N   0  0  0  0  0  0  0  0  0  0  0  0
   18.9803  -10.6951  -15.3806 C   0  0  0  0  0  0  0  0  0  0  0  0
   18.8036   -9.8709  -14.4431 O   0  0  0  0  0  0  0  0  0  0  0  0
   20.0284  -11.7321  -15.2760 C   0  0  0  0  0  0  0  0  0  0  0  0
   20.0876  -12.5038  -16.5652 C   0  0  2  0  0  0  0  0  0  0  0  0
   21.1328  -13.5283  -16.5146 N   0  0  0  0  0  0  0  0  0  0  0  0
   20.2284  -11.6685  -17.7700 C   0  0  0  0  0  0  0  0  0  0  0  0
   21.2478  -11.7907  -18.6920 O   0  0  0  0  0  0  0  0  0  0  0  0
   19.3660  -10.7594  -18.0065 O   0  0  0  0  0  0  0  0  0  0  0  0
  2  1  1  1
  2  3  1  0
  4  3  1  0
  5  4  2  0
  6  5  1  0
  7  6  1  0
  7  8  2  0
  8  4  1  0
  9  2  1  0
 10  9  2  0
 11  9  1  0
 12 11  1  0
 12 13  1  6
 13 14  1  0
 14 15  1  0
 16 15  1  0
 17 16  1  0
 18 12  1  0
 19 18  2  0
 20 21  1  0
 21 22  2  0
 21 23  1  0
 24 23  1  1
 24 25  1  0
 25 18  1  0
 26 24  1  0
 27 26  1  0
 28 26  2  0
M  END
$$$$
