HKN.pdb
     RDKit          3D

 28 28  0  0  1  0  0  0  0  0999 V2000
   25.8906  -16.6903  -17.7627 N   0  0  0  0  0  0  0  0  0  0  0  0
   25.1053  -16.5380  -16.5394 C   0  0  1  0  0  0  0  0  0  0  0  0
   24.2176  -15.3051  -16.6751 C   0  0  0  0  0  0  0  0  0  0  0  0
   25.0355  -14.0666  -16.6971 C   0  0  0  0  0  0  0  0  0  0  0  0
   25.4324  -13.3495  -15.5891 C   0  0  0  0  0  0  0  0  0  0  0  0
   26.1499  -12.3051  -16.0164 N   0  0  0  0  0  0  0  0  0  0  0  0
   26.1872  -12.3875  -17.3559 C   0  0  0  0  0  0  0  0  0  0  0  0
   25.5065  -13.4646  -17.7822 N   0  0  0  0  0  0  0  0  0  0  0  0
   24.2683  -17.7564  -16.4096 C   0  0  0  0  0  0  0  0  0  0  0  0
   23.7087  -18.2140  -17.4383 O   0  0  0  0  0  0  0  0  0  0  0  0
   24.0805  -18.4163  -15.1721 N   0  0  0  0  0  0  0  0  0  0  0  0
   23.3303  -19.6936  -15.1248 C   0  0  1  0  0  0  0  0  0  0  0  0
   24.1613  -20.7226  -14.4274 C   0  0  0  0  0  0  0  0  0  0  0  0
   23.4338  -22.0102  -14.2635 C   0  0  0  0  0  0  0  0  0  0  0  0
   24.2473  -23.0441  -13.5014 C   0  0  0  0  0  0  0  0  0  0  0  0
   23.4742  -24.3308  -13.3128 C   0  0  0  0  0  0  0  0  0  0  0  0
   24.2619  -25.3237  -12.6190 N   0  0  0  0  0  0  0  0  0  0  0  0
   22.0039  -19.4226  -14.6103 C   0  0  0  0  0  0  0  0  0  0  0  0
   21.9298  -18.7090  -13.5435 O   0  0  0  0  0  0  0  0  0  0  0  0
   19.2888  -17.3928  -17.3388 N   0  0  0  0  0  0  0  0  0  0  0  0
   19.0239  -17.6434  -15.9572 C   0  0  0  0  0  0  0  0  0  0  0  0
   19.2300  -16.6976  -15.1496 O   0  0  0  0  0  0  0  0  0  0  0  0
   18.5286  -18.9478  -15.4691 C   0  0  0  0  0  0  0  0  0  0  0  0
   19.5146  -19.5112  -14.4835 C   0  0  2  0  0  0  0  0  0  0  0  0
   20.7802  -19.8438  -15.1410 N   0  0  0  0  0  0  0  0  0  0  0  0
   19.0114  -20.6543  -13.7031 C   0  0  0  0  0  0  0  0  0  0  0  0
   18.3994  -20.5515  -12.4706 O   0  0  0  0  0  0  0  0  0  0  0  0
   19.1353  -21.8346  -14.1696 O   0  0  0  0  0  0  0  0  0  0  0  0
  2  1  1  6
  2  3  1  0
  4  3  1  0
  5  4  2  0
  6  5  1  0
  7  6  1  0
  7  8  2  0
  8  4  1  0
  9  2  1  0
 10  9  2  0
 11  9  1  0
 12 11  1  0
 12 13  1  1
 13 14  1  0
 14 15  1  0
 16 15  1  0
 17 16  1  0
 18 12  1  0
 19 18  2  0
 20 21  1  0
 21 22  2  0
 21 23  1  0
 24 23  1  6
 24 25  1  0
 25 18  1  0
 26 24  1  0
 27 26  1  0
 28 26  2  0
M  END
$$$$
