HKN.pdb
     RDKit          3D

 28 28  0  0  1  0  0  0  0  0999 V2000
   18.2592  -12.7939  -15.6239 N   0  0  0  0  0  0  0  0  0  0  0  0
   18.4667  -11.6382  -16.4944 C   0  0  1  0  0  0  0  0  0  0  0  0
   17.3741  -10.6108  -16.2164 C   0  0  0  0  0  0  0  0  0  0  0  0
   16.0538  -11.1073  -16.6784 C   0  0  0  0  0  0  0  0  0  0  0  0
   15.5830  -11.0450  -17.9722 C   0  0  0  0  0  0  0  0  0  0  0  0
   14.3625  -11.5911  -17.9874 N   0  0  0  0  0  0  0  0  0  0  0  0
   14.0989  -11.9766  -16.7287 C   0  0  0  0  0  0  0  0  0  0  0  0
   15.1304  -11.6839  -15.9191 N   0  0  0  0  0  0  0  0  0  0  0  0
   19.7957  -11.0736  -16.1525 C   0  0  0  0  0  0  0  0  0  0  0  0
   20.0451  -10.8093  -14.9489 O   0  0  0  0  0  0  0  0  0  0  0  0
   20.7859  -10.8245  -17.1320 N   0  0  0  0  0  0  0  0  0  0  0  0
   22.0928  -10.2528  -16.7295 C   0  0  1  0  0  0  0  0  0  0  0  0
   23.1397  -10.6963  -17.7006 C   0  0  0  0  0  0  0  0  0  0  0  0
   24.4567  -10.0579  -17.4318 C   0  0  0  0  0  0  0  0  0  0  0  0
   25.4368  -11.0078  -16.7620 C   0  0  0  0  0  0  0  0  0  0  0  0
   26.7192  -10.3033  -16.3776 C   0  0  0  0  0  0  0  0  0  0  0  0
   27.5738  -11.1569  -15.5846 N   0  0  0  0  0  0  0  0  0  0  0  0
   21.9193   -8.8314  -16.5129 C   0  0  0  0  0  0  0  0  0  0  0  0
   20.9563   -8.2611  -17.1453 O   0  0  0  0  0  0  0  0  0  0  0  0
   21.8182   -3.9051  -15.2111 N   0  0  0  0  0  0  0  0  0  0  0  0
   20.8587   -4.8670  -14.7683 C   0  0  0  0  0  0  0  0  0  0  0  0
   19.8054   -4.4269  -14.2334 O   0  0  0  0  0  0  0  0  0  0  0  0
   21.0679   -6.3225  -14.9193 C   0  0  0  0  0  0  0  0  0  0  0  0
   22.3914   -6.5623  -15.5915 C   0  0  2  0  0  0  0  0  0  0  0  0
   22.6781   -7.9952  -15.6871 N   0  0  0  0  0  0  0  0  0  0  0  0
   23.5228   -5.8393  -14.9861 C   0  0  0  0  0  0  0  0  0  0  0  0
   23.5604   -4.4751  -14.7820 O   0  0  0  0  0  0  0  0  0  0  0  0
   24.5552   -6.4893  -14.6149 O   0  0  0  0  0  0  0  0  0  0  0  0
  2  1  1  1
  2  3  1  0
  4  3  1  0
  5  4  2  0
  6  5  1  0
  7  6  1  0
  7  8  2  0
  8  4  1  0
  9  2  1  0
 10  9  2  0
 11  9  1  0
 12 11  1  0
 12 13  1  6
 13 14  1  0
 14 15  1  0
 16 15  1  0
 17 16  1  0
 18 12  1  0
 19 18  2  0
 20 21  1  0
 21 22  2  0
 21 23  1  0
 24 23  1  1
 24 25  1  0
 25 18  1  0
 26 24  1  0
 27 26  1  0
 28 26  2  0
M  END
$$$$
