HKN.pdb
     RDKit          3D

 28 28  0  0  1  0  0  0  0  0999 V2000
   16.8259  -18.7920    2.6437 N   0  0  0  0  0  0  0  0  0  0  0  0
   16.6318  -18.7961    4.0924 C   0  0  1  0  0  0  0  0  0  0  0  0
   16.5767  -20.2413    4.5771 C   0  0  0  0  0  0  0  0  0  0  0  0
   15.3648  -20.9248    4.0602 C   0  0  0  0  0  0  0  0  0  0  0  0
   14.0642  -20.5306    4.2895 C   0  0  0  0  0  0  0  0  0  0  0  0
   13.2606  -21.3951    3.6609 N   0  0  0  0  0  0  0  0  0  0  0  0
   14.0577  -22.2948    3.0629 C   0  0  0  0  0  0  0  0  0  0  0  0
   15.3497  -22.0142    3.3023 N   0  0  0  0  0  0  0  0  0  0  0  0
   17.8023  -18.1039    4.6864 C   0  0  0  0  0  0  0  0  0  0  0  0
   18.9391  -18.3123    4.1912 O   0  0  0  0  0  0  0  0  0  0  0  0
   17.6811  -17.2219    5.7860 N   0  0  0  0  0  0  0  0  0  0  0  0
   18.8690  -16.4785    6.2685 C   0  0  1  0  0  0  0  0  0  0  0  0
   18.5164  -15.0321    6.4084 C   0  0  0  0  0  0  0  0  0  0  0  0
   19.6580  -14.2263    6.9199 C   0  0  0  0  0  0  0  0  0  0  0  0
   19.3619  -12.7350    6.9210 C   0  0  0  0  0  0  0  0  0  0  0  0
   20.5429  -11.9343    7.4239 C   0  0  0  0  0  0  0  0  0  0  0  0
   20.2949  -10.5136    7.3337 N   0  0  0  0  0  0  0  0  0  0  0  0
   19.3969  -17.1686    7.4272 C   0  0  0  0  0  0  0  0  0  0  0  0
   18.5474  -17.7709    8.1811 O   0  0  0  0  0  0  0  0  0  0  0  0
   23.8469  -18.8425   11.1000 N   0  0  0  0  0  0  0  0  0  0  0  0
   22.8184  -19.2580   10.1992 C   0  0  0  0  0  0  0  0  0  0  0  0
   22.1741  -20.2990   10.5001 O   0  0  0  0  0  0  0  0  0  0  0  0
   22.5030  -18.5163    8.9601 C   0  0  0  0  0  0  0  0  0  0  0  0
   21.1076  -17.9648    9.0583 C   0  0  2  0  0  0  0  0  0  0  0  0
   20.7337  -17.2641    7.8279 N   0  0  0  0  0  0  0  0  0  0  0  0
   20.8683  -17.1176   10.2390 C   0  0  0  0  0  0  0  0  0  0  0  0
   20.5268  -15.7816   10.1870 O   0  0  0  0  0  0  0  0  0  0  0  0
   20.9772  -17.6224   11.4049 O   0  0  0  0  0  0  0  0  0  0  0  0
  2  1  1  6
  2  3  1  0
  4  3  1  0
  5  4  2  0
  6  5  1  0
  7  6  1  0
  7  8  2  0
  8  4  1  0
  9  2  1  0
 10  9  2  0
 11  9  1  0
 12 11  1  0
 12 13  1  1
 13 14  1  0
 14 15  1  0
 16 15  1  0
 17 16  1  0
 18 12  1  0
 19 18  2  0
 20 21  1  0
 21 22  2  0
 21 23  1  0
 24 23  1  6
 24 25  1  0
 25 18  1  0
 26 24  1  0
 27 26  1  0
 28 26  2  0
M  END
$$$$
