HKN.pdb
     RDKit          3D

 28 28  0  0  1  0  0  0  0  0999 V2000
   26.1940  -18.8914  -17.9428 N   0  0  0  0  0  0  0  0  0  0  0  0
   25.4476  -18.2489  -16.8628 C   0  0  1  0  0  0  0  0  0  0  0  0
   24.3101  -17.4331  -17.4687 C   0  0  0  0  0  0  0  0  0  0  0  0
   24.8345  -16.2254  -18.1541 C   0  0  0  0  0  0  0  0  0  0  0  0
   25.2924  -16.1775  -19.4531 C   0  0  0  0  0  0  0  0  0  0  0  0
   25.6785  -14.9217  -19.7021 N   0  0  0  0  0  0  0  0  0  0  0  0
   25.4592  -14.2227  -18.5769 C   0  0  0  0  0  0  0  0  0  0  0  0
   24.9417  -15.0141  -17.6224 N   0  0  0  0  0  0  0  0  0  0  0  0
   24.8992  -19.3342  -16.0123 C   0  0  0  0  0  0  0  0  0  0  0  0
   24.2155  -20.2378  -16.5571 O   0  0  0  0  0  0  0  0  0  0  0  0
   25.1195  -19.3846  -14.6155 N   0  0  0  0  0  0  0  0  0  0  0  0
   24.5275  -20.4829  -13.8155 C   0  0  1  0  0  0  0  0  0  0  0  0
   25.3584  -20.6980  -12.5912 C   0  0  0  0  0  0  0  0  0  0  0  0
   26.7933  -20.9136  -12.9211 C   0  0  0  0  0  0  0  0  0  0  0  0
   27.6708  -20.9800  -11.6813 C   0  0  0  0  0  0  0  0  0  0  0  0
   29.1383  -21.0509  -12.0422 C   0  0  0  0  0  0  0  0  0  0  0  0
   29.9753  -20.9895  -10.8659 N   0  0  0  0  0  0  0  0  0  0  0  0
   23.1156  -20.2100  -13.6443 C   0  0  0  0  0  0  0  0  0  0  0  0
   22.7463  -18.9821  -13.7371 O   0  0  0  0  0  0  0  0  0  0  0  0
   18.0002  -20.4160  -15.6494 N   0  0  0  0  0  0  0  0  0  0  0  0
   18.9577  -19.7194  -14.8495 C   0  0  0  0  0  0  0  0  0  0  0  0
   18.5393  -18.7465  -14.1657 O   0  0  0  0  0  0  0  0  0  0  0  0
   20.3846  -20.1030  -14.8078 C   0  0  0  0  0  0  0  0  0  0  0  0
   20.6841  -20.7407  -13.4794 C   0  0  2  0  0  0  0  0  0  0  0  0
   22.0930  -21.1305  -13.3916 N   0  0  0  0  0  0  0  0  0  0  0  0
   19.8040  -21.8695  -13.1325 C   0  0  0  0  0  0  0  0  0  0  0  0
   18.4955  -21.7413  -12.7136 O   0  0  0  0  0  0  0  0  0  0  0  0
   20.2516  -23.0608  -13.2130 O   0  0  0  0  0  0  0  0  0  0  0  0
  2  1  1  6
  2  3  1  0
  4  3  1  0
  5  4  2  0
  6  5  1  0
  7  6  1  0
  7  8  2  0
  8  4  1  0
  9  2  1  0
 10  9  2  0
 11  9  1  0
 12 11  1  0
 12 13  1  1
 13 14  1  0
 14 15  1  0
 16 15  1  0
 17 16  1  0
 18 12  1  0
 19 18  2  0
 20 21  1  0
 21 22  2  0
 21 23  1  0
 24 23  1  6
 24 25  1  0
 25 18  1  0
 26 24  1  0
 27 26  1  0
 28 26  2  0
M  END
$$$$
