MHL.pdb
     RDKit          3D

 27 27  0  0  1  0  0  0  0  0999 V2000
    9.0896  -12.1800   19.1243 C   0  0  0  0  0  0  0  0  0  0  0  0
    8.2082  -12.7233   17.6577 S   0  0  0  0  0  0  0  0  0  0  0  0
    8.3607  -14.5095   17.4745 C   0  0  0  0  0  0  0  0  0  0  0  0
    7.7434  -15.1709   18.6903 C   0  0  0  0  0  0  0  0  0  0  0  0
    8.8388  -15.6714   19.6202 C   0  0  2  0  0  0  0  0  0  0  0  0
    9.5823  -16.7246   19.0065 N   0  0  0  0  0  0  0  0  0  0  0  0
    8.3003  -15.9900   20.9628 C   0  0  0  0  0  0  0  0  0  0  0  0
    7.5310  -15.1415   21.4762 O   0  0  0  0  0  0  0  0  0  0  0  0
    8.5836  -17.1557   21.6919 N   0  0  0  0  0  0  0  0  0  0  0  0
    8.0801  -17.4604   23.0217 C   0  0  1  0  0  0  0  0  0  0  0  0
    8.4314  -18.8973   23.3987 C   0  0  0  0  0  0  0  0  0  0  0  0
    7.9671  -19.1505   24.7734 C   0  0  0  0  0  0  0  0  0  0  0  0
    6.6645  -19.5099   25.1306 C   0  0  0  0  0  0  0  0  0  0  0  0
    6.5815  -19.6666   26.4736 N   0  0  0  0  0  0  0  0  0  0  0  0
    7.8124  -19.4090   26.9468 C   0  0  0  0  0  0  0  0  0  0  0  0
    8.6420  -19.1011   25.9393 N   0  0  0  0  0  0  0  0  0  0  0  0
    8.5013  -16.4661   24.0117 C   0  0  0  0  0  0  0  0  0  0  0  0
    9.6888  -16.0768   24.1537 O   0  0  0  0  0  0  0  0  0  0  0  0
    8.1559  -11.7686   26.5793 C   0  0  0  0  0  0  0  0  0  0  0  0
    7.2297  -12.8188   27.1456 C   0  0  1  0  0  0  0  0  0  0  0  0
    5.9663  -12.0207   27.5501 C   0  0  0  0  0  0  0  0  0  0  0  0
    6.8480  -13.8665   26.1697 C   0  0  0  0  0  0  0  0  0  0  0  0
    7.9675  -14.7941   25.8527 C   0  0  2  0  0  0  0  0  0  0  0  0
    7.5827  -15.8346   24.9234 N   0  0  0  0  0  0  0  0  0  0  0  0
    8.4901  -15.4406   27.0703 C   0  0  0  0  0  0  0  0  0  0  0  0
    7.9837  -16.4333   27.6518 O   0  0  0  0  0  0  0  0  0  0  0  0
    9.6509  -14.9235   27.6525 O   0  0  0  0  0  0  0  0  0  0  0  0
  1  2  1  0
  3  2  1  0
  4  3  1  0
  5  4  1  0
  5  6  1  6
  7  5  1  0
  8  7  2  0
  9  7  1  0
 10 17  1  0
 10  9  1  0
 10 11  1  1
 12 16  1  0
 12 11  1  0
 13 12  2  0
 14 13  1  0
 14 15  1  0
 15 16  2  0
 17 24  1  0
 18 17  2  0
 20 21  1  6
 20 19  1  0
 22 20  1  0
 23 25  1  0
 23 22  1  1
 24 23  1  0
 25 26  2  0
 25 27  1  0
M  END
$$$$
