MHL.pdb
     RDKit          3D

 27 27  0  0  1  0  0  0  0  0999 V2000
    8.4093  -12.0238   20.1671 C   0  0  0  0  0  0  0  0  0  0  0  0
    7.7516  -12.4540   18.5529 S   0  0  0  0  0  0  0  0  0  0  0  0
    7.3730  -14.2147   18.4921 C   0  0  0  0  0  0  0  0  0  0  0  0
    7.2858  -14.7360   19.9124 C   0  0  0  0  0  0  0  0  0  0  0  0
    8.5189  -15.5663   20.2364 C   0  0  2  0  0  0  0  0  0  0  0  0
    8.6880  -16.6157   19.2832 N   0  0  0  0  0  0  0  0  0  0  0  0
    8.5151  -16.0051   21.6511 C   0  0  0  0  0  0  0  0  0  0  0  0
    7.4890  -15.7344   22.3213 O   0  0  0  0  0  0  0  0  0  0  0  0
    9.5608  -16.6925   22.2873 N   0  0  0  0  0  0  0  0  0  0  0  0
    9.5452  -17.1624   23.6635 C   0  0  1  0  0  0  0  0  0  0  0  0
   10.4992  -18.3429   23.8252 C   0  0  0  0  0  0  0  0  0  0  0  0
   10.0092  -19.4608   23.0008 C   0  0  0  0  0  0  0  0  0  0  0  0
    8.7737  -20.0956   23.1562 C   0  0  0  0  0  0  0  0  0  0  0  0
    8.6417  -21.0792   22.2340 N   0  0  0  0  0  0  0  0  0  0  0  0
    9.7765  -21.0585   21.5150 C   0  0  0  0  0  0  0  0  0  0  0  0
   10.5949  -20.0971   21.9666 N   0  0  0  0  0  0  0  0  0  0  0  0
    9.7759  -16.0764   24.6193 C   0  0  0  0  0  0  0  0  0  0  0  0
   10.8573  -15.4408   24.7115 O   0  0  0  0  0  0  0  0  0  0  0  0
    6.1557  -12.2674   25.9862 C   0  0  0  0  0  0  0  0  0  0  0  0
    7.4399  -13.0295   25.7591 C   0  0  1  0  0  0  0  0  0  0  0  0
    8.4852  -11.9216   25.4822 C   0  0  0  0  0  0  0  0  0  0  0  0
    7.8768  -13.8246   26.9306 C   0  0  0  0  0  0  0  0  0  0  0  0
    9.0398  -14.7030   26.6296 C   0  0  2  0  0  0  0  0  0  0  0  0
    8.7728  -15.6307   25.5515 N   0  0  0  0  0  0  0  0  0  0  0  0
    9.4434  -15.4835   27.8135 C   0  0  0  0  0  0  0  0  0  0  0  0
    9.9547  -15.0175   28.8630 O   0  0  0  0  0  0  0  0  0  0  0  0
    9.2530  -16.8681   27.7944 O   0  0  0  0  0  0  0  0  0  0  0  0
  1  2  1  0
  3  2  1  0
  4  3  1  0
  5  4  1  0
  5  6  1  6
  7  5  1  0
  8  7  2  0
  9  7  1  0
 10 17  1  0
 10  9  1  0
 10 11  1  6
 12 16  1  0
 12 11  1  0
 13 12  2  0
 14 13  1  0
 14 15  1  0
 15 16  2  0
 17 24  1  0
 18 17  2  0
 20 21  1  1
 20 19  1  0
 22 20  1  0
 23 25  1  0
 23 22  1  1
 24 23  1  0
 25 26  2  0
 25 27  1  0
M  END
$$$$
