MHL.pdb
     RDKit          3D

 27 27  0  0  1  0  0  0  0  0999 V2000
    8.2845  -11.6653   20.0022 C   0  0  0  0  0  0  0  0  0  0  0  0
    6.7377  -12.5360   19.7333 S   0  0  0  0  0  0  0  0  0  0  0  0
    7.0560  -14.2911   19.4772 C   0  0  0  0  0  0  0  0  0  0  0  0
    7.6242  -14.8675   20.7584 C   0  0  0  0  0  0  0  0  0  0  0  0
    7.8301  -16.3672   20.6054 C   0  0  2  0  0  0  0  0  0  0  0  0
    6.5824  -17.0322   20.4061 N   0  0  0  0  0  0  0  0  0  0  0  0
    8.6565  -16.9117   21.7074 C   0  0  0  0  0  0  0  0  0  0  0  0
    8.0997  -17.7342   22.4748 O   0  0  0  0  0  0  0  0  0  0  0  0
    9.9984  -16.5798   21.9519 N   0  0  0  0  0  0  0  0  0  0  0  0
   10.7774  -17.0135   23.1008 C   0  0  1  0  0  0  0  0  0  0  0  0
   12.2681  -16.9454   22.7793 C   0  0  0  0  0  0  0  0  0  0  0  0
   12.5174  -17.6995   21.5389 C   0  0  0  0  0  0  0  0  0  0  0  0
   12.7475  -17.1312   20.2829 C   0  0  0  0  0  0  0  0  0  0  0  0
   12.9406  -18.1075   19.3637 N   0  0  0  0  0  0  0  0  0  0  0  0
   12.8327  -19.2661   20.0354 C   0  0  0  0  0  0  0  0  0  0  0  0
   12.5807  -19.0299   21.3311 N   0  0  0  0  0  0  0  0  0  0  0  0
   10.3998  -16.3006   24.3236 C   0  0  0  0  0  0  0  0  0  0  0  0
   11.0522  -16.3553   25.3975 O   0  0  0  0  0  0  0  0  0  0  0  0
    8.1853  -12.0522   27.0089 C   0  0  0  0  0  0  0  0  0  0  0  0
    7.2469  -13.1784   26.6449 C   0  0  1  0  0  0  0  0  0  0  0  0
    5.8926  -12.4691   26.4008 C   0  0  0  0  0  0  0  0  0  0  0  0
    7.6390  -13.9080   25.4163 C   0  0  0  0  0  0  0  0  0  0  0  0
    8.8088  -14.8035   25.6264 C   0  0  2  0  0  0  0  0  0  0  0  0
    9.2334  -15.4603   24.4087 N   0  0  0  0  0  0  0  0  0  0  0  0
    8.5145  -15.8450   26.6276 C   0  0  0  0  0  0  0  0  0  0  0  0
    7.7600  -16.8361   26.4586 O   0  0  0  0  0  0  0  0  0  0  0  0
    9.1136  -15.7462   27.8866 O   0  0  0  0  0  0  0  0  0  0  0  0
  1  2  1  0
  3  2  1  0
  4  3  1  0
  5  4  1  0
  5  6  1  1
  7  5  1  0
  8  7  2  0
  9  7  1  0
 10 17  1  0
 10  9  1  0
 10 11  1  6
 12 16  1  0
 12 11  1  0
 13 12  2  0
 14 13  1  0
 14 15  1  0
 15 16  2  0
 17 24  1  0
 18 17  2  0
 20 21  1  6
 20 19  1  0
 22 20  1  0
 23 25  1  0
 23 22  1  6
 24 23  1  0
 25 26  2  0
 25 27  1  0
M  END
$$$$
