MHL.pdb
     RDKit          3D

 27 27  0  0  1  0  0  0  0  0999 V2000
    8.1077  -11.6373   17.1884 C   0  0  0  0  0  0  0  0  0  0  0  0
    7.3414  -12.7485   18.3720 S   0  0  0  0  0  0  0  0  0  0  0  0
    8.5906  -13.4201   19.4836 C   0  0  0  0  0  0  0  0  0  0  0  0
    7.8993  -14.2967   20.5086 C   0  0  0  0  0  0  0  0  0  0  0  0
    8.9341  -14.9610   21.4045 C   0  0  2  0  0  0  0  0  0  0  0  0
    9.9728  -15.5547   20.6253 N   0  0  0  0  0  0  0  0  0  0  0  0
    8.2936  -15.8696   22.3835 C   0  0  0  0  0  0  0  0  0  0  0  0
    7.1841  -15.5073   22.8451 O   0  0  0  0  0  0  0  0  0  0  0  0
    8.8296  -17.0895   22.8255 N   0  0  0  0  0  0  0  0  0  0  0  0
    8.3049  -17.8934   23.9178 C   0  0  1  0  0  0  0  0  0  0  0  0
    8.9773  -19.2637   23.9302 C   0  0  0  0  0  0  0  0  0  0  0  0
    8.4119  -20.0559   25.0358 C   0  0  0  0  0  0  0  0  0  0  0  0
    8.7153  -19.8822   26.3890 C   0  0  0  0  0  0  0  0  0  0  0  0
    8.0207  -20.7743   27.1353 N   0  0  0  0  0  0  0  0  0  0  0  0
    7.2957  -21.4930   26.2618 C   0  0  0  0  0  0  0  0  0  0  0  0
    7.5241  -21.0701   25.0100 N   0  0  0  0  0  0  0  0  0  0  0  0
    8.3679  -17.1886   25.2006 C   0  0  0  0  0  0  0  0  0  0  0  0
    7.8045  -17.5912   26.2506 O   0  0  0  0  0  0  0  0  0  0  0  0
    5.9691  -13.0902   26.5748 C   0  0  0  0  0  0  0  0  0  0  0  0
    7.3132  -13.6426   26.1627 C   0  0  1  0  0  0  0  0  0  0  0  0
    8.2610  -12.4221   26.2566 C   0  0  0  0  0  0  0  0  0  0  0  0
    7.8160  -14.7149   27.0532 C   0  0  0  0  0  0  0  0  0  0  0  0
    9.1451  -15.2364   26.6337 C   0  0  2  0  0  0  0  0  0  0  0  0
    9.0906  -15.9560   25.3794 N   0  0  0  0  0  0  0  0  0  0  0  0
    9.7138  -16.1379   27.6524 C   0  0  0  0  0  0  0  0  0  0  0  0
    9.9776  -15.8306   28.8424 O   0  0  0  0  0  0  0  0  0  0  0  0
    9.9957  -17.4581   27.2899 O   0  0  0  0  0  0  0  0  0  0  0  0
  1  2  1  0
  3  2  1  0
  4  3  1  0
  5  4  1  0
  5  6  1  6
  7  5  1  0
  8  7  2  0
  9  7  1  0
 10 17  1  0
 10  9  1  0
 10 11  1  1
 12 16  1  0
 12 11  1  0
 13 12  2  0
 14 13  1  0
 14 15  1  0
 15 16  2  0
 17 24  1  0
 18 17  2  0
 20 21  1  1
 20 19  1  0
 22 20  1  0
 23 25  1  0
 23 22  1  1
 24 23  1  0
 25 26  2  0
 25 27  1  0
M  END
$$$$
