MHL.pdb
     RDKit          3D

 27 27  0  0  1  0  0  0  0  0999 V2000
    7.6546  -14.7363   16.9100 C   0  0  0  0  0  0  0  0  0  0  0  0
    7.7105  -13.0815   17.6040 S   0  0  0  0  0  0  0  0  0  0  0  0
    7.6348  -13.1657   19.4025 C   0  0  0  0  0  0  0  0  0  0  0  0
    7.4387  -14.6129   19.8072 C   0  0  0  0  0  0  0  0  0  0  0  0
    7.2570  -14.7094   21.3147 C   0  0  2  0  0  0  0  0  0  0  0  0
    7.4100  -13.4285   21.9266 N   0  0  0  0  0  0  0  0  0  0  0  0
    8.1037  -15.7796   21.8909 C   0  0  0  0  0  0  0  0  0  0  0  0
    7.5943  -16.9247   21.9586 O   0  0  0  0  0  0  0  0  0  0  0  0
    9.4159  -15.6084   22.3594 N   0  0  0  0  0  0  0  0  0  0  0  0
   10.2234  -16.6363   22.9967 C   0  0  1  0  0  0  0  0  0  0  0  0
   11.3594  -17.0605   22.0695 C   0  0  0  0  0  0  0  0  0  0  0  0
   10.8001  -17.8890   20.9878 C   0  0  0  0  0  0  0  0  0  0  0  0
   10.6464  -17.4832   19.6592 C   0  0  0  0  0  0  0  0  0  0  0  0
   10.1037  -18.4878   18.9302 N   0  0  0  0  0  0  0  0  0  0  0  0
    9.9216  -19.5040   19.7902 C   0  0  0  0  0  0  0  0  0  0  0  0
   10.3342  -19.1537   21.0170 N   0  0  0  0  0  0  0  0  0  0  0  0
   10.6658  -16.2384   24.3355 C   0  0  0  0  0  0  0  0  0  0  0  0
   11.5127  -15.3348   24.5547 O   0  0  0  0  0  0  0  0  0  0  0  0
    9.4420  -13.3711   28.1886 C   0  0  0  0  0  0  0  0  0  0  0  0
    8.3884  -14.3373   27.7010 C   0  0  1  0  0  0  0  0  0  0  0  0
    7.1732  -13.4324   27.3832 C   0  0  0  0  0  0  0  0  0  0  0  0
    8.7762  -15.0742   26.4753 C   0  0  0  0  0  0  0  0  0  0  0  0
    9.8159  -16.1082   26.7292 C   0  0  2  0  0  0  0  0  0  0  0  0
   10.1643  -16.8521   25.5378 N   0  0  0  0  0  0  0  0  0  0  0  0
    9.3761  -17.0708   27.7557 C   0  0  0  0  0  0  0  0  0  0  0  0
    8.5497  -18.0025   27.5850 O   0  0  0  0  0  0  0  0  0  0  0  0
    9.9087  -16.9605   29.0433 O   0  0  0  0  0  0  0  0  0  0  0  0
  1  2  1  0
  3  2  1  0
  4  3  1  0
  5  4  1  0
  5  6  1  1
  7  5  1  0
  8  7  2  0
  9  7  1  0
 10 17  1  0
 10  9  1  0
 10 11  1  6
 12 16  1  0
 12 11  1  0
 13 12  2  0
 14 13  1  0
 14 15  1  0
 15 16  2  0
 17 24  1  0
 18 17  2  0
 20 21  1  6
 20 19  1  0
 22 20  1  0
 23 25  1  0
 23 22  1  6
 24 23  1  0
 25 26  2  0
 25 27  1  0
M  END
$$$$
