VYE.pdb
     RDKit          3D

 29 29  0  0  1  0  0  0  0  0999 V2000
   22.2764  -31.5751  -16.0842 C   0  0  0  0  0  0  0  0  0  0  0  0
   22.5886  -31.2182  -17.5397 C   0  0  2  0  0  0  0  0  0  0  0  0
   22.4280  -32.5100  -18.3260 C   0  0  0  0  0  0  0  0  0  0  0  0
   24.0242  -30.7307  -17.5508 C   0  0  2  0  0  0  0  0  0  0  0  0
   24.8516  -31.8218  -17.1092 N   0  0  0  0  0  0  0  0  0  0  0  0
   24.2051  -29.5084  -16.7386 C   0  0  0  0  0  0  0  0  0  0  0  0
   24.7860  -29.6354  -15.6298 O   0  0  0  0  0  0  0  0  0  0  0  0
   30.2415  -27.9540  -17.2275 O   0  0  0  0  0  0  0  0  0  0  0  0
   28.9153  -27.4918  -17.2086 C   0  0  0  0  0  0  0  0  0  0  0  0
   28.0025  -27.9096  -18.1510 C   0  0  0  0  0  0  0  0  0  0  0  0
   26.6866  -27.4270  -18.1009 C   0  0  0  0  0  0  0  0  0  0  0  0
   26.2960  -26.5432  -17.1245 C   0  0  0  0  0  0  0  0  0  0  0  0
   24.9082  -26.0483  -17.0901 C   0  0  0  0  0  0  0  0  0  0  0  0
   23.9920  -27.0220  -16.3369 C   0  0  2  0  0  0  0  0  0  0  0  0
   23.7767  -28.2214  -17.1147 N   0  0  0  0  0  0  0  0  0  0  0  0
   22.6623  -26.3167  -16.2596 C   0  0  0  0  0  0  0  0  0  0  0  0
   21.9442  -26.2529  -17.2840 O   0  0  0  0  0  0  0  0  0  0  0  0
   27.2174  -26.1357  -16.1917 C   0  0  0  0  0  0  0  0  0  0  0  0
   28.5342  -26.6072  -16.2269 C   0  0  0  0  0  0  0  0  0  0  0  0
   22.2002  -25.7282  -15.0784 N   0  0  0  0  0  0  0  0  0  0  0  0
   20.9295  -24.9857  -15.1152 C   0  0  1  0  0  0  0  0  0  0  0  0
   20.5491  -24.5797  -13.7183 C   0  0  0  0  0  0  0  0  0  0  0  0
   19.2466  -23.8415  -13.7233 C   0  0  0  0  0  0  0  0  0  0  0  0
   18.9307  -23.3175  -12.3478 C   0  0  0  0  0  0  0  0  0  0  0  0
   19.0475  -22.0971  -12.1236 O   0  0  0  0  0  0  0  0  0  0  0  0
   21.1335  -23.8722  -16.0505 C   0  0  0  0  0  0  0  0  0  0  0  0
   22.2026  -23.2287  -16.0386 O   0  0  0  0  0  0  0  0  0  0  0  0
   18.5179  -24.1617  -11.3425 O   0  0  0  0  0  0  0  0  0  0  0  0
   20.1562  -23.5201  -16.9515 O   0  0  0  0  0  0  0  0  0  0  0  0
  2  1  1  1
  2  3  1  0
  4  2  1  0
  4  5  1  1
  6  4  1  0
  7  6  2  0
  8  9  1  0
  9 10  2  0
  9 19  1  0
 10 11  1  0
 11 12  2  0
 12 13  1  0
 14 13  1  6
 14 15  1  0
 15  6  1  0
 16 14  1  0
 16 17  2  0
 18 12  1  0
 19 18  2  0
 20 21  1  0
 20 16  1  0
 21 22  1  1
 22 23  1  0
 23 24  1  0
 24 28  1  0
 24 25  2  0
 26 21  1  0
 27 26  2  0
 29 26  1  0
M  END
$$$$
