VYE.pdb
     RDKit          3D

 29 29  0  0  1  0  0  0  0  0999 V2000
   17.6880  -13.4908  -18.2700 C   0  0  0  0  0  0  0  0  0  0  0  0
   18.7766  -14.3150  -17.5779 C   0  0  2  0  0  0  0  0  0  0  0  0
   18.0764  -15.5501  -17.0327 C   0  0  0  0  0  0  0  0  0  0  0  0
   19.3171  -13.4401  -16.4639 C   0  0  2  0  0  0  0  0  0  0  0  0
   18.2600  -13.2655  -15.5036 N   0  0  0  0  0  0  0  0  0  0  0  0
   19.8499  -12.1570  -16.9701 C   0  0  0  0  0  0  0  0  0  0  0  0
   20.8391  -12.2109  -17.7455 O   0  0  0  0  0  0  0  0  0  0  0  0
   19.4702  -10.9799  -23.3485 O   0  0  0  0  0  0  0  0  0  0  0  0
   19.3418  -10.4672  -22.0472 C   0  0  0  0  0  0  0  0  0  0  0  0
   20.2258   -9.5303  -21.5609 C   0  0  0  0  0  0  0  0  0  0  0  0
   20.0664   -9.0407  -20.2563 C   0  0  0  0  0  0  0  0  0  0  0  0
   19.0406   -9.4832  -19.4570 C   0  0  0  0  0  0  0  0  0  0  0  0
   18.8913   -8.9557  -18.0890 C   0  0  0  0  0  0  0  0  0  0  0  0
   19.8728   -9.6342  -17.1242 C   0  0  2  0  0  0  0  0  0  0  0  0
   19.3327  -10.8879  -16.6486 N   0  0  0  0  0  0  0  0  0  0  0  0
   19.9367   -8.7149  -15.9315 C   0  0  0  0  0  0  0  0  0  0  0  0
   19.2050   -8.9468  -14.9416 O   0  0  0  0  0  0  0  0  0  0  0  0
   18.1670  -10.4178  -19.9559 C   0  0  0  0  0  0  0  0  0  0  0  0
   18.3113  -10.9167  -21.2551 C   0  0  0  0  0  0  0  0  0  0  0  0
   20.7886   -7.6068  -15.8915 N   0  0  0  0  0  0  0  0  0  0  0  0
   20.7945   -6.7702  -14.6801 C   0  0  1  0  0  0  0  0  0  0  0  0
   21.9554   -5.8164  -14.7391 C   0  0  0  0  0  0  0  0  0  0  0  0
   21.9378   -4.8956  -13.5588 C   0  0  0  0  0  0  0  0  0  0  0  0
   22.5973   -3.5859  -13.9002 C   0  0  0  0  0  0  0  0  0  0  0  0
   22.1093   -2.5287  -13.4559 O   0  0  0  0  0  0  0  0  0  0  0  0
   19.4725   -6.1344  -14.6159 C   0  0  0  0  0  0  0  0  0  0  0  0
   18.9291   -5.7067  -15.6546 O   0  0  0  0  0  0  0  0  0  0  0  0
   23.7231   -3.5412  -14.6902 O   0  0  0  0  0  0  0  0  0  0  0  0
   18.8126   -5.9993  -13.4170 O   0  0  0  0  0  0  0  0  0  0  0  0
  2  1  1  1
  2  3  1  0
  4  2  1  0
  4  5  1  1
  6  4  1  0
  7  6  2  0
  8  9  1  0
  9 10  2  0
  9 19  1  0
 10 11  1  0
 11 12  2  0
 12 13  1  0
 14 13  1  6
 14 15  1  0
 15  6  1  0
 16 14  1  0
 16 17  2  0
 18 12  1  0
 19 18  2  0
 20 21  1  0
 20 16  1  0
 21 22  1  6
 22 23  1  0
 23 24  1  0
 24 28  1  0
 24 25  2  0
 26 21  1  0
 27 26  2  0
 29 26  1  0
M  END
$$$$
