VYE.pdb
     RDKit          3D

 29 29  0  0  1  0  0  0  0  0999 V2000
   18.3373  -10.9004  -15.2386 C   0  0  0  0  0  0  0  0  0  0  0  0
   17.3489   -9.9425  -14.5688 C   0  0  2  0  0  0  0  0  0  0  0  0
   18.1466   -8.6912  -14.2358 C   0  0  0  0  0  0  0  0  0  0  0  0
   16.8668  -10.6489  -13.3169 C   0  0  2  0  0  0  0  0  0  0  0  0
   16.2662  -11.8899  -13.7283 N   0  0  0  0  0  0  0  0  0  0  0  0
   15.9518   -9.8061  -12.5175 C   0  0  0  0  0  0  0  0  0  0  0  0
   14.8242   -9.5508  -13.0136 O   0  0  0  0  0  0  0  0  0  0  0  0
   12.1210   -5.1817   -6.0572 O   0  0  0  0  0  0  0  0  0  0  0  0
   12.9873   -6.0165   -6.7822 C   0  0  0  0  0  0  0  0  0  0  0  0
   14.3378   -5.7563   -6.8470 C   0  0  0  0  0  0  0  0  0  0  0  0
   15.1725   -6.6120   -7.5805 C   0  0  0  0  0  0  0  0  0  0  0  0
   14.6612   -7.7061   -8.2352 C   0  0  0  0  0  0  0  0  0  0  0  0
   15.5560   -8.5924   -9.0005 C   0  0  0  0  0  0  0  0  0  0  0  0
   15.3904   -8.3759  -10.5106 C   0  0  2  0  0  0  0  0  0  0  0  0
   16.2503   -9.2726  -11.2496 N   0  0  0  0  0  0  0  0  0  0  0  0
   15.9095   -6.9828  -10.7582 C   0  0  0  0  0  0  0  0  0  0  0  0
   17.1461   -6.7944  -10.8240 O   0  0  0  0  0  0  0  0  0  0  0  0
   13.3124   -7.9525   -8.1613 C   0  0  0  0  0  0  0  0  0  0  0  0
   12.4653   -7.1093   -7.4341 C   0  0  0  0  0  0  0  0  0  0  0  0
   15.0544   -5.8879  -10.9179 N   0  0  0  0  0  0  0  0  0  0  0  0
   15.6355   -4.5976  -11.3234 C   0  0  1  0  0  0  0  0  0  0  0  0
   16.2614   -4.7384  -12.6833 C   0  0  0  0  0  0  0  0  0  0  0  0
   16.7599   -3.4135  -13.1708 C   0  0  0  0  0  0  0  0  0  0  0  0
   17.3686   -3.5494  -14.5410 C   0  0  0  0  0  0  0  0  0  0  0  0
   16.8704   -4.3590  -15.3470 O   0  0  0  0  0  0  0  0  0  0  0  0
   14.5474   -3.6150  -11.2406 C   0  0  0  0  0  0  0  0  0  0  0  0
   13.3595   -3.9944  -11.1962 O   0  0  0  0  0  0  0  0  0  0  0  0
   18.4594   -2.7972  -14.9125 O   0  0  0  0  0  0  0  0  0  0  0  0
   14.8158   -2.2667  -11.2105 O   0  0  0  0  0  0  0  0  0  0  0  0
  2  1  1  1
  2  3  1  0
  4  2  1  0
  4  5  1  6
  6  4  1  0
  7  6  2  0
  8  9  1  0
  9 10  2  0
  9 19  1  0
 10 11  1  0
 11 12  2  0
 12 13  1  0
 14 13  1  1
 14 15  1  0
 15  6  1  0
 16 14  1  0
 16 17  2  0
 18 12  1  0
 19 18  2  0
 20 21  1  0
 20 16  1  0
 21 22  1  6
 22 23  1  0
 23 24  1  0
 24 28  1  0
 24 25  2  0
 26 21  1  0
 27 26  2  0
 29 26  1  0
M  END
$$$$
