VYE.pdb
     RDKit          3D

 29 29  0  0  1  0  0  0  0  0999 V2000
   27.1912  -16.1220  -15.3172 C   0  0  0  0  0  0  0  0  0  0  0  0
   26.1707  -17.2579  -15.4235 C   0  0  2  0  0  0  0  0  0  0  0  0
   25.0740  -16.9235  -14.4242 C   0  0  0  0  0  0  0  0  0  0  0  0
   26.9128  -18.5226  -15.0380 C   0  0  2  0  0  0  0  0  0  0  0  0
   28.0172  -18.6670  -15.9489 N   0  0  0  0  0  0  0  0  0  0  0  0
   26.0266  -19.7061  -15.0189 C   0  0  0  0  0  0  0  0  0  0  0  0
   25.6963  -20.1953  -16.1300 O   0  0  0  0  0  0  0  0  0  0  0  0
   26.3265  -19.4448   -8.0212 O   0  0  0  0  0  0  0  0  0  0  0  0
   26.0054  -20.1850   -9.1709 C   0  0  0  0  0  0  0  0  0  0  0  0
   24.7128  -20.5888   -9.4194 C   0  0  0  0  0  0  0  0  0  0  0  0
   24.4294  -21.3268  -10.5779 C   0  0  0  0  0  0  0  0  0  0  0  0
   25.4238  -21.6521  -11.4681 C   0  0  0  0  0  0  0  0  0  0  0  0
   25.1043  -22.4283  -12.6795 C   0  0  0  0  0  0  0  0  0  0  0  0
   24.7018  -21.5057  -13.8377 C   0  0  2  0  0  0  0  0  0  0  0  0
   25.5294  -20.3205  -13.8541 N   0  0  0  0  0  0  0  0  0  0  0  0
   23.3061  -21.0493  -13.4982 C   0  0  0  0  0  0  0  0  0  0  0  0
   23.1358  -19.8986  -13.0333 O   0  0  0  0  0  0  0  0  0  0  0  0
   26.7080  -21.2423  -11.2066 C   0  0  0  0  0  0  0  0  0  0  0  0
   27.0082  -20.5055  -10.0558 C   0  0  0  0  0  0  0  0  0  0  0  0
   22.1893  -21.8697  -13.6850 N   0  0  0  0  0  0  0  0  0  0  0  0
   20.8553  -21.2471  -13.6934 C   0  0  1  0  0  0  0  0  0  0  0  0
   20.7625  -20.2834  -14.8439 C   0  0  0  0  0  0  0  0  0  0  0  0
   19.3631  -19.7708  -14.9867 C   0  0  0  0  0  0  0  0  0  0  0  0
   19.2164  -18.4373  -14.3035 C   0  0  0  0  0  0  0  0  0  0  0  0
   19.8693  -17.4644  -14.7285 O   0  0  0  0  0  0  0  0  0  0  0  0
   19.8886  -22.3518  -13.7306 C   0  0  0  0  0  0  0  0  0  0  0  0
   18.6844  -22.1426  -13.4792 O   0  0  0  0  0  0  0  0  0  0  0  0
   18.3773  -18.2795  -13.2243 O   0  0  0  0  0  0  0  0  0  0  0  0
   20.2901  -23.6298  -14.0414 O   0  0  0  0  0  0  0  0  0  0  0  0
  2  1  1  1
  2  3  1  0
  4  2  1  0
  4  5  1  6
  6  4  1  0
  7  6  2  0
  8  9  1  0
  9 10  2  0
  9 19  1  0
 10 11  1  0
 11 12  2  0
 12 13  1  0
 14 13  1  1
 14 15  1  0
 15  6  1  0
 16 14  1  0
 16 17  2  0
 18 12  1  0
 19 18  2  0
 20 21  1  0
 20 16  1  0
 21 22  1  6
 22 23  1  0
 23 24  1  0
 24 28  1  0
 24 25  2  0
 26 21  1  0
 27 26  2  0
 29 26  1  0
M  END
$$$$
