VYE.pdb
     RDKit          3D

 29 29  0  0  1  0  0  0  0  0999 V2000
   25.4165  -19.2214  -19.0591 C   0  0  0  0  0  0  0  0  0  0  0  0
   26.4386  -18.1466  -18.6803 C   0  0  2  0  0  0  0  0  0  0  0  0
   26.8864  -17.5210  -19.9923 C   0  0  0  0  0  0  0  0  0  0  0  0
   27.5751  -18.8762  -17.9913 C   0  0  2  0  0  0  0  0  0  0  0  0
   28.1770  -19.7494  -18.9637 N   0  0  0  0  0  0  0  0  0  0  0  0
   27.1250  -19.5921  -16.7784 C   0  0  0  0  0  0  0  0  0  0  0  0
   26.7818  -20.7949  -16.9145 O   0  0  0  0  0  0  0  0  0  0  0  0
   25.3743  -21.6884   -8.3619 O   0  0  0  0  0  0  0  0  0  0  0  0
   25.7411  -21.0083   -9.5348 C   0  0  0  0  0  0  0  0  0  0  0  0
   25.7870  -21.6565  -10.7486 C   0  0  0  0  0  0  0  0  0  0  0  0
   26.1577  -20.9451  -11.8991 C   0  0  0  0  0  0  0  0  0  0  0  0
   26.4755  -19.6103  -11.8314 C   0  0  0  0  0  0  0  0  0  0  0  0
   26.8625  -18.8815  -13.0524 C   0  0  0  0  0  0  0  0  0  0  0  0
   26.6217  -19.7339  -14.3055 C   0  0  2  0  0  0  0  0  0  0  0  0
   27.0534  -19.0279  -15.4907 N   0  0  0  0  0  0  0  0  0  0  0  0
   25.1229  -19.8590  -14.4029 C   0  0  0  0  0  0  0  0  0  0  0  0
   24.4419  -18.8443  -14.6782 O   0  0  0  0  0  0  0  0  0  0  0  0
   26.4251  -18.9776  -10.6138 C   0  0  0  0  0  0  0  0  0  0  0  0
   26.0574  -19.6721   -9.4563 C   0  0  0  0  0  0  0  0  0  0  0  0
   24.4629  -21.0742  -14.1957 N   0  0  0  0  0  0  0  0  0  0  0  0
   22.9920  -21.0923  -14.2542 C   0  0  1  0  0  0  0  0  0  0  0  0
   22.5167  -22.5113  -14.4003 C   0  0  0  0  0  0  0  0  0  0  0  0
   21.0209  -22.5618  -14.4388 C   0  0  0  0  0  0  0  0  0  0  0  0
   20.5420  -23.0132  -15.7928 C   0  0  0  0  0  0  0  0  0  0  0  0
   21.3710  -23.4557  -16.6114 O   0  0  0  0  0  0  0  0  0  0  0  0
   22.5261  -20.4040  -13.0437 C   0  0  0  0  0  0  0  0  0  0  0  0
   21.5753  -19.5981  -13.1049 O   0  0  0  0  0  0  0  0  0  0  0  0
   19.2111  -22.9442  -16.1359 O   0  0  0  0  0  0  0  0  0  0  0  0
   23.1252  -20.6333  -11.8274 O   0  0  0  0  0  0  0  0  0  0  0  0
  2  1  1  6
  2  3  1  0
  4  2  1  0
  4  5  1  6
  6  4  1  0
  7  6  2  0
  8  9  1  0
  9 10  2  0
  9 19  1  0
 10 11  1  0
 11 12  2  0
 12 13  1  0
 14 13  1  1
 14 15  1  0
 15  6  1  0
 16 14  1  0
 16 17  2  0
 18 12  1  0
 19 18  2  0
 20 21  1  0
 20 16  1  0
 21 22  1  1
 22 23  1  0
 23 24  1  0
 24 28  1  0
 24 25  2  0
 26 21  1  0
 27 26  2  0
 29 26  1  0
M  END
$$$$
