VYE.pdb
     RDKit          3D

 29 29  0  0  1  0  0  0  0  0999 V2000
   27.8705   -8.5419  -18.9086 C   0  0  0  0  0  0  0  0  0  0  0  0
   28.5204   -9.4549  -17.8659 C   0  0  2  0  0  0  0  0  0  0  0  0
   29.9392   -9.6986  -18.3564 C   0  0  0  0  0  0  0  0  0  0  0  0
   27.7024  -10.7315  -17.8616 C   0  0  2  0  0  0  0  0  0  0  0  0
   27.8754  -11.3566  -19.1459 N   0  0  0  0  0  0  0  0  0  0  0  0
   26.2828  -10.4838  -17.5308 C   0  0  0  0  0  0  0  0  0  0  0  0
   25.4710  -10.4220  -18.4900 O   0  0  0  0  0  0  0  0  0  0  0  0
   18.5903   -9.5513  -13.3104 O   0  0  0  0  0  0  0  0  0  0  0  0
   19.9297   -9.8377  -13.6219 C   0  0  0  0  0  0  0  0  0  0  0  0
   20.9534   -9.4477  -12.7878 C   0  0  0  0  0  0  0  0  0  0  0  0
   22.2789   -9.7510  -13.1312 C   0  0  0  0  0  0  0  0  0  0  0  0
   22.5699  -10.4318  -14.2883 C   0  0  0  0  0  0  0  0  0  0  0  0
   23.9698  -10.7404  -14.6303 C   0  0  0  0  0  0  0  0  0  0  0  0
   24.3994  -10.0138  -15.9118 C   0  0  2  0  0  0  0  0  0  0  0  0
   25.7778  -10.3135  -16.2279 N   0  0  0  0  0  0  0  0  0  0  0  0
   24.3491   -8.5495  -15.5586 C   0  0  0  0  0  0  0  0  0  0  0  0
   25.3097   -8.0373  -14.9388 O   0  0  0  0  0  0  0  0  0  0  0  0
   21.5384  -10.8141  -15.1100 C   0  0  0  0  0  0  0  0  0  0  0  0
   20.2103  -10.5197  -14.7827 C   0  0  0  0  0  0  0  0  0  0  0  0
   23.2622   -7.7389  -15.9003 N   0  0  0  0  0  0  0  0  0  0  0  0
   23.3618   -6.2912  -15.6524 C   0  0  1  0  0  0  0  0  0  0  0  0
   23.2473   -5.5532  -16.9575 C   0  0  0  0  0  0  0  0  0  0  0  0
   23.3004   -4.0744  -16.7299 C   0  0  0  0  0  0  0  0  0  0  0  0
   23.2394   -3.3355  -18.0402 C   0  0  0  0  0  0  0  0  0  0  0  0
   23.2215   -3.9873  -19.1023 O   0  0  0  0  0  0  0  0  0  0  0  0
   22.3210   -5.9725  -14.6667 C   0  0  0  0  0  0  0  0  0  0  0  0
   21.2324   -6.5824  -14.6821 O   0  0  0  0  0  0  0  0  0  0  0  0
   23.2035   -1.9604  -18.0803 O   0  0  0  0  0  0  0  0  0  0  0  0
   22.5253   -5.0021  -13.7142 O   0  0  0  0  0  0  0  0  0  0  0  0
  2  1  1  6
  2  3  1  0
  4  2  1  0
  4  5  1  6
  6  4  1  0
  7  6  2  0
  8  9  1  0
  9 10  2  0
  9 19  1  0
 10 11  1  0
 11 12  2  0
 12 13  1  0
 14 13  1  1
 14 15  1  0
 15  6  1  0
 16 14  1  0
 16 17  2  0
 18 12  1  0
 19 18  2  0
 20 21  1  0
 20 16  1  0
 21 22  1  6
 22 23  1  0
 23 24  1  0
 24 28  1  0
 24 25  2  0
 26 21  1  0
 27 26  2  0
 29 26  1  0
M  END
$$$$
