VYE.pdb
     RDKit          3D

 29 29  0  0  1  0  0  0  0  0999 V2000
   22.6111  -22.7406  -13.2571 C   0  0  0  0  0  0  0  0  0  0  0  0
   21.5728  -21.8844  -12.5276 C   0  0  2  0  0  0  0  0  0  0  0  0
   21.2623  -20.7253  -13.4621 C   0  0  0  0  0  0  0  0  0  0  0  0
   22.2436  -21.4116  -11.2527 C   0  0  2  0  0  0  0  0  0  0  0  0
   21.2910  -20.6011  -10.5415 N   0  0  0  0  0  0  0  0  0  0  0  0
   23.5136  -20.7030  -11.5198 C   0  0  0  0  0  0  0  0  0  0  0  0
   23.4351  -19.5108  -11.9140 O   0  0  0  0  0  0  0  0  0  0  0  0
   27.1667  -19.1364   -5.6571 O   0  0  0  0  0  0  0  0  0  0  0  0
   27.1742  -19.6231   -6.9746 C   0  0  0  0  0  0  0  0  0  0  0  0
   27.0132  -18.7751   -8.0474 C   0  0  0  0  0  0  0  0  0  0  0  0
   27.0262  -19.2968   -9.3493 C   0  0  0  0  0  0  0  0  0  0  0  0
   27.1972  -20.6420   -9.5687 C   0  0  0  0  0  0  0  0  0  0  0  0
   27.2076  -21.1694  -10.9448 C   0  0  0  0  0  0  0  0  0  0  0  0
   26.0285  -20.6182  -11.7576 C   0  0  2  0  0  0  0  0  0  0  0  0
   24.7957  -21.2632  -11.3654 N   0  0  0  0  0  0  0  0  0  0  0  0
   26.3050  -21.0478  -13.1755 C   0  0  0  0  0  0  0  0  0  0  0  0
   26.3225  -22.2696  -13.4512 O   0  0  0  0  0  0  0  0  0  0  0  0
   27.3565  -21.4751   -8.4888 C   0  0  0  0  0  0  0  0  0  0  0  0
   27.3462  -20.9715   -7.1835 C   0  0  0  0  0  0  0  0  0  0  0  0
   26.5437  -20.1254  -14.1990 N   0  0  0  0  0  0  0  0  0  0  0  0
   26.1300  -20.4742  -15.5680 C   0  0  1  0  0  0  0  0  0  0  0  0
   24.6536  -20.7589  -15.5850 C   0  0  0  0  0  0  0  0  0  0  0  0
   24.1967  -21.0757  -16.9750 C   0  0  0  0  0  0  0  0  0  0  0  0
   22.7142  -21.3367  -16.9976 C   0  0  0  0  0  0  0  0  0  0  0  0
   22.2432  -22.0754  -17.8840 O   0  0  0  0  0  0  0  0  0  0  0  0
   26.5556  -19.3572  -16.4210 C   0  0  0  0  0  0  0  0  0  0  0  0
   26.7364  -18.2244  -15.9300 O   0  0  0  0  0  0  0  0  0  0  0  0
   21.8787  -20.7747  -16.0596 O   0  0  0  0  0  0  0  0  0  0  0  0
   26.7618  -19.5379  -17.7685 O   0  0  0  0  0  0  0  0  0  0  0  0
  2  1  1  6
  2  3  1  0
  4  2  1  0
  4  5  1  6
  6  4  1  0
  7  6  2  0
  8  9  1  0
  9 10  2  0
  9 19  1  0
 10 11  1  0
 11 12  2  0
 12 13  1  0
 14 13  1  1
 14 15  1  0
 15  6  1  0
 16 14  1  0
 16 17  2  0
 18 12  1  0
 19 18  2  0
 20 21  1  0
 20 16  1  0
 21 22  1  1
 22 23  1  0
 23 24  1  0
 24 28  1  0
 24 25  2  0
 26 21  1  0
 27 26  2  0
 29 26  1  0
M  END
$$$$
