VYE.pdb
     RDKit          3D

 29 29  0  0  1  0  0  0  0  0999 V2000
   34.8477  -18.5115   12.4819 C   0  0  0  0  0  0  0  0  0  0  0  0
   33.8182  -19.3694   11.7421 C   0  0  2  0  0  0  0  0  0  0  0  0
   33.4249  -20.4723   12.7126 C   0  0  0  0  0  0  0  0  0  0  0  0
   34.5337  -19.9230   10.5254 C   0  0  2  0  0  0  0  0  0  0  0  0
   34.8088  -18.8161    9.6484 N   0  0  0  0  0  0  0  0  0  0  0  0
   33.7634  -20.9993    9.8664 C   0  0  0  0  0  0  0  0  0  0  0  0
   32.8283  -20.6509    9.1001 O   0  0  0  0  0  0  0  0  0  0  0  0
   37.1508  -23.5333    4.3646 O   0  0  0  0  0  0  0  0  0  0  0  0
   36.3883  -23.7991    5.5139 C   0  0  0  0  0  0  0  0  0  0  0  0
   35.0125  -23.8230    5.4654 C   0  0  0  0  0  0  0  0  0  0  0  0
   34.2840  -24.0918    6.6333 C   0  0  0  0  0  0  0  0  0  0  0  0
   34.9242  -24.3316    7.8248 C   0  0  0  0  0  0  0  0  0  0  0  0
   34.1394  -24.6121    9.0403 C   0  0  0  0  0  0  0  0  0  0  0  0
   33.2341  -23.4265    9.4003 C   0  0  2  0  0  0  0  0  0  0  0  0
   33.9998  -22.3768   10.0339 N   0  0  0  0  0  0  0  0  0  0  0  0
   32.2948  -23.9648   10.4488 C   0  0  0  0  0  0  0  0  0  0  0  0
   32.6769  -24.0205   11.6405 O   0  0  0  0  0  0  0  0  0  0  0  0
   36.2966  -24.3044    7.8574 C   0  0  0  0  0  0  0  0  0  0  0  0
   37.0389  -24.0378    6.7018 C   0  0  0  0  0  0  0  0  0  0  0  0
   31.0053  -24.4062   10.1362 N   0  0  0  0  0  0  0  0  0  0  0  0
   30.1873  -24.9973   11.2080 C   0  0  1  0  0  0  0  0  0  0  0  0
   28.7322  -24.7598   10.9126 C   0  0  0  0  0  0  0  0  0  0  0  0
   27.8715  -25.5107   11.8804 C   0  0  0  0  0  0  0  0  0  0  0  0
   27.5939  -24.6738   13.1006 C   0  0  0  0  0  0  0  0  0  0  0  0
   27.9724  -23.4864   13.1190 O   0  0  0  0  0  0  0  0  0  0  0  0
   30.5806  -26.4096   11.2909 C   0  0  0  0  0  0  0  0  0  0  0  0
   31.1066  -26.9746   10.3105 O   0  0  0  0  0  0  0  0  0  0  0  0
   26.9328  -25.1983   14.1876 O   0  0  0  0  0  0  0  0  0  0  0  0
   30.3777  -27.1314   12.4436 O   0  0  0  0  0  0  0  0  0  0  0  0
  2  1  1  1
  2  3  1  0
  4  2  1  0
  4  5  1  6
  6  4  1  0
  7  6  2  0
  8  9  1  0
  9 10  2  0
  9 19  1  0
 10 11  1  0
 11 12  2  0
 12 13  1  0
 14 13  1  1
 14 15  1  0
 15  6  1  0
 16 14  1  0
 16 17  2  0
 18 12  1  0
 19 18  2  0
 20 21  1  0
 20 16  1  0
 21 22  1  6
 22 23  1  0
 23 24  1  0
 24 28  1  0
 24 25  2  0
 26 21  1  0
 27 26  2  0
 29 26  1  0
M  END
$$$$
