GTN.pdb
     RDKit          3D

 20 19  0  0  1  0  0  0  0  0999 V2000
   12.1059  -12.3627  -12.0297 N   0  0  0  0  0  0  0  0  0  0  0  0
   12.5140  -11.1391  -12.6918 C   0  0  0  0  0  0  0  0  0  0  0  0
   13.9351  -11.2519  -13.1024 C   0  0  0  0  0  0  0  0  0  0  0  0
   14.7148  -12.1134  -12.6340 O   0  0  0  0  0  0  0  0  0  0  0  0
   15.1755  -12.2075  -16.2391 C   0  0  0  0  0  0  0  0  0  0  0  0
   15.8716  -10.8809  -16.0236 C   0  0  1  0  0  0  0  0  0  0  0  0
   15.2886   -9.9677  -16.8622 O   0  0  0  0  0  0  0  0  0  0  0  0
   15.7992  -10.4809  -14.5674 C   0  0  2  0  0  0  0  0  0  0  0  0
   14.4721  -10.3588  -14.0694 N   0  0  0  0  0  0  0  0  0  0  0  0
   16.6183   -9.2533  -14.3295 C   0  0  0  0  0  0  0  0  0  0  0  0
   16.0837   -8.1315  -14.1379 O   0  0  0  0  0  0  0  0  0  0  0  0
   20.9599   -6.2197  -14.0331 N   0  0  0  0  0  0  0  0  0  0  0  0
   21.2962   -7.5587  -13.7131 C   0  0  0  0  0  0  0  0  0  0  0  0
   22.4963   -7.7959  -13.3925 O   0  0  0  0  0  0  0  0  0  0  0  0
   20.2913   -8.6282  -13.7493 C   0  0  0  0  0  0  0  0  0  0  0  0
   18.9170   -8.1966  -14.1570 C   0  0  2  0  0  0  0  0  0  0  0  0
   18.0361   -9.3560  -14.3194 N   0  0  0  0  0  0  0  0  0  0  0  0
   18.9989   -7.5928  -15.5185 C   0  0  0  0  0  0  0  0  0  0  0  0
   18.7900   -8.2642  -16.5736 O   0  0  0  0  0  0  0  0  0  0  0  0
   19.3069   -6.2742  -15.6762 O   0  0  0  0  0  0  0  0  0  0  0  0
  2  1  1  0
  3  2  1  0
  4  3  2  0
  6  5  1  1
  7  6  1  0
  8  9  1  6
  8  6  1  0
  9  3  1  0
 10  8  1  0
 11 10  2  0
 13 12  1  0
 13 14  2  0
 15 13  1  0
 16 15  1  6
 16 17  1  0
 17 10  1  0
 18 20  1  0
 18 16  1  0
 19 18  2  0
M  END
$$$$
