GTN.pdb
     RDKit          3D

 20 19  0  0  1  0  0  0  0  0999 V2000
   17.6475  -15.5600  -16.5645 N   0  0  0  0  0  0  0  0  0  0  0  0
   18.1941  -14.4628  -17.3390 C   0  0  0  0  0  0  0  0  0  0  0  0
   18.8932  -13.5202  -16.4316 C   0  0  0  0  0  0  0  0  0  0  0  0
   18.4387  -13.1849  -15.3134 O   0  0  0  0  0  0  0  0  0  0  0  0
   22.9243  -11.9784  -17.3223 C   0  0  0  0  0  0  0  0  0  0  0  0
   22.3069  -12.1717  -15.9541 C   0  0  1  0  0  0  0  0  0  0  0  0
   22.9236  -11.2997  -15.0959 O   0  0  0  0  0  0  0  0  0  0  0  0
   20.8090  -11.9780  -16.0224 C   0  0  2  0  0  0  0  0  0  0  0  0
   20.1383  -12.9509  -16.8148 N   0  0  0  0  0  0  0  0  0  0  0  0
   20.4894  -10.5781  -16.4379 C   0  0  0  0  0  0  0  0  0  0  0  0
   20.4331  -10.2470  -17.6496 O   0  0  0  0  0  0  0  0  0  0  0  0
   19.0331   -5.5020  -15.9529 N   0  0  0  0  0  0  0  0  0  0  0  0
   18.1438   -6.4602  -15.4058 C   0  0  0  0  0  0  0  0  0  0  0  0
   16.9843   -6.0646  -15.0919 O   0  0  0  0  0  0  0  0  0  0  0  0
   18.5504   -7.8576  -15.2135 C   0  0  0  0  0  0  0  0  0  0  0  0
   19.9013   -8.2076  -15.7556 C   0  0  2  0  0  0  0  0  0  0  0  0
   20.2430   -9.5967  -15.4393 N   0  0  0  0  0  0  0  0  0  0  0  0
   20.9223   -7.3951  -15.0328 C   0  0  0  0  0  0  0  0  0  0  0  0
   20.9657   -6.1305  -15.1127 O   0  0  0  0  0  0  0  0  0  0  0  0
   21.8602   -7.9970  -14.2477 O   0  0  0  0  0  0  0  0  0  0  0  0
  2  1  1  0
  3  2  1  0
  4  3  2  0
  6  5  1  6
  7  6  1  0
  8  9  1  6
  8  6  1  0
  9  3  1  0
 10  8  1  0
 11 10  2  0
 13 12  1  0
 13 14  2  0
 15 13  1  0
 16 15  1  1
 16 17  1  0
 17 10  1  0
 18 20  1  0
 18 16  1  0
 19 18  2  0
M  END
$$$$
