GTN.pdb
     RDKit          3D

 20 19  0  0  1  0  0  0  0  0999 V2000
   19.2180  -13.1002  -17.1071 N   0  0  0  0  0  0  0  0  0  0  0  0
   19.0439  -11.6943  -17.4159 C   0  0  0  0  0  0  0  0  0  0  0  0
   19.5989  -10.8752  -16.3105 C   0  0  0  0  0  0  0  0  0  0  0  0
   19.0176  -10.7296  -15.2103 O   0  0  0  0  0  0  0  0  0  0  0  0
   23.0068  -11.2621  -14.8033 C   0  0  0  0  0  0  0  0  0  0  0  0
   22.8836   -9.7959  -15.1580 C   0  0  1  0  0  0  0  0  0  0  0  0
   23.7072   -9.5591  -16.2271 O   0  0  0  0  0  0  0  0  0  0  0  0
   21.4394   -9.4417  -15.4310 C   0  0  2  0  0  0  0  0  0  0  0  0
   20.8450  -10.2100  -16.4706 N   0  0  0  0  0  0  0  0  0  0  0  0
   21.3035   -7.9699  -15.6536 C   0  0  0  0  0  0  0  0  0  0  0  0
   21.0861   -7.4937  -16.7969 O   0  0  0  0  0  0  0  0  0  0  0  0
   20.8379   -2.8270  -14.7308 N   0  0  0  0  0  0  0  0  0  0  0  0
   19.7454   -3.7074  -14.5317 C   0  0  0  0  0  0  0  0  0  0  0  0
   18.6090   -3.1884  -14.3349 O   0  0  0  0  0  0  0  0  0  0  0  0
   19.9242   -5.1643  -14.5555 C   0  0  0  0  0  0  0  0  0  0  0  0
   21.3419   -5.6295  -14.6781 C   0  0  2  0  0  0  0  0  0  0  0  0
   21.4228   -7.0864  -14.5463 N   0  0  0  0  0  0  0  0  0  0  0  0
   22.1113   -5.1031  -13.5137 C   0  0  0  0  0  0  0  0  0  0  0  0
   22.6863   -3.9732  -13.5337 O   0  0  0  0  0  0  0  0  0  0  0  0
   22.2237   -5.8334  -12.3681 O   0  0  0  0  0  0  0  0  0  0  0  0
  2  1  1  0
  3  2  1  0
  4  3  2  0
  6  5  1  6
  7  6  1  0
  8  9  1  6
  8  6  1  0
  9  3  1  0
 10  8  1  0
 11 10  2  0
 13 12  1  0
 13 14  2  0
 15 13  1  0
 16 15  1  1
 16 17  1  0
 17 10  1  0
 18 20  1  0
 18 16  1  0
 19 18  2  0
M  END
$$$$
