GTN.pdb
     RDKit          3D

 20 19  0  0  1  0  0  0  0  0999 V2000
   16.8182  -12.1642  -15.6811 N   0  0  0  0  0  0  0  0  0  0  0  0
   17.6027  -11.4210  -14.7145 C   0  0  0  0  0  0  0  0  0  0  0  0
   17.9242  -10.0821  -15.2666 C   0  0  0  0  0  0  0  0  0  0  0  0
   18.2980   -9.9028  -16.4488 O   0  0  0  0  0  0  0  0  0  0  0  0
   17.3831   -5.2719  -15.2483 C   0  0  0  0  0  0  0  0  0  0  0  0
   17.1032   -6.5730  -14.5274 C   0  0  1  0  0  0  0  0  0  0  0  0
   15.8146   -6.9370  -14.8178 O   0  0  0  0  0  0  0  0  0  0  0  0
   18.1194   -7.6206  -14.9222 C   0  0  2  0  0  0  0  0  0  0  0  0
   17.8147   -8.9262  -14.4461 N   0  0  0  0  0  0  0  0  0  0  0  0
   19.4937   -7.1747  -14.5390 C   0  0  0  0  0  0  0  0  0  0  0  0
   19.9364   -7.3325  -13.3728 O   0  0  0  0  0  0  0  0  0  0  0  0
   24.3712   -5.1791  -15.0579 N   0  0  0  0  0  0  0  0  0  0  0  0
   23.7639   -5.2435  -16.3367 C   0  0  0  0  0  0  0  0  0  0  0  0
   24.4641   -4.8964  -17.3309 O   0  0  0  0  0  0  0  0  0  0  0  0
   22.3777   -5.6977  -16.5020 C   0  0  0  0  0  0  0  0  0  0  0  0
   21.6957   -6.1317  -15.2419 C   0  0  2  0  0  0  0  0  0  0  0  0
   20.3209   -6.5571  -15.5164 N   0  0  0  0  0  0  0  0  0  0  0  0
   21.5512   -4.9429  -14.3527 C   0  0  0  0  0  0  0  0  0  0  0  0
   20.7298   -4.0081  -14.5956 O   0  0  0  0  0  0  0  0  0  0  0  0
   22.3120   -4.8201  -13.2281 O   0  0  0  0  0  0  0  0  0  0  0  0
  2  1  1  0
  3  2  1  0
  4  3  2  0
  6  5  1  6
  7  6  1  0
  8  9  1  1
  8  6  1  0
  9  3  1  0
 10  8  1  0
 11 10  2  0
 13 12  1  0
 13 14  2  0
 15 13  1  0
 16 15  1  6
 16 17  1  0
 17 10  1  0
 18 20  1  0
 18 16  1  0
 19 18  2  0
M  END
$$$$
