GTN.pdb
     RDKit          3D

 20 19  0  0  1  0  0  0  0  0999 V2000
   16.3267  -10.6360  -15.7206 N   0  0  0  0  0  0  0  0  0  0  0  0
   17.5418  -10.6568  -16.5113 C   0  0  0  0  0  0  0  0  0  0  0  0
   18.6487  -10.0543  -15.7286 C   0  0  0  0  0  0  0  0  0  0  0  0
   18.5290   -9.7106  -14.5299 O   0  0  0  0  0  0  0  0  0  0  0  0
   23.3832   -9.0627  -15.0699 C   0  0  0  0  0  0  0  0  0  0  0  0
   22.3395   -9.7680  -15.9089 C   0  0  1  0  0  0  0  0  0  0  0  0
   22.3964  -11.1024  -15.6029 O   0  0  0  0  0  0  0  0  0  0  0  0
   20.9757   -9.1613  -15.6685 C   0  0  2  0  0  0  0  0  0  0  0  0
   19.9177   -9.8419  -16.3332 N   0  0  0  0  0  0  0  0  0  0  0  0
   21.0015   -7.6987  -15.9756 C   0  0  0  0  0  0  0  0  0  0  0  0
   20.9405   -7.2723  -17.1570 O   0  0  0  0  0  0  0  0  0  0  0  0
   20.9152   -2.4836  -15.2847 N   0  0  0  0  0  0  0  0  0  0  0  0
   19.8616   -3.2079  -14.6734 C   0  0  0  0  0  0  0  0  0  0  0  0
   18.8953   -2.5420  -14.2023 O   0  0  0  0  0  0  0  0  0  0  0  0
   19.8887   -4.6735  -14.5924 C   0  0  0  0  0  0  0  0  0  0  0  0
   21.1351   -5.3168  -15.1157 C   0  0  2  0  0  0  0  0  0  0  0  0
   21.0974   -6.7664  -14.9067 N   0  0  0  0  0  0  0  0  0  0  0  0
   22.2870   -4.8478  -14.2922 C   0  0  0  0  0  0  0  0  0  0  0  0
   22.5750   -5.3632  -13.1702 O   0  0  0  0  0  0  0  0  0  0  0  0
   23.0831   -3.8304  -14.7274 O   0  0  0  0  0  0  0  0  0  0  0  0
  2  1  1  0
  3  2  1  0
  4  3  2  0
  6  5  1  1
  7  6  1  0
  8  9  1  6
  8  6  1  0
  9  3  1  0
 10  8  1  0
 11 10  2  0
 13 12  1  0
 13 14  2  0
 15 13  1  0
 16 15  1  1
 16 17  1  0
 17 10  1  0
 18 20  1  0
 18 16  1  0
 19 18  2  0
M  END
$$$$
