SSF.pdb
     RDKit          3D

 24 24  0  0  1  0  0  0  0  0999 V2000
    4.9558  -17.8720   20.4628 O   0  0  0  0  0  0  0  0  0  0  0  0
    5.5294  -16.6960   20.0235 C   0  0  0  0  0  0  0  0  0  0  0  0
    6.8567  -17.0448   19.3710 C   0  0  2  0  0  0  0  0  0  0  0  0
    6.7032  -18.1594   18.4673 N   0  0  0  0  0  0  0  0  0  0  0  0
    7.7860  -17.4411   20.4532 C   0  0  0  0  0  0  0  0  0  0  0  0
    7.7383  -18.6003   20.9312 O   0  0  0  0  0  0  0  0  0  0  0  0
   11.4203  -15.5543   21.4300 O   0  0  0  0  0  0  0  0  0  0  0  0
   11.0804  -16.8948   21.5820 C   0  0  0  0  0  0  0  0  0  0  0  0
    9.6279  -16.9573   22.0482 C   0  0  2  0  0  0  0  0  0  0  0  0
    8.7599  -16.5376   20.9906 N   0  0  0  0  0  0  0  0  0  0  0  0
    9.4368  -16.1709   23.2930 C   0  0  0  0  0  0  0  0  0  0  0  0
    9.2312  -14.9311   23.2431 O   0  0  0  0  0  0  0  0  0  0  0  0
    9.4727  -16.7533   24.5949 N   0  0  0  0  0  0  0  0  0  0  0  0
    9.0553  -16.0385   25.7883 C   0  0  1  0  0  0  0  0  0  0  0  0
    7.6028  -15.6760   25.5908 C   0  0  0  0  0  0  0  0  0  0  0  0
    7.3086  -14.2563   25.7279 C   0  0  0  0  0  0  0  0  0  0  0  0
    6.6064  -13.8145   26.8219 C   0  0  0  0  0  0  0  0  0  0  0  0
    6.2857  -12.4799   27.0282 C   0  0  0  0  0  0  0  0  0  0  0  0
    6.6953  -11.5599   26.0854 C   0  0  0  0  0  0  0  0  0  0  0  0
    7.3986  -11.9923   24.9870 C   0  0  0  0  0  0  0  0  0  0  0  0
    7.7100  -13.3300   24.7974 C   0  0  0  0  0  0  0  0  0  0  0  0
    9.3170  -16.8154   26.9982 C   0  0  0  0  0  0  0  0  0  0  0  0
    9.7251  -16.1658   28.1486 O   0  0  0  0  0  0  0  0  0  0  0  0
    9.1832  -18.0608   27.0288 O   0  0  0  0  0  0  0  0  0  0  0  0
  1  2  1  0
  2  3  1  0
  3  5  1  0
  3  4  1  6
  5  6  2  0
  7  8  1  0
  9  8  1  6
  9 11  1  0
 10  5  1  0
 10  9  1  0
 11 12  2  0
 11 13  1  0
 13 14  1  0
 14 22  1  0
 14 15  1  6
 16 15  1  0
 16 17  2  0
 18 17  1  0
 19 18  2  0
 20 21  2  0
 20 19  1  0
 21 16  1  0
 22 24  2  0
 22 23  1  0
M  END
$$$$
