SSF.pdb
     RDKit          3D

 24 24  0  0  1  0  0  0  0  0999 V2000
   10.4581  -14.3894   18.9903 O   0  0  0  0  0  0  0  0  0  0  0  0
    9.6196  -14.8672   18.0036 C   0  0  0  0  0  0  0  0  0  0  0  0
    8.2344  -14.2969   18.2582 C   0  0  2  0  0  0  0  0  0  0  0  0
    8.2123  -12.8771   18.0007 N   0  0  0  0  0  0  0  0  0  0  0  0
    7.9247  -14.5204   19.6886 C   0  0  0  0  0  0  0  0  0  0  0  0
    8.2772  -13.6773   20.5485 O   0  0  0  0  0  0  0  0  0  0  0  0
    6.6990  -18.1486   21.3660 O   0  0  0  0  0  0  0  0  0  0  0  0
    5.9424  -17.0290   21.6972 C   0  0  0  0  0  0  0  0  0  0  0  0
    6.8270  -15.7981   21.5143 C   0  0  2  0  0  0  0  0  0  0  0  0
    7.2239  -15.6845   20.1440 N   0  0  0  0  0  0  0  0  0  0  0  0
    7.9833  -15.8338   22.4450 C   0  0  0  0  0  0  0  0  0  0  0  0
    9.1180  -16.1999   22.0444 O   0  0  0  0  0  0  0  0  0  0  0  0
    7.8875  -15.4649   23.8198 N   0  0  0  0  0  0  0  0  0  0  0  0
    9.0120  -15.5438   24.7357 C   0  0  1  0  0  0  0  0  0  0  0  0
    9.2864  -14.1359   25.2076 C   0  0  0  0  0  0  0  0  0  0  0  0
    8.1278  -13.4436   25.7546 C   0  0  0  0  0  0  0  0  0  0  0  0
    8.0858  -13.1521   27.0956 C   0  0  0  0  0  0  0  0  0  0  0  0
    7.0206  -12.4950   27.6954 C   0  0  0  0  0  0  0  0  0  0  0  0
    5.9573  -12.1203   26.9003 C   0  0  0  0  0  0  0  0  0  0  0  0
    5.9899  -12.4076   25.5570 C   0  0  0  0  0  0  0  0  0  0  0  0
    7.0630  -13.0649   24.9750 C   0  0  0  0  0  0  0  0  0  0  0  0
    8.7592  -16.4961   25.8151 C   0  0  0  0  0  0  0  0  0  0  0  0
    9.7764  -16.8096   26.6977 O   0  0  0  0  0  0  0  0  0  0  0  0
    7.6425  -17.0430   25.9693 O   0  0  0  0  0  0  0  0  0  0  0  0
  1  2  1  0
  2  3  1  0
  3  5  1  0
  3  4  1  1
  5  6  2  0
  7  8  1  0
  9  8  1  6
  9 11  1  0
 10  5  1  0
 10  9  1  0
 11 12  2  0
 11 13  1  0
 13 14  1  0
 14 22  1  0
 14 15  1  1
 16 15  1  0
 16 17  2  0
 18 17  1  0
 19 18  2  0
 20 21  2  0
 20 19  1  0
 21 16  1  0
 22 24  2  0
 22 23  1  0
M  END
$$$$
