SSF.pdb
     RDKit          3D

 24 24  0  0  1  0  0  0  0  0999 V2000
   10.7337  -19.3785   19.3935 O   0  0  0  0  0  0  0  0  0  0  0  0
    9.3755  -19.2707   19.1729 C   0  0  0  0  0  0  0  0  0  0  0  0
    9.0647  -17.8066   18.9107 C   0  0  2  0  0  0  0  0  0  0  0  0
    9.9490  -17.2699   17.9044 N   0  0  0  0  0  0  0  0  0  0  0  0
    9.2954  -17.0761   20.1776 C   0  0  0  0  0  0  0  0  0  0  0  0
   10.4225  -17.1105   20.7281 O   0  0  0  0  0  0  0  0  0  0  0  0
    6.7552  -18.4686   23.2977 O   0  0  0  0  0  0  0  0  0  0  0  0
    7.2782  -18.1515   22.0481 C   0  0  0  0  0  0  0  0  0  0  0  0
    7.7672  -16.7061   22.1007 C   0  0  2  0  0  0  0  0  0  0  0  0
    8.2638  -16.3142   20.8170 N   0  0  0  0  0  0  0  0  0  0  0  0
    8.7679  -16.5245   23.1825 C   0  0  0  0  0  0  0  0  0  0  0  0
    9.9181  -17.0235   23.0823 O   0  0  0  0  0  0  0  0  0  0  0  0
    8.4992  -15.7914   24.3764 N   0  0  0  0  0  0  0  0  0  0  0  0
    9.4826  -15.6176   25.4311 C   0  0  1  0  0  0  0  0  0  0  0  0
    9.6668  -14.1298   25.6113 C   0  0  0  0  0  0  0  0  0  0  0  0
    8.4448  -13.4012   25.9226 C   0  0  0  0  0  0  0  0  0  0  0  0
    7.6323  -12.9768   24.9005 C   0  0  0  0  0  0  0  0  0  0  0  0
    6.4516  -12.2783   25.1110 C   0  0  0  0  0  0  0  0  0  0  0  0
    6.0837  -12.0010   26.4114 C   0  0  0  0  0  0  0  0  0  0  0  0
    6.8902  -12.4215   27.4413 C   0  0  0  0  0  0  0  0  0  0  0  0
    8.0666  -13.1185   27.2118 C   0  0  0  0  0  0  0  0  0  0  0  0
    9.0919  -16.3224   26.6504 C   0  0  0  0  0  0  0  0  0  0  0  0
    9.9593  -16.3514   27.7268 O   0  0  0  0  0  0  0  0  0  0  0  0
    7.9883  -16.9062   26.7544 O   0  0  0  0  0  0  0  0  0  0  0  0
  1  2  1  0
  2  3  1  0
  3  5  1  0
  3  4  1  6
  5  6  2  0
  7  8  1  0
  9  8  1  6
  9 11  1  0
 10  5  1  0
 10  9  1  0
 11 12  2  0
 11 13  1  0
 13 14  1  0
 14 22  1  0
 14 15  1  1
 16 15  1  0
 16 17  2  0
 18 17  1  0
 19 18  2  0
 20 21  2  0
 20 19  1  0
 21 16  1  0
 22 24  2  0
 22 23  1  0
M  END
$$$$
