SSF.pdb
     RDKit          3D

 24 24  0  0  1  0  0  0  0  0999 V2000
    8.7581  -12.8035   20.8397 O   0  0  0  0  0  0  0  0  0  0  0  0
    8.9589  -13.8481   19.9603 C   0  0  0  0  0  0  0  0  0  0  0  0
    7.8470  -14.8596   20.1826 C   0  0  2  0  0  0  0  0  0  0  0  0
    6.5554  -14.2185   20.1248 N   0  0  0  0  0  0  0  0  0  0  0  0
    8.0321  -15.4230   21.5392 C   0  0  0  0  0  0  0  0  0  0  0  0
    7.2959  -15.0470   22.4831 O   0  0  0  0  0  0  0  0  0  0  0  0
   11.1830  -18.0090   22.5884 O   0  0  0  0  0  0  0  0  0  0  0  0
    9.9081  -18.2889   23.0701 C   0  0  0  0  0  0  0  0  0  0  0  0
    9.1356  -16.9736   23.1356 C   0  0  2  0  0  0  0  0  0  0  0  0
    9.0387  -16.4015   21.8274 N   0  0  0  0  0  0  0  0  0  0  0  0
    9.7479  -16.0483   24.1222 C   0  0  0  0  0  0  0  0  0  0  0  0
   10.5846  -15.1832   23.7566 O   0  0  0  0  0  0  0  0  0  0  0  0
    9.4367  -16.0774   25.5142 N   0  0  0  0  0  0  0  0  0  0  0  0
   10.3121  -15.5159   26.5280 C   0  0  1  0  0  0  0  0  0  0  0  0
   10.0893  -14.0224   26.5144 C   0  0  0  0  0  0  0  0  0  0  0  0
    8.6901  -13.6185   26.5152 C   0  0  0  0  0  0  0  0  0  0  0  0
    7.7096  -14.5795   26.5045 C   0  0  0  0  0  0  0  0  0  0  0  0
    6.3544  -14.2796   26.5054 C   0  0  0  0  0  0  0  0  0  0  0  0
    5.9829  -12.9511   26.5175 C   0  0  0  0  0  0  0  0  0  0  0  0
    6.9569  -11.9819   26.5282 C   0  0  0  0  0  0  0  0  0  0  0  0
    8.3063  -12.3004   26.5272 C   0  0  0  0  0  0  0  0  0  0  0  0
   10.0931  -16.1398   27.8314 C   0  0  0  0  0  0  0  0  0  0  0  0
    9.2076  -17.1963   27.9394 O   0  0  0  0  0  0  0  0  0  0  0  0
   10.6855  -15.7466   28.8630 O   0  0  0  0  0  0  0  0  0  0  0  0
  1  2  1  0
  2  3  1  0
  3  5  1  0
  3  4  1  1
  5  6  2  0
  7  8  1  0
  9  8  1  6
  9 11  1  0
 10  5  1  0
 10  9  1  0
 11 12  2  0
 11 13  1  0
 13 14  1  0
 14 22  1  0
 14 15  1  1
 16 15  1  0
 16 17  2  0
 18 17  1  0
 19 18  2  0
 20 21  2  0
 20 19  1  0
 21 16  1  0
 22 24  2  0
 22 23  1  0
M  END
$$$$
