SSF.pdb
     RDKit          3D

 24 24  0  0  1  0  0  0  0  0999 V2000
   10.3663  -13.5783   20.0860 O   0  0  0  0  0  0  0  0  0  0  0  0
    9.7552  -14.1405   18.9835 C   0  0  0  0  0  0  0  0  0  0  0  0
    8.2696  -13.8332   19.0718 C   0  0  2  0  0  0  0  0  0  0  0  0
    8.0416  -12.4083   19.0521 N   0  0  0  0  0  0  0  0  0  0  0  0
    7.7876  -14.3688   20.3651 C   0  0  0  0  0  0  0  0  0  0  0  0
    7.4766  -13.5853   21.2946 O   0  0  0  0  0  0  0  0  0  0  0  0
    7.8992  -18.4490   21.4735 O   0  0  0  0  0  0  0  0  0  0  0  0
    6.7431  -17.7175   21.7265 C   0  0  0  0  0  0  0  0  0  0  0  0
    7.1396  -16.2487   21.8541 C   0  0  2  0  0  0  0  0  0  0  0  0
    7.6580  -15.7754   20.6069 N   0  0  0  0  0  0  0  0  0  0  0  0
    8.0868  -16.0517   22.9805 C   0  0  0  0  0  0  0  0  0  0  0  0
    9.3134  -15.8773   22.7638 O   0  0  0  0  0  0  0  0  0  0  0  0
    7.6799  -16.0471   24.3478 N   0  0  0  0  0  0  0  0  0  0  0  0
    8.5971  -15.7750   25.4407 C   0  0  1  0  0  0  0  0  0  0  0  0
    7.7795  -15.1563   26.5492 C   0  0  0  0  0  0  0  0  0  0  0  0
    7.3505  -13.7881   26.2944 C   0  0  0  0  0  0  0  0  0  0  0  0
    6.0623  -13.4176   26.5917 C   0  0  0  0  0  0  0  0  0  0  0  0
    5.5746  -12.1354   26.3806 C   0  0  0  0  0  0  0  0  0  0  0  0
    6.4304  -11.1944   25.8465 C   0  0  0  0  0  0  0  0  0  0  0  0
    7.7215  -11.5555   25.5455 C   0  0  0  0  0  0  0  0  0  0  0  0
    8.1914  -12.8416   25.7633 C   0  0  0  0  0  0  0  0  0  0  0  0
    9.3292  -16.9758   25.8382 C   0  0  0  0  0  0  0  0  0  0  0  0
   10.4171  -16.8604   26.6839 O   0  0  0  0  0  0  0  0  0  0  0  0
    9.0017  -18.1162   25.4355 O   0  0  0  0  0  0  0  0  0  0  0  0
  1  2  1  0
  2  3  1  0
  3  5  1  0
  3  4  1  1
  5  6  2  0
  7  8  1  0
  9  8  1  6
  9 11  1  0
 10  5  1  0
 10  9  1  0
 11 12  2  0
 11 13  1  0
 13 14  1  0
 14 22  1  0
 14 15  1  1
 16 15  1  0
 16 17  2  0
 18 17  1  0
 19 18  2  0
 20 21  2  0
 20 19  1  0
 21 16  1  0
 22 24  2  0
 22 23  1  0
M  END
$$$$
