SSF.pdb
     RDKit          3D

 24 24  0  0  1  0  0  0  0  0999 V2000
   10.3248  -13.2178   19.6795 O   0  0  0  0  0  0  0  0  0  0  0  0
    9.7286  -14.4280   19.3879 C   0  0  0  0  0  0  0  0  0  0  0  0
    8.2318  -14.1908   19.2765 C   0  0  2  0  0  0  0  0  0  0  0  0
    7.9476  -12.7828   19.1379 N   0  0  0  0  0  0  0  0  0  0  0  0
    7.6171  -14.6733   20.5340 C   0  0  0  0  0  0  0  0  0  0  0  0
    7.3018  -13.8578   21.4341 O   0  0  0  0  0  0  0  0  0  0  0  0
    7.3342  -18.7178   21.5266 O   0  0  0  0  0  0  0  0  0  0  0  0
    6.2426  -17.9193   21.8526 C   0  0  0  0  0  0  0  0  0  0  0  0
    6.7412  -16.4831   21.9928 C   0  0  2  0  0  0  0  0  0  0  0  0
    7.3607  -16.0627   20.7731 N   0  0  0  0  0  0  0  0  0  0  0  0
    7.6379  -16.3460   23.1682 C   0  0  0  0  0  0  0  0  0  0  0  0
    8.8774  -16.1962   23.0153 O   0  0  0  0  0  0  0  0  0  0  0  0
    7.1665  -16.3742   24.5144 N   0  0  0  0  0  0  0  0  0  0  0  0
    8.0319  -16.1358   25.6563 C   0  0  1  0  0  0  0  0  0  0  0  0
    7.1657  -15.5392   26.7397 C   0  0  0  0  0  0  0  0  0  0  0  0
    6.9471  -14.1044   26.6194 C   0  0  0  0  0  0  0  0  0  0  0  0
    8.0253  -13.2663   26.4776 C   0  0  0  0  0  0  0  0  0  0  0  0
    7.9039  -11.8891   26.3560 C   0  0  0  0  0  0  0  0  0  0  0  0
    6.6369  -11.3438   26.3795 C   0  0  0  0  0  0  0  0  0  0  0  0
    5.5514  -12.1744   26.5210 C   0  0  0  0  0  0  0  0  0  0  0  0
    5.6919  -13.5485   26.6412 C   0  0  0  0  0  0  0  0  0  0  0  0
    8.7373  -17.3511   26.0579 C   0  0  0  0  0  0  0  0  0  0  0  0
    9.8488  -17.2540   26.8746 O   0  0  0  0  0  0  0  0  0  0  0  0
    8.3659  -18.4879   25.6842 O   0  0  0  0  0  0  0  0  0  0  0  0
  1  2  1  0
  2  3  1  0
  3  5  1  0
  3  4  1  1
  5  6  2  0
  7  8  1  0
  9  8  1  6
  9 11  1  0
 10  5  1  0
 10  9  1  0
 11 12  2  0
 11 13  1  0
 13 14  1  0
 14 22  1  0
 14 15  1  1
 16 15  1  0
 16 17  2  0
 18 17  1  0
 19 18  2  0
 20 21  2  0
 20 19  1  0
 21 16  1  0
 22 24  2  0
 22 23  1  0
M  END
$$$$
