SSF.pdb
     RDKit          3D

 24 24  0  0  1  0  0  0  0  0999 V2000
   10.0514  -13.1954   19.9284 O   0  0  0  0  0  0  0  0  0  0  0  0
    9.5400  -14.2532   19.2041 C   0  0  0  0  0  0  0  0  0  0  0  0
    8.0342  -14.0687   19.1172 C   0  0  2  0  0  0  0  0  0  0  0  0
    7.6985  -12.6714   18.9848 N   0  0  0  0  0  0  0  0  0  0  0  0
    7.4573  -14.5731   20.3840 C   0  0  0  0  0  0  0  0  0  0  0  0
    7.0559  -13.7673   21.2581 O   0  0  0  0  0  0  0  0  0  0  0  0
    7.5123  -18.6258   21.4832 O   0  0  0  0  0  0  0  0  0  0  0  0
    6.3829  -17.8815   21.8089 C   0  0  0  0  0  0  0  0  0  0  0  0
    6.8040  -16.4177   21.9141 C   0  0  2  0  0  0  0  0  0  0  0  0
    7.3346  -15.9737   20.6614 N   0  0  0  0  0  0  0  0  0  0  0  0
    7.7504  -16.2185   23.0407 C   0  0  0  0  0  0  0  0  0  0  0  0
    8.9793  -16.0591   22.8252 O   0  0  0  0  0  0  0  0  0  0  0  0
    7.3404  -16.1950   24.4069 N   0  0  0  0  0  0  0  0  0  0  0  0
    8.2818  -16.1080   25.5095 C   0  0  1  0  0  0  0  0  0  0  0  0
    7.5916  -15.3371   26.6092 C   0  0  0  0  0  0  0  0  0  0  0  0
    7.3861  -13.9243   26.3218 C   0  0  0  0  0  0  0  0  0  0  0  0
    6.2055  -13.3255   26.6862 C   0  0  0  0  0  0  0  0  0  0  0  0
    5.9308  -11.9857   26.4501 C   0  0  0  0  0  0  0  0  0  0  0  0
    6.8941  -11.2262   25.8191 C   0  0  0  0  0  0  0  0  0  0  0  0
    8.0789  -11.8163   25.4504 C   0  0  0  0  0  0  0  0  0  0  0  0
    8.3360  -13.1567   25.6945 C   0  0  0  0  0  0  0  0  0  0  0  0
    8.7570  -17.4293   25.9148 C   0  0  0  0  0  0  0  0  0  0  0  0
    9.8253  -17.5299   26.7869 O   0  0  0  0  0  0  0  0  0  0  0  0
    8.2248  -18.4831   25.4953 O   0  0  0  0  0  0  0  0  0  0  0  0
  1  2  1  0
  2  3  1  0
  3  5  1  0
  3  4  1  1
  5  6  2  0
  7  8  1  0
  9  8  1  6
  9 11  1  0
 10  5  1  0
 10  9  1  0
 11 12  2  0
 11 13  1  0
 13 14  1  0
 14 22  1  0
 14 15  1  1
 16 15  1  0
 16 17  2  0
 18 17  1  0
 19 18  2  0
 20 21  2  0
 20 19  1  0
 21 16  1  0
 22 24  2  0
 22 23  1  0
M  END
$$$$
