SSF.pdb
     RDKit          3D

 24 24  0  0  1  0  0  0  0  0999 V2000
   10.3531  -13.3015   19.8228 O   0  0  0  0  0  0  0  0  0  0  0  0
    9.2316  -12.6740   19.3194 C   0  0  0  0  0  0  0  0  0  0  0  0
    8.1867  -13.7433   19.0475 C   0  0  2  0  0  0  0  0  0  0  0  0
    7.0324  -13.1739   18.3949 N   0  0  0  0  0  0  0  0  0  0  0  0
    7.7653  -14.2872   20.3585 C   0  0  0  0  0  0  0  0  0  0  0  0
    7.0597  -13.5939   21.1306 O   0  0  0  0  0  0  0  0  0  0  0  0
    8.5564  -18.2598   21.5940 O   0  0  0  0  0  0  0  0  0  0  0  0
    7.3239  -17.6479   21.7997 C   0  0  0  0  0  0  0  0  0  0  0  0
    7.5714  -16.1530   21.9869 C   0  0  2  0  0  0  0  0  0  0  0  0
    8.1367  -15.6011   20.7937 N   0  0  0  0  0  0  0  0  0  0  0  0
    8.4078  -15.9008   23.1875 C   0  0  0  0  0  0  0  0  0  0  0  0
    9.6306  -15.6300   23.0718 O   0  0  0  0  0  0  0  0  0  0  0  0
    7.8943  -15.9475   24.5177 N   0  0  0  0  0  0  0  0  0  0  0  0
    8.7407  -15.8311   25.6923 C   0  0  1  0  0  0  0  0  0  0  0  0
    7.8830  -15.2454   26.7885 C   0  0  0  0  0  0  0  0  0  0  0  0
    7.4814  -13.8627   26.5700 C   0  0  0  0  0  0  0  0  0  0  0  0
    6.1531  -13.5654   26.3897 C   0  0  0  0  0  0  0  0  0  0  0  0
    5.6873  -12.2755   26.1769 C   0  0  0  0  0  0  0  0  0  0  0  0
    6.6081  -11.2488   26.1465 C   0  0  0  0  0  0  0  0  0  0  0  0
    7.9398  -11.5361   26.3259 C   0  0  0  0  0  0  0  0  0  0  0  0
    8.3870  -12.8313   26.5373 C   0  0  0  0  0  0  0  0  0  0  0  0
    9.3585  -17.1098   26.0372 C   0  0  0  0  0  0  0  0  0  0  0  0
    8.9701  -18.2555   25.3674 O   0  0  0  0  0  0  0  0  0  0  0  0
   10.2358  -17.2042   26.9268 O   0  0  0  0  0  0  0  0  0  0  0  0
  1  2  1  0
  2  3  1  0
  3  5  1  0
  3  4  1  1
  5  6  2  0
  7  8  1  0
  9  8  1  6
  9 11  1  0
 10  5  1  0
 10  9  1  0
 11 12  2  0
 11 13  1  0
 13 14  1  0
 14 22  1  0
 14 15  1  1
 16 15  1  0
 16 17  2  0
 18 17  1  0
 19 18  2  0
 20 21  2  0
 20 19  1  0
 21 16  1  0
 22 24  2  0
 22 23  1  0
M  END
$$$$
