WQT.pdb
     RDKit          3D

 31 32  0  0  1  0  0  0  0  0999 V2000
    6.2051  -18.3415   24.6155 N   0  0  0  0  0  0  0  0  0  0  0  0
    6.6092  -16.9657   24.3640 C   0  0  1  0  0  0  0  0  0  0  0  0
    7.4222  -16.4525   25.5600 C   0  0  0  0  0  0  0  0  0  0  0  0
    6.7514  -15.2529   26.0720 C   0  0  0  0  0  0  0  0  0  0  0  0
    5.4473  -15.1691   26.5127 C   0  0  0  0  0  0  0  0  0  0  0  0
    5.2184  -13.9110   26.8942 N   0  0  0  0  0  0  0  0  0  0  0  0
    6.3153  -13.1383   26.7299 C   0  0  0  0  0  0  0  0  0  0  0  0
    6.6004  -11.8088   26.9645 C   0  0  0  0  0  0  0  0  0  0  0  0
    7.8508  -11.2975   26.6878 C   0  0  0  0  0  0  0  0  0  0  0  0
    8.8194  -12.1339   26.1711 C   0  0  0  0  0  0  0  0  0  0  0  0
    8.5383  -13.4634   25.9353 C   0  0  0  0  0  0  0  0  0  0  0  0
    7.2827  -13.9904   26.2098 C   0  0  0  0  0  0  0  0  0  0  0  0
    7.5338  -16.9150   23.2078 C   0  0  0  0  0  0  0  0  0  0  0  0
    8.0676  -17.9798   22.8429 O   0  0  0  0  0  0  0  0  0  0  0  0
    6.8018  -13.6466   18.7090 N   0  0  0  0  0  0  0  0  0  0  0  0
    8.2012  -13.7170   18.3909 C   0  0  0  0  0  0  0  0  0  0  0  0
    8.6180  -13.5272   17.2272 O   0  0  0  0  0  0  0  0  0  0  0  0
    9.1736  -14.0293   19.5060 C   0  0  0  0  0  0  0  0  0  0  0  0
    8.3627  -14.3755   20.7009 C   0  0  0  0  0  0  0  0  0  0  0  0
    8.6657  -15.6617   21.3862 C   0  0  2  0  0  0  0  0  0  0  0  0
    7.7824  -15.6995   22.5637 N   0  0  0  0  0  0  0  0  0  0  0  0
   10.0644  -15.8902   21.7730 C   0  0  0  0  0  0  0  0  0  0  0  0
   10.6611  -15.0402   22.5099 O   0  0  0  0  0  0  0  0  0  0  0  0
   11.8255  -19.2809   23.1158 C   0  0  0  0  0  0  0  0  0  0  0  0
   12.5318  -18.6516   21.9401 C   0  0  1  0  0  0  0  0  0  0  0  0
   12.0960  -19.2796   20.7870 O   0  0  0  0  0  0  0  0  0  0  0  0
   12.2416  -17.1513   21.8640 C   0  0  2  0  0  0  0  0  0  0  0  0
   10.8513  -17.0040   21.4001 N   0  0  0  0  0  0  0  0  0  0  0  0
   13.1875  -16.5122   20.9507 C   0  0  0  0  0  0  0  0  0  0  0  0
   14.4816  -16.2935   21.3895 O   0  0  0  0  0  0  0  0  0  0  0  0
   12.8820  -16.1506   19.7834 O   0  0  0  0  0  0  0  0  0  0  0  0
  2  1  1  1
  2  3  1  0
  3  4  1  0
  4  5  2  0
  5  6  1  0
  7  6  1  0
  8  7  2  0
  9  8  1  0
 10 11  1  0
 10  9  2  0
 11 12  2  0
 12  4  1  0
 12  7  1  0
 13 21  1  0
 13  2  1  0
 14 13  2  0
 16 17  2  0
 16 15  1  0
 18 16  1  0
 19 18  1  0
 20 21  1  0
 20 19  1  1
 22 20  1  0
 23 22  2  0
 25 24  1  1
 25 26  1  0
 25 27  1  0
 27 29  1  0
 27 28  1  6
 28 22  1  0
 29 30  1  0
 31 29  2  0
M  END
$$$$
