WQT.pdb
     RDKit          3D

 31 32  0  0  1  0  0  0  0  0999 V2000
    6.6400  -17.9278   23.6868 N   0  0  0  0  0  0  0  0  0  0  0  0
    7.5163  -16.8309   24.0717 C   0  0  1  0  0  0  0  0  0  0  0  0
    7.3353  -16.5421   25.5679 C   0  0  0  0  0  0  0  0  0  0  0  0
    6.5107  -15.3355   25.6915 C   0  0  0  0  0  0  0  0  0  0  0  0
    5.1856  -15.2846   26.0700 C   0  0  0  0  0  0  0  0  0  0  0  0
    4.7993  -14.0073   26.0576 N   0  0  0  0  0  0  0  0  0  0  0  0
    5.8097  -13.1900   25.6858 C   0  0  0  0  0  0  0  0  0  0  0  0
    5.9330  -11.8259   25.5186 C   0  0  0  0  0  0  0  0  0  0  0  0
    7.1304  -11.2708   25.1193 C   0  0  0  0  0  0  0  0  0  0  0  0
    8.2103  -12.0984   24.8872 C   0  0  0  0  0  0  0  0  0  0  0  0
    8.0911  -13.4623   25.0532 C   0  0  0  0  0  0  0  0  0  0  0  0
    6.8904  -14.0335   25.4551 C   0  0  0  0  0  0  0  0  0  0  0  0
    8.9321  -17.2384   23.9172 C   0  0  0  0  0  0  0  0  0  0  0  0
    9.2378  -18.4065   24.2235 O   0  0  0  0  0  0  0  0  0  0  0  0
   13.2722  -14.2272   20.8884 N   0  0  0  0  0  0  0  0  0  0  0  0
   12.6442  -15.3633   20.2727 C   0  0  0  0  0  0  0  0  0  0  0  0
   12.6929  -15.5478   19.0367 O   0  0  0  0  0  0  0  0  0  0  0  0
   11.9132  -16.3453   21.1604 C   0  0  0  0  0  0  0  0  0  0  0  0
   11.9982  -15.8194   22.5466 C   0  0  0  0  0  0  0  0  0  0  0  0
   11.3121  -16.5934   23.6170 C   0  0  2  0  0  0  0  0  0  0  0  0
    9.8754  -16.3233   23.4405 N   0  0  0  0  0  0  0  0  0  0  0  0
   11.7302  -16.3226   24.9990 C   0  0  0  0  0  0  0  0  0  0  0  0
   12.0033  -15.1300   25.3523 O   0  0  0  0  0  0  0  0  0  0  0  0
   10.7945  -14.8018   27.0887 C   0  0  0  0  0  0  0  0  0  0  0  0
   10.9308  -16.0728   27.8904 C   0  0  1  0  0  0  0  0  0  0  0  0
    9.7663  -16.8048   27.7422 O   0  0  0  0  0  0  0  0  0  0  0  0
   12.1322  -16.8940   27.4178 C   0  0  2  0  0  0  0  0  0  0  0  0
   11.8641  -17.2873   26.0238 N   0  0  0  0  0  0  0  0  0  0  0  0
   12.3050  -18.0583   28.2849 C   0  0  0  0  0  0  0  0  0  0  0  0
   12.6836  -17.8501   29.5996 O   0  0  0  0  0  0  0  0  0  0  0  0
   12.1263  -19.2422   27.8937 O   0  0  0  0  0  0  0  0  0  0  0  0
  2  1  1  1
  2  3  1  0
  3  4  1  0
  4  5  2  0
  5  6  1  0
  7  6  1  0
  8  7  2  0
  9  8  1  0
 10 11  1  0
 10  9  2  0
 11 12  2  0
 12  4  1  0
 12  7  1  0
 13 21  1  0
 13  2  1  0
 14 13  2  0
 16 17  2  0
 16 15  1  0
 18 16  1  0
 19 18  1  0
 20 21  1  0
 20 19  1  6
 22 20  1  0
 23 22  2  0
 25 24  1  6
 25 26  1  0
 25 27  1  0
 27 29  1  0
 27 28  1  6
 28 22  1  0
 29 30  1  0
 31 29  2  0
M  END
$$$$
