WQT.pdb
     RDKit          3D

 31 32  0  0  1  0  0  0  0  0999 V2000
    6.5919  -18.1537   23.7204 N   0  0  0  0  0  0  0  0  0  0  0  0
    7.5303  -17.0754   23.9965 C   0  0  1  0  0  0  0  0  0  0  0  0
    6.9453  -16.1641   25.0837 C   0  0  0  0  0  0  0  0  0  0  0  0
    6.7443  -14.8375   24.4916 C   0  0  0  0  0  0  0  0  0  0  0  0
    6.6663  -14.5446   23.1462 C   0  0  0  0  0  0  0  0  0  0  0  0
    6.4821  -13.2291   23.0180 N   0  0  0  0  0  0  0  0  0  0  0  0
    6.4321  -12.6183   24.2228 C   0  0  0  0  0  0  0  0  0  0  0  0
    6.2632  -11.3120   24.6337 C   0  0  0  0  0  0  0  0  0  0  0  0
    6.2559  -10.9911   25.9748 C   0  0  0  0  0  0  0  0  0  0  0  0
    6.4199  -11.9957   26.9068 C   0  0  0  0  0  0  0  0  0  0  0  0
    6.5889  -13.3026   26.5001 C   0  0  0  0  0  0  0  0  0  0  0  0
    6.5982  -13.6386   25.1522 C   0  0  0  0  0  0  0  0  0  0  0  0
    8.7775  -17.6277   24.5740 C   0  0  0  0  0  0  0  0  0  0  0  0
    8.6885  -18.2882   25.6265 O   0  0  0  0  0  0  0  0  0  0  0  0
   13.8481  -17.6092   21.3839 N   0  0  0  0  0  0  0  0  0  0  0  0
   14.4607  -18.2046   22.5392 C   0  0  0  0  0  0  0  0  0  0  0  0
   15.6562  -18.5716   22.5298 O   0  0  0  0  0  0  0  0  0  0  0  0
   13.6202  -18.3812   23.7838 C   0  0  0  0  0  0  0  0  0  0  0  0
   12.2694  -17.8496   23.4709 C   0  0  0  0  0  0  0  0  0  0  0  0
   11.2470  -17.8956   24.5517 C   0  0  2  0  0  0  0  0  0  0  0  0
   10.0024  -17.4016   23.9392 N   0  0  0  0  0  0  0  0  0  0  0  0
   11.5543  -17.1560   25.7832 C   0  0  0  0  0  0  0  0  0  0  0  0
   12.3911  -16.1967   25.7497 O   0  0  0  0  0  0  0  0  0  0  0  0
   10.2856  -14.6928   27.9713 C   0  0  0  0  0  0  0  0  0  0  0  0
   10.5162  -15.8833   28.8694 C   0  0  1  0  0  0  0  0  0  0  0  0
    9.3145  -16.5525   29.0177 O   0  0  0  0  0  0  0  0  0  0  0  0
   11.5711  -16.8209   28.2784 C   0  0  2  0  0  0  0  0  0  0  0  0
   10.9925  -17.4053   27.0564 N   0  0  0  0  0  0  0  0  0  0  0  0
   11.9203  -17.8490   29.2573 C   0  0  0  0  0  0  0  0  0  0  0  0
   12.5676  -17.4614   30.4174 O   0  0  0  0  0  0  0  0  0  0  0  0
   11.6608  -19.0711   29.0963 O   0  0  0  0  0  0  0  0  0  0  0  0
  2  1  1  1
  2  3  1  0
  3  4  1  0
  4  5  2  0
  5  6  1  0
  7  6  1  0
  8  7  2  0
  9  8  1  0
 10 11  1  0
 10  9  2  0
 11 12  2  0
 12  4  1  0
 12  7  1  0
 13 21  1  0
 13  2  1  0
 14 13  2  0
 16 17  2  0
 16 15  1  0
 18 16  1  0
 19 18  1  0
 20 21  1  0
 20 19  1  6
 22 20  1  0
 23 22  2  0
 25 24  1  6
 25 26  1  0
 25 27  1  0
 27 29  1  0
 27 28  1  6
 28 22  1  0
 29 30  1  0
 31 29  2  0
M  END
$$$$
