WQT.pdb
     RDKit          3D

 31 32  0  0  1  0  0  0  0  0999 V2000
    8.4627  -15.4393   25.5517 N   0  0  0  0  0  0  0  0  0  0  0  0
    7.7609  -16.5548   24.9332 C   0  0  1  0  0  0  0  0  0  0  0  0
    6.5980  -16.0140   24.0905 C   0  0  0  0  0  0  0  0  0  0  0  0
    6.8224  -14.5783   23.8921 C   0  0  0  0  0  0  0  0  0  0  0  0
    7.4422  -13.9881   22.8107 C   0  0  0  0  0  0  0  0  0  0  0  0
    7.4513  -12.6682   23.0072 N   0  0  0  0  0  0  0  0  0  0  0  0
    6.8624  -12.3398   24.1787 C   0  0  0  0  0  0  0  0  0  0  0  0
    6.6179  -11.1500   24.8332 C   0  0  0  0  0  0  0  0  0  0  0  0
    5.9754  -11.1366   26.0532 C   0  0  0  0  0  0  0  0  0  0  0  0
    5.5771  -12.3323   26.6159 C   0  0  0  0  0  0  0  0  0  0  0  0
    5.8196  -13.5236   25.9648 C   0  0  0  0  0  0  0  0  0  0  0  0
    6.4659  -13.5503   24.7355 C   0  0  0  0  0  0  0  0  0  0  0  0
    8.6553  -17.2442   23.9746 C   0  0  0  0  0  0  0  0  0  0  0  0
    8.2557  -18.3108   23.4701 O   0  0  0  0  0  0  0  0  0  0  0  0
   14.4993  -18.1071   20.9925 N   0  0  0  0  0  0  0  0  0  0  0  0
   13.7666  -18.6336   22.1106 C   0  0  0  0  0  0  0  0  0  0  0  0
   13.3601  -19.8162   22.1281 O   0  0  0  0  0  0  0  0  0  0  0  0
   13.4928  -17.7175   23.2822 C   0  0  0  0  0  0  0  0  0  0  0  0
   12.1412  -17.1397   23.0711 C   0  0  0  0  0  0  0  0  0  0  0  0
   11.1314  -17.3471   24.1448 C   0  0  2  0  0  0  0  0  0  0  0  0
    9.9024  -16.6952   23.6623 N   0  0  0  0  0  0  0  0  0  0  0  0
   11.4867  -16.8672   25.4870 C   0  0  0  0  0  0  0  0  0  0  0  0
   12.4191  -16.0106   25.6234 O   0  0  0  0  0  0  0  0  0  0  0  0
   10.7034  -14.5116   27.8396 C   0  0  0  0  0  0  0  0  0  0  0  0
   10.5394  -15.8108   28.5895 C   0  0  1  0  0  0  0  0  0  0  0  0
    9.2129  -16.1944   28.5054 O   0  0  0  0  0  0  0  0  0  0  0  0
   11.4403  -16.9002   28.0040 C   0  0  2  0  0  0  0  0  0  0  0  0
   10.8742  -17.2708   26.6956 N   0  0  0  0  0  0  0  0  0  0  0  0
   11.4889  -18.0419   28.9158 C   0  0  0  0  0  0  0  0  0  0  0  0
   12.1060  -17.8787   30.1436 O   0  0  0  0  0  0  0  0  0  0  0  0
   10.9965  -19.1676   28.6382 O   0  0  0  0  0  0  0  0  0  0  0  0
  2  1  1  6
  2  3  1  0
  3  4  1  0
  4  5  2  0
  5  6  1  0
  7  6  1  0
  8  7  2  0
  9  8  1  0
 10 11  1  0
 10  9  2  0
 11 12  2  0
 12  4  1  0
 12  7  1  0
 13 21  1  0
 13  2  1  0
 14 13  2  0
 16 17  2  0
 16 15  1  0
 18 16  1  0
 19 18  1  0
 20 21  1  0
 20 19  1  6
 22 20  1  0
 23 22  2  0
 25 24  1  6
 25 26  1  0
 25 27  1  0
 27 29  1  0
 27 28  1  6
 28 22  1  0
 29 30  1  0
 31 29  2  0
M  END
$$$$
