WQT.pdb
     RDKit          3D

 31 32  0  0  1  0  0  0  0  0999 V2000
    6.4837  -17.3858   24.7532 N   0  0  0  0  0  0  0  0  0  0  0  0
    7.6543  -16.5730   24.4556 C   0  0  1  0  0  0  0  0  0  0  0  0
    7.9874  -15.7032   25.6751 C   0  0  0  0  0  0  0  0  0  0  0  0
    6.9214  -14.7056   25.8146 C   0  0  0  0  0  0  0  0  0  0  0  0
    5.6101  -14.9518   26.1635 C   0  0  0  0  0  0  0  0  0  0  0  0
    4.9593  -13.7869   26.1793 N   0  0  0  0  0  0  0  0  0  0  0  0
    5.7770  -12.7606   25.8549 C   0  0  0  0  0  0  0  0  0  0  0  0
    5.6076  -11.3969   25.7304 C   0  0  0  0  0  0  0  0  0  0  0  0
    6.6646  -10.5857   25.3752 C   0  0  0  0  0  0  0  0  0  0  0  0
    7.9004  -11.1551   25.1444 C   0  0  0  0  0  0  0  0  0  0  0  0
    8.0737  -12.5177   25.2678 C   0  0  0  0  0  0  0  0  0  0  0  0
    7.0169  -13.3454   25.6250 C   0  0  0  0  0  0  0  0  0  0  0  0
    8.8360  -17.4440   24.2578 C   0  0  0  0  0  0  0  0  0  0  0  0
    8.8217  -18.5724   24.7854 O   0  0  0  0  0  0  0  0  0  0  0  0
   14.0159  -18.0220   20.1597 N   0  0  0  0  0  0  0  0  0  0  0  0
   14.1038  -17.1182   21.2732 C   0  0  0  0  0  0  0  0  0  0  0  0
   14.6475  -15.9973   21.1648 O   0  0  0  0  0  0  0  0  0  0  0  0
   13.5178  -17.5549   22.5971 C   0  0  0  0  0  0  0  0  0  0  0  0
   12.0936  -17.1342   22.5980 C   0  0  0  0  0  0  0  0  0  0  0  0
   11.2753  -17.4862   23.7905 C   0  0  2  0  0  0  0  0  0  0  0  0
    9.9194  -16.9916   23.4990 N   0  0  0  0  0  0  0  0  0  0  0  0
   11.7485  -16.9842   25.0875 C   0  0  0  0  0  0  0  0  0  0  0  0
   12.5506  -15.9958   25.1258 O   0  0  0  0  0  0  0  0  0  0  0  0
   10.9250  -14.9225   27.8195 C   0  0  0  0  0  0  0  0  0  0  0  0
   11.1469  -16.2869   28.4248 C   0  0  1  0  0  0  0  0  0  0  0  0
    9.9230  -16.9261   28.5110 O   0  0  0  0  0  0  0  0  0  0  0  0
   12.1139  -17.1140   27.5752 C   0  0  2  0  0  0  0  0  0  0  0  0
   11.3896  -17.5027   26.3529 N   0  0  0  0  0  0  0  0  0  0  0  0
   12.5614  -18.2810   28.3334 C   0  0  0  0  0  0  0  0  0  0  0  0
   13.3705  -18.0785   29.4377 O   0  0  0  0  0  0  0  0  0  0  0  0
   12.2466  -19.4625   28.0305 O   0  0  0  0  0  0  0  0  0  0  0  0
  2  1  1  1
  2  3  1  0
  3  4  1  0
  4  5  2  0
  5  6  1  0
  7  6  1  0
  8  7  2  0
  9  8  1  0
 10 11  1  0
 10  9  2  0
 11 12  2  0
 12  4  1  0
 12  7  1  0
 13 21  1  0
 13  2  1  0
 14 13  2  0
 16 17  2  0
 16 15  1  0
 18 16  1  0
 19 18  1  0
 20 21  1  0
 20 19  1  6
 22 20  1  0
 23 22  2  0
 25 24  1  6
 25 26  1  0
 25 27  1  0
 27 29  1  0
 27 28  1  6
 28 22  1  0
 29 30  1  0
 31 29  2  0
M  END
$$$$
