WQT.pdb
     RDKit          3D

 31 32  0  0  1  0  0  0  0  0999 V2000
    6.2236  -17.9876   24.7867 N   0  0  0  0  0  0  0  0  0  0  0  0
    6.5572  -16.6450   24.3333 C   0  0  1  0  0  0  0  0  0  0  0  0
    7.5138  -15.9953   25.3421 C   0  0  0  0  0  0  0  0  0  0  0  0
    6.8071  -14.8714   25.9652 C   0  0  0  0  0  0  0  0  0  0  0  0
    5.5264  -14.8917   26.4765 C   0  0  0  0  0  0  0  0  0  0  0  0
    5.2499  -13.6754   26.9510 N   0  0  0  0  0  0  0  0  0  0  0  0
    6.2919  -12.8313   26.7818 C   0  0  0  0  0  0  0  0  0  0  0  0
    6.5159  -11.5046   27.0881 C   0  0  0  0  0  0  0  0  0  0  0  0
    7.7192  -10.9048   26.7820 C   0  0  0  0  0  0  0  0  0  0  0  0
    8.7026  -11.6493   26.1627 C   0  0  0  0  0  0  0  0  0  0  0  0
    8.4826  -12.9755   25.8550 C   0  0  0  0  0  0  0  0  0  0  0  0
    7.2748  -13.5911   26.1582 C   0  0  0  0  0  0  0  0  0  0  0  0
    7.3135  -16.7155   23.0616 C   0  0  0  0  0  0  0  0  0  0  0  0
    8.1602  -17.6208   22.9379 O   0  0  0  0  0  0  0  0  0  0  0  0
    8.0105  -12.9875   17.2239 N   0  0  0  0  0  0  0  0  0  0  0  0
    8.3128  -13.9598   18.2376 C   0  0  0  0  0  0  0  0  0  0  0  0
    8.2460  -15.1872   18.0075 O   0  0  0  0  0  0  0  0  0  0  0  0
    8.7189  -13.4633   19.6069 C   0  0  0  0  0  0  0  0  0  0  0  0
    7.7886  -14.0837   20.5841 C   0  0  0  0  0  0  0  0  0  0  0  0
    8.1344  -15.4379   21.0958 C   0  0  2  0  0  0  0  0  0  0  0  0
    7.0663  -15.7848   22.0482 N   0  0  0  0  0  0  0  0  0  0  0  0
    9.4580  -15.5920   21.7142 C   0  0  0  0  0  0  0  0  0  0  0  0
    9.8114  -14.8045   22.6505 O   0  0  0  0  0  0  0  0  0  0  0  0
   11.5489  -17.6773   23.9731 C   0  0  0  0  0  0  0  0  0  0  0  0
   12.1527  -17.7221   22.5909 C   0  0  1  0  0  0  0  0  0  0  0  0
   11.6486  -18.8306   21.9344 O   0  0  0  0  0  0  0  0  0  0  0  0
   11.8229  -16.4507   21.8062 C   0  0  2  0  0  0  0  0  0  0  0  0
   10.4218  -16.5663   21.3669 N   0  0  0  0  0  0  0  0  0  0  0  0
   12.7367  -16.3206   20.6725 C   0  0  0  0  0  0  0  0  0  0  0  0
   14.0482  -15.9560   20.9219 O   0  0  0  0  0  0  0  0  0  0  0  0
   12.3885  -16.5239   19.4791 O   0  0  0  0  0  0  0  0  0  0  0  0
  2  1  1  1
  2  3  1  0
  3  4  1  0
  4  5  2  0
  5  6  1  0
  7  6  1  0
  8  7  2  0
  9  8  1  0
 10 11  1  0
 10  9  2  0
 11 12  2  0
 12  4  1  0
 12  7  1  0
 13 21  1  0
 13  2  1  0
 14 13  2  0
 16 17  2  0
 16 15  1  0
 18 16  1  0
 19 18  1  0
 20 21  1  0
 20 19  1  1
 22 20  1  0
 23 22  2  0
 25 24  1  1
 25 26  1  0
 25 27  1  0
 27 29  1  0
 27 28  1  6
 28 22  1  0
 29 30  1  0
 31 29  2  0
M  END
$$$$
