WQT.pdb
     RDKit          3D

 31 32  0  0  1  0  0  0  0  0999 V2000
    6.4274  -17.8397   24.0104 N   0  0  0  0  0  0  0  0  0  0  0  0
    6.7371  -16.4437   23.7370 C   0  0  1  0  0  0  0  0  0  0  0  0
    7.7366  -15.9346   24.7841 C   0  0  0  0  0  0  0  0  0  0  0  0
    7.0172  -15.0222   25.6792 C   0  0  0  0  0  0  0  0  0  0  0  0
    5.9223  -15.3333   26.4580 C   0  0  0  0  0  0  0  0  0  0  0  0
    5.5614  -14.2346   27.1239 N   0  0  0  0  0  0  0  0  0  0  0  0
    6.3677  -13.1910   26.8277 C   0  0  0  0  0  0  0  0  0  0  0  0
    6.4245  -11.8730   27.2321 C   0  0  0  0  0  0  0  0  0  0  0  0
    7.3942  -11.0261   26.7383 C   0  0  0  0  0  0  0  0  0  0  0  0
    8.3125  -11.5132   25.8304 C   0  0  0  0  0  0  0  0  0  0  0  0
    8.2591  -12.8299   25.4237 C   0  0  0  0  0  0  0  0  0  0  0  0
    7.2872  -13.6929   25.9138 C   0  0  0  0  0  0  0  0  0  0  0  0
    7.4356  -16.3276   22.4359 C   0  0  0  0  0  0  0  0  0  0  0  0
    7.9290  -17.3614   21.9463 O   0  0  0  0  0  0  0  0  0  0  0  0
    9.4096  -14.5883   16.9186 N   0  0  0  0  0  0  0  0  0  0  0  0
    8.3735  -13.9256   17.6615 C   0  0  0  0  0  0  0  0  0  0  0  0
    7.1714  -14.0122   17.3277 O   0  0  0  0  0  0  0  0  0  0  0  0
    8.7704  -13.1102   18.8716 C   0  0  0  0  0  0  0  0  0  0  0  0
    7.9620  -13.6103   20.0125 C   0  0  0  0  0  0  0  0  0  0  0  0
    8.2921  -14.9593   20.5479 C   0  0  2  0  0  0  0  0  0  0  0  0
    7.5243  -15.0869   21.7978 N   0  0  0  0  0  0  0  0  0  0  0  0
    9.7142  -15.2498   20.7746 C   0  0  0  0  0  0  0  0  0  0  0  0
   10.3747  -14.5508   21.6094 O   0  0  0  0  0  0  0  0  0  0  0  0
   11.5033  -18.2644   22.1770 C   0  0  0  0  0  0  0  0  0  0  0  0
   12.0406  -17.9708   20.7979 C   0  0  1  0  0  0  0  0  0  0  0  0
   11.3475  -18.7498   19.8887 O   0  0  0  0  0  0  0  0  0  0  0  0
   11.8816  -16.4892   20.4505 C   0  0  2  0  0  0  0  0  0  0  0  0
   10.4587  -16.2698   20.1389 N   0  0  0  0  0  0  0  0  0  0  0  0
   12.7419  -16.1539   19.3170 C   0  0  0  0  0  0  0  0  0  0  0  0
   14.0983  -15.9987   19.5428 O   0  0  0  0  0  0  0  0  0  0  0  0
   12.3086  -15.9990   18.1444 O   0  0  0  0  0  0  0  0  0  0  0  0
  2  1  1  1
  2  3  1  0
  3  4  1  0
  4  5  2  0
  5  6  1  0
  7  6  1  0
  8  7  2  0
  9  8  1  0
 10 11  1  0
 10  9  2  0
 11 12  2  0
 12  4  1  0
 12  7  1  0
 13 21  1  0
 13  2  1  0
 14 13  2  0
 16 17  2  0
 16 15  1  0
 18 16  1  0
 19 18  1  0
 20 21  1  0
 20 19  1  1
 22 20  1  0
 23 22  2  0
 25 24  1  1
 25 26  1  0
 25 27  1  0
 27 29  1  0
 27 28  1  6
 28 22  1  0
 29 30  1  0
 31 29  2  0
M  END
$$$$
