WQT.pdb
     RDKit          3D

 31 32  0  0  1  0  0  0  0  0999 V2000
    7.1100  -17.4245   22.1770 N   0  0  0  0  0  0  0  0  0  0  0  0
    7.8466  -16.4689   22.9918 C   0  0  1  0  0  0  0  0  0  0  0  0
    6.8985  -15.8565   24.0314 C   0  0  0  0  0  0  0  0  0  0  0  0
    7.0053  -14.3976   23.9261 C   0  0  0  0  0  0  0  0  0  0  0  0
    7.4625  -13.6866   22.8364 C   0  0  0  0  0  0  0  0  0  0  0  0
    7.4068  -12.3873   23.1357 N   0  0  0  0  0  0  0  0  0  0  0  0
    6.9300  -12.1889   24.3849 C   0  0  0  0  0  0  0  0  0  0  0  0
    6.6818  -11.0708   25.1544 C   0  0  0  0  0  0  0  0  0  0  0  0
    6.1779  -11.1932   26.4321 C   0  0  0  0  0  0  0  0  0  0  0  0
    5.9230  -12.4525   26.9360 C   0  0  0  0  0  0  0  0  0  0  0  0
    6.1698  -13.5725   26.1699 C   0  0  0  0  0  0  0  0  0  0  0  0
    6.6772  -13.4624   24.8815 C   0  0  0  0  0  0  0  0  0  0  0  0
    8.8893  -17.1718   23.7747 C   0  0  0  0  0  0  0  0  0  0  0  0
    8.5193  -18.0367   24.5913 O   0  0  0  0  0  0  0  0  0  0  0  0
   14.7620  -17.9597   22.2039 N   0  0  0  0  0  0  0  0  0  0  0  0
   13.5976  -18.3165   21.4417 C   0  0  0  0  0  0  0  0  0  0  0  0
   13.6738  -18.6063   20.2275 O   0  0  0  0  0  0  0  0  0  0  0  0
   12.2595  -18.3353   22.1458 C   0  0  0  0  0  0  0  0  0  0  0  0
   12.4512  -17.6596   23.4542 C   0  0  0  0  0  0  0  0  0  0  0  0
   11.2716  -17.5661   24.3572 C   0  0  2  0  0  0  0  0  0  0  0  0
   10.2380  -16.8571   23.5845 N   0  0  0  0  0  0  0  0  0  0  0  0
   11.4866  -16.9214   25.6596 C   0  0  0  0  0  0  0  0  0  0  0  0
   12.1773  -15.8537   25.7277 O   0  0  0  0  0  0  0  0  0  0  0  0
   10.4764  -14.6476   27.9263 C   0  0  0  0  0  0  0  0  0  0  0  0
   10.5352  -15.9050   28.7583 C   0  0  1  0  0  0  0  0  0  0  0  0
    9.2705  -16.4651   28.7858 O   0  0  0  0  0  0  0  0  0  0  0  0
   11.5396  -16.9019   28.1767 C   0  0  2  0  0  0  0  0  0  0  0  0
   10.9831  -17.3789   26.8990 N   0  0  0  0  0  0  0  0  0  0  0  0
   11.7472  -17.9993   29.1200 C   0  0  0  0  0  0  0  0  0  0  0  0
   12.3528  -17.7201   30.3326 O   0  0  0  0  0  0  0  0  0  0  0  0
   11.4018  -19.1873   28.8828 O   0  0  0  0  0  0  0  0  0  0  0  0
  2  1  1  6
  2  3  1  0
  3  4  1  0
  4  5  2  0
  5  6  1  0
  7  6  1  0
  8  7  2  0
  9  8  1  0
 10 11  1  0
 10  9  2  0
 11 12  2  0
 12  4  1  0
 12  7  1  0
 13 21  1  0
 13  2  1  0
 14 13  2  0
 16 17  2  0
 16 15  1  0
 18 16  1  0
 19 18  1  0
 20 21  1  0
 20 19  1  6
 22 20  1  0
 23 22  2  0
 25 24  1  6
 25 26  1  0
 25 27  1  0
 27 29  1  0
 27 28  1  6
 28 22  1  0
 29 30  1  0
 31 29  2  0
M  END
$$$$
