WQT.pdb
     RDKit          3D

 31 32  0  0  1  0  0  0  0  0999 V2000
    6.2848  -18.1014   24.2751 N   0  0  0  0  0  0  0  0  0  0  0  0
    6.8795  -16.8103   23.9611 C   0  0  1  0  0  0  0  0  0  0  0  0
    7.6191  -16.2818   25.1974 C   0  0  0  0  0  0  0  0  0  0  0  0
    6.7957  -15.2222   25.7893 C   0  0  0  0  0  0  0  0  0  0  0  0
    5.5857  -15.3871   26.4302 C   0  0  0  0  0  0  0  0  0  0  0  0
    5.1568  -14.1857   26.8220 N   0  0  0  0  0  0  0  0  0  0  0  0
    6.0276  -13.2128   26.4724 C   0  0  0  0  0  0  0  0  0  0  0  0
    6.0577  -11.8431   26.6363 C   0  0  0  0  0  0  0  0  0  0  0  0
    7.1149  -11.0995   26.1558 C   0  0  0  0  0  0  0  0  0  0  0  0
    8.1484  -11.7431   25.5058 C   0  0  0  0  0  0  0  0  0  0  0  0
    8.1220  -13.1120   25.3402 C   0  0  0  0  0  0  0  0  0  0  0  0
    7.0628  -13.8721   25.8196 C   0  0  0  0  0  0  0  0  0  0  0  0
    7.9199  -16.9741   22.9194 C   0  0  0  0  0  0  0  0  0  0  0  0
    8.4530  -18.0937   22.8009 O   0  0  0  0  0  0  0  0  0  0  0  0
    9.3471  -13.2100   18.0547 N   0  0  0  0  0  0  0  0  0  0  0  0
    8.0821  -13.5272   18.6576 C   0  0  0  0  0  0  0  0  0  0  0  0
    7.0733  -12.8105   18.4772 O   0  0  0  0  0  0  0  0  0  0  0  0
    7.9930  -14.7617   19.5264 C   0  0  0  0  0  0  0  0  0  0  0  0
    9.2922  -14.8849   20.2351 C   0  0  0  0  0  0  0  0  0  0  0  0
    9.4376  -15.9984   21.2121 C   0  0  2  0  0  0  0  0  0  0  0  0
    8.2738  -15.8922   22.1079 N   0  0  0  0  0  0  0  0  0  0  0  0
   10.6884  -16.0429   21.9812 C   0  0  0  0  0  0  0  0  0  0  0  0
   11.7987  -16.1732   21.3712 O   0  0  0  0  0  0  0  0  0  0  0  0
   10.8124  -16.3730   26.2111 C   0  0  0  0  0  0  0  0  0  0  0  0
   11.9045  -15.6078   25.5050 C   0  0  1  0  0  0  0  0  0  0  0  0
   13.0775  -15.7685   26.2208 O   0  0  0  0  0  0  0  0  0  0  0  0
   12.0894  -16.1111   24.0720 C   0  0  2  0  0  0  0  0  0  0  0  0
   10.7950  -15.9491   23.3878 N   0  0  0  0  0  0  0  0  0  0  0  0
   12.5199  -17.5080   24.0921 C   0  0  0  0  0  0  0  0  0  0  0  0
   13.7938  -17.7983   24.5481 O   0  0  0  0  0  0  0  0  0  0  0  0
   11.7877  -18.4609   23.7143 O   0  0  0  0  0  0  0  0  0  0  0  0
  2  1  1  1
  2  3  1  0
  3  4  1  0
  4  5  2  0
  5  6  1  0
  7  6  1  0
  8  7  2  0
  9  8  1  0
 10 11  1  0
 10  9  2  0
 11 12  2  0
 12  4  1  0
 12  7  1  0
 13 21  1  0
 13  2  1  0
 14 13  2  0
 16 17  2  0
 16 15  1  0
 18 16  1  0
 19 18  1  0
 20 21  1  0
 20 19  1  6
 22 20  1  0
 23 22  2  0
 25 24  1  1
 25 26  1  0
 25 27  1  0
 27 29  1  0
 27 28  1  6
 28 22  1  0
 29 30  1  0
 31 29  2  0
M  END
$$$$
