WQT.pdb
     RDKit          3D

 31 32  0  0  1  0  0  0  0  0999 V2000
    7.1130  -18.4524   22.7122 N   0  0  0  0  0  0  0  0  0  0  0  0
    7.7476  -17.2396   23.2080 C   0  0  1  0  0  0  0  0  0  0  0  0
    6.8406  -16.5907   24.2621 C   0  0  0  0  0  0  0  0  0  0  0  0
    6.7665  -15.1567   23.9633 C   0  0  0  0  0  0  0  0  0  0  0  0
    6.6048  -14.5871   22.7177 C   0  0  0  0  0  0  0  0  0  0  0  0
    6.5887  -13.2611   22.8669 N   0  0  0  0  0  0  0  0  0  0  0  0
    6.7331  -12.9088   24.1639 C   0  0  0  0  0  0  0  0  0  0  0  0
    6.7807  -11.7040   24.8348 C   0  0  0  0  0  0  0  0  0  0  0  0
    6.9406  -11.6664   26.2039 C   0  0  0  0  0  0  0  0  0  0  0  0
    7.0531  -12.8529   26.9000 C   0  0  0  0  0  0  0  0  0  0  0  0
    7.0060  -14.0590   26.2330 C   0  0  0  0  0  0  0  0  0  0  0  0
    6.8452  -14.1102   24.8542 C   0  0  0  0  0  0  0  0  0  0  0  0
    8.9998  -17.5811   23.9217 C   0  0  0  0  0  0  0  0  0  0  0  0
    8.9801  -18.5561   24.6968 O   0  0  0  0  0  0  0  0  0  0  0  0
   14.7862  -17.2950   22.2644 N   0  0  0  0  0  0  0  0  0  0  0  0
   14.8342  -16.2563   23.2559 C   0  0  0  0  0  0  0  0  0  0  0  0
   15.8988  -15.6581   23.5258 O   0  0  0  0  0  0  0  0  0  0  0  0
   13.5547  -15.8952   23.9765 C   0  0  0  0  0  0  0  0  0  0  0  0
   12.4966  -16.7968   23.4543 C   0  0  0  0  0  0  0  0  0  0  0  0
   11.4079  -17.1906   24.3899 C   0  0  2  0  0  0  0  0  0  0  0  0
   10.1533  -16.8189   23.7147 N   0  0  0  0  0  0  0  0  0  0  0  0
   11.4627  -16.6222   25.7434 C   0  0  0  0  0  0  0  0  0  0  0  0
   11.8631  -15.4246   25.9079 O   0  0  0  0  0  0  0  0  0  0  0  0
   10.0536  -14.7394   28.0202 C   0  0  0  0  0  0  0  0  0  0  0  0
   10.2952  -16.0021   28.8102 C   0  0  1  0  0  0  0  0  0  0  0  0
    9.1534  -16.7803   28.7419 O   0  0  0  0  0  0  0  0  0  0  0  0
   11.4933  -16.7758   28.2562 C   0  0  2  0  0  0  0  0  0  0  0  0
   11.0992  -17.2921   26.9341 N   0  0  0  0  0  0  0  0  0  0  0  0
   11.8498  -17.8558   29.1747 C   0  0  0  0  0  0  0  0  0  0  0  0
   12.3163  -17.5224   30.4342 O   0  0  0  0  0  0  0  0  0  0  0  0
   11.7534  -19.0756   28.8756 O   0  0  0  0  0  0  0  0  0  0  0  0
  2  1  1  1
  2  3  1  0
  3  4  1  0
  4  5  2  0
  5  6  1  0
  7  6  1  0
  8  7  2  0
  9  8  1  0
 10 11  1  0
 10  9  2  0
 11 12  2  0
 12  4  1  0
 12  7  1  0
 13 21  1  0
 13  2  1  0
 14 13  2  0
 16 17  2  0
 16 15  1  0
 18 16  1  0
 19 18  1  0
 20 21  1  0
 20 19  1  6
 22 20  1  0
 23 22  2  0
 25 24  1  6
 25 26  1  0
 25 27  1  0
 27 29  1  0
 27 28  1  6
 28 22  1  0
 29 30  1  0
 31 29  2  0
M  END
$$$$
