WQT.pdb
     RDKit          3D

 31 32  0  0  1  0  0  0  0  0999 V2000
    9.5611  -16.8999   21.5064 N   0  0  0  0  0  0  0  0  0  0  0  0
    9.2588  -15.8281   22.4440 C   0  0  1  0  0  0  0  0  0  0  0  0
    7.7871  -15.4225   22.2887 C   0  0  0  0  0  0  0  0  0  0  0  0
    7.6267  -14.0924   22.8856 C   0  0  0  0  0  0  0  0  0  0  0  0
    8.0476  -12.8959   22.3443 C   0  0  0  0  0  0  0  0  0  0  0  0
    7.7184  -11.9187   23.1914 N   0  0  0  0  0  0  0  0  0  0  0  0
    7.0911  -12.4050   24.2856 C   0  0  0  0  0  0  0  0  0  0  0  0
    6.5613  -11.8345   25.4248 C   0  0  0  0  0  0  0  0  0  0  0  0
    5.9651  -12.6163   26.3917 C   0  0  0  0  0  0  0  0  0  0  0  0
    5.9035  -13.9826   26.2071 C   0  0  0  0  0  0  0  0  0  0  0  0
    6.4319  -14.5565   25.0698 C   0  0  0  0  0  0  0  0  0  0  0  0
    7.0350  -13.7799   24.0886 C   0  0  0  0  0  0  0  0  0  0  0  0
    9.3868  -16.3232   23.8343 C   0  0  0  0  0  0  0  0  0  0  0  0
    9.4097  -17.5558   24.0129 O   0  0  0  0  0  0  0  0  0  0  0  0
   12.2266  -15.8751   27.7232 N   0  0  0  0  0  0  0  0  0  0  0  0
   11.3148  -15.6563   28.8118 C   0  0  0  0  0  0  0  0  0  0  0  0
   11.5395  -16.1108   29.9550 O   0  0  0  0  0  0  0  0  0  0  0  0
   10.0608  -14.8545   28.5447 C   0  0  0  0  0  0  0  0  0  0  0  0
    9.9740  -14.6670   27.0741 C   0  0  0  0  0  0  0  0  0  0  0  0
    9.8721  -15.8898   26.2316 C   0  0  2  0  0  0  0  0  0  0  0  0
    9.4778  -15.4163   24.8943 N   0  0  0  0  0  0  0  0  0  0  0  0
    8.9632  -16.9430   26.7035 C   0  0  0  0  0  0  0  0  0  0  0  0
    7.7619  -16.6489   27.0072 O   0  0  0  0  0  0  0  0  0  0  0  0
    7.1287  -19.6372   25.3312 C   0  0  0  0  0  0  0  0  0  0  0  0
    7.9724  -20.2774   26.4060 C   0  0  1  0  0  0  0  0  0  0  0  0
    9.1099  -20.7946   25.8124 O   0  0  0  0  0  0  0  0  0  0  0  0
    8.3566  -19.2593   27.4817 C   0  0  2  0  0  0  0  0  0  0  0  0
    9.2943  -18.3085   26.8601 N   0  0  0  0  0  0  0  0  0  0  0  0
    8.9608  -19.9496   28.6200 C   0  0  0  0  0  0  0  0  0  0  0  0
    8.1839  -20.8425   29.3370 O   0  0  0  0  0  0  0  0  0  0  0  0
   10.1545  -19.7711   28.9804 O   0  0  0  0  0  0  0  0  0  0  0  0
  2  1  1  6
  2  3  1  0
  3  4  1  0
  4  5  2  0
  5  6  1  0
  7  6  1  0
  8  7  2  0
  9  8  1  0
 10 11  1  0
 10  9  2  0
 11 12  2  0
 12  4  1  0
 12  7  1  0
 13 21  1  0
 13  2  1  0
 14 13  2  0
 16 17  2  0
 16 15  1  0
 18 16  1  0
 19 18  1  0
 20 21  1  0
 20 19  1  1
 22 20  1  0
 23 22  2  0
 25 24  1  6
 25 26  1  0
 25 27  1  0
 27 29  1  0
 27 28  1  6
 28 22  1  0
 29 30  1  0
 31 29  2  0
M  END
$$$$
