YLH.pdb
     RDKit          3D

 31 32  0  0  1  0  0  0  0  0999 V2000
   14.9854  -17.5754   12.5225 O   0  0  0  0  0  0  0  0  0  0  0  0
   14.5647  -17.2388   13.8245 C   0  0  0  0  0  0  0  0  0  0  0  0
   15.4600  -17.0038   14.8321 C   0  0  0  0  0  0  0  0  0  0  0  0
   15.0228  -16.6725   16.1112 C   0  0  0  0  0  0  0  0  0  0  0  0
   13.6819  -16.5702   16.4062 C   0  0  0  0  0  0  0  0  0  0  0  0
   13.1989  -16.2209   17.7532 C   0  0  0  0  0  0  0  0  0  0  0  0
   12.7982  -14.7692   17.8774 C   0  0  2  0  0  0  0  0  0  0  0  0
   13.8733  -13.8649   17.6259 N   0  0  0  0  0  0  0  0  0  0  0  0
   12.2991  -14.5694   19.2591 C   0  0  0  0  0  0  0  0  0  0  0  0
   13.0452  -13.9827   20.0841 O   0  0  0  0  0  0  0  0  0  0  0  0
   12.7926  -16.8091   15.3834 C   0  0  0  0  0  0  0  0  0  0  0  0
   13.2217  -17.1404   14.1034 C   0  0  0  0  0  0  0  0  0  0  0  0
    9.1122  -12.2578   18.9436 C   0  0  0  0  0  0  0  0  0  0  0  0
    8.7213  -13.4757   19.8084 C   0  0  2  0  0  0  0  0  0  0  0  0
    7.2598  -13.4429   20.0711 C   0  0  0  0  0  0  0  0  0  0  0  0
    9.6403  -13.5200   20.9789 C   0  0  0  0  0  0  0  0  0  0  0  0
   10.5411  -14.6866   20.9800 C   0  0  2  0  0  0  0  0  0  0  0  0
   11.0105  -15.0203   19.6702 N   0  0  0  0  0  0  0  0  0  0  0  0
    9.9002  -15.9096   21.5502 C   0  0  0  0  0  0  0  0  0  0  0  0
    9.3231  -16.7126   20.7978 O   0  0  0  0  0  0  0  0  0  0  0  0
    9.9180  -16.2110   22.9580 N   0  0  0  0  0  0  0  0  0  0  0  0
   10.8641  -17.1367   23.5219 C   0  0  1  0  0  0  0  0  0  0  0  0
   12.2749  -16.9576   23.1192 C   0  0  0  0  0  0  0  0  0  0  0  0
   12.7901  -17.8411   22.0759 C   0  0  0  0  0  0  0  0  0  0  0  0
   12.2537  -18.8412   21.3222 C   0  0  0  0  0  0  0  0  0  0  0  0
   13.1837  -19.3143   20.4848 N   0  0  0  0  0  0  0  0  0  0  0  0
   14.3013  -18.6352   20.6900 C   0  0  0  0  0  0  0  0  0  0  0  0
   14.0808  -17.7425   21.6466 N   0  0  0  0  0  0  0  0  0  0  0  0
   10.7097  -17.2102   25.0155 C   0  0  0  0  0  0  0  0  0  0  0  0
   11.4229  -18.1421   25.7378 O   0  0  0  0  0  0  0  0  0  0  0  0
    9.9417  -16.4362   25.6136 O   0  0  0  0  0  0  0  0  0  0  0  0
  2 12  2  0
  2  1  1  0
  3  2  1  0
  4  5  1  0
  4  3  2  0
  5 11  2  0
  6  7  1  0
  6  5  1  0
  7  9  1  0
  7  8  1  1
  9 10  2  0
 11 12  1  0
 14 13  1  1
 14 16  1  0
 14 15  1  0
 17 16  1  6
 18 17  1  0
 18  9  1  0
 19 21  1  0
 19 17  1  0
 20 19  2  0
 22 21  1  0
 22 23  1  1
 23 24  1  0
 24 28  1  0
 25 24  2  0
 25 26  1  0
 26 27  1  0
 28 27  2  0
 29 22  1  0
 30 29  1  0
 31 29  2  0
M  END
$$$$
