YLH.pdb
     RDKit          3D

 31 32  0  0  1  0  0  0  0  0999 V2000
    7.3650  -13.4417   16.3618 O   0  0  0  0  0  0  0  0  0  0  0  0
    7.4246  -13.8508   17.7089 C   0  0  0  0  0  0  0  0  0  0  0  0
    7.2529  -15.1586   18.0724 C   0  0  0  0  0  0  0  0  0  0  0  0
    7.3157  -15.5410   19.4091 C   0  0  0  0  0  0  0  0  0  0  0  0
    7.5515  -14.6224   20.4071 C   0  0  0  0  0  0  0  0  0  0  0  0
    7.6217  -15.0066   21.8273 C   0  0  0  0  0  0  0  0  0  0  0  0
    9.0385  -15.0873   22.3466 C   0  0  2  0  0  0  0  0  0  0  0  0
    9.8170  -16.0963   21.7042 N   0  0  0  0  0  0  0  0  0  0  0  0
    8.9569  -15.3772   23.7982 C   0  0  0  0  0  0  0  0  0  0  0  0
    9.6377  -16.3306   24.2555 O   0  0  0  0  0  0  0  0  0  0  0  0
    7.7224  -13.3107   20.0273 C   0  0  0  0  0  0  0  0  0  0  0  0
    7.6610  -12.9211   18.6943 C   0  0  0  0  0  0  0  0  0  0  0  0
    7.4377  -11.6360   25.4298 C   0  0  0  0  0  0  0  0  0  0  0  0
    6.7066  -12.8527   26.0374 C   0  0  2  0  0  0  0  0  0  0  0  0
    5.4666  -12.3933   26.7137 C   0  0  0  0  0  0  0  0  0  0  0  0
    7.6939  -13.6262   26.8395 C   0  0  0  0  0  0  0  0  0  0  0  0
    8.3390  -14.7190   26.0896 C   0  0  2  0  0  0  0  0  0  0  0  0
    8.1362  -14.6115   24.6773 N   0  0  0  0  0  0  0  0  0  0  0  0
    7.8567  -16.0693   26.5089 C   0  0  0  0  0  0  0  0  0  0  0  0
    6.7802  -16.5053   26.0675 O   0  0  0  0  0  0  0  0  0  0  0  0
    8.5925  -16.9087   27.4184 N   0  0  0  0  0  0  0  0  0  0  0  0
    8.7057  -18.3285   27.2145 C   0  0  1  0  0  0  0  0  0  0  0  0
    8.9856  -18.7711   25.8324 C   0  0  0  0  0  0  0  0  0  0  0  0
    9.0240  -20.2108   25.5859 C   0  0  0  0  0  0  0  0  0  0  0  0
    8.8149  -21.3159   26.3544 C   0  0  0  0  0  0  0  0  0  0  0  0
    8.9635  -22.4136   25.6040 N   0  0  0  0  0  0  0  0  0  0  0  0
    9.2626  -22.0293   24.3731 C   0  0  0  0  0  0  0  0  0  0  0  0
    9.3029  -20.7034   24.3451 N   0  0  0  0  0  0  0  0  0  0  0  0
    9.6627  -18.9325   28.2041 C   0  0  0  0  0  0  0  0  0  0  0  0
    9.7847  -20.3018   28.2984 O   0  0  0  0  0  0  0  0  0  0  0  0
   10.3514  -18.2088   28.9448 O   0  0  0  0  0  0  0  0  0  0  0  0
  2 12  2  0
  2  1  1  0
  3  2  1  0
  4  5  1  0
  4  3  2  0
  5 11  2  0
  6  7  1  0
  6  5  1  0
  7  9  1  0
  7  8  1  6
  9 10  2  0
 11 12  1  0
 14 13  1  1
 14 16  1  0
 14 15  1  0
 17 16  1  1
 18 17  1  0
 18  9  1  0
 19 21  1  0
 19 17  1  0
 20 19  2  0
 22 21  1  0
 22 23  1  6
 23 24  1  0
 24 28  1  0
 25 24  2  0
 25 26  1  0
 26 27  1  0
 28 27  2  0
 29 22  1  0
 30 29  1  0
 31 29  2  0
M  END
$$$$
