YLH.pdb
     RDKit          3D

 31 32  0  0  1  0  0  0  0  0999 V2000
    6.9462  -14.0588   15.6280 O   0  0  0  0  0  0  0  0  0  0  0  0
    7.5489  -14.1672   16.8971 C   0  0  0  0  0  0  0  0  0  0  0  0
    7.7684  -15.3813   17.4885 C   0  0  0  0  0  0  0  0  0  0  0  0
    8.3653  -15.4656   18.7429 C   0  0  0  0  0  0  0  0  0  0  0  0
    8.7537  -14.3370   19.4291 C   0  0  0  0  0  0  0  0  0  0  0  0
    9.3869  -14.4047   20.7573 C   0  0  0  0  0  0  0  0  0  0  0  0
    9.0156  -15.6528   21.5242 C   0  0  2  0  0  0  0  0  0  0  0  0
    7.7294  -16.1650   21.1773 N   0  0  0  0  0  0  0  0  0  0  0  0
    9.0349  -15.3034   22.9649 C   0  0  0  0  0  0  0  0  0  0  0  0
   10.1464  -15.0849   23.5110 O   0  0  0  0  0  0  0  0  0  0  0  0
    8.5270  -13.1226   18.8225 C   0  0  0  0  0  0  0  0  0  0  0  0
    7.9314  -13.0304   17.5699 C   0  0  0  0  0  0  0  0  0  0  0  0
    5.7021  -12.2123   26.9109 C   0  0  0  0  0  0  0  0  0  0  0  0
    6.9878  -13.0326   26.6701 C   0  0  2  0  0  0  0  0  0  0  0  0
    8.1726  -12.1888   26.9707 C   0  0  0  0  0  0  0  0  0  0  0  0
    6.8927  -13.6461   25.3169 C   0  0  0  0  0  0  0  0  0  0  0  0
    7.9078  -14.6847   25.0655 C   0  0  2  0  0  0  0  0  0  0  0  0
    7.8396  -15.2103   23.7365 N   0  0  0  0  0  0  0  0  0  0  0  0
    7.7986  -15.8381   26.0085 C   0  0  0  0  0  0  0  0  0  0  0  0
    6.7129  -16.4281   26.1398 O   0  0  0  0  0  0  0  0  0  0  0  0
    8.9120  -16.3107   26.7896 N   0  0  0  0  0  0  0  0  0  0  0  0
    9.0584  -17.6995   27.1359 C   0  0  1  0  0  0  0  0  0  0  0  0
    9.3578  -18.6238   26.0222 C   0  0  0  0  0  0  0  0  0  0  0  0
    8.2246  -19.2817   25.3758 C   0  0  0  0  0  0  0  0  0  0  0  0
    6.8746  -19.2509   25.5554 C   0  0  0  0  0  0  0  0  0  0  0  0
    6.2883  -20.0492   24.6559 N   0  0  0  0  0  0  0  0  0  0  0  0
    7.2381  -20.5873   23.9071 C   0  0  0  0  0  0  0  0  0  0  0  0
    8.4121  -20.1345   24.3282 N   0  0  0  0  0  0  0  0  0  0  0  0
   10.0217  -17.8633   28.2784 C   0  0  0  0  0  0  0  0  0  0  0  0
   10.0487  -19.0400   28.9948 O   0  0  0  0  0  0  0  0  0  0  0  0
   10.8010  -16.9451   28.5889 O   0  0  0  0  0  0  0  0  0  0  0  0
  2 12  2  0
  2  1  1  0
  3  2  1  0
  4  5  1  0
  4  3  2  0
  5 11  2  0
  6  7  1  0
  6  5  1  0
  7  9  1  0
  7  8  1  6
  9 10  2  0
 11 12  1  0
 14 13  1  6
 14 16  1  0
 14 15  1  0
 17 16  1  1
 18 17  1  0
 18  9  1  0
 19 21  1  0
 19 17  1  0
 20 19  2  0
 22 21  1  0
 22 23  1  6
 23 24  1  0
 24 28  1  0
 25 24  2  0
 25 26  1  0
 26 27  1  0
 28 27  2  0
 29 22  1  0
 30 29  1  0
 31 29  2  0
M  END
$$$$
