YLH.pdb
     RDKit          3D

 31 32  0  0  1  0  0  0  0  0999 V2000
    6.4710  -18.2468   16.7166 O   0  0  0  0  0  0  0  0  0  0  0  0
    7.0165  -17.9829   17.9888 C   0  0  0  0  0  0  0  0  0  0  0  0
    7.5758  -16.7724   18.2953 C   0  0  0  0  0  0  0  0  0  0  0  0
    8.1090  -16.5330   19.5584 C   0  0  0  0  0  0  0  0  0  0  0  0
    8.0927  -17.4999   20.5384 C   0  0  0  0  0  0  0  0  0  0  0  0
    8.6516  -17.2664   21.8810 C   0  0  0  0  0  0  0  0  0  0  0  0
    9.1681  -15.8586   22.0677 C   0  0  2  0  0  0  0  0  0  0  0  0
   10.5050  -15.6827   21.5998 N   0  0  0  0  0  0  0  0  0  0  0  0
    9.1104  -15.5598   23.5187 C   0  0  0  0  0  0  0  0  0  0  0  0
   10.1416  -15.7587   24.2104 O   0  0  0  0  0  0  0  0  0  0  0  0
    7.5271  -18.7125   20.2164 C   0  0  0  0  0  0  0  0  0  0  0  0
    6.9925  -18.9591   18.9571 C   0  0  0  0  0  0  0  0  0  0  0  0
    8.3637  -11.9091   25.9876 C   0  0  0  0  0  0  0  0  0  0  0  0
    7.0176  -12.4440   25.4529 C   0  0  2  0  0  0  0  0  0  0  0  0
    5.9413  -11.4708   25.7702 C   0  0  0  0  0  0  0  0  0  0  0  0
    6.8575  -13.8437   25.9342 C   0  0  0  0  0  0  0  0  0  0  0  0
    7.9602  -14.7364   25.5348 C   0  0  2  0  0  0  0  0  0  0  0  0
    7.9295  -15.0589   24.1412 N   0  0  0  0  0  0  0  0  0  0  0  0
    7.9625  -16.0243   26.2917 C   0  0  0  0  0  0  0  0  0  0  0  0
    8.0037  -16.0110   27.5335 O   0  0  0  0  0  0  0  0  0  0  0  0
    7.9185  -17.3078   25.6406 N   0  0  0  0  0  0  0  0  0  0  0  0
    8.0509  -18.5358   26.3785 C   0  0  1  0  0  0  0  0  0  0  0  0
    7.8886  -19.7849   25.6053 C   0  0  0  0  0  0  0  0  0  0  0  0
    8.0372  -21.0446   26.3304 C   0  0  0  0  0  0  0  0  0  0  0  0
    8.1594  -21.3796   27.6452 C   0  0  0  0  0  0  0  0  0  0  0  0
    8.2479  -22.7098   27.7584 N   0  0  0  0  0  0  0  0  0  0  0  0
    8.1840  -23.2283   26.5422 C   0  0  0  0  0  0  0  0  0  0  0  0
    8.0567  -22.2372   25.6691 N   0  0  0  0  0  0  0  0  0  0  0  0
    9.3176  -18.5351   27.1880 C   0  0  0  0  0  0  0  0  0  0  0  0
   10.4584  -17.9493   26.6836 O   0  0  0  0  0  0  0  0  0  0  0  0
    9.3516  -19.0594   28.3152 O   0  0  0  0  0  0  0  0  0  0  0  0
  2 12  2  0
  2  1  1  0
  3  2  1  0
  4  5  1  0
  4  3  2  0
  5 11  2  0
  6  7  1  0
  6  5  1  0
  7  9  1  0
  7  8  1  1
  9 10  2  0
 11 12  1  0
 14 13  1  1
 14 16  1  0
 14 15  1  0
 17 16  1  1
 18 17  1  0
 18  9  1  0
 19 21  1  0
 19 17  1  0
 20 19  2  0
 22 21  1  0
 22 23  1  6
 23 24  1  0
 24 28  1  0
 25 24  2  0
 25 26  1  0
 26 27  1  0
 28 27  2  0
 29 22  1  0
 30 29  1  0
 31 29  2  0
M  END
$$$$
