YLH.pdb
     RDKit          3D

 31 32  0  0  1  0  0  0  0  0999 V2000
    6.9473  -18.7152   16.2156 O   0  0  0  0  0  0  0  0  0  0  0  0
    7.1954  -18.2918   17.5365 C   0  0  0  0  0  0  0  0  0  0  0  0
    6.3815  -17.3919   18.1689 C   0  0  0  0  0  0  0  0  0  0  0  0
    6.6450  -16.9872   19.4741 C   0  0  0  0  0  0  0  0  0  0  0  0
    7.7275  -17.4750   20.1711 C   0  0  0  0  0  0  0  0  0  0  0  0
    8.0236  -17.0595   21.5528 C   0  0  0  0  0  0  0  0  0  0  0  0
    8.4142  -15.6036   21.6595 C   0  0  2  0  0  0  0  0  0  0  0  0
    9.6192  -15.2914   20.9614 N   0  0  0  0  0  0  0  0  0  0  0  0
    8.5869  -15.3010   23.1005 C   0  0  0  0  0  0  0  0  0  0  0  0
    9.7278  -15.4479   23.6086 O   0  0  0  0  0  0  0  0  0  0  0  0
    8.5375  -18.3793   19.5229 C   0  0  0  0  0  0  0  0  0  0  0  0
    8.2808  -18.7883   18.2194 C   0  0  0  0  0  0  0  0  0  0  0  0
    8.0101  -11.7657   25.8646 C   0  0  0  0  0  0  0  0  0  0  0  0
    6.6581  -12.4010   25.4739 C   0  0  2  0  0  0  0  0  0  0  0  0
    5.5515  -11.5267   25.9399 C   0  0  0  0  0  0  0  0  0  0  0  0
    6.6688  -13.8177   25.9314 C   0  0  0  0  0  0  0  0  0  0  0  0
    7.7285  -14.6321   25.3099 C   0  0  2  0  0  0  0  0  0  0  0  0
    7.5050  -14.8533   23.9141 N   0  0  0  0  0  0  0  0  0  0  0  0
    7.8809  -15.9704   25.9559 C   0  0  0  0  0  0  0  0  0  0  0  0
    7.0133  -16.8428   25.7818 O   0  0  0  0  0  0  0  0  0  0  0  0
    9.0067  -16.3074   26.7879 N   0  0  0  0  0  0  0  0  0  0  0  0
    9.5837  -17.6254   26.7831 C   0  0  1  0  0  0  0  0  0  0  0  0
   10.0802  -18.1179   25.4810 C   0  0  0  0  0  0  0  0  0  0  0  0
   10.6517  -19.4621   25.4479 C   0  0  0  0  0  0  0  0  0  0  0  0
   10.8565  -20.4346   26.3797 C   0  0  0  0  0  0  0  0  0  0  0  0
   11.4102  -21.5022   25.7935 N   0  0  0  0  0  0  0  0  0  0  0  0
   11.5616  -21.2291   24.5071 C   0  0  0  0  0  0  0  0  0  0  0  0
   11.1089  -20.0022   24.2821 N   0  0  0  0  0  0  0  0  0  0  0  0
   10.6178  -17.7564   27.8663 C   0  0  0  0  0  0  0  0  0  0  0  0
   10.9158  -16.6773   28.6698 O   0  0  0  0  0  0  0  0  0  0  0  0
   11.2131  -18.8329   28.0495 O   0  0  0  0  0  0  0  0  0  0  0  0
  2 12  2  0
  2  1  1  0
  3  2  1  0
  4  5  1  0
  4  3  2  0
  5 11  2  0
  6  7  1  0
  6  5  1  0
  7  9  1  0
  7  8  1  6
  9 10  2  0
 11 12  1  0
 14 13  1  1
 14 16  1  0
 14 15  1  0
 17 16  1  1
 18 17  1  0
 18  9  1  0
 19 21  1  0
 19 17  1  0
 20 19  2  0
 22 21  1  0
 22 23  1  6
 23 24  1  0
 24 28  1  0
 25 24  2  0
 25 26  1  0
 26 27  1  0
 28 27  2  0
 29 22  1  0
 30 29  1  0
 31 29  2  0
M  END
$$$$
