MYR.pdb
     RDKit          3D

 32 32  0  0  1  0  0  0  0  0999 V2000
    6.0844  -19.3952   18.3298 C   0  0  0  0  0  0  0  0  0  0  0  0
    7.7479  -19.3661   17.7010 S   0  0  0  0  0  0  0  0  0  0  0  0
    8.3825  -17.7638   17.2483 C   0  0  0  0  0  0  0  0  0  0  0  0
    8.7880  -16.8588   18.3365 C   0  0  0  0  0  0  0  0  0  0  0  0
    8.9963  -17.3655   19.6994 C   0  0  2  0  0  0  0  0  0  0  0  0
    8.0258  -18.2512   20.2396 N   0  0  0  0  0  0  0  0  0  0  0  0
    9.2064  -16.2517   20.7005 C   0  0  0  0  0  0  0  0  0  0  0  0
   10.1146  -15.3926   20.5596 O   0  0  0  0  0  0  0  0  0  0  0  0
    7.0277  -10.9786   27.5408 O   0  0  0  0  0  0  0  0  0  0  0  0
    7.0538  -11.9499   26.5454 C   0  0  0  0  0  0  0  0  0  0  0  0
    6.8367  -13.3008   26.8375 C   0  0  0  0  0  0  0  0  0  0  0  0
    6.8660  -14.2526   25.8373 C   0  0  0  0  0  0  0  0  0  0  0  0
    7.1089  -13.9065   24.5231 C   0  0  0  0  0  0  0  0  0  0  0  0
    7.1340  -14.9420   23.4789 C   0  0  0  0  0  0  0  0  0  0  0  0
    8.5023  -15.0388   22.7924 C   0  0  2  0  0  0  0  0  0  0  0  0
    8.3803  -16.1307   21.8482 N   0  0  0  0  0  0  0  0  0  0  0  0
    9.4578  -15.3707   23.8895 C   0  0  0  0  0  0  0  0  0  0  0  0
    9.6697  -14.4889   24.7615 O   0  0  0  0  0  0  0  0  0  0  0  0
    7.3193  -12.5698   24.2629 C   0  0  0  0  0  0  0  0  0  0  0  0
    7.2957  -11.6032   25.2385 C   0  0  0  0  0  0  0  0  0  0  0  0
    9.1473  -20.5354   29.1866 N   0  0  0  0  0  0  0  0  0  0  0  0
   10.5549  -20.6725   29.2366 C   0  0  0  0  0  0  0  0  0  0  0  0
   11.1467  -20.6354   30.4056 N   0  0  0  0  0  0  0  0  0  0  0  0
   11.3659  -20.8514   28.0988 N   0  0  0  0  0  0  0  0  0  0  0  0
   10.8947  -20.4866   26.7396 C   0  0  0  0  0  0  0  0  0  0  0  0
   11.1115  -19.0338   26.5892 C   0  0  0  0  0  0  0  0  0  0  0  0
   10.9032  -18.3573   25.3190 C   0  0  0  0  0  0  0  0  0  0  0  0
   11.0771  -16.9114   25.1017 C   0  0  2  0  0  0  0  0  0  0  0  0
   10.1124  -16.6156   23.9702 N   0  0  0  0  0  0  0  0  0  0  0  0
   12.3537  -16.4215   24.5721 C   0  0  0  0  0  0  0  0  0  0  0  0
   12.6176  -16.3608   23.1811 O   0  0  0  0  0  0  0  0  0  0  0  0
   13.3050  -16.0217   25.2757 O   0  0  0  0  0  0  0  0  0  0  0  0
  2  1  1  0
  3  4  1  0
  3  2  1  0
  5  6  1  1
  5  4  1  0
  7  5  1  0
  8  7  2  0
  9 10  1  0
 10 20  2  0
 10 11  1  0
 11 12  2  0
 12 13  1  0
 13 14  1  0
 15 14  1  1
 15 16  1  0
 16  7  1  0
 17 29  1  0
 17 15  1  0
 18 17  2  0
 19 13  2  0
 20 19  1  0
 22 23  2  0
 22 21  1  0
 24 22  1  0
 25 26  1  0
 25 24  1  0
 26 27  1  0
 28 27  1  6
 28 29  1  0
 30 28  1  0
 30 31  1  0
 32 30  2  0
M  END
$$$$
