MYR.pdb
     RDKit          3D

 32 32  0  0  1  0  0  0  0  0999 V2000
    5.7598  -11.5802   17.7688 C   0  0  0  0  0  0  0  0  0  0  0  0
    7.3883  -12.0705   18.2893 S   0  0  0  0  0  0  0  0  0  0  0  0
    7.4976  -13.6314   19.1417 C   0  0  0  0  0  0  0  0  0  0  0  0
    8.8011  -14.0057   19.7146 C   0  0  0  0  0  0  0  0  0  0  0  0
    8.9426  -15.2121   20.5404 C   0  0  2  0  0  0  0  0  0  0  0  0
    7.7680  -15.9420   20.8656 N   0  0  0  0  0  0  0  0  0  0  0  0
    9.6847  -14.9418   21.8300 C   0  0  0  0  0  0  0  0  0  0  0  0
   10.8748  -14.5341   21.8403 O   0  0  0  0  0  0  0  0  0  0  0  0
   10.9483  -15.1007   30.6503 O   0  0  0  0  0  0  0  0  0  0  0  0
   10.3994  -15.0932   29.3722 C   0  0  0  0  0  0  0  0  0  0  0  0
   10.2184  -13.9013   28.6622 C   0  0  0  0  0  0  0  0  0  0  0  0
    9.6720  -13.9114   27.3939 C   0  0  0  0  0  0  0  0  0  0  0  0
    9.2880  -15.0902   26.7865 C   0  0  0  0  0  0  0  0  0  0  0  0
    8.7090  -15.0701   25.4346 C   0  0  0  0  0  0  0  0  0  0  0  0
    9.7867  -15.0719   24.3431 C   0  0  2  0  0  0  0  0  0  0  0  0
    9.0625  -15.1390   23.0903 N   0  0  0  0  0  0  0  0  0  0  0  0
   10.5739  -16.3163   24.5853 C   0  0  0  0  0  0  0  0  0  0  0  0
    9.9841  -17.4164   24.4273 O   0  0  0  0  0  0  0  0  0  0  0  0
    9.4771  -16.2492   27.5073 C   0  0  0  0  0  0  0  0  0  0  0  0
   10.0180  -16.2672   28.7697 C   0  0  0  0  0  0  0  0  0  0  0  0
   16.2366  -14.8590   20.0515 N   0  0  0  0  0  0  0  0  0  0  0  0
   14.9165  -15.3599   20.1462 C   0  0  0  0  0  0  0  0  0  0  0  0
   14.0286  -14.9551   19.2710 N   0  0  0  0  0  0  0  0  0  0  0  0
   14.4947  -16.2771   21.1287 N   0  0  0  0  0  0  0  0  0  0  0  0
   15.4447  -17.2097   21.7846 C   0  0  0  0  0  0  0  0  0  0  0  0
   14.7701  -17.7254   22.9925 C   0  0  0  0  0  0  0  0  0  0  0  0
   13.7963  -16.9299   23.7229 C   0  0  0  0  0  0  0  0  0  0  0  0
   12.8366  -17.4707   24.6998 C   0  0  2  0  0  0  0  0  0  0  0  0
   11.9269  -16.2900   24.9773 N   0  0  0  0  0  0  0  0  0  0  0  0
   13.3133  -17.8309   26.0389 C   0  0  0  0  0  0  0  0  0  0  0  0
   13.8203  -19.1206   26.3355 O   0  0  0  0  0  0  0  0  0  0  0  0
   13.3183  -17.0580   27.0199 O   0  0  0  0  0  0  0  0  0  0  0  0
  2  1  1  0
  3  4  1  0
  3  2  1  0
  5  6  1  1
  5  4  1  0
  7  5  1  0
  8  7  2  0
  9 10  1  0
 10 20  2  0
 10 11  1  0
 11 12  2  0
 12 13  1  0
 13 14  1  0
 15 14  1  1
 15 16  1  0
 16  7  1  0
 17 29  1  0
 17 15  1  0
 18 17  2  0
 19 13  2  0
 20 19  1  0
 22 23  2  0
 22 21  1  0
 24 22  1  0
 25 26  1  0
 25 24  1  0
 26 27  1  0
 28 27  1  6
 28 29  1  0
 30 28  1  0
 30 31  1  0
 32 30  2  0
M  END
$$$$
