MYR.pdb
     RDKit          3D

 32 32  0  0  1  0  0  0  0  0999 V2000
    6.5719  -12.2121   20.5040 C   0  0  0  0  0  0  0  0  0  0  0  0
    6.5012  -13.6276   19.4294 S   0  0  0  0  0  0  0  0  0  0  0  0
    7.9039  -14.7246   19.4914 C   0  0  0  0  0  0  0  0  0  0  0  0
    8.3120  -15.2357   20.8103 C   0  0  0  0  0  0  0  0  0  0  0  0
    9.5167  -16.0631   20.9578 C   0  0  2  0  0  0  0  0  0  0  0  0
    9.6337  -17.2249   20.1488 N   0  0  0  0  0  0  0  0  0  0  0  0
    9.7564  -16.4784   22.3920 C   0  0  0  0  0  0  0  0  0  0  0  0
   10.3096  -17.5695   22.6855 O   0  0  0  0  0  0  0  0  0  0  0  0
   10.1418  -15.2625   31.2253 O   0  0  0  0  0  0  0  0  0  0  0  0
    9.9024  -15.1358   29.8609 C   0  0  0  0  0  0  0  0  0  0  0  0
    9.2454  -14.0178   29.3355 C   0  0  0  0  0  0  0  0  0  0  0  0
    9.0157  -13.9076   27.9782 C   0  0  0  0  0  0  0  0  0  0  0  0
    9.4236  -14.8902   27.0983 C   0  0  0  0  0  0  0  0  0  0  0  0
    9.1653  -14.7454   25.6577 C   0  0  0  0  0  0  0  0  0  0  0  0
    9.7265  -15.9212   24.8479 C   0  0  2  0  0  0  0  0  0  0  0  0
    9.3635  -15.6464   23.4726 N   0  0  0  0  0  0  0  0  0  0  0  0
    9.0112  -17.1217   25.3713 C   0  0  0  0  0  0  0  0  0  0  0  0
    9.3175  -17.5235   26.5236 O   0  0  0  0  0  0  0  0  0  0  0  0
   10.0682  -15.9801   27.6418 C   0  0  0  0  0  0  0  0  0  0  0  0
   10.3092  -16.1147   28.9873 C   0  0  0  0  0  0  0  0  0  0  0  0
    3.1050  -18.2483   19.8686 N   0  0  0  0  0  0  0  0  0  0  0  0
    3.5793  -19.0726   20.9165 C   0  0  0  0  0  0  0  0  0  0  0  0
    2.7501  -19.4063   21.8752 N   0  0  0  0  0  0  0  0  0  0  0  0
    4.8975  -19.5638   20.9920 N   0  0  0  0  0  0  0  0  0  0  0  0
    5.3897  -20.2971   22.1846 C   0  0  0  0  0  0  0  0  0  0  0  0
    6.4448  -19.4624   22.7928 C   0  0  0  0  0  0  0  0  0  0  0  0
    7.1472  -19.8753   23.9972 C   0  0  0  0  0  0  0  0  0  0  0  0
    7.3396  -19.0288   25.1864 C   0  0  2  0  0  0  0  0  0  0  0  0
    8.0268  -17.7994   24.6253 N   0  0  0  0  0  0  0  0  0  0  0  0
    8.2715  -19.4702   26.2290 C   0  0  0  0  0  0  0  0  0  0  0  0
    7.8299  -19.8510   27.5207 O   0  0  0  0  0  0  0  0  0  0  0  0
    9.5092  -19.5509   26.0839 O   0  0  0  0  0  0  0  0  0  0  0  0
  2  1  1  0
  3  4  1  0
  3  2  1  0
  5  6  1  6
  5  4  1  0
  7  5  1  0
  8  7  2  0
  9 10  1  0
 10 20  2  0
 10 11  1  0
 11 12  2  0
 12 13  1  0
 13 14  1  0
 15 14  1  1
 15 16  1  0
 16  7  1  0
 17 29  1  0
 17 15  1  0
 18 17  2  0
 19 13  2  0
 20 19  1  0
 22 23  2  0
 22 21  1  0
 24 22  1  0
 25 26  1  0
 25 24  1  0
 26 27  1  0
 28 27  1  6
 28 29  1  0
 30 28  1  0
 30 31  1  0
 32 30  2  0
M  END
$$$$
