MYR.pdb
     RDKit          3D

 32 32  0  0  1  0  0  0  0  0999 V2000
    8.8695  -11.4286   19.8177 C   0  0  0  0  0  0  0  0  0  0  0  0
    7.3361  -12.2497   20.1889 S   0  0  0  0  0  0  0  0  0  0  0  0
    7.1748  -13.9149   19.5757 C   0  0  0  0  0  0  0  0  0  0  0  0
    8.3956  -14.7340   19.4977 C   0  0  0  0  0  0  0  0  0  0  0  0
    8.5820  -15.8939   20.3795 C   0  0  2  0  0  0  0  0  0  0  0  0
    7.4317  -16.6323   20.7662 N   0  0  0  0  0  0  0  0  0  0  0  0
    9.3441  -15.5425   21.6375 C   0  0  0  0  0  0  0  0  0  0  0  0
   10.4613  -14.9653   21.5998 O   0  0  0  0  0  0  0  0  0  0  0  0
   10.4009  -14.4380   30.4157 O   0  0  0  0  0  0  0  0  0  0  0  0
    9.9033  -14.6606   29.1359 C   0  0  0  0  0  0  0  0  0  0  0  0
    9.6809  -15.9552   28.6539 C   0  0  0  0  0  0  0  0  0  0  0  0
    9.1864  -16.1588   27.3807 C   0  0  0  0  0  0  0  0  0  0  0  0
    8.8961  -15.0992   26.5447 C   0  0  0  0  0  0  0  0  0  0  0  0
    8.3703  -15.3466   25.1936 C   0  0  0  0  0  0  0  0  0  0  0  0
    9.4885  -15.4706   24.1509 C   0  0  2  0  0  0  0  0  0  0  0  0
    8.8245  -15.8527   22.9213 N   0  0  0  0  0  0  0  0  0  0  0  0
   10.3659  -16.5652   24.6598 C   0  0  0  0  0  0  0  0  0  0  0  0
   11.0818  -16.3160   25.6639 O   0  0  0  0  0  0  0  0  0  0  0  0
    9.1242  -13.8352   27.0439 C   0  0  0  0  0  0  0  0  0  0  0  0
    9.6152  -13.6048   28.3058 C   0  0  0  0  0  0  0  0  0  0  0  0
   13.6352  -16.4242   17.7894 N   0  0  0  0  0  0  0  0  0  0  0  0
   14.4468  -15.8455   18.7939 C   0  0  0  0  0  0  0  0  0  0  0  0
   15.1739  -14.7992   18.4861 N   0  0  0  0  0  0  0  0  0  0  0  0
   14.5197  -16.3260   20.1161 N   0  0  0  0  0  0  0  0  0  0  0  0
   13.8070  -17.5571   20.5392 C   0  0  0  0  0  0  0  0  0  0  0  0
   13.4088  -17.3565   21.9468 C   0  0  0  0  0  0  0  0  0  0  0  0
   12.0585  -17.6385   22.4070 C   0  0  0  0  0  0  0  0  0  0  0  0
   11.7299  -18.4326   23.6025 C   0  0  2  0  0  0  0  0  0  0  0  0
   10.4115  -17.8382   24.0579 N   0  0  0  0  0  0  0  0  0  0  0  0
   12.5714  -18.3006   24.7961 C   0  0  0  0  0  0  0  0  0  0  0  0
   13.5560  -19.2626   25.1327 O   0  0  0  0  0  0  0  0  0  0  0  0
   12.5037  -17.3545   25.6085 O   0  0  0  0  0  0  0  0  0  0  0  0
  2  1  1  0
  3  4  1  0
  3  2  1  0
  5  6  1  1
  5  4  1  0
  7  5  1  0
  8  7  2  0
  9 10  1  0
 10 20  2  0
 10 11  1  0
 11 12  2  0
 12 13  1  0
 13 14  1  0
 15 14  1  1
 15 16  1  0
 16  7  1  0
 17 29  1  0
 17 15  1  0
 18 17  2  0
 19 13  2  0
 20 19  1  0
 22 23  2  0
 22 21  1  0
 24 22  1  0
 25 26  1  0
 25 24  1  0
 26 27  1  0
 28 27  1  6
 28 29  1  0
 30 28  1  0
 30 31  1  0
 32 30  2  0
M  END
$$$$
