ESW.pdb
     RDKit          3D

 30 31  0  0  1  0  0  0  0  0999 V2000
   14.0302  -22.9716    6.5897 N   0  0  0  0  0  0  0  0  0  0  0  0
   15.1141  -22.0910    6.6894 C   0  0  1  0  0  0  0  0  0  0  0  0
   15.7565  -21.8107    5.3861 C   0  0  0  0  0  0  0  0  0  0  0  0
   16.4039  -22.9320    4.6591 C   0  0  0  0  0  0  0  0  0  0  0  0
   16.9567  -22.6605    3.3395 C   0  0  0  0  0  0  0  0  0  0  0  0
   17.8469  -21.8174    3.0719 O   0  0  0  0  0  0  0  0  0  0  0  0
   14.7893  -20.8262    7.4289 C   0  0  0  0  0  0  0  0  0  0  0  0
   13.6758  -20.7482    7.9985 O   0  0  0  0  0  0  0  0  0  0  0  0
   16.5098  -23.3627    2.1893 O   0  0  0  0  0  0  0  0  0  0  0  0
   16.1246  -19.2641   10.5251 O   0  0  0  0  0  0  0  0  0  0  0  0
   15.1924  -18.7522    9.6780 C   0  0  0  0  0  0  0  0  0  0  0  0
   15.5715  -18.5668    8.2538 C   0  0  2  0  0  0  0  0  0  0  0  0
   15.7217  -19.7696    7.4695 N   0  0  0  0  0  0  0  0  0  0  0  0
   16.6562  -17.6039    8.0116 C   0  0  0  0  0  0  0  0  0  0  0  0
   17.8754  -17.9665    7.8918 O   0  0  0  0  0  0  0  0  0  0  0  0
   16.4360  -16.2081    7.8882 N   0  0  0  0  0  0  0  0  0  0  0  0
   17.6038  -15.3023    7.6432 C   0  0  1  0  0  0  0  0  0  0  0  0
   17.1296  -14.4074    6.5275 C   0  0  0  0  0  0  0  0  0  0  0  0
   17.2598  -14.9268    5.1785 C   0  0  0  0  0  0  0  0  0  0  0  0
   16.7353  -16.0151    4.5390 C   0  0  0  0  0  0  0  0  0  0  0  0
   17.1448  -16.0354    3.2448 N   0  0  0  0  0  0  0  0  0  0  0  0
   17.9502  -14.9570    3.0019 C   0  0  0  0  0  0  0  0  0  0  0  0
   18.6070  -14.5153    1.8750 C   0  0  0  0  0  0  0  0  0  0  0  0
   19.3578  -13.3697    1.9029 C   0  0  0  0  0  0  0  0  0  0  0  0
   19.4339  -12.6812    3.0817 C   0  0  0  0  0  0  0  0  0  0  0  0
   18.7802  -13.1147    4.2219 C   0  0  0  0  0  0  0  0  0  0  0  0
   18.0167  -14.2767    4.1998 C   0  0  0  0  0  0  0  0  0  0  0  0
   17.8569  -14.4983    8.8430 C   0  0  0  0  0  0  0  0  0  0  0  0
   17.1491  -14.6038    9.8553 O   0  0  0  0  0  0  0  0  0  0  0  0
   18.9026  -13.5975    8.8617 O   0  0  0  0  0  0  0  0  0  0  0  0
  2  1  1  6
  2  7  1  0
  2  3  1  0
  4  3  1  0
  5  4  1  0
  5  6  2  0
  7  8  2  0
  9  5  1  0
 10 11  1  0
 12 11  1  1
 13 12  1  0
 13  7  1  0
 14 12  1  0
 14 15  2  0
 16 14  1  0
 17 16  1  0
 17 28  1  0
 17 18  1  6
 19 27  1  0
 19 18  1  0
 20 19  2  0
 21 20  1  0
 21 22  1  0
 22 27  2  0
 23 22  1  0
 23 24  2  0
 24 25  1  0
 25 26  2  0
 27 26  1  0
 28 29  2  0
 28 30  1  0
M  END
$$$$
