ESW.pdb
     RDKit          3D

 30 31  0  0  1  0  0  0  0  0999 V2000
   23.5435  -19.5599  -16.2165 N   0  0  0  0  0  0  0  0  0  0  0  0
   24.4341  -18.9285  -15.3400 C   0  0  1  0  0  0  0  0  0  0  0  0
   23.8217  -17.8018  -14.6017 C   0  0  0  0  0  0  0  0  0  0  0  0
   22.3827  -17.5090  -14.8212 C   0  0  0  0  0  0  0  0  0  0  0  0
   22.0062  -16.8196  -16.0474 C   0  0  0  0  0  0  0  0  0  0  0  0
   22.3933  -15.6794  -16.4012 O   0  0  0  0  0  0  0  0  0  0  0  0
   25.1357  -19.8793  -14.4148 C   0  0  0  0  0  0  0  0  0  0  0  0
   24.4537  -20.7765  -13.8668 O   0  0  0  0  0  0  0  0  0  0  0  0
   21.1245  -17.4110  -16.9902 O   0  0  0  0  0  0  0  0  0  0  0  0
   29.3376  -19.5487  -14.1434 O   0  0  0  0  0  0  0  0  0  0  0  0
   28.7641  -20.6570  -13.6036 C   0  0  0  0  0  0  0  0  0  0  0  0
   27.3015  -20.6299  -13.3457 C   0  0  2  0  0  0  0  0  0  0  0  0
   26.5201  -19.7501  -14.1823 N   0  0  0  0  0  0  0  0  0  0  0  0
   26.9138  -20.5433  -11.9298 C   0  0  0  0  0  0  0  0  0  0  0  0
   26.5518  -19.4443  -11.3883 O   0  0  0  0  0  0  0  0  0  0  0  0
   26.9066  -21.6649  -11.0615 N   0  0  0  0  0  0  0  0  0  0  0  0
   26.5780  -21.4667   -9.6134 C   0  0  1  0  0  0  0  0  0  0  0  0
   27.6891  -20.5781   -9.1169 C   0  0  0  0  0  0  0  0  0  0  0  0
   27.5738  -20.0947   -7.7533 C   0  0  0  0  0  0  0  0  0  0  0  0
   26.6626  -19.3006   -7.1147 C   0  0  0  0  0  0  0  0  0  0  0  0
   26.9936  -19.1754   -5.8040 N   0  0  0  0  0  0  0  0  0  0  0  0
   28.1333  -19.8871   -5.5489 C   0  0  0  0  0  0  0  0  0  0  0  0
   28.8705  -20.0934   -4.4042 C   0  0  0  0  0  0  0  0  0  0  0  0
   29.9932  -20.8782   -4.4233 C   0  0  0  0  0  0  0  0  0  0  0  0
   30.3572  -21.4482   -5.6115 C   0  0  0  0  0  0  0  0  0  0  0  0
   29.6263  -21.2479   -6.7696 C   0  0  0  0  0  0  0  0  0  0  0  0
   28.4859  -20.4523   -6.7565 C   0  0  0  0  0  0  0  0  0  0  0  0
   25.2973  -20.7624   -9.4964 C   0  0  0  0  0  0  0  0  0  0  0  0
   24.6313  -20.7976   -8.4513 O   0  0  0  0  0  0  0  0  0  0  0  0
   24.8071  -20.0401  -10.5656 O   0  0  0  0  0  0  0  0  0  0  0  0
  2  1  1  1
  2  7  1  0
  2  3  1  0
  4  3  1  0
  5  4  1  0
  5  6  2  0
  7  8  2  0
  9  5  1  0
 10 11  1  0
 12 11  1  1
 13 12  1  0
 13  7  1  0
 14 12  1  0
 14 15  2  0
 16 14  1  0
 17 16  1  0
 17 28  1  0
 17 18  1  6
 19 27  1  0
 19 18  1  0
 20 19  2  0
 21 20  1  0
 21 22  1  0
 22 27  2  0
 23 22  1  0
 23 24  2  0
 24 25  1  0
 25 26  2  0
 27 26  1  0
 28 29  2  0
 28 30  1  0
M  END
$$$$
