ESW.pdb
     RDKit          3D

 30 31  0  0  1  0  0  0  0  0999 V2000
   13.8544  -22.2930    3.4653 N   0  0  0  0  0  0  0  0  0  0  0  0
   14.8401  -22.1127    4.4431 C   0  0  1  0  0  0  0  0  0  0  0  0
   16.1992  -21.9640    3.8772 C   0  0  0  0  0  0  0  0  0  0  0  0
   16.7015  -23.0128    2.9539 C   0  0  0  0  0  0  0  0  0  0  0  0
   17.6508  -23.9849    3.4777 C   0  0  0  0  0  0  0  0  0  0  0  0
   18.1451  -23.9857    4.6312 O   0  0  0  0  0  0  0  0  0  0  0  0
   14.5227  -21.0140    5.4148 C   0  0  0  0  0  0  0  0  0  0  0  0
   13.3351  -20.8915    5.7956 O   0  0  0  0  0  0  0  0  0  0  0  0
   18.1192  -25.0657    2.6850 O   0  0  0  0  0  0  0  0  0  0  0  0
   15.5561  -20.6637    8.9796 O   0  0  0  0  0  0  0  0  0  0  0  0
   14.8096  -19.8132    8.2260 C   0  0  0  0  0  0  0  0  0  0  0  0
   15.4212  -19.2539    6.9934 C   0  0  2  0  0  0  0  0  0  0  0  0
   15.5433  -20.1563    5.8731 N   0  0  0  0  0  0  0  0  0  0  0  0
   16.6382  -18.4551    7.2015 C   0  0  0  0  0  0  0  0  0  0  0  0
   17.8085  -18.9579    7.1033 O   0  0  0  0  0  0  0  0  0  0  0  0
   16.6094  -17.0733    7.5205 N   0  0  0  0  0  0  0  0  0  0  0  0
   17.9008  -16.3241    7.6437 C   0  0  1  0  0  0  0  0  0  0  0  0
   17.5935  -14.9851    7.0246 C   0  0  0  0  0  0  0  0  0  0  0  0
   17.6677  -14.9065    5.5772 C   0  0  0  0  0  0  0  0  0  0  0  0
   17.1216  -15.6513    4.5693 C   0  0  0  0  0  0  0  0  0  0  0  0
   17.4746  -15.1331    3.3652 N   0  0  0  0  0  0  0  0  0  0  0  0
   18.2629  -14.0314    3.5536 C   0  0  0  0  0  0  0  0  0  0  0  0
   18.8677  -13.1541    2.6813 C   0  0  0  0  0  0  0  0  0  0  0  0
   19.6130  -12.1027    3.1462 C   0  0  0  0  0  0  0  0  0  0  0  0
   19.7366  -11.9529    4.4995 C   0  0  0  0  0  0  0  0  0  0  0  0
   19.1354  -12.8281    5.3871 C   0  0  0  0  0  0  0  0  0  0  0  0
   18.3779  -13.8971    4.9213 C   0  0  0  0  0  0  0  0  0  0  0  0
   18.2271  -16.1454    9.0620 C   0  0  0  0  0  0  0  0  0  0  0  0
   19.3978  -16.0060    9.4453 O   0  0  0  0  0  0  0  0  0  0  0  0
   17.2192  -16.1310   10.0051 O   0  0  0  0  0  0  0  0  0  0  0  0
  2  1  1  6
  2  7  1  0
  2  3  1  0
  4  3  1  0
  5  4  1  0
  5  6  2  0
  7  8  2  0
  9  5  1  0
 10 11  1  0
 12 11  1  1
 13 12  1  0
 13  7  1  0
 14 12  1  0
 14 15  2  0
 16 14  1  0
 17 16  1  0
 17 28  1  0
 17 18  1  1
 19 27  1  0
 19 18  1  0
 20 19  2  0
 21 20  1  0
 21 22  1  0
 22 27  2  0
 23 22  1  0
 23 24  2  0
 24 25  1  0
 25 26  2  0
 27 26  1  0
 28 29  2  0
 28 30  1  0
M  END
$$$$
