ESW.pdb
     RDKit          3D

 30 31  0  0  1  0  0  0  0  0999 V2000
   25.2617  -23.1609  -16.9200 N   0  0  0  0  0  0  0  0  0  0  0  0
   25.7187  -21.8902  -16.5500 C   0  0  1  0  0  0  0  0  0  0  0  0
   24.6693  -20.8500  -16.6289 C   0  0  0  0  0  0  0  0  0  0  0  0
   23.2477  -21.2777  -16.6587 C   0  0  0  0  0  0  0  0  0  0  0  0
   22.5062  -21.2680  -15.4055 C   0  0  0  0  0  0  0  0  0  0  0  0
   22.3952  -20.2942  -14.6216 O   0  0  0  0  0  0  0  0  0  0  0  0
   26.4175  -21.8708  -15.2221 C   0  0  0  0  0  0  0  0  0  0  0  0
   26.4636  -22.9380  -14.5668 O   0  0  0  0  0  0  0  0  0  0  0  0
   21.8137  -22.4185  -14.9443 O   0  0  0  0  0  0  0  0  0  0  0  0
   28.0787  -18.2035  -14.0440 O   0  0  0  0  0  0  0  0  0  0  0  0
   28.3343  -19.2461  -13.2094 C   0  0  0  0  0  0  0  0  0  0  0  0
   27.6134  -20.5227  -13.4473 C   0  0  2  0  0  0  0  0  0  0  0  0
   26.9978  -20.6783  -14.7439 N   0  0  0  0  0  0  0  0  0  0  0  0
   26.7313  -20.9602  -12.3550 C   0  0  0  0  0  0  0  0  0  0  0  0
   25.4754  -21.1273  -12.5185 O   0  0  0  0  0  0  0  0  0  0  0  0
   27.2022  -21.2337  -11.0452 N   0  0  0  0  0  0  0  0  0  0  0  0
   26.2215  -21.6247   -9.9823 C   0  0  1  0  0  0  0  0  0  0  0  0
   27.0585  -21.6763   -8.7304 C   0  0  0  0  0  0  0  0  0  0  0  0
   27.1528  -20.4491   -7.9612 C   0  0  0  0  0  0  0  0  0  0  0  0
   26.5437  -19.2297   -8.0644 C   0  0  0  0  0  0  0  0  0  0  0  0
   26.9572  -18.4174   -7.0583 N   0  0  0  0  0  0  0  0  0  0  0  0
   27.8501  -19.0859   -6.2669 C   0  0  0  0  0  0  0  0  0  0  0  0
   28.5473  -18.7276   -5.1347 C   0  0  0  0  0  0  0  0  0  0  0  0
   29.3899  -19.6146   -4.5182 C   0  0  0  0  0  0  0  0  0  0  0  0
   29.5162  -20.8629   -5.0613 C   0  0  0  0  0  0  0  0  0  0  0  0
   28.8226  -21.2355   -6.1996 C   0  0  0  0  0  0  0  0  0  0  0  0
   27.9661  -20.3396   -6.8298 C   0  0  0  0  0  0  0  0  0  0  0  0
   25.2040  -20.5775   -9.8492 C   0  0  0  0  0  0  0  0  0  0  0  0
   25.4032  -19.4242  -10.2581 O   0  0  0  0  0  0  0  0  0  0  0  0
   23.9913  -20.8655   -9.2561 O   0  0  0  0  0  0  0  0  0  0  0  0
  2  1  1  1
  2  7  1  0
  2  3  1  0
  4  3  1  0
  5  4  1  0
  5  6  2  0
  7  8  2  0
  9  5  1  0
 10 11  1  0
 12 11  1  1
 13 12  1  0
 13  7  1  0
 14 12  1  0
 14 15  2  0
 16 14  1  0
 17 16  1  0
 17 28  1  0
 17 18  1  1
 19 27  1  0
 19 18  1  0
 20 19  2  0
 21 20  1  0
 21 22  1  0
 22 27  2  0
 23 22  1  0
 23 24  2  0
 24 25  1  0
 25 26  2  0
 27 26  1  0
 28 29  2  0
 28 30  1  0
M  END
$$$$
