ESW.pdb
     RDKit          3D

 30 31  0  0  1  0  0  0  0  0999 V2000
   27.7346  -21.0811  -17.7407 N   0  0  0  0  0  0  0  0  0  0  0  0
   28.3438  -21.6560  -16.6189 C   0  0  1  0  0  0  0  0  0  0  0  0
   29.7037  -22.1697  -16.8958 C   0  0  0  0  0  0  0  0  0  0  0  0
   29.8589  -23.2709  -17.8795 C   0  0  0  0  0  0  0  0  0  0  0  0
   28.6510  -23.8564  -18.4443 C   0  0  0  0  0  0  0  0  0  0  0  0
   27.7293  -24.4120  -17.7988 O   0  0  0  0  0  0  0  0  0  0  0  0
   28.3238  -20.7688  -15.4087 C   0  0  0  0  0  0  0  0  0  0  0  0
   28.9850  -19.7051  -15.4491 O   0  0  0  0  0  0  0  0  0  0  0  0
   28.4058  -23.8467  -19.8427 O   0  0  0  0  0  0  0  0  0  0  0  0
   25.8475  -18.2242  -12.7805 O   0  0  0  0  0  0  0  0  0  0  0  0
   26.5828  -18.9373  -13.6746 C   0  0  0  0  0  0  0  0  0  0  0  0
   27.1590  -20.2317  -13.2288 C   0  0  2  0  0  0  0  0  0  0  0  0
   27.5780  -21.1387  -14.2710 N   0  0  0  0  0  0  0  0  0  0  0  0
   26.4169  -20.9157  -12.1592 C   0  0  0  0  0  0  0  0  0  0  0  0
   25.3986  -21.6494  -12.3978 O   0  0  0  0  0  0  0  0  0  0  0  0
   26.7729  -20.8195  -10.7895 N   0  0  0  0  0  0  0  0  0  0  0  0
   25.9422  -21.5317   -9.7663 C   0  0  1  0  0  0  0  0  0  0  0  0
   26.8610  -21.6387   -8.5768 C   0  0  0  0  0  0  0  0  0  0  0  0
   27.1896  -20.3995   -7.8965 C   0  0  0  0  0  0  0  0  0  0  0  0
   26.7546  -19.1110   -8.0348 C   0  0  0  0  0  0  0  0  0  0  0  0
   27.3577  -18.3159   -7.1144 N   0  0  0  0  0  0  0  0  0  0  0  0
   28.2054  -19.0654   -6.3462 C   0  0  0  0  0  0  0  0  0  0  0  0
   29.0334  -18.7537   -5.2909 C   0  0  0  0  0  0  0  0  0  0  0  0
   29.7866  -19.7209   -4.6793 C   0  0  0  0  0  0  0  0  0  0  0  0
   29.6903  -21.0013   -5.1487 C   0  0  0  0  0  0  0  0  0  0  0  0
   28.8634  -21.3280   -6.2094 C   0  0  0  0  0  0  0  0  0  0  0  0
   28.0966  -20.3507   -6.8342 C   0  0  0  0  0  0  0  0  0  0  0  0
   24.7831  -20.7040   -9.4178 C   0  0  0  0  0  0  0  0  0  0  0  0
   24.7023  -19.5191   -9.7734 O   0  0  0  0  0  0  0  0  0  0  0  0
   23.7502  -21.2408   -8.6761 O   0  0  0  0  0  0  0  0  0  0  0  0
  2  1  1  6
  2  7  1  0
  2  3  1  0
  4  3  1  0
  5  4  1  0
  5  6  2  0
  7  8  2  0
  9  5  1  0
 10 11  1  0
 12 11  1  6
 13 12  1  0
 13  7  1  0
 14 12  1  0
 14 15  2  0
 16 14  1  0
 17 16  1  0
 17 28  1  0
 17 18  1  1
 19 27  1  0
 19 18  1  0
 20 19  2  0
 21 20  1  0
 21 22  1  0
 22 27  2  0
 23 22  1  0
 23 24  2  0
 24 25  1  0
 25 26  2  0
 27 26  1  0
 28 29  2  0
 28 30  1  0
M  END
$$$$
