ESW.pdb
     RDKit          3D

 30 31  0  0  1  0  0  0  0  0999 V2000
   21.7397  -13.7483  -17.7546 N   0  0  0  0  0  0  0  0  0  0  0  0
   21.0770  -13.2758  -18.8938 C   0  0  1  0  0  0  0  0  0  0  0  0
   20.4315  -14.3517  -19.6782 C   0  0  0  0  0  0  0  0  0  0  0  0
   20.5910  -15.7555  -19.2215 C   0  0  0  0  0  0  0  0  0  0  0  0
   19.4034  -16.5969  -19.1754 C   0  0  0  0  0  0  0  0  0  0  0  0
   18.9821  -17.2239  -18.1732 O   0  0  0  0  0  0  0  0  0  0  0  0
   20.1238  -12.1528  -18.6068 C   0  0  0  0  0  0  0  0  0  0  0  0
   19.5432  -11.6127  -19.5771 O   0  0  0  0  0  0  0  0  0  0  0  0
   18.5841  -16.7871  -20.3192 O   0  0  0  0  0  0  0  0  0  0  0  0
   17.9446  -11.3804  -14.8906 O   0  0  0  0  0  0  0  0  0  0  0  0
   17.8393  -10.9056  -16.1603 C   0  0  0  0  0  0  0  0  0  0  0  0
   19.0927  -10.6005  -16.8968 C   0  0  2  0  0  0  0  0  0  0  0  0
   19.9022  -11.7330  -17.2794 N   0  0  0  0  0  0  0  0  0  0  0  0
   19.8973   -9.5019  -16.3415 C   0  0  0  0  0  0  0  0  0  0  0  0
   20.9803   -9.7089  -15.6964 O   0  0  0  0  0  0  0  0  0  0  0  0
   19.5399   -8.1363  -16.4812 N   0  0  0  0  0  0  0  0  0  0  0  0
   20.4383   -7.0830  -15.9089 C   0  0  1  0  0  0  0  0  0  0  0  0
   21.7426   -7.2995  -16.6318 C   0  0  0  0  0  0  0  0  0  0  0  0
   22.7595   -6.2790  -16.4562 C   0  0  0  0  0  0  0  0  0  0  0  0
   23.2664   -5.6405  -15.3588 C   0  0  0  0  0  0  0  0  0  0  0  0
   24.2470   -4.7798  -15.7340 N   0  0  0  0  0  0  0  0  0  0  0  0
   24.4091   -4.8329  -17.0910 C   0  0  0  0  0  0  0  0  0  0  0  0
   25.2571   -4.1802  -17.9578 C   0  0  0  0  0  0  0  0  0  0  0  0
   25.2172   -4.4330  -19.3036 C   0  0  0  0  0  0  0  0  0  0  0  0
   24.3113   -5.3510  -19.7573 C   0  0  0  0  0  0  0  0  0  0  0  0
   23.4522   -6.0128  -18.8974 C   0  0  0  0  0  0  0  0  0  0  0  0
   23.4879   -5.7605  -17.5304 C   0  0  0  0  0  0  0  0  0  0  0  0
   19.9077   -5.7571  -16.2410 C   0  0  0  0  0  0  0  0  0  0  0  0
   19.1771   -5.5794  -17.2267 O   0  0  0  0  0  0  0  0  0  0  0  0
   20.2204   -4.6707  -15.4489 O   0  0  0  0  0  0  0  0  0  0  0  0
  2  1  1  1
  2  7  1  0
  2  3  1  0
  4  3  1  0
  5  4  1  0
  5  6  2  0
  7  8  2  0
  9  5  1  0
 10 11  1  0
 12 11  1  1
 13 12  1  0
 13  7  1  0
 14 12  1  0
 14 15  2  0
 16 14  1  0
 17 16  1  0
 17 28  1  0
 17 18  1  6
 19 27  1  0
 19 18  1  0
 20 19  2  0
 21 20  1  0
 21 22  1  0
 22 27  2  0
 23 22  1  0
 23 24  2  0
 24 25  1  0
 25 26  2  0
 27 26  1  0
 28 29  2  0
 28 30  1  0
M  END
$$$$
