ESW.pdb
     RDKit          3D

 30 31  0  0  1  0  0  0  0  0999 V2000
   17.8683  -10.9077  -15.3492 N   0  0  0  0  0  0  0  0  0  0  0  0
   17.7012  -10.8507  -16.7381 C   0  0  1  0  0  0  0  0  0  0  0  0
   16.3262  -11.1836  -17.1718 C   0  0  0  0  0  0  0  0  0  0  0  0
   15.7038  -12.4307  -16.6600 C   0  0  0  0  0  0  0  0  0  0  0  0
   16.5667  -13.5827  -16.4387 C   0  0  0  0  0  0  0  0  0  0  0  0
   17.2764  -13.7885  -15.4244 O   0  0  0  0  0  0  0  0  0  0  0  0
   18.1751   -9.5619  -17.3437 C   0  0  0  0  0  0  0  0  0  0  0  0
   18.0917   -9.4316  -18.5873 O   0  0  0  0  0  0  0  0  0  0  0  0
   16.6819  -14.6192  -17.4021 O   0  0  0  0  0  0  0  0  0  0  0  0
   18.2849   -5.2431  -18.1942 O   0  0  0  0  0  0  0  0  0  0  0  0
   18.0516   -6.5374  -17.8491 C   0  0  0  0  0  0  0  0  0  0  0  0
   19.0419   -7.2149  -16.9735 C   0  0  2  0  0  0  0  0  0  0  0  0
   18.6950   -8.5415  -16.5217 N   0  0  0  0  0  0  0  0  0  0  0  0
   19.5985   -6.3858  -15.8939 C   0  0  0  0  0  0  0  0  0  0  0  0
   18.9580   -6.1543  -14.8131 O   0  0  0  0  0  0  0  0  0  0  0  0
   20.8820   -5.7861  -15.9648 N   0  0  0  0  0  0  0  0  0  0  0  0
   21.3989   -5.0230  -14.7838 C   0  0  1  0  0  0  0  0  0  0  0  0
   22.7874   -5.5740  -14.5866 C   0  0  0  0  0  0  0  0  0  0  0  0
   22.8817   -6.9347  -14.0908 C   0  0  0  0  0  0  0  0  0  0  0  0
   22.1233   -7.6705  -13.2234 C   0  0  0  0  0  0  0  0  0  0  0  0
   22.6238   -8.9282  -13.1207 N   0  0  0  0  0  0  0  0  0  0  0  0
   23.7260   -9.0498  -13.9212 C   0  0  0  0  0  0  0  0  0  0  0  0
   24.5812  -10.0971  -14.1824 C   0  0  0  0  0  0  0  0  0  0  0  0
   25.6267   -9.9497  -15.0555 C   0  0  0  0  0  0  0  0  0  0  0  0
   25.7933   -8.7334  -15.6571 C   0  0  0  0  0  0  0  0  0  0  0  0
   24.9422   -7.6722  -15.4025 C   0  0  0  0  0  0  0  0  0  0  0  0
   23.8794   -7.8157  -14.5173 C   0  0  0  0  0  0  0  0  0  0  0  0
   21.4798   -3.5985  -15.1216 C   0  0  0  0  0  0  0  0  0  0  0  0
   21.9070   -2.7633  -14.3111 O   0  0  0  0  0  0  0  0  0  0  0  0
   21.0739   -3.1606  -16.3661 O   0  0  0  0  0  0  0  0  0  0  0  0
  2  1  1  1
  2  7  1  0
  2  3  1  0
  4  3  1  0
  5  4  1  0
  5  6  2  0
  7  8  2  0
  9  5  1  0
 10 11  1  0
 12 11  1  1
 13 12  1  0
 13  7  1  0
 14 12  1  0
 14 15  2  0
 16 14  1  0
 17 16  1  0
 17 28  1  0
 17 18  1  6
 19 27  1  0
 19 18  1  0
 20 19  2  0
 21 20  1  0
 21 22  1  0
 22 27  2  0
 23 22  1  0
 23 24  2  0
 24 25  1  0
 25 26  2  0
 27 26  1  0
 28 29  2  0
 28 30  1  0
M  END
$$$$
