ESW.pdb
     RDKit          3D

 30 31  0  0  1  0  0  0  0  0999 V2000
   17.4577  -12.0506  -15.0357 N   0  0  0  0  0  0  0  0  0  0  0  0
   18.7176  -11.5344  -15.3618 C   0  0  1  0  0  0  0  0  0  0  0  0
   19.4284  -12.3380  -16.3810 C   0  0  0  0  0  0  0  0  0  0  0  0
   19.1255  -13.7883  -16.4781 C   0  0  0  0  0  0  0  0  0  0  0  0
   19.8907  -14.5828  -17.4288 C   0  0  0  0  0  0  0  0  0  0  0  0
   20.7853  -14.1537  -18.1972 O   0  0  0  0  0  0  0  0  0  0  0  0
   18.6901  -10.0789  -15.7260 C   0  0  0  0  0  0  0  0  0  0  0  0
   19.0897   -9.7514  -16.8677 O   0  0  0  0  0  0  0  0  0  0  0  0
   19.6752  -15.9788  -17.5719 O   0  0  0  0  0  0  0  0  0  0  0  0
   16.9137   -6.9458  -13.0927 O   0  0  0  0  0  0  0  0  0  0  0  0
   17.0473   -6.9614  -14.4456 C   0  0  0  0  0  0  0  0  0  0  0  0
   18.1996   -7.6990  -15.0241 C   0  0  2  0  0  0  0  0  0  0  0  0
   18.2257   -9.1247  -14.7980 N   0  0  0  0  0  0  0  0  0  0  0  0
   19.5151   -7.0766  -14.8129 C   0  0  0  0  0  0  0  0  0  0  0  0
   20.2677   -7.3906  -13.8296 O   0  0  0  0  0  0  0  0  0  0  0  0
   20.0501   -6.0897  -15.6799 N   0  0  0  0  0  0  0  0  0  0  0  0
   21.3231   -5.3963  -15.3017 C   0  0  1  0  0  0  0  0  0  0  0  0
   22.3246   -5.9295  -16.2931 C   0  0  0  0  0  0  0  0  0  0  0  0
   23.6166   -5.2694  -16.3300 C   0  0  0  0  0  0  0  0  0  0  0  0
   24.4580   -4.8022  -15.3591 C   0  0  0  0  0  0  0  0  0  0  0  0
   25.5813   -4.2909  -15.9247 N   0  0  0  0  0  0  0  0  0  0  0  0
   25.5051   -4.4110  -17.2849 C   0  0  0  0  0  0  0  0  0  0  0  0
   26.3640   -4.0639  -18.3039 C   0  0  0  0  0  0  0  0  0  0  0  0
   26.0393   -4.3116  -19.6116 C   0  0  0  0  0  0  0  0  0  0  0  0
   24.8391   -4.9125  -19.8718 C   0  0  0  0  0  0  0  0  0  0  0  0
   23.9660   -5.2650  -18.8574 C   0  0  0  0  0  0  0  0  0  0  0  0
   24.2900   -5.0161  -17.5282 C   0  0  0  0  0  0  0  0  0  0  0  0
   21.1659   -3.9510  -15.4924 C   0  0  0  0  0  0  0  0  0  0  0  0
   22.0126   -3.1464  -15.0769 O   0  0  0  0  0  0  0  0  0  0  0  0
   20.0546   -3.4584  -16.1464 O   0  0  0  0  0  0  0  0  0  0  0  0
  2  1  1  6
  2  7  1  0
  2  3  1  0
  4  3  1  0
  5  4  1  0
  5  6  2  0
  7  8  2  0
  9  5  1  0
 10 11  1  0
 12 11  1  1
 13 12  1  0
 13  7  1  0
 14 12  1  0
 14 15  2  0
 16 14  1  0
 17 16  1  0
 17 28  1  0
 17 18  1  6
 19 27  1  0
 19 18  1  0
 20 19  2  0
 21 20  1  0
 21 22  1  0
 22 27  2  0
 23 22  1  0
 23 24  2  0
 24 25  1  0
 25 26  2  0
 27 26  1  0
 28 29  2  0
 28 30  1  0
M  END
$$$$
