RLS.pdb
     RDKit          3D

 26 25  0  0  1  0  0  0  0  0999 V2000
   30.6134  -25.8927  -16.1838 N   0  0  0  0  0  0  0  0  0  0  0  0
   29.3058  -26.0677  -16.7031 C   0  0  0  0  0  0  0  0  0  0  0  0
   28.6414  -27.1283  -16.4601 N   0  0  0  0  0  0  0  0  0  0  0  0
   28.7196  -25.0507  -17.5073 N   0  0  0  0  0  0  0  0  0  0  0  0
   29.1668  -23.6941  -17.2769 C   0  0  0  0  0  0  0  0  0  0  0  0
   29.0734  -23.4167  -15.7945 C   0  0  0  0  0  0  0  0  0  0  0  0
   28.9772  -21.9404  -15.5354 C   0  0  0  0  0  0  0  0  0  0  0  0
   27.6037  -21.3922  -15.7568 C   0  0  2  0  0  0  0  0  0  0  0  0
   27.6498  -19.9799  -15.9568 N   0  0  0  0  0  0  0  0  0  0  0  0
   26.6432  -21.7988  -14.7035 C   0  0  0  0  0  0  0  0  0  0  0  0
   26.3590  -23.0342  -14.5412 O   0  0  0  0  0  0  0  0  0  0  0  0
   27.6383  -27.2161  -16.7748 C   0  0  0  0  0  0  0  0  0  0  0  0
   24.9293  -21.9126   -9.5644 C   0  0  2  0  0  0  0  0  0  0  0  0
   24.9423  -20.6492  -10.3215 C   0  0  0  0  0  0  0  0  0  0  0  0
   25.4727  -19.5747   -9.3407 C   0  0  0  0  0  0  0  0  0  0  0  0
   25.6211  -20.5495  -11.6099 C   0  0  1  0  0  0  0  0  0  0  0  0
   25.0734  -21.1513  -12.8365 N   0  0  0  0  0  0  0  0  0  0  0  0
   26.0602  -20.7957  -13.8968 C   0  0  0  0  0  0  0  0  0  0  0  0
   23.7926  -20.6458  -13.3454 O   0  0  0  0  0  0  0  0  0  0  0  0
   23.7388  -19.4847  -13.8184 O   0  0  0  0  0  0  0  0  0  0  0  0
   20.6298  -23.0430  -14.4576 C   0  0  0  0  0  0  0  0  0  0  0  0
   20.8043  -21.7782  -14.9642 C   0  0  1  0  0  0  0  0  0  0  0  0
   21.3818  -20.8313  -13.9047 N   0  0  0  0  0  0  0  0  0  0  0  0
   22.5854  -21.3796  -13.3455 C   0  0  0  0  0  0  0  0  0  0  0  0
   20.3882  -20.6058  -12.8279 O   0  0  0  0  0  0  0  0  0  0  0  0
   19.1922  -19.9431  -13.0087 O   0  0  0  0  0  0  0  0  0  0  0  0
  2  4  1  0
  2  1  1  0
  3  2  2  0
  5  6  1  0
  5  4  1  0
  6  7  1  0
  8  7  1  0
  8  9  1  1
 10  8  1  0
 10 17  1  0
 11 10  2  0
 13 12  1  1
 14 13  1  0
 15 13  1  0
 16 15  1  1
 16 17  1  0
 18 16  1  0
 19 18  2  0
 20 21  1  0
 22 23  1  0
 22 21  1  6
 23 18  1  0
 24 22  1  0
 25 24  1  0
 26 24  2  0
M  END
$$$$
