RLS.pdb
     RDKit          3D

 26 25  0  0  1  0  0  0  0  0999 V2000
   27.5705  -15.3162  -19.6028 N   0  0  0  0  0  0  0  0  0  0  0  0
   28.6495  -16.2326  -19.6829 C   0  0  0  0  0  0  0  0  0  0  0  0
   29.6508  -16.0007  -20.4372 N   0  0  0  0  0  0  0  0  0  0  0  0
   28.6224  -17.4298  -18.9143 N   0  0  0  0  0  0  0  0  0  0  0  0
   27.4532  -17.6542  -18.0921 C   0  0  0  0  0  0  0  0  0  0  0  0
   27.9189  -17.9127  -16.6781 C   0  0  0  0  0  0  0  0  0  0  0  0
   26.9573  -18.8146  -15.9586 C   0  0  0  0  0  0  0  0  0  0  0  0
   27.6257  -19.9707  -15.2858 C   0  0  2  0  0  0  0  0  0  0  0  0
   28.2509  -20.8214  -16.2462 N   0  0  0  0  0  0  0  0  0  0  0  0
   26.7248  -20.7008  -14.3625 C   0  0  0  0  0  0  0  0  0  0  0  0
   26.1737  -21.7912  -14.7377 O   0  0  0  0  0  0  0  0  0  0  0  0
   30.5049  -16.6186  -20.3990 C   0  0  0  0  0  0  0  0  0  0  0  0
   25.1942  -22.0627   -9.0607 C   0  0  2  0  0  0  0  0  0  0  0  0
   25.2904  -20.6836   -9.5690 C   0  0  0  0  0  0  0  0  0  0  0  0
   25.8191  -19.8340   -8.3873 C   0  0  0  0  0  0  0  0  0  0  0  0
   26.0288  -20.3807  -10.7912 C   0  0  1  0  0  0  0  0  0  0  0  0
   25.5893  -20.8542  -12.1138 N   0  0  0  0  0  0  0  0  0  0  0  0
   26.4969  -20.1640  -13.0754 C   0  0  0  0  0  0  0  0  0  0  0  0
   24.2390  -20.4968  -12.5655 O   0  0  0  0  0  0  0  0  0  0  0  0
   23.9537  -19.2874  -12.7405 O   0  0  0  0  0  0  0  0  0  0  0  0
   21.3459  -23.2448  -13.9304 C   0  0  0  0  0  0  0  0  0  0  0  0
   21.4119  -21.9519  -14.3898 C   0  0  1  0  0  0  0  0  0  0  0  0
   21.9227  -21.0014  -13.2997 N   0  0  0  0  0  0  0  0  0  0  0  0
   23.2091  -21.4282  -12.8254 C   0  0  0  0  0  0  0  0  0  0  0  0
   20.9628  -20.9591  -12.1708 O   0  0  0  0  0  0  0  0  0  0  0  0
   19.6787  -20.4653  -12.2685 O   0  0  0  0  0  0  0  0  0  0  0  0
  2  4  1  0
  2  1  1  0
  3  2  2  0
  5  6  1  0
  5  4  1  0
  6  7  1  0
  8  7  1  0
  8  9  1  6
 10  8  1  0
 10 17  1  0
 11 10  2  0
 13 12  1  1
 14 13  1  0
 15 13  1  0
 16 15  1  1
 16 17  1  0
 18 16  1  0
 19 18  2  0
 20 21  1  0
 22 23  1  0
 22 21  1  6
 23 18  1  0
 24 22  1  0
 25 24  1  0
 26 24  2  0
M  END
$$$$
