PLM.pdb
     RDKit          3D

 24 24  0  0  1  0  0  0  0  0999 V2000
   27.3330  -19.1670  -15.0269 N   0  0  0  0  0  0  0  0  0  0  0  0
   28.5640  -19.1776  -14.2968 C   0  0  0  0  0  0  0  0  0  0  0  0
   29.3894  -20.1951  -15.0689 C   0  0  0  0  0  0  0  0  0  0  0  0
   28.3419  -21.2098  -15.4751 C   0  0  0  0  0  0  0  0  0  0  0  0
   27.0245  -20.5005  -15.4376 C   0  0  1  0  0  0  0  0  0  0  0  0
   26.0695  -21.1004  -14.4853 C   0  0  0  0  0  0  0  0  0  0  0  0
   25.6570  -22.2807  -14.6283 O   0  0  0  0  0  0  0  0  0  0  0  0
   25.7782  -20.1283   -8.8798 C   0  0  0  0  0  0  0  0  0  0  0  0
   25.8435  -20.7807  -10.2817 C   0  0  1  0  0  0  0  0  0  0  0  0
   25.9106  -22.2706  -10.0241 C   0  0  0  0  0  0  0  0  0  0  0  0
   24.6307  -20.4245  -11.0635 C   0  0  0  0  0  0  0  0  0  0  0  0
   24.5602  -20.8989  -12.4810 C   0  0  2  0  0  0  0  0  0  0  0  0
   25.5572  -20.3872  -13.3515 N   0  0  0  0  0  0  0  0  0  0  0  0
   23.1735  -20.6816  -12.9811 C   0  0  0  0  0  0  0  0  0  0  0  0
   22.7998  -19.4987  -13.1374 O   0  0  0  0  0  0  0  0  0  0  0  0
   17.4134  -22.4190  -17.3278 C   0  0  0  0  0  0  0  0  0  0  0  0
   19.0916  -22.5183  -16.6714 S   0  0  0  0  0  0  0  0  0  0  0  0
   19.0512  -22.8332  -14.8672 C   0  0  0  0  0  0  0  0  0  0  0  0
   20.4442  -22.8427  -14.3327 C   0  0  0  0  0  0  0  0  0  0  0  0
   20.9245  -21.5395  -13.7727 C   0  0  2  0  0  0  0  0  0  0  0  0
   22.2801  -21.7343  -13.2800 N   0  0  0  0  0  0  0  0  0  0  0  0
   20.0494  -21.0925  -12.6574 C   0  0  0  0  0  0  0  0  0  0  0  0
   18.8844  -20.3495  -12.9195 O   0  0  0  0  0  0  0  0  0  0  0  0
   20.2911  -21.3439  -11.4455 O   0  0  0  0  0  0  0  0  0  0  0  0
  2  1  1  0
  3  2  1  0
  4  3  1  0
  4  5  1  0
  5  6  1  1
  5  1  1  0
  6  7  2  0
  9  8  1  1
  9 11  1  0
 10  9  1  0
 12 11  1  1
 13 12  1  0
 13  6  1  0
 14 15  2  0
 14 12  1  0
 16 17  1  0
 18 17  1  0
 18 19  1  0
 20 19  1  1
 20 22  1  0
 20 21  1  0
 21 14  1  0
 22 23  1  0
 24 22  2  0
M  END
$$$$
