PLM.pdb
     RDKit          3D

 24 24  0  0  1  0  0  0  0  0999 V2000
   18.3835  -14.2879  -16.7993 N   0  0  0  0  0  0  0  0  0  0  0  0
   16.9816  -14.5699  -16.8617 C   0  0  0  0  0  0  0  0  0  0  0  0
   16.8178  -15.0835  -18.2837 C   0  0  0  0  0  0  0  0  0  0  0  0
   17.8024  -14.2229  -19.0465 C   0  0  0  0  0  0  0  0  0  0  0  0
   18.8015  -13.7304  -18.0469 C   0  0  1  0  0  0  0  0  0  0  0  0
   18.8388  -12.2587  -17.9407 C   0  0  0  0  0  0  0  0  0  0  0  0
   19.2813  -11.5459  -18.8788 O   0  0  0  0  0  0  0  0  0  0  0  0
   14.7804   -8.9112  -16.5508 C   0  0  0  0  0  0  0  0  0  0  0  0
   16.0902   -9.3851  -17.2255 C   0  0  1  0  0  0  0  0  0  0  0  0
   16.4003   -8.3365  -18.2719 C   0  0  0  0  0  0  0  0  0  0  0  0
   17.1770   -9.4744  -16.2156 C   0  0  0  0  0  0  0  0  0  0  0  0
   18.4487  -10.1462  -16.6290 C   0  0  2  0  0  0  0  0  0  0  0  0
   18.3798  -11.5556  -16.7781 N   0  0  0  0  0  0  0  0  0  0  0  0
   19.5346   -9.7034  -15.7096 C   0  0  0  0  0  0  0  0  0  0  0  0
   19.5340  -10.1770  -14.5524 O   0  0  0  0  0  0  0  0  0  0  0  0
   26.8402  -10.3310  -14.5440 C   0  0  0  0  0  0  0  0  0  0  0  0
   25.3644  -10.3498  -15.5826 S   0  0  0  0  0  0  0  0  0  0  0  0
   24.0803   -9.2464  -14.8829 C   0  0  0  0  0  0  0  0  0  0  0  0
   22.8253   -9.3760  -15.6795 C   0  0  0  0  0  0  0  0  0  0  0  0
   21.7049   -8.4749  -15.2609 C   0  0  2  0  0  0  0  0  0  0  0  0
   20.5449   -8.7889  -16.0820 N   0  0  0  0  0  0  0  0  0  0  0  0
   22.0782   -7.0489  -15.4522 C   0  0  0  0  0  0  0  0  0  0  0  0
   22.7187   -6.3358  -14.4230 O   0  0  0  0  0  0  0  0  0  0  0  0
   21.8498   -6.4109  -16.5157 O   0  0  0  0  0  0  0  0  0  0  0  0
  2  1  1  0
  3  2  1  0
  4  3  1  0
  4  5  1  0
  5  6  1  1
  5  1  1  0
  6  7  2  0
  9  8  1  1
  9 11  1  0
 10  9  1  0
 12 11  1  1
 13 12  1  0
 13  6  1  0
 14 15  2  0
 14 12  1  0
 16 17  1  0
 18 17  1  0
 18 19  1  0
 20 19  1  6
 20 22  1  0
 20 21  1  0
 21 14  1  0
 22 23  1  0
 24 22  2  0
M  END
$$$$
