PLM.pdb
     RDKit          3D

 24 24  0  0  1  0  0  0  0  0999 V2000
   19.4042  -10.4410  -18.7423 N   0  0  0  0  0  0  0  0  0  0  0  0
   19.4395  -11.8601  -18.5588 C   0  0  0  0  0  0  0  0  0  0  0  0
   18.0076  -12.1692  -18.1502 C   0  0  0  0  0  0  0  0  0  0  0  0
   17.6491  -10.9598  -17.3132 C   0  0  0  0  0  0  0  0  0  0  0  0
   18.5763   -9.8620  -17.7316 C   0  0  1  0  0  0  0  0  0  0  0  0
   19.4214   -9.3644  -16.6284 C   0  0  0  0  0  0  0  0  0  0  0  0
   18.9365   -9.1139  -15.4944 O   0  0  0  0  0  0  0  0  0  0  0  0
   24.6932  -10.9227  -15.5353 C   0  0  0  0  0  0  0  0  0  0  0  0
   23.1931  -10.5444  -15.4929 C   0  0  1  0  0  0  0  0  0  0  0  0
   22.7096  -10.9882  -14.1290 C   0  0  0  0  0  0  0  0  0  0  0  0
   23.0353   -9.0769  -15.6678 C   0  0  0  0  0  0  0  0  0  0  0  0
   21.6422   -8.5414  -15.7760 C   0  0  2  0  0  0  0  0  0  0  0  0
   20.8297   -9.1373  -16.7752 N   0  0  0  0  0  0  0  0  0  0  0  0
   21.7162   -7.0571  -15.8847 C   0  0  0  0  0  0  0  0  0  0  0  0
   22.1082   -6.5814  -16.9725 O   0  0  0  0  0  0  0  0  0  0  0  0
   16.4640   -4.0889  -17.1994 C   0  0  0  0  0  0  0  0  0  0  0  0
   17.4885   -3.8415  -15.7344 S   0  0  0  0  0  0  0  0  0  0  0  0
   19.2213   -4.3240  -16.0813 C   0  0  0  0  0  0  0  0  0  0  0  0
   20.0306   -4.2030  -14.8337 C   0  0  0  0  0  0  0  0  0  0  0  0
   21.4294   -4.7302  -14.9237 C   0  0  2  0  0  0  0  0  0  0  0  0
   21.3696   -6.1815  -14.8317 N   0  0  0  0  0  0  0  0  0  0  0  0
   22.2645   -4.1957  -13.8162 C   0  0  0  0  0  0  0  0  0  0  0  0
   22.5915   -2.8287  -13.7660 O   0  0  0  0  0  0  0  0  0  0  0  0
   22.7174   -4.9132  -12.8833 O   0  0  0  0  0  0  0  0  0  0  0  0
  2  1  1  0
  3  2  1  0
  4  3  1  0
  4  5  1  0
  5  6  1  1
  5  1  1  0
  6  7  2  0
  9  8  1  1
  9 11  1  0
 10  9  1  0
 12 11  1  6
 13 12  1  0
 13  6  1  0
 14 15  2  0
 14 12  1  0
 16 17  1  0
 18 17  1  0
 18 19  1  0
 20 19  1  1
 20 22  1  0
 20 21  1  0
 21 14  1  0
 22 23  1  0
 24 22  2  0
M  END
$$$$
