PLM.pdb
     RDKit          3D

 24 24  0  0  1  0  0  0  0  0999 V2000
   10.5685  -18.3490    1.0768 N   0  0  0  0  0  0  0  0  0  0  0  0
   10.3880  -16.9442    1.2828 C   0  0  0  0  0  0  0  0  0  0  0  0
   11.0173  -16.3501    0.0323 C   0  0  0  0  0  0  0  0  0  0  0  0
   12.1821  -17.2861   -0.2111 C   0  0  0  0  0  0  0  0  0  0  0  0
   11.8481  -18.5707    0.4804 C   0  0  1  0  0  0  0  0  0  0  0  0
   12.8224  -18.9364    1.5272 C   0  0  0  0  0  0  0  0  0  0  0  0
   12.6783  -18.5540    2.7175 O   0  0  0  0  0  0  0  0  0  0  0  0
   15.7117  -22.1718    4.5098 C   0  0  0  0  0  0  0  0  0  0  0  0
   16.4289  -21.9727    3.1529 C   0  0  1  0  0  0  0  0  0  0  0  0
   17.0018  -23.3293    2.8033 C   0  0  0  0  0  0  0  0  0  0  0  0
   15.4543  -21.5201    2.1260 C   0  0  0  0  0  0  0  0  0  0  0  0
   14.9177  -20.1288    2.2508 C   0  0  2  0  0  0  0  0  0  0  0  0
   13.9797  -19.7398    1.2596 N   0  0  0  0  0  0  0  0  0  0  0  0
   16.0686  -19.1904    2.3735 C   0  0  0  0  0  0  0  0  0  0  0  0
   16.7003  -18.9191    1.3292 O   0  0  0  0  0  0  0  0  0  0  0  0
   18.6514  -12.3211    3.2880 C   0  0  0  0  0  0  0  0  0  0  0  0
   17.3844  -13.6032    3.3769 S   0  0  0  0  0  0  0  0  0  0  0  0
   18.1570  -15.2438    3.6367 C   0  0  0  0  0  0  0  0  0  0  0  0
   17.1123  -16.3053    3.5476 C   0  0  0  0  0  0  0  0  0  0  0  0
   17.6050  -17.7067    3.7370 C   0  0  2  0  0  0  0  0  0  0  0  0
   16.4690  -18.6056    3.5956 N   0  0  0  0  0  0  0  0  0  0  0  0
   18.2068  -17.8743    5.0858 C   0  0  0  0  0  0  0  0  0  0  0  0
   19.4439  -17.2800    5.3930 O   0  0  0  0  0  0  0  0  0  0  0  0
   17.6620  -18.5395    6.0082 O   0  0  0  0  0  0  0  0  0  0  0  0
  2  1  1  0
  3  2  1  0
  4  3  1  0
  4  5  1  0
  5  6  1  1
  5  1  1  0
  6  7  2  0
  9  8  1  1
  9 11  1  0
 10  9  1  0
 12 11  1  6
 13 12  1  0
 13  6  1  0
 14 15  2  0
 14 12  1  0
 16 17  1  0
 18 17  1  0
 18 19  1  0
 20 19  1  1
 20 22  1  0
 20 21  1  0
 21 14  1  0
 22 23  1  0
 24 22  2  0
M  END
$$$$
