PLM.pdb
     RDKit          3D

 24 24  0  0  1  0  0  0  0  0999 V2000
   23.6837  -12.9788  -15.5367 N   0  0  0  0  0  0  0  0  0  0  0  0
   23.3253  -14.0130  -16.4591 C   0  0  0  0  0  0  0  0  0  0  0  0
   24.5177  -14.0326  -17.4028 C   0  0  0  0  0  0  0  0  0  0  0  0
   24.8830  -12.5655  -17.4817 C   0  0  0  0  0  0  0  0  0  0  0  0
   24.3260  -11.9209  -16.2512 C   0  0  1  0  0  0  0  0  0  0  0  0
   23.3441  -10.8591  -16.5462 C   0  0  0  0  0  0  0  0  0  0  0  0
   23.5915   -9.9536  -17.3845 O   0  0  0  0  0  0  0  0  0  0  0  0
   17.6966  -11.6048  -16.6621 C   0  0  0  0  0  0  0  0  0  0  0  0
   19.1364  -11.1846  -17.0436 C   0  0  1  0  0  0  0  0  0  0  0  0
   19.0149  -10.5446  -18.4097 C   0  0  0  0  0  0  0  0  0  0  0  0
   19.6648  -10.2204  -16.0435 C   0  0  0  0  0  0  0  0  0  0  0  0
   21.0923   -9.7942  -16.1842 C   0  0  2  0  0  0  0  0  0  0  0  0
   22.0627  -10.7915  -15.9061 N   0  0  0  0  0  0  0  0  0  0  0  0
   21.2895   -8.5445  -15.3969 C   0  0  0  0  0  0  0  0  0  0  0  0
   21.2821   -8.6455  -14.1507 O   0  0  0  0  0  0  0  0  0  0  0  0
   25.5527   -3.9319  -16.8389 C   0  0  0  0  0  0  0  0  0  0  0  0
   24.0814   -2.9345  -16.5260 S   0  0  0  0  0  0  0  0  0  0  0  0
   22.9174   -3.8415  -15.4405 C   0  0  0  0  0  0  0  0  0  0  0  0
   22.5755   -5.1533  -16.0638 C   0  0  0  0  0  0  0  0  0  0  0  0
   21.7113   -6.0513  -15.2335 C   0  0  2  0  0  0  0  0  0  0  0  0
   21.4804   -7.2751  -15.9867 N   0  0  0  0  0  0  0  0  0  0  0  0
   20.4099   -5.3984  -14.9344 C   0  0  0  0  0  0  0  0  0  0  0  0
   20.2553   -4.6144  -13.7771 O   0  0  0  0  0  0  0  0  0  0  0  0
   19.3961   -5.5048  -15.6768 O   0  0  0  0  0  0  0  0  0  0  0  0
  2  1  1  0
  3  2  1  0
  4  3  1  0
  4  5  1  0
  5  6  1  6
  5  1  1  0
  6  7  2  0
  9  8  1  1
  9 11  1  0
 10  9  1  0
 12 11  1  1
 13 12  1  0
 13  6  1  0
 14 15  2  0
 14 12  1  0
 16 17  1  0
 18 17  1  0
 18 19  1  0
 20 19  1  6
 20 22  1  0
 20 21  1  0
 21 14  1  0
 22 23  1  0
 24 22  2  0
M  END
$$$$
