ALG.pdb
     RDKit          3D

 18 17  0  0  1  0  0  0  0  0999 V2000
   12.3324  -12.3401  -12.1816 C   0  0  0  0  0  0  0  0  0  0  0  0
   13.3492  -11.4791  -12.9011 C   0  0  2  0  0  0  0  0  0  0  0  0
   14.6914  -12.0055  -12.7612 N   0  0  0  0  0  0  0  0  0  0  0  0
   13.3093  -10.1283  -12.2717 C   0  0  0  0  0  0  0  0  0  0  0  0
   12.2522   -9.4778  -12.1923 O   0  0  0  0  0  0  0  0  0  0  0  0
   15.6671   -6.8611   -7.7523 C   0  0  0  0  0  0  0  0  0  0  0  0
   14.8984   -6.8735   -9.0963 C   0  0  2  0  0  0  0  0  0  0  0  0
   13.4646   -6.5499   -8.7306 C   0  0  0  0  0  0  0  0  0  0  0  0
   15.0081   -8.2494   -9.7201 C   0  0  0  0  0  0  0  0  0  0  0  0
   14.5901   -8.2839  -11.1682 C   0  0  2  0  0  0  0  0  0  0  0  0
   14.4796   -9.5625  -11.7523 N   0  0  0  0  0  0  0  0  0  0  0  0
   15.6124   -7.5330  -11.9221 C   0  0  0  0  0  0  0  0  0  0  0  0
   16.7851   -7.9712  -11.9703 O   0  0  0  0  0  0  0  0  0  0  0  0
   15.3177   -6.3135  -12.6072 N   0  0  0  0  0  0  0  0  0  0  0  0
   16.3244   -5.6517  -13.3753 C   0  0  0  0  0  0  0  0  0  0  0  0
   16.6849   -4.3372  -12.7673 C   0  0  0  0  0  0  0  0  0  0  0  0
   17.6695   -3.5428  -13.3287 O   0  0  0  0  0  0  0  0  0  0  0  0
   16.0810   -3.9615  -11.7374 O   0  0  0  0  0  0  0  0  0  0  0  0
  2  3  1  0
  2  1  1  1
  4  2  1  0
  5  4  2  0
  7  6  1  1
  7  8  1  0
  9  7  1  0
 10  9  1  1
 10 12  1  0
 10 11  1  0
 11  4  1  0
 12 14  1  0
 13 12  2  0
 14 15  1  0
 15 16  1  0
 16 18  2  0
 16 17  1  0
M  END
$$$$
