ALG.pdb
     RDKit          3D

 18 17  0  0  1  0  0  0  0  0999 V2000
   28.7398  -20.4742  -14.0748 C   0  0  0  0  0  0  0  0  0  0  0  0
   27.4246  -19.8967  -13.5958 C   0  0  2  0  0  0  0  0  0  0  0  0
   27.5824  -18.5452  -13.0991 N   0  0  0  0  0  0  0  0  0  0  0  0
   26.9478  -20.7542  -12.4734 C   0  0  0  0  0  0  0  0  0  0  0  0
   26.9138  -21.9937  -12.5698 O   0  0  0  0  0  0  0  0  0  0  0  0
   28.1570  -21.3603   -8.3500 C   0  0  0  0  0  0  0  0  0  0  0  0
   27.3911  -20.0319   -8.5650 C   0  0  2  0  0  0  0  0  0  0  0  0
   27.5268  -19.2849   -7.2543 C   0  0  0  0  0  0  0  0  0  0  0  0
   25.9402  -20.3380   -8.8741 C   0  0  0  0  0  0  0  0  0  0  0  0
   25.7131  -20.7801  -10.2974 C   0  0  2  0  0  0  0  0  0  0  0  0
   26.5244  -20.1680  -11.2748 N   0  0  0  0  0  0  0  0  0  0  0  0
   24.3079  -20.4655  -10.6195 C   0  0  0  0  0  0  0  0  0  0  0  0
   23.9280  -19.2716  -10.6096 O   0  0  0  0  0  0  0  0  0  0  0  0
   23.3514  -21.4765  -10.9459 N   0  0  0  0  0  0  0  0  0  0  0  0
   21.9953  -21.1273  -11.2297 C   0  0  0  0  0  0  0  0  0  0  0  0
   21.7212  -21.1901  -12.6954 C   0  0  0  0  0  0  0  0  0  0  0  0
   20.5005  -20.7844  -13.2063 O   0  0  0  0  0  0  0  0  0  0  0  0
   22.6155  -21.6170  -13.4601 O   0  0  0  0  0  0  0  0  0  0  0  0
  2  3  1  0
  2  1  1  1
  4  2  1  0
  5  4  2  0
  7  6  1  1
  7  8  1  0
  9  7  1  0
 10  9  1  1
 10 12  1  0
 10 11  1  0
 11  4  1  0
 12 14  1  0
 13 12  2  0
 14 15  1  0
 15 16  1  0
 16 18  2  0
 16 17  1  0
M  END
$$$$
