NFE.pdb
     RDKit          3D

 29 29  0  0  1  0  0  0  0  0999 V2000
   11.2017  -17.2866   16.9761 N   0  0  0  0  0  0  0  0  0  0  0  0
   10.6456  -17.8319   18.1510 C   0  0  0  0  0  0  0  0  0  0  0  0
   10.1189  -18.9708   18.1000 O   0  0  0  0  0  0  0  0  0  0  0  0
   10.6853  -17.0679   19.4199 C   0  0  0  0  0  0  0  0  0  0  0  0
    9.4092  -17.2970   20.1694 C   0  0  2  0  0  0  0  0  0  0  0  0
    8.2361  -17.0847   19.3593 N   0  0  0  0  0  0  0  0  0  0  0  0
    9.4216  -16.4478   21.3800 C   0  0  0  0  0  0  0  0  0  0  0  0
   10.5159  -15.9903   21.7910 O   0  0  0  0  0  0  0  0  0  0  0  0
    8.2579  -16.1070   22.1243 N   0  0  0  0  0  0  0  0  0  0  0  0
    8.3774  -15.3188   23.3410 C   0  0  1  0  0  0  0  0  0  0  0  0
    7.0881  -14.5770   23.6360 C   0  0  0  0  0  0  0  0  0  0  0  0
    7.2493  -13.8335   24.9127 C   0  0  0  0  0  0  0  0  0  0  0  0
    7.9074  -12.6106   24.9595 C   0  0  0  0  0  0  0  0  0  0  0  0
    8.0617  -11.9083   26.1343 C   0  0  0  0  0  0  0  0  0  0  0  0
    7.5608  -12.4012   27.3264 C   0  0  0  0  0  0  0  0  0  0  0  0
    6.9075  -13.6139   27.2823 C   0  0  0  0  0  0  0  0  0  0  0  0
    6.7502  -14.3257   26.0965 C   0  0  0  0  0  0  0  0  0  0  0  0
    8.7769  -16.1906   24.4665 C   0  0  0  0  0  0  0  0  0  0  0  0
    8.0607  -17.2077   24.7509 O   0  0  0  0  0  0  0  0  0  0  0  0
    9.9232  -15.9657   25.2626 N   0  0  0  0  0  0  0  0  0  0  0  0
   10.4404  -16.9243   26.2475 C   0  0  1  0  0  0  0  0  0  0  0  0
   11.7562  -17.4478   25.8179 C   0  0  0  0  0  0  0  0  0  0  0  0
   12.4658  -18.3975   26.6893 C   0  0  0  0  0  0  0  0  0  0  0  0
   13.7804  -18.8690   26.2274 C   0  0  0  0  0  0  0  0  0  0  0  0
   14.8029  -18.1440   26.2651 O   0  0  0  0  0  0  0  0  0  0  0  0
   10.3099  -16.5393   27.6164 C   0  0  0  0  0  0  0  0  0  0  0  0
   10.1774  -17.4146   28.6819 O   0  0  0  0  0  0  0  0  0  0  0  0
   13.9243  -20.1563   25.7273 O   0  0  0  0  0  0  0  0  0  0  0  0
   10.3012  -15.3002   27.9236 O   0  0  0  0  0  0  0  0  0  0  0  0
  2  3  2  0
  2  1  1  0
  4  2  1  0
  5  6  1  6
  5  4  1  0
  7  5  1  0
  8  7  2  0
  9  7  1  0
 10 18  1  0
 10  9  1  0
 10 11  1  1
 12 11  1  0
 12 13  2  0
 14 13  1  0
 15 14  2  0
 16 17  2  0
 16 15  1  0
 17 12  1  0
 18 19  2  0
 20 21  1  0
 20 18  1  0
 21 22  1  6
 23 22  1  0
 24 23  1  0
 25 24  2  0
 26 27  1  0
 26 21  1  0
 28 24  1  0
 29 26  2  0
M  END
$$$$
