NFE.pdb
     RDKit          3D

 29 29  0  0  1  0  0  0  0  0999 V2000
   10.3295  -16.5335   14.3756 N   0  0  0  0  0  0  0  0  0  0  0  0
   10.4887  -15.1518   14.6045 C   0  0  0  0  0  0  0  0  0  0  0  0
   10.4870  -14.3706   13.6211 O   0  0  0  0  0  0  0  0  0  0  0  0
   10.6551  -14.6381   15.9842 C   0  0  0  0  0  0  0  0  0  0  0  0
   10.7260  -15.7953   16.9322 C   0  0  2  0  0  0  0  0  0  0  0  0
    9.5585  -16.6388   16.8770 N   0  0  0  0  0  0  0  0  0  0  0  0
   10.9797  -15.2691   18.2908 C   0  0  0  0  0  0  0  0  0  0  0  0
   12.0361  -14.6263   18.5067 O   0  0  0  0  0  0  0  0  0  0  0  0
   10.0931  -15.4440   19.3897 N   0  0  0  0  0  0  0  0  0  0  0  0
   10.5304  -15.1136   20.7370 C   0  0  1  0  0  0  0  0  0  0  0  0
    9.3435  -14.9168   21.6601 C   0  0  0  0  0  0  0  0  0  0  0  0
    8.4245  -13.9227   21.0470 C   0  0  0  0  0  0  0  0  0  0  0  0
    7.3994  -14.3146   20.1947 C   0  0  0  0  0  0  0  0  0  0  0  0
    6.5378  -13.4055   19.6216 C   0  0  0  0  0  0  0  0  0  0  0  0
    6.6632  -12.0512   19.8767 C   0  0  0  0  0  0  0  0  0  0  0  0
    7.6792  -11.6602   20.7219 C   0  0  0  0  0  0  0  0  0  0  0  0
    8.5512  -12.5769   21.3024 C   0  0  0  0  0  0  0  0  0  0  0  0
   11.4459  -16.1610   21.2385 C   0  0  0  0  0  0  0  0  0  0  0  0
   11.5009  -17.2822   20.6320 O   0  0  0  0  0  0  0  0  0  0  0  0
   12.2800  -15.9966   22.3679 N   0  0  0  0  0  0  0  0  0  0  0  0
   13.7460  -16.0719   22.3244 C   0  0  1  0  0  0  0  0  0  0  0  0
   14.2628  -15.3933   21.1152 C   0  0  0  0  0  0  0  0  0  0  0  0
   15.2905  -16.0648   20.3039 C   0  0  0  0  0  0  0  0  0  0  0  0
   15.9460  -15.2594   19.2620 C   0  0  0  0  0  0  0  0  0  0  0  0
   15.5493  -14.1100   18.9557 O   0  0  0  0  0  0  0  0  0  0  0  0
   14.4181  -15.8060   23.5559 C   0  0  0  0  0  0  0  0  0  0  0  0
   13.8281  -15.2625   24.6853 O   0  0  0  0  0  0  0  0  0  0  0  0
   17.0438  -15.7634   18.5775 O   0  0  0  0  0  0  0  0  0  0  0  0
   15.6632  -16.0672   23.6626 O   0  0  0  0  0  0  0  0  0  0  0  0
  2  3  2  0
  2  1  1  0
  4  2  1  0
  5  6  1  1
  5  4  1  0
  7  5  1  0
  8  7  2  0
  9  7  1  0
 10 18  1  0
 10  9  1  0
 10 11  1  1
 12 11  1  0
 12 13  2  0
 14 13  1  0
 15 14  2  0
 16 17  2  0
 16 15  1  0
 17 12  1  0
 18 19  2  0
 20 21  1  0
 20 18  1  0
 21 22  1  6
 23 22  1  0
 24 23  1  0
 25 24  2  0
 26 27  1  0
 26 21  1  0
 28 24  1  0
 29 26  2  0
M  END
$$$$
