NFE.pdb
     RDKit          3D

 29 29  0  0  1  0  0  0  0  0999 V2000
   10.9663  -16.6662   17.3154 N   0  0  0  0  0  0  0  0  0  0  0  0
    9.6439  -16.5951   17.7980 C   0  0  0  0  0  0  0  0  0  0  0  0
    8.7603  -17.2994   17.2499 O   0  0  0  0  0  0  0  0  0  0  0  0
    9.3103  -15.7021   18.9323 C   0  0  0  0  0  0  0  0  0  0  0  0
    9.2795  -16.5059   20.1955 C   0  0  2  0  0  0  0  0  0  0  0  0
    8.2677  -17.5324   20.1835 N   0  0  0  0  0  0  0  0  0  0  0  0
    9.1280  -15.5759   21.3353 C   0  0  0  0  0  0  0  0  0  0  0  0
    8.9444  -14.3557   21.1046 O   0  0  0  0  0  0  0  0  0  0  0  0
    9.1765  -15.9758   22.6999 N   0  0  0  0  0  0  0  0  0  0  0  0
    8.9087  -15.0075   23.7517 C   0  0  1  0  0  0  0  0  0  0  0  0
    7.4883  -14.4845   23.6592 C   0  0  0  0  0  0  0  0  0  0  0  0
    7.2067  -13.6591   24.8626 C   0  0  0  0  0  0  0  0  0  0  0  0
    6.3649  -14.1133   25.8705 C   0  0  0  0  0  0  0  0  0  0  0  0
    6.0969  -13.3614   26.9931 C   0  0  0  0  0  0  0  0  0  0  0  0
    6.6634  -12.1100   27.1604 C   0  0  0  0  0  0  0  0  0  0  0  0
    7.4988  -11.6575   26.1620 C   0  0  0  0  0  0  0  0  0  0  0  0
    7.7712  -12.4153   25.0266 C   0  0  0  0  0  0  0  0  0  0  0  0
    9.1841  -15.6123   25.0726 C   0  0  0  0  0  0  0  0  0  0  0  0
    8.3295  -16.4114   25.5818 O   0  0  0  0  0  0  0  0  0  0  0  0
   10.3556  -15.3574   25.8216 N   0  0  0  0  0  0  0  0  0  0  0  0
   10.9595  -16.3177   26.7542 C   0  0  1  0  0  0  0  0  0  0  0  0
   12.4026  -16.4782   26.4685 C   0  0  0  0  0  0  0  0  0  0  0  0
   12.9711  -15.8287   25.2768 C   0  0  0  0  0  0  0  0  0  0  0  0
   14.3826  -16.1120   24.9749 C   0  0  0  0  0  0  0  0  0  0  0  0
   14.9821  -15.5760   24.0127 O   0  0  0  0  0  0  0  0  0  0  0  0
   10.5803  -16.1757   28.1236 C   0  0  0  0  0  0  0  0  0  0  0  0
    9.7580  -15.1796   28.6242 O   0  0  0  0  0  0  0  0  0  0  0  0
   15.1010  -16.9994   25.7650 O   0  0  0  0  0  0  0  0  0  0  0  0
   11.0196  -17.0065   28.9877 O   0  0  0  0  0  0  0  0  0  0  0  0
  2  3  2  0
  2  1  1  0
  4  2  1  0
  5  6  1  6
  5  4  1  0
  7  5  1  0
  8  7  2  0
  9  7  1  0
 10 18  1  0
 10  9  1  0
 10 11  1  1
 12 11  1  0
 12 13  2  0
 14 13  1  0
 15 14  2  0
 16 17  2  0
 16 15  1  0
 17 12  1  0
 18 19  2  0
 20 21  1  0
 20 18  1  0
 21 22  1  1
 23 22  1  0
 24 23  1  0
 25 24  2  0
 26 27  1  0
 26 21  1  0
 28 24  1  0
 29 26  2  0
M  END
$$$$
