NFE.pdb
     RDKit          3D

 29 29  0  0  1  0  0  0  0  0999 V2000
   11.4213  -17.4002   16.8934 N   0  0  0  0  0  0  0  0  0  0  0  0
   10.2624  -17.0409   17.6108 C   0  0  0  0  0  0  0  0  0  0  0  0
    9.1425  -17.4049   17.1742 O   0  0  0  0  0  0  0  0  0  0  0  0
   10.3721  -16.2471   18.8570 C   0  0  0  0  0  0  0  0  0  0  0  0
    9.7506  -17.0147   19.9828 C   0  0  2  0  0  0  0  0  0  0  0  0
    8.4627  -17.5657   19.6431 N   0  0  0  0  0  0  0  0  0  0  0  0
    9.6941  -16.1352   21.1703 C   0  0  0  0  0  0  0  0  0  0  0  0
   10.7672  -15.7160   21.6685 O   0  0  0  0  0  0  0  0  0  0  0  0
    8.4854  -15.7238   21.7984 N   0  0  0  0  0  0  0  0  0  0  0  0
    8.5307  -14.9977   23.0579 C   0  0  1  0  0  0  0  0  0  0  0  0
    7.2523  -14.2122   23.2778 C   0  0  0  0  0  0  0  0  0  0  0  0
    7.3621  -13.4767   24.5646 C   0  0  0  0  0  0  0  0  0  0  0  0
    6.6224  -13.8539   25.6788 C   0  0  0  0  0  0  0  0  0  0  0  0
    6.7158  -13.1843   26.8788 C   0  0  0  0  0  0  0  0  0  0  0  0
    7.5605  -12.0974   27.0207 C   0  0  0  0  0  0  0  0  0  0  0  0
    8.2953  -11.7216   25.9169 C   0  0  0  0  0  0  0  0  0  0  0  0
    8.2028  -12.3965   24.7031 C   0  0  0  0  0  0  0  0  0  0  0  0
    8.7940  -15.9366   24.1694 C   0  0  0  0  0  0  0  0  0  0  0  0
    8.0298  -16.9464   24.3256 O   0  0  0  0  0  0  0  0  0  0  0  0
    9.8584  -15.7847   25.0872 N   0  0  0  0  0  0  0  0  0  0  0  0
   10.3508  -16.8589   25.9592 C   0  0  1  0  0  0  0  0  0  0  0  0
   11.6948  -17.3014   25.5258 C   0  0  0  0  0  0  0  0  0  0  0  0
   12.3616  -18.3860   26.2633 C   0  0  0  0  0  0  0  0  0  0  0  0
   13.6939  -18.7911   25.7891 C   0  0  0  0  0  0  0  0  0  0  0  0
   14.6442  -19.0170   26.5755 O   0  0  0  0  0  0  0  0  0  0  0  0
   10.1519  -16.6621   27.3595 C   0  0  0  0  0  0  0  0  0  0  0  0
   10.0089  -17.6740   28.2946 O   0  0  0  0  0  0  0  0  0  0  0  0
   13.9369  -18.9363   24.4299 O   0  0  0  0  0  0  0  0  0  0  0  0
   10.0858  -15.4752   27.8251 O   0  0  0  0  0  0  0  0  0  0  0  0
  2  3  2  0
  2  1  1  0
  4  2  1  0
  5  6  1  6
  5  4  1  0
  7  5  1  0
  8  7  2  0
  9  7  1  0
 10 18  1  0
 10  9  1  0
 10 11  1  1
 12 11  1  0
 12 13  2  0
 14 13  1  0
 15 14  2  0
 16 17  2  0
 16 15  1  0
 17 12  1  0
 18 19  2  0
 20 21  1  0
 20 18  1  0
 21 22  1  1
 23 22  1  0
 24 23  1  0
 25 24  2  0
 26 27  1  0
 26 21  1  0
 28 24  1  0
 29 26  2  0
M  END
$$$$
