NFE.pdb
     RDKit          3D

 29 29  0  0  1  0  0  0  0  0999 V2000
   11.7283  -20.1780   20.3878 N   0  0  0  0  0  0  0  0  0  0  0  0
   10.5449  -19.4274   20.5394 C   0  0  0  0  0  0  0  0  0  0  0  0
    9.5882  -19.6394   19.7539 O   0  0  0  0  0  0  0  0  0  0  0  0
   10.4397  -18.4076   21.6090 C   0  0  0  0  0  0  0  0  0  0  0  0
    9.9327  -17.1285   21.0177 C   0  0  2  0  0  0  0  0  0  0  0  0
   10.7793  -16.6210   19.9674 N   0  0  0  0  0  0  0  0  0  0  0  0
    9.7432  -16.1526   22.1126 C   0  0  0  0  0  0  0  0  0  0  0  0
   10.7541  -15.6507   22.6619 O   0  0  0  0  0  0  0  0  0  0  0  0
    8.4712  -15.7355   22.5947 N   0  0  0  0  0  0  0  0  0  0  0  0
    8.3852  -14.7810   23.6889 C   0  0  1  0  0  0  0  0  0  0  0  0
    7.0514  -14.0595   23.6763 C   0  0  0  0  0  0  0  0  0  0  0  0
    7.0121  -13.1137   24.8220 C   0  0  0  0  0  0  0  0  0  0  0  0
    6.2336  -13.3688   25.9443 C   0  0  0  0  0  0  0  0  0  0  0  0
    6.1894  -12.5036   27.0151 C   0  0  0  0  0  0  0  0  0  0  0  0
    6.9281  -11.3334   27.0124 C   0  0  0  0  0  0  0  0  0  0  0  0
    7.7012  -11.0784   25.9003 C   0  0  0  0  0  0  0  0  0  0  0  0
    7.7476  -11.9511   24.8169 C   0  0  0  0  0  0  0  0  0  0  0  0
    8.6226  -15.4698   24.9756 C   0  0  0  0  0  0  0  0  0  0  0  0
    8.6417  -14.7867   26.0532 O   0  0  0  0  0  0  0  0  0  0  0  0
    8.8333  -16.8628   25.0908 N   0  0  0  0  0  0  0  0  0  0  0  0
    8.9991  -17.5656   26.3696 C   0  0  1  0  0  0  0  0  0  0  0  0
    8.0732  -18.7172   26.4505 C   0  0  0  0  0  0  0  0  0  0  0  0
    8.0910  -19.5646   27.6532 C   0  0  0  0  0  0  0  0  0  0  0  0
    7.2332  -20.7594   27.6374 C   0  0  0  0  0  0  0  0  0  0  0  0
    6.1585  -20.8035   26.9927 O   0  0  0  0  0  0  0  0  0  0  0  0
   10.3469  -17.7852   26.7872 C   0  0  0  0  0  0  0  0  0  0  0  0
   10.7702  -17.8702   28.1034 O   0  0  0  0  0  0  0  0  0  0  0  0
    7.6005  -21.8921   28.3515 O   0  0  0  0  0  0  0  0  0  0  0  0
   11.2655  -17.9091   25.9093 O   0  0  0  0  0  0  0  0  0  0  0  0
  2  3  2  0
  2  1  1  0
  4  2  1  0
  5  6  1  6
  5  4  1  0
  7  5  1  0
  8  7  2  0
  9  7  1  0
 10 18  1  0
 10  9  1  0
 10 11  1  1
 12 11  1  0
 12 13  2  0
 14 13  1  0
 15 14  2  0
 16 17  2  0
 16 15  1  0
 17 12  1  0
 18 19  2  0
 20 21  1  0
 20 18  1  0
 21 22  1  6
 23 22  1  0
 24 23  1  0
 25 24  2  0
 26 27  1  0
 26 21  1  0
 28 24  1  0
 29 26  2  0
M  END
$$$$
