NFE.pdb
     RDKit          3D

 29 29  0  0  1  0  0  0  0  0999 V2000
   10.5188  -18.3756   17.5695 N   0  0  0  0  0  0  0  0  0  0  0  0
    9.9454  -18.6035   18.8369 C   0  0  0  0  0  0  0  0  0  0  0  0
    9.2996  -19.6635   19.0279 O   0  0  0  0  0  0  0  0  0  0  0  0
   10.1060  -17.6045   19.9193 C   0  0  0  0  0  0  0  0  0  0  0  0
    8.7521  -17.1803   20.3986 C   0  0  2  0  0  0  0  0  0  0  0  0
    7.9848  -16.5013   19.3848 N   0  0  0  0  0  0  0  0  0  0  0  0
    8.9254  -16.3629   21.6188 C   0  0  0  0  0  0  0  0  0  0  0  0
    9.9973  -15.7298   21.7797 O   0  0  0  0  0  0  0  0  0  0  0  0
    7.9434  -16.2420   22.6412 N   0  0  0  0  0  0  0  0  0  0  0  0
    8.1743  -15.3549   23.7706 C   0  0  1  0  0  0  0  0  0  0  0  0
    6.8632  -14.9210   24.3969 C   0  0  0  0  0  0  0  0  0  0  0  0
    7.1541  -13.9485   25.4824 C   0  0  0  0  0  0  0  0  0  0  0  0
    7.4439  -14.3714   26.7740 C   0  0  0  0  0  0  0  0  0  0  0  0
    7.7188  -13.4824   27.7896 C   0  0  0  0  0  0  0  0  0  0  0  0
    7.7164  -12.1181   27.5580 C   0  0  0  0  0  0  0  0  0  0  0  0
    7.4294  -11.6965   26.2776 C   0  0  0  0  0  0  0  0  0  0  0  0
    7.1513  -12.5927   25.2495 C   0  0  0  0  0  0  0  0  0  0  0  0
    9.0588  -16.0150   24.7546 C   0  0  0  0  0  0  0  0  0  0  0  0
    8.7619  -17.1832   25.1733 O   0  0  0  0  0  0  0  0  0  0  0  0
   10.2346  -15.4239   25.2707 N   0  0  0  0  0  0  0  0  0  0  0  0
   11.1920  -16.1216   26.1386 C   0  0  1  0  0  0  0  0  0  0  0  0
   12.5782  -15.8730   25.6842 C   0  0  0  0  0  0  0  0  0  0  0  0
   13.2598  -16.8979   24.8778 C   0  0  0  0  0  0  0  0  0  0  0  0
   14.6119  -16.5747   24.3969 C   0  0  0  0  0  0  0  0  0  0  0  0
   15.3025  -17.3911   23.7420 O   0  0  0  0  0  0  0  0  0  0  0  0
   10.9414  -16.0273   27.5413 C   0  0  0  0  0  0  0  0  0  0  0  0
   11.6038  -16.7500   28.5201 O   0  0  0  0  0  0  0  0  0  0  0  0
   15.1684  -15.3307   24.6623 O   0  0  0  0  0  0  0  0  0  0  0  0
   10.0376  -15.2326   27.9672 O   0  0  0  0  0  0  0  0  0  0  0  0
  2  3  2  0
  2  1  1  0
  4  2  1  0
  5  6  1  6
  5  4  1  0
  7  5  1  0
  8  7  2  0
  9  7  1  0
 10 18  1  0
 10  9  1  0
 10 11  1  1
 12 11  1  0
 12 13  2  0
 14 13  1  0
 15 14  2  0
 16 17  2  0
 16 15  1  0
 17 12  1  0
 18 19  2  0
 20 21  1  0
 20 18  1  0
 21 22  1  1
 23 22  1  0
 24 23  1  0
 25 24  2  0
 26 27  1  0
 26 21  1  0
 28 24  1  0
 29 26  2  0
M  END
$$$$
