NFE.pdb
     RDKit          3D

 29 29  0  0  1  0  0  0  0  0999 V2000
    9.3553  -18.6138   18.1684 N   0  0  0  0  0  0  0  0  0  0  0  0
    9.6323  -19.1991   19.4205 C   0  0  0  0  0  0  0  0  0  0  0  0
    9.6976  -20.4505   19.5030 O   0  0  0  0  0  0  0  0  0  0  0  0
    9.8410  -18.3457   20.6135 C   0  0  0  0  0  0  0  0  0  0  0  0
    9.5223  -16.9254   20.2613 C   0  0  2  0  0  0  0  0  0  0  0  0
   10.4432  -16.3638   19.3052 N   0  0  0  0  0  0  0  0  0  0  0  0
    9.4565  -16.1393   21.5121 C   0  0  0  0  0  0  0  0  0  0  0  0
   10.4966  -16.0055   22.2020 O   0  0  0  0  0  0  0  0  0  0  0  0
    8.2745  -15.5124   21.9962 N   0  0  0  0  0  0  0  0  0  0  0  0
    8.2894  -14.8211   23.2759 C   0  0  1  0  0  0  0  0  0  0  0  0
    7.0142  -14.0258   23.4780 C   0  0  0  0  0  0  0  0  0  0  0  0
    7.0627  -13.3825   24.8169 C   0  0  0  0  0  0  0  0  0  0  0  0
    7.8755  -12.2823   25.0618 C   0  0  0  0  0  0  0  0  0  0  0  0
    7.9287  -11.6734   26.2961 C   0  0  0  0  0  0  0  0  0  0  0  0
    7.1651  -12.1410   27.3512 C   0  0  0  0  0  0  0  0  0  0  0  0
    6.3581  -13.2320   27.1105 C   0  0  0  0  0  0  0  0  0  0  0  0
    6.3024  -13.8492   25.8641 C   0  0  0  0  0  0  0  0  0  0  0  0
    8.5072  -15.7930   24.3688 C   0  0  0  0  0  0  0  0  0  0  0  0
    7.7801  -16.8400   24.4249 O   0  0  0  0  0  0  0  0  0  0  0  0
    9.4880  -15.6337   25.3743 N   0  0  0  0  0  0  0  0  0  0  0  0
    9.8739  -16.6888   26.3199 C   0  0  1  0  0  0  0  0  0  0  0  0
   10.8883  -17.5801   25.7144 C   0  0  0  0  0  0  0  0  0  0  0  0
   11.3784  -18.7325   26.4869 C   0  0  0  0  0  0  0  0  0  0  0  0
   12.4015  -19.5744   25.8479 C   0  0  0  0  0  0  0  0  0  0  0  0
   13.3559  -20.0726   26.4911 O   0  0  0  0  0  0  0  0  0  0  0  0
   10.1013  -16.2647   27.6644 C   0  0  0  0  0  0  0  0  0  0  0  0
   10.1690  -17.1037   28.7647 O   0  0  0  0  0  0  0  0  0  0  0  0
   12.3341  -19.8437   24.4875 O   0  0  0  0  0  0  0  0  0  0  0  0
   10.2501  -15.0219   27.9157 O   0  0  0  0  0  0  0  0  0  0  0  0
  2  3  2  0
  2  1  1  0
  4  2  1  0
  5  6  1  6
  5  4  1  0
  7  5  1  0
  8  7  2  0
  9  7  1  0
 10 18  1  0
 10  9  1  0
 10 11  1  1
 12 11  1  0
 12 13  2  0
 14 13  1  0
 15 14  2  0
 16 17  2  0
 16 15  1  0
 17 12  1  0
 18 19  2  0
 20 21  1  0
 20 18  1  0
 21 22  1  6
 23 22  1  0
 24 23  1  0
 25 24  2  0
 26 27  1  0
 26 21  1  0
 28 24  1  0
 29 26  2  0
M  END
$$$$
