NFE.pdb
     RDKit          3D

 29 29  0  0  1  0  0  0  0  0999 V2000
    7.7305  -15.3944   18.3030 N   0  0  0  0  0  0  0  0  0  0  0  0
    7.9483  -14.1254   18.8766 C   0  0  0  0  0  0  0  0  0  0  0  0
    7.9157  -13.1120   18.1355 O   0  0  0  0  0  0  0  0  0  0  0  0
    8.2111  -13.9980   20.3291 C   0  0  0  0  0  0  0  0  0  0  0  0
    8.1571  -15.3563   20.9574 C   0  0  2  0  0  0  0  0  0  0  0  0
    6.8522  -15.9627   20.8727 N   0  0  0  0  0  0  0  0  0  0  0  0
    8.6390  -15.2440   22.3510 C   0  0  0  0  0  0  0  0  0  0  0  0
    9.7422  -14.6866   22.5701 O   0  0  0  0  0  0  0  0  0  0  0  0
    7.9256  -15.7325   23.4810 N   0  0  0  0  0  0  0  0  0  0  0  0
    8.4917  -15.5952   24.8138 C   0  0  1  0  0  0  0  0  0  0  0  0
    7.3992  -15.4479   25.8550 C   0  0  0  0  0  0  0  0  0  0  0  0
    7.1636  -14.0003   26.0950 C   0  0  0  0  0  0  0  0  0  0  0  0
    8.2189  -13.1205   26.3032 C   0  0  0  0  0  0  0  0  0  0  0  0
    8.0166  -11.7759   26.5236 C   0  0  0  0  0  0  0  0  0  0  0  0
    6.7388  -11.2452   26.5460 C   0  0  0  0  0  0  0  0  0  0  0  0
    5.6907  -12.1160   26.3396 C   0  0  0  0  0  0  0  0  0  0  0  0
    5.8923  -13.4751   26.1167 C   0  0  0  0  0  0  0  0  0  0  0  0
    9.3740  -16.7454   25.1053 C   0  0  0  0  0  0  0  0  0  0  0  0
    8.8748  -17.9191   25.1430 O   0  0  0  0  0  0  0  0  0  0  0  0
   10.7613  -16.6260   25.3494 N   0  0  0  0  0  0  0  0  0  0  0  0
   11.6224  -17.7428   25.7590 C   0  0  1  0  0  0  0  0  0  0  0  0
   13.0264  -17.4825   25.3705 C   0  0  0  0  0  0  0  0  0  0  0  0
   13.2981  -16.7477   24.1250 C   0  0  0  0  0  0  0  0  0  0  0  0
   14.7102  -16.5154   23.7848 C   0  0  0  0  0  0  0  0  0  0  0  0
   15.1866  -15.3628   23.6546 O   0  0  0  0  0  0  0  0  0  0  0  0
   11.3958  -18.2515   27.0740 C   0  0  0  0  0  0  0  0  0  0  0  0
   10.5250  -17.7040   28.0018 O   0  0  0  0  0  0  0  0  0  0  0  0
   15.5686  -17.5901   23.5952 O   0  0  0  0  0  0  0  0  0  0  0  0
   12.0330  -19.2855   27.4672 O   0  0  0  0  0  0  0  0  0  0  0  0
  2  3  2  0
  2  1  1  0
  4  2  1  0
  5  6  1  1
  5  4  1  0
  7  5  1  0
  8  7  2  0
  9  7  1  0
 10 18  1  0
 10  9  1  0
 10 11  1  1
 12 11  1  0
 12 13  2  0
 14 13  1  0
 15 14  2  0
 16 17  2  0
 16 15  1  0
 17 12  1  0
 18 19  2  0
 20 21  1  0
 20 18  1  0
 21 22  1  1
 23 22  1  0
 24 23  1  0
 25 24  2  0
 26 27  1  0
 26 21  1  0
 28 24  1  0
 29 26  2  0
M  END
$$$$
