NFE.pdb
     RDKit          3D

 29 29  0  0  1  0  0  0  0  0999 V2000
   12.2885  -17.9077   18.1885 N   0  0  0  0  0  0  0  0  0  0  0  0
   11.0813  -17.2044   18.3758 C   0  0  0  0  0  0  0  0  0  0  0  0
   10.1575  -17.3528   17.5381 O   0  0  0  0  0  0  0  0  0  0  0  0
   10.9136  -16.3073   19.5430 C   0  0  0  0  0  0  0  0  0  0  0  0
   10.0839  -17.0014   20.5787 C   0  0  2  0  0  0  0  0  0  0  0  0
    8.8176  -17.4625   20.0673 N   0  0  0  0  0  0  0  0  0  0  0  0
    9.9297  -16.0939   21.7362 C   0  0  0  0  0  0  0  0  0  0  0  0
   10.9583  -15.6471   22.3001 O   0  0  0  0  0  0  0  0  0  0  0  0
    8.6734  -15.6846   22.2640 N   0  0  0  0  0  0  0  0  0  0  0  0
    8.6166  -14.9382   23.5111 C   0  0  1  0  0  0  0  0  0  0  0  0
    7.2817  -14.2348   23.6624 C   0  0  0  0  0  0  0  0  0  0  0  0
    7.2907  -13.4672   24.9349 C   0  0  0  0  0  0  0  0  0  0  0  0
    6.5213  -13.8612   26.0229 C   0  0  0  0  0  0  0  0  0  0  0  0
    6.5218  -13.1621   27.2097 C   0  0  0  0  0  0  0  0  0  0  0  0
    7.2983  -12.0271   27.3641 C   0  0  0  0  0  0  0  0  0  0  0  0
    8.0623  -11.6345   26.2863 C   0  0  0  0  0  0  0  0  0  0  0  0
    8.0637  -12.3392   25.0859 C   0  0  0  0  0  0  0  0  0  0  0  0
    8.8915  -15.8410   24.6494 C   0  0  0  0  0  0  0  0  0  0  0  0
    8.0522  -16.7595   24.9323 O   0  0  0  0  0  0  0  0  0  0  0  0
   10.0464  -15.7503   25.4595 N   0  0  0  0  0  0  0  0  0  0  0  0
   10.3751  -16.6996   26.5306 C   0  0  1  0  0  0  0  0  0  0  0  0
   11.5374  -17.5310   26.1460 C   0  0  0  0  0  0  0  0  0  0  0  0
   12.5556  -16.9630   25.2484 C   0  0  0  0  0  0  0  0  0  0  0  0
   13.6884  -17.8320   24.8940 C   0  0  0  0  0  0  0  0  0  0  0  0
   14.6619  -18.0103   25.6641 O   0  0  0  0  0  0  0  0  0  0  0  0
   10.3671  -16.1675   27.8558 C   0  0  0  0  0  0  0  0  0  0  0  0
   10.1956  -14.8311   28.1775 O   0  0  0  0  0  0  0  0  0  0  0  0
   13.7078  -18.4900   23.6716 O   0  0  0  0  0  0  0  0  0  0  0  0
   10.5370  -16.9508   28.8495 O   0  0  0  0  0  0  0  0  0  0  0  0
  2  3  2  0
  2  1  1  0
  4  2  1  0
  5  6  1  6
  5  4  1  0
  7  5  1  0
  8  7  2  0
  9  7  1  0
 10 18  1  0
 10  9  1  0
 10 11  1  1
 12 11  1  0
 12 13  2  0
 14 13  1  0
 15 14  2  0
 16 17  2  0
 16 15  1  0
 17 12  1  0
 18 19  2  0
 20 21  1  0
 20 18  1  0
 21 22  1  6
 23 22  1  0
 24 23  1  0
 25 24  2  0
 26 27  1  0
 26 21  1  0
 28 24  1  0
 29 26  2  0
M  END
$$$$
