NFE.pdb
     RDKit          3D

 29 29  0  0  1  0  0  0  0  0999 V2000
    7.9750  -17.4005   16.8322 N   0  0  0  0  0  0  0  0  0  0  0  0
    8.9300  -17.4300   17.8684 C   0  0  0  0  0  0  0  0  0  0  0  0
    9.7576  -18.3740   17.9029 O   0  0  0  0  0  0  0  0  0  0  0  0
    8.9501  -16.3623   18.8955 C   0  0  0  0  0  0  0  0  0  0  0  0
    9.1824  -16.9804   20.2397 C   0  0  2  0  0  0  0  0  0  0  0  0
    8.3066  -18.0941   20.5046 N   0  0  0  0  0  0  0  0  0  0  0  0
    9.0744  -15.9198   21.2646 C   0  0  0  0  0  0  0  0  0  0  0  0
    9.8743  -14.9532   21.2264 O   0  0  0  0  0  0  0  0  0  0  0  0
    8.1087  -15.9191   22.3095 N   0  0  0  0  0  0  0  0  0  0  0  0
    8.1119  -14.8562   23.3024 C   0  0  1  0  0  0  0  0  0  0  0  0
    6.7325  -14.6716   23.9046 C   0  0  0  0  0  0  0  0  0  0  0  0
    6.8273  -13.6915   25.0178 C   0  0  0  0  0  0  0  0  0  0  0  0
    6.6565  -14.0808   26.3408 C   0  0  0  0  0  0  0  0  0  0  0  0
    6.7448  -13.1848   27.3833 C   0  0  0  0  0  0  0  0  0  0  0  0
    7.0100  -11.8471   27.1484 C   0  0  0  0  0  0  0  0  0  0  0  0
    7.1799  -11.4589   25.8369 C   0  0  0  0  0  0  0  0  0  0  0  0
    7.0912  -12.3622   24.7816 C   0  0  0  0  0  0  0  0  0  0  0  0
    9.1278  -15.1404   24.3386 C   0  0  0  0  0  0  0  0  0  0  0  0
    9.3588  -14.2673   25.2400 O   0  0  0  0  0  0  0  0  0  0  0  0
    9.8734  -16.3400   24.3960 N   0  0  0  0  0  0  0  0  0  0  0  0
   10.8892  -16.6279   25.4167 C   0  0  1  0  0  0  0  0  0  0  0  0
   10.4259  -17.7070   26.3172 C   0  0  0  0  0  0  0  0  0  0  0  0
   11.3155  -18.1691   27.3943 C   0  0  0  0  0  0  0  0  0  0  0  0
   10.8300  -19.2809   28.2264 C   0  0  0  0  0  0  0  0  0  0  0  0
   11.4862  -19.7263   29.1977 O   0  0  0  0  0  0  0  0  0  0  0  0
   12.2357  -16.7064   24.9477 C   0  0  0  0  0  0  0  0  0  0  0  0
   12.6109  -16.8744   23.6248 O   0  0  0  0  0  0  0  0  0  0  0  0
    9.6069  -19.8771   27.9503 O   0  0  0  0  0  0  0  0  0  0  0  0
   13.1984  -16.6290   25.7825 O   0  0  0  0  0  0  0  0  0  0  0  0
  2  3  2  0
  2  1  1  0
  4  2  1  0
  5  6  1  1
  5  4  1  0
  7  5  1  0
  8  7  2  0
  9  7  1  0
 10 18  1  0
 10  9  1  0
 10 11  1  1
 12 11  1  0
 12 13  2  0
 14 13  1  0
 15 14  2  0
 16 17  2  0
 16 15  1  0
 17 12  1  0
 18 19  2  0
 20 21  1  0
 20 18  1  0
 21 22  1  6
 23 22  1  0
 24 23  1  0
 25 24  2  0
 26 27  1  0
 26 21  1  0
 28 24  1  0
 29 26  2  0
M  END
$$$$
