MDK.pdb
     RDKit          3D

 26 25  0  0  1  0  0  0  0  0999 V2000
    8.5001  -12.4706   19.6866 C   0  0  0  0  0  0  0  0  0  0  0  0
    7.0100  -13.1132   20.4947 S   0  0  0  0  0  0  0  0  0  0  0  0
    6.6145  -14.7507   19.8473 C   0  0  0  0  0  0  0  0  0  0  0  0
    7.2664  -15.8471   20.6726 C   0  0  0  0  0  0  0  0  0  0  0  0
    8.7313  -15.5674   20.8987 C   0  0  2  0  0  0  0  0  0  0  0  0
    9.3331  -15.4380   19.5845 N   0  0  0  0  0  0  0  0  0  0  0  0
    9.3971  -16.5676   21.7311 C   0  0  0  0  0  0  0  0  0  0  0  0
    8.6927  -17.2726   22.4968 O   0  0  0  0  0  0  0  0  0  0  0  0
   10.7954  -16.7992   21.7314 N   0  0  0  0  0  0  0  0  0  0  0  0
   11.4584  -17.8043   22.5314 C   0  0  1  0  0  0  0  0  0  0  0  0
   12.9517  -17.7539   22.1963 C   0  0  0  0  0  0  0  0  0  0  0  0
   13.2433  -18.1894   20.8317 C   0  0  0  0  0  0  0  0  0  0  0  0
   13.0329  -19.3111   20.3375 O   0  0  0  0  0  0  0  0  0  0  0  0
   11.2545  -17.5670   23.9925 C   0  0  0  0  0  0  0  0  0  0  0  0
   11.6869  -16.5601   24.5812 O   0  0  0  0  0  0  0  0  0  0  0  0
   13.8231  -17.2441   19.9817 O   0  0  0  0  0  0  0  0  0  0  0  0
   10.5280  -18.5657   24.6955 N   0  0  0  0  0  0  0  0  0  0  0  0
   10.3365  -18.6133   26.1249 C   0  0  1  0  0  0  0  0  0  0  0  0
    9.5436  -19.8283   26.4314 C   0  0  0  0  0  0  0  0  0  0  0  0
    8.3688  -19.6745   27.3190 C   0  0  0  0  0  0  0  0  0  0  0  0
    7.5210  -20.9031   27.4623 C   0  0  0  0  0  0  0  0  0  0  0  0
    6.4072  -20.5908   28.4630 C   0  0  0  0  0  0  0  0  0  0  0  0
    5.6154  -21.7972   28.6173 N   0  0  0  0  0  0  0  0  0  0  0  0
   11.5996  -18.4888   26.9039 C   0  0  0  0  0  0  0  0  0  0  0  0
   12.8150  -18.7717   26.3020 O   0  0  0  0  0  0  0  0  0  0  0  0
   11.5963  -18.1370   28.0854 O   0  0  0  0  0  0  0  0  0  0  0  0
  2  1  1  0
  3  2  1  0
  4  3  1  0
  4  5  1  0
  5  6  1  6
  5  7  1  0
  7  8  2  0
  9  7  1  0
  9 10  1  0
 10 11  1  1
 11 12  1  0
 12 13  2  0
 14 10  1  0
 14 15  2  0
 16 12  1  0
 17 14  1  0
 18 17  1  0
 18 24  1  0
 18 19  1  6
 20 19  1  0
 21 20  1  0
 22 21  1  0
 23 22  1  0
 24 26  2  0
 24 25  1  0
M  END
$$$$
