MDK.pdb
     RDKit          3D

 26 25  0  0  1  0  0  0  0  0999 V2000
    7.2964  -11.8385   21.3478 C   0  0  0  0  0  0  0  0  0  0  0  0
    7.3733  -12.1820   19.5694 S   0  0  0  0  0  0  0  0  0  0  0  0
    7.6050  -13.9502   19.2921 C   0  0  0  0  0  0  0  0  0  0  0  0
    8.2908  -14.6132   20.4747 C   0  0  0  0  0  0  0  0  0  0  0  0
    8.4587  -16.0957   20.2521 C   0  0  2  0  0  0  0  0  0  0  0  0
    7.1355  -16.6222   19.9729 N   0  0  0  0  0  0  0  0  0  0  0  0
    9.1203  -16.7830   21.3594 C   0  0  0  0  0  0  0  0  0  0  0  0
    8.4079  -17.2567   22.2801 O   0  0  0  0  0  0  0  0  0  0  0  0
   10.5234  -16.9545   21.4648 N   0  0  0  0  0  0  0  0  0  0  0  0
   11.2051  -17.4113   22.6549 C   0  0  1  0  0  0  0  0  0  0  0  0
   12.6834  -17.5962   22.3012 C   0  0  0  0  0  0  0  0  0  0  0  0
   12.8893  -18.5053   21.1752 C   0  0  0  0  0  0  0  0  0  0  0  0
   13.4973  -18.2680   20.1165 O   0  0  0  0  0  0  0  0  0  0  0  0
   11.0667  -16.4347   23.7772 C   0  0  0  0  0  0  0  0  0  0  0  0
   11.2778  -15.2160   23.6435 O   0  0  0  0  0  0  0  0  0  0  0  0
   12.3451  -19.7866   21.2954 O   0  0  0  0  0  0  0  0  0  0  0  0
   10.6742  -16.9722   25.0327 N   0  0  0  0  0  0  0  0  0  0  0  0
   10.2067  -16.2072   26.1634 C   0  0  1  0  0  0  0  0  0  0  0  0
    9.1410  -15.2967   25.6796 C   0  0  0  0  0  0  0  0  0  0  0  0
    8.8253  -14.1101   26.5067 C   0  0  0  0  0  0  0  0  0  0  0  0
    7.7403  -13.2307   25.9606 C   0  0  0  0  0  0  0  0  0  0  0  0
    7.4731  -12.1250   26.9831 C   0  0  0  0  0  0  0  0  0  0  0  0
    6.3806  -11.3188   26.4707 N   0  0  0  0  0  0  0  0  0  0  0  0
    9.8193  -17.0424   27.3339 C   0  0  0  0  0  0  0  0  0  0  0  0
   10.2356  -16.6865   28.6065 O   0  0  0  0  0  0  0  0  0  0  0  0
    9.1299  -18.0560   27.2027 O   0  0  0  0  0  0  0  0  0  0  0  0
  2  1  1  0
  3  2  1  0
  4  3  1  0
  4  5  1  0
  5  6  1  1
  5  7  1  0
  7  8  2  0
  9  7  1  0
  9 10  1  0
 10 11  1  6
 11 12  1  0
 12 13  2  0
 14 10  1  0
 14 15  2  0
 16 12  1  0
 17 14  1  0
 18 17  1  0
 18 24  1  0
 18 19  1  6
 20 19  1  0
 21 20  1  0
 22 21  1  0
 23 22  1  0
 24 26  2  0
 24 25  1  0
M  END
$$$$
