MDK.pdb
     RDKit          3D

 26 25  0  0  1  0  0  0  0  0999 V2000
    7.6252  -12.3962   28.0879 C   0  0  0  0  0  0  0  0  0  0  0  0
    6.3601  -11.9471   26.8695 S   0  0  0  0  0  0  0  0  0  0  0  0
    5.9458  -13.3801   25.8537 C   0  0  0  0  0  0  0  0  0  0  0  0
    7.1783  -14.2078   25.5309 C   0  0  0  0  0  0  0  0  0  0  0  0
    6.8287  -15.4077   24.6862 C   0  0  2  0  0  0  0  0  0  0  0  0
    5.9029  -16.2058   25.4685 N   0  0  0  0  0  0  0  0  0  0  0  0
    7.9937  -16.1678   24.2376 C   0  0  0  0  0  0  0  0  0  0  0  0
    8.3289  -17.1884   24.8898 O   0  0  0  0  0  0  0  0  0  0  0  0
    8.7766  -15.8294   23.1054 N   0  0  0  0  0  0  0  0  0  0  0  0
    9.9064  -16.5973   22.6324 C   0  0  1  0  0  0  0  0  0  0  0  0
   10.2950  -16.0515   21.2556 C   0  0  0  0  0  0  0  0  0  0  0  0
   11.3594  -16.8239   20.6174 C   0  0  0  0  0  0  0  0  0  0  0  0
   11.9272  -17.8365   21.0636 O   0  0  0  0  0  0  0  0  0  0  0  0
   11.0680  -16.4997   23.5671 C   0  0  0  0  0  0  0  0  0  0  0  0
   11.6700  -15.4339   23.7891 O   0  0  0  0  0  0  0  0  0  0  0  0
   11.7918  -16.3807   19.3648 O   0  0  0  0  0  0  0  0  0  0  0  0
   11.4634  -17.7060   24.2057 N   0  0  0  0  0  0  0  0  0  0  0  0
   12.6107  -17.8619   25.0669 C   0  0  1  0  0  0  0  0  0  0  0  0
   12.4190  -19.1069   25.8491 C   0  0  0  0  0  0  0  0  0  0  0  0
   11.4128  -19.0864   26.9348 C   0  0  0  0  0  0  0  0  0  0  0  0
   11.1687  -20.4110   27.5941 C   0  0  0  0  0  0  0  0  0  0  0  0
   10.1022  -20.2095   28.6718 C   0  0  0  0  0  0  0  0  0  0  0  0
    9.9168  -21.4850   29.3387 N   0  0  0  0  0  0  0  0  0  0  0  0
   13.9139  -17.7782   24.3509 C   0  0  0  0  0  0  0  0  0  0  0  0
   15.0749  -17.5058   25.0560 O   0  0  0  0  0  0  0  0  0  0  0  0
   13.9917  -17.9459   23.1321 O   0  0  0  0  0  0  0  0  0  0  0  0
  2  1  1  0
  3  2  1  0
  4  3  1  0
  4  5  1  0
  5  6  1  1
  5  7  1  0
  7  8  2  0
  9  7  1  0
  9 10  1  0
 10 11  1  6
 11 12  1  0
 12 13  2  0
 14 10  1  0
 14 15  2  0
 16 12  1  0
 17 14  1  0
 18 17  1  0
 18 24  1  0
 18 19  1  6
 20 19  1  0
 21 20  1  0
 22 21  1  0
 23 22  1  0
 24 26  2  0
 24 25  1  0
M  END
$$$$
