MDK.pdb
     RDKit          3D

 26 25  0  0  1  0  0  0  0  0999 V2000
    6.1739  -11.0607   26.5548 C   0  0  0  0  0  0  0  0  0  0  0  0
    7.2231  -12.4261   25.9877 S   0  0  0  0  0  0  0  0  0  0  0  0
    6.5042  -14.0046   26.4862 C   0  0  0  0  0  0  0  0  0  0  0  0
    7.4274  -15.1651   26.1554 C   0  0  0  0  0  0  0  0  0  0  0  0
    7.3144  -15.5608   24.7042 C   0  0  2  0  0  0  0  0  0  0  0  0
    5.9894  -16.1278   24.5343 N   0  0  0  0  0  0  0  0  0  0  0  0
    8.3772  -16.4594   24.2577 C   0  0  0  0  0  0  0  0  0  0  0  0
    8.3993  -17.6311   24.7117 O   0  0  0  0  0  0  0  0  0  0  0  0
    9.3924  -16.0957   23.3377 N   0  0  0  0  0  0  0  0  0  0  0  0
   10.6010  -16.8554   23.1100 C   0  0  1  0  0  0  0  0  0  0  0  0
   11.3462  -16.2032   21.9421 C   0  0  0  0  0  0  0  0  0  0  0  0
   12.5249  -16.9607   21.5256 C   0  0  0  0  0  0  0  0  0  0  0  0
   13.6524  -16.5113   21.2542 O   0  0  0  0  0  0  0  0  0  0  0  0
   11.4729  -16.8786   24.3231 C   0  0  0  0  0  0  0  0  0  0  0  0
   12.1117  -15.8861   24.7163 O   0  0  0  0  0  0  0  0  0  0  0  0
   12.3753  -18.3458   21.4187 O   0  0  0  0  0  0  0  0  0  0  0  0
   11.5416  -18.1130   25.0236 N   0  0  0  0  0  0  0  0  0  0  0  0
   12.3398  -18.3672   26.1986 C   0  0  1  0  0  0  0  0  0  0  0  0
   11.5400  -19.2224   27.1083 C   0  0  0  0  0  0  0  0  0  0  0  0
   12.1935  -19.7066   28.3453 C   0  0  0  0  0  0  0  0  0  0  0  0
   11.3531  -20.6195   29.1873 C   0  0  0  0  0  0  0  0  0  0  0  0
   12.1725  -21.0091   30.4187 C   0  0  0  0  0  0  0  0  0  0  0  0
   11.3004  -21.7710   31.2934 N   0  0  0  0  0  0  0  0  0  0  0  0
   13.7007  -18.8917   25.8972 C   0  0  0  0  0  0  0  0  0  0  0  0
   13.8792  -19.8046   24.8705 O   0  0  0  0  0  0  0  0  0  0  0  0
   14.6873  -18.5333   26.5436 O   0  0  0  0  0  0  0  0  0  0  0  0
  2  1  1  0
  3  2  1  0
  4  3  1  0
  4  5  1  0
  5  6  1  1
  5  7  1  0
  7  8  2  0
  9  7  1  0
  9 10  1  0
 10 11  1  6
 11 12  1  0
 12 13  2  0
 14 10  1  0
 14 15  2  0
 16 12  1  0
 17 14  1  0
 18 17  1  0
 18 24  1  0
 18 19  1  1
 20 19  1  0
 21 20  1  0
 22 21  1  0
 23 22  1  0
 24 26  2  0
 24 25  1  0
M  END
$$$$
