MDK.pdb
     RDKit          3D

 26 25  0  0  1  0  0  0  0  0999 V2000
    8.5593  -11.9081   26.5525 C   0  0  0  0  0  0  0  0  0  0  0  0
    6.8596  -12.3641   26.1172 S   0  0  0  0  0  0  0  0  0  0  0  0
    6.8414  -13.9778   25.3094 C   0  0  0  0  0  0  0  0  0  0  0  0
    7.3095  -13.8828   23.8671 C   0  0  0  0  0  0  0  0  0  0  0  0
    7.2620  -15.2269   23.1843 C   0  0  2  0  0  0  0  0  0  0  0  0
    5.9352  -15.7636   23.4241 N   0  0  0  0  0  0  0  0  0  0  0  0
    8.3261  -16.1360   23.6059 C   0  0  0  0  0  0  0  0  0  0  0  0
    8.0518  -17.0273   24.4484 O   0  0  0  0  0  0  0  0  0  0  0  0
    9.6576  -16.0808   23.1228 N   0  0  0  0  0  0  0  0  0  0  0  0
   10.6832  -17.0498   23.4373 C   0  0  1  0  0  0  0  0  0  0  0  0
   11.8942  -16.7487   22.5499 C   0  0  0  0  0  0  0  0  0  0  0  0
   11.6621  -17.0699   21.1429 C   0  0  0  0  0  0  0  0  0  0  0  0
   10.9774  -18.0021   20.6857 O   0  0  0  0  0  0  0  0  0  0  0  0
   11.0768  -16.9865   24.8773 C   0  0  0  0  0  0  0  0  0  0  0  0
   11.6039  -15.9836   25.3911 O   0  0  0  0  0  0  0  0  0  0  0  0
   12.2749  -16.2401   20.2003 O   0  0  0  0  0  0  0  0  0  0  0  0
   10.8163  -18.1494   25.6512 N   0  0  0  0  0  0  0  0  0  0  0  0
   11.2779  -18.3809   26.9986 C   0  0  1  0  0  0  0  0  0  0  0  0
   10.5870  -19.5897   27.5086 C   0  0  0  0  0  0  0  0  0  0  0  0
   11.0005  -20.1088   28.8319 C   0  0  0  0  0  0  0  0  0  0  0  0
   10.3938  -21.4270   29.2104 C   0  0  0  0  0  0  0  0  0  0  0  0
   10.9231  -21.8073   30.5941 C   0  0  0  0  0  0  0  0  0  0  0  0
   10.2575  -23.0353   30.9877 N   0  0  0  0  0  0  0  0  0  0  0  0
   12.7612  -18.4187   27.1263 C   0  0  0  0  0  0  0  0  0  0  0  0
   13.3836  -17.7509   28.1685 O   0  0  0  0  0  0  0  0  0  0  0  0
   13.4621  -19.0346   26.3207 O   0  0  0  0  0  0  0  0  0  0  0  0
  2  1  1  0
  3  2  1  0
  4  3  1  0
  4  5  1  0
  5  6  1  1
  5  7  1  0
  7  8  2  0
  9  7  1  0
  9 10  1  0
 10 11  1  6
 11 12  1  0
 12 13  2  0
 14 10  1  0
 14 15  2  0
 16 12  1  0
 17 14  1  0
 18 17  1  0
 18 24  1  0
 18 19  1  6
 20 19  1  0
 21 20  1  0
 22 21  1  0
 23 22  1  0
 24 26  2  0
 24 25  1  0
M  END
$$$$
