MDK.pdb
     RDKit          3D

 26 25  0  0  1  0  0  0  0  0999 V2000
    7.7574  -11.7100   26.3882 C   0  0  0  0  0  0  0  0  0  0  0  0
    6.0187  -12.1846   26.1926 S   0  0  0  0  0  0  0  0  0  0  0  0
    5.8575  -13.9806   26.2654 C   0  0  0  0  0  0  0  0  0  0  0  0
    7.1011  -14.6724   25.7331 C   0  0  0  0  0  0  0  0  0  0  0  0
    6.7532  -15.6938   24.6791 C   0  0  2  0  0  0  0  0  0  0  0  0
    5.8980  -16.6740   25.3225 N   0  0  0  0  0  0  0  0  0  0  0  0
    7.9210  -16.2945   24.0373 C   0  0  0  0  0  0  0  0  0  0  0  0
    8.5273  -17.2150   24.6409 O   0  0  0  0  0  0  0  0  0  0  0  0
    8.4188  -15.9065   22.7681 N   0  0  0  0  0  0  0  0  0  0  0  0
    9.6768  -16.3509   22.2117 C   0  0  1  0  0  0  0  0  0  0  0  0
    9.7864  -15.7782   20.7958 C   0  0  0  0  0  0  0  0  0  0  0  0
   10.9599  -16.2666   20.0740 C   0  0  0  0  0  0  0  0  0  0  0  0
   11.9475  -15.6060   19.7064 O   0  0  0  0  0  0  0  0  0  0  0  0
   10.8353  -15.8953   23.0380 C   0  0  0  0  0  0  0  0  0  0  0  0
   10.8387  -14.8202   23.6639 O   0  0  0  0  0  0  0  0  0  0  0  0
   10.9814  -17.6277   19.7590 O   0  0  0  0  0  0  0  0  0  0  0  0
   11.9587  -16.7647   23.0779 N   0  0  0  0  0  0  0  0  0  0  0  0
   12.8070  -16.9867   24.2239 C   0  0  1  0  0  0  0  0  0  0  0  0
   11.9653  -17.5605   25.3013 C   0  0  0  0  0  0  0  0  0  0  0  0
   12.6464  -18.0175   26.5337 C   0  0  0  0  0  0  0  0  0  0  0  0
   11.7434  -18.6236   27.5662 C   0  0  0  0  0  0  0  0  0  0  0  0
   12.5943  -18.9695   28.7892 C   0  0  0  0  0  0  0  0  0  0  0  0
   11.6863  -19.3810   29.8437 N   0  0  0  0  0  0  0  0  0  0  0  0
   14.0356  -17.7708   23.9178 C   0  0  0  0  0  0  0  0  0  0  0  0
   15.2071  -17.5220   24.6142 O   0  0  0  0  0  0  0  0  0  0  0  0
   14.0417  -18.6469   23.0505 O   0  0  0  0  0  0  0  0  0  0  0  0
  2  1  1  0
  3  2  1  0
  4  3  1  0
  4  5  1  0
  5  6  1  1
  5  7  1  0
  7  8  2  0
  9  7  1  0
  9 10  1  0
 10 11  1  6
 11 12  1  0
 12 13  2  0
 14 10  1  0
 14 15  2  0
 16 12  1  0
 17 14  1  0
 18 17  1  0
 18 24  1  0
 18 19  1  1
 20 19  1  0
 21 20  1  0
 22 21  1  0
 23 22  1  0
 24 26  2  0
 24 25  1  0
M  END
$$$$
