MDK.pdb
     RDKit          3D

 26 25  0  0  1  0  0  0  0  0999 V2000
    8.7884  -12.0776   19.9981 C   0  0  0  0  0  0  0  0  0  0  0  0
    7.6732  -12.5556   18.6510 S   0  0  0  0  0  0  0  0  0  0  0  0
    8.0820  -14.2150   18.0711 C   0  0  0  0  0  0  0  0  0  0  0  0
    8.1925  -15.1960   19.2260 C   0  0  0  0  0  0  0  0  0  0  0  0
    9.5143  -15.0584   19.9395 C   0  0  2  0  0  0  0  0  0  0  0  0
   10.5445  -15.3147   18.9501 N   0  0  0  0  0  0  0  0  0  0  0  0
    9.6353  -15.9135   21.1187 C   0  0  0  0  0  0  0  0  0  0  0  0
    8.6985  -15.9124   21.9565 O   0  0  0  0  0  0  0  0  0  0  0  0
   10.7470  -16.7525   21.3823 N   0  0  0  0  0  0  0  0  0  0  0  0
   10.9542  -17.4721   22.6189 C   0  0  1  0  0  0  0  0  0  0  0  0
   12.2853  -18.2200   22.5033 C   0  0  0  0  0  0  0  0  0  0  0  0
   12.3056  -19.1775   21.3990 C   0  0  0  0  0  0  0  0  0  0  0  0
   11.4807  -20.0792   21.1680 O   0  0  0  0  0  0  0  0  0  0  0  0
   10.9872  -16.5492   23.7935 C   0  0  0  0  0  0  0  0  0  0  0  0
   11.8626  -15.6783   23.9453 O   0  0  0  0  0  0  0  0  0  0  0  0
   13.3680  -19.0734   20.4975 O   0  0  0  0  0  0  0  0  0  0  0  0
    9.9506  -16.7143   24.7513 N   0  0  0  0  0  0  0  0  0  0  0  0
    9.7188  -15.8613   25.8918 C   0  0  1  0  0  0  0  0  0  0  0  0
    8.6325  -14.9178   25.5336 C   0  0  0  0  0  0  0  0  0  0  0  0
    8.3087  -13.8455   26.5015 C   0  0  0  0  0  0  0  0  0  0  0  0
    7.2089  -12.9202   26.0738 C   0  0  0  0  0  0  0  0  0  0  0  0
    7.0525  -11.8469   27.1522 C   0  0  0  0  0  0  0  0  0  0  0  0
    5.9139  -11.0267   26.7822 N   0  0  0  0  0  0  0  0  0  0  0  0
    9.4948  -16.6058   27.1620 C   0  0  0  0  0  0  0  0  0  0  0  0
    9.8035  -16.0132   28.3756 O   0  0  0  0  0  0  0  0  0  0  0  0
    9.0367  -17.7503   27.1661 O   0  0  0  0  0  0  0  0  0  0  0  0
  2  1  1  0
  3  2  1  0
  4  3  1  0
  4  5  1  0
  5  6  1  6
  5  7  1  0
  7  8  2  0
  9  7  1  0
  9 10  1  0
 10 11  1  6
 11 12  1  0
 12 13  2  0
 14 10  1  0
 14 15  2  0
 16 12  1  0
 17 14  1  0
 18 17  1  0
 18 24  1  0
 18 19  1  6
 20 19  1  0
 21 20  1  0
 22 21  1  0
 23 22  1  0
 24 26  2  0
 24 25  1  0
M  END
$$$$
