MDK.pdb
     RDKit          3D

 26 25  0  0  1  0  0  0  0  0999 V2000
    7.6426  -11.8207   21.5637 C   0  0  0  0  0  0  0  0  0  0  0  0
    7.1842  -12.2181   19.8553 S   0  0  0  0  0  0  0  0  0  0  0  0
    7.6935  -13.9028   19.4559 C   0  0  0  0  0  0  0  0  0  0  0  0
    8.3432  -14.5846   20.6481 C   0  0  0  0  0  0  0  0  0  0  0  0
    8.6658  -16.0272   20.3476 C   0  0  2  0  0  0  0  0  0  0  0  0
    7.4163  -16.6564   19.9618 N   0  0  0  0  0  0  0  0  0  0  0  0
    9.3333  -16.7197   21.4482 C   0  0  0  0  0  0  0  0  0  0  0  0
    8.6232  -17.3009   22.3069 O   0  0  0  0  0  0  0  0  0  0  0  0
   10.7398  -16.7820   21.6126 N   0  0  0  0  0  0  0  0  0  0  0  0
   11.4048  -17.3365   22.7703 C   0  0  1  0  0  0  0  0  0  0  0  0
   12.8966  -17.4432   22.4420 C   0  0  0  0  0  0  0  0  0  0  0  0
   13.1590  -18.2285   21.2373 C   0  0  0  0  0  0  0  0  0  0  0  0
   13.7054  -17.8411   20.1894 O   0  0  0  0  0  0  0  0  0  0  0  0
   11.2078  -16.4817   23.9798 C   0  0  0  0  0  0  0  0  0  0  0  0
   11.7786  -15.3873   24.1351 O   0  0  0  0  0  0  0  0  0  0  0  0
   12.7536  -19.5654   21.2589 O   0  0  0  0  0  0  0  0  0  0  0  0
   10.3191  -16.9860   24.9673 N   0  0  0  0  0  0  0  0  0  0  0  0
   10.0005  -16.3396   26.2175 C   0  0  1  0  0  0  0  0  0  0  0  0
    8.6443  -15.7543   26.0875 C   0  0  0  0  0  0  0  0  0  0  0  0
    8.5092  -14.2908   26.2650 C   0  0  0  0  0  0  0  0  0  0  0  0
    7.1000  -13.7789   26.2354 C   0  0  0  0  0  0  0  0  0  0  0  0
    7.1485  -12.2602   26.4106 C   0  0  0  0  0  0  0  0  0  0  0  0
    5.7772  -11.7870   26.4524 N   0  0  0  0  0  0  0  0  0  0  0  0
   10.1826  -17.2146   27.4087 C   0  0  0  0  0  0  0  0  0  0  0  0
   10.3862  -16.6505   28.6575 O   0  0  0  0  0  0  0  0  0  0  0  0
   10.1579  -18.4437   27.3155 O   0  0  0  0  0  0  0  0  0  0  0  0
  2  1  1  0
  3  2  1  0
  4  3  1  0
  4  5  1  0
  5  6  1  1
  5  7  1  0
  7  8  2  0
  9  7  1  0
  9 10  1  0
 10 11  1  6
 11 12  1  0
 12 13  2  0
 14 10  1  0
 14 15  2  0
 16 12  1  0
 17 14  1  0
 18 17  1  0
 18 24  1  0
 18 19  1  6
 20 19  1  0
 21 20  1  0
 22 21  1  0
 23 22  1  0
 24 26  2  0
 24 25  1  0
M  END
$$$$
