WRK.pdb
     RDKit          3D

 35 36  0  0  1  0  0  0  0  0999 V2000
   26.3425  -18.9281  -10.8946 N   0  0  0  0  0  0  0  0  0  0  0  0
   26.3529  -20.2866  -11.3141 C   0  0  1  0  0  0  0  0  0  0  0  0
   25.8863  -21.2949  -10.3292 C   0  0  0  0  0  0  0  0  0  0  0  0
   26.4773  -21.0132   -9.0050 C   0  0  0  0  0  0  0  0  0  0  0  0
   25.8169  -20.9110   -7.7923 C   0  0  0  0  0  0  0  0  0  0  0  0
   26.6970  -20.6652   -6.8108 N   0  0  0  0  0  0  0  0  0  0  0  0
   27.9315  -20.5992   -7.3337 C   0  0  0  0  0  0  0  0  0  0  0  0
   29.1753  -20.3710   -6.7968 C   0  0  0  0  0  0  0  0  0  0  0  0
   30.3218  -20.3465   -7.5753 C   0  0  0  0  0  0  0  0  0  0  0  0
   30.2237  -20.5570   -8.9383 C   0  0  0  0  0  0  0  0  0  0  0  0
   28.9694  -20.7868   -9.4770 C   0  0  0  0  0  0  0  0  0  0  0  0
   27.8092  -20.8161   -8.7147 C   0  0  0  0  0  0  0  0  0  0  0  0
   25.6690  -20.4047  -12.6358 C   0  0  0  0  0  0  0  0  0  0  0  0
   24.8051  -19.5432  -12.9590 O   0  0  0  0  0  0  0  0  0  0  0  0
   28.6414  -24.7955  -16.3338 N   0  0  0  0  0  0  0  0  0  0  0  0
   29.1389  -23.6500  -17.0471 C   0  0  0  0  0  0  0  0  0  0  0  0
   30.3853  -23.3559  -16.9349 N   0  0  0  0  0  0  0  0  0  0  0  0
   28.2695  -22.8878  -17.8385 N   0  0  0  0  0  0  0  0  0  0  0  0
   26.8509  -23.3381  -17.9757 C   0  0  0  0  0  0  0  0  0  0  0  0
   26.0371  -22.4396  -17.1557 C   0  0  0  0  0  0  0  0  0  0  0  0
   26.1969  -22.2606  -15.7191 C   0  0  0  0  0  0  0  0  0  0  0  0
   25.3551  -21.3479  -14.9095 C   0  0  2  0  0  0  0  0  0  0  0  0
   25.9471  -21.4383  -13.5380 N   0  0  0  0  0  0  0  0  0  0  0  0
   23.9473  -21.8093  -14.7653 C   0  0  0  0  0  0  0  0  0  0  0  0
   23.5962  -22.8342  -14.1702 O   0  0  0  0  0  0  0  0  0  0  0  0
   30.8267  -22.5734  -17.4545 N   0  0  0  0  0  0  0  0  0  0  0  0
   22.8402  -21.0569  -15.3391 C   0  0  2  0  0  0  0  0  0  0  0  0
   21.4726  -21.5678  -15.2676 C   0  0  0  0  0  0  0  0  0  0  0  0
   20.4965  -20.5897  -15.8878 C   0  0  0  0  0  0  0  0  0  0  0  0
   19.2112  -20.6337  -15.1432 C   0  0  0  0  0  0  0  0  0  0  0  0
   18.1457  -19.7102  -15.6705 C   0  0  0  0  0  0  0  0  0  0  0  0
   16.8882  -19.6820  -14.8733 N   0  0  0  0  0  0  0  0  0  0  0  0
   16.0375  -18.6373  -15.4426 C   0  0  0  0  0  0  0  0  0  0  0  0
   21.4584  -22.8714  -15.9812 O   0  0  0  0  0  0  0  0  0  0  0  0
   22.1226  -23.0323  -17.1865 O   0  0  0  0  0  0  0  0  0  0  0  0
  2  1  1  1
  3  2  1  0
  4  3  1  0
  4  5  2  0
  6  5  1  0
  7 12  2  0
  7  6  1  0
  8  7  1  0
  9 10  1  0
  9  8  2  0
 10 11  2  0
 11 12  1  0
 12  4  1  0
 13  2  1  0
 14 13  2  0
 15 16  1  0
 16 17  2  0
 18 16  1  0
 18 19  1  0
 20 21  1  0
 20 19  1  0
 22 21  1  6
 22 23  1  0
 22 24  1  0
 23 13  1  0
 24 25  2  0
 26 24  1  0
 26 27  1  0
 27 33  1  0
 27 28  1  1
 29 28  1  0
 30 29  1  0
 31 30  1  0
 31 32  1  0
 33 34  1  0
 35 33  2  0
M  END
$$$$
