WRK.pdb
     RDKit          3D

 35 36  0  0  1  0  0  0  0  0999 V2000
   28.4864  -21.1221  -11.2194 N   0  0  0  0  0  0  0  0  0  0  0  0
   27.2716  -20.9967  -10.4912 C   0  0  1  0  0  0  0  0  0  0  0  0
   27.2376  -19.9719   -9.4174 C   0  0  0  0  0  0  0  0  0  0  0  0
   28.3348  -20.2138   -8.4585 C   0  0  0  0  0  0  0  0  0  0  0  0
   29.5553  -20.8176   -8.7096 C   0  0  0  0  0  0  0  0  0  0  0  0
   30.2948  -20.8384   -7.5911 N   0  0  0  0  0  0  0  0  0  0  0  0
   29.6017  -20.2644   -6.5953 C   0  0  0  0  0  0  0  0  0  0  0  0
   29.8709  -20.0287   -5.2688 C   0  0  0  0  0  0  0  0  0  0  0  0
   28.9588  -19.4081   -4.4298 C   0  0  0  0  0  0  0  0  0  0  0  0
   27.7342  -19.0084   -4.9321 C   0  0  0  0  0  0  0  0  0  0  0  0
   27.4653  -19.2469   -6.2690 C   0  0  0  0  0  0  0  0  0  0  0  0
   28.3653  -19.8663   -7.1260 C   0  0  0  0  0  0  0  0  0  0  0  0
   26.1294  -20.8778  -11.4450 C   0  0  0  0  0  0  0  0  0  0  0  0
   26.1251  -19.9338  -12.2829 O   0  0  0  0  0  0  0  0  0  0  0  0
   23.0489  -27.0492  -15.5823 N   0  0  0  0  0  0  0  0  0  0  0  0
   21.9876  -26.1541  -15.2072 C   0  0  0  0  0  0  0  0  0  0  0  0
   20.9947  -26.6296  -14.5432 N   0  0  0  0  0  0  0  0  0  0  0  0
   22.0542  -24.8015  -15.5668 N   0  0  0  0  0  0  0  0  0  0  0  0
   23.3046  -24.0428  -15.2586 C   0  0  0  0  0  0  0  0  0  0  0  0
   23.5389  -24.1735  -13.8199 C   0  0  0  0  0  0  0  0  0  0  0  0
   24.4994  -23.3814  -13.0641 C   0  0  0  0  0  0  0  0  0  0  0  0
   24.2964  -21.9522  -12.7271 C   0  0  2  0  0  0  0  0  0  0  0  0
   25.0552  -21.7754  -11.4493 N   0  0  0  0  0  0  0  0  0  0  0  0
   22.8843  -21.6136  -12.4002 C   0  0  0  0  0  0  0  0  0  0  0  0
   22.3298  -21.8563  -11.3225 O   0  0  0  0  0  0  0  0  0  0  0  0
   20.1654  -26.0602  -14.2879 N   0  0  0  0  0  0  0  0  0  0  0  0
   22.0214  -20.9472  -13.3658 C   0  0  2  0  0  0  0  0  0  0  0  0
   20.6590  -20.5577  -13.0070 C   0  0  0  0  0  0  0  0  0  0  0  0
   20.1117  -19.5398  -13.9860 C   0  0  0  0  0  0  0  0  0  0  0  0
   18.7010  -19.2274  -13.6383 C   0  0  0  0  0  0  0  0  0  0  0  0
   18.0449  -18.2044  -14.5266 C   0  0  0  0  0  0  0  0  0  0  0  0
   16.6563  -17.8330  -14.1376 N   0  0  0  0  0  0  0  0  0  0  0  0
   16.1855  -16.8424  -15.1051 C   0  0  0  0  0  0  0  0  0  0  0  0
   19.8400  -21.7979  -13.0025 O   0  0  0  0  0  0  0  0  0  0  0  0
   18.9011  -22.0293  -12.0101 O   0  0  0  0  0  0  0  0  0  0  0  0
  2  1  1  6
  3  2  1  0
  4  3  1  0
  4  5  2  0
  6  5  1  0
  7 12  2  0
  7  6  1  0
  8  7  1  0
  9 10  1  0
  9  8  2  0
 10 11  2  0
 11 12  1  0
 12  4  1  0
 13  2  1  0
 14 13  2  0
 15 16  1  0
 16 17  2  0
 18 16  1  0
 18 19  1  0
 20 21  1  0
 20 19  1  0
 22 21  1  1
 22 23  1  0
 22 24  1  0
 23 13  1  0
 24 25  2  0
 26 24  1  0
 26 27  1  0
 27 33  1  0
 27 28  1  6
 29 28  1  0
 30 29  1  0
 31 30  1  0
 31 32  1  0
 33 34  1  0
 35 33  2  0
M  END
$$$$
