WRK.pdb
     RDKit          3D

 35 36  0  0  1  0  0  0  0  0999 V2000
   26.7977  -18.5696  -16.4756 N   0  0  0  0  0  0  0  0  0  0  0  0
   26.1150  -18.4118  -15.2384 C   0  0  1  0  0  0  0  0  0  0  0  0
   25.1138  -17.3180  -15.1612 C   0  0  0  0  0  0  0  0  0  0  0  0
   25.7328  -16.0417  -15.5732 C   0  0  0  0  0  0  0  0  0  0  0  0
   26.7902  -15.3841  -14.9675 C   0  0  0  0  0  0  0  0  0  0  0  0
   27.0803  -14.2632  -15.6441 N   0  0  0  0  0  0  0  0  0  0  0  0
   26.2445  -14.1512  -16.6883 C   0  0  0  0  0  0  0  0  0  0  0  0
   26.0950  -13.2170  -17.6844 C   0  0  0  0  0  0  0  0  0  0  0  0
   25.1234  -13.3339  -18.6660 C   0  0  0  0  0  0  0  0  0  0  0  0
   24.2703  -14.4218  -18.6531 C   0  0  0  0  0  0  0  0  0  0  0  0
   24.4228  -15.3620  -17.6484 C   0  0  0  0  0  0  0  0  0  0  0  0
   25.3898  -15.2636  -16.6567 C   0  0  0  0  0  0  0  0  0  0  0  0
   25.5709  -19.7304  -14.7983 C   0  0  0  0  0  0  0  0  0  0  0  0
   25.0022  -20.4734  -15.6454 O   0  0  0  0  0  0  0  0  0  0  0  0
   23.1295  -22.3197   -7.9748 N   0  0  0  0  0  0  0  0  0  0  0  0
   24.0740  -21.3223   -7.5486 C   0  0  0  0  0  0  0  0  0  0  0  0
   24.0183  -20.9100   -6.3322 N   0  0  0  0  0  0  0  0  0  0  0  0
   25.0223  -20.8263   -8.4529 N   0  0  0  0  0  0  0  0  0  0  0  0
   24.5879  -20.5350   -9.8531 C   0  0  0  0  0  0  0  0  0  0  0  0
   25.7135  -20.8688  -10.7269 C   0  0  0  0  0  0  0  0  0  0  0  0
   25.6562  -21.8350  -11.8152 C   0  0  0  0  0  0  0  0  0  0  0  0
   25.0986  -21.5277  -13.1537 C   0  0  2  0  0  0  0  0  0  0  0  0
   25.6654  -20.1807  -13.4762 N   0  0  0  0  0  0  0  0  0  0  0  0
   23.6211  -21.3471  -13.1547 C   0  0  0  0  0  0  0  0  0  0  0  0
   23.0346  -20.3116  -12.8205 O   0  0  0  0  0  0  0  0  0  0  0  0
   24.6497  -20.1760   -5.9585 N   0  0  0  0  0  0  0  0  0  0  0  0
   22.7263  -22.4206  -13.5645 C   0  0  2  0  0  0  0  0  0  0  0  0
   21.2760  -22.2465  -13.5107 C   0  0  0  0  0  0  0  0  0  0  0  0
   20.7999  -22.1122  -12.0791 C   0  0  0  0  0  0  0  0  0  0  0  0
   19.6330  -23.0058  -11.8596 C   0  0  0  0  0  0  0  0  0  0  0  0
   19.0279  -22.9255  -10.4835 C   0  0  0  0  0  0  0  0  0  0  0  0
   19.5160  -23.9524   -9.5219 N   0  0  0  0  0  0  0  0  0  0  0  0
   18.8540  -23.6976   -8.2428 C   0  0  0  0  0  0  0  0  0  0  0  0
   20.9551  -21.0310  -14.3033 O   0  0  0  0  0  0  0  0  0  0  0  0
   19.6636  -20.7851  -14.7412 O   0  0  0  0  0  0  0  0  0  0  0  0
  2  1  1  6
  3  2  1  0
  4  3  1  0
  4  5  2  0
  6  5  1  0
  7 12  2  0
  7  6  1  0
  8  7  1  0
  9 10  1  0
  9  8  2  0
 10 11  2  0
 11 12  1  0
 12  4  1  0
 13  2  1  0
 14 13  2  0
 15 16  1  0
 16 17  2  0
 18 16  1  0
 18 19  1  0
 20 21  1  0
 20 19  1  0
 22 21  1  1
 22 23  1  0
 22 24  1  0
 23 13  1  0
 24 25  2  0
 26 24  1  0
 26 27  1  0
 27 33  1  0
 27 28  1  1
 29 28  1  0
 30 29  1  0
 31 30  1  0
 31 32  1  0
 33 34  1  0
 35 33  2  0
M  END
$$$$
