WRK.pdb
     RDKit          3D

 35 36  0  0  1  0  0  0  0  0999 V2000
   27.2837  -19.6757  -10.1429 N   0  0  0  0  0  0  0  0  0  0  0  0
   26.1467  -20.4063   -9.7009 C   0  0  1  0  0  0  0  0  0  0  0  0
   25.6719  -20.1347   -8.3206 C   0  0  0  0  0  0  0  0  0  0  0  0
   26.7957  -19.6595   -7.4881 C   0  0  0  0  0  0  0  0  0  0  0  0
   27.4196  -18.4245   -7.5406 C   0  0  0  0  0  0  0  0  0  0  0  0
   28.3859  -18.3597   -6.6131 N   0  0  0  0  0  0  0  0  0  0  0  0
   28.4270  -19.5198   -5.9393 C   0  0  0  0  0  0  0  0  0  0  0  0
   29.2088  -19.9901   -4.9122 C   0  0  0  0  0  0  0  0  0  0  0  0
   29.0492  -21.2626   -4.3864 C   0  0  0  0  0  0  0  0  0  0  0  0
   28.0750  -22.0958   -4.9042 C   0  0  0  0  0  0  0  0  0  0  0  0
   27.2884  -21.6197   -5.9391 C   0  0  0  0  0  0  0  0  0  0  0  0
   27.4317  -20.3486   -6.4792 C   0  0  0  0  0  0  0  0  0  0  0  0
   25.0612  -20.3027  -10.7203 C   0  0  0  0  0  0  0  0  0  0  0  0
   24.5529  -19.1732  -10.9632 O   0  0  0  0  0  0  0  0  0  0  0  0
   27.8768  -23.7989  -15.5021 N   0  0  0  0  0  0  0  0  0  0  0  0
   26.5262  -23.9937  -15.9565 C   0  0  0  0  0  0  0  0  0  0  0  0
   26.1702  -25.1735  -16.3228 N   0  0  0  0  0  0  0  0  0  0  0  0
   25.6375  -22.9110  -15.9913 N   0  0  0  0  0  0  0  0  0  0  0  0
   26.0189  -21.6527  -15.2805 C   0  0  0  0  0  0  0  0  0  0  0  0
   25.3736  -21.6924  -13.9675 C   0  0  0  0  0  0  0  0  0  0  0  0
   24.0301  -21.2020  -13.6923 C   0  0  0  0  0  0  0  0  0  0  0  0
   23.4168  -21.2089  -12.3429 C   0  0  2  0  0  0  0  0  0  0  0  0
   24.5796  -21.4134  -11.4232 N   0  0  0  0  0  0  0  0  0  0  0  0
   22.5148  -22.3691  -12.1061 C   0  0  0  0  0  0  0  0  0  0  0  0
   22.8515  -23.5555  -12.1887 O   0  0  0  0  0  0  0  0  0  0  0  0
   25.2169  -25.3896  -16.6714 N   0  0  0  0  0  0  0  0  0  0  0  0
   21.1158  -22.1810  -11.7476 C   0  0  1  0  0  0  0  0  0  0  0  0
   20.2316  -23.3295  -11.5589 C   0  0  0  0  0  0  0  0  0  0  0  0
   18.9279  -22.9082  -10.9130 C   0  0  0  0  0  0  0  0  0  0  0  0
   18.0374  -24.0903  -10.7788 C   0  0  0  0  0  0  0  0  0  0  0  0
   17.3121  -24.1866   -9.4631 C   0  0  0  0  0  0  0  0  0  0  0  0
   16.4483  -25.3898   -9.3087 N   0  0  0  0  0  0  0  0  0  0  0  0
   15.9666  -25.4030   -7.9278 C   0  0  0  0  0  0  0  0  0  0  0  0
   20.0020  -23.9257  -12.9007 O   0  0  0  0  0  0  0  0  0  0  0  0
   20.0712  -23.1506  -14.0472 O   0  0  0  0  0  0  0  0  0  0  0  0
  2  1  1  6
  3  2  1  0
  4  3  1  0
  4  5  2  0
  6  5  1  0
  7 12  2  0
  7  6  1  0
  8  7  1  0
  9 10  1  0
  9  8  2  0
 10 11  2  0
 11 12  1  0
 12  4  1  0
 13  2  1  0
 14 13  2  0
 15 16  1  0
 16 17  2  0
 18 16  1  0
 18 19  1  0
 20 21  1  0
 20 19  1  0
 22 21  1  6
 22 23  1  0
 22 24  1  0
 23 13  1  0
 24 25  2  0
 26 24  1  0
 26 27  1  0
 27 33  1  0
 27 28  1  6
 29 28  1  0
 30 29  1  0
 31 30  1  0
 31 32  1  0
 33 34  1  0
 35 33  2  0
M  END
$$$$
