EDA.pdb
     RDKit          3D

 23 22  0  0  1  0  0  0  0  0999 V2000
   12.8707  -16.2785   16.3875 N   0  0  0  0  0  0  0  0  0  0  0  0
   11.4765  -16.2679   16.8944 C   0  0  1  0  0  0  0  0  0  0  0  0
   10.6367  -16.7605   15.7897 C   0  0  0  0  0  0  0  0  0  0  0  0
   11.1054  -16.5684   14.3895 C   0  0  0  0  0  0  0  0  0  0  0  0
   10.2428  -17.1180   13.3409 C   0  0  0  0  0  0  0  0  0  0  0  0
   10.3780  -18.2498   12.8289 O   0  0  0  0  0  0  0  0  0  0  0  0
   11.4544  -16.8810   18.1928 C   0  0  0  0  0  0  0  0  0  0  0  0
   10.3570  -17.0865   18.8243 O   0  0  0  0  0  0  0  0  0  0  0  0
    9.1881  -16.2915   12.8912 O   0  0  0  0  0  0  0  0  0  0  0  0
   12.6250  -17.3289   18.9140 N   0  0  0  0  0  0  0  0  0  0  0  0
   12.5240  -18.0693   20.1430 C   0  0  1  0  0  0  0  0  0  0  0  0
   13.7726  -18.9079   20.2918 C   0  0  0  0  0  0  0  0  0  0  0  0
   13.8805  -20.0221   19.3579 C   0  0  0  0  0  0  0  0  0  0  0  0
   12.8290  -20.5860   18.9677 O   0  0  0  0  0  0  0  0  0  0  0  0
   12.3935  -17.1786   21.3296 C   0  0  0  0  0  0  0  0  0  0  0  0
   13.3641  -16.4593   21.6797 O   0  0  0  0  0  0  0  0  0  0  0  0
   15.0818  -20.5047   18.8677 O   0  0  0  0  0  0  0  0  0  0  0  0
    9.6115  -15.6666   23.2961 C   0  0  0  0  0  0  0  0  0  0  0  0
   10.9972  -16.1965   23.1910 C   0  0  2  0  0  0  0  0  0  0  0  0
   11.2136  -17.0951   22.1015 N   0  0  0  0  0  0  0  0  0  0  0  0
   11.4838  -16.7965   24.4524 C   0  0  0  0  0  0  0  0  0  0  0  0
   11.8812  -18.1163   24.4609 O   0  0  0  0  0  0  0  0  0  0  0  0
   11.5269  -16.0967   25.4924 O   0  0  0  0  0  0  0  0  0  0  0  0
  2  1  1  6
  2  3  1  0
  3  4  1  0
  4  5  1  0
  5  6  2  0
  5  9  1  0
  7 10  1  0
  7  2  1  0
  8  7  2  0
 11 10  1  0
 11 15  1  0
 11 12  1  1
 13 14  2  0
 13 12  1  0
 15 20  1  0
 16 15  2  0
 17 13  1  0
 19 18  1  1
 19 21  1  0
 20 19  1  0
 21 23  2  0
 21 22  1  0
M  END
$$$$
