EDA.pdb
     RDKit          3D

 23 22  0  0  1  0  0  0  0  0999 V2000
   11.6642  -16.1046   20.7283 N   0  0  0  0  0  0  0  0  0  0  0  0
   12.0850  -16.6411   22.0459 C   0  0  1  0  0  0  0  0  0  0  0  0
   13.4452  -16.1281   22.2801 C   0  0  0  0  0  0  0  0  0  0  0  0
   14.5919  -16.7973   21.6060 C   0  0  0  0  0  0  0  0  0  0  0  0
   15.9206  -16.2634   21.9144 C   0  0  0  0  0  0  0  0  0  0  0  0
   16.9389  -16.9599   22.1125 O   0  0  0  0  0  0  0  0  0  0  0  0
   11.0235  -16.4286   22.9895 C   0  0  0  0  0  0  0  0  0  0  0  0
   10.3053  -15.3661   22.9702 O   0  0  0  0  0  0  0  0  0  0  0  0
   16.0361  -14.8566   21.9879 O   0  0  0  0  0  0  0  0  0  0  0  0
   10.6483  -17.3572   24.0324 N   0  0  0  0  0  0  0  0  0  0  0  0
    9.6207  -17.0498   24.9908 C   0  0  1  0  0  0  0  0  0  0  0  0
    8.9027  -18.3332   25.3397 C   0  0  0  0  0  0  0  0  0  0  0  0
    7.8118  -18.1877   26.2959 C   0  0  0  0  0  0  0  0  0  0  0  0
    7.5221  -17.0385   26.7101 O   0  0  0  0  0  0  0  0  0  0  0  0
   10.1723  -16.4483   26.2367 C   0  0  0  0  0  0  0  0  0  0  0  0
   11.2046  -16.9384   26.7623 O   0  0  0  0  0  0  0  0  0  0  0  0
    7.0658  -19.2472   26.7828 O   0  0  0  0  0  0  0  0  0  0  0  0
    9.4154  -13.4262   28.4150 C   0  0  0  0  0  0  0  0  0  0  0  0
   10.0605  -14.7231   28.0780 C   0  0  2  0  0  0  0  0  0  0  0  0
    9.5871  -15.3328   26.8757 N   0  0  0  0  0  0  0  0  0  0  0  0
   10.0223  -15.6946   29.1927 C   0  0  0  0  0  0  0  0  0  0  0  0
   10.6436  -15.3797   30.3820 O   0  0  0  0  0  0  0  0  0  0  0  0
    9.4265  -16.7876   29.0386 O   0  0  0  0  0  0  0  0  0  0  0  0
  2  1  1  6
  2  3  1  0
  3  4  1  0
  4  5  1  0
  5  6  2  0
  5  9  1  0
  7 10  1  0
  7  2  1  0
  8  7  2  0
 11 10  1  0
 11 15  1  0
 11 12  1  1
 13 14  2  0
 13 12  1  0
 15 20  1  0
 16 15  2  0
 17 13  1  0
 19 18  1  1
 19 21  1  0
 20 19  1  0
 21 23  2  0
 21 22  1  0
M  END
$$$$
