EDA.pdb
     RDKit          3D

 23 22  0  0  1  0  0  0  0  0999 V2000
    8.8512  -15.8050   19.7299 N   0  0  0  0  0  0  0  0  0  0  0  0
    7.5257  -15.5823   20.3579 C   0  0  1  0  0  0  0  0  0  0  0  0
    6.5870  -16.4746   19.6574 C   0  0  0  0  0  0  0  0  0  0  0  0
    7.1048  -17.7359   19.0589 C   0  0  0  0  0  0  0  0  0  0  0  0
    6.1103  -18.6010   18.4201 C   0  0  0  0  0  0  0  0  0  0  0  0
    6.2189  -19.0831   17.2725 O   0  0  0  0  0  0  0  0  0  0  0  0
    7.6811  -15.6179   21.7851 C   0  0  0  0  0  0  0  0  0  0  0  0
    6.6937  -15.4118   22.5774 O   0  0  0  0  0  0  0  0  0  0  0  0
    4.9527  -18.8990   19.1744 O   0  0  0  0  0  0  0  0  0  0  0  0
    8.9240  -15.8865   22.4734 N   0  0  0  0  0  0  0  0  0  0  0  0
    8.9982  -15.9612   23.9079 C   0  0  1  0  0  0  0  0  0  0  0  0
   10.3597  -16.5004   24.2819 C   0  0  0  0  0  0  0  0  0  0  0  0
   10.6397  -17.8493   23.8050 C   0  0  0  0  0  0  0  0  0  0  0  0
    9.6815  -18.6459   23.6518 O   0  0  0  0  0  0  0  0  0  0  0  0
    8.8088  -14.6321   24.5530 C   0  0  0  0  0  0  0  0  0  0  0  0
    9.6457  -13.7152   24.3504 O   0  0  0  0  0  0  0  0  0  0  0  0
   11.9089  -18.3145   23.5067 O   0  0  0  0  0  0  0  0  0  0  0  0
    6.1269  -12.5224   25.8590 C   0  0  0  0  0  0  0  0  0  0  0  0
    7.4885  -13.0880   26.0536 C   0  0  2  0  0  0  0  0  0  0  0  0
    7.7170  -14.3374   25.3992 N   0  0  0  0  0  0  0  0  0  0  0  0
    7.8790  -13.1782   27.4773 C   0  0  0  0  0  0  0  0  0  0  0  0
    7.8354  -12.0449   28.2606 O   0  0  0  0  0  0  0  0  0  0  0  0
    8.2431  -14.2820   27.9488 O   0  0  0  0  0  0  0  0  0  0  0  0
  2  1  1  6
  2  3  1  0
  3  4  1  0
  4  5  1  0
  5  6  2  0
  5  9  1  0
  7 10  1  0
  7  2  1  0
  8  7  2  0
 11 10  1  0
 11 15  1  0
 11 12  1  6
 13 14  2  0
 13 12  1  0
 15 20  1  0
 16 15  2  0
 17 13  1  0
 19 18  1  1
 19 21  1  0
 20 19  1  0
 21 23  2  0
 21 22  1  0
M  END
$$$$
