EDA.pdb
     RDKit          3D

 23 22  0  0  1  0  0  0  0  0999 V2000
   11.2824  -16.4745   20.9384 N   0  0  0  0  0  0  0  0  0  0  0  0
   11.9527  -17.1260   22.0904 C   0  0  1  0  0  0  0  0  0  0  0  0
   13.3454  -16.6481   22.0760 C   0  0  0  0  0  0  0  0  0  0  0  0
   13.6099  -15.2124   21.7827 C   0  0  0  0  0  0  0  0  0  0  0  0
   15.0171  -14.8059   21.7736 C   0  0  0  0  0  0  0  0  0  0  0  0
   15.7210  -14.6561   22.7951 O   0  0  0  0  0  0  0  0  0  0  0  0
   11.1164  -16.9847   23.2493 C   0  0  0  0  0  0  0  0  0  0  0  0
   10.1660  -16.1246   23.2957 O   0  0  0  0  0  0  0  0  0  0  0  0
   15.6001  -14.5719   20.5076 O   0  0  0  0  0  0  0  0  0  0  0  0
   11.2389  -17.7716   24.4562 N   0  0  0  0  0  0  0  0  0  0  0  0
   10.3544  -17.5896   25.5758 C   0  0  1  0  0  0  0  0  0  0  0  0
   10.4546  -18.8120   26.4590 C   0  0  0  0  0  0  0  0  0  0  0  0
    9.7843  -19.9998   25.9442 C   0  0  0  0  0  0  0  0  0  0  0  0
    9.1578  -19.9164   24.8594 O   0  0  0  0  0  0  0  0  0  0  0  0
   10.6992  -16.3824   26.3773 C   0  0  0  0  0  0  0  0  0  0  0  0
   11.9024  -16.1369   26.6495 O   0  0  0  0  0  0  0  0  0  0  0  0
    9.7935  -21.2286   26.5816 O   0  0  0  0  0  0  0  0  0  0  0  0
    8.9602  -13.3097   27.7230 C   0  0  0  0  0  0  0  0  0  0  0  0
    9.9773  -14.3943   27.7575 C   0  0  2  0  0  0  0  0  0  0  0  0
    9.7279  -15.4776   26.8600 N   0  0  0  0  0  0  0  0  0  0  0  0
   10.2280  -14.9084   29.1215 C   0  0  0  0  0  0  0  0  0  0  0  0
   10.7390  -14.0579   30.0783 O   0  0  0  0  0  0  0  0  0  0  0  0
    9.9725  -16.1076   29.3858 O   0  0  0  0  0  0  0  0  0  0  0  0
  2  1  1  6
  2  3  1  0
  3  4  1  0
  4  5  1  0
  5  6  2  0
  5  9  1  0
  7 10  1  0
  7  2  1  0
  8  7  2  0
 11 10  1  0
 11 15  1  0
 11 12  1  1
 13 14  2  0
 13 12  1  0
 15 20  1  0
 16 15  2  0
 17 13  1  0
 19 18  1  1
 19 21  1  0
 20 19  1  0
 21 23  2  0
 21 22  1  0
M  END
$$$$
