EDA.pdb
     RDKit          3D

 23 22  0  0  1  0  0  0  0  0999 V2000
    9.9162  -18.3287   17.9351 N   0  0  0  0  0  0  0  0  0  0  0  0
    8.9251  -18.0400   19.0007 C   0  0  1  0  0  0  0  0  0  0  0  0
    7.9396  -19.1327   18.9486 C   0  0  0  0  0  0  0  0  0  0  0  0
    8.3313  -20.4248   18.3207 C   0  0  0  0  0  0  0  0  0  0  0  0
    7.3154  -21.0681   17.4843 C   0  0  0  0  0  0  0  0  0  0  0  0
    7.4488  -22.1813   16.9324 O   0  0  0  0  0  0  0  0  0  0  0  0
    9.6302  -17.7141   20.2086 C   0  0  0  0  0  0  0  0  0  0  0  0
   10.8826  -17.9546   20.3457 O   0  0  0  0  0  0  0  0  0  0  0  0
    6.1051  -20.3613   17.3022 O   0  0  0  0  0  0  0  0  0  0  0  0
    9.0338  -17.0929   21.3702 N   0  0  0  0  0  0  0  0  0  0  0  0
    9.8110  -16.7431   22.5289 C   0  0  1  0  0  0  0  0  0  0  0  0
    9.0285  -15.7305   23.3330 C   0  0  0  0  0  0  0  0  0  0  0  0
    9.7126  -15.2226   24.5160 C   0  0  0  0  0  0  0  0  0  0  0  0
   10.8329  -15.7024   24.8173 O   0  0  0  0  0  0  0  0  0  0  0  0
   10.1048  -17.9231   23.3890 C   0  0  0  0  0  0  0  0  0  0  0  0
    9.1664  -18.6741   23.7598 O   0  0  0  0  0  0  0  0  0  0  0  0
    9.2008  -14.2338   25.3386 O   0  0  0  0  0  0  0  0  0  0  0  0
   12.7452  -20.3136   23.8505 C   0  0  0  0  0  0  0  0  0  0  0  0
   11.7688  -19.4318   24.5439 C   0  0  2  0  0  0  0  0  0  0  0  0
   11.4083  -18.2530   23.8215 N   0  0  0  0  0  0  0  0  0  0  0  0
   12.1824  -19.0810   25.9200 C   0  0  0  0  0  0  0  0  0  0  0  0
   12.2231  -17.7548   26.2935 O   0  0  0  0  0  0  0  0  0  0  0  0
   12.4893  -19.9936   26.7238 O   0  0  0  0  0  0  0  0  0  0  0  0
  2  1  1  6
  2  3  1  0
  3  4  1  0
  4  5  1  0
  5  6  2  0
  5  9  1  0
  7 10  1  0
  7  2  1  0
  8  7  2  0
 11 10  1  0
 11 15  1  0
 11 12  1  1
 13 14  2  0
 13 12  1  0
 15 20  1  0
 16 15  2  0
 17 13  1  0
 19 18  1  6
 19 21  1  0
 20 19  1  0
 21 23  2  0
 21 22  1  0
M  END
$$$$
