EDA.pdb
     RDKit          3D

 23 22  0  0  1  0  0  0  0  0999 V2000
    8.9463  -20.5836   23.1342 N   0  0  0  0  0  0  0  0  0  0  0  0
    7.9538  -19.5265   23.4483 C   0  0  1  0  0  0  0  0  0  0  0  0
    6.9392  -20.1610   24.3062 C   0  0  0  0  0  0  0  0  0  0  0  0
    6.3614  -21.4686   23.8897 C   0  0  0  0  0  0  0  0  0  0  0  0
    5.2993  -22.0045   24.7443 C   0  0  0  0  0  0  0  0  0  0  0  0
    4.1253  -22.2159   24.3723 O   0  0  0  0  0  0  0  0  0  0  0  0
    8.6565  -18.3425   23.8567 C   0  0  0  0  0  0  0  0  0  0  0  0
    9.0725  -18.1850   25.0598 O   0  0  0  0  0  0  0  0  0  0  0  0
    5.6501  -22.2967   26.0819 O   0  0  0  0  0  0  0  0  0  0  0  0
    8.9723  -17.2297   22.9891 N   0  0  0  0  0  0  0  0  0  0  0  0
    9.4881  -15.9885   23.5012 C   0  0  1  0  0  0  0  0  0  0  0  0
   10.0686  -15.2068   22.3453 C   0  0  0  0  0  0  0  0  0  0  0  0
   11.2765  -15.7773   21.7614 C   0  0  0  0  0  0  0  0  0  0  0  0
   11.1709  -16.4897   20.7331 O   0  0  0  0  0  0  0  0  0  0  0  0
    8.4342  -15.1684   24.1609 C   0  0  0  0  0  0  0  0  0  0  0  0
    7.3581  -14.9304   23.5547 O   0  0  0  0  0  0  0  0  0  0  0  0
   12.5478  -15.5822   22.2735 O   0  0  0  0  0  0  0  0  0  0  0  0
    6.2527  -14.2192   26.1309 C   0  0  0  0  0  0  0  0  0  0  0  0
    7.6605  -13.7408   26.0954 C   0  0  2  0  0  0  0  0  0  0  0  0
    8.5794  -14.6306   25.4589 N   0  0  0  0  0  0  0  0  0  0  0  0
    8.1706  -13.3460   27.4264 C   0  0  0  0  0  0  0  0  0  0  0  0
    7.5033  -12.3755   28.1426 O   0  0  0  0  0  0  0  0  0  0  0  0
    9.2002  -13.8990   27.8817 O   0  0  0  0  0  0  0  0  0  0  0  0
  2  1  1  1
  2  3  1  0
  3  4  1  0
  4  5  1  0
  5  6  2  0
  5  9  1  0
  7 10  1  0
  7  2  1  0
  8  7  2  0
 11 10  1  0
 11 15  1  0
 11 12  1  6
 13 14  2  0
 13 12  1  0
 15 20  1  0
 16 15  2  0
 17 13  1  0
 19 18  1  1
 19 21  1  0
 20 19  1  0
 21 23  2  0
 21 22  1  0
M  END
$$$$
