EDA.pdb
     RDKit          3D

 23 22  0  0  1  0  0  0  0  0999 V2000
    8.9823  -19.4632   17.5186 N   0  0  0  0  0  0  0  0  0  0  0  0
    8.5720  -18.1454   18.0628 C   0  0  1  0  0  0  0  0  0  0  0  0
    7.1153  -18.0583   17.8666 C   0  0  0  0  0  0  0  0  0  0  0  0
    6.3651  -19.2896   17.4947 C   0  0  0  0  0  0  0  0  0  0  0  0
    5.0308  -19.4324   18.0820 C   0  0  0  0  0  0  0  0  0  0  0  0
    3.9615  -19.1705   17.4910 O   0  0  0  0  0  0  0  0  0  0  0  0
    9.1727  -17.9745   19.3560 C   0  0  0  0  0  0  0  0  0  0  0  0
    8.6776  -18.5166   20.4078 O   0  0  0  0  0  0  0  0  0  0  0  0
    4.9725  -19.9019   19.4139 O   0  0  0  0  0  0  0  0  0  0  0  0
   10.3679  -17.2031   19.6153 N   0  0  0  0  0  0  0  0  0  0  0  0
   10.8865  -17.0282   20.9454 C   0  0  1  0  0  0  0  0  0  0  0  0
   12.3791  -16.8132   20.8448 C   0  0  0  0  0  0  0  0  0  0  0  0
   13.0867  -16.8026   22.1194 C   0  0  0  0  0  0  0  0  0  0  0  0
   12.4474  -17.0693   23.1664 O   0  0  0  0  0  0  0  0  0  0  0  0
   10.2742  -15.8622   21.6413 C   0  0  0  0  0  0  0  0  0  0  0  0
   10.5608  -14.6944   21.2724 O   0  0  0  0  0  0  0  0  0  0  0  0
   14.4341  -16.5138   22.2518 O   0  0  0  0  0  0  0  0  0  0  0  0
    7.3354  -14.6811   23.1211 C   0  0  0  0  0  0  0  0  0  0  0  0
    8.7689  -14.9199   23.4372 C   0  0  2  0  0  0  0  0  0  0  0  0
    9.3693  -15.9982   22.7172 N   0  0  0  0  0  0  0  0  0  0  0  0
    9.0243  -15.0686   24.8865 C   0  0  0  0  0  0  0  0  0  0  0  0
    8.7784  -14.0036   25.7263 O   0  0  0  0  0  0  0  0  0  0  0  0
    9.4599  -16.1589   25.3278 O   0  0  0  0  0  0  0  0  0  0  0  0
  2  1  1  1
  2  3  1  0
  3  4  1  0
  4  5  1  0
  5  6  2  0
  5  9  1  0
  7 10  1  0
  7  2  1  0
  8  7  2  0
 11 10  1  0
 11 15  1  0
 11 12  1  6
 13 14  2  0
 13 12  1  0
 15 20  1  0
 16 15  2  0
 17 13  1  0
 19 18  1  1
 19 21  1  0
 20 19  1  0
 21 23  2  0
 21 22  1  0
M  END
$$$$
