DRG.pdb
     RDKit          3D

 24 23  0  0  1  0  0  0  0  0999 V2000
   20.9663  -20.5553  -11.5994 N   0  0  0  0  0  0  0  0  0  0  0  0
   20.5817  -20.6711  -12.9909 C   0  0  1  0  0  0  0  0  0  0  0  0
   19.1258  -20.2901  -13.1535 C   0  0  0  0  0  0  0  0  0  0  0  0
   18.2635  -21.4554  -12.8379 C   0  0  0  0  0  0  0  0  0  0  0  0
   18.7373  -22.5952  -12.6637 O   0  0  0  0  0  0  0  0  0  0  0  0
   21.4730  -19.8073  -13.7921 C   0  0  0  0  0  0  0  0  0  0  0  0
   21.7452  -18.6525  -13.3861 O   0  0  0  0  0  0  0  0  0  0  0  0
   16.8849  -21.2986  -12.7278 O   0  0  0  0  0  0  0  0  0  0  0  0
   28.8511  -21.4769  -16.3196 N   0  0  0  0  0  0  0  0  0  0  0  0
   27.6638  -22.2479  -16.3839 C   0  0  0  0  0  0  0  0  0  0  0  0
   27.6585  -23.5470  -16.2397 N   0  0  0  0  0  0  0  0  0  0  0  0
   26.3798  -21.6538  -16.6149 N   0  0  0  0  0  0  0  0  0  0  0  0
   26.2288  -20.4943  -17.4230 C   0  0  0  0  0  0  0  0  0  0  0  0
   25.2246  -19.4939  -16.9489 C   0  0  0  0  0  0  0  0  0  0  0  0
   24.1419  -20.2867  -16.2024 C   0  0  0  0  0  0  0  0  0  0  0  0
   23.0157  -19.3777  -15.7375 C   0  0  2  0  0  0  0  0  0  0  0  0
   22.0667  -20.1917  -15.0255 N   0  0  0  0  0  0  0  0  0  0  0  0
   22.4631  -18.7409  -16.9322 C   0  0  0  0  0  0  0  0  0  0  0  0
   21.7500  -19.4109  -17.7153 O   0  0  0  0  0  0  0  0  0  0  0  0
   26.7594  -24.0222  -16.4671 N   0  0  0  0  0  0  0  0  0  0  0  0
   22.7065  -17.3780  -17.2394 C   0  0  0  0  0  0  0  0  0  0  0  0
   22.0671  -16.6783  -18.3334 C   0  0  0  0  0  0  0  0  0  0  0  0
   20.8407  -15.9728  -17.8755 O   0  0  0  0  0  0  0  0  0  0  0  0
   19.9645  -16.5779  -17.2118 O   0  0  0  0  0  0  0  0  0  0  0  0
  2  1  1  1
  2  3  1  0
  3  4  1  0
  4  8  1  0
  4  5  2  0
  6  2  1  0
  6  7  2  0
  9 10  1  0
 10 11  2  0
 10 12  1  0
 12 13  1  0
 13 14  1  0
 14 15  1  0
 16 15  1  6
 16 17  1  0
 17  6  1  0
 18 16  1  0
 19 18  2  0
 20 18  1  0
 21 22  1  0
 21 20  1  0
 22 24  1  0
 23 22  2  0
M  END
$$$$
