DRG.pdb
     RDKit          3D

 24 23  0  0  1  0  0  0  0  0999 V2000
   27.5396  -22.0794  -16.6612 N   0  0  0  0  0  0  0  0  0  0  0  0
   27.2126  -20.9185  -15.8594 C   0  0  1  0  0  0  0  0  0  0  0  0
   26.6319  -19.8338  -16.7412 C   0  0  0  0  0  0  0  0  0  0  0  0
   27.7169  -19.1808  -17.5143 C   0  0  0  0  0  0  0  0  0  0  0  0
   28.9105  -19.5150  -17.3822 O   0  0  0  0  0  0  0  0  0  0  0  0
   26.2698  -21.3359  -14.8015 C   0  0  0  0  0  0  0  0  0  0  0  0
   25.3871  -22.1884  -15.0596 O   0  0  0  0  0  0  0  0  0  0  0  0
   27.4205  -18.1647  -18.4183 O   0  0  0  0  0  0  0  0  0  0  0  0
   30.0815  -21.0867   -8.1442 N   0  0  0  0  0  0  0  0  0  0  0  0
   30.4579  -21.8035   -9.3073 C   0  0  0  0  0  0  0  0  0  0  0  0
   31.5557  -22.5098   -9.3755 N   0  0  0  0  0  0  0  0  0  0  0  0
   29.6579  -21.8019  -10.4968 N   0  0  0  0  0  0  0  0  0  0  0  0
   28.3881  -21.1649  -10.5411 C   0  0  0  0  0  0  0  0  0  0  0  0
   27.2449  -22.0171  -10.9893 C   0  0  0  0  0  0  0  0  0  0  0  0
   26.0307  -21.0850  -11.1104 C   0  0  0  0  0  0  0  0  0  0  0  0
   25.3467  -21.2439  -12.4587 C   0  0  2  0  0  0  0  0  0  0  0  0
   26.2828  -20.8337  -13.4713 N   0  0  0  0  0  0  0  0  0  0  0  0
   24.1323  -20.4304  -12.4175 C   0  0  0  0  0  0  0  0  0  0  0  0
   24.2117  -19.2175  -12.1121 O   0  0  0  0  0  0  0  0  0  0  0  0
   31.7094  -23.0187  -10.2718 N   0  0  0  0  0  0  0  0  0  0  0  0
   22.8548  -20.9696  -12.7149 C   0  0  0  0  0  0  0  0  0  0  0  0
   21.6339  -20.1923  -12.6926 C   0  0  0  0  0  0  0  0  0  0  0  0
   20.7300  -20.6438  -11.6014 O   0  0  0  0  0  0  0  0  0  0  0  0
   21.0311  -21.6316  -10.8887 O   0  0  0  0  0  0  0  0  0  0  0  0
  2  1  1  6
  2  3  1  0
  3  4  1  0
  4  8  1  0
  4  5  2  0
  6  2  1  0
  6  7  2  0
  9 10  1  0
 10 11  2  0
 10 12  1  0
 12 13  1  0
 13 14  1  0
 14 15  1  0
 16 15  1  1
 16 17  1  0
 17  6  1  0
 18 16  1  0
 19 18  2  0
 20 18  1  0
 21 22  1  0
 21 20  1  0
 22 24  1  0
 23 22  2  0
M  END
$$$$
