DRG.pdb
     RDKit          3D

 24 23  0  0  1  0  0  0  0  0999 V2000
   19.6668   -8.4047  -13.1083 N   0  0  0  0  0  0  0  0  0  0  0  0
   19.6806   -7.3075  -12.1630 C   0  0  1  0  0  0  0  0  0  0  0  0
   20.2922   -6.0826  -12.8087 C   0  0  0  0  0  0  0  0  0  0  0  0
   21.7670   -6.2314  -12.8712 C   0  0  0  0  0  0  0  0  0  0  0  0
   22.3109   -7.3485  -12.9715 O   0  0  0  0  0  0  0  0  0  0  0  0
   18.2943   -7.0634  -11.7150 C   0  0  0  0  0  0  0  0  0  0  0  0
   17.3692   -7.0176  -12.5605 O   0  0  0  0  0  0  0  0  0  0  0  0
   22.5882   -5.1088  -12.8182 O   0  0  0  0  0  0  0  0  0  0  0  0
   12.3728  -10.6778   -8.3743 N   0  0  0  0  0  0  0  0  0  0  0  0
   11.8570   -9.3588   -8.3243 C   0  0  0  0  0  0  0  0  0  0  0  0
   10.5853   -9.0935   -8.4687 N   0  0  0  0  0  0  0  0  0  0  0  0
   12.6988   -8.2179   -8.1129 N   0  0  0  0  0  0  0  0  0  0  0  0
   14.0617   -8.2113   -8.5163 C   0  0  0  0  0  0  0  0  0  0  0  0
   14.8288   -6.9666   -8.2059 C   0  0  0  0  0  0  0  0  0  0  0  0
   16.2735   -7.2237   -8.6582 C   0  0  0  0  0  0  0  0  0  0  0  0
   16.5825   -6.4943   -9.9556 C   0  0  2  0  0  0  0  0  0  0  0  0
   17.9112   -6.8708  -10.3594 N   0  0  0  0  0  0  0  0  0  0  0  0
   16.4339   -5.0650   -9.6853 C   0  0  0  0  0  0  0  0  0  0  0  0
   17.1794   -4.5155   -8.8408 O   0  0  0  0  0  0  0  0  0  0  0  0
   10.3269   -8.0851   -8.4210 N   0  0  0  0  0  0  0  0  0  0  0  0
   15.4674   -4.2695  -10.3518 C   0  0  0  0  0  0  0  0  0  0  0  0
   15.3267   -2.8435  -10.1472 C   0  0  0  0  0  0  0  0  0  0  0  0
   14.5802   -2.5520   -8.8945 O   0  0  0  0  0  0  0  0  0  0  0  0
   14.1121   -3.4841   -8.1971 O   0  0  0  0  0  0  0  0  0  0  0  0
  2  1  1  6
  2  3  1  0
  3  4  1  0
  4  8  1  0
  4  5  2  0
  6  2  1  0
  6  7  2  0
  9 10  1  0
 10 11  2  0
 10 12  1  0
 12 13  1  0
 13 14  1  0
 14 15  1  0
 16 15  1  1
 16 17  1  0
 17  6  1  0
 18 16  1  0
 19 18  2  0
 20 18  1  0
 21 22  1  0
 21 20  1  0
 22 24  1  0
 23 22  2  0
M  END
$$$$
