DRG.pdb
     RDKit          3D

 24 23  0  0  1  0  0  0  0  0999 V2000
   26.4530  -19.1356  -19.3262 N   0  0  0  0  0  0  0  0  0  0  0  0
   25.8304  -18.4432  -18.2169 C   0  0  1  0  0  0  0  0  0  0  0  0
   24.9937  -17.2932  -18.7353 C   0  0  0  0  0  0  0  0  0  0  0  0
   25.8788  -16.1888  -19.1802 C   0  0  0  0  0  0  0  0  0  0  0  0
   26.1985  -16.0445  -20.3764 O   0  0  0  0  0  0  0  0  0  0  0  0
   25.0216  -19.4179  -17.4566 C   0  0  0  0  0  0  0  0  0  0  0  0
   25.3087  -20.6375  -17.5113 O   0  0  0  0  0  0  0  0  0  0  0  0
   26.3793  -15.2755  -18.2568 O   0  0  0  0  0  0  0  0  0  0  0  0
   24.5205  -20.6952   -9.6854 N   0  0  0  0  0  0  0  0  0  0  0  0
   25.5820  -21.0878  -10.5383 C   0  0  0  0  0  0  0  0  0  0  0  0
   26.5867  -21.8143  -10.1246 N   0  0  0  0  0  0  0  0  0  0  0  0
   25.6288  -20.7115  -11.9208 N   0  0  0  0  0  0  0  0  0  0  0  0
   24.6088  -19.9185  -12.5132 C   0  0  0  0  0  0  0  0  0  0  0  0
   24.8551  -19.4829  -13.9216 C   0  0  0  0  0  0  0  0  0  0  0  0
   24.2700  -20.5795  -14.8232 C   0  0  0  0  0  0  0  0  0  0  0  0
   23.2355  -20.0111  -15.7811 C   0  0  2  0  0  0  0  0  0  0  0  0
   23.9087  -19.0745  -16.6411 N   0  0  0  0  0  0  0  0  0  0  0  0
   22.1854  -19.4067  -14.9626 C   0  0  0  0  0  0  0  0  0  0  0  0
   22.3468  -18.2507  -14.5061 O   0  0  0  0  0  0  0  0  0  0  0  0
   27.3226  -22.0126  -10.8353 N   0  0  0  0  0  0  0  0  0  0  0  0
   20.9778  -20.0879  -14.6645 C   0  0  0  0  0  0  0  0  0  0  0  0
   19.8666  -19.4772  -13.9663 C   0  0  0  0  0  0  0  0  0  0  0  0
   19.9468  -19.7317  -12.5033 O   0  0  0  0  0  0  0  0  0  0  0  0
   20.9254  -20.3455  -12.0133 O   0  0  0  0  0  0  0  0  0  0  0  0
  2  1  1  6
  2  3  1  0
  3  4  1  0
  4  8  1  0
  4  5  2  0
  6  2  1  0
  6  7  2  0
  9 10  1  0
 10 11  2  0
 10 12  1  0
 12 13  1  0
 13 14  1  0
 14 15  1  0
 16 15  1  1
 16 17  1  0
 17  6  1  0
 18 16  1  0
 19 18  2  0
 20 18  1  0
 21 22  1  0
 21 20  1  0
 22 24  1  0
 23 22  2  0
M  END
$$$$
