DRG.pdb
     RDKit          3D

 24 23  0  0  1  0  0  0  0  0999 V2000
   15.3020   -8.4832   -9.0973 N   0  0  0  0  0  0  0  0  0  0  0  0
   15.8981   -7.3125   -9.7070 C   0  0  1  0  0  0  0  0  0  0  0  0
   16.0559   -6.2197   -8.6716 C   0  0  0  0  0  0  0  0  0  0  0  0
   14.7361   -5.6061   -8.3841 C   0  0  0  0  0  0  0  0  0  0  0  0
   13.7195   -5.8943   -9.0454 O   0  0  0  0  0  0  0  0  0  0  0  0
   17.1932   -7.7061  -10.2986 C   0  0  0  0  0  0  0  0  0  0  0  0
   18.0251   -8.3373   -9.6042 O   0  0  0  0  0  0  0  0  0  0  0  0
   14.6025   -4.6805   -7.3532 O   0  0  0  0  0  0  0  0  0  0  0  0
   18.3196  -12.6932  -16.7287 N   0  0  0  0  0  0  0  0  0  0  0  0
   17.3336  -12.6814  -15.7108 C   0  0  0  0  0  0  0  0  0  0  0  0
   16.2206  -13.3609  -15.7998 N   0  0  0  0  0  0  0  0  0  0  0  0
   17.4884  -11.9176  -14.5076 N   0  0  0  0  0  0  0  0  0  0  0  0
   18.0067  -10.5943  -14.5254 C   0  0  0  0  0  0  0  0  0  0  0  0
   18.2038   -9.9518  -13.1903 C   0  0  0  0  0  0  0  0  0  0  0  0
   18.6600   -8.5117  -13.4653 C   0  0  0  0  0  0  0  0  0  0  0  0
   18.8800   -7.7468  -12.1701 C   0  0  2  0  0  0  0  0  0  0  0  0
   17.5855   -7.4186  -11.6347 N   0  0  0  0  0  0  0  0  0  0  0  0
   19.6926   -6.5769  -12.5003 C   0  0  0  0  0  0  0  0  0  0  0  0
   19.1296   -5.5102  -12.8408 O   0  0  0  0  0  0  0  0  0  0  0  0
   15.5923  -13.3076  -14.9702 N   0  0  0  0  0  0  0  0  0  0  0  0
   21.1095   -6.6056  -12.4477 C   0  0  0  0  0  0  0  0  0  0  0  0
   21.9493   -5.5253  -12.9197 C   0  0  0  0  0  0  0  0  0  0  0  0
   21.8800   -5.3990  -14.3999 O   0  0  0  0  0  0  0  0  0  0  0  0
   21.2114   -6.2136  -15.0809 O   0  0  0  0  0  0  0  0  0  0  0  0
  2  1  1  1
  2  3  1  0
  3  4  1  0
  4  8  1  0
  4  5  2  0
  6  2  1  0
  6  7  2  0
  9 10  1  0
 10 11  2  0
 10 12  1  0
 12 13  1  0
 13 14  1  0
 14 15  1  0
 16 15  1  6
 16 17  1  0
 17  6  1  0
 18 16  1  0
 19 18  2  0
 20 18  1  0
 21 22  1  0
 21 20  1  0
 22 24  1  0
 23 22  2  0
M  END
$$$$
