DRG.pdb
     RDKit          3D

 24 23  0  0  1  0  0  0  0  0999 V2000
   15.7251  -12.5029  -15.1911 N   0  0  0  0  0  0  0  0  0  0  0  0
   16.7667  -11.9928  -14.3237 C   0  0  1  0  0  0  0  0  0  0  0  0
   18.0648  -11.8789  -15.0940 C   0  0  0  0  0  0  0  0  0  0  0  0
   18.5796  -13.2331  -15.4137 C   0  0  0  0  0  0  0  0  0  0  0  0
   19.0268  -13.5164  -16.5422 O   0  0  0  0  0  0  0  0  0  0  0  0
   16.3258  -10.6896  -13.7858 C   0  0  0  0  0  0  0  0  0  0  0  0
   15.7114   -9.8884  -14.5296 O   0  0  0  0  0  0  0  0  0  0  0  0
   18.5740  -14.2324  -14.4448 O   0  0  0  0  0  0  0  0  0  0  0  0
   15.7132   -5.6701   -7.9427 N   0  0  0  0  0  0  0  0  0  0  0  0
   14.3436   -5.9795   -7.7507 C   0  0  0  0  0  0  0  0  0  0  0  0
   13.4421   -5.0651   -7.5062 N   0  0  0  0  0  0  0  0  0  0  0  0
   13.8497   -7.3239   -7.8093 N   0  0  0  0  0  0  0  0  0  0  0  0
   14.5340   -8.3394   -8.5308 C   0  0  0  0  0  0  0  0  0  0  0  0
   14.9937   -7.9686   -9.9038 C   0  0  0  0  0  0  0  0  0  0  0  0
   15.6654   -9.2194  -10.4887 C   0  0  0  0  0  0  0  0  0  0  0  0
   16.0778   -8.9978  -11.9349 C   0  0  2  0  0  0  0  0  0  0  0  0
   16.5480  -10.2562  -12.4500 N   0  0  0  0  0  0  0  0  0  0  0  0
   17.0957   -7.9480  -11.9304 C   0  0  0  0  0  0  0  0  0  0  0  0
   18.0993   -8.0643  -11.1886 O   0  0  0  0  0  0  0  0  0  0  0  0
   12.4584   -5.4049   -7.4525 N   0  0  0  0  0  0  0  0  0  0  0  0
   16.9880   -6.7916  -12.7441 C   0  0  0  0  0  0  0  0  0  0  0  0
   17.9552   -5.7148  -12.7356 C   0  0  0  0  0  0  0  0  0  0  0  0
   17.5389   -4.6122  -13.6425 O   0  0  0  0  0  0  0  0  0  0  0  0
   16.5580   -4.7526  -14.4121 O   0  0  0  0  0  0  0  0  0  0  0  0
  2  1  1  6
  2  3  1  0
  3  4  1  0
  4  8  1  0
  4  5  2  0
  6  2  1  0
  6  7  2  0
  9 10  1  0
 10 11  2  0
 10 12  1  0
 12 13  1  0
 13 14  1  0
 14 15  1  0
 16 15  1  1
 16 17  1  0
 17  6  1  0
 18 16  1  0
 19 18  2  0
 20 18  1  0
 21 22  1  0
 21 20  1  0
 22 24  1  0
 23 22  2  0
M  END
$$$$
