DRG.pdb
     RDKit          3D

 24 23  0  0  1  0  0  0  0  0999 V2000
   24.4069  -10.8523  -20.2998 N   0  0  0  0  0  0  0  0  0  0  0  0
   24.6711   -9.7311  -19.4219 C   0  0  1  0  0  0  0  0  0  0  0  0
   25.6235   -8.7664  -20.0953 C   0  0  0  0  0  0  0  0  0  0  0  0
   25.9853   -7.6784  -19.1538 C   0  0  0  0  0  0  0  0  0  0  0  0
   25.1394   -7.1460  -18.4089 O   0  0  0  0  0  0  0  0  0  0  0  0
   23.3826   -9.0923  -19.0844 C   0  0  0  0  0  0  0  0  0  0  0  0
   22.6819   -8.5917  -19.9961 O   0  0  0  0  0  0  0  0  0  0  0  0
   27.2980   -7.2214  -19.0809 O   0  0  0  0  0  0  0  0  0  0  0  0
   17.3768  -11.9044  -13.7218 N   0  0  0  0  0  0  0  0  0  0  0  0
   17.5856  -12.0457  -15.1163 C   0  0  0  0  0  0  0  0  0  0  0  0
   17.2807  -13.1372  -15.7675 N   0  0  0  0  0  0  0  0  0  0  0  0
   18.1506  -10.9967  -15.9133 N   0  0  0  0  0  0  0  0  0  0  0  0
   18.8069   -9.8824  -15.3235 C   0  0  0  0  0  0  0  0  0  0  0  0
   19.4022   -8.8958  -16.2754 C   0  0  0  0  0  0  0  0  0  0  0  0
   20.8016   -9.4218  -16.6260 C   0  0  0  0  0  0  0  0  0  0  0  0
   21.5731   -8.4169  -17.4661 C   0  0  2  0  0  0  0  0  0  0  0  0
   22.8550   -8.9965  -17.7676 N   0  0  0  0  0  0  0  0  0  0  0  0
   21.6555   -7.1839  -16.6844 C   0  0  0  0  0  0  0  0  0  0  0  0
   20.6301   -6.4793  -16.5327 O   0  0  0  0  0  0  0  0  0  0  0  0
   17.3732  -13.0845  -16.8041 N   0  0  0  0  0  0  0  0  0  0  0  0
   22.8659   -6.7526  -16.0845 C   0  0  0  0  0  0  0  0  0  0  0  0
   22.9725   -5.5659  -15.2625 C   0  0  0  0  0  0  0  0  0  0  0  0
   22.4308   -5.8072  -13.8987 O   0  0  0  0  0  0  0  0  0  0  0  0
   21.9170   -6.9124  -13.6006 O   0  0  0  0  0  0  0  0  0  0  0  0
  2  1  1  6
  2  3  1  0
  3  4  1  0
  4  8  1  0
  4  5  2  0
  6  2  1  0
  6  7  2  0
  9 10  1  0
 10 11  2  0
 10 12  1  0
 12 13  1  0
 13 14  1  0
 14 15  1  0
 16 15  1  1
 16 17  1  0
 17  6  1  0
 18 16  1  0
 19 18  2  0
 20 18  1  0
 21 22  1  0
 21 20  1  0
 22 24  1  0
 23 22  2  0
M  END
$$$$
