DRG.pdb
     RDKit          3D

 24 23  0  0  1  0  0  0  0  0999 V2000
   22.4588  -14.9650  -19.6494 N   0  0  0  0  0  0  0  0  0  0  0  0
   22.6886  -14.4662  -18.3092 C   0  0  1  0  0  0  0  0  0  0  0  0
   24.1761  -14.3547  -18.0520 C   0  0  0  0  0  0  0  0  0  0  0  0
   24.7308  -15.6915  -17.7256 C   0  0  0  0  0  0  0  0  0  0  0  0
   24.0006  -16.6948  -17.6080 O   0  0  0  0  0  0  0  0  0  0  0  0
   22.0043  -13.1639  -18.1751 C   0  0  0  0  0  0  0  0  0  0  0  0
   22.3542  -12.2027  -18.9007 O   0  0  0  0  0  0  0  0  0  0  0  0
   26.1004  -15.8565  -17.5406 O   0  0  0  0  0  0  0  0  0  0  0  0
   15.9233   -9.6979  -13.7583 N   0  0  0  0  0  0  0  0  0  0  0  0
   15.4031   -9.2872  -15.0109 C   0  0  0  0  0  0  0  0  0  0  0  0
   14.6697   -8.2145  -15.1520 N   0  0  0  0  0  0  0  0  0  0  0  0
   15.6443  -10.0249  -16.2161 N   0  0  0  0  0  0  0  0  0  0  0  0
   16.6138  -11.0627  -16.2743 C   0  0  0  0  0  0  0  0  0  0  0  0
   17.9828  -10.6540  -16.7133 C   0  0  0  0  0  0  0  0  0  0  0  0
   18.8387  -11.9289  -16.7071 C   0  0  0  0  0  0  0  0  0  0  0  0
   20.2527  -11.6453  -17.1876 C   0  0  2  0  0  0  0  0  0  0  0  0
   20.9467  -12.9035  -17.2612 N   0  0  0  0  0  0  0  0  0  0  0  0
   20.8434  -10.7037  -16.2376 C   0  0  0  0  0  0  0  0  0  0  0  0
   21.0347  -11.0613  -15.0517 O   0  0  0  0  0  0  0  0  0  0  0  0
   14.3389   -8.0187  -16.1205 N   0  0  0  0  0  0  0  0  0  0  0  0
   21.2125   -9.3871  -16.6137 C   0  0  0  0  0  0  0  0  0  0  0  0
   21.7908   -8.4264  -15.6983 C   0  0  0  0  0  0  0  0  0  0  0  0
   20.7376   -7.5959  -15.0559 O   0  0  0  0  0  0  0  0  0  0  0  0
   19.5243   -7.7959  -15.3052 O   0  0  0  0  0  0  0  0  0  0  0  0
  2  1  1  6
  2  3  1  0
  3  4  1  0
  4  8  1  0
  4  5  2  0
  6  2  1  0
  6  7  2  0
  9 10  1  0
 10 11  2  0
 10 12  1  0
 12 13  1  0
 13 14  1  0
 14 15  1  0
 16 15  1  1
 16 17  1  0
 17  6  1  0
 18 16  1  0
 19 18  2  0
 20 18  1  0
 21 22  1  0
 21 20  1  0
 22 24  1  0
 23 22  2  0
M  END
$$$$
