DRG.pdb
     RDKit          3D

 24 23  0  0  1  0  0  0  0  0999 V2000
   27.8635  -20.3969  -19.6902 N   0  0  0  0  0  0  0  0  0  0  0  0
   27.8942  -19.6508  -18.4492 C   0  0  1  0  0  0  0  0  0  0  0  0
   27.4755  -18.2183  -18.7020 C   0  0  0  0  0  0  0  0  0  0  0  0
   28.6435  -17.4274  -19.1616 C   0  0  0  0  0  0  0  0  0  0  0  0
   29.7138  -17.4047  -18.5230 O   0  0  0  0  0  0  0  0  0  0  0  0
   27.0056  -20.3248  -17.4805 C   0  0  0  0  0  0  0  0  0  0  0  0
   26.2089  -21.2068  -17.8805 O   0  0  0  0  0  0  0  0  0  0  0  0
   28.5681  -16.6818  -20.3346 O   0  0  0  0  0  0  0  0  0  0  0  0
   25.8626  -19.3668   -9.0221 N   0  0  0  0  0  0  0  0  0  0  0  0
   25.1747  -20.5692   -9.3208 C   0  0  0  0  0  0  0  0  0  0  0  0
   24.0553  -20.9049   -8.7354 N   0  0  0  0  0  0  0  0  0  0  0  0
   25.6626  -21.5068  -10.2893 N   0  0  0  0  0  0  0  0  0  0  0  0
   26.4018  -21.0866  -11.4282 C   0  0  0  0  0  0  0  0  0  0  0  0
   25.6765  -21.1400  -12.7340 C   0  0  0  0  0  0  0  0  0  0  0  0
   26.6762  -20.6788  -13.8044 C   0  0  0  0  0  0  0  0  0  0  0  0
   26.0273  -20.6270  -15.1781 C   0  0  2  0  0  0  0  0  0  0  0  0
   26.9799  -20.0461  -16.0865 N   0  0  0  0  0  0  0  0  0  0  0  0
   24.7983  -19.8473  -15.0383 C   0  0  0  0  0  0  0  0  0  0  0  0
   24.8648  -18.6495  -14.6754 O   0  0  0  0  0  0  0  0  0  0  0  0
   23.6284  -21.7991   -9.0580 N   0  0  0  0  0  0  0  0  0  0  0  0
   23.5204  -20.4028  -15.3023 C   0  0  0  0  0  0  0  0  0  0  0  0
   22.2861  -19.6539  -15.1988 C   0  0  0  0  0  0  0  0  0  0  0  0
   21.5643  -19.9801  -13.9401 O   0  0  0  0  0  0  0  0  0  0  0  0
   22.0146  -20.8445  -13.1500 O   0  0  0  0  0  0  0  0  0  0  0  0
  2  1  1  6
  2  3  1  0
  3  4  1  0
  4  8  1  0
  4  5  2  0
  6  2  1  0
  6  7  2  0
  9 10  1  0
 10 11  2  0
 10 12  1  0
 12 13  1  0
 13 14  1  0
 14 15  1  0
 16 15  1  1
 16 17  1  0
 17  6  1  0
 18 16  1  0
 19 18  2  0
 20 18  1  0
 21 22  1  0
 21 20  1  0
 22 24  1  0
 23 22  2  0
M  END
$$$$
