LWM.pdb
     RDKit          3D

 31 32  0  0  1  0  0  0  0  0999 V2000
   19.2625  -24.8028  -19.7280 C   0  0  0  0  0  0  0  0  0  0  0  0
   20.0302  -23.6418  -19.1696 C   0  0  1  0  0  0  0  0  0  0  0  0
   19.1426  -22.4256  -19.1628 C   0  0  0  0  0  0  0  0  0  0  0  0
   20.6420  -23.9235  -17.8322 C   0  0  0  0  0  0  0  0  0  0  0  0
   21.2195  -22.6666  -17.2553 C   0  0  2  0  0  0  0  0  0  0  0  0
   22.5019  -22.3453  -17.8508 N   0  0  0  0  0  0  0  0  0  0  0  0
   21.2651  -22.6756  -15.7847 C   0  0  0  0  0  0  0  0  0  0  0  0
   21.7484  -23.6885  -15.2194 O   0  0  0  0  0  0  0  0  0  0  0  0
   20.8018  -21.6206  -14.9526 N   0  0  0  0  0  0  0  0  0  0  0  0
   20.9414  -21.6463  -13.5336 C   0  0  1  0  0  0  0  0  0  0  0  0
   21.3600  -20.2699  -13.0699 C   0  0  0  0  0  0  0  0  0  0  0  0
   22.7868  -20.2641  -12.6034 C   0  0  0  0  0  0  0  0  0  0  0  0
   23.9248  -20.1234  -13.3703 C   0  0  0  0  0  0  0  0  0  0  0  0
   25.0080  -20.1727  -12.5748 N   0  0  0  0  0  0  0  0  0  0  0  0
   24.6408  -20.3429  -11.2882 C   0  0  0  0  0  0  0  0  0  0  0  0
   25.3564  -20.4529  -10.1144 C   0  0  0  0  0  0  0  0  0  0  0  0
   24.6788  -20.6237   -8.9277 C   0  0  0  0  0  0  0  0  0  0  0  0
   23.2893  -20.6792   -8.9588 C   0  0  0  0  0  0  0  0  0  0  0  0
   22.5731  -20.5694  -10.1315 C   0  0  0  0  0  0  0  0  0  0  0  0
   23.2512  -20.3996  -11.3093 C   0  0  0  0  0  0  0  0  0  0  0  0
   19.7648  -22.1739  -12.8265 C   0  0  0  0  0  0  0  0  0  0  0  0
   18.6308  -22.1845  -13.4148 O   0  0  0  0  0  0  0  0  0  0  0  0
   16.5429  -26.1785   -6.8237 C   0  0  0  0  0  0  0  0  0  0  0  0
   18.0760  -25.4333   -7.4673 S   0  0  0  0  0  0  0  0  0  0  0  0
   17.6298  -24.5573   -9.0108 C   0  0  0  0  0  0  0  0  0  0  0  0
   18.8794  -23.9432   -9.6021 C   0  0  0  0  0  0  0  0  0  0  0  0
   18.5806  -23.2696  -10.9281 C   0  0  2  0  0  0  0  0  0  0  0  0
   19.7792  -22.6902  -11.5025 N   0  0  0  0  0  0  0  0  0  0  0  0
   17.6379  -22.1519  -10.6531 C   0  0  0  0  0  0  0  0  0  0  0  0
   16.2698  -22.2701  -10.8663 O   0  0  0  0  0  0  0  0  0  0  0  0
   18.0365  -21.0433  -10.2129 O   0  0  0  0  0  0  0  0  0  0  0  0
  2  1  1  1
  2  3  1  0
  4  2  1  0
  5  4  1  0
  5  6  1  6
  7  8  2  0
  7  5  1  0
  9  7  1  0
 10  9  1  0
 10 11  1  1
 12 11  1  0
 12 13  2  0
 14 13  1  0
 15 20  2  0
 15 14  1  0
 16 15  1  0
 17 18  1  0
 17 16  2  0
 18 19  2  0
 19 20  1  0
 20 12  1  0
 21 10  1  0
 21 28  1  0
 22 21  2  0
 23 24  1  0
 25 24  1  0
 25 26  1  0
 27 26  1  1
 27 28  1  0
 27 29  1  0
 29 31  2  0
 29 30  1  0
M  END
$$$$
