LWM.pdb
     RDKit          3D

 31 32  0  0  1  0  0  0  0  0999 V2000
   30.1429  -22.7122  -16.6438 C   0  0  0  0  0  0  0  0  0  0  0  0
   29.0596  -21.7192  -16.3443 C   0  0  1  0  0  0  0  0  0  0  0  0
   28.2353  -21.5044  -17.5859 C   0  0  0  0  0  0  0  0  0  0  0  0
   28.2315  -22.0867  -15.1520 C   0  0  0  0  0  0  0  0  0  0  0  0
   27.2177  -21.0168  -14.8801 C   0  0  2  0  0  0  0  0  0  0  0  0
   27.8433  -19.7212  -14.7001 N   0  0  0  0  0  0  0  0  0  0  0  0
   26.2994  -21.3589  -13.7826 C   0  0  0  0  0  0  0  0  0  0  0  0
   25.7402  -22.4838  -13.8152 O   0  0  0  0  0  0  0  0  0  0  0  0
   25.9963  -20.5093  -12.6842 N   0  0  0  0  0  0  0  0  0  0  0  0
   25.0867  -20.8859  -11.6525 C   0  0  1  0  0  0  0  0  0  0  0  0
   25.4849  -20.1722  -10.3809 C   0  0  0  0  0  0  0  0  0  0  0  0
   26.7753  -20.7119   -9.8360 C   0  0  0  0  0  0  0  0  0  0  0  0
   27.6041  -21.6549  -10.4079 C   0  0  0  0  0  0  0  0  0  0  0  0
   28.6609  -21.8667   -9.6035 N   0  0  0  0  0  0  0  0  0  0  0  0
   28.5760  -21.0954   -8.5004 C   0  0  0  0  0  0  0  0  0  0  0  0
   29.3883  -20.9436   -7.3963 C   0  0  0  0  0  0  0  0  0  0  0  0
   29.0234  -20.0536   -6.4107 C   0  0  0  0  0  0  0  0  0  0  0  0
   27.8416  -19.3371   -6.5677 C   0  0  0  0  0  0  0  0  0  0  0  0
   27.0289  -19.4881   -7.6710 C   0  0  0  0  0  0  0  0  0  0  0  0
   27.3958  -20.3743   -8.6486 C   0  0  0  0  0  0  0  0  0  0  0  0
   23.6711  -20.7084  -12.0094 C   0  0  0  0  0  0  0  0  0  0  0  0
   23.2498  -19.5520  -12.3522 O   0  0  0  0  0  0  0  0  0  0  0  0
   17.7641  -24.5786  -11.4824 C   0  0  0  0  0  0  0  0  0  0  0  0
   18.2379  -24.0805  -13.1698 S   0  0  0  0  0  0  0  0  0  0  0  0
   19.1312  -22.4905  -13.0198 C   0  0  0  0  0  0  0  0  0  0  0  0
   20.5632  -22.7710  -12.6210 C   0  0  0  0  0  0  0  0  0  0  0  0
   21.3451  -21.4817  -12.4544 C   0  0  2  0  0  0  0  0  0  0  0  0
   22.6987  -21.7449  -12.0066 N   0  0  0  0  0  0  0  0  0  0  0  0
   20.6726  -20.6921  -11.3877 C   0  0  0  0  0  0  0  0  0  0  0  0
   19.7078  -19.7340  -11.6749 O   0  0  0  0  0  0  0  0  0  0  0  0
   20.9467  -20.8554  -10.1712 O   0  0  0  0  0  0  0  0  0  0  0  0
  2  1  1  6
  2  3  1  0
  4  2  1  0
  5  4  1  0
  5  6  1  1
  7  8  2  0
  7  5  1  0
  9  7  1  0
 10  9  1  0
 10 11  1  1
 12 11  1  0
 12 13  2  0
 14 13  1  0
 15 20  2  0
 15 14  1  0
 16 15  1  0
 17 18  1  0
 17 16  2  0
 18 19  2  0
 19 20  1  0
 20 12  1  0
 21 10  1  0
 21 28  1  0
 22 21  2  0
 23 24  1  0
 25 24  1  0
 25 26  1  0
 27 26  1  1
 27 28  1  0
 27 29  1  0
 29 31  2  0
 29 30  1  0
M  END
$$$$
