LWM.pdb
     RDKit          3D

 31 32  0  0  1  0  0  0  0  0999 V2000
   31.3903  -22.1025  -20.0460 C   0  0  0  0  0  0  0  0  0  0  0  0
   30.4534  -22.7278  -19.0559 C   0  0  1  0  0  0  0  0  0  0  0  0
   31.0265  -24.0446  -18.6035 C   0  0  0  0  0  0  0  0  0  0  0  0
   30.1048  -21.8221  -17.9155 C   0  0  0  0  0  0  0  0  0  0  0  0
   29.3105  -22.5704  -16.8881 C   0  0  2  0  0  0  0  0  0  0  0  0
   28.5658  -23.6641  -17.4811 N   0  0  0  0  0  0  0  0  0  0  0  0
   28.4661  -21.6934  -16.0619 C   0  0  0  0  0  0  0  0  0  0  0  0
   29.0356  -20.8085  -15.3751 O   0  0  0  0  0  0  0  0  0  0  0  0
   27.0492  -21.7725  -15.9821 N   0  0  0  0  0  0  0  0  0  0  0  0
   26.2750  -20.8739  -15.1903 C   0  0  1  0  0  0  0  0  0  0  0  0
   25.0261  -20.5127  -15.9611 C   0  0  0  0  0  0  0  0  0  0  0  0
   24.2290  -19.4625  -15.2434 C   0  0  0  0  0  0  0  0  0  0  0  0
   24.6634  -18.2313  -14.7976 C   0  0  0  0  0  0  0  0  0  0  0  0
   23.6438  -17.5870  -14.2028 N   0  0  0  0  0  0  0  0  0  0  0  0
   22.5275  -18.3435  -14.2304 C   0  0  0  0  0  0  0  0  0  0  0  0
   21.2450  -18.1417  -13.7654 C   0  0  0  0  0  0  0  0  0  0  0  0
   20.3005  -19.1269  -13.9498 C   0  0  0  0  0  0  0  0  0  0  0  0
   20.6789  -20.2955  -14.6022 C   0  0  0  0  0  0  0  0  0  0  0  0
   21.9607  -20.4982  -15.0674 C   0  0  0  0  0  0  0  0  0  0  0  0
   22.8966  -19.5157  -14.8819 C   0  0  0  0  0  0  0  0  0  0  0  0
   26.0074  -21.3568  -13.8272 C   0  0  0  0  0  0  0  0  0  0  0  0
   25.6024  -22.5560  -13.6537 O   0  0  0  0  0  0  0  0  0  0  0  0
   27.3321  -18.5560   -7.7039 C   0  0  0  0  0  0  0  0  0  0  0  0
   27.2215  -20.3722   -7.6085 S   0  0  0  0  0  0  0  0  0  0  0  0
   26.0142  -20.8953   -8.8804 C   0  0  0  0  0  0  0  0  0  0  0  0
   26.4683  -20.3765  -10.2269 C   0  0  0  0  0  0  0  0  0  0  0  0
   25.7839  -21.1219  -11.3571 C   0  0  2  0  0  0  0  0  0  0  0  0
   26.1652  -20.5808  -12.6471 N   0  0  0  0  0  0  0  0  0  0  0  0
   24.3195  -20.9082  -11.2039 C   0  0  0  0  0  0  0  0  0  0  0  0
   23.5403  -21.7025  -10.3714 O   0  0  0  0  0  0  0  0  0  0  0  0
   23.7157  -19.9952  -11.8231 O   0  0  0  0  0  0  0  0  0  0  0  0
  2  1  1  6
  2  3  1  0
  4  2  1  0
  5  4  1  0
  5  6  1  6
  7  8  2  0
  7  5  1  0
  9  7  1  0
 10  9  1  0
 10 11  1  6
 12 11  1  0
 12 13  2  0
 14 13  1  0
 15 20  2  0
 15 14  1  0
 16 15  1  0
 17 18  1  0
 17 16  2  0
 18 19  2  0
 19 20  1  0
 20 12  1  0
 21 10  1  0
 21 28  1  0
 22 21  2  0
 23 24  1  0
 25 24  1  0
 25 26  1  0
 27 26  1  1
 27 28  1  0
 27 29  1  0
 29 31  2  0
 29 30  1  0
M  END
$$$$
