LWM.pdb
     RDKit          3D

 31 32  0  0  1  0  0  0  0  0999 V2000
   17.3736  -18.8448    0.1254 C   0  0  0  0  0  0  0  0  0  0  0  0
   16.9403  -19.1012    1.5380 C   0  0  1  0  0  0  0  0  0  0  0  0
   16.8690  -20.5878    1.7662 C   0  0  0  0  0  0  0  0  0  0  0  0
   17.7840  -18.3959    2.5544 C   0  0  0  0  0  0  0  0  0  0  0  0
   17.3615  -18.7906    3.9372 C   0  0  2  0  0  0  0  0  0  0  0  0
   15.9426  -18.5759    4.1441 N   0  0  0  0  0  0  0  0  0  0  0  0
   18.1860  -18.1754    4.9891 C   0  0  0  0  0  0  0  0  0  0  0  0
   19.4350  -18.2597    4.8794 O   0  0  0  0  0  0  0  0  0  0  0  0
   17.6738  -17.4902    6.1241 N   0  0  0  0  0  0  0  0  0  0  0  0
   18.5194  -16.8803    7.0970 C   0  0  1  0  0  0  0  0  0  0  0  0
   17.8756  -15.5889    7.5470 C   0  0  0  0  0  0  0  0  0  0  0  0
   18.2114  -14.4607    6.6154 C   0  0  0  0  0  0  0  0  0  0  0  0
   17.4542  -13.9768    5.5686 C   0  0  0  0  0  0  0  0  0  0  0  0
   18.1069  -12.9598    4.9785 N   0  0  0  0  0  0  0  0  0  0  0  0
   19.2868  -12.7369    5.5929 C   0  0  0  0  0  0  0  0  0  0  0  0
   20.3012  -11.8283    5.3758 C   0  0  0  0  0  0  0  0  0  0  0  0
   21.4090  -11.8497    6.1938 C   0  0  0  0  0  0  0  0  0  0  0  0
   21.4625  -12.7933    7.2142 C   0  0  0  0  0  0  0  0  0  0  0  0
   20.4490  -13.7020    7.4320 C   0  0  0  0  0  0  0  0  0  0  0  0
   19.3492  -13.6770    6.6161 C   0  0  0  0  0  0  0  0  0  0  0  0
   18.8932  -17.7703    8.2064 C   0  0  0  0  0  0  0  0  0  0  0  0
   17.9978  -18.4939    8.7605 O   0  0  0  0  0  0  0  0  0  0  0  0
   20.3737  -23.3951    6.8252 C   0  0  0  0  0  0  0  0  0  0  0  0
   21.4372  -22.0429    7.4255 S   0  0  0  0  0  0  0  0  0  0  0  0
   20.4501  -21.0942    8.6398 C   0  0  0  0  0  0  0  0  0  0  0  0
   21.3239  -20.0176    9.2444 C   0  0  0  0  0  0  0  0  0  0  0  0
   20.4860  -18.8697    9.7751 C   0  0  2  0  0  0  0  0  0  0  0  0
   20.2066  -17.9006    8.7335 N   0  0  0  0  0  0  0  0  0  0  0  0
   21.2931  -18.1785   10.8165 C   0  0  0  0  0  0  0  0  0  0  0  0
   21.6272  -18.7900   12.0188 O   0  0  0  0  0  0  0  0  0  0  0  0
   21.7125  -17.0036   10.6569 O   0  0  0  0  0  0  0  0  0  0  0  0
  2  1  1  6
  2  3  1  0
  4  2  1  0
  5  4  1  0
  5  6  1  1
  7  8  2  0
  7  5  1  0
  9  7  1  0
 10  9  1  0
 10 11  1  1
 12 11  1  0
 12 13  2  0
 14 13  1  0
 15 20  2  0
 15 14  1  0
 16 15  1  0
 17 18  1  0
 17 16  2  0
 18 19  2  0
 19 20  1  0
 20 12  1  0
 21 10  1  0
 21 28  1  0
 22 21  2  0
 23 24  1  0
 25 24  1  0
 25 26  1  0
 27 26  1  6
 27 28  1  0
 27 29  1  0
 29 31  2  0
 29 30  1  0
M  END
$$$$
