LWM.pdb
     RDKit          3D

 31 32  0  0  1  0  0  0  0  0999 V2000
   29.1232  -16.2449  -18.3652 C   0  0  0  0  0  0  0  0  0  0  0  0
   28.9427  -17.5762  -17.6988 C   0  0  1  0  0  0  0  0  0  0  0  0
   30.1882  -18.3978  -17.9009 C   0  0  0  0  0  0  0  0  0  0  0  0
   28.5427  -17.4697  -16.2597 C   0  0  0  0  0  0  0  0  0  0  0  0
   28.4095  -18.8368  -15.6600 C   0  0  2  0  0  0  0  0  0  0  0  0
   28.3374  -19.8635  -16.6812 N   0  0  0  0  0  0  0  0  0  0  0  0
   27.3138  -18.9329  -14.6828 C   0  0  0  0  0  0  0  0  0  0  0  0
   27.2927  -18.1002  -13.7419 O   0  0  0  0  0  0  0  0  0  0  0  0
   26.2735  -19.9005  -14.7236 N   0  0  0  0  0  0  0  0  0  0  0  0
   25.2297  -19.9447  -13.7528 C   0  0  1  0  0  0  0  0  0  0  0  0
   24.0549  -20.6862  -14.3483 C   0  0  0  0  0  0  0  0  0  0  0  0
   22.8632  -20.6379  -13.4367 C   0  0  0  0  0  0  0  0  0  0  0  0
   22.3296  -19.5348  -12.8030 C   0  0  0  0  0  0  0  0  0  0  0  0
   21.2639  -19.9110  -12.0740 N   0  0  0  0  0  0  0  0  0  0  0  0
   21.0560  -21.2383  -12.1928 C   0  0  0  0  0  0  0  0  0  0  0  0
   20.1147  -22.0927  -11.6582 C   0  0  0  0  0  0  0  0  0  0  0  0
   20.1650  -23.4317  -11.9759 C   0  0  0  0  0  0  0  0  0  0  0  0
   21.1702  -23.8742  -12.8294 C   0  0  0  0  0  0  0  0  0  0  0  0
   22.1116  -23.0210  -13.3643 C   0  0  0  0  0  0  0  0  0  0  0  0
   22.0577  -21.6901  -13.0457 C   0  0  0  0  0  0  0  0  0  0  0  0
   25.6525  -20.4645  -12.4437 C   0  0  0  0  0  0  0  0  0  0  0  0
   26.5587  -21.3633  -12.3874 O   0  0  0  0  0  0  0  0  0  0  0  0
   29.6026  -20.1272   -6.7141 C   0  0  0  0  0  0  0  0  0  0  0  0
   28.0044  -19.2956   -6.9867 S   0  0  0  0  0  0  0  0  0  0  0  0
   26.9486  -20.4706   -7.9105 C   0  0  0  0  0  0  0  0  0  0  0  0
   26.6065  -19.8665   -9.2545 C   0  0  0  0  0  0  0  0  0  0  0  0
   25.5434  -20.6834   -9.9644 C   0  0  2  0  0  0  0  0  0  0  0  0
   25.1240  -20.0404  -11.1944 N   0  0  0  0  0  0  0  0  0  0  0  0
   24.3571  -20.7384   -9.0681 C   0  0  0  0  0  0  0  0  0  0  0  0
   24.1081  -21.8249   -8.2383 O   0  0  0  0  0  0  0  0  0  0  0  0
   23.5207  -19.8005   -9.0192 O   0  0  0  0  0  0  0  0  0  0  0  0
  2  1  1  1
  2  3  1  0
  4  2  1  0
  5  4  1  0
  5  6  1  6
  7  8  2  0
  7  5  1  0
  9  7  1  0
 10  9  1  0
 10 11  1  6
 12 11  1  0
 12 13  2  0
 14 13  1  0
 15 20  2  0
 15 14  1  0
 16 15  1  0
 17 18  1  0
 17 16  2  0
 18 19  2  0
 19 20  1  0
 20 12  1  0
 21 10  1  0
 21 28  1  0
 22 21  2  0
 23 24  1  0
 25 24  1  0
 25 26  1  0
 27 26  1  1
 27 28  1  0
 27 29  1  0
 29 31  2  0
 29 30  1  0
M  END
$$$$
