LWM.pdb
     RDKit          3D

 31 32  0  0  1  0  0  0  0  0999 V2000
   27.4883  -16.9978  -15.4113 C   0  0  0  0  0  0  0  0  0  0  0  0
   27.9585  -18.3588  -14.9921 C   0  0  1  0  0  0  0  0  0  0  0  0
   29.4072  -18.5148  -15.3716 C   0  0  0  0  0  0  0  0  0  0  0  0
   27.6997  -18.6567  -13.5476 C   0  0  0  0  0  0  0  0  0  0  0  0
   28.1028  -20.0653  -13.2323 C   0  0  2  0  0  0  0  0  0  0  0  0
   28.4261  -20.8101  -14.4336 N   0  0  0  0  0  0  0  0  0  0  0  0
   27.1312  -20.7650  -12.3773 C   0  0  0  0  0  0  0  0  0  0  0  0
   26.1699  -21.3484  -12.9382 O   0  0  0  0  0  0  0  0  0  0  0  0
   27.1986  -20.8306  -10.9590 N   0  0  0  0  0  0  0  0  0  0  0  0
   26.1559  -21.3966  -10.1678 C   0  0  1  0  0  0  0  0  0  0  0  0
   26.7201  -21.7382   -8.8078 C   0  0  0  0  0  0  0  0  0  0  0  0
   26.9491  -20.5016   -7.9881 C   0  0  0  0  0  0  0  0  0  0  0  0
   26.4520  -19.2349   -8.2148 C   0  0  0  0  0  0  0  0  0  0  0  0
   26.8902  -18.4046   -7.2518 N   0  0  0  0  0  0  0  0  0  0  0  0
   27.6714  -19.0690   -6.3758 C   0  0  0  0  0  0  0  0  0  0  0  0
   28.3477  -18.6801   -5.2386 C   0  0  0  0  0  0  0  0  0  0  0  0
   29.0793  -19.6141   -4.5393 C   0  0  0  0  0  0  0  0  0  0  0  0
   29.1083  -20.9226   -5.0101 C   0  0  0  0  0  0  0  0  0  0  0  0
   28.4327  -21.3124   -6.1467 C   0  0  0  0  0  0  0  0  0  0  0  0
   27.7064  -20.3802   -6.8389 C   0  0  0  0  0  0  0  0  0  0  0  0
   24.9364  -20.5766  -10.1109 C   0  0  0  0  0  0  0  0  0  0  0  0
   25.0336  -19.3030  -10.1411 O   0  0  0  0  0  0  0  0  0  0  0  0
   23.6674  -20.2184  -15.2190 C   0  0  0  0  0  0  0  0  0  0  0  0
   21.9358  -20.6808  -14.8910 S   0  0  0  0  0  0  0  0  0  0  0  0
   21.6122  -20.3009  -13.1304 C   0  0  0  0  0  0  0  0  0  0  0  0
   22.7813  -20.7880  -12.3032 C   0  0  0  0  0  0  0  0  0  0  0  0
   22.5507  -20.5269  -10.8268 C   0  0  2  0  0  0  0  0  0  0  0  0
   23.6156  -21.0938  -10.0226 N   0  0  0  0  0  0  0  0  0  0  0  0
   21.2918  -21.2228  -10.4467 C   0  0  0  0  0  0  0  0  0  0  0  0
   21.2866  -22.3448   -9.6268 O   0  0  0  0  0  0  0  0  0  0  0  0
   20.1687  -20.8267  -10.8512 O   0  0  0  0  0  0  0  0  0  0  0  0
  2  1  1  1
  2  3  1  0
  4  2  1  0
  5  4  1  0
  5  6  1  6
  7  8  2  0
  7  5  1  0
  9  7  1  0
 10  9  1  0
 10 11  1  1
 12 11  1  0
 12 13  2  0
 14 13  1  0
 15 20  2  0
 15 14  1  0
 16 15  1  0
 17 18  1  0
 17 16  2  0
 18 19  2  0
 19 20  1  0
 20 12  1  0
 21 10  1  0
 21 28  1  0
 22 21  2  0
 23 24  1  0
 25 24  1  0
 25 26  1  0
 27 26  1  6
 27 28  1  0
 27 29  1  0
 29 31  2  0
 29 30  1  0
M  END
$$$$
