LWM.pdb
     RDKit          3D

 31 32  0  0  1  0  0  0  0  0999 V2000
   15.0830  -26.8999   -6.5729 C   0  0  0  0  0  0  0  0  0  0  0  0
   15.6667  -27.1460   -5.2135 C   0  0  1  0  0  0  0  0  0  0  0  0
   16.1460  -28.5713   -5.1371 C   0  0  0  0  0  0  0  0  0  0  0  0
   16.7233  -26.1553   -4.8336 C   0  0  0  0  0  0  0  0  0  0  0  0
   16.1448  -24.7731   -4.8002 C   0  0  2  0  0  0  0  0  0  0  0  0
   16.9573  -23.8355   -5.5507 N   0  0  0  0  0  0  0  0  0  0  0  0
   15.8530  -24.3036   -3.4367 C   0  0  0  0  0  0  0  0  0  0  0  0
   16.8184  -23.9209   -2.7292 O   0  0  0  0  0  0  0  0  0  0  0  0
   14.5560  -24.2502   -2.8577 N   0  0  0  0  0  0  0  0  0  0  0  0
   14.3283  -23.7816   -1.5302 C   0  0  1  0  0  0  0  0  0  0  0  0
   12.9170  -23.2465   -1.4482 C   0  0  0  0  0  0  0  0  0  0  0  0
   12.8927  -21.8654   -0.8605 C   0  0  0  0  0  0  0  0  0  0  0  0
   13.5294  -21.4224    0.2804 C   0  0  0  0  0  0  0  0  0  0  0  0
   13.2558  -20.1189    0.4666 N   0  0  0  0  0  0  0  0  0  0  0  0
   12.4513  -19.6611   -0.5144 C   0  0  0  0  0  0  0  0  0  0  0  0
   11.8973  -18.4252   -0.7739 C   0  0  0  0  0  0  0  0  0  0  0  0
   11.0979  -18.2667   -1.8841 C   0  0  0  0  0  0  0  0  0  0  0  0
   10.8784  -19.3667   -2.7064 C   0  0  0  0  0  0  0  0  0  0  0  0
   11.4317  -20.6026   -2.4479 C   0  0  0  0  0  0  0  0  0  0  0  0
   12.2260  -20.7555   -1.3428 C   0  0  0  0  0  0  0  0  0  0  0  0
   14.6468  -24.7665   -0.4856 C   0  0  0  0  0  0  0  0  0  0  0  0
   14.3230  -25.9906   -0.6565 O   0  0  0  0  0  0  0  0  0  0  0  0
   20.9842  -25.2676    1.2261 C   0  0  0  0  0  0  0  0  0  0  0  0
   19.6094  -25.0602    2.4038 S   0  0  0  0  0  0  0  0  0  0  0  0
   18.0736  -25.4808    1.5021 C   0  0  0  0  0  0  0  0  0  0  0  0
   16.8925  -25.2629    2.4217 C   0  0  0  0  0  0  0  0  0  0  0  0
   15.5839  -25.5165    1.6975 C   0  0  2  0  0  0  0  0  0  0  0  0
   15.3050  -24.4662    0.7376 N   0  0  0  0  0  0  0  0  0  0  0  0
   14.5010  -25.4818    2.7172 C   0  0  0  0  0  0  0  0  0  0  0  0
   14.3918  -26.4460    3.7119 O   0  0  0  0  0  0  0  0  0  0  0  0
   13.6302  -24.5744    2.7269 O   0  0  0  0  0  0  0  0  0  0  0  0
  2  1  1  6
  2  3  1  0
  4  2  1  0
  5  4  1  0
  5  6  1  1
  7  8  2  0
  7  5  1  0
  9  7  1  0
 10  9  1  0
 10 11  1  6
 12 11  1  0
 12 13  2  0
 14 13  1  0
 15 20  2  0
 15 14  1  0
 16 15  1  0
 17 18  1  0
 17 16  2  0
 18 19  2  0
 19 20  1  0
 20 12  1  0
 21 10  1  0
 21 28  1  0
 22 21  2  0
 23 24  1  0
 25 24  1  0
 25 26  1  0
 27 26  1  1
 27 28  1  0
 27 29  1  0
 29 31  2  0
 29 30  1  0
M  END
$$$$
