WSD.pdb
     RDKit          3D

 29 30  0  0  1  0  0  0  0  0999 V2000
   25.6037  -18.5280  -17.2873 N   0  0  0  0  0  0  0  0  0  0  0  0
   24.9100  -17.3902  -17.7775 C   0  0  1  0  0  0  0  0  0  0  0  0
   24.6541  -17.5154  -19.2611 C   0  0  0  0  0  0  0  0  0  0  0  0
   25.8494  -17.5142  -20.0978 C   0  0  0  0  0  0  0  0  0  0  0  0
   26.6770  -16.4216  -20.2641 C   0  0  0  0  0  0  0  0  0  0  0  0
   27.6832  -16.7929  -21.0708 N   0  0  0  0  0  0  0  0  0  0  0  0
   27.5068  -18.0945  -21.4163 C   0  0  0  0  0  0  0  0  0  0  0  0
   28.2304  -18.9460  -22.2120 C   0  0  0  0  0  0  0  0  0  0  0  0
   27.8073  -20.2524  -22.4022 C   0  0  0  0  0  0  0  0  0  0  0  0
   26.6636  -20.7366  -21.8095 C   0  0  0  0  0  0  0  0  0  0  0  0
   25.9386  -19.8775  -21.0099 C   0  0  0  0  0  0  0  0  0  0  0  0
   26.3534  -18.5742  -20.8141 C   0  0  0  0  0  0  0  0  0  0  0  0
   23.5547  -17.2321  -17.1561 C   0  0  0  0  0  0  0  0  0  0  0  0
   23.1357  -18.2087  -16.4889 O   0  0  0  0  0  0  0  0  0  0  0  0
   21.1446  -13.9564  -18.0211 O   0  0  0  0  0  0  0  0  0  0  0  0
   20.9459  -14.4995  -16.7705 C   0  0  0  0  0  0  0  0  0  0  0  0
   21.4668  -15.9157  -16.6530 C   0  0  2  0  0  0  0  0  0  0  0  0
   22.7571  -16.0759  -17.2832 N   0  0  0  0  0  0  0  0  0  0  0  0
   20.5244  -16.8928  -17.2471 C   0  0  0  0  0  0  0  0  0  0  0  0
   20.7398  -17.4450  -18.3677 O   0  0  0  0  0  0  0  0  0  0  0  0
   19.3138  -17.2800  -16.6040 N   0  0  0  0  0  0  0  0  0  0  0  0
   18.3622  -18.2031  -17.2834 C   0  0  1  0  0  0  0  0  0  0  0  0
   19.1280  -19.5010  -17.3788 C   0  0  0  0  0  0  0  0  0  0  0  0
   18.3843  -20.6461  -17.8697 C   0  0  0  0  0  0  0  0  0  0  0  0
   17.8226  -20.6746  -18.9731 O   0  0  0  0  0  0  0  0  0  0  0  0
   17.1445  -18.3234  -16.4465 C   0  0  0  0  0  0  0  0  0  0  0  0
   16.2153  -19.1172  -16.8379 O   0  0  0  0  0  0  0  0  0  0  0  0
   18.2971  -21.7725  -17.0576 O   0  0  0  0  0  0  0  0  0  0  0  0
   17.0039  -17.6078  -15.2771 O   0  0  0  0  0  0  0  0  0  0  0  0
  2  1  1  1
  2  3  1  0
  2 13  1  0
  3  4  1  0
  4 12  1  0
  5  6  1  0
  5  4  2  0
  6  7  1  0
  7 12  2  0
  7  8  1  0
  8  9  2  0
  9 10  1  0
 11 10  2  0
 12 11  1  0
 13 18  1  0
 14 13  2  0
 16 15  1  0
 17 16  1  6
 18 17  1  0
 19 17  1  0
 19 21  1  0
 20 19  2  0
 22 21  1  0
 22 26  1  0
 22 23  1  1
 23 24  1  0
 24 25  2  0
 26 29  1  0
 27 26  2  0
 28 24  1  0
M  END
$$$$
