WSD.pdb
     RDKit          3D

 29 30  0  0  1  0  0  0  0  0999 V2000
   16.1321  -24.4725   -6.9577 N   0  0  0  0  0  0  0  0  0  0  0  0
   16.7213  -25.7540   -7.1202 C   0  0  1  0  0  0  0  0  0  0  0  0
   18.2288  -25.6557   -7.1205 C   0  0  0  0  0  0  0  0  0  0  0  0
   18.8325  -25.4030   -8.4246 C   0  0  0  0  0  0  0  0  0  0  0  0
   18.7678  -24.1928   -9.0862 C   0  0  0  0  0  0  0  0  0  0  0  0
   19.4536  -24.3193  -10.2328 N   0  0  0  0  0  0  0  0  0  0  0  0
   19.9478  -25.5821  -10.3077 C   0  0  0  0  0  0  0  0  0  0  0  0
   20.7012  -26.2253  -11.2567 C   0  0  0  0  0  0  0  0  0  0  0  0
   21.0675  -27.5503  -11.0770 C   0  0  0  0  0  0  0  0  0  0  0  0
   20.6948  -28.2591   -9.9579 C   0  0  0  0  0  0  0  0  0  0  0  0
   19.9373  -27.6090   -9.0056 C   0  0  0  0  0  0  0  0  0  0  0  0
   19.5686  -26.2884   -9.1761 C   0  0  0  0  0  0  0  0  0  0  0  0
   16.3878  -26.6865   -5.9945 C   0  0  0  0  0  0  0  0  0  0  0  0
   16.0178  -26.1485   -4.9229 O   0  0  0  0  0  0  0  0  0  0  0  0
   17.4186  -30.8491   -5.8012 O   0  0  0  0  0  0  0  0  0  0  0  0
   16.1565  -30.4385   -5.4309 C   0  0  0  0  0  0  0  0  0  0  0  0
   16.1098  -28.9866   -5.0058 C   0  0  2  0  0  0  0  0  0  0  0  0
   16.4684  -28.0918   -6.0821 N   0  0  0  0  0  0  0  0  0  0  0  0
   17.0069  -28.7277   -3.8551 C   0  0  0  0  0  0  0  0  0  0  0  0
   18.1249  -28.1449   -3.9869 O   0  0  0  0  0  0  0  0  0  0  0  0
   16.6783  -29.1135   -2.5239 N   0  0  0  0  0  0  0  0  0  0  0  0
   17.6400  -28.8744   -1.4116 C   0  0  1  0  0  0  0  0  0  0  0  0
   16.9716  -27.8031   -0.5837 C   0  0  0  0  0  0  0  0  0  0  0  0
   17.5610  -27.5404    0.7160 C   0  0  0  0  0  0  0  0  0  0  0  0
   18.7822  -27.4852    0.9143 O   0  0  0  0  0  0  0  0  0  0  0  0
   17.8180  -30.1414   -0.6627 C   0  0  0  0  0  0  0  0  0  0  0  0
   18.7893  -30.2213    0.1721 O   0  0  0  0  0  0  0  0  0  0  0  0
   16.7089  -27.3398    1.7974 O   0  0  0  0  0  0  0  0  0  0  0  0
   16.9687  -31.2106   -0.8491 O   0  0  0  0  0  0  0  0  0  0  0  0
  2  1  1  1
  2  3  1  0
  2 13  1  0
  3  4  1  0
  4 12  1  0
  5  6  1  0
  5  4  2  0
  6  7  1  0
  7 12  2  0
  7  8  1  0
  8  9  2  0
  9 10  1  0
 11 10  2  0
 12 11  1  0
 13 18  1  0
 14 13  2  0
 16 15  1  0
 17 16  1  6
 18 17  1  0
 19 17  1  0
 19 21  1  0
 20 19  2  0
 22 21  1  0
 22 26  1  0
 22 23  1  1
 23 24  1  0
 24 25  2  0
 26 29  1  0
 27 26  2  0
 28 24  1  0
M  END
$$$$
