WSD.pdb
     RDKit          3D

 29 30  0  0  1  0  0  0  0  0999 V2000
   27.2357  -19.7892  -11.4015 N   0  0  0  0  0  0  0  0  0  0  0  0
   26.7587  -21.1223  -11.5076 C   0  0  1  0  0  0  0  0  0  0  0  0
   26.1542  -21.5818  -10.2016 C   0  0  0  0  0  0  0  0  0  0  0  0
   26.6210  -20.8674   -9.0181 C   0  0  0  0  0  0  0  0  0  0  0  0
   25.8182  -20.0662   -8.2306 C   0  0  0  0  0  0  0  0  0  0  0  0
   26.5724  -19.6005   -7.2230 N   0  0  0  0  0  0  0  0  0  0  0  0
   27.8319  -20.0902   -7.3593 C   0  0  0  0  0  0  0  0  0  0  0  0
   28.9739  -19.9238   -6.6176 C   0  0  0  0  0  0  0  0  0  0  0  0
   30.1509  -20.5495   -6.9982 C   0  0  0  0  0  0  0  0  0  0  0  0
   30.2172  -21.3483   -8.1168 C   0  0  0  0  0  0  0  0  0  0  0  0
   29.0669  -21.5135   -8.8602 C   0  0  0  0  0  0  0  0  0  0  0  0
   27.8892  -20.8943   -8.4876 C   0  0  0  0  0  0  0  0  0  0  0  0
   25.6612  -21.2608  -12.5197 C   0  0  0  0  0  0  0  0  0  0  0  0
   24.7871  -20.3604  -12.5132 O   0  0  0  0  0  0  0  0  0  0  0  0
   24.5728  -24.8751  -14.3291 O   0  0  0  0  0  0  0  0  0  0  0  0
   24.5727  -23.7730  -15.1561 C   0  0  0  0  0  0  0  0  0  0  0  0
   24.4914  -22.4661  -14.3969 C   0  0  2  0  0  0  0  0  0  0  0  0
   25.5697  -22.3200  -13.4463 N   0  0  0  0  0  0  0  0  0  0  0  0
   23.2031  -22.3349  -13.6765 C   0  0  0  0  0  0  0  0  0  0  0  0
   23.1372  -21.9302  -12.4769 O   0  0  0  0  0  0  0  0  0  0  0  0
   21.9517  -22.6529  -14.2779 N   0  0  0  0  0  0  0  0  0  0  0  0
   20.6774  -22.2230  -13.6371 C   0  0  1  0  0  0  0  0  0  0  0  0
   20.7427  -20.7153  -13.6849 C   0  0  0  0  0  0  0  0  0  0  0  0
   20.0625  -20.0127  -12.6129 C   0  0  0  0  0  0  0  0  0  0  0  0
   19.4355  -20.5843  -11.7107 O   0  0  0  0  0  0  0  0  0  0  0  0
   19.5466  -22.7670  -14.4264 C   0  0  0  0  0  0  0  0  0  0  0  0
   18.5664  -23.3011  -13.7934 O   0  0  0  0  0  0  0  0  0  0  0  0
   20.1170  -18.6225  -12.5975 O   0  0  0  0  0  0  0  0  0  0  0  0
   19.5371  -22.7051  -15.8031 O   0  0  0  0  0  0  0  0  0  0  0  0
  2  1  1  1
  2  3  1  0
  2 13  1  0
  3  4  1  0
  4 12  1  0
  5  6  1  0
  5  4  2  0
  6  7  1  0
  7 12  2  0
  7  8  1  0
  8  9  2  0
  9 10  1  0
 11 10  2  0
 12 11  1  0
 13 18  1  0
 14 13  2  0
 16 15  1  0
 17 16  1  1
 18 17  1  0
 19 17  1  0
 19 21  1  0
 20 19  2  0
 22 21  1  0
 22 26  1  0
 22 23  1  6
 23 24  1  0
 24 25  2  0
 26 29  1  0
 27 26  2  0
 28 24  1  0
M  END
$$$$
