WSD.pdb
     RDKit          3D

 29 30  0  0  1  0  0  0  0  0999 V2000
   27.8680  -20.4355  -13.5923 N   0  0  0  0  0  0  0  0  0  0  0  0
   27.0561  -21.4409  -13.0042 C   0  0  1  0  0  0  0  0  0  0  0  0
   26.6066  -21.0278  -11.6223 C   0  0  0  0  0  0  0  0  0  0  0  0
   27.6665  -20.9560  -10.6221 C   0  0  0  0  0  0  0  0  0  0  0  0
   29.0112  -21.0831  -10.9086 C   0  0  0  0  0  0  0  0  0  0  0  0
   29.6874  -20.9352   -9.7589 N   0  0  0  0  0  0  0  0  0  0  0  0
   28.7982  -20.7185   -8.7554 C   0  0  0  0  0  0  0  0  0  0  0  0
   28.9563  -20.5136   -7.4082 C   0  0  0  0  0  0  0  0  0  0  0  0
   27.8489  -20.3222   -6.5965 C   0  0  0  0  0  0  0  0  0  0  0  0
   26.5696  -20.3305   -7.1033 C   0  0  0  0  0  0  0  0  0  0  0  0
   26.4144  -20.5366   -8.4585 C   0  0  0  0  0  0  0  0  0  0  0  0
   27.5125  -20.7274   -9.2750 C   0  0  0  0  0  0  0  0  0  0  0  0
   25.7921  -21.6815  -13.7739 C   0  0  0  0  0  0  0  0  0  0  0  0
   25.2103  -20.6603  -14.2134 O   0  0  0  0  0  0  0  0  0  0  0  0
   23.6687  -25.4160  -13.9000 O   0  0  0  0  0  0  0  0  0  0  0  0
   23.7875  -24.6494  -15.0387 C   0  0  0  0  0  0  0  0  0  0  0  0
   24.0159  -23.1830  -14.7412 C   0  0  2  0  0  0  0  0  0  0  0  0
   25.2463  -22.9589  -14.0177 N   0  0  0  0  0  0  0  0  0  0  0  0
   22.8957  -22.6053  -13.9619 C   0  0  0  0  0  0  0  0  0  0  0  0
   23.0286  -22.2404  -12.7551 O   0  0  0  0  0  0  0  0  0  0  0  0
   21.5945  -22.4194  -14.5109 N   0  0  0  0  0  0  0  0  0  0  0  0
   20.5010  -21.8448  -13.6782 C   0  0  1  0  0  0  0  0  0  0  0  0
   20.9941  -20.4567  -13.3468 C   0  0  0  0  0  0  0  0  0  0  0  0
   20.0646  -19.6035  -12.6301 C   0  0  0  0  0  0  0  0  0  0  0  0
   18.9178  -19.9519  -12.3186 O   0  0  0  0  0  0  0  0  0  0  0  0
   19.2561  -21.8274  -14.4829 C   0  0  0  0  0  0  0  0  0  0  0  0
   18.1743  -21.4301  -13.9185 O   0  0  0  0  0  0  0  0  0  0  0  0
   20.4839  -18.3256  -12.2739 O   0  0  0  0  0  0  0  0  0  0  0  0
   19.2492  -22.2238  -15.8028 O   0  0  0  0  0  0  0  0  0  0  0  0
  2  1  1  6
  2  3  1  0
  2 13  1  0
  3  4  1  0
  4 12  1  0
  5  6  1  0
  5  4  2  0
  6  7  1  0
  7 12  2  0
  7  8  1  0
  8  9  2  0
  9 10  1  0
 11 10  2  0
 12 11  1  0
 13 18  1  0
 14 13  2  0
 16 15  1  0
 17 16  1  1
 18 17  1  0
 19 17  1  0
 19 21  1  0
 20 19  2  0
 22 21  1  0
 22 26  1  0
 22 23  1  6
 23 24  1  0
 24 25  2  0
 26 29  1  0
 27 26  2  0
 28 24  1  0
M  END
$$$$
