WSD.pdb
     RDKit          3D

 29 30  0  0  1  0  0  0  0  0999 V2000
   28.6477  -21.3323  -10.7739 N   0  0  0  0  0  0  0  0  0  0  0  0
   27.3576  -21.2778  -10.1834 C   0  0  1  0  0  0  0  0  0  0  0  0
   27.3556  -20.3631   -8.9810 C   0  0  0  0  0  0  0  0  0  0  0  0
   28.4173  -20.6125   -8.0117 C   0  0  0  0  0  0  0  0  0  0  0  0
   29.5557  -21.3456   -8.2818 C   0  0  0  0  0  0  0  0  0  0  0  0
   30.3146  -21.3405   -7.1749 N   0  0  0  0  0  0  0  0  0  0  0  0
   29.6787  -20.6211   -6.2143 C   0  0  0  0  0  0  0  0  0  0  0  0
   30.0088  -20.3139   -4.9187 C   0  0  0  0  0  0  0  0  0  0  0  0
   29.1511  -19.5505   -4.1420 C   0  0  0  0  0  0  0  0  0  0  0  0
   27.9551  -19.0796   -4.6334 C   0  0  0  0  0  0  0  0  0  0  0  0
   27.6265  -19.3903   -5.9368 C   0  0  0  0  0  0  0  0  0  0  0  0
   28.4758  -20.1498   -6.7182 C   0  0  0  0  0  0  0  0  0  0  0  0
   26.3249  -20.7111  -11.1109 C   0  0  0  0  0  0  0  0  0  0  0  0
   26.6658  -19.6938  -11.7617 O   0  0  0  0  0  0  0  0  0  0  0  0
   23.5082  -21.9757  -14.5476 O   0  0  0  0  0  0  0  0  0  0  0  0
   24.3024  -22.1648  -13.4377 C   0  0  0  0  0  0  0  0  0  0  0  0
   24.2125  -21.0241  -12.4469 C   0  0  2  0  0  0  0  0  0  0  0  0
   25.0327  -21.2505  -11.2792 N   0  0  0  0  0  0  0  0  0  0  0  0
   22.8159  -20.7939  -12.0080 C   0  0  0  0  0  0  0  0  0  0  0  0
   22.3159  -21.3861  -11.0048 O   0  0  0  0  0  0  0  0  0  0  0  0
   21.9389  -19.8943  -12.6793 N   0  0  0  0  0  0  0  0  0  0  0  0
   20.4981  -19.8286  -12.3066 C   0  0  1  0  0  0  0  0  0  0  0  0
   20.0187  -18.5504  -12.9518 C   0  0  0  0  0  0  0  0  0  0  0  0
   18.6103  -18.2420  -12.7877 C   0  0  0  0  0  0  0  0  0  0  0  0
   17.8212  -18.9621  -12.1613 O   0  0  0  0  0  0  0  0  0  0  0  0
   19.8164  -21.0281  -12.8490 C   0  0  0  0  0  0  0  0  0  0  0  0
   18.9275  -21.6013  -12.1224 O   0  0  0  0  0  0  0  0  0  0  0  0
   18.1198  -17.0751  -13.3652 O   0  0  0  0  0  0  0  0  0  0  0  0
   20.1202  -21.5223  -14.0991 O   0  0  0  0  0  0  0  0  0  0  0  0
  2  1  1  6
  2  3  1  0
  2 13  1  0
  3  4  1  0
  4 12  1  0
  5  6  1  0
  5  4  2  0
  6  7  1  0
  7 12  2  0
  7  8  1  0
  8  9  2  0
  9 10  1  0
 11 10  2  0
 12 11  1  0
 13 18  1  0
 14 13  2  0
 16 15  1  0
 17 16  1  6
 18 17  1  0
 19 17  1  0
 19 21  1  0
 20 19  2  0
 22 21  1  0
 22 26  1  0
 22 23  1  6
 23 24  1  0
 24 25  2  0
 26 29  1  0
 27 26  2  0
 28 24  1  0
M  END
$$$$
