WSD.pdb
     RDKit          3D

 29 30  0  0  1  0  0  0  0  0999 V2000
   24.9870  -19.9445   -8.5236 N   0  0  0  0  0  0  0  0  0  0  0  0
   26.2457  -20.3484   -9.0418 C   0  0  1  0  0  0  0  0  0  0  0  0
   26.8773  -21.3995   -8.1594 C   0  0  0  0  0  0  0  0  0  0  0  0
   26.9090  -21.0761   -6.7369 C   0  0  0  0  0  0  0  0  0  0  0  0
   26.0040  -21.5593   -5.8128 C   0  0  0  0  0  0  0  0  0  0  0  0
   26.3564  -21.0800   -4.6099 N   0  0  0  0  0  0  0  0  0  0  0  0
   27.4625  -20.3056   -4.7566 C   0  0  0  0  0  0  0  0  0  0  0  0
   28.2135  -19.5872   -3.8612 C   0  0  0  0  0  0  0  0  0  0  0  0
   29.3129  -18.8627   -4.2951 C   0  0  0  0  0  0  0  0  0  0  0  0
   29.6863  -18.8370   -5.6193 C   0  0  0  0  0  0  0  0  0  0  0  0
   28.9289  -19.5608   -6.5169 C   0  0  0  0  0  0  0  0  0  0  0  0
   27.8321  -20.2863   -6.0930 C   0  0  0  0  0  0  0  0  0  0  0  0
   26.1323  -20.9860  -10.3941 C   0  0  0  0  0  0  0  0  0  0  0  0
   26.5813  -22.1535  -10.4936 O   0  0  0  0  0  0  0  0  0  0  0  0
   23.2938  -21.9175  -12.4114 O   0  0  0  0  0  0  0  0  0  0  0  0
   24.5810  -22.1925  -12.8187 C   0  0  0  0  0  0  0  0  0  0  0  0
   25.4717  -20.9688  -12.8249 C   0  0  2  0  0  0  0  0  0  0  0  0
   25.5638  -20.3551  -11.5201 N   0  0  0  0  0  0  0  0  0  0  0  0
   24.9948  -19.9539  -13.7936 C   0  0  0  0  0  0  0  0  0  0  0  0
   24.7097  -18.7686  -13.4461 O   0  0  0  0  0  0  0  0  0  0  0  0
   24.8233  -20.2366  -15.1791 N   0  0  0  0  0  0  0  0  0  0  0  0
   25.2672  -19.2553  -16.2083 C   0  0  1  0  0  0  0  0  0  0  0  0
   26.7435  -19.0930  -15.9360 C   0  0  0  0  0  0  0  0  0  0  0  0
   27.4341  -18.0976  -16.7346 C   0  0  0  0  0  0  0  0  0  0  0  0
   27.1477  -16.8928  -16.7225 O   0  0  0  0  0  0  0  0  0  0  0  0
   24.9973  -19.8256  -17.5498 C   0  0  0  0  0  0  0  0  0  0  0  0
   24.1197  -19.2502  -18.2883 O   0  0  0  0  0  0  0  0  0  0  0  0
   28.4733  -18.5189  -17.5581 O   0  0  0  0  0  0  0  0  0  0  0  0
   25.6658  -20.9425  -18.0025 O   0  0  0  0  0  0  0  0  0  0  0  0
  2  1  1  1
  2  3  1  0
  2 13  1  0
  3  4  1  0
  4 12  1  0
  5  6  1  0
  5  4  2  0
  6  7  1  0
  7 12  2  0
  7  8  1  0
  8  9  2  0
  9 10  1  0
 11 10  2  0
 12 11  1  0
 13 18  1  0
 14 13  2  0
 16 15  1  0
 17 16  1  1
 18 17  1  0
 19 17  1  0
 19 21  1  0
 20 19  2  0
 22 21  1  0
 22 26  1  0
 22 23  1  6
 23 24  1  0
 24 25  2  0
 26 29  1  0
 27 26  2  0
 28 24  1  0
M  END
$$$$
