WSD.pdb
     RDKit          3D

 29 30  0  0  1  0  0  0  0  0999 V2000
   28.0007  -21.5692  -13.7419 N   0  0  0  0  0  0  0  0  0  0  0  0
   26.8969  -22.0264  -12.9748 C   0  0  1  0  0  0  0  0  0  0  0  0
   26.5790  -21.0569  -11.8607 C   0  0  0  0  0  0  0  0  0  0  0  0
   27.5839  -20.9749  -10.8059 C   0  0  0  0  0  0  0  0  0  0  0  0
   28.9413  -21.1131  -11.0174 C   0  0  0  0  0  0  0  0  0  0  0  0
   29.5554  -20.9506   -9.8353 N   0  0  0  0  0  0  0  0  0  0  0  0
   28.6146  -20.7139   -8.8847 C   0  0  0  0  0  0  0  0  0  0  0  0
   28.7011  -20.4889   -7.5342 C   0  0  0  0  0  0  0  0  0  0  0  0
   27.5527  -20.2793   -6.7865 C   0  0  0  0  0  0  0  0  0  0  0  0
   26.3026  -20.2892   -7.3614 C   0  0  0  0  0  0  0  0  0  0  0  0
   26.2194  -20.5156   -8.7198 C   0  0  0  0  0  0  0  0  0  0  0  0
   27.3589  -20.7245   -9.4728 C   0  0  0  0  0  0  0  0  0  0  0  0
   25.6375  -22.1245  -13.7826 C   0  0  0  0  0  0  0  0  0  0  0  0
   25.2321  -21.0581  -14.3052 O   0  0  0  0  0  0  0  0  0  0  0  0
   23.1307  -25.5855  -13.8683 O   0  0  0  0  0  0  0  0  0  0  0  0
   23.2819  -24.8328  -15.0124 C   0  0  0  0  0  0  0  0  0  0  0  0
   23.6827  -23.4013  -14.7278 C   0  0  2  0  0  0  0  0  0  0  0  0
   24.9130  -23.3192  -13.9748 N   0  0  0  0  0  0  0  0  0  0  0  0
   22.6236  -22.6773  -13.9861 C   0  0  0  0  0  0  0  0  0  0  0  0
   22.8351  -22.1397  -12.8576 O   0  0  0  0  0  0  0  0  0  0  0  0
   21.2975  -22.5342  -14.4860 N   0  0  0  0  0  0  0  0  0  0  0  0
   20.2867  -21.7479  -13.7250 C   0  0  1  0  0  0  0  0  0  0  0  0
   20.8474  -20.3459  -13.7268 C   0  0  0  0  0  0  0  0  0  0  0  0
   20.0705  -19.3470  -13.0168 C   0  0  0  0  0  0  0  0  0  0  0  0
   18.9865  -19.5870  -12.4682 O   0  0  0  0  0  0  0  0  0  0  0  0
   18.9878  -21.8401  -14.4335 C   0  0  0  0  0  0  0  0  0  0  0  0
   18.9764  -21.6655  -15.7048 O   0  0  0  0  0  0  0  0  0  0  0  0
   20.5696  -18.0500  -12.9489 O   0  0  0  0  0  0  0  0  0  0  0  0
   17.8179  -22.1068  -13.7556 O   0  0  0  0  0  0  0  0  0  0  0  0
  2  1  1  6
  2  3  1  0
  2 13  1  0
  3  4  1  0
  4 12  1  0
  5  6  1  0
  5  4  2  0
  6  7  1  0
  7 12  2  0
  7  8  1  0
  8  9  2  0
  9 10  1  0
 11 10  2  0
 12 11  1  0
 13 18  1  0
 14 13  2  0
 16 15  1  0
 17 16  1  1
 18 17  1  0
 19 17  1  0
 19 21  1  0
 20 19  2  0
 22 21  1  0
 22 26  1  0
 22 23  1  6
 23 24  1  0
 24 25  2  0
 26 29  1  0
 27 26  2  0
 28 24  1  0
M  END
$$$$
