WSD.pdb
     RDKit          3D

 29 30  0  0  1  0  0  0  0  0999 V2000
   25.2628  -19.5465  -11.5985 N   0  0  0  0  0  0  0  0  0  0  0  0
   25.7819  -20.8678  -11.5745 C   0  0  1  0  0  0  0  0  0  0  0  0
   25.7389  -21.4363  -10.1755 C   0  0  0  0  0  0  0  0  0  0  0  0
   26.2341  -20.5468   -9.1303 C   0  0  0  0  0  0  0  0  0  0  0  0
   25.6623  -19.3305   -8.8137 C   0  0  0  0  0  0  0  0  0  0  0  0
   26.3589  -18.8074   -7.7929 N   0  0  0  0  0  0  0  0  0  0  0  0
   27.3565  -19.6670   -7.4605 C   0  0  0  0  0  0  0  0  0  0  0  0
   28.3426  -19.6152   -6.5082 C   0  0  0  0  0  0  0  0  0  0  0  0
   29.2549  -20.6524   -6.3908 C   0  0  0  0  0  0  0  0  0  0  0  0
   29.2068  -21.7554   -7.2122 C   0  0  0  0  0  0  0  0  0  0  0  0
   28.2138  -21.8042   -8.1687 C   0  0  0  0  0  0  0  0  0  0  0  0
   27.2998  -20.7753   -8.2921 C   0  0  0  0  0  0  0  0  0  0  0  0
   24.9758  -21.8167  -12.4100 C   0  0  0  0  0  0  0  0  0  0  0  0
   23.7366  -21.6203  -12.4285 O   0  0  0  0  0  0  0  0  0  0  0  0
   26.5691  -23.7335  -15.7117 O   0  0  0  0  0  0  0  0  0  0  0  0
   25.6815  -24.5014  -14.9899 C   0  0  0  0  0  0  0  0  0  0  0  0
   24.7793  -23.6772  -14.0967 C   0  0  2  0  0  0  0  0  0  0  0  0
   25.5279  -22.8829  -13.1500 N   0  0  0  0  0  0  0  0  0  0  0  0
   23.8261  -24.5314  -13.3499 C   0  0  0  0  0  0  0  0  0  0  0  0
   24.1211  -25.0603  -12.2362 O   0  0  0  0  0  0  0  0  0  0  0  0
   22.5153  -24.8179  -13.8281 N   0  0  0  0  0  0  0  0  0  0  0  0
   21.6037  -25.6980  -13.0447 C   0  0  1  0  0  0  0  0  0  0  0  0
   20.2503  -25.4599  -13.6702 C   0  0  0  0  0  0  0  0  0  0  0  0
   19.1556  -26.2542  -13.1443 C   0  0  0  0  0  0  0  0  0  0  0  0
   19.2665  -27.0114  -12.1707 O   0  0  0  0  0  0  0  0  0  0  0  0
   22.0593  -27.1007  -13.1953 C   0  0  0  0  0  0  0  0  0  0  0  0
   21.9871  -27.8749  -12.1746 O   0  0  0  0  0  0  0  0  0  0  0  0
   17.9151  -26.1605  -13.7673 O   0  0  0  0  0  0  0  0  0  0  0  0
   22.5477  -27.5717  -14.3949 O   0  0  0  0  0  0  0  0  0  0  0  0
  2  1  1  1
  2  3  1  0
  2 13  1  0
  3  4  1  0
  4 12  1  0
  5  6  1  0
  5  4  2  0
  6  7  1  0
  7 12  2  0
  7  8  1  0
  8  9  2  0
  9 10  1  0
 11 10  2  0
 12 11  1  0
 13 18  1  0
 14 13  2  0
 16 15  1  0
 17 16  1  1
 18 17  1  0
 19 17  1  0
 19 21  1  0
 20 19  2  0
 22 21  1  0
 22 26  1  0
 22 23  1  6
 23 24  1  0
 24 25  2  0
 26 29  1  0
 27 26  2  0
 28 24  1  0
M  END
$$$$
