WKY.pdb
     RDKit          3D

 36 38  0  0  1  0  0  0  0  0999 V2000
   25.8875  -19.5912  -11.7431 N   0  0  0  0  0  0  0  0  0  0  0  0
   25.8505  -21.0755  -11.6936 C   0  0  1  0  0  0  0  0  0  0  0  0
   25.5803  -21.4657  -10.2890 C   0  0  0  0  0  0  0  0  0  0  0  0
   26.5301  -20.9576   -9.2884 C   0  0  0  0  0  0  0  0  0  0  0  0
   26.3267  -20.2681   -8.1072 C   0  0  0  0  0  0  0  0  0  0  0  0
   27.5149  -19.9926   -7.5432 N   0  0  0  0  0  0  0  0  0  0  0  0
   28.5191  -20.4840   -8.3219 C   0  0  0  0  0  0  0  0  0  0  0  0
   29.8836  -20.4587   -8.1863 C   0  0  0  0  0  0  0  0  0  0  0  0
   30.6810  -21.0516   -9.1667 C   0  0  0  0  0  0  0  0  0  0  0  0
   30.0989  -21.6514  -10.2478 C   0  0  0  0  0  0  0  0  0  0  0  0
   28.7361  -21.6692  -10.3683 C   0  0  0  0  0  0  0  0  0  0  0  0
   27.9041  -21.0824   -9.4031 C   0  0  0  0  0  0  0  0  0  0  0  0
   24.7444  -21.5207  -12.6271 C   0  0  0  0  0  0  0  0  0  0  0  0
   23.7065  -20.8232  -12.7026 O   0  0  0  0  0  0  0  0  0  0  0  0
   24.8713  -22.6768  -13.3895 N   0  0  0  0  0  0  0  0  0  0  0  0
   23.8540  -23.1600  -14.3782 C   0  0  1  0  0  0  0  0  0  0  0  0
   24.5163  -24.2087  -15.2003 C   0  0  0  0  0  0  0  0  0  0  0  0
   25.6864  -23.8530  -16.0440 C   0  0  0  0  0  0  0  0  0  0  0  0
   26.1558  -25.0763  -16.8537 C   0  0  0  0  0  0  0  0  0  0  0  0
   27.6346  -25.2546  -16.6540 C   0  0  0  0  0  0  0  0  0  0  0  0
   28.0986  -26.4961  -17.2792 N   0  0  0  0  0  0  0  0  0  0  0  0
   22.7241  -23.5520  -13.5332 C   0  0  0  0  0  0  0  0  0  0  0  0
   22.9539  -24.4883  -12.6364 O   0  0  0  0  0  0  0  0  0  0  0  0
   16.1968  -24.6605   -7.8977 O   0  0  0  0  0  0  0  0  0  0  0  0
   17.2002  -24.1842   -8.7519 C   0  0  0  0  0  0  0  0  0  0  0  0
   16.8127  -23.3986   -9.8304 C   0  0  0  0  0  0  0  0  0  0  0  0
   17.7182  -22.8874  -10.7191 C   0  0  0  0  0  0  0  0  0  0  0  0
   19.0673  -23.1482  -10.5601 C   0  0  0  0  0  0  0  0  0  0  0  0
   20.0195  -22.5882  -11.5444 C   0  0  0  0  0  0  0  0  0  0  0  0
   20.4573  -23.6459  -12.5038 C   0  0  2  0  0  0  0  0  0  0  0  0
   21.3989  -23.0988  -13.5063 N   0  0  0  0  0  0  0  0  0  0  0  0
   19.3564  -24.2782  -13.2551 C   0  0  0  0  0  0  0  0  0  0  0  0
   18.6916  -25.3864  -12.6901 O   0  0  0  0  0  0  0  0  0  0  0  0
   19.4473  -23.9416   -9.4713 C   0  0  0  0  0  0  0  0  0  0  0  0
   18.5375  -24.4575   -8.5736 C   0  0  0  0  0  0  0  0  0  0  0  0
   18.9877  -23.8619  -14.3837 O   0  0  0  0  0  0  0  0  0  0  0  0
  2  1  1  1
  3  2  1  0
  4  5  2  0
  4  3  1  0
  6  5  1  0
  7 12  2  0
  7  6  1  0
  8  7  1  0
  9 10  1  0
  9  8  2  0
 10 11  2  0
 11 12  1  0
 12  4  1  0
 13  2  1  0
 14 13  2  0
 15 13  1  0
 16 22  1  0
 16 15  1  0
 16 17  1  1
 18 17  1  0
 19 18  1  0
 20 19  1  0
 21 20  1  0
 22 23  2  0
 24 25  1  0
 25 35  2  0
 26 25  1  0
 26 27  2  0
 27 28  1  0
 28 34  2  0
 28 29  1  0
 30 32  1  0
 30 29  1  1
 31 30  1  0
 31 22  1  0
 32 33  1  0
 35 34  1  0
 36 32  2  0
M  END
$$$$
