WKY.pdb
     RDKit          3D

 36 38  0  0  1  0  0  0  0  0999 V2000
   24.2450  -15.4353  -19.5140 N   0  0  0  0  0  0  0  0  0  0  0  0
   22.9055  -14.7929  -19.5026 C   0  0  1  0  0  0  0  0  0  0  0  0
   22.0923  -15.4817  -18.4719 C   0  0  0  0  0  0  0  0  0  0  0  0
   21.7606  -16.8867  -18.7502 C   0  0  0  0  0  0  0  0  0  0  0  0
   22.0938  -18.0508  -18.0824 C   0  0  0  0  0  0  0  0  0  0  0  0
   21.5770  -19.1033  -18.7390 N   0  0  0  0  0  0  0  0  0  0  0  0
   20.8996  -18.6718  -19.8394 C   0  0  0  0  0  0  0  0  0  0  0  0
   20.2115  -19.3439  -20.8171 C   0  0  0  0  0  0  0  0  0  0  0  0
   19.6091  -18.6235  -21.8500 C   0  0  0  0  0  0  0  0  0  0  0  0
   19.7073  -17.2608  -21.8779 C   0  0  0  0  0  0  0  0  0  0  0  0
   20.3964  -16.6047  -20.8946 C   0  0  0  0  0  0  0  0  0  0  0  0
   21.0151  -17.2964  -19.8425 C   0  0  0  0  0  0  0  0  0  0  0  0
   23.1199  -13.3312  -19.1702 C   0  0  0  0  0  0  0  0  0  0  0  0
   24.0746  -13.0205  -18.4208 O   0  0  0  0  0  0  0  0  0  0  0  0
   22.2808  -12.3483  -19.6838 N   0  0  0  0  0  0  0  0  0  0  0  0
   22.5336  -10.8748  -19.5808 C   0  0  1  0  0  0  0  0  0  0  0  0
   21.8257  -10.2353  -20.7227 C   0  0  0  0  0  0  0  0  0  0  0  0
   21.6912   -8.7564  -20.7705 C   0  0  0  0  0  0  0  0  0  0  0  0
   22.9135   -8.1285  -21.4662 C   0  0  0  0  0  0  0  0  0  0  0  0
   22.7831   -6.6319  -21.4237 C   0  0  0  0  0  0  0  0  0  0  0  0
   23.8936   -5.9919  -22.1340 N   0  0  0  0  0  0  0  0  0  0  0  0
   22.0913  -10.5523  -18.2225 C   0  0  0  0  0  0  0  0  0  0  0  0
   21.1669  -11.3318  -17.7013 O   0  0  0  0  0  0  0  0  0  0  0  0
   25.0076   -3.9432  -16.2056 O   0  0  0  0  0  0  0  0  0  0  0  0
   24.4616   -5.1864  -15.8597 C   0  0  0  0  0  0  0  0  0  0  0  0
   25.0837   -6.3263  -16.3536 C   0  0  0  0  0  0  0  0  0  0  0  0
   24.6255   -7.5839  -16.0714 C   0  0  0  0  0  0  0  0  0  0  0  0
   23.5088   -7.7508  -15.2722 C   0  0  0  0  0  0  0  0  0  0  0  0
   23.0337   -9.1241  -14.9941 C   0  0  0  0  0  0  0  0  0  0  0  0
   21.9645   -9.5101  -15.9631 C   0  0  2  0  0  0  0  0  0  0  0  0
   22.4840   -9.5300  -17.3491 N   0  0  0  0  0  0  0  0  0  0  0  0
   20.7912   -8.6159  -15.9616 C   0  0  0  0  0  0  0  0  0  0  0  0
   20.5063   -7.8606  -17.1181 O   0  0  0  0  0  0  0  0  0  0  0  0
   22.8887   -6.5963  -14.7806 C   0  0  0  0  0  0  0  0  0  0  0  0
   23.3483   -5.3277  -15.0625 C   0  0  0  0  0  0  0  0  0  0  0  0
   20.0332   -8.5044  -14.9637 O   0  0  0  0  0  0  0  0  0  0  0  0
  2  1  1  1
  3  2  1  0
  4  5  2  0
  4  3  1  0
  6  5  1  0
  7 12  2  0
  7  6  1  0
  8  7  1  0
  9 10  1  0
  9  8  2  0
 10 11  2  0
 11 12  1  0
 12  4  1  0
 13  2  1  0
 14 13  2  0
 15 13  1  0
 16 22  1  0
 16 15  1  0
 16 17  1  6
 18 17  1  0
 19 18  1  0
 20 19  1  0
 21 20  1  0
 22 23  2  0
 24 25  1  0
 25 35  2  0
 26 25  1  0
 26 27  2  0
 27 28  1  0
 28 34  2  0
 28 29  1  0
 30 32  1  0
 30 29  1  1
 31 30  1  0
 31 22  1  0
 32 33  1  0
 35 34  1  0
 36 32  2  0
M  END
$$$$
