WKY.pdb
     RDKit          3D

 36 38  0  0  1  0  0  0  0  0999 V2000
   30.0509  -29.3634  -24.1437 N   0  0  0  0  0  0  0  0  0  0  0  0
   30.2152  -28.5866  -22.8881 C   0  0  1  0  0  0  0  0  0  0  0  0
   28.8800  -28.4850  -22.2518 C   0  0  0  0  0  0  0  0  0  0  0  0
   27.9141  -27.6045  -22.9251 C   0  0  0  0  0  0  0  0  0  0  0  0
   27.1824  -27.7742  -24.0861 C   0  0  0  0  0  0  0  0  0  0  0  0
   26.4490  -26.6715  -24.3143 N   0  0  0  0  0  0  0  0  0  0  0  0
   26.6713  -25.7585  -23.3278 C   0  0  0  0  0  0  0  0  0  0  0  0
   26.1742  -24.4985  -23.1126 C   0  0  0  0  0  0  0  0  0  0  0  0
   26.5959  -23.7770  -21.9945 C   0  0  0  0  0  0  0  0  0  0  0  0
   27.4947  -24.3295  -21.1260 C   0  0  0  0  0  0  0  0  0  0  0  0
   27.9807  -25.5881  -21.3540 C   0  0  0  0  0  0  0  0  0  0  0  0
   27.5801  -26.3412  -22.4677 C   0  0  0  0  0  0  0  0  0  0  0  0
   31.1974  -29.3484  -22.0233 C   0  0  0  0  0  0  0  0  0  0  0  0
   31.3319  -30.5797  -22.2108 O   0  0  0  0  0  0  0  0  0  0  0  0
   31.9400  -28.7018  -21.0413 N   0  0  0  0  0  0  0  0  0  0  0  0
   33.0075  -29.3525  -20.2150 C   0  0  1  0  0  0  0  0  0  0  0  0
   33.9961  -28.2932  -19.8763 C   0  0  0  0  0  0  0  0  0  0  0  0
   35.1216  -28.0126  -20.8047 C   0  0  0  0  0  0  0  0  0  0  0  0
   36.0198  -26.8974  -20.2375 C   0  0  0  0  0  0  0  0  0  0  0  0
   37.2360  -26.7600  -21.1098 C   0  0  0  0  0  0  0  0  0  0  0  0
   38.1779  -25.7919  -20.5415 N   0  0  0  0  0  0  0  0  0  0  0  0
   32.2551  -29.9735  -19.1229 C   0  0  0  0  0  0  0  0  0  0  0  0
   31.0012  -29.5979  -18.9808 O   0  0  0  0  0  0  0  0  0  0  0  0
   26.9237  -33.9715  -13.8131 O   0  0  0  0  0  0  0  0  0  0  0  0
   27.8285  -33.5441  -14.7938 C   0  0  0  0  0  0  0  0  0  0  0  0
   27.7605  -32.2181  -15.2032 C   0  0  0  0  0  0  0  0  0  0  0  0
   28.6009  -31.7074  -16.1540 C   0  0  0  0  0  0  0  0  0  0  0  0
   29.5557  -32.5179  -16.7414 C   0  0  0  0  0  0  0  0  0  0  0  0
   30.4426  -31.9368  -17.7733 C   0  0  0  0  0  0  0  0  0  0  0  0
   31.6705  -31.3671  -17.1421 C   0  0  2  0  0  0  0  0  0  0  0  0
   32.6404  -30.9241  -18.1689 N   0  0  0  0  0  0  0  0  0  0  0  0
   32.3879  -32.3024  -16.2551 C   0  0  0  0  0  0  0  0  0  0  0  0
   33.7185  -32.6530  -16.5644 O   0  0  0  0  0  0  0  0  0  0  0  0
   29.6153  -33.8523  -16.3231 C   0  0  0  0  0  0  0  0  0  0  0  0
   28.7706  -34.3697  -15.3646 C   0  0  0  0  0  0  0  0  0  0  0  0
   31.8540  -32.7981  -15.2293 O   0  0  0  0  0  0  0  0  0  0  0  0
  2  1  1  6
  3  2  1  0
  4  5  2  0
  4  3  1  0
  6  5  1  0
  7 12  2  0
  7  6  1  0
  8  7  1  0
  9 10  1  0
  9  8  2  0
 10 11  2  0
 11 12  1  0
 12  4  1  0
 13  2  1  0
 14 13  2  0
 15 13  1  0
 16 22  1  0
 16 15  1  0
 16 17  1  1
 18 17  1  0
 19 18  1  0
 20 19  1  0
 21 20  1  0
 22 23  2  0
 24 25  1  0
 25 35  2  0
 26 25  1  0
 26 27  2  0
 27 28  1  0
 28 34  2  0
 28 29  1  0
 30 32  1  0
 30 29  1  6
 31 30  1  0
 31 22  1  0
 32 33  1  0
 35 34  1  0
 36 32  2  0
M  END
$$$$
