WKY.pdb
     RDKit          3D

 36 38  0  0  1  0  0  0  0  0999 V2000
   23.2121  -19.0643  -10.9168 N   0  0  0  0  0  0  0  0  0  0  0  0
   24.3310  -19.6731  -11.6812 C   0  0  1  0  0  0  0  0  0  0  0  0
   24.6169  -20.9943  -11.0722 C   0  0  0  0  0  0  0  0  0  0  0  0
   25.8197  -21.0652  -10.2298 C   0  0  0  0  0  0  0  0  0  0  0  0
   25.9666  -21.1745   -8.8592 C   0  0  0  0  0  0  0  0  0  0  0  0
   27.2746  -21.1745   -8.5510 N   0  0  0  0  0  0  0  0  0  0  0  0
   28.0157  -21.0674   -9.6893 C   0  0  0  0  0  0  0  0  0  0  0  0
   29.3695  -21.0202   -9.9034 C   0  0  0  0  0  0  0  0  0  0  0  0
   29.8534  -20.8993  -11.2073 C   0  0  0  0  0  0  0  0  0  0  0  0
   28.9790  -20.8312  -12.2552 C   0  0  0  0  0  0  0  0  0  0  0  0
   27.6311  -20.8807  -12.0252 C   0  0  0  0  0  0  0  0  0  0  0  0
   27.1096  -21.0006  -10.7284 C   0  0  0  0  0  0  0  0  0  0  0  0
   23.8667  -19.8007  -13.1169 C   0  0  0  0  0  0  0  0  0  0  0  0
   22.6416  -19.9359  -13.3411 O   0  0  0  0  0  0  0  0  0  0  0  0
   24.7744  -19.7668  -14.1699 N   0  0  0  0  0  0  0  0  0  0  0  0
   24.3966  -19.6534  -15.6157 C   0  0  1  0  0  0  0  0  0  0  0  0
   25.5837  -19.1106  -16.3300 C   0  0  0  0  0  0  0  0  0  0  0  0
   25.5505  -18.9654  -17.8083 C   0  0  0  0  0  0  0  0  0  0  0  0
   24.5313  -17.8860  -18.2187 C   0  0  0  0  0  0  0  0  0  0  0  0
   24.5192  -17.7717  -19.7172 C   0  0  0  0  0  0  0  0  0  0  0  0
   23.4988  -16.8170  -20.1585 N   0  0  0  0  0  0  0  0  0  0  0  0
   23.9434  -21.0049  -15.9513 C   0  0  0  0  0  0  0  0  0  0  0  0
   24.8010  -21.9832  -15.7483 O   0  0  0  0  0  0  0  0  0  0  0  0
   18.5254  -21.9395  -11.7673 O   0  0  0  0  0  0  0  0  0  0  0  0
   19.5987  -22.3364  -12.5759 C   0  0  0  0  0  0  0  0  0  0  0  0
   19.3177  -22.7222  -13.8807 C   0  0  0  0  0  0  0  0  0  0  0  0
   20.2976  -23.1253  -14.7459 C   0  0  0  0  0  0  0  0  0  0  0  0
   21.6167  -23.1590  -14.3309 C   0  0  0  0  0  0  0  0  0  0  0  0
   22.6509  -23.6090  -15.2885 C   0  0  0  0  0  0  0  0  0  0  0  0
   22.4815  -22.9151  -16.6003 C   0  0  2  0  0  0  0  0  0  0  0  0
   22.7241  -21.4608  -16.4686 N   0  0  0  0  0  0  0  0  0  0  0  0
   21.1433  -23.0702  -17.2015 C   0  0  0  0  0  0  0  0  0  0  0  0
   20.7146  -24.3558  -17.5922 O   0  0  0  0  0  0  0  0  0  0  0  0
   21.8892  -22.7695  -13.0144 C   0  0  0  0  0  0  0  0  0  0  0  0
   20.9043  -22.3621  -12.1403 C   0  0  0  0  0  0  0  0  0  0  0  0
   20.3687  -22.0944  -17.3767 O   0  0  0  0  0  0  0  0  0  0  0  0
  2  1  1  1
  3  2  1  0
  4  5  2  0
  4  3  1  0
  6  5  1  0
  7 12  2  0
  7  6  1  0
  8  7  1  0
  9 10  1  0
  9  8  2  0
 10 11  2  0
 11 12  1  0
 12  4  1  0
 13  2  1  0
 14 13  2  0
 15 13  1  0
 16 22  1  0
 16 15  1  0
 16 17  1  6
 18 17  1  0
 19 18  1  0
 20 19  1  0
 21 20  1  0
 22 23  2  0
 24 25  1  0
 25 35  2  0
 26 25  1  0
 26 27  2  0
 27 28  1  0
 28 34  2  0
 28 29  1  0
 30 32  1  0
 30 29  1  1
 31 30  1  0
 31 22  1  0
 32 33  1  0
 35 34  1  0
 36 32  2  0
M  END
$$$$
