WKY.pdb
     RDKit          3D

 36 38  0  0  1  0  0  0  0  0999 V2000
   24.7505  -17.3811  -19.2298 N   0  0  0  0  0  0  0  0  0  0  0  0
   25.4305  -17.4630  -17.9116 C   0  0  1  0  0  0  0  0  0  0  0  0
   24.6063  -16.7050  -16.9398 C   0  0  0  0  0  0  0  0  0  0  0  0
   24.5943  -15.2449  -17.1106 C   0  0  0  0  0  0  0  0  0  0  0  0
   23.5603  -14.3681  -17.3833 C   0  0  0  0  0  0  0  0  0  0  0  0
   24.0490  -13.1197  -17.4760 N   0  0  0  0  0  0  0  0  0  0  0  0
   25.3957  -13.1361  -17.2705 C   0  0  0  0  0  0  0  0  0  0  0  0
   26.3368  -12.1385  -17.2654 C   0  0  0  0  0  0  0  0  0  0  0  0
   27.6742  -12.4590  -17.0261 C   0  0  0  0  0  0  0  0  0  0  0  0
   28.0336  -13.7575  -16.7980 C   0  0  0  0  0  0  0  0  0  0  0  0
   27.0828  -14.7414  -16.8054 C   0  0  0  0  0  0  0  0  0  0  0  0
   25.7300  -14.4559  -17.0435 C   0  0  0  0  0  0  0  0  0  0  0  0
   25.5214  -18.9312  -17.5522 C   0  0  0  0  0  0  0  0  0  0  0  0
   24.5943  -19.6944  -17.9094 O   0  0  0  0  0  0  0  0  0  0  0  0
   26.6087  -19.4301  -16.8432 N   0  0  0  0  0  0  0  0  0  0  0  0
   26.8211  -20.8776  -16.5185 C   0  0  1  0  0  0  0  0  0  0  0  0
   28.2737  -21.0493  -16.2452 C   0  0  0  0  0  0  0  0  0  0  0  0
   28.7767  -22.3472  -15.7258 C   0  0  0  0  0  0  0  0  0  0  0  0
   28.8003  -23.4016  -16.8483 C   0  0  0  0  0  0  0  0  0  0  0  0
   29.5323  -24.6192  -16.3580 C   0  0  0  0  0  0  0  0  0  0  0  0
   29.5734  -25.6546  -17.3942 N   0  0  0  0  0  0  0  0  0  0  0  0
   25.8767  -21.1187  -15.4256 C   0  0  0  0  0  0  0  0  0  0  0  0
   25.7593  -20.1655  -14.5249 O   0  0  0  0  0  0  0  0  0  0  0  0
   19.2828  -21.5953   -9.9647 O   0  0  0  0  0  0  0  0  0  0  0  0
   20.2540  -21.4878  -10.9689 C   0  0  0  0  0  0  0  0  0  0  0  0
   21.4344  -20.8237  -10.6590 C   0  0  0  0  0  0  0  0  0  0  0  0
   22.4413  -20.6679  -11.5717 C   0  0  0  0  0  0  0  0  0  0  0  0
   22.3022  -21.1780  -12.8499 C   0  0  0  0  0  0  0  0  0  0  0  0
   23.4060  -20.9839  -13.8158 C   0  0  0  0  0  0  0  0  0  0  0  0
   24.2264  -22.2273  -13.9240 C   0  0  2  0  0  0  0  0  0  0  0  0
   25.0500  -22.2164  -15.1539 N   0  0  0  0  0  0  0  0  0  0  0  0
   23.4391  -23.4746  -13.9506 C   0  0  0  0  0  0  0  0  0  0  0  0
   22.9418  -23.9426  -15.1847 O   0  0  0  0  0  0  0  0  0  0  0  0
   21.1089  -21.8441  -13.1525 C   0  0  0  0  0  0  0  0  0  0  0  0
   20.0928  -22.0036  -12.2349 C   0  0  0  0  0  0  0  0  0  0  0  0
   23.1964  -24.1378  -12.9094 O   0  0  0  0  0  0  0  0  0  0  0  0
  2  1  1  6
  3  2  1  0
  4  5  2  0
  4  3  1  0
  6  5  1  0
  7 12  2  0
  7  6  1  0
  8  7  1  0
  9 10  1  0
  9  8  2  0
 10 11  2  0
 11 12  1  0
 12  4  1  0
 13  2  1  0
 14 13  2  0
 15 13  1  0
 16 22  1  0
 16 15  1  0
 16 17  1  1
 18 17  1  0
 19 18  1  0
 20 19  1  0
 21 20  1  0
 22 23  2  0
 24 25  1  0
 25 35  2  0
 26 25  1  0
 26 27  2  0
 27 28  1  0
 28 34  2  0
 28 29  1  0
 30 32  1  0
 30 29  1  6
 31 30  1  0
 31 22  1  0
 32 33  1  0
 35 34  1  0
 36 32  2  0
M  END
$$$$
