WKY.pdb
     RDKit          3D

 36 38  0  0  1  0  0  0  0  0999 V2000
   14.6114  -15.5434    4.7595 N   0  0  0  0  0  0  0  0  0  0  0  0
   15.7646  -16.3162    4.2305 C   0  0  1  0  0  0  0  0  0  0  0  0
   16.9245  -16.0409    5.1120 C   0  0  0  0  0  0  0  0  0  0  0  0
   17.6741  -14.8105    4.8197 C   0  0  0  0  0  0  0  0  0  0  0  0
   17.6097  -13.5491    5.3827 C   0  0  0  0  0  0  0  0  0  0  0  0
   18.4799  -12.7383    4.7574 N   0  0  0  0  0  0  0  0  0  0  0  0
   19.1326  -13.4289    3.7810 C   0  0  0  0  0  0  0  0  0  0  0  0
   20.0956  -13.0559    2.8785 C   0  0  0  0  0  0  0  0  0  0  0  0
   20.5863  -13.9969    1.9717 C   0  0  0  0  0  0  0  0  0  0  0  0
   20.1074  -15.2765    1.9912 C   0  0  0  0  0  0  0  0  0  0  0  0
   19.1473  -15.6335    2.8984 C   0  0  0  0  0  0  0  0  0  0  0  0
   18.6305  -14.7140    3.8234 C   0  0  0  0  0  0  0  0  0  0  0  0
   15.3670  -17.7771    4.2587 C   0  0  0  0  0  0  0  0  0  0  0  0
   14.8557  -18.2393    5.3048 O   0  0  0  0  0  0  0  0  0  0  0  0
   15.5598  -18.5943    3.1501 N   0  0  0  0  0  0  0  0  0  0  0  0
   15.4631  -20.0897    3.1682 C   0  0  1  0  0  0  0  0  0  0  0  0
   15.3048  -20.5285    1.7553 C   0  0  0  0  0  0  0  0  0  0  0  0
   15.3360  -21.9770    1.4263 C   0  0  0  0  0  0  0  0  0  0  0  0
   14.9494  -22.2010   -0.0476 C   0  0  0  0  0  0  0  0  0  0  0  0
   15.1518  -23.6504   -0.3898 C   0  0  0  0  0  0  0  0  0  0  0  0
   14.6855  -23.9345   -1.7497 N   0  0  0  0  0  0  0  0  0  0  0  0
   16.6715  -20.4956    3.8891 C   0  0  0  0  0  0  0  0  0  0  0  0
   17.7101  -19.6911    3.8017 O   0  0  0  0  0  0  0  0  0  0  0  0
   23.0976  -20.8958    9.4093 O   0  0  0  0  0  0  0  0  0  0  0  0
   21.8781  -20.8352    8.7219 C   0  0  0  0  0  0  0  0  0  0  0  0
   21.8901  -20.3348    7.4258 C   0  0  0  0  0  0  0  0  0  0  0  0
   20.7511  -20.2365    6.6747 C   0  0  0  0  0  0  0  0  0  0  0  0
   19.5375  -20.6407    7.2011 C   0  0  0  0  0  0  0  0  0  0  0  0
   18.3231  -20.5122    6.3658 C   0  0  0  0  0  0  0  0  0  0  0  0
   18.1861  -21.6941    5.4629 C   0  0  2  0  0  0  0  0  0  0  0  0
   16.9326  -21.6227    4.6789 N   0  0  0  0  0  0  0  0  0  0  0  0
   18.1780  -22.9940    6.1603 C   0  0  0  0  0  0  0  0  0  0  0  0
   19.4078  -23.5905    6.5083 O   0  0  0  0  0  0  0  0  0  0  0  0
   19.5359  -21.1422    8.5079 C   0  0  0  0  0  0  0  0  0  0  0  0
   20.6819  -21.2433    9.2672 C   0  0  0  0  0  0  0  0  0  0  0  0
   17.1105  -23.5898    6.4578 O   0  0  0  0  0  0  0  0  0  0  0  0
  2  1  1  1
  3  2  1  0
  4  5  2  0
  4  3  1  0
  6  5  1  0
  7 12  2  0
  7  6  1  0
  8  7  1  0
  9 10  1  0
  9  8  2  0
 10 11  2  0
 11 12  1  0
 12  4  1  0
 13  2  1  0
 14 13  2  0
 15 13  1  0
 16 22  1  0
 16 15  1  0
 16 17  1  6
 18 17  1  0
 19 18  1  0
 20 19  1  0
 21 20  1  0
 22 23  2  0
 24 25  1  0
 25 35  2  0
 26 25  1  0
 26 27  2  0
 27 28  1  0
 28 34  2  0
 28 29  1  0
 30 32  1  0
 30 29  1  1
 31 30  1  0
 31 22  1  0
 32 33  1  0
 35 34  1  0
 36 32  2  0
M  END
$$$$
