WKY.pdb
     RDKit          3D

 36 38  0  0  1  0  0  0  0  0999 V2000
   25.8858  -19.0175   -8.8852 N   0  0  0  0  0  0  0  0  0  0  0  0
   26.7122  -20.1183   -9.4440 C   0  0  1  0  0  0  0  0  0  0  0  0
   26.4648  -21.3227   -8.6155 C   0  0  0  0  0  0  0  0  0  0  0  0
   26.6116  -21.1434   -7.1637 C   0  0  0  0  0  0  0  0  0  0  0  0
   25.7533  -21.4327   -6.1188 C   0  0  0  0  0  0  0  0  0  0  0  0
   26.3232  -21.0616   -4.9598 N   0  0  0  0  0  0  0  0  0  0  0  0
   27.5525  -20.5264   -5.2019 C   0  0  0  0  0  0  0  0  0  0  0  0
   28.5091  -20.0069   -4.3677 C   0  0  0  0  0  0  0  0  0  0  0  0
   29.6971  -19.5137   -4.9102 C   0  0  0  0  0  0  0  0  0  0  0  0
   29.8976  -19.5540   -6.2613 C   0  0  0  0  0  0  0  0  0  0  0  0
   28.9340  -20.0764   -7.0803 C   0  0  0  0  0  0  0  0  0  0  0  0
   27.7280  -20.5796   -6.5699 C   0  0  0  0  0  0  0  0  0  0  0  0
   26.2697  -20.3179  -10.8783 C   0  0  0  0  0  0  0  0  0  0  0  0
   25.0667  -20.1215  -11.1676 O   0  0  0  0  0  0  0  0  0  0  0  0
   27.1739  -20.7085  -11.8601 N   0  0  0  0  0  0  0  0  0  0  0  0
   27.0074  -20.4410  -13.3252 C   0  0  1  0  0  0  0  0  0  0  0  0
   28.3748  -20.3488  -13.9046 C   0  0  0  0  0  0  0  0  0  0  0  0
   28.5426  -20.1188  -15.3628 C   0  0  0  0  0  0  0  0  0  0  0  0
   28.8182  -18.6296  -15.6429 C   0  0  0  0  0  0  0  0  0  0  0  0
   28.4593  -18.3277  -17.0708 C   0  0  0  0  0  0  0  0  0  0  0  0
   29.4702  -18.8633  -17.9864 N   0  0  0  0  0  0  0  0  0  0  0  0
   26.1383  -21.5327  -13.7692 C   0  0  0  0  0  0  0  0  0  0  0  0
   26.1855  -22.6474  -13.0699 O   0  0  0  0  0  0  0  0  0  0  0  0
   17.8031  -21.2037  -12.4937 O   0  0  0  0  0  0  0  0  0  0  0  0
   19.1549  -21.0231  -12.8153 C   0  0  0  0  0  0  0  0  0  0  0  0
   20.0902  -21.7932  -12.1352 C   0  0  0  0  0  0  0  0  0  0  0  0
   21.4322  -21.6891  -12.3791 C   0  0  0  0  0  0  0  0  0  0  0  0
   21.8962  -20.7953  -13.3274 C   0  0  0  0  0  0  0  0  0  0  0  0
   23.3543  -20.7005  -13.5602 C   0  0  0  0  0  0  0  0  0  0  0  0
   23.7860  -21.7126  -14.5703 C   0  0  2  0  0  0  0  0  0  0  0  0
   25.2379  -21.6102  -14.8396 N   0  0  0  0  0  0  0  0  0  0  0  0
   23.1030  -21.6007  -15.8731 C   0  0  0  0  0  0  0  0  0  0  0  0
   23.5571  -20.6420  -16.8025 O   0  0  0  0  0  0  0  0  0  0  0  0
   20.9461  -20.0234  -14.0061 C   0  0  0  0  0  0  0  0  0  0  0  0
   19.5932  -20.1264  -13.7633 C   0  0  0  0  0  0  0  0  0  0  0  0
   22.1288  -22.3330  -16.1856 O   0  0  0  0  0  0  0  0  0  0  0  0
  2  1  1  1
  3  2  1  0
  4  5  2  0
  4  3  1  0
  6  5  1  0
  7 12  2  0
  7  6  1  0
  8  7  1  0
  9 10  1  0
  9  8  2  0
 10 11  2  0
 11 12  1  0
 12  4  1  0
 13  2  1  0
 14 13  2  0
 15 13  1  0
 16 22  1  0
 16 15  1  0
 16 17  1  6
 18 17  1  0
 19 18  1  0
 20 19  1  0
 21 20  1  0
 22 23  2  0
 24 25  1  0
 25 35  2  0
 26 25  1  0
 26 27  2  0
 27 28  1  0
 28 34  2  0
 28 29  1  0
 30 32  1  0
 30 29  1  1
 31 30  1  0
 31 22  1  0
 32 33  1  0
 35 34  1  0
 36 32  2  0
M  END
$$$$
