WKY.pdb
     RDKit          3D

 36 38  0  0  1  0  0  0  0  0999 V2000
   27.9645  -20.4136  -10.0899 N   0  0  0  0  0  0  0  0  0  0  0  0
   26.9417  -21.4909  -10.1072 C   0  0  1  0  0  0  0  0  0  0  0  0
   26.1792  -21.3986   -8.8391 C   0  0  0  0  0  0  0  0  0  0  0  0
   26.5218  -20.2666   -7.9658 C   0  0  0  0  0  0  0  0  0  0  0  0
   26.1879  -18.9267   -8.0382 C   0  0  0  0  0  0  0  0  0  0  0  0
   26.7650  -18.2691   -7.0182 N   0  0  0  0  0  0  0  0  0  0  0  0
   27.4835  -19.1407   -6.2564 C   0  0  0  0  0  0  0  0  0  0  0  0
   28.2429  -18.9649   -5.1280 C   0  0  0  0  0  0  0  0  0  0  0  0
   28.8838  -20.0647   -4.5549 C   0  0  0  0  0  0  0  0  0  0  0  0
   28.7486  -21.3022   -5.1184 C   0  0  0  0  0  0  0  0  0  0  0  0
   27.9866  -21.4615   -6.2437 C   0  0  0  0  0  0  0  0  0  0  0  0
   27.3295  -20.3787   -6.8470 C   0  0  0  0  0  0  0  0  0  0  0  0
   26.0622  -21.2450  -11.3151 C   0  0  0  0  0  0  0  0  0  0  0  0
   25.3580  -20.2092  -11.3432 O   0  0  0  0  0  0  0  0  0  0  0  0
   26.0331  -22.1437  -12.3760 N   0  0  0  0  0  0  0  0  0  0  0  0
   25.3528  -21.8907  -13.6871 C   0  0  1  0  0  0  0  0  0  0  0  0
   26.1025  -22.6595  -14.7171 C   0  0  0  0  0  0  0  0  0  0  0  0
   27.3575  -22.1014  -15.2837 C   0  0  0  0  0  0  0  0  0  0  0  0
   28.0162  -23.1190  -16.2340 C   0  0  0  0  0  0  0  0  0  0  0  0
   29.2877  -22.5281  -16.7752 C   0  0  0  0  0  0  0  0  0  0  0  0
   29.0465  -21.1943  -17.3320 N   0  0  0  0  0  0  0  0  0  0  0  0
   23.9615  -22.2622  -13.4207 C   0  0  0  0  0  0  0  0  0  0  0  0
   23.7196  -22.8638  -12.2748 O   0  0  0  0  0  0  0  0  0  0  0  0
   16.8646  -18.6408  -10.5112 O   0  0  0  0  0  0  0  0  0  0  0  0
   18.0780  -19.0075  -11.1082 C   0  0  0  0  0  0  0  0  0  0  0  0
   18.6514  -20.2125  -10.7211 C   0  0  0  0  0  0  0  0  0  0  0  0
   19.8336  -20.6563  -11.2470 C   0  0  0  0  0  0  0  0  0  0  0  0
   20.4978  -19.8984  -12.1945 C   0  0  0  0  0  0  0  0  0  0  0  0
   21.7791  -20.4026  -12.7361 C   0  0  0  0  0  0  0  0  0  0  0  0
   21.5519  -21.6405  -13.5403 C   0  0  2  0  0  0  0  0  0  0  0  0
   22.8035  -22.0905  -14.1900 N   0  0  0  0  0  0  0  0  0  0  0  0
   20.5464  -21.4945  -14.6099 C   0  0  0  0  0  0  0  0  0  0  0  0
   20.9514  -20.9942  -15.8648 O   0  0  0  0  0  0  0  0  0  0  0  0
   19.9126  -18.6857  -12.5767 C   0  0  0  0  0  0  0  0  0  0  0  0
   18.7211  -18.2360  -12.0494 C   0  0  0  0  0  0  0  0  0  0  0  0
   19.3382  -21.8027  -14.4422 O   0  0  0  0  0  0  0  0  0  0  0  0
  2  1  1  1
  3  2  1  0
  4  5  2  0
  4  3  1  0
  6  5  1  0
  7 12  2  0
  7  6  1  0
  8  7  1  0
  9 10  1  0
  9  8  2  0
 10 11  2  0
 11 12  1  0
 12  4  1  0
 13  2  1  0
 14 13  2  0
 15 13  1  0
 16 22  1  0
 16 15  1  0
 16 17  1  6
 18 17  1  0
 19 18  1  0
 20 19  1  0
 21 20  1  0
 22 23  2  0
 24 25  1  0
 25 35  2  0
 26 25  1  0
 26 27  2  0
 27 28  1  0
 28 34  2  0
 28 29  1  0
 30 32  1  0
 30 29  1  6
 31 30  1  0
 31 22  1  0
 32 33  1  0
 35 34  1  0
 36 32  2  0
M  END
$$$$
