DSG.pdb
     RDKit          3D

 19 18  0  0  1  0  0  0  0  0999 V2000
   10.5699  -15.8572   14.8582 N   0  0  0  0  0  0  0  0  0  0  0  0
    9.3311  -16.0351   15.7054 C   0  0  1  0  0  0  0  0  0  0  0  0
    9.3325  -17.5208   15.9846 C   0  0  0  0  0  0  0  0  0  0  0  0
    8.8656  -18.3548   14.8814 C   0  0  0  0  0  0  0  0  0  0  0  0
    9.5778  -18.9995   14.0922 O   0  0  0  0  0  0  0  0  0  0  0  0
    9.6172  -15.3192   16.9692 C   0  0  0  0  0  0  0  0  0  0  0  0
   10.8412  -15.2604   17.3605 O   0  0  0  0  0  0  0  0  0  0  0  0
    7.4804  -18.4578   14.6667 O   0  0  0  0  0  0  0  0  0  0  0  0
    6.8379  -13.3251   19.2374 O   0  0  0  0  0  0  0  0  0  0  0  0
    8.1292  -12.8203   19.1655 C   0  0  0  0  0  0  0  0  0  0  0  0
    9.1283  -13.9871   19.0398 C   0  0  2  0  0  0  0  0  0  0  0  0
    8.7103  -14.6738   17.8188 N   0  0  0  0  0  0  0  0  0  0  0  0
    9.0676  -14.8034   20.2433 C   0  0  0  0  0  0  0  0  0  0  0  0
    7.9690  -15.3790   20.4884 O   0  0  0  0  0  0  0  0  0  0  0  0
   10.1143  -15.0205   21.1703 N   0  0  0  0  0  0  0  0  0  0  0  0
    9.9285  -15.8602   22.3440 C   0  0  0  0  0  0  0  0  0  0  0  0
   11.1506  -15.8974   23.1528 C   0  0  0  0  0  0  0  0  0  0  0  0
   12.1792  -15.3072   22.7460 O   0  0  0  0  0  0  0  0  0  0  0  0
   11.2264  -16.5679   24.3734 O   0  0  0  0  0  0  0  0  0  0  0  0
  2  1  1  6
  2  3  1  0
  3  4  1  0
  4  5  2  0
  6  7  2  0
  6  2  1  0
  8  4  1  0
  9 10  1  0
 11 10  1  1
 11 12  1  0
 12  6  1  0
 13 11  1  0
 13 15  1  0
 14 13  2  0
 16 15  1  0
 16 17  1  0
 17 19  1  0
 18 17  2  0
M  END
$$$$
