DSG.pdb
     RDKit          3D

 19 18  0  0  1  0  0  0  0  0999 V2000
   11.4301  -20.0328   19.9341 N   0  0  0  0  0  0  0  0  0  0  0  0
   12.7828  -19.9763   20.6056 C   0  0  1  0  0  0  0  0  0  0  0  0
   13.5186  -18.9459   19.7799 C   0  0  0  0  0  0  0  0  0  0  0  0
   13.8597  -19.3714   18.4259 C   0  0  0  0  0  0  0  0  0  0  0  0
   13.7709  -20.5253   17.9716 O   0  0  0  0  0  0  0  0  0  0  0  0
   12.5279  -19.4076   21.9485 C   0  0  0  0  0  0  0  0  0  0  0  0
   13.5403  -18.9941   22.6258 O   0  0  0  0  0  0  0  0  0  0  0  0
   14.3378  -18.4033   17.5260 O   0  0  0  0  0  0  0  0  0  0  0  0
    8.8871  -18.5344   23.2798 O   0  0  0  0  0  0  0  0  0  0  0  0
    9.9158  -17.7987   23.8525 C   0  0  0  0  0  0  0  0  0  0  0  0
   11.1836  -18.6710   23.9362 C   0  0  2  0  0  0  0  0  0  0  0  0
   11.2978  -19.2492   22.5983 N   0  0  0  0  0  0  0  0  0  0  0  0
   11.0258  -19.6466   25.0047 C   0  0  0  0  0  0  0  0  0  0  0  0
   10.5162  -20.7603   24.6910 O   0  0  0  0  0  0  0  0  0  0  0  0
   11.3853  -19.4774   26.3628 N   0  0  0  0  0  0  0  0  0  0  0  0
   11.1719  -20.5315   27.3429 C   0  0  0  0  0  0  0  0  0  0  0  0
   11.5271  -20.0680   28.6875 C   0  0  0  0  0  0  0  0  0  0  0  0
   11.9984  -18.9163   28.8398 O   0  0  0  0  0  0  0  0  0  0  0  0
   11.3632  -20.8584   29.8249 O   0  0  0  0  0  0  0  0  0  0  0  0
  2  1  1  6
  2  3  1  0
  3  4  1  0
  4  5  2  0
  6  7  2  0
  6  2  1  0
  8  4  1  0
  9 10  1  0
 11 10  1  6
 11 12  1  0
 12  6  1  0
 13 11  1  0
 13 15  1  0
 14 13  2  0
 16 15  1  0
 16 17  1  0
 17 19  1  0
 18 17  2  0
M  END
$$$$
