DSG.pdb
     RDKit          3D

 19 18  0  0  1  0  0  0  0  0999 V2000
    8.2728  -15.4305   20.0780 N   0  0  0  0  0  0  0  0  0  0  0  0
    7.2678  -15.6814   21.1784 C   0  0  1  0  0  0  0  0  0  0  0  0
    7.0978  -17.1828   21.1345 C   0  0  0  0  0  0  0  0  0  0  0  0
    6.4389  -17.6928   19.9360 C   0  0  0  0  0  0  0  0  0  0  0  0
    5.3220  -17.3538   19.5080 O   0  0  0  0  0  0  0  0  0  0  0  0
    7.9669  -15.3241   22.4335 C   0  0  0  0  0  0  0  0  0  0  0  0
    9.2190  -15.6054   22.5226 O   0  0  0  0  0  0  0  0  0  0  0  0
    7.1095  -18.6631   19.1714 O   0  0  0  0  0  0  0  0  0  0  0  0
    6.1712  -13.7717   25.8059 O   0  0  0  0  0  0  0  0  0  0  0  0
    7.4641  -13.3580   25.5146 C   0  0  0  0  0  0  0  0  0  0  0  0
    8.2130  -14.4929   24.7892 C   0  0  2  0  0  0  0  0  0  0  0  0
    7.4360  -14.6985   23.5681 N   0  0  0  0  0  0  0  0  0  0  0  0
    8.2859  -15.6553   25.6620 C   0  0  0  0  0  0  0  0  0  0  0  0
    7.2569  -16.3871   25.7262 O   0  0  0  0  0  0  0  0  0  0  0  0
    9.3929  -16.0529   26.4486 N   0  0  0  0  0  0  0  0  0  0  0  0
    9.3492  -17.2517   27.2721 C   0  0  0  0  0  0  0  0  0  0  0  0
   10.5679  -17.3711   28.0780 C   0  0  0  0  0  0  0  0  0  0  0  0
   11.4951  -16.5416   27.9230 O   0  0  0  0  0  0  0  0  0  0  0  0
   10.7494  -18.3788   29.0250 O   0  0  0  0  0  0  0  0  0  0  0  0
  2  1  1  6
  2  3  1  0
  3  4  1  0
  4  5  2  0
  6  7  2  0
  6  2  1  0
  8  4  1  0
  9 10  1  0
 11 10  1  1
 11 12  1  0
 12  6  1  0
 13 11  1  0
 13 15  1  0
 14 13  2  0
 16 15  1  0
 16 17  1  0
 17 19  1  0
 18 17  2  0
M  END
$$$$
