DSG.pdb
     RDKit          3D

 19 18  0  0  1  0  0  0  0  0999 V2000
   11.9641  -16.7813   19.3267 N   0  0  0  0  0  0  0  0  0  0  0  0
   10.7684  -17.3626   20.0454 C   0  0  1  0  0  0  0  0  0  0  0  0
   11.3697  -18.5273   20.7982 C   0  0  0  0  0  0  0  0  0  0  0  0
   11.8686  -19.6117   19.9581 C   0  0  0  0  0  0  0  0  0  0  0  0
   12.9831  -20.1563   20.0421 O   0  0  0  0  0  0  0  0  0  0  0  0
   10.3622  -16.3294   21.0246 C   0  0  0  0  0  0  0  0  0  0  0  0
   11.2659  -15.8618   21.8117 O   0  0  0  0  0  0  0  0  0  0  0  0
   11.0283  -20.1089   18.9469 O   0  0  0  0  0  0  0  0  0  0  0  0
    6.6790  -14.6495   21.1850 O   0  0  0  0  0  0  0  0  0  0  0  0
    7.7407  -13.8805   21.6424 C   0  0  0  0  0  0  0  0  0  0  0  0
    8.8068  -14.8010   22.2678 C   0  0  2  0  0  0  0  0  0  0  0  0
    9.0916  -15.7718   21.2126 N   0  0  0  0  0  0  0  0  0  0  0  0
    8.2814  -15.3797   23.4957 C   0  0  0  0  0  0  0  0  0  0  0  0
    7.0239  -15.4645   23.5949 O   0  0  0  0  0  0  0  0  0  0  0  0
    9.0348  -15.8591   24.5933 N   0  0  0  0  0  0  0  0  0  0  0  0
    9.0538  -15.1565   25.8674 C   0  0  0  0  0  0  0  0  0  0  0  0
    9.8926  -15.8664   26.8377 C   0  0  0  0  0  0  0  0  0  0  0  0
   10.5568  -16.8633   26.4679 O   0  0  0  0  0  0  0  0  0  0  0  0
    9.9901  -15.4803   28.1744 O   0  0  0  0  0  0  0  0  0  0  0  0
  2  1  1  6
  2  3  1  0
  3  4  1  0
  4  5  2  0
  6  7  2  0
  6  2  1  0
  8  4  1  0
  9 10  1  0
 11 10  1  6
 11 12  1  0
 12  6  1  0
 13 11  1  0
 13 15  1  0
 14 13  2  0
 16 15  1  0
 16 17  1  0
 17 19  1  0
 18 17  2  0
M  END
$$$$
