DSG.pdb
     RDKit          3D

 19 18  0  0  1  0  0  0  0  0999 V2000
   10.2258  -17.0508   19.1313 N   0  0  0  0  0  0  0  0  0  0  0  0
    9.0149  -17.1166   20.0332 C   0  0  1  0  0  0  0  0  0  0  0  0
    8.7669  -18.6035   20.1452 C   0  0  0  0  0  0  0  0  0  0  0  0
    8.2561  -19.2354   18.9327 C   0  0  0  0  0  0  0  0  0  0  0  0
    7.1979  -18.9532   18.3441 O   0  0  0  0  0  0  0  0  0  0  0  0
    9.4799  -16.6173   21.3470 C   0  0  0  0  0  0  0  0  0  0  0  0
   10.6940  -16.8705   21.6884 O   0  0  0  0  0  0  0  0  0  0  0  0
    9.0136  -20.2670   18.3516 O   0  0  0  0  0  0  0  0  0  0  0  0
    7.1932  -14.4867   24.0081 O   0  0  0  0  0  0  0  0  0  0  0  0
    8.5552  -14.2206   23.9642 C   0  0  0  0  0  0  0  0  0  0  0  0
    9.3162  -15.5083   23.5929 C   0  0  2  0  0  0  0  0  0  0  0  0
    8.7580  -15.8809   22.2941 N   0  0  0  0  0  0  0  0  0  0  0  0
    9.1228  -16.4999   24.6407 C   0  0  0  0  0  0  0  0  0  0  0  0
    8.1083  -17.2475   24.5396 O   0  0  0  0  0  0  0  0  0  0  0  0
    9.9554  -16.7148   25.7644 N   0  0  0  0  0  0  0  0  0  0  0  0
    9.6404  -17.7261   26.7619 C   0  0  0  0  0  0  0  0  0  0  0  0
   10.5791  -17.6551   27.8856 C   0  0  0  0  0  0  0  0  0  0  0  0
   11.5222  -16.8298   27.8520 O   0  0  0  0  0  0  0  0  0  0  0  0
   10.4724  -18.4740   29.0097 O   0  0  0  0  0  0  0  0  0  0  0  0
  2  1  1  6
  2  3  1  0
  3  4  1  0
  4  5  2  0
  6  7  2  0
  6  2  1  0
  8  4  1  0
  9 10  1  0
 11 10  1  1
 11 12  1  0
 12  6  1  0
 13 11  1  0
 13 15  1  0
 14 13  2  0
 16 15  1  0
 16 17  1  0
 17 19  1  0
 18 17  2  0
M  END
$$$$
