DSG.pdb
     RDKit          3D

 19 18  0  0  1  0  0  0  0  0999 V2000
    7.3456  -17.0648   17.7255 N   0  0  0  0  0  0  0  0  0  0  0  0
    6.9292  -17.1179   19.1773 C   0  0  1  0  0  0  0  0  0  0  0  0
    7.1524  -18.5703   19.5320 C   0  0  0  0  0  0  0  0  0  0  0  0
    6.2991  -19.5162   18.8192 C   0  0  0  0  0  0  0  0  0  0  0  0
    5.0598  -19.5875   18.8879 O   0  0  0  0  0  0  0  0  0  0  0  0
    7.9286  -16.2988   19.8997 C   0  0  0  0  0  0  0  0  0  0  0  0
    9.0522  -16.0724   19.3157 O   0  0  0  0  0  0  0  0  0  0  0  0
    6.9112  -20.4491   17.9645 O   0  0  0  0  0  0  0  0  0  0  0  0
    7.3684  -14.4490   23.5557 O   0  0  0  0  0  0  0  0  0  0  0  0
    8.1729  -13.8619   22.5885 C   0  0  0  0  0  0  0  0  0  0  0  0
    8.8987  -14.9623   21.7900 C   0  0  2  0  0  0  0  0  0  0  0  0
    7.8115  -15.7156   21.1672 N   0  0  0  0  0  0  0  0  0  0  0  0
    9.7330  -15.7407   22.6936 C   0  0  0  0  0  0  0  0  0  0  0  0
    9.1493  -16.6046   23.4087 O   0  0  0  0  0  0  0  0  0  0  0  0
   11.1344  -15.6306   22.8550 N   0  0  0  0  0  0  0  0  0  0  0  0
   11.8634  -16.4881   23.7772 C   0  0  0  0  0  0  0  0  0  0  0  0
   13.2791  -16.1111   23.8258 C   0  0  0  0  0  0  0  0  0  0  0  0
   13.7082  -15.2201   23.0552 O   0  0  0  0  0  0  0  0  0  0  0  0
   14.1875  -16.7045   24.7022 O   0  0  0  0  0  0  0  0  0  0  0  0
  2  1  1  6
  2  3  1  0
  3  4  1  0
  4  5  2  0
  6  7  2  0
  6  2  1  0
  8  4  1  0
  9 10  1  0
 11 10  1  1
 11 12  1  0
 12  6  1  0
 13 11  1  0
 13 15  1  0
 14 13  2  0
 16 15  1  0
 16 17  1  0
 17 19  1  0
 18 17  2  0
M  END
$$$$
