DSG.pdb
     RDKit          3D

 19 18  0  0  1  0  0  0  0  0999 V2000
   11.4786  -22.8002   26.5840 N   0  0  0  0  0  0  0  0  0  0  0  0
   12.3426  -23.6172   27.5166 C   0  0  1  0  0  0  0  0  0  0  0  0
   13.7397  -23.3037   27.0322 C   0  0  0  0  0  0  0  0  0  0  0  0
   14.1572  -24.0369   25.8411 C   0  0  0  0  0  0  0  0  0  0  0  0
   14.1457  -23.6124   24.6725 O   0  0  0  0  0  0  0  0  0  0  0  0
   12.1601  -23.0060   28.8526 C   0  0  0  0  0  0  0  0  0  0  0  0
   12.1360  -21.7219   28.9254 O   0  0  0  0  0  0  0  0  0  0  0  0
   14.6222  -25.3537   26.0007 O   0  0  0  0  0  0  0  0  0  0  0  0
   10.0292  -23.8553   32.7234 O   0  0  0  0  0  0  0  0  0  0  0  0
   10.2259  -23.1325   31.5544 C   0  0  0  0  0  0  0  0  0  0  0  0
   11.7366  -22.9312   31.3256 C   0  0  2  0  0  0  0  0  0  0  0  0
   12.0004  -23.6549   30.0830 N   0  0  0  0  0  0  0  0  0  0  0  0
   12.4682  -23.4284   32.4815 C   0  0  0  0  0  0  0  0  0  0  0  0
   12.5156  -24.6828   32.6313 O   0  0  0  0  0  0  0  0  0  0  0  0
   13.1343  -22.6506   33.4580 N   0  0  0  0  0  0  0  0  0  0  0  0
   14.4486  -23.0225   33.9594 C   0  0  0  0  0  0  0  0  0  0  0  0
   14.9489  -22.0142   34.8985 C   0  0  0  0  0  0  0  0  0  0  0  0
   14.3323  -20.9303   35.0280 O   0  0  0  0  0  0  0  0  0  0  0  0
   16.0962  -22.2048   35.6684 O   0  0  0  0  0  0  0  0  0  0  0  0
  2  1  1  6
  2  3  1  0
  3  4  1  0
  4  5  2  0
  6  7  2  0
  6  2  1  0
  8  4  1  0
  9 10  1  0
 11 10  1  1
 11 12  1  0
 12  6  1  0
 13 11  1  0
 13 15  1  0
 14 13  2  0
 16 15  1  0
 16 17  1  0
 17 19  1  0
 18 17  2  0
M  END
$$$$
