DSG.pdb
     RDKit          3D

 19 18  0  0  1  0  0  0  0  0999 V2000
   11.5962  -19.3848   17.4203 N   0  0  0  0  0  0  0  0  0  0  0  0
   12.9990  -18.8364   17.5440 C   0  0  1  0  0  0  0  0  0  0  0  0
   13.0875  -17.8878   16.3704 C   0  0  0  0  0  0  0  0  0  0  0  0
   13.3006  -18.5280   15.0761 C   0  0  0  0  0  0  0  0  0  0  0  0
   13.3592  -19.7509   14.8594 O   0  0  0  0  0  0  0  0  0  0  0  0
   12.9977  -18.0407   18.7924 C   0  0  0  0  0  0  0  0  0  0  0  0
   14.0134  -17.2856   19.0224 O   0  0  0  0  0  0  0  0  0  0  0  0
   13.4581  -17.7064   13.9466 O   0  0  0  0  0  0  0  0  0  0  0  0
    9.9975  -18.0287   21.6171 O   0  0  0  0  0  0  0  0  0  0  0  0
   10.7123  -16.8584   21.4008 C   0  0  0  0  0  0  0  0  0  0  0  0
   12.1608  -17.2089   21.0079 C   0  0  2  0  0  0  0  0  0  0  0  0
   12.0097  -17.9932   19.7834 N   0  0  0  0  0  0  0  0  0  0  0  0
   12.7979  -17.9202   22.1064 C   0  0  0  0  0  0  0  0  0  0  0  0
   12.3970  -19.0975   22.3336 O   0  0  0  0  0  0  0  0  0  0  0  0
   13.8231  -17.4291   22.9489 N   0  0  0  0  0  0  0  0  0  0  0  0
   14.3530  -18.2254   24.0454 C   0  0  0  0  0  0  0  0  0  0  0  0
   15.3616  -17.4696   24.7940 C   0  0  0  0  0  0  0  0  0  0  0  0
   15.7218  -16.3421   24.3808 O   0  0  0  0  0  0  0  0  0  0  0  0
   15.9497  -17.9511   25.9635 O   0  0  0  0  0  0  0  0  0  0  0  0
  2  1  1  6
  2  3  1  0
  3  4  1  0
  4  5  2  0
  6  7  2  0
  6  2  1  0
  8  4  1  0
  9 10  1  0
 11 10  1  1
 11 12  1  0
 12  6  1  0
 13 11  1  0
 13 15  1  0
 14 13  2  0
 16 15  1  0
 16 17  1  0
 17 19  1  0
 18 17  2  0
M  END
$$$$
