DSG.pdb
     RDKit          3D

 19 18  0  0  1  0  0  0  0  0999 V2000
   13.9582  -14.9899   15.3497 N   0  0  0  0  0  0  0  0  0  0  0  0
   13.6684  -16.2296   16.1641 C   0  0  1  0  0  0  0  0  0  0  0  0
   15.0485  -16.7985   16.4023 C   0  0  0  0  0  0  0  0  0  0  0  0
   15.6872  -17.3776   15.2244 C   0  0  0  0  0  0  0  0  0  0  0  0
   16.8936  -17.3095   14.9318 O   0  0  0  0  0  0  0  0  0  0  0  0
   13.1357  -15.7334   17.4531 C   0  0  0  0  0  0  0  0  0  0  0  0
   13.9123  -15.0155   18.1856 O   0  0  0  0  0  0  0  0  0  0  0  0
   14.8843  -18.0872   14.3148 O   0  0  0  0  0  0  0  0  0  0  0  0
    9.2055  -15.6494   18.5356 O   0  0  0  0  0  0  0  0  0  0  0  0
   10.1130  -14.7055   18.9971 C   0  0  0  0  0  0  0  0  0  0  0  0
   11.4607  -15.3927   19.2913 C   0  0  2  0  0  0  0  0  0  0  0  0
   11.8623  -15.9410   17.9970 N   0  0  0  0  0  0  0  0  0  0  0  0
   11.2746  -16.3873   20.3375 C   0  0  0  0  0  0  0  0  0  0  0  0
   11.1661  -17.5916   19.9682 O   0  0  0  0  0  0  0  0  0  0  0  0
   11.2026  -16.1454   21.7298 N   0  0  0  0  0  0  0  0  0  0  0  0
   11.8928  -16.9975   22.6863 C   0  0  0  0  0  0  0  0  0  0  0  0
   11.6746  -16.5215   24.0555 C   0  0  0  0  0  0  0  0  0  0  0  0
   12.0948  -17.2021   25.0209 O   0  0  0  0  0  0  0  0  0  0  0  0
   11.0117  -15.3281   24.3419 O   0  0  0  0  0  0  0  0  0  0  0  0
  2  1  1  6
  2  3  1  0
  3  4  1  0
  4  5  2  0
  6  7  2  0
  6  2  1  0
  8  4  1  0
  9 10  1  0
 11 10  1  6
 11 12  1  0
 12  6  1  0
 13 11  1  0
 13 15  1  0
 14 13  2  0
 16 15  1  0
 16 17  1  0
 17 19  1  0
 18 17  2  0
M  END
$$$$
