DSG.pdb
     RDKit          3D

 19 18  0  0  1  0  0  0  0  0999 V2000
   -5.2219  -24.6275   29.9211 N   0  0  0  0  0  0  0  0  0  0  0  0
   -5.8544  -25.8862   29.3737 C   0  0  1  0  0  0  0  0  0  0  0  0
   -4.9389  -26.9698   29.8959 C   0  0  0  0  0  0  0  0  0  0  0  0
   -3.6687  -27.0967   29.1878 C   0  0  0  0  0  0  0  0  0  0  0  0
   -2.6738  -27.7381   29.5678 O   0  0  0  0  0  0  0  0  0  0  0  0
   -7.1586  -25.9994   30.0649 C   0  0  0  0  0  0  0  0  0  0  0  0
   -7.8530  -27.0633   29.8630 O   0  0  0  0  0  0  0  0  0  0  0  0
   -3.5284  -26.4401   27.9529 O   0  0  0  0  0  0  0  0  0  0  0  0
   -8.4336  -25.0792   33.7960 O   0  0  0  0  0  0  0  0  0  0  0  0
   -9.0855  -24.4068   32.7711 C   0  0  0  0  0  0  0  0  0  0  0  0
   -9.0869  -25.2838   31.5038 C   0  0  2  0  0  0  0  0  0  0  0  0
   -7.7540  -25.0812   30.9383 N   0  0  0  0  0  0  0  0  0  0  0  0
  -10.1805  -24.8724   30.6359 C   0  0  0  0  0  0  0  0  0  0  0  0
   -9.8721  -24.2166   29.5999 O   0  0  0  0  0  0  0  0  0  0  0  0
  -11.5577  -25.1315   30.8320 N   0  0  0  0  0  0  0  0  0  0  0  0
  -12.5622  -24.6556   29.8930 C   0  0  0  0  0  0  0  0  0  0  0  0
  -13.9102  -24.9832   30.3666 C   0  0  0  0  0  0  0  0  0  0  0  0
  -14.0501  -25.6898   31.3928 O   0  0  0  0  0  0  0  0  0  0  0  0
  -15.0643  -24.5397   29.7211 O   0  0  0  0  0  0  0  0  0  0  0  0
  2  1  1  1
  2  3  1  0
  3  4  1  0
  4  5  2  0
  6  7  2  0
  6  2  1  0
  8  4  1  0
  9 10  1  0
 11 10  1  1
 11 12  1  0
 12  6  1  0
 13 11  1  0
 13 15  1  0
 14 13  2  0
 16 15  1  0
 16 17  1  0
 17 19  1  0
 18 17  2  0
M  END
$$$$
