DSG.pdb
     RDKit          3D

 19 18  0  0  1  0  0  0  0  0999 V2000
    6.6706  -23.6300   24.4034 N   0  0  0  0  0  0  0  0  0  0  0  0
    6.0407  -22.5676   25.2742 C   0  0  1  0  0  0  0  0  0  0  0  0
    5.9346  -23.2590   26.6142 C   0  0  0  0  0  0  0  0  0  0  0  0
    4.7073  -24.0225   26.8175 C   0  0  0  0  0  0  0  0  0  0  0  0
    3.6681  -23.9415   26.1398 O   0  0  0  0  0  0  0  0  0  0  0  0
    7.0565  -21.4957   25.3775 C   0  0  0  0  0  0  0  0  0  0  0  0
    8.1894  -21.6863   24.7986 O   0  0  0  0  0  0  0  0  0  0  0  0
    4.6677  -24.9471   27.8754 O   0  0  0  0  0  0  0  0  0  0  0  0
    6.3018  -17.7551   26.4904 O   0  0  0  0  0  0  0  0  0  0  0  0
    7.4605  -17.9737   25.7576 C   0  0  0  0  0  0  0  0  0  0  0  0
    8.0677  -19.3336   26.1544 C   0  0  2  0  0  0  0  0  0  0  0  0
    6.9466  -20.2641   26.0347 N   0  0  0  0  0  0  0  0  0  0  0  0
    8.6318  -19.2358   27.4926 C   0  0  0  0  0  0  0  0  0  0  0  0
    7.8274  -18.9828   28.4346 O   0  0  0  0  0  0  0  0  0  0  0  0
    9.9915  -19.3956   27.8498 N   0  0  0  0  0  0  0  0  0  0  0  0
   10.4473  -19.1947   29.2170 C   0  0  0  0  0  0  0  0  0  0  0  0
   11.8911  -19.4260   29.3208 C   0  0  0  0  0  0  0  0  0  0  0  0
   12.5234  -19.8441   28.3223 O   0  0  0  0  0  0  0  0  0  0  0  0
   12.6081  -19.1995   30.4955 O   0  0  0  0  0  0  0  0  0  0  0  0
  2  1  1  6
  2  3  1  0
  3  4  1  0
  4  5  2  0
  6  7  2  0
  6  2  1  0
  8  4  1  0
  9 10  1  0
 11 10  1  1
 11 12  1  0
 12  6  1  0
 13 11  1  0
 13 15  1  0
 14 13  2  0
 16 15  1  0
 16 17  1  0
 17 19  1  0
 18 17  2  0
M  END
$$$$
