DSG.pdb
     RDKit          3D

 19 18  0  0  1  0  0  0  0  0999 V2000
    9.1549  -16.8177   19.0334 N   0  0  0  0  0  0  0  0  0  0  0  0
    8.0002  -16.5182   19.9614 C   0  0  1  0  0  0  0  0  0  0  0  0
    7.3977  -17.8854   20.1908 C   0  0  0  0  0  0  0  0  0  0  0  0
    6.7091  -18.4561   19.0371 C   0  0  0  0  0  0  0  0  0  0  0  0
    6.1114  -17.8243   18.1487 O   0  0  0  0  0  0  0  0  0  0  0  0
    8.6234  -16.0614   21.2241 C   0  0  0  0  0  0  0  0  0  0  0  0
    9.8655  -16.3377   21.4132 O   0  0  0  0  0  0  0  0  0  0  0  0
    6.7053  -19.8541   18.8907 O   0  0  0  0  0  0  0  0  0  0  0  0
    6.7440  -13.9580   24.2872 O   0  0  0  0  0  0  0  0  0  0  0  0
    8.0573  -13.6719   23.9395 C   0  0  0  0  0  0  0  0  0  0  0  0
    8.7575  -14.9649   23.4781 C   0  0  2  0  0  0  0  0  0  0  0  0
    8.0285  -15.3437   22.2689 N   0  0  0  0  0  0  0  0  0  0  0  0
    8.7040  -15.9489   24.5492 C   0  0  0  0  0  0  0  0  0  0  0  0
    7.6211  -16.5870   24.6853 O   0  0  0  0  0  0  0  0  0  0  0  0
    9.7419  -16.2666   25.4569 N   0  0  0  0  0  0  0  0  0  0  0  0
    9.5575  -17.2576   26.5062 C   0  0  0  0  0  0  0  0  0  0  0  0
   10.7400  -17.3233   27.3701 C   0  0  0  0  0  0  0  0  0  0  0  0
   11.7464  -16.6285   27.0941 O   0  0  0  0  0  0  0  0  0  0  0  0
   10.8014  -18.1340   28.5033 O   0  0  0  0  0  0  0  0  0  0  0  0
  2  1  1  6
  2  3  1  0
  3  4  1  0
  4  5  2  0
  6  7  2  0
  6  2  1  0
  8  4  1  0
  9 10  1  0
 11 10  1  1
 11 12  1  0
 12  6  1  0
 13 11  1  0
 13 15  1  0
 14 13  2  0
 16 15  1  0
 16 17  1  0
 17 19  1  0
 18 17  2  0
M  END
$$$$
