DMF.pdb
     RDKit          3D

 28 28  0  0  1  0  0  0  0  0999 V2000
   28.0636  -20.3627  -16.4863 N   0  0  0  0  0  0  0  0  0  0  0  0
   27.1773  -21.4971  -16.6331 C   0  0  1  0  0  0  0  0  0  0  0  0
   27.9722  -22.7285  -16.9982 C   0  0  0  0  0  0  0  0  0  0  0  0
   28.2944  -22.7355  -18.4485 C   0  0  0  0  0  0  0  0  0  0  0  0
   27.9083  -21.7818  -19.1648 O   0  0  0  0  0  0  0  0  0  0  0  0
   26.4127  -21.6716  -15.3843 C   0  0  0  0  0  0  0  0  0  0  0  0
   25.9575  -22.8238  -15.0658 O   0  0  0  0  0  0  0  0  0  0  0  0
   29.0037  -23.7469  -19.0554 O   0  0  0  0  0  0  0  0  0  0  0  0
   24.7761  -21.5086   -8.2472 C   0  0  0  0  0  0  0  0  0  0  0  0
   25.7746  -21.3890   -9.7311 S   0  0  0  0  0  0  0  0  0  0  0  0
   25.1554  -20.1171  -10.8815 C   0  0  0  0  0  0  0  0  0  0  0  0
   25.9756  -20.0581  -12.1287 C   0  0  0  0  0  0  0  0  0  0  0  0
   25.3408  -20.8561  -13.2312 C   0  0  2  0  0  0  0  0  0  0  0  0
   26.1327  -20.6239  -14.4767 N   0  0  0  0  0  0  0  0  0  0  0  0
   23.9349  -20.5941  -13.4961 C   0  0  0  0  0  0  0  0  0  0  0  0
   23.6018  -19.4005  -13.8333 O   0  0  0  0  0  0  0  0  0  0  0  0
   22.9018  -21.5427  -13.4194 N   0  0  0  0  0  0  0  0  0  0  0  0
   21.4968  -21.2043  -13.6454 C   0  0  1  0  0  0  0  0  0  0  0  0
   20.9985  -21.8563  -14.9083 C   0  0  0  0  0  0  0  0  0  0  0  0
   21.6212  -21.2687  -16.1114 C   0  0  0  0  0  0  0  0  0  0  0  0
   22.7822  -21.7871  -16.6829 C   0  0  0  0  0  0  0  0  0  0  0  0
   23.3353  -21.2158  -17.8021 C   0  0  0  0  0  0  0  0  0  0  0  0
   22.7636  -20.1049  -18.4061 C   0  0  0  0  0  0  0  0  0  0  0  0
   21.6131  -19.5681  -17.8634 C   0  0  0  0  0  0  0  0  0  0  0  0
   21.0747  -20.1513  -16.7461 C   0  0  0  0  0  0  0  0  0  0  0  0
   20.6728  -21.4967  -12.4739 C   0  0  0  0  0  0  0  0  0  0  0  0
   19.4369  -20.8986  -12.2364 O   0  0  0  0  0  0  0  0  0  0  0  0
   21.0832  -22.3273  -11.6265 O   0  0  0  0  0  0  0  0  0  0  0  0
  2  1  1  1
  2  3  1  0
  3  4  1  0
  4  5  2  0
  4  8  1  0
  6 14  1  0
  6  2  1  0
  7  6  2  0
  9 10  1  0
 10 11  1  0
 12 11  1  0
 13 12  1  1
 13 14  1  0
 15 17  1  0
 15 13  1  0
 16 15  2  0
 18 17  1  0
 18 26  1  0
 19 20  1  0
 18 19  1  6
 20 25  2  0
 21 20  1  0
 21 22  2  0
 22 23  1  0
 23 24  2  0
 25 24  1  0
 26 27  1  0
 28 26  2  0
M  END
$$$$
