DMF.pdb
     RDKit          3D

 28 28  0  0  1  0  0  0  0  0999 V2000
   28.8749  -26.6559  -16.5525 N   0  0  0  0  0  0  0  0  0  0  0  0
   28.8968  -27.0087  -17.9558 C   0  0  1  0  0  0  0  0  0  0  0  0
   29.8144  -26.0740  -18.7081 C   0  0  0  0  0  0  0  0  0  0  0  0
   29.0531  -24.9278  -19.2683 C   0  0  0  0  0  0  0  0  0  0  0  0
   29.6523  -23.8513  -19.5006 O   0  0  0  0  0  0  0  0  0  0  0  0
   29.3016  -28.4205  -18.0879 C   0  0  0  0  0  0  0  0  0  0  0  0
   28.9881  -29.0830  -19.1363 O   0  0  0  0  0  0  0  0  0  0  0  0
   27.7071  -24.9859  -19.5497 O   0  0  0  0  0  0  0  0  0  0  0  0
   35.2239  -29.5493  -17.5739 C   0  0  0  0  0  0  0  0  0  0  0  0
   34.2820  -30.7121  -18.5608 S   0  0  0  0  0  0  0  0  0  0  0  0
   32.4952  -30.3493  -18.5402 C   0  0  0  0  0  0  0  0  0  0  0  0
   31.8803  -30.6912  -17.2223 C   0  0  0  0  0  0  0  0  0  0  0  0
   30.3844  -30.5697  -17.2763 C   0  0  2  0  0  0  0  0  0  0  0  0
   30.0375  -29.1261  -17.1080 N   0  0  0  0  0  0  0  0  0  0  0  0
   29.6333  -31.3626  -16.3158 C   0  0  0  0  0  0  0  0  0  0  0  0
   29.7784  -31.0884  -15.0696 O   0  0  0  0  0  0  0  0  0  0  0  0
   28.7515  -32.4079  -16.6362 N   0  0  0  0  0  0  0  0  0  0  0  0
   27.9480  -33.1032  -15.6308 C   0  0  1  0  0  0  0  0  0  0  0  0
   27.2265  -32.1093  -14.7592 C   0  0  0  0  0  0  0  0  0  0  0  0
   26.3077  -32.7744  -13.8137 C   0  0  0  0  0  0  0  0  0  0  0  0
   26.7290  -33.2619  -12.5775 C   0  0  0  0  0  0  0  0  0  0  0  0
   25.8480  -33.8758  -11.7220 C   0  0  0  0  0  0  0  0  0  0  0  0
   24.5095  -34.0348  -12.0521 C   0  0  0  0  0  0  0  0  0  0  0  0
   24.0617  -33.5624  -13.2697 C   0  0  0  0  0  0  0  0  0  0  0  0
   24.9550  -32.9522  -14.1112 C   0  0  0  0  0  0  0  0  0  0  0  0
   27.0641  -34.0981  -16.2355 C   0  0  0  0  0  0  0  0  0  0  0  0
   26.7291  -35.3024  -15.6197 O   0  0  0  0  0  0  0  0  0  0  0  0
   26.5713  -33.8738  -17.3684 O   0  0  0  0  0  0  0  0  0  0  0  0
  2  1  1  1
  2  3  1  0
  3  4  1  0
  4  5  2  0
  4  8  1  0
  6 14  1  0
  6  2  1  0
  7  6  2  0
  9 10  1  0
 10 11  1  0
 12 11  1  0
 13 12  1  1
 13 14  1  0
 15 17  1  0
 15 13  1  0
 16 15  2  0
 18 17  1  0
 18 26  1  0
 19 20  1  0
 18 19  1  6
 20 25  2  0
 21 20  1  0
 21 22  2  0
 22 23  1  0
 23 24  2  0
 25 24  1  0
 26 27  1  0
 28 26  2  0
M  END
$$$$
