DMF.pdb
     RDKit          3D

 28 28  0  0  1  0  0  0  0  0999 V2000
   28.1391  -21.8737  -16.0082 N   0  0  0  0  0  0  0  0  0  0  0  0
   27.7387  -20.7404  -15.2024 C   0  0  1  0  0  0  0  0  0  0  0  0
   26.9402  -19.7691  -16.0393 C   0  0  0  0  0  0  0  0  0  0  0  0
   27.8017  -19.1272  -17.0654 C   0  0  0  0  0  0  0  0  0  0  0  0
   27.4680  -19.1938  -18.2721 O   0  0  0  0  0  0  0  0  0  0  0  0
   26.9836  -21.2276  -14.0332 C   0  0  0  0  0  0  0  0  0  0  0  0
   26.0808  -22.1221  -14.1792 O   0  0  0  0  0  0  0  0  0  0  0  0
   28.9623  -18.4543  -16.7575 O   0  0  0  0  0  0  0  0  0  0  0  0
   26.7250  -19.1701   -7.0564 C   0  0  0  0  0  0  0  0  0  0  0  0
   27.0854  -20.8554   -7.5496 S   0  0  0  0  0  0  0  0  0  0  0  0
   26.2563  -21.3129   -9.1079 C   0  0  0  0  0  0  0  0  0  0  0  0
   27.0352  -20.8581  -10.2988 C   0  0  0  0  0  0  0  0  0  0  0  0
   26.3439  -21.2423  -11.5755 C   0  0  2  0  0  0  0  0  0  0  0  0
   27.1875  -20.7650  -12.7126 N   0  0  0  0  0  0  0  0  0  0  0  0
   24.9826  -20.7600  -11.7475 C   0  0  0  0  0  0  0  0  0  0  0  0
   24.8208  -19.5291  -12.0762 O   0  0  0  0  0  0  0  0  0  0  0  0
   23.8198  -21.5317  -11.5889 N   0  0  0  0  0  0  0  0  0  0  0  0
   22.4764  -20.9942  -11.8037 C   0  0  1  0  0  0  0  0  0  0  0  0
   21.8062  -21.7044  -12.9503 C   0  0  0  0  0  0  0  0  0  0  0  0
   21.9130  -20.9378  -14.2079 C   0  0  0  0  0  0  0  0  0  0  0  0
   21.2263  -19.7429  -14.4172 C   0  0  0  0  0  0  0  0  0  0  0  0
   21.3479  -19.0553  -15.5993 C   0  0  0  0  0  0  0  0  0  0  0  0
   22.1552  -19.5200  -16.6279 C   0  0  0  0  0  0  0  0  0  0  0  0
   22.8483  -20.7009  -16.4508 C   0  0  0  0  0  0  0  0  0  0  0  0
   22.7151  -21.3742  -15.2644 C   0  0  0  0  0  0  0  0  0  0  0  0
   21.6869  -20.9986  -10.5735 C   0  0  0  0  0  0  0  0  0  0  0  0
   20.4798  -20.3165  -10.4339 O   0  0  0  0  0  0  0  0  0  0  0  0
   22.1015  -21.6450   -9.5802 O   0  0  0  0  0  0  0  0  0  0  0  0
  2  1  1  6
  2  3  1  0
  3  4  1  0
  4  5  2  0
  4  8  1  0
  6 14  1  0
  6  2  1  0
  7  6  2  0
  9 10  1  0
 10 11  1  0
 12 11  1  0
 13 12  1  1
 13 14  1  0
 15 17  1  0
 15 13  1  0
 16 15  2  0
 18 17  1  0
 18 26  1  0
 19 20  1  0
 18 19  1  6
 20 25  2  0
 21 20  1  0
 21 22  2  0
 22 23  1  0
 23 24  2  0
 25 24  1  0
 26 27  1  0
 28 26  2  0
M  END
$$$$
