DMF.pdb
     RDKit          3D

 28 28  0  0  1  0  0  0  0  0999 V2000
   27.8206  -20.4406  -15.0977 N   0  0  0  0  0  0  0  0  0  0  0  0
   27.9170  -19.8169  -13.7955 C   0  0  1  0  0  0  0  0  0  0  0  0
   26.7122  -18.9384  -13.5541 C   0  0  0  0  0  0  0  0  0  0  0  0
   26.6720  -17.8208  -14.5320 C   0  0  0  0  0  0  0  0  0  0  0  0
   25.5611  -17.3838  -14.9153 O   0  0  0  0  0  0  0  0  0  0  0  0
   28.0604  -20.8679  -12.7711 C   0  0  0  0  0  0  0  0  0  0  0  0
   27.4529  -21.9853  -12.9081 O   0  0  0  0  0  0  0  0  0  0  0  0
   27.8046  -17.2317  -15.0462 O   0  0  0  0  0  0  0  0  0  0  0  0
   33.1556  -22.2302   -8.8294 C   0  0  0  0  0  0  0  0  0  0  0  0
   33.0571  -22.0084  -10.6054 S   0  0  0  0  0  0  0  0  0  0  0  0
   31.3360  -21.9996  -11.2075 C   0  0  0  0  0  0  0  0  0  0  0  0
   30.3618  -21.8518  -10.0847 C   0  0  0  0  0  0  0  0  0  0  0  0
   28.9493  -21.8278  -10.5943 C   0  0  2  0  0  0  0  0  0  0  0  0
   28.8472  -20.7313  -11.6041 N   0  0  0  0  0  0  0  0  0  0  0  0
   27.9020  -21.6668   -9.5980 C   0  0  0  0  0  0  0  0  0  0  0  0
   27.7968  -22.5682   -8.6893 O   0  0  0  0  0  0  0  0  0  0  0  0
   26.9911  -20.5992   -9.5402 N   0  0  0  0  0  0  0  0  0  0  0  0
   25.9393  -20.5088   -8.5277 C   0  0  1  0  0  0  0  0  0  0  0  0
   26.1690  -19.3138   -7.6403 C   0  0  0  0  0  0  0  0  0  0  0  0
   27.0883  -19.6257   -6.5276 C   0  0  0  0  0  0  0  0  0  0  0  0
   26.9681  -20.7821   -5.7584 C   0  0  0  0  0  0  0  0  0  0  0  0
   27.8402  -21.0412   -4.7303 C   0  0  0  0  0  0  0  0  0  0  0  0
   28.8711  -20.1667   -4.4171 C   0  0  0  0  0  0  0  0  0  0  0  0
   29.0163  -19.0125   -5.1608 C   0  0  0  0  0  0  0  0  0  0  0  0
   28.1367  -18.7699   -6.1834 C   0  0  0  0  0  0  0  0  0  0  0  0
   24.6058  -20.5433   -9.1257 C   0  0  0  0  0  0  0  0  0  0  0  0
   23.4351  -20.6826   -8.3829 O   0  0  0  0  0  0  0  0  0  0  0  0
   24.4890  -20.4438  -10.3718 O   0  0  0  0  0  0  0  0  0  0  0  0
  2  1  1  6
  2  3  1  0
  3  4  1  0
  4  5  2  0
  4  8  1  0
  6 14  1  0
  6  2  1  0
  7  6  2  0
  9 10  1  0
 10 11  1  0
 12 11  1  0
 13 12  1  1
 13 14  1  0
 15 17  1  0
 15 13  1  0
 16 15  2  0
 18 17  1  0
 18 26  1  0
 19 20  1  0
 18 19  1  6
 20 25  2  0
 21 20  1  0
 21 22  2  0
 22 23  1  0
 23 24  2  0
 25 24  1  0
 26 27  1  0
 28 26  2  0
M  END
$$$$
