DMF.pdb
     RDKit          3D

 28 28  0  0  1  0  0  0  0  0999 V2000
   23.5845  -12.3067  -20.7833 N   0  0  0  0  0  0  0  0  0  0  0  0
   23.9628  -11.1144  -20.0557 C   0  0  1  0  0  0  0  0  0  0  0  0
   23.6937   -9.8895  -20.8976 C   0  0  0  0  0  0  0  0  0  0  0  0
   24.6715   -9.7922  -22.0118 C   0  0  0  0  0  0  0  0  0  0  0  0
   24.3643   -9.1432  -23.0396 O   0  0  0  0  0  0  0  0  0  0  0  0
   23.2355  -11.0856  -18.7732 C   0  0  0  0  0  0  0  0  0  0  0  0
   22.0230  -11.4890  -18.7134 O   0  0  0  0  0  0  0  0  0  0  0  0
   25.9134  -10.3845  -21.9752 O   0  0  0  0  0  0  0  0  0  0  0  0
   23.9280  -16.0172  -15.3359 C   0  0  0  0  0  0  0  0  0  0  0  0
   24.2182  -14.3406  -14.7721 S   0  0  0  0  0  0  0  0  0  0  0  0
   23.4644  -13.0993  -15.8747 C   0  0  0  0  0  0  0  0  0  0  0  0
   23.7205  -11.7086  -15.3928 C   0  0  0  0  0  0  0  0  0  0  0  0
   23.0394  -10.6984  -16.2709 C   0  0  2  0  0  0  0  0  0  0  0  0
   23.7956  -10.6289  -17.5577 N   0  0  0  0  0  0  0  0  0  0  0  0
   22.8902   -9.3587  -15.7248 C   0  0  0  0  0  0  0  0  0  0  0  0
   23.8207   -8.5071  -15.9657 O   0  0  0  0  0  0  0  0  0  0  0  0
   21.8047   -8.9104  -14.9543 N   0  0  0  0  0  0  0  0  0  0  0  0
   21.6581   -7.5196  -14.5253 C   0  0  1  0  0  0  0  0  0  0  0  0
   21.9342   -6.5861  -15.6744 C   0  0  0  0  0  0  0  0  0  0  0  0
   21.7048   -5.1756  -15.3025 C   0  0  0  0  0  0  0  0  0  0  0  0
   22.6160   -4.4436  -14.5427 C   0  0  0  0  0  0  0  0  0  0  0  0
   22.3711   -3.1333  -14.2142 C   0  0  0  0  0  0  0  0  0  0  0  0
   21.2124   -2.4883  -14.6233 C   0  0  0  0  0  0  0  0  0  0  0  0
   20.2904   -3.1867  -15.3771 C   0  0  0  0  0  0  0  0  0  0  0  0
   20.5512   -4.4940  -15.6958 C   0  0  0  0  0  0  0  0  0  0  0  0
   20.3680   -7.2839  -13.8797 C   0  0  0  0  0  0  0  0  0  0  0  0
   19.2669   -8.1235  -14.0357 O   0  0  0  0  0  0  0  0  0  0  0  0
   20.2252   -6.2777  -13.1423 O   0  0  0  0  0  0  0  0  0  0  0  0
  2  1  1  6
  2  3  1  0
  3  4  1  0
  4  5  2  0
  4  8  1  0
  6 14  1  0
  6  2  1  0
  7  6  2  0
  9 10  1  0
 10 11  1  0
 12 11  1  0
 13 12  1  1
 13 14  1  0
 15 17  1  0
 15 13  1  0
 16 15  2  0
 18 17  1  0
 18 26  1  0
 19 20  1  0
 18 19  1  6
 20 25  2  0
 21 20  1  0
 21 22  2  0
 22 23  1  0
 23 24  2  0
 25 24  1  0
 26 27  1  0
 28 26  2  0
M  END
$$$$
