DMF.pdb
     RDKit          3D

 28 28  0  0  1  0  0  0  0  0999 V2000
   28.1872  -22.5024  -15.8358 N   0  0  0  0  0  0  0  0  0  0  0  0
   27.7362  -21.2196  -15.3405 C   0  0  1  0  0  0  0  0  0  0  0  0
   27.0847  -20.4365  -16.4559 C   0  0  0  0  0  0  0  0  0  0  0  0
   28.0977  -19.9916  -17.4473 C   0  0  0  0  0  0  0  0  0  0  0  0
   28.8401  -19.0205  -17.1687 O   0  0  0  0  0  0  0  0  0  0  0  0
   26.8253  -21.4397  -14.2020 C   0  0  0  0  0  0  0  0  0  0  0  0
   26.0200  -22.4336  -14.2067 O   0  0  0  0  0  0  0  0  0  0  0  0
   28.2668  -20.5971  -18.6717 O   0  0  0  0  0  0  0  0  0  0  0  0
   27.1350  -19.1938   -7.6561 C   0  0  0  0  0  0  0  0  0  0  0  0
   26.4071  -20.7818   -8.0582 S   0  0  0  0  0  0  0  0  0  0  0  0
   26.6931  -21.2542   -9.7959 C   0  0  0  0  0  0  0  0  0  0  0  0
   26.2421  -20.1855  -10.7373 C   0  0  0  0  0  0  0  0  0  0  0  0
   25.7182  -20.7763  -12.0147 C   0  0  2  0  0  0  0  0  0  0  0  0
   26.7704  -20.6052  -13.0617 N   0  0  0  0  0  0  0  0  0  0  0  0
   24.4563  -20.2459  -12.5061 C   0  0  0  0  0  0  0  0  0  0  0  0
   24.4777  -19.1120  -13.1087 O   0  0  0  0  0  0  0  0  0  0  0  0
   23.2062  -20.8741  -12.3820 N   0  0  0  0  0  0  0  0  0  0  0  0
   22.0701  -20.5561  -13.2469 C   0  0  1  0  0  0  0  0  0  0  0  0
   22.4828  -20.6129  -14.6943 C   0  0  0  0  0  0  0  0  0  0  0  0
   21.3612  -20.2862  -15.5976 C   0  0  0  0  0  0  0  0  0  0  0  0
   21.2032  -19.0248  -16.1695 C   0  0  0  0  0  0  0  0  0  0  0  0
   20.1480  -18.7547  -17.0053 C   0  0  0  0  0  0  0  0  0  0  0  0
   19.2013  -19.7217  -17.3126 C   0  0  0  0  0  0  0  0  0  0  0  0
   19.3305  -20.9810  -16.7616 C   0  0  0  0  0  0  0  0  0  0  0  0
   20.3899  -21.2331  -15.9294 C   0  0  0  0  0  0  0  0  0  0  0  0
   20.9055  -21.3845  -12.9398 C   0  0  0  0  0  0  0  0  0  0  0  0
   20.9440  -22.7767  -12.8958 O   0  0  0  0  0  0  0  0  0  0  0  0
   19.8043  -20.8308  -12.7003 O   0  0  0  0  0  0  0  0  0  0  0  0
  2  1  1  6
  2  3  1  0
  3  4  1  0
  4  5  2  0
  4  8  1  0
  6 14  1  0
  6  2  1  0
  7  6  2  0
  9 10  1  0
 10 11  1  0
 12 11  1  0
 13 12  1  1
 13 14  1  0
 15 17  1  0
 15 13  1  0
 16 15  2  0
 18 17  1  0
 18 26  1  0
 19 20  1  0
 18 19  1  6
 20 25  2  0
 21 20  1  0
 21 22  2  0
 22 23  1  0
 23 24  2  0
 25 24  1  0
 26 27  1  0
 28 26  2  0
M  END
$$$$
