DMF.pdb
     RDKit          3D

 28 28  0  0  1  0  0  0  0  0999 V2000
   27.9591  -20.2726  -18.0791 N   0  0  0  0  0  0  0  0  0  0  0  0
   27.6951  -21.1659  -16.9717 C   0  0  1  0  0  0  0  0  0  0  0  0
   28.9964  -21.6823  -16.4044 C   0  0  0  0  0  0  0  0  0  0  0  0
   29.4969  -22.8329  -17.1999 C   0  0  0  0  0  0  0  0  0  0  0  0
   30.5127  -23.4528  -16.8054 O   0  0  0  0  0  0  0  0  0  0  0  0
   26.8866  -20.4538  -15.9648 C   0  0  0  0  0  0  0  0  0  0  0  0
   27.0816  -19.2082  -15.7487 O   0  0  0  0  0  0  0  0  0  0  0  0
   28.8964  -23.2602  -18.3623 O   0  0  0  0  0  0  0  0  0  0  0  0
   20.8482  -18.9726  -15.8732 C   0  0  0  0  0  0  0  0  0  0  0  0
   21.0468  -19.5371  -14.1834 S   0  0  0  0  0  0  0  0  0  0  0  0
   22.7925  -19.5445  -13.6568 C   0  0  0  0  0  0  0  0  0  0  0  0
   23.6657  -20.2273  -14.6584 C   0  0  0  0  0  0  0  0  0  0  0  0
   25.0875  -20.2938  -14.1795 C   0  0  2  0  0  0  0  0  0  0  0  0
   25.8737  -21.0644  -15.1897 N   0  0  0  0  0  0  0  0  0  0  0  0
   25.3023  -20.8668  -12.8600 C   0  0  0  0  0  0  0  0  0  0  0  0
   25.0748  -22.1216  -12.7082 O   0  0  0  0  0  0  0  0  0  0  0  0
   25.7456  -20.1617  -11.7290 N   0  0  0  0  0  0  0  0  0  0  0  0
   25.9002  -20.7869  -10.4156 C   0  0  1  0  0  0  0  0  0  0  0  0
   27.1738  -20.3203   -9.7610 C   0  0  0  0  0  0  0  0  0  0  0  0
   28.3683  -20.8838  -10.4217 C   0  0  0  0  0  0  0  0  0  0  0  0
   29.3597  -20.0829  -10.9864 C   0  0  0  0  0  0  0  0  0  0  0  0
   30.4578  -20.6399  -11.5937 C   0  0  0  0  0  0  0  0  0  0  0  0
   30.6239  -22.0155  -11.6693 C   0  0  0  0  0  0  0  0  0  0  0  0
   29.6590  -22.8355  -11.1191 C   0  0  0  0  0  0  0  0  0  0  0  0
   28.5693  -22.2624  -10.5168 C   0  0  0  0  0  0  0  0  0  0  0  0
   24.7139  -20.5996   -9.5823 C   0  0  0  0  0  0  0  0  0  0  0  0
   24.4894  -21.2995   -8.3985 O   0  0  0  0  0  0  0  0  0  0  0  0
   23.8405  -19.7695   -9.9353 O   0  0  0  0  0  0  0  0  0  0  0  0
  2  1  1  6
  2  3  1  0
  3  4  1  0
  4  5  2  0
  4  8  1  0
  6 14  1  0
  6  2  1  0
  7  6  2  0
  9 10  1  0
 10 11  1  0
 12 11  1  0
 13 12  1  6
 13 14  1  0
 15 17  1  0
 15 13  1  0
 16 15  2  0
 18 17  1  0
 18 26  1  0
 19 20  1  0
 18 19  1  1
 20 25  2  0
 21 20  1  0
 21 22  2  0
 22 23  1  0
 23 24  2  0
 25 24  1  0
 26 27  1  0
 28 26  2  0
M  END
$$$$
