DMF.pdb
     RDKit          3D

 28 28  0  0  1  0  0  0  0  0999 V2000
   29.4125  -22.4255  -17.9504 N   0  0  0  0  0  0  0  0  0  0  0  0
   28.3164  -22.9021  -17.1346 C   0  0  1  0  0  0  0  0  0  0  0  0
   28.5142  -24.3636  -16.8083 C   0  0  0  0  0  0  0  0  0  0  0  0
   28.1251  -25.2169  -17.9605 C   0  0  0  0  0  0  0  0  0  0  0  0
   27.6848  -24.6744  -19.0015 O   0  0  0  0  0  0  0  0  0  0  0  0
   28.2209  -22.0642  -15.9249 C   0  0  0  0  0  0  0  0  0  0  0  0
   28.9989  -22.2783  -14.9324 O   0  0  0  0  0  0  0  0  0  0  0  0
   28.2236  -26.5897  -17.9455 O   0  0  0  0  0  0  0  0  0  0  0  0
   27.3666  -15.8263  -16.0009 C   0  0  0  0  0  0  0  0  0  0  0  0
   26.8308  -16.0782  -14.3089 S   0  0  0  0  0  0  0  0  0  0  0  0
   26.9459  -17.8251  -13.7991 C   0  0  0  0  0  0  0  0  0  0  0  0
   27.2106  -18.7213  -14.9647 C   0  0  0  0  0  0  0  0  0  0  0  0
   27.2745  -20.1595  -14.5369 C   0  0  2  0  0  0  0  0  0  0  0  0
   27.3004  -21.0018  -15.7708 N   0  0  0  0  0  0  0  0  0  0  0  0
   26.2133  -20.6232  -13.6571 C   0  0  0  0  0  0  0  0  0  0  0  0
   25.0133  -20.6221  -14.1145 O   0  0  0  0  0  0  0  0  0  0  0  0
   26.3894  -21.0808  -12.3409 N   0  0  0  0  0  0  0  0  0  0  0  0
   25.2745  -21.5000  -11.4917 C   0  0  1  0  0  0  0  0  0  0  0  0
   25.7902  -22.1148  -10.2172 C   0  0  0  0  0  0  0  0  0  0  0  0
   26.5829  -21.1527   -9.4257 C   0  0  0  0  0  0  0  0  0  0  0  0
   27.9703  -21.0627   -9.5273 C   0  0  0  0  0  0  0  0  0  0  0  0
   28.6769  -20.1565   -8.7760 C   0  0  0  0  0  0  0  0  0  0  0  0
   28.0414  -19.2981   -7.8899 C   0  0  0  0  0  0  0  0  0  0  0  0
   26.6678  -19.3631   -7.7668 C   0  0  0  0  0  0  0  0  0  0  0  0
   25.9784  -20.2737   -8.5245 C   0  0  0  0  0  0  0  0  0  0  0  0
   24.3219  -20.4134  -11.2710 C   0  0  0  0  0  0  0  0  0  0  0  0
   24.6075  -19.0761  -11.5390 O   0  0  0  0  0  0  0  0  0  0  0  0
   23.1818  -20.6791  -10.8169 O   0  0  0  0  0  0  0  0  0  0  0  0
  2  1  1  6
  2  3  1  0
  3  4  1  0
  4  5  2  0
  4  8  1  0
  6 14  1  0
  6  2  1  0
  7  6  2  0
  9 10  1  0
 10 11  1  0
 12 11  1  0
 13 12  1  6
 13 14  1  0
 15 17  1  0
 15 13  1  0
 16 15  2  0
 18 17  1  0
 18 26  1  0
 19 20  1  0
 18 19  1  1
 20 25  2  0
 21 20  1  0
 21 22  2  0
 22 23  1  0
 23 24  2  0
 25 24  1  0
 26 27  1  0
 28 26  2  0
M  END
$$$$
