DMF.pdb
     RDKit          3D

 28 28  0  0  1  0  0  0  0  0999 V2000
   21.6958   -8.6843  -18.7634 N   0  0  0  0  0  0  0  0  0  0  0  0
   20.3785   -8.3703  -19.2735 C   0  0  1  0  0  0  0  0  0  0  0  0
   19.9051   -9.4724  -20.1917 C   0  0  0  0  0  0  0  0  0  0  0  0
   20.6061   -9.4044  -21.4998 C   0  0  0  0  0  0  0  0  0  0  0  0
   21.0919   -8.3118  -21.8766 O   0  0  0  0  0  0  0  0  0  0  0  0
   19.4643   -8.1544  -18.1369 C   0  0  0  0  0  0  0  0  0  0  0  0
   18.2609   -7.7733  -18.3442 O   0  0  0  0  0  0  0  0  0  0  0  0
   20.7525  -10.4917  -22.3309 O   0  0  0  0  0  0  0  0  0  0  0  0
   18.8470  -12.3771  -13.9026 C   0  0  0  0  0  0  0  0  0  0  0  0
   18.1960  -12.0291  -15.5361 S   0  0  0  0  0  0  0  0  0  0  0  0
   17.7377  -10.2759  -15.7396 C   0  0  0  0  0  0  0  0  0  0  0  0
   18.6343   -9.3785  -14.9506 C   0  0  0  0  0  0  0  0  0  0  0  0
   18.8682   -8.0807  -15.6693 C   0  0  2  0  0  0  0  0  0  0  0  0
   19.8284   -8.3429  -16.7835 N   0  0  0  0  0  0  0  0  0  0  0  0
   19.3529   -6.9707  -14.8642 C   0  0  0  0  0  0  0  0  0  0  0  0
   18.6422   -6.6052  -13.8590 O   0  0  0  0  0  0  0  0  0  0  0  0
   20.5439   -6.2610  -15.0899 N   0  0  0  0  0  0  0  0  0  0  0  0
   20.9426   -5.1059  -14.2858 C   0  0  1  0  0  0  0  0  0  0  0  0
   22.3318   -5.3040  -13.7390 C   0  0  0  0  0  0  0  0  0  0  0  0
   22.8025   -6.6910  -13.9266 C   0  0  0  0  0  0  0  0  0  0  0  0
   23.5331   -7.0891  -15.0451 C   0  0  0  0  0  0  0  0  0  0  0  0
   23.9552   -8.3877  -15.1883 C   0  0  0  0  0  0  0  0  0  0  0  0
   23.6728   -9.3510  -14.2301 C   0  0  0  0  0  0  0  0  0  0  0  0
   22.9509   -8.9875  -13.1108 C   0  0  0  0  0  0  0  0  0  0  0  0
   22.5376   -7.6869  -12.9842 C   0  0  0  0  0  0  0  0  0  0  0  0
   20.7776   -3.8517  -15.0182 C   0  0  0  0  0  0  0  0  0  0  0  0
   20.3824   -3.7887  -16.3530 O   0  0  0  0  0  0  0  0  0  0  0  0
   20.9988   -2.7641  -14.4311 O   0  0  0  0  0  0  0  0  0  0  0  0
  2  1  1  1
  2  3  1  0
  3  4  1  0
  4  5  2  0
  4  8  1  0
  6 14  1  0
  6  2  1  0
  7  6  2  0
  9 10  1  0
 10 11  1  0
 12 11  1  0
 13 12  1  1
 13 14  1  0
 15 17  1  0
 15 13  1  0
 16 15  2  0
 18 17  1  0
 18 26  1  0
 19 20  1  0
 18 19  1  6
 20 25  2  0
 21 20  1  0
 21 22  2  0
 22 23  1  0
 23 24  2  0
 25 24  1  0
 26 27  1  0
 28 26  2  0
M  END
$$$$
