DMF.pdb
     RDKit          3D

 28 28  0  0  1  0  0  0  0  0999 V2000
   26.0767  -33.6233   -9.0370 N   0  0  0  0  0  0  0  0  0  0  0  0
   26.5555  -34.8132   -8.3669 C   0  0  1  0  0  0  0  0  0  0  0  0
   27.8902  -35.2263   -8.9409 C   0  0  0  0  0  0  0  0  0  0  0  0
   27.7163  -35.8584  -10.2741 C   0  0  0  0  0  0  0  0  0  0  0  0
   26.9899  -36.8749  -10.3783 O   0  0  0  0  0  0  0  0  0  0  0  0
   26.6241  -34.5511   -6.9174 C   0  0  0  0  0  0  0  0  0  0  0  0
   26.7523  -33.3533   -6.4867 O   0  0  0  0  0  0  0  0  0  0  0  0
   28.3182  -35.3809  -11.4160 O   0  0  0  0  0  0  0  0  0  0  0  0
   22.5896  -37.6452   -3.6333 C   0  0  0  0  0  0  0  0  0  0  0  0
   22.6013  -36.0231   -4.3961 S   0  0  0  0  0  0  0  0  0  0  0  0
   24.0872  -35.0621   -3.9561 C   0  0  0  0  0  0  0  0  0  0  0  0
   25.3026  -35.9283   -3.8915 C   0  0  0  0  0  0  0  0  0  0  0  0
   26.4970  -35.2276   -4.4728 C   0  0  2  0  0  0  0  0  0  0  0  0
   26.5570  -35.5595   -5.9283 N   0  0  0  0  0  0  0  0  0  0  0  0
   27.7828  -35.5169   -3.8574 C   0  0  0  0  0  0  0  0  0  0  0  0
   28.4383  -36.5329   -4.2901 O   0  0  0  0  0  0  0  0  0  0  0  0
   28.3770  -34.7718   -2.8257 N   0  0  0  0  0  0  0  0  0  0  0  0
   29.6919  -35.0938   -2.2715 C   0  0  1  0  0  0  0  0  0  0  0  0
   30.6684  -33.9851   -2.5638 C   0  0  0  0  0  0  0  0  0  0  0  0
   31.0985  -33.9914   -3.9765 C   0  0  0  0  0  0  0  0  0  0  0  0
   30.4461  -33.2514   -4.9614 C   0  0  0  0  0  0  0  0  0  0  0  0
   30.8723  -33.2803   -6.2661 C   0  0  0  0  0  0  0  0  0  0  0  0
   31.9642  -34.0435   -6.6547 C   0  0  0  0  0  0  0  0  0  0  0  0
   32.6315  -34.7874   -5.7022 C   0  0  0  0  0  0  0  0  0  0  0  0
   32.1923  -34.7468   -4.4045 C   0  0  0  0  0  0  0  0  0  0  0  0
   29.6130  -35.4428   -0.8542 C   0  0  0  0  0  0  0  0  0  0  0  0
   28.4406  -35.3548   -0.1063 O   0  0  0  0  0  0  0  0  0  0  0  0
   30.6450  -35.8446   -0.2625 O   0  0  0  0  0  0  0  0  0  0  0  0
  2  1  1  6
  2  3  1  0
  3  4  1  0
  4  5  2  0
  4  8  1  0
  6 14  1  0
  6  2  1  0
  7  6  2  0
  9 10  1  0
 10 11  1  0
 12 11  1  0
 13 12  1  1
 13 14  1  0
 15 17  1  0
 15 13  1  0
 16 15  2  0
 18 17  1  0
 18 26  1  0
 19 20  1  0
 18 19  1  1
 20 25  2  0
 21 20  1  0
 21 22  2  0
 22 23  1  0
 23 24  2  0
 25 24  1  0
 26 27  1  0
 28 26  2  0
M  END
$$$$
