FWY.pdb
     RDKit          3D

 38 41  0  0  1  0  0  0  0  0999 V2000
   28.4322  -20.7924  -14.0154 N   0  0  0  0  0  0  0  0  0  0  0  0
   27.5783  -19.9063  -13.2195 C   0  0  1  0  0  0  0  0  0  0  0  0
   26.6227  -19.2600  -14.1874 C   0  0  0  0  0  0  0  0  0  0  0  0
   27.2230  -18.2618  -15.0667 C   0  0  0  0  0  0  0  0  0  0  0  0
   27.4283  -18.5221  -16.3933 C   0  0  0  0  0  0  0  0  0  0  0  0
   27.9977  -17.5790  -17.2506 C   0  0  0  0  0  0  0  0  0  0  0  0
   28.3682  -16.3396  -16.7480 C   0  0  0  0  0  0  0  0  0  0  0  0
   28.1664  -16.0631  -15.4093 C   0  0  0  0  0  0  0  0  0  0  0  0
   27.5941  -17.0283  -14.5769 C   0  0  0  0  0  0  0  0  0  0  0  0
   26.8938  -20.7109  -12.1796 C   0  0  0  0  0  0  0  0  0  0  0  0
   26.4282  -21.8453  -12.4297 O   0  0  0  0  0  0  0  0  0  0  0  0
   26.7473  -20.2004  -10.8459 N   0  0  0  0  0  0  0  0  0  0  0  0
   25.7931  -20.7489   -9.8954 C   0  0  1  0  0  0  0  0  0  0  0  0
   26.1485  -20.2054   -8.5297 C   0  0  0  0  0  0  0  0  0  0  0  0
   27.4914  -20.5677   -8.0714 C   0  0  0  0  0  0  0  0  0  0  0  0
   28.4350  -21.2284   -8.8047 C   0  0  0  0  0  0  0  0  0  0  0  0
   29.5327  -21.3738   -8.0392 N   0  0  0  0  0  0  0  0  0  0  0  0
   29.3116  -20.8169   -6.8233 C   0  0  0  0  0  0  0  0  0  0  0  0
   30.0648  -20.6728   -5.6676 C   0  0  0  0  0  0  0  0  0  0  0  0
   29.5227  -20.0332   -4.5737 C   0  0  0  0  0  0  0  0  0  0  0  0
   28.2411  -19.5194   -4.5735 C   0  0  0  0  0  0  0  0  0  0  0  0
   27.4952  -19.6595   -5.7108 C   0  0  0  0  0  0  0  0  0  0  0  0
   28.0154  -20.3008   -6.8326 C   0  0  0  0  0  0  0  0  0  0  0  0
   24.4074  -20.2400  -10.1973 C   0  0  0  0  0  0  0  0  0  0  0  0
   24.1340  -19.0258  -10.2062 O   0  0  0  0  0  0  0  0  0  0  0  0
   16.9792  -20.4790  -14.7575 O   0  0  0  0  0  0  0  0  0  0  0  0
   18.2545  -20.6442  -14.1914 C   0  0  0  0  0  0  0  0  0  0  0  0
   18.6636  -21.8775  -13.7469 C   0  0  0  0  0  0  0  0  0  0  0  0
   19.9037  -22.0582  -13.1922 C   0  0  0  0  0  0  0  0  0  0  0  0
   20.7760  -20.9987  -13.0663 C   0  0  0  0  0  0  0  0  0  0  0  0
   22.0907  -21.2252  -12.4639 C   0  0  0  0  0  0  0  0  0  0  0  0
   22.0849  -20.8323  -11.0233 C   0  0  2  0  0  0  0  0  0  0  0  0
   23.3992  -21.1991  -10.4777 N   0  0  0  0  0  0  0  0  0  0  0  0
   21.0659  -21.5078  -10.2000 C   0  0  0  0  0  0  0  0  0  0  0  0
   21.3388  -22.6954   -9.4957 O   0  0  0  0  0  0  0  0  0  0  0  0
   20.3920  -19.7547  -13.5025 C   0  0  0  0  0  0  0  0  0  0  0  0
   19.1253  -19.5859  -14.0658 C   0  0  0  0  0  0  0  0  0  0  0  0
   19.8942  -21.0723  -10.0724 O   0  0  0  0  0  0  0  0  0  0  0  0
  2  1  1  6
  2  3  1  0
  3  4  1  0
  4  5  2  0
  5  6  1  0
  7  6  2  0
  8  7  1  0
  9  8  2  0
  9  4  1  0
 10  2  1  0
 11 10  2  0
 12 10  1  0
 13 12  1  0
 14 15  1  0
 13 14  1  1
 15 23  1  0
 16 17  1  0
 16 15  2  0
 17 18  1  0
 18 23  2  0
 18 19  1  0
 19 20  2  0
 20 21  1  0
 22 21  2  0
 23 22  1  0
 24 13  1  0
 24 25  2  0
 27 37  2  0
 27 26  1  0
 28 27  1  0
 29 30  1  0
 29 28  2  0
 30 36  2  0
 31 30  1  0
 32 31  1  6
 32 33  1  0
 33 24  1  0
 34 32  1  0
 35 34  1  0
 36 37  1  0
 38 34  2  0
M  END
$$$$
