FWY.pdb
     RDKit          3D

 38 41  0  0  1  0  0  0  0  0999 V2000
   26.6216  -18.9207  -19.0892 N   0  0  0  0  0  0  0  0  0  0  0  0
   26.4520  -18.2955  -17.7747 C   0  0  1  0  0  0  0  0  0  0  0  0
   25.5264  -17.1255  -17.9802 C   0  0  0  0  0  0  0  0  0  0  0  0
   26.0794  -16.0406  -18.7846 C   0  0  0  0  0  0  0  0  0  0  0  0
   25.4543  -15.6183  -19.9251 C   0  0  0  0  0  0  0  0  0  0  0  0
   25.9659  -14.5802  -20.7055 C   0  0  0  0  0  0  0  0  0  0  0  0
   27.1426  -13.9547  -20.3180 C   0  0  0  0  0  0  0  0  0  0  0  0
   27.7847  -14.3714  -19.1677 C   0  0  0  0  0  0  0  0  0  0  0  0
   27.2473  -15.4135  -18.4080 C   0  0  0  0  0  0  0  0  0  0  0  0
   25.9106  -19.3041  -16.8329 C   0  0  0  0  0  0  0  0  0  0  0  0
   24.9764  -20.0702  -17.1592 O   0  0  0  0  0  0  0  0  0  0  0  0
   26.4521  -19.4258  -15.5090 N   0  0  0  0  0  0  0  0  0  0  0  0
   25.8661  -20.2904  -14.4972 C   0  0  1  0  0  0  0  0  0  0  0  0
   26.8178  -20.3253  -13.3225 C   0  0  0  0  0  0  0  0  0  0  0  0
   26.3459  -21.1288  -12.1927 C   0  0  0  0  0  0  0  0  0  0  0  0
   26.1370  -22.4782  -12.2035 C   0  0  0  0  0  0  0  0  0  0  0  0
   25.7062  -22.8441  -10.9818 N   0  0  0  0  0  0  0  0  0  0  0  0
   25.6341  -21.7514  -10.1830 C   0  0  0  0  0  0  0  0  0  0  0  0
   25.2664  -21.5331   -8.8635 C   0  0  0  0  0  0  0  0  0  0  0  0
   25.3094  -20.2572   -8.3440 C   0  0  0  0  0  0  0  0  0  0  0  0
   25.7086  -19.1652   -9.0888 C   0  0  0  0  0  0  0  0  0  0  0  0
   26.0717  -19.3760  -10.3899 C   0  0  0  0  0  0  0  0  0  0  0  0
   26.0390  -20.6539  -10.9433 C   0  0  0  0  0  0  0  0  0  0  0  0
   24.5862  -19.6890  -13.9771 C   0  0  0  0  0  0  0  0  0  0  0  0
   24.4536  -18.4645  -13.7982 O   0  0  0  0  0  0  0  0  0  0  0  0
   19.8177  -22.1279  -18.6446 O   0  0  0  0  0  0  0  0  0  0  0  0
   20.2498  -21.4032  -17.5212 C   0  0  0  0  0  0  0  0  0  0  0  0
   21.4599  -20.7541  -17.5356 C   0  0  0  0  0  0  0  0  0  0  0  0
   21.8981  -20.0422  -16.4497 C   0  0  0  0  0  0  0  0  0  0  0  0
   21.1291  -19.9602  -15.3090 C   0  0  0  0  0  0  0  0  0  0  0  0
   21.6296  -19.1964  -14.1649 C   0  0  0  0  0  0  0  0  0  0  0  0
   22.2285  -20.1074  -13.1445 C   0  0  2  0  0  0  0  0  0  0  0  0
   23.5117  -20.5712  -13.6902 N   0  0  0  0  0  0  0  0  0  0  0  0
   21.4268  -21.3049  -12.8352 C   0  0  0  0  0  0  0  0  0  0  0  0
   20.2161  -21.2320  -12.1212 O   0  0  0  0  0  0  0  0  0  0  0  0
   19.9150  -20.6000  -15.2678 C   0  0  0  0  0  0  0  0  0  0  0  0
   19.4815  -21.3216  -16.3822 C   0  0  0  0  0  0  0  0  0  0  0  0
   21.7676  -22.4626  -13.1854 O   0  0  0  0  0  0  0  0  0  0  0  0
  2  1  1  6
  2  3  1  0
  3  4  1  0
  4  5  2  0
  5  6  1  0
  7  6  2  0
  8  7  1  0
  9  8  2  0
  9  4  1  0
 10  2  1  0
 11 10  2  0
 12 10  1  0
 13 12  1  0
 14 15  1  0
 13 14  1  1
 15 23  1  0
 16 17  1  0
 16 15  2  0
 17 18  1  0
 18 23  2  0
 18 19  1  0
 19 20  2  0
 20 21  1  0
 22 21  2  0
 23 22  1  0
 24 13  1  0
 24 25  2  0
 27 37  2  0
 27 26  1  0
 28 27  1  0
 29 30  1  0
 29 28  2  0
 30 36  2  0
 31 30  1  0
 32 31  1  6
 32 33  1  0
 33 24  1  0
 34 32  1  0
 35 34  1  0
 36 37  1  0
 38 34  2  0
M  END
$$$$
