FWY.pdb
     RDKit          3D

 38 41  0  0  1  0  0  0  0  0999 V2000
   28.9971  -20.8689  -13.8515 N   0  0  0  0  0  0  0  0  0  0  0  0
   27.9829  -21.1078  -12.8209 C   0  0  1  0  0  0  0  0  0  0  0  0
   28.5061  -20.4738  -11.5592 C   0  0  0  0  0  0  0  0  0  0  0  0
   29.7320  -21.0693  -11.0370 C   0  0  0  0  0  0  0  0  0  0  0  0
   29.6996  -22.2240  -10.3054 C   0  0  0  0  0  0  0  0  0  0  0  0
   30.8616  -22.8103   -9.8008 C   0  0  0  0  0  0  0  0  0  0  0  0
   32.0881  -22.2087  -10.0453 C   0  0  0  0  0  0  0  0  0  0  0  0
   32.1354  -21.0415  -10.7832 C   0  0  0  0  0  0  0  0  0  0  0  0
   30.9545  -20.4793  -11.2746 C   0  0  0  0  0  0  0  0  0  0  0  0
   26.6973  -20.5242  -13.2724 C   0  0  0  0  0  0  0  0  0  0  0  0
   26.5336  -19.2865  -13.3578 O   0  0  0  0  0  0  0  0  0  0  0  0
   25.5974  -21.3763  -13.6260 N   0  0  0  0  0  0  0  0  0  0  0  0
   24.2775  -20.8604  -13.9522 C   0  0  1  0  0  0  0  0  0  0  0  0
   23.9796  -21.2464  -15.3837 C   0  0  0  0  0  0  0  0  0  0  0  0
   24.7717  -20.5188  -16.3777 C   0  0  0  0  0  0  0  0  0  0  0  0
   25.9516  -20.9383  -16.9222 C   0  0  0  0  0  0  0  0  0  0  0  0
   26.3678  -19.9988  -17.7918 N   0  0  0  0  0  0  0  0  0  0  0  0
   25.4743  -18.9798  -17.8167 C   0  0  0  0  0  0  0  0  0  0  0  0
   25.3864  -17.7794  -18.5059 C   0  0  0  0  0  0  0  0  0  0  0  0
   24.3102  -16.9453  -18.2917 C   0  0  0  0  0  0  0  0  0  0  0  0
   23.2962  -17.2538  -17.4068 C   0  0  0  0  0  0  0  0  0  0  0  0
   23.3791  -18.4361  -16.7252 C   0  0  0  0  0  0  0  0  0  0  0  0
   24.4543  -19.3000  -16.9203 C   0  0  0  0  0  0  0  0  0  0  0  0
   23.2299  -21.5431  -13.1114 C   0  0  0  0  0  0  0  0  0  0  0  0
   23.3374  -22.7300  -12.7526 O   0  0  0  0  0  0  0  0  0  0  0  0
   17.1405  -22.5594   -7.0383 O   0  0  0  0  0  0  0  0  0  0  0  0
   18.1296  -22.0802   -7.9136 C   0  0  0  0  0  0  0  0  0  0  0  0
   17.8386  -21.0851   -8.8140 C   0  0  0  0  0  0  0  0  0  0  0  0
   18.7901  -20.6047   -9.6754 C   0  0  0  0  0  0  0  0  0  0  0  0
   20.0711  -21.1127   -9.6582 C   0  0  0  0  0  0  0  0  0  0  0  0
   21.0617  -20.5812  -10.5958 C   0  0  0  0  0  0  0  0  0  0  0  0
   21.0204  -21.3304  -11.8868 C   0  0  2  0  0  0  0  0  0  0  0  0
   22.0929  -20.7838  -12.7296 N   0  0  0  0  0  0  0  0  0  0  0  0
   19.7611  -21.1977  -12.6412 C   0  0  0  0  0  0  0  0  0  0  0  0
   19.4794  -20.0710  -13.4363 O   0  0  0  0  0  0  0  0  0  0  0  0
   20.3889  -22.1085   -8.7679 C   0  0  0  0  0  0  0  0  0  0  0  0
   19.4087  -22.5878   -7.8961 C   0  0  0  0  0  0  0  0  0  0  0  0
   18.8614  -22.0747  -12.6256 O   0  0  0  0  0  0  0  0  0  0  0  0
  2  1  1  6
  2  3  1  0
  3  4  1  0
  4  5  2  0
  5  6  1  0
  7  6  2  0
  8  7  1  0
  9  8  2  0
  9  4  1  0
 10  2  1  0
 11 10  2  0
 12 10  1  0
 13 12  1  0
 14 15  1  0
 13 14  1  6
 15 23  1  0
 16 17  1  0
 16 15  2  0
 17 18  1  0
 18 23  2  0
 18 19  1  0
 19 20  2  0
 20 21  1  0
 22 21  2  0
 23 22  1  0
 24 13  1  0
 24 25  2  0
 27 37  2  0
 27 26  1  0
 28 27  1  0
 29 30  1  0
 29 28  2  0
 30 36  2  0
 31 30  1  0
 32 31  1  1
 32 33  1  0
 33 24  1  0
 34 32  1  0
 35 34  1  0
 36 37  1  0
 38 34  2  0
M  END
$$$$
