FWY.pdb
     RDKit          3D

 38 41  0  0  1  0  0  0  0  0999 V2000
   25.0676  -20.2209   -7.6085 N   0  0  0  0  0  0  0  0  0  0  0  0
   26.3269  -20.0928   -8.3470 C   0  0  1  0  0  0  0  0  0  0  0  0
   27.2464  -21.1526   -7.8000 C   0  0  0  0  0  0  0  0  0  0  0  0
   27.8790  -20.8179   -6.5281 C   0  0  0  0  0  0  0  0  0  0  0  0
   27.3548  -21.2541   -5.3429 C   0  0  0  0  0  0  0  0  0  0  0  0
   27.9474  -20.9473   -4.1169 C   0  0  0  0  0  0  0  0  0  0  0  0
   29.1021  -20.1778   -4.0935 C   0  0  0  0  0  0  0  0  0  0  0  0
   29.6426  -19.7303   -5.2838 C   0  0  0  0  0  0  0  0  0  0  0  0
   29.0257  -20.0544   -6.4948 C   0  0  0  0  0  0  0  0  0  0  0  0
   26.0502  -20.2566   -9.7940 C   0  0  0  0  0  0  0  0  0  0  0  0
   25.0459  -20.8816  -10.2025 O   0  0  0  0  0  0  0  0  0  0  0  0
   26.9393  -19.6953  -10.7715 N   0  0  0  0  0  0  0  0  0  0  0  0
   26.5392  -19.4495  -12.1478 C   0  0  1  0  0  0  0  0  0  0  0  0
   27.7428  -18.8996  -12.8797 C   0  0  0  0  0  0  0  0  0  0  0  0
   27.5280  -18.6893  -14.3130 C   0  0  0  0  0  0  0  0  0  0  0  0
   26.9541  -17.5886  -14.8822 C   0  0  0  0  0  0  0  0  0  0  0  0
   26.9355  -17.7698  -16.2159 N   0  0  0  0  0  0  0  0  0  0  0  0
   27.4887  -18.9704  -16.5158 C   0  0  0  0  0  0  0  0  0  0  0  0
   27.7298  -19.6639  -17.6925 C   0  0  0  0  0  0  0  0  0  0  0  0
   28.3302  -20.9037  -17.6445 C   0  0  0  0  0  0  0  0  0  0  0  0
   28.7102  -21.4994  -16.4583 C   0  0  0  0  0  0  0  0  0  0  0  0
   28.4741  -20.8191  -15.2961 C   0  0  0  0  0  0  0  0  0  0  0  0
   27.8692  -19.5644  -15.3122 C   0  0  0  0  0  0  0  0  0  0  0  0
   26.1963  -20.7487  -12.8295 C   0  0  0  0  0  0  0  0  0  0  0  0
   26.7798  -21.8141  -12.5584 O   0  0  0  0  0  0  0  0  0  0  0  0
   19.2651  -20.7892  -11.5327 O   0  0  0  0  0  0  0  0  0  0  0  0
   20.4676  -21.3112  -12.0382 C   0  0  0  0  0  0  0  0  0  0  0  0
   21.6462  -21.1269  -11.3580 C   0  0  0  0  0  0  0  0  0  0  0  0
   22.8288  -21.6287  -11.8352 C   0  0  0  0  0  0  0  0  0  0  0  0
   22.8636  -22.3355  -13.0178 C   0  0  0  0  0  0  0  0  0  0  0  0
   24.1445  -22.8527  -13.5021 C   0  0  0  0  0  0  0  0  0  0  0  0
   24.7308  -21.9352  -14.5240 C   0  0  2  0  0  0  0  0  0  0  0  0
   25.1695  -20.7284  -13.8094 N   0  0  0  0  0  0  0  0  0  0  0  0
   23.7963  -21.5031  -15.5788 C   0  0  0  0  0  0  0  0  0  0  0  0
   23.3721  -20.1669  -15.7024 O   0  0  0  0  0  0  0  0  0  0  0  0
   21.6994  -22.5342  -13.7182 C   0  0  0  0  0  0  0  0  0  0  0  0
   20.5019  -22.0170  -13.2193 C   0  0  0  0  0  0  0  0  0  0  0  0
   23.3193  -22.2925  -16.4322 O   0  0  0  0  0  0  0  0  0  0  0  0
  2  1  1  1
  2  3  1  0
  3  4  1  0
  4  5  2  0
  5  6  1  0
  7  6  2  0
  8  7  1  0
  9  8  2  0
  9  4  1  0
 10  2  1  0
 11 10  2  0
 12 10  1  0
 13 12  1  0
 14 15  1  0
 13 14  1  6
 15 23  1  0
 16 17  1  0
 16 15  2  0
 17 18  1  0
 18 23  2  0
 18 19  1  0
 19 20  2  0
 20 21  1  0
 22 21  2  0
 23 22  1  0
 24 13  1  0
 24 25  2  0
 27 37  2  0
 27 26  1  0
 28 27  1  0
 29 30  1  0
 29 28  2  0
 30 36  2  0
 31 30  1  0
 32 31  1  1
 32 33  1  0
 33 24  1  0
 34 32  1  0
 35 34  1  0
 36 37  1  0
 38 34  2  0
M  END
$$$$
