FWY.pdb
     RDKit          3D

 38 41  0  0  1  0  0  0  0  0999 V2000
   24.2569  -25.2446  -18.0709 N   0  0  0  0  0  0  0  0  0  0  0  0
   25.5897  -25.1465  -17.4695 C   0  0  1  0  0  0  0  0  0  0  0  0
   25.3981  -25.3290  -15.9870 C   0  0  0  0  0  0  0  0  0  0  0  0
   24.6043  -24.2896  -15.3393 C   0  0  0  0  0  0  0  0  0  0  0  0
   23.4165  -24.5855  -14.7300 C   0  0  0  0  0  0  0  0  0  0  0  0
   22.6453  -23.6058  -14.1023 C   0  0  0  0  0  0  0  0  0  0  0  0
   23.0914  -22.2917  -14.0932 C   0  0  0  0  0  0  0  0  0  0  0  0
   24.2900  -21.9786  -14.7052 C   0  0  0  0  0  0  0  0  0  0  0  0
   25.0391  -22.9819  -15.3250 C   0  0  0  0  0  0  0  0  0  0  0  0
   26.4626  -26.1818  -18.0725 C   0  0  0  0  0  0  0  0  0  0  0  0
   26.0643  -27.3556  -18.2445 O   0  0  0  0  0  0  0  0  0  0  0  0
   27.8011  -25.8571  -18.4774 N   0  0  0  0  0  0  0  0  0  0  0  0
   28.7222  -26.8477  -19.0112 C   0  0  1  0  0  0  0  0  0  0  0  0
   29.8794  -26.1017  -19.6367 C   0  0  0  0  0  0  0  0  0  0  0  0
   30.8433  -26.9613  -20.3272 C   0  0  0  0  0  0  0  0  0  0  0  0
   30.6970  -27.4791  -21.5823 C   0  0  0  0  0  0  0  0  0  0  0  0
   31.7901  -28.2133  -21.8614 N   0  0  0  0  0  0  0  0  0  0  0  0
   32.6395  -28.1771  -20.8056 C   0  0  0  0  0  0  0  0  0  0  0  0
   33.8822  -28.7314  -20.5371 C   0  0  0  0  0  0  0  0  0  0  0  0
   34.4919  -28.4879  -19.3251 C   0  0  0  0  0  0  0  0  0  0  0  0
   33.9133  -27.7036  -18.3471 C   0  0  0  0  0  0  0  0  0  0  0  0
   32.6882  -27.1554  -18.6078 C   0  0  0  0  0  0  0  0  0  0  0  0
   32.0470  -27.3831  -19.8232 C   0  0  0  0  0  0  0  0  0  0  0  0
   29.3119  -27.6659  -17.8918 C   0  0  0  0  0  0  0  0  0  0  0  0
   29.7884  -27.1430  -16.8678 O   0  0  0  0  0  0  0  0  0  0  0  0
   27.1009  -35.6109  -16.3401 O   0  0  0  0  0  0  0  0  0  0  0  0
   27.5225  -34.2723  -16.2718 C   0  0  0  0  0  0  0  0  0  0  0  0
   28.6703  -33.9383  -15.5961 C   0  0  0  0  0  0  0  0  0  0  0  0
   29.0975  -32.6384  -15.5189 C   0  0  0  0  0  0  0  0  0  0  0  0
   28.3799  -31.6281  -16.1220 C   0  0  0  0  0  0  0  0  0  0  0  0
   28.8610  -30.2498  -16.0152 C   0  0  0  0  0  0  0  0  0  0  0  0
   29.9116  -29.9775  -17.0409 C   0  0  2  0  0  0  0  0  0  0  0  0
   29.3109  -29.0781  -18.0358 N   0  0  0  0  0  0  0  0  0  0  0  0
   30.3964  -31.1671  -17.7636 C   0  0  0  0  0  0  0  0  0  0  0  0
   30.0883  -31.3985  -19.1172 O   0  0  0  0  0  0  0  0  0  0  0  0
   27.2283  -31.9345  -16.8040 C   0  0  0  0  0  0  0  0  0  0  0  0
   26.8055  -33.2637  -16.8743 C   0  0  0  0  0  0  0  0  0  0  0  0
   31.1118  -32.0480  -17.2240 O   0  0  0  0  0  0  0  0  0  0  0  0
  2  1  1  6
  2  3  1  0
  3  4  1  0
  4  5  2  0
  5  6  1  0
  7  6  2  0
  8  7  1  0
  9  8  2  0
  9  4  1  0
 10  2  1  0
 11 10  2  0
 12 10  1  0
 13 12  1  0
 14 15  1  0
 13 14  1  1
 15 23  1  0
 16 17  1  0
 16 15  2  0
 17 18  1  0
 18 23  2  0
 18 19  1  0
 19 20  2  0
 20 21  1  0
 22 21  2  0
 23 22  1  0
 24 13  1  0
 24 25  2  0
 27 37  2  0
 27 26  1  0
 28 27  1  0
 29 30  1  0
 29 28  2  0
 30 36  2  0
 31 30  1  0
 32 31  1  1
 32 33  1  0
 33 24  1  0
 34 32  1  0
 35 34  1  0
 36 37  1  0
 38 34  2  0
M  END
$$$$
