FWY.pdb
     RDKit          3D

 38 41  0  0  1  0  0  0  0  0999 V2000
   20.9119  -33.2256  -17.5922 N   0  0  0  0  0  0  0  0  0  0  0  0
   21.8508  -32.7381  -16.5781 C   0  0  1  0  0  0  0  0  0  0  0  0
   23.2148  -33.2152  -17.0020 C   0  0  0  0  0  0  0  0  0  0  0  0
   23.4337  -34.6509  -16.8584 C   0  0  0  0  0  0  0  0  0  0  0  0
   23.5101  -35.4661  -17.9536 C   0  0  0  0  0  0  0  0  0  0  0  0
   23.7225  -36.8408  -17.8366 C   0  0  0  0  0  0  0  0  0  0  0  0
   23.8608  -37.4023  -16.5750 C   0  0  0  0  0  0  0  0  0  0  0  0
   23.7857  -36.5903  -15.4597 C   0  0  0  0  0  0  0  0  0  0  0  0
   23.5722  -35.2177  -15.6100 C   0  0  0  0  0  0  0  0  0  0  0  0
   21.7503  -31.2610  -16.5057 C   0  0  0  0  0  0  0  0  0  0  0  0
   21.6332  -30.5609  -17.5364 O   0  0  0  0  0  0  0  0  0  0  0  0
   21.7861  -30.5920  -15.2361 N   0  0  0  0  0  0  0  0  0  0  0  0
   21.7293  -29.1445  -15.1091 C   0  0  1  0  0  0  0  0  0  0  0  0
   21.2630  -28.8293  -13.7055 C   0  0  0  0  0  0  0  0  0  0  0  0
   21.0115  -27.4071  -13.4629 C   0  0  0  0  0  0  0  0  0  0  0  0
   21.3671  -26.3800  -14.2896 C   0  0  0  0  0  0  0  0  0  0  0  0
   20.9639  -25.2280  -13.7219 N   0  0  0  0  0  0  0  0  0  0  0  0
   20.3535  -25.4962  -12.5417 C   0  0  0  0  0  0  0  0  0  0  0  0
   19.7577  -24.7227  -11.5565 C   0  0  0  0  0  0  0  0  0  0  0  0
   19.2129  -25.3309  -10.4461 C   0  0  0  0  0  0  0  0  0  0  0  0
   19.2326  -26.6995  -10.2642 C   0  0  0  0  0  0  0  0  0  0  0  0
   19.8192  -27.4655  -11.2329 C   0  0  0  0  0  0  0  0  0  0  0  0
   20.3782  -26.8801  -12.3666 C   0  0  0  0  0  0  0  0  0  0  0  0
   23.1117  -28.5573  -15.2293 C   0  0  0  0  0  0  0  0  0  0  0  0
   24.0259  -28.8451  -14.4352 O   0  0  0  0  0  0  0  0  0  0  0  0
   30.8036  -26.6501  -18.1841 O   0  0  0  0  0  0  0  0  0  0  0  0
   29.5224  -27.0424  -17.7613 C   0  0  0  0  0  0  0  0  0  0  0  0
   28.7010  -27.7546  -18.6001 C   0  0  0  0  0  0  0  0  0  0  0  0
   27.4484  -28.1461  -18.2054 C   0  0  0  0  0  0  0  0  0  0  0  0
   26.9800  -27.8321  -16.9479 C   0  0  0  0  0  0  0  0  0  0  0  0
   25.6351  -28.2606  -16.5603 C   0  0  0  0  0  0  0  0  0  0  0  0
   24.6862  -27.1079  -16.5883 C   0  0  2  0  0  0  0  0  0  0  0  0
   23.3521  -27.6486  -16.2930 N   0  0  0  0  0  0  0  0  0  0  0  0
   24.5977  -26.4085  -17.8827 C   0  0  0  0  0  0  0  0  0  0  0  0
   23.5227  -26.6067  -18.7693 O   0  0  0  0  0  0  0  0  0  0  0  0
   27.7809  -27.1205  -16.0891 C   0  0  0  0  0  0  0  0  0  0  0  0
   29.0551  -26.7285  -16.5054 C   0  0  0  0  0  0  0  0  0  0  0  0
   25.4691  -25.5944  -18.2787 O   0  0  0  0  0  0  0  0  0  0  0  0
  2  1  1  6
  2  3  1  0
  3  4  1  0
  4  5  2  0
  5  6  1  0
  7  6  2  0
  8  7  1  0
  9  8  2  0
  9  4  1  0
 10  2  1  0
 11 10  2  0
 12 10  1  0
 13 12  1  0
 14 15  1  0
 13 14  1  1
 15 23  1  0
 16 17  1  0
 16 15  2  0
 17 18  1  0
 18 23  2  0
 18 19  1  0
 19 20  2  0
 20 21  1  0
 22 21  2  0
 23 22  1  0
 24 13  1  0
 24 25  2  0
 27 37  2  0
 27 26  1  0
 28 27  1  0
 29 30  1  0
 29 28  2  0
 30 36  2  0
 31 30  1  0
 32 31  1  6
 32 33  1  0
 33 24  1  0
 34 32  1  0
 35 34  1  0
 36 37  1  0
 38 34  2  0
M  END
$$$$
