FWY.pdb
     RDKit          3D

 38 41  0  0  1  0  0  0  0  0999 V2000
   26.0612  -32.5340  -15.4723 N   0  0  0  0  0  0  0  0  0  0  0  0
   24.7141  -32.5669  -16.0486 C   0  0  1  0  0  0  0  0  0  0  0  0
   24.1132  -33.8864  -15.6416 C   0  0  0  0  0  0  0  0  0  0  0  0
   24.5914  -35.0376  -16.4005 C   0  0  0  0  0  0  0  0  0  0  0  0
   25.2583  -36.0607  -15.7854 C   0  0  0  0  0  0  0  0  0  0  0  0
   25.7200  -37.1714  -16.4937 C   0  0  0  0  0  0  0  0  0  0  0  0
   25.4990  -37.2452  -17.8618 C   0  0  0  0  0  0  0  0  0  0  0  0
   24.8265  -36.2184  -18.4962 C   0  0  0  0  0  0  0  0  0  0  0  0
   24.3768  -35.1199  -17.7593 C   0  0  0  0  0  0  0  0  0  0  0  0
   23.9502  -31.4017  -15.5427 C   0  0  0  0  0  0  0  0  0  0  0  0
   24.1783  -30.9079  -14.4156 O   0  0  0  0  0  0  0  0  0  0  0  0
   22.9184  -30.8065  -16.3439 N   0  0  0  0  0  0  0  0  0  0  0  0
   22.0663  -29.7335  -15.8567 C   0  0  1  0  0  0  0  0  0  0  0  0
   21.4284  -29.0775  -17.0607 C   0  0  0  0  0  0  0  0  0  0  0  0
   20.6346  -27.8881  -16.7446 C   0  0  0  0  0  0  0  0  0  0  0  0
   21.0859  -26.7755  -16.0940 C   0  0  0  0  0  0  0  0  0  0  0  0
   20.0632  -25.9059  -15.9947 N   0  0  0  0  0  0  0  0  0  0  0  0
   18.9591  -26.4404  -16.5713 C   0  0  0  0  0  0  0  0  0  0  0  0
   17.6545  -26.0090  -16.7604 C   0  0  0  0  0  0  0  0  0  0  0  0
   16.7519  -26.8247  -17.4084 C   0  0  0  0  0  0  0  0  0  0  0  0
   17.0911  -28.0745  -17.8873 C   0  0  0  0  0  0  0  0  0  0  0  0
   18.3761  -28.5035  -17.7028 C   0  0  0  0  0  0  0  0  0  0  0  0
   19.3111  -27.7020  -17.0519 C   0  0  0  0  0  0  0  0  0  0  0  0
   20.9320  -30.2994  -15.0423 C   0  0  0  0  0  0  0  0  0  0  0  0
   20.3121  -31.3215  -15.3888 O   0  0  0  0  0  0  0  0  0  0  0  0
   15.7730  -31.5591   -8.0738 O   0  0  0  0  0  0  0  0  0  0  0  0
   16.8000  -31.1622   -8.9466 C   0  0  0  0  0  0  0  0  0  0  0  0
   17.5616  -32.1016   -9.5973 C   0  0  0  0  0  0  0  0  0  0  0  0
   18.5673  -31.7336  -10.4524 C   0  0  0  0  0  0  0  0  0  0  0  0
   18.8404  -30.4023  -10.6812 C   0  0  0  0  0  0  0  0  0  0  0  0
   19.9255  -30.0439  -11.5960 C   0  0  0  0  0  0  0  0  0  0  0  0
   19.4418  -30.0333  -13.0087 C   0  0  2  0  0  0  0  0  0  0  0  0
   20.5796  -29.6246  -13.8442 N   0  0  0  0  0  0  0  0  0  0  0  0
   18.3401  -29.0926  -13.2803 C   0  0  0  0  0  0  0  0  0  0  0  0
   16.9921  -29.4352  -13.0644 O   0  0  0  0  0  0  0  0  0  0  0  0
   18.0942  -29.4424  -10.0433 C   0  0  0  0  0  0  0  0  0  0  0  0
   17.0724  -29.8325   -9.1748 C   0  0  0  0  0  0  0  0  0  0  0  0
   18.5285  -27.9304  -13.7194 O   0  0  0  0  0  0  0  0  0  0  0  0
  2  1  1  1
  2  3  1  0
  3  4  1  0
  4  5  2  0
  5  6  1  0
  7  6  2  0
  8  7  1  0
  9  8  2  0
  9  4  1  0
 10  2  1  0
 11 10  2  0
 12 10  1  0
 13 12  1  0
 14 15  1  0
 13 14  1  6
 15 23  1  0
 16 17  1  0
 16 15  2  0
 17 18  1  0
 18 23  2  0
 18 19  1  0
 19 20  2  0
 20 21  1  0
 22 21  2  0
 23 22  1  0
 24 13  1  0
 24 25  2  0
 27 37  2  0
 27 26  1  0
 28 27  1  0
 29 30  1  0
 29 28  2  0
 30 36  2  0
 31 30  1  0
 32 31  1  1
 32 33  1  0
 33 24  1  0
 34 32  1  0
 35 34  1  0
 36 37  1  0
 38 34  2  0
M  END
$$$$
