FWY.pdb
     RDKit          3D

 38 41  0  0  1  0  0  0  0  0999 V2000
   28.6784   -5.4014  -18.1130 N   0  0  0  0  0  0  0  0  0  0  0  0
   27.4085   -5.8944  -18.6534 C   0  0  1  0  0  0  0  0  0  0  0  0
   27.2192   -7.2782  -18.0903 C   0  0  0  0  0  0  0  0  0  0  0  0
   28.1163   -8.2906  -18.6381 C   0  0  0  0  0  0  0  0  0  0  0  0
   29.0969   -8.8546  -17.8699 C   0  0  0  0  0  0  0  0  0  0  0  0
   29.9620   -9.8267  -18.3750 C   0  0  0  0  0  0  0  0  0  0  0  0
   29.8282  -10.2367  -19.6940 C   0  0  0  0  0  0  0  0  0  0  0  0
   28.8416   -9.6751  -20.4816 C   0  0  0  0  0  0  0  0  0  0  0  0
   27.9912   -8.7041  -19.9467 C   0  0  0  0  0  0  0  0  0  0  0  0
   26.3281   -4.9574  -18.2632 C   0  0  0  0  0  0  0  0  0  0  0  0
   26.3178   -4.3990  -17.1433 O   0  0  0  0  0  0  0  0  0  0  0  0
   25.2559   -4.6663  -19.1723 N   0  0  0  0  0  0  0  0  0  0  0  0
   24.1505   -3.7867  -18.8272 C   0  0  1  0  0  0  0  0  0  0  0  0
   23.5308   -3.3067  -20.1204 C   0  0  0  0  0  0  0  0  0  0  0  0
   22.4872   -2.2942  -19.9451 C   0  0  0  0  0  0  0  0  0  0  0  0
   22.5683   -1.1937  -19.1408 C   0  0  0  0  0  0  0  0  0  0  0  0
   21.4137   -0.5103  -19.2502 N   0  0  0  0  0  0  0  0  0  0  0  0
   20.5892   -1.1531  -20.1129 C   0  0  0  0  0  0  0  0  0  0  0  0
   19.3108   -0.9165  -20.5962 C   0  0  0  0  0  0  0  0  0  0  0  0
   18.7455   -1.7967  -21.4936 C   0  0  0  0  0  0  0  0  0  0  0  0
   19.4037   -2.9242  -21.9429 C   0  0  0  0  0  0  0  0  0  0  0  0
   20.6640   -3.1612  -21.4689 C   0  0  0  0  0  0  0  0  0  0  0  0
   21.2621   -2.2900  -20.5613 C   0  0  0  0  0  0  0  0  0  0  0  0
   23.0734   -4.5610  -18.1127 C   0  0  0  0  0  0  0  0  0  0  0  0
   22.5710   -5.5943  -18.5912 O   0  0  0  0  0  0  0  0  0  0  0  0
   24.3911  -10.4314  -16.7147 O   0  0  0  0  0  0  0  0  0  0  0  0
   23.8603   -9.2049  -16.2809 C   0  0  0  0  0  0  0  0  0  0  0  0
   24.6934   -8.1886  -15.8823 C   0  0  0  0  0  0  0  0  0  0  0  0
   24.1942   -6.9855  -15.4564 C   0  0  0  0  0  0  0  0  0  0  0  0
   22.8344   -6.7654  -15.4177 C   0  0  0  0  0  0  0  0  0  0  0  0
   22.3345   -5.4708  -14.9519 C   0  0  0  0  0  0  0  0  0  0  0  0
   21.6143   -4.7584  -16.0490 C   0  0  2  0  0  0  0  0  0  0  0  0
   22.6360   -4.0737  -16.8532 N   0  0  0  0  0  0  0  0  0  0  0  0
   20.6543   -3.7346  -15.5985 C   0  0  0  0  0  0  0  0  0  0  0  0
   19.3727   -4.0677  -15.1217 O   0  0  0  0  0  0  0  0  0  0  0  0
   21.9789   -7.7648  -15.8106 C   0  0  0  0  0  0  0  0  0  0  0  0
   22.5022   -8.9856  -16.2424 C   0  0  0  0  0  0  0  0  0  0  0  0
   20.9136   -2.5051  -15.6095 O   0  0  0  0  0  0  0  0  0  0  0  0
  2  1  1  1
  2  3  1  0
  3  4  1  0
  4  5  2  0
  5  6  1  0
  7  6  2  0
  8  7  1  0
  9  8  2  0
  9  4  1  0
 10  2  1  0
 11 10  2  0
 12 10  1  0
 13 12  1  0
 14 15  1  0
 13 14  1  6
 15 23  1  0
 16 17  1  0
 16 15  2  0
 17 18  1  0
 18 23  2  0
 18 19  1  0
 19 20  2  0
 20 21  1  0
 22 21  2  0
 23 22  1  0
 24 13  1  0
 24 25  2  0
 27 37  2  0
 27 26  1  0
 28 27  1  0
 29 30  1  0
 29 28  2  0
 30 36  2  0
 31 30  1  0
 32 31  1  1
 32 33  1  0
 33 24  1  0
 34 32  1  0
 35 34  1  0
 36 37  1  0
 38 34  2  0
M  END
$$$$
