FWY.pdb
     RDKit          3D

 38 41  0  0  1  0  0  0  0  0999 V2000
   19.0736  -14.0899  -17.7417 N   0  0  0  0  0  0  0  0  0  0  0  0
   19.2210  -12.7102  -18.2132 C   0  0  1  0  0  0  0  0  0  0  0  0
   18.0975  -12.4752  -19.1880 C   0  0  0  0  0  0  0  0  0  0  0  0
   18.1745  -13.2639  -20.4135 C   0  0  0  0  0  0  0  0  0  0  0  0
   19.2212  -13.1190  -21.2814 C   0  0  0  0  0  0  0  0  0  0  0  0
   19.3142  -13.8668  -22.4564 C   0  0  0  0  0  0  0  0  0  0  0  0
   18.3186  -14.7854  -22.7582 C   0  0  0  0  0  0  0  0  0  0  0  0
   17.2552  -14.9421  -21.8901 C   0  0  0  0  0  0  0  0  0  0  0  0
   17.1909  -14.1786  -20.7218 C   0  0  0  0  0  0  0  0  0  0  0  0
   19.1743  -11.7991  -17.0449 C   0  0  0  0  0  0  0  0  0  0  0  0
   18.2831  -11.8981  -16.1720 O   0  0  0  0  0  0  0  0  0  0  0  0
   20.1624  -10.7698  -16.8868 N   0  0  0  0  0  0  0  0  0  0  0  0
   20.0707   -9.7440  -15.8600 C   0  0  1  0  0  0  0  0  0  0  0  0
   21.4814   -9.3640  -15.4699 C   0  0  0  0  0  0  0  0  0  0  0  0
   21.5594   -8.3112  -14.4550 C   0  0  0  0  0  0  0  0  0  0  0  0
   21.2770   -8.4585  -13.1271 C   0  0  0  0  0  0  0  0  0  0  0  0
   21.4660   -7.2693  -12.5253 N   0  0  0  0  0  0  0  0  0  0  0  0
   21.8661   -6.3571  -13.4446 C   0  0  0  0  0  0  0  0  0  0  0  0
   22.1984   -5.0112  -13.3993 C   0  0  0  0  0  0  0  0  0  0  0  0
   22.5766   -4.3612  -14.5544 C   0  0  0  0  0  0  0  0  0  0  0  0
   22.6416   -4.9982  -15.7777 C   0  0  0  0  0  0  0  0  0  0  0  0
   22.3147   -6.3249  -15.8267 C   0  0  0  0  0  0  0  0  0  0  0  0
   21.9288   -7.0092  -14.6764 C   0  0  0  0  0  0  0  0  0  0  0  0
   19.4458   -8.4956  -16.4267 C   0  0  0  0  0  0  0  0  0  0  0  0
   19.7706   -8.0365  -17.5370 O   0  0  0  0  0  0  0  0  0  0  0  0
   13.5290   -2.0470  -17.1344 O   0  0  0  0  0  0  0  0  0  0  0  0
   14.2279   -3.2385  -16.8772 C   0  0  0  0  0  0  0  0  0  0  0  0
   14.4950   -3.6233  -15.5863 C   0  0  0  0  0  0  0  0  0  0  0  0
   15.1750   -4.7820  -15.3159 C   0  0  0  0  0  0  0  0  0  0  0  0
   15.6102   -5.5944  -16.3405 C   0  0  0  0  0  0  0  0  0  0  0  0
   16.3389   -6.8220  -16.0168 C   0  0  0  0  0  0  0  0  0  0  0  0
   17.8130   -6.5894  -16.0700 C   0  0  2  0  0  0  0  0  0  0  0  0
   18.4560   -7.8413  -15.6473 N   0  0  0  0  0  0  0  0  0  0  0  0
   18.3053   -5.5229  -15.1796 C   0  0  0  0  0  0  0  0  0  0  0  0
   18.4883   -4.2004  -15.6248 O   0  0  0  0  0  0  0  0  0  0  0  0
   15.3567   -5.2330  -17.6406 C   0  0  0  0  0  0  0  0  0  0  0  0
   14.6624   -4.0495  -17.9008 C   0  0  0  0  0  0  0  0  0  0  0  0
   18.5924   -5.7211  -13.9724 O   0  0  0  0  0  0  0  0  0  0  0  0
  2  1  1  1
  2  3  1  0
  3  4  1  0
  4  5  2  0
  5  6  1  0
  7  6  2  0
  8  7  1  0
  9  8  2  0
  9  4  1  0
 10  2  1  0
 11 10  2  0
 12 10  1  0
 13 12  1  0
 14 15  1  0
 13 14  1  6
 15 23  1  0
 16 17  1  0
 16 15  2  0
 17 18  1  0
 18 23  2  0
 18 19  1  0
 19 20  2  0
 20 21  1  0
 22 21  2  0
 23 22  1  0
 24 13  1  0
 24 25  2  0
 27 37  2  0
 27 26  1  0
 28 27  1  0
 29 30  1  0
 29 28  2  0
 30 36  2  0
 31 30  1  0
 32 31  1  1
 32 33  1  0
 33 24  1  0
 34 32  1  0
 35 34  1  0
 36 37  1  0
 38 34  2  0
M  END
$$$$
