FWY.pdb
     RDKit          3D

 38 41  0  0  1  0  0  0  0  0999 V2000
   25.2359  -19.4879  -17.6388 N   0  0  0  0  0  0  0  0  0  0  0  0
   25.0739  -19.0149  -16.2613 C   0  0  1  0  0  0  0  0  0  0  0  0
   25.7474  -17.6696  -16.1952 C   0  0  0  0  0  0  0  0  0  0  0  0
   27.1472  -17.6642  -16.6081 C   0  0  0  0  0  0  0  0  0  0  0  0
   27.5725  -16.8879  -17.6503 C   0  0  0  0  0  0  0  0  0  0  0  0
   28.9075  -16.8667  -18.0575 C   0  0  0  0  0  0  0  0  0  0  0  0
   29.8347  -17.6540  -17.3893 C   0  0  0  0  0  0  0  0  0  0  0  0
   29.4186  -18.4433  -16.3343 C   0  0  0  0  0  0  0  0  0  0  0  0
   28.0751  -18.4426  -15.9508 C   0  0  0  0  0  0  0  0  0  0  0  0
   23.6271  -18.9547  -15.9446 C   0  0  0  0  0  0  0  0  0  0  0  0
   23.1985  -18.3167  -14.9570 O   0  0  0  0  0  0  0  0  0  0  0  0
   22.6733  -19.6357  -16.7736 N   0  0  0  0  0  0  0  0  0  0  0  0
   21.2483  -19.6480  -16.4841 C   0  0  1  0  0  0  0  0  0  0  0  0
   20.5155  -19.5480  -17.8031 C   0  0  0  0  0  0  0  0  0  0  0  0
   20.5464  -18.2138  -18.4060 C   0  0  0  0  0  0  0  0  0  0  0  0
   21.4201  -17.7906  -19.3664 C   0  0  0  0  0  0  0  0  0  0  0  0
   21.1293  -16.5095  -19.6605 N   0  0  0  0  0  0  0  0  0  0  0  0
   20.0814  -16.0999  -18.9046 C   0  0  0  0  0  0  0  0  0  0  0  0
   19.3719  -14.9140  -18.7860 C   0  0  0  0  0  0  0  0  0  0  0  0
   18.3258  -14.8297  -17.8925 C   0  0  0  0  0  0  0  0  0  0  0  0
   17.9435  -15.8897  -17.0945 C   0  0  0  0  0  0  0  0  0  0  0  0
   18.6405  -17.0604  -17.2082 C   0  0  0  0  0  0  0  0  0  0  0  0
   19.7023  -17.1765  -18.1022 C   0  0  0  0  0  0  0  0  0  0  0  0
   20.8504  -20.9731  -15.8873 C   0  0  0  0  0  0  0  0  0  0  0  0
   20.9598  -22.0426  -16.5144 O   0  0  0  0  0  0  0  0  0  0  0  0
   26.2196  -23.1115  -14.5468 O   0  0  0  0  0  0  0  0  0  0  0  0
   24.8999  -22.9395  -14.0963 C   0  0  0  0  0  0  0  0  0  0  0  0
   24.4859  -21.7267  -13.6029 C   0  0  0  0  0  0  0  0  0  0  0  0
   23.2028  -21.5399  -13.1591 C   0  0  0  0  0  0  0  0  0  0  0  0
   22.2909  -22.5724  -13.1978 C   0  0  0  0  0  0  0  0  0  0  0  0
   20.9302  -22.3406  -12.7105 C   0  0  0  0  0  0  0  0  0  0  0  0
   19.9771  -22.2072  -13.8523 C   0  0  2  0  0  0  0  0  0  0  0  0
   20.3369  -20.9729  -14.5639 N   0  0  0  0  0  0  0  0  0  0  0  0
   18.5592  -22.0919  -13.4667 C   0  0  0  0  0  0  0  0  0  0  0  0
   17.8122  -20.9221  -13.6998 O   0  0  0  0  0  0  0  0  0  0  0  0
   22.6787  -23.7956  -13.6862 C   0  0  0  0  0  0  0  0  0  0  0  0
   23.9895  -23.9710  -14.1350 C   0  0  0  0  0  0  0  0  0  0  0  0
   17.9267  -23.0231  -12.9083 O   0  0  0  0  0  0  0  0  0  0  0  0
  2  1  1  6
  2  3  1  0
  3  4  1  0
  4  5  2  0
  5  6  1  0
  7  6  2  0
  8  7  1  0
  9  8  2  0
  9  4  1  0
 10  2  1  0
 11 10  2  0
 12 10  1  0
 13 12  1  0
 14 15  1  0
 13 14  1  6
 15 23  1  0
 16 17  1  0
 16 15  2  0
 17 18  1  0
 18 23  2  0
 18 19  1  0
 19 20  2  0
 20 21  1  0
 22 21  2  0
 23 22  1  0
 24 13  1  0
 24 25  2  0
 27 37  2  0
 27 26  1  0
 28 27  1  0
 29 30  1  0
 29 28  2  0
 30 36  2  0
 31 30  1  0
 32 31  1  1
 32 33  1  0
 33 24  1  0
 34 32  1  0
 35 34  1  0
 36 37  1  0
 38 34  2  0
M  END
$$$$
