PWE.pdb
     RDKit          3D

 31 33  0  0  1  0  0  0  0  0999 V2000
    7.2021  -15.7018   20.6293 N   0  0  0  0  0  0  0  0  0  0  0  0
    6.2283  -14.6391   20.6911 C   0  0  0  0  0  0  0  0  0  0  0  0
    6.9400  -13.3409   20.4399 C   0  0  0  0  0  0  0  0  0  0  0  0
    8.2651  -13.7564   19.8981 C   0  0  0  0  0  0  0  0  0  0  0  0
    8.5052  -15.1008   20.4980 C   0  0  1  0  0  0  0  0  0  0  0  0
    9.1857  -15.0677   21.8081 C   0  0  0  0  0  0  0  0  0  0  0  0
   10.2080  -14.3414   21.9414 O   0  0  0  0  0  0  0  0  0  0  0  0
    8.7810  -15.7922   22.9395 N   0  0  0  0  0  0  0  0  0  0  0  0
    9.5510  -15.8548   24.1978 C   0  0  1  0  0  0  0  0  0  0  0  0
    8.5122  -16.1006   25.2477 C   0  0  0  0  0  0  0  0  0  0  0  0
    7.4397  -15.1198   25.3731 C   0  0  0  0  0  0  0  0  0  0  0  0
    6.1019  -15.3445   25.0396 C   0  0  0  0  0  0  0  0  0  0  0  0
    5.3800  -14.2320   25.2428 N   0  0  0  0  0  0  0  0  0  0  0  0
    6.2010  -13.2687   25.7044 C   0  0  0  0  0  0  0  0  0  0  0  0
    5.9156  -11.9539   26.0720 C   0  0  0  0  0  0  0  0  0  0  0  0
    6.9209  -11.1512   26.5372 C   0  0  0  0  0  0  0  0  0  0  0  0
    8.1860  -11.6945   26.6193 C   0  0  0  0  0  0  0  0  0  0  0  0
    8.4688  -12.9783   26.2605 C   0  0  0  0  0  0  0  0  0  0  0  0
    7.4704  -13.8060   25.7879 C   0  0  0  0  0  0  0  0  0  0  0  0
   10.6012  -16.8674   24.1339 C   0  0  0  0  0  0  0  0  0  0  0  0
   10.4069  -18.0245   23.6888 O   0  0  0  0  0  0  0  0  0  0  0  0
   11.9371  -16.5687   24.5934 N   0  0  0  0  0  0  0  0  0  0  0  0
   12.9505  -17.5992   24.7326 C   0  0  1  0  0  0  0  0  0  0  0  0
   14.3414  -17.0258   24.5459 C   0  0  0  0  0  0  0  0  0  0  0  0
   14.4859  -16.3642   23.1922 C   0  0  0  0  0  0  0  0  0  0  0  0
   15.8554  -15.8140   23.0892 C   0  0  0  0  0  0  0  0  0  0  0  0
   16.6680  -15.9290   24.0342 O   0  0  0  0  0  0  0  0  0  0  0  0
   12.8155  -18.2295   26.0776 C   0  0  0  0  0  0  0  0  0  0  0  0
   13.5167  -19.3634   26.4528 O   0  0  0  0  0  0  0  0  0  0  0  0
   16.3111  -15.1471   21.9527 O   0  0  0  0  0  0  0  0  0  0  0  0
   12.0349  -17.7150   26.9090 O   0  0  0  0  0  0  0  0  0  0  0  0
  1  2  1  0
  3  2  1  0
  4  3  1  0
  5  4  1  0
  5  1  1  0
  5  6  1  1
  6  8  1  0
  7  6  2  0
  9  8  1  0
  9 10  1  1
 11 10  1  0
 11 19  1  0
 12 11  2  0
 13 12  1  0
 13 14  1  0
 14 15  1  0
 14 19  2  0
 15 16  2  0
 16 17  1  0
 18 17  2  0
 19 18  1  0
 20  9  1  0
 21 20  2  0
 22 20  1  0
 23 22  1  0
 23 24  1  1
 24 25  1  0
 25 26  1  0
 26 30  1  0
 27 26  2  0
 28 23  1  0
 29 28  1  0
 31 28  2  0
M  END
$$$$
