PWE.pdb
     RDKit          3D

 31 33  0  0  1  0  0  0  0  0999 V2000
    7.8434  -15.3591   18.3328 N   0  0  0  0  0  0  0  0  0  0  0  0
    6.6861  -14.5495   18.0386 C   0  0  0  0  0  0  0  0  0  0  0  0
    7.1005  -13.1072   18.0966 C   0  0  0  0  0  0  0  0  0  0  0  0
    8.5902  -13.1608   18.0903 C   0  0  0  0  0  0  0  0  0  0  0  0
    8.9160  -14.4758   18.7145 C   0  0  1  0  0  0  0  0  0  0  0  0
    9.0433  -14.4342   20.1851 C   0  0  0  0  0  0  0  0  0  0  0  0
    9.9906  -13.7741   20.6925 O   0  0  0  0  0  0  0  0  0  0  0  0
    8.1806  -15.0815   21.0824 N   0  0  0  0  0  0  0  0  0  0  0  0
    8.3663  -15.0865   22.5472 C   0  0  1  0  0  0  0  0  0  0  0  0
    6.9742  -15.1832   23.0898 C   0  0  0  0  0  0  0  0  0  0  0  0
    6.7986  -14.9912   24.5251 C   0  0  0  0  0  0  0  0  0  0  0  0
    6.5295  -16.0074   25.4451 C   0  0  0  0  0  0  0  0  0  0  0  0
    6.3942  -15.4939   26.6772 N   0  0  0  0  0  0  0  0  0  0  0  0
    6.5666  -14.1598   26.6049 C   0  0  0  0  0  0  0  0  0  0  0  0
    6.5350  -13.2000   27.6165 C   0  0  0  0  0  0  0  0  0  0  0  0
    6.7593  -11.8868   27.3062 C   0  0  0  0  0  0  0  0  0  0  0  0
    7.0092  -11.5759   25.9858 C   0  0  0  0  0  0  0  0  0  0  0  0
    7.0402  -12.5106   24.9948 C   0  0  0  0  0  0  0  0  0  0  0  0
    6.8161  -13.8414   25.2845 C   0  0  0  0  0  0  0  0  0  0  0  0
    9.2592  -16.1615   22.9708 C   0  0  0  0  0  0  0  0  0  0  0  0
    9.1350  -17.3465   22.5768 O   0  0  0  0  0  0  0  0  0  0  0  0
   10.3460  -15.8957   23.8836 N   0  0  0  0  0  0  0  0  0  0  0  0
   11.3411  -16.9020   24.2079 C   0  0  1  0  0  0  0  0  0  0  0  0
   12.7450  -16.3655   24.0092 C   0  0  0  0  0  0  0  0  0  0  0  0
   13.7851  -17.4255   24.3022 C   0  0  0  0  0  0  0  0  0  0  0  0
   15.1230  -16.8383   24.0704 C   0  0  0  0  0  0  0  0  0  0  0  0
   15.9815  -16.8130   24.9808 O   0  0  0  0  0  0  0  0  0  0  0  0
   11.1391  -17.3427   25.6184 C   0  0  0  0  0  0  0  0  0  0  0  0
   11.7221  -18.4844   26.1426 O   0  0  0  0  0  0  0  0  0  0  0  0
   15.4975  -16.2887   22.8449 O   0  0  0  0  0  0  0  0  0  0  0  0
   10.4108  -16.6538   26.3670 O   0  0  0  0  0  0  0  0  0  0  0  0
  1  2  1  0
  3  2  1  0
  4  3  1  0
  5  4  1  0
  5  1  1  0
  5  6  1  1
  6  8  1  0
  7  6  2  0
  9  8  1  0
  9 10  1  1
 11 10  1  0
 11 19  1  0
 12 11  2  0
 13 12  1  0
 13 14  1  0
 14 15  1  0
 14 19  2  0
 15 16  2  0
 16 17  1  0
 18 17  2  0
 19 18  1  0
 20  9  1  0
 21 20  2  0
 22 20  1  0
 23 22  1  0
 23 24  1  1
 24 25  1  0
 25 26  1  0
 26 30  1  0
 27 26  2  0
 28 23  1  0
 29 28  1  0
 31 28  2  0
M  END
$$$$
