PWE.pdb
     RDKit          3D

 31 33  0  0  1  0  0  0  0  0999 V2000
    7.7267  -15.2567   18.4443 N   0  0  0  0  0  0  0  0  0  0  0  0
    6.6716  -14.2887   18.2677 C   0  0  0  0  0  0  0  0  0  0  0  0
    7.2819  -12.9182   18.3341 C   0  0  0  0  0  0  0  0  0  0  0  0
    8.7456  -13.1700   18.2063 C   0  0  0  0  0  0  0  0  0  0  0  0
    8.9355  -14.5404   18.7639 C   0  0  1  0  0  0  0  0  0  0  0  0
    9.1783  -14.5745   20.2201 C   0  0  0  0  0  0  0  0  0  0  0  0
   10.2298  -14.0439   20.6713 O   0  0  0  0  0  0  0  0  0  0  0  0
    8.3191  -15.1602   21.1620 N   0  0  0  0  0  0  0  0  0  0  0  0
    8.5601  -15.1472   22.6188 C   0  0  1  0  0  0  0  0  0  0  0  0
    7.1867  -15.1599   23.2145 C   0  0  0  0  0  0  0  0  0  0  0  0
    7.0714  -14.8776   24.6410 C   0  0  0  0  0  0  0  0  0  0  0  0
    6.8022  -15.8276   25.6292 C   0  0  0  0  0  0  0  0  0  0  0  0
    6.7306  -15.2380   26.8323 N   0  0  0  0  0  0  0  0  0  0  0  0
    6.9457  -13.9176   26.6740 C   0  0  0  0  0  0  0  0  0  0  0  0
    6.9848  -12.8996   27.6267 C   0  0  0  0  0  0  0  0  0  0  0  0
    7.2421  -11.6158   27.2305 C   0  0  0  0  0  0  0  0  0  0  0  0
    7.4531  -11.3924   25.8858 C   0  0  0  0  0  0  0  0  0  0  0  0
    7.4151  -12.3842   24.9522 C   0  0  0  0  0  0  0  0  0  0  0  0
    7.1565  -13.6866   25.3290 C   0  0  0  0  0  0  0  0  0  0  0  0
    9.4113  -16.2598   23.0313 C   0  0  0  0  0  0  0  0  0  0  0  0
    9.2575  -17.4304   22.6059 O   0  0  0  0  0  0  0  0  0  0  0  0
   10.4889  -16.0505   23.9693 N   0  0  0  0  0  0  0  0  0  0  0  0
   11.4806  -17.0753   24.2420 C   0  0  1  0  0  0  0  0  0  0  0  0
   12.8848  -16.5494   24.0186 C   0  0  0  0  0  0  0  0  0  0  0  0
   13.9243  -17.5946   24.3621 C   0  0  0  0  0  0  0  0  0  0  0  0
   15.1977  -17.2124   23.7130 C   0  0  0  0  0  0  0  0  0  0  0  0
   15.7699  -17.9862   22.9128 O   0  0  0  0  0  0  0  0  0  0  0  0
   11.3113  -17.5485   25.6462 C   0  0  0  0  0  0  0  0  0  0  0  0
   11.9427  -18.6766   26.1432 O   0  0  0  0  0  0  0  0  0  0  0  0
   15.8224  -15.9890   23.9520 O   0  0  0  0  0  0  0  0  0  0  0  0
   10.5663  -16.9011   26.4150 O   0  0  0  0  0  0  0  0  0  0  0  0
  1  2  1  0
  3  2  1  0
  4  3  1  0
  5  4  1  0
  5  1  1  0
  5  6  1  1
  6  8  1  0
  7  6  2  0
  9  8  1  0
  9 10  1  1
 11 10  1  0
 11 19  1  0
 12 11  2  0
 13 12  1  0
 13 14  1  0
 14 15  1  0
 14 19  2  0
 15 16  2  0
 16 17  1  0
 18 17  2  0
 19 18  1  0
 20  9  1  0
 21 20  2  0
 22 20  1  0
 23 22  1  0
 23 24  1  1
 24 25  1  0
 25 26  1  0
 26 30  1  0
 27 26  2  0
 28 23  1  0
 29 28  1  0
 31 28  2  0
M  END
$$$$
