PWE.pdb
     RDKit          3D

 31 33  0  0  1  0  0  0  0  0999 V2000
    7.3707  -15.6840   20.5925 N   0  0  0  0  0  0  0  0  0  0  0  0
    6.3237  -14.6940   20.6625 C   0  0  0  0  0  0  0  0  0  0  0  0
    6.9572  -13.3377   20.5421 C   0  0  0  0  0  0  0  0  0  0  0  0
    8.3372  -13.6273   20.0587 C   0  0  0  0  0  0  0  0  0  0  0  0
    8.6345  -14.9917   20.5830 C   0  0  1  0  0  0  0  0  0  0  0  0
    9.2335  -15.0056   21.9327 C   0  0  0  0  0  0  0  0  0  0  0  0
   10.1996  -14.2319   22.1745 O   0  0  0  0  0  0  0  0  0  0  0  0
    8.8083  -15.8249   22.9894 N   0  0  0  0  0  0  0  0  0  0  0  0
    9.5204  -15.9463   24.2772 C   0  0  1  0  0  0  0  0  0  0  0  0
    8.4273  -16.1548   25.2787 C   0  0  0  0  0  0  0  0  0  0  0  0
    7.4688  -15.0704   25.4614 C   0  0  0  0  0  0  0  0  0  0  0  0
    6.0883  -15.1782   25.2769 C   0  0  0  0  0  0  0  0  0  0  0  0
    5.4973  -13.9935   25.4947 N   0  0  0  0  0  0  0  0  0  0  0  0
    6.4475  -13.0960   25.8209 C   0  0  0  0  0  0  0  0  0  0  0  0
    6.3246  -11.7456   26.1477 C   0  0  0  0  0  0  0  0  0  0  0  0
    7.4429  -11.0254   26.4671 C   0  0  0  0  0  0  0  0  0  0  0  0
    8.6543  -11.6848   26.4487 C   0  0  0  0  0  0  0  0  0  0  0  0
    8.7783  -13.0037   26.1294 C   0  0  0  0  0  0  0  0  0  0  0  0
    7.6638  -13.7497   25.8032 C   0  0  0  0  0  0  0  0  0  0  0  0
   10.5200  -17.0101   24.2389 C   0  0  0  0  0  0  0  0  0  0  0  0
   10.2717  -18.1644   23.8137 O   0  0  0  0  0  0  0  0  0  0  0  0
   11.8662  -16.7688   24.7020 N   0  0  0  0  0  0  0  0  0  0  0  0
   12.8518  -17.8316   24.7875 C   0  0  1  0  0  0  0  0  0  0  0  0
   14.2517  -17.2978   24.5561 C   0  0  0  0  0  0  0  0  0  0  0  0
   14.3398  -16.5329   23.2530 C   0  0  0  0  0  0  0  0  0  0  0  0
   15.6935  -15.9448   23.1515 C   0  0  0  0  0  0  0  0  0  0  0  0
   16.2668  -15.4714   24.1584 O   0  0  0  0  0  0  0  0  0  0  0  0
   12.7482  -18.4784   26.1275 C   0  0  0  0  0  0  0  0  0  0  0  0
   11.9076  -18.0147   27.1257 O   0  0  0  0  0  0  0  0  0  0  0  0
   16.3960  -15.8854   21.9485 O   0  0  0  0  0  0  0  0  0  0  0  0
   13.4503  -19.4860   26.3666 O   0  0  0  0  0  0  0  0  0  0  0  0
  1  2  1  0
  3  2  1  0
  4  3  1  0
  5  4  1  0
  5  1  1  0
  5  6  1  1
  6  8  1  0
  7  6  2  0
  9  8  1  0
  9 10  1  1
 11 10  1  0
 11 19  1  0
 12 11  2  0
 13 12  1  0
 13 14  1  0
 14 15  1  0
 14 19  2  0
 15 16  2  0
 16 17  1  0
 18 17  2  0
 19 18  1  0
 20  9  1  0
 21 20  2  0
 22 20  1  0
 23 22  1  0
 23 24  1  1
 24 25  1  0
 25 26  1  0
 26 30  1  0
 27 26  2  0
 28 23  1  0
 29 28  1  0
 31 28  2  0
M  END
$$$$
