PWE.pdb
     RDKit          3D

 31 33  0  0  1  0  0  0  0  0999 V2000
    7.0896  -15.8105   20.9635 N   0  0  0  0  0  0  0  0  0  0  0  0
    6.1416  -14.7302   21.0886 C   0  0  0  0  0  0  0  0  0  0  0  0
    6.8748  -13.4394   20.8620 C   0  0  0  0  0  0  0  0  0  0  0  0
    8.1753  -13.8639   20.2698 C   0  0  0  0  0  0  0  0  0  0  0  0
    8.4016  -15.2331   20.8165 C   0  0  1  0  0  0  0  0  0  0  0  0
    9.1179  -15.2599   22.1076 C   0  0  0  0  0  0  0  0  0  0  0  0
   10.2154  -14.6462   22.2042 O   0  0  0  0  0  0  0  0  0  0  0  0
    8.6695  -15.9252   23.2587 N   0  0  0  0  0  0  0  0  0  0  0  0
    9.4482  -16.0260   24.5092 C   0  0  1  0  0  0  0  0  0  0  0  0
    8.4065  -16.1567   25.5765 C   0  0  0  0  0  0  0  0  0  0  0  0
    7.4000  -15.1044   25.6642 C   0  0  0  0  0  0  0  0  0  0  0  0
    6.0306  -15.2823   25.4530 C   0  0  0  0  0  0  0  0  0  0  0  0
    5.3861  -14.1122   25.5783 N   0  0  0  0  0  0  0  0  0  0  0  0
    6.2897  -13.1561   25.8685 C   0  0  0  0  0  0  0  0  0  0  0  0
    6.1030  -11.7939   26.1032 C   0  0  0  0  0  0  0  0  0  0  0  0
    7.1819  -11.0079   26.4024 C   0  0  0  0  0  0  0  0  0  0  0  0
    8.4191  -11.6152   26.4571 C   0  0  0  0  0  0  0  0  0  0  0  0
    8.6055  -12.9454   26.2278 C   0  0  0  0  0  0  0  0  0  0  0  0
    7.5316  -13.7574   25.9236 C   0  0  0  0  0  0  0  0  0  0  0  0
   10.4058  -17.1273   24.4572 C   0  0  0  0  0  0  0  0  0  0  0  0
   10.1033  -18.2755   24.0508 O   0  0  0  0  0  0  0  0  0  0  0  0
   11.7715  -16.9327   24.8834 N   0  0  0  0  0  0  0  0  0  0  0  0
   12.7260  -18.0260   24.9284 C   0  0  1  0  0  0  0  0  0  0  0  0
   13.9289  -17.7369   24.0523 C   0  0  0  0  0  0  0  0  0  0  0  0
   14.4149  -16.3154   24.2377 C   0  0  0  0  0  0  0  0  0  0  0  0
   15.5967  -16.1132   23.3710 C   0  0  0  0  0  0  0  0  0  0  0  0
   16.7239  -15.8817   23.8632 O   0  0  0  0  0  0  0  0  0  0  0  0
   13.1436  -18.2433   26.3437 C   0  0  0  0  0  0  0  0  0  0  0  0
   13.9860  -19.2718   26.7319 O   0  0  0  0  0  0  0  0  0  0  0  0
   15.5232  -16.1677   21.9797 O   0  0  0  0  0  0  0  0  0  0  0  0
   12.7168  -17.4642   27.2247 O   0  0  0  0  0  0  0  0  0  0  0  0
  1  2  1  0
  3  2  1  0
  4  3  1  0
  5  4  1  0
  5  1  1  0
  5  6  1  1
  6  8  1  0
  7  6  2  0
  9  8  1  0
  9 10  1  1
 11 10  1  0
 11 19  1  0
 12 11  2  0
 13 12  1  0
 13 14  1  0
 14 15  1  0
 14 19  2  0
 15 16  2  0
 16 17  1  0
 18 17  2  0
 19 18  1  0
 20  9  1  0
 21 20  2  0
 22 20  1  0
 23 22  1  0
 23 24  1  6
 24 25  1  0
 25 26  1  0
 26 30  1  0
 27 26  2  0
 28 23  1  0
 29 28  1  0
 31 28  2  0
M  END
$$$$
