PWE.pdb
     RDKit          3D

 31 33  0  0  1  0  0  0  0  0999 V2000
    7.8503  -15.3382   18.5679 N   0  0  0  0  0  0  0  0  0  0  0  0
    6.8563  -14.3348   18.2737 C   0  0  0  0  0  0  0  0  0  0  0  0
    7.5236  -12.9904   18.3229 C   0  0  0  0  0  0  0  0  0  0  0  0
    8.9793  -13.3111   18.3115 C   0  0  0  0  0  0  0  0  0  0  0  0
    9.0660  -14.6605   18.9412 C   0  0  1  0  0  0  0  0  0  0  0  0
    9.2053  -14.6362   20.4111 C   0  0  0  0  0  0  0  0  0  0  0  0
   10.2596  -14.1584   20.9117 O   0  0  0  0  0  0  0  0  0  0  0  0
    8.2425  -15.1103   21.3149 N   0  0  0  0  0  0  0  0  0  0  0  0
    8.4312  -15.1437   22.7790 C   0  0  1  0  0  0  0  0  0  0  0  0
    7.0418  -15.0402   23.3270 C   0  0  0  0  0  0  0  0  0  0  0  0
    6.9015  -14.7500   24.7497 C   0  0  0  0  0  0  0  0  0  0  0  0
    6.6204  -15.6954   25.7390 C   0  0  0  0  0  0  0  0  0  0  0  0
    6.5260  -15.0990   26.9372 N   0  0  0  0  0  0  0  0  0  0  0  0
    6.7375  -13.7784   26.7745 C   0  0  0  0  0  0  0  0  0  0  0  0
    6.7558  -12.7546   27.7215 C   0  0  0  0  0  0  0  0  0  0  0  0
    7.0137  -11.4720   27.3219 C   0  0  0  0  0  0  0  0  0  0  0  0
    7.2458  -11.2556   25.9796 C   0  0  0  0  0  0  0  0  0  0  0  0
    7.2281  -12.2531   25.0514 C   0  0  0  0  0  0  0  0  0  0  0  0
    6.9695  -13.5545   25.4317 C   0  0  0  0  0  0  0  0  0  0  0  0
    9.1621  -16.3364   23.1983 C   0  0  0  0  0  0  0  0  0  0  0  0
    8.8635  -17.4914   22.8089 O   0  0  0  0  0  0  0  0  0  0  0  0
   10.2839  -16.2298   24.1010 N   0  0  0  0  0  0  0  0  0  0  0  0
   11.0592  -17.3894   24.5041 C   0  0  1  0  0  0  0  0  0  0  0  0
   12.4302  -17.3813   23.8571 C   0  0  0  0  0  0  0  0  0  0  0  0
   13.3568  -16.4019   24.5452 C   0  0  0  0  0  0  0  0  0  0  0  0
   14.5586  -16.2291   23.6999 C   0  0  0  0  0  0  0  0  0  0  0  0
   15.7075  -16.3308   24.1859 O   0  0  0  0  0  0  0  0  0  0  0  0
   11.1771  -17.3974   25.9909 C   0  0  0  0  0  0  0  0  0  0  0  0
   10.6532  -16.3983   26.7942 O   0  0  0  0  0  0  0  0  0  0  0  0
   14.4810  -15.9475   22.3365 O   0  0  0  0  0  0  0  0  0  0  0  0
   11.7755  -18.3471   26.5432 O   0  0  0  0  0  0  0  0  0  0  0  0
  1  2  1  0
  3  2  1  0
  4  3  1  0
  5  4  1  0
  5  1  1  0
  5  6  1  1
  6  8  1  0
  7  6  2  0
  9  8  1  0
  9 10  1  1
 11 10  1  0
 11 19  1  0
 12 11  2  0
 13 12  1  0
 13 14  1  0
 14 15  1  0
 14 19  2  0
 15 16  2  0
 16 17  1  0
 18 17  2  0
 19 18  1  0
 20  9  1  0
 21 20  2  0
 22 20  1  0
 23 22  1  0
 23 24  1  6
 24 25  1  0
 25 26  1  0
 26 30  1  0
 27 26  2  0
 28 23  1  0
 29 28  1  0
 31 28  2  0
M  END
$$$$
