PWE.pdb
     RDKit          3D

 31 33  0  0  1  0  0  0  0  0999 V2000
    7.1413  -15.7421   20.6041 N   0  0  0  0  0  0  0  0  0  0  0  0
    6.0472  -14.8282   20.8257 C   0  0  0  0  0  0  0  0  0  0  0  0
    6.5716  -13.4293   20.6734 C   0  0  0  0  0  0  0  0  0  0  0  0
    7.9007  -13.6124   20.0236 C   0  0  0  0  0  0  0  0  0  0  0  0
    8.3468  -14.9646   20.4682 C   0  0  1  0  0  0  0  0  0  0  0  0
    9.1011  -14.9675   21.7377 C   0  0  0  0  0  0  0  0  0  0  0  0
   10.0574  -14.1569   21.8758 O   0  0  0  0  0  0  0  0  0  0  0  0
    8.8368  -15.8145   22.8245 N   0  0  0  0  0  0  0  0  0  0  0  0
    9.6639  -15.8711   24.0464 C   0  0  1  0  0  0  0  0  0  0  0  0
    8.6926  -16.2346   25.1262 C   0  0  0  0  0  0  0  0  0  0  0  0
    7.6578  -15.2600   25.4539 C   0  0  0  0  0  0  0  0  0  0  0  0
    6.2847  -15.5171   25.4607 C   0  0  0  0  0  0  0  0  0  0  0  0
    5.6057  -14.4030   25.7736 N   0  0  0  0  0  0  0  0  0  0  0  0
    6.4900  -13.4071   25.9769 C   0  0  0  0  0  0  0  0  0  0  0  0
    6.2692  -12.0773   26.3350 C   0  0  0  0  0  0  0  0  0  0  0  0
    7.3370  -11.2396   26.5060 C   0  0  0  0  0  0  0  0  0  0  0  0
    8.5979  -11.7639   26.3116 C   0  0  0  0  0  0  0  0  0  0  0  0
    8.8175  -13.0623   25.9611 C   0  0  0  0  0  0  0  0  0  0  0  0
    7.7552  -13.9253   25.7825 C   0  0  0  0  0  0  0  0  0  0  0  0
   10.7801  -16.8005   23.8956 C   0  0  0  0  0  0  0  0  0  0  0  0
   10.6260  -18.0076   23.5889 O   0  0  0  0  0  0  0  0  0  0  0  0
   12.1383  -16.3552   24.1002 N   0  0  0  0  0  0  0  0  0  0  0  0
   13.2680  -17.2617   23.9990 C   0  0  1  0  0  0  0  0  0  0  0  0
   14.5600  -16.5009   23.7751 C   0  0  0  0  0  0  0  0  0  0  0  0
   15.7547  -17.4302   23.7898 C   0  0  0  0  0  0  0  0  0  0  0  0
   16.9740  -16.6208   23.5731 C   0  0  0  0  0  0  0  0  0  0  0  0
   17.6345  -16.7225   22.5148 O   0  0  0  0  0  0  0  0  0  0  0  0
   13.3448  -18.0772   25.2455 C   0  0  0  0  0  0  0  0  0  0  0  0
   12.9580  -17.5971   26.4857 O   0  0  0  0  0  0  0  0  0  0  0  0
   17.4489  -15.7138   24.5197 O   0  0  0  0  0  0  0  0  0  0  0  0
   13.7775  -19.2488   25.1738 O   0  0  0  0  0  0  0  0  0  0  0  0
  1  2  1  0
  3  2  1  0
  4  3  1  0
  5  4  1  0
  5  1  1  0
  5  6  1  1
  6  8  1  0
  7  6  2  0
  9  8  1  0
  9 10  1  1
 11 10  1  0
 11 19  1  0
 12 11  2  0
 13 12  1  0
 13 14  1  0
 14 15  1  0
 14 19  2  0
 15 16  2  0
 16 17  1  0
 18 17  2  0
 19 18  1  0
 20  9  1  0
 21 20  2  0
 22 20  1  0
 23 22  1  0
 23 24  1  1
 24 25  1  0
 25 26  1  0
 26 30  1  0
 27 26  2  0
 28 23  1  0
 29 28  1  0
 31 28  2  0
M  END
$$$$
