PWE.pdb
     RDKit          3D

 31 33  0  0  1  0  0  0  0  0999 V2000
    7.9146  -15.3818   18.5410 N   0  0  0  0  0  0  0  0  0  0  0  0
    6.7670  -14.5706   18.2152 C   0  0  0  0  0  0  0  0  0  0  0  0
    7.1954  -13.1314   18.2301 C   0  0  0  0  0  0  0  0  0  0  0  0
    8.6845  -13.1997   18.2334 C   0  0  0  0  0  0  0  0  0  0  0  0
    8.9940  -14.4975   18.9004 C   0  0  1  0  0  0  0  0  0  0  0  0
    9.1143  -14.4108   20.3697 C   0  0  0  0  0  0  0  0  0  0  0  0
    9.9860  -13.6437   20.8617 O   0  0  0  0  0  0  0  0  0  0  0  0
    8.3234  -15.1258   21.2816 N   0  0  0  0  0  0  0  0  0  0  0  0
    8.5377  -15.1181   22.7426 C   0  0  1  0  0  0  0  0  0  0  0  0
    7.1535  -15.0949   23.3128 C   0  0  0  0  0  0  0  0  0  0  0  0
    7.0169  -14.7773   24.7300 C   0  0  0  0  0  0  0  0  0  0  0  0
    6.8407  -15.7148   25.7505 C   0  0  0  0  0  0  0  0  0  0  0  0
    6.7181  -15.0948   26.9340 N   0  0  0  0  0  0  0  0  0  0  0  0
    6.8084  -13.7660   26.7311 C   0  0  0  0  0  0  0  0  0  0  0  0
    6.7553  -12.7176   27.6495 C   0  0  0  0  0  0  0  0  0  0  0  0
    6.8904  -11.4294   27.2097 C   0  0  0  0  0  0  0  0  0  0  0  0
    7.0753  -11.2321   25.8572 C   0  0  0  0  0  0  0  0  0  0  0  0
    7.1272  -12.2537   24.9569 C   0  0  0  0  0  0  0  0  0  0  0  0
    6.9926  -13.5613   25.3779 C   0  0  0  0  0  0  0  0  0  0  0  0
    9.3520  -16.2520   23.1710 C   0  0  0  0  0  0  0  0  0  0  0  0
    9.1427  -17.4271   22.7836 O   0  0  0  0  0  0  0  0  0  0  0  0
   10.4564  -16.0598   24.0811 N   0  0  0  0  0  0  0  0  0  0  0  0
   11.4270  -17.1072   24.3442 C   0  0  1  0  0  0  0  0  0  0  0  0
   12.8365  -16.6307   24.0541 C   0  0  0  0  0  0  0  0  0  0  0  0
   13.8536  -17.7132   24.3453 C   0  0  0  0  0  0  0  0  0  0  0  0
   15.1977  -17.1843   24.0257 C   0  0  0  0  0  0  0  0  0  0  0  0
   15.6625  -16.1958   24.6368 O   0  0  0  0  0  0  0  0  0  0  0  0
   11.2976  -17.5381   25.7663 C   0  0  0  0  0  0  0  0  0  0  0  0
   11.8799  -18.6936   26.2600 O   0  0  0  0  0  0  0  0  0  0  0  0
   16.0096  -17.7472   23.0418 O   0  0  0  0  0  0  0  0  0  0  0  0
   10.6341  -16.8275   26.5537 O   0  0  0  0  0  0  0  0  0  0  0  0
  1  2  1  0
  3  2  1  0
  4  3  1  0
  5  4  1  0
  5  1  1  0
  5  6  1  1
  6  8  1  0
  7  6  2  0
  9  8  1  0
  9 10  1  1
 11 10  1  0
 11 19  1  0
 12 11  2  0
 13 12  1  0
 13 14  1  0
 14 15  1  0
 14 19  2  0
 15 16  2  0
 16 17  1  0
 18 17  2  0
 19 18  1  0
 20  9  1  0
 21 20  2  0
 22 20  1  0
 23 22  1  0
 23 24  1  1
 24 25  1  0
 25 26  1  0
 26 30  1  0
 27 26  2  0
 28 23  1  0
 29 28  1  0
 31 28  2  0
M  END
$$$$
