PWE.pdb
     RDKit          3D

 31 33  0  0  1  0  0  0  0  0999 V2000
    7.2955  -15.4026   20.4253 N   0  0  0  0  0  0  0  0  0  0  0  0
    6.2818  -14.3882   20.5828 C   0  0  0  0  0  0  0  0  0  0  0  0
    6.9546  -13.0466   20.5326 C   0  0  0  0  0  0  0  0  0  0  0  0
    8.3138  -13.3459   19.9986 C   0  0  0  0  0  0  0  0  0  0  0  0
    8.5797  -14.7491   20.4287 C   0  0  1  0  0  0  0  0  0  0  0  0
    9.2080  -14.8668   21.7600 C   0  0  0  0  0  0  0  0  0  0  0  0
   10.2770  -14.2359   21.9830 O   0  0  0  0  0  0  0  0  0  0  0  0
    8.7040  -15.6379   22.8182 N   0  0  0  0  0  0  0  0  0  0  0  0
    9.3900  -15.8081   24.1146 C   0  0  1  0  0  0  0  0  0  0  0  0
    8.2758  -16.0357   25.0883 C   0  0  0  0  0  0  0  0  0  0  0  0
    7.3188  -14.9513   25.2785 C   0  0  0  0  0  0  0  0  0  0  0  0
    5.9569  -15.0185   24.9746 C   0  0  0  0  0  0  0  0  0  0  0  0
    5.3645  -13.8437   25.2374 N   0  0  0  0  0  0  0  0  0  0  0  0
    6.2955  -12.9924   25.7100 C   0  0  0  0  0  0  0  0  0  0  0  0
    6.1626  -11.6697   26.1321 C   0  0  0  0  0  0  0  0  0  0  0  0
    7.2595  -10.9978   26.5974 C   0  0  0  0  0  0  0  0  0  0  0  0
    8.4602  -11.6761   26.6249 C   0  0  0  0  0  0  0  0  0  0  0  0
    8.5940  -12.9681   26.2127 C   0  0  0  0  0  0  0  0  0  0  0  0
    7.5011  -13.6653   25.7389 C   0  0  0  0  0  0  0  0  0  0  0  0
   10.3786  -16.8816   24.0612 C   0  0  0  0  0  0  0  0  0  0  0  0
   10.1440  -17.9996   23.5417 O   0  0  0  0  0  0  0  0  0  0  0  0
   11.6968  -16.6933   24.6195 N   0  0  0  0  0  0  0  0  0  0  0  0
   12.5852  -17.8103   24.8867 C   0  0  1  0  0  0  0  0  0  0  0  0
   14.0378  -17.3860   24.7971 C   0  0  0  0  0  0  0  0  0  0  0  0
   14.3040  -16.6012   23.5305 C   0  0  0  0  0  0  0  0  0  0  0  0
   15.7344  -16.2239   23.5112 C   0  0  0  0  0  0  0  0  0  0  0  0
   16.5159  -16.6167   24.4065 O   0  0  0  0  0  0  0  0  0  0  0  0
   12.2777  -18.3580   26.2395 C   0  0  0  0  0  0  0  0  0  0  0  0
   12.8557  -19.5155   26.7336 O   0  0  0  0  0  0  0  0  0  0  0  0
   16.2841  -15.4223   22.5115 O   0  0  0  0  0  0  0  0  0  0  0  0
   11.4611  -17.7485   26.9654 O   0  0  0  0  0  0  0  0  0  0  0  0
  1  2  1  0
  3  2  1  0
  4  3  1  0
  5  4  1  0
  5  1  1  0
  5  6  1  1
  6  8  1  0
  7  6  2  0
  9  8  1  0
  9 10  1  1
 11 10  1  0
 11 19  1  0
 12 11  2  0
 13 12  1  0
 13 14  1  0
 14 15  1  0
 14 19  2  0
 15 16  2  0
 16 17  1  0
 18 17  2  0
 19 18  1  0
 20  9  1  0
 21 20  2  0
 22 20  1  0
 23 22  1  0
 23 24  1  1
 24 25  1  0
 25 26  1  0
 26 30  1  0
 27 26  2  0
 28 23  1  0
 29 28  1  0
 31 28  2  0
M  END
$$$$
