PWE.pdb
     RDKit          3D

 31 33  0  0  1  0  0  0  0  0999 V2000
    7.2040  -15.6907   20.6207 N   0  0  0  0  0  0  0  0  0  0  0  0
    6.2082  -14.6499   20.7002 C   0  0  0  0  0  0  0  0  0  0  0  0
    6.8890  -13.3347   20.4515 C   0  0  0  0  0  0  0  0  0  0  0  0
    8.2172  -13.7176   19.8933 C   0  0  0  0  0  0  0  0  0  0  0  0
    8.4923  -15.0607   20.4808 C   0  0  1  0  0  0  0  0  0  0  0  0
    9.1853  -15.0223   21.7843 C   0  0  0  0  0  0  0  0  0  0  0  0
   10.2055  -14.2910   21.9064 O   0  0  0  0  0  0  0  0  0  0  0  0
    8.7949  -15.7467   22.9206 N   0  0  0  0  0  0  0  0  0  0  0  0
    9.5601  -15.7762   24.1831 C   0  0  1  0  0  0  0  0  0  0  0  0
    8.5418  -16.1459   25.2166 C   0  0  0  0  0  0  0  0  0  0  0  0
    7.4048  -15.2486   25.3894 C   0  0  0  0  0  0  0  0  0  0  0  0
    6.0682  -15.5945   25.1763 C   0  0  0  0  0  0  0  0  0  0  0  0
    5.2746  -14.5345   25.3924 N   0  0  0  0  0  0  0  0  0  0  0  0
    6.0465  -13.4883   25.7453 C   0  0  0  0  0  0  0  0  0  0  0  0
    5.6825  -12.1843   26.0810 C   0  0  0  0  0  0  0  0  0  0  0  0
    6.6511  -11.2831   26.4289 C   0  0  0  0  0  0  0  0  0  0  0  0
    7.9595  -11.7197   26.4291 C   0  0  0  0  0  0  0  0  0  0  0  0
    8.3189  -12.9925   26.1011 C   0  0  0  0  0  0  0  0  0  0  0  0
    7.3587  -13.9184   25.7463 C   0  0  0  0  0  0  0  0  0  0  0  0
   10.6983  -16.6872   24.0990 C   0  0  0  0  0  0  0  0  0  0  0  0
   10.5709  -17.9242   23.9312 O   0  0  0  0  0  0  0  0  0  0  0  0
   12.0481  -16.1867   24.2100 N   0  0  0  0  0  0  0  0  0  0  0  0
   13.2036  -17.0564   24.0800 C   0  0  1  0  0  0  0  0  0  0  0  0
   14.4653  -16.2541   23.8298 C   0  0  0  0  0  0  0  0  0  0  0  0
   15.6804  -17.1528   23.7454 C   0  0  0  0  0  0  0  0  0  0  0  0
   16.8702  -16.3031   23.5192 C   0  0  0  0  0  0  0  0  0  0  0  0
   17.4288  -15.7114   24.4701 O   0  0  0  0  0  0  0  0  0  0  0  0
   13.3345  -17.8728   25.3213 C   0  0  0  0  0  0  0  0  0  0  0  0
   12.8998  -17.4349   26.5612 O   0  0  0  0  0  0  0  0  0  0  0  0
   17.4274  -16.1161   22.2548 O   0  0  0  0  0  0  0  0  0  0  0  0
   13.8603  -19.0055   25.2454 O   0  0  0  0  0  0  0  0  0  0  0  0
  1  2  1  0
  3  2  1  0
  4  3  1  0
  5  4  1  0
  5  1  1  0
  5  6  1  1
  6  8  1  0
  7  6  2  0
  9  8  1  0
  9 10  1  1
 11 10  1  0
 11 19  1  0
 12 11  2  0
 13 12  1  0
 13 14  1  0
 14 15  1  0
 14 19  2  0
 15 16  2  0
 16 17  1  0
 18 17  2  0
 19 18  1  0
 20  9  1  0
 21 20  2  0
 22 20  1  0
 23 22  1  0
 23 24  1  1
 24 25  1  0
 25 26  1  0
 26 30  1  0
 27 26  2  0
 28 23  1  0
 29 28  1  0
 31 28  2  0
M  END
$$$$
