PWE.pdb
     RDKit          3D

 31 33  0  0  1  0  0  0  0  0999 V2000
    7.1813  -15.8677   20.8298 N   0  0  0  0  0  0  0  0  0  0  0  0
    6.2096  -14.8057   20.9265 C   0  0  0  0  0  0  0  0  0  0  0  0
    6.9163  -13.5045   20.6766 C   0  0  0  0  0  0  0  0  0  0  0  0
    8.2291  -13.9132   20.1008 C   0  0  0  0  0  0  0  0  0  0  0  0
    8.4815  -15.2653   20.6779 C   0  0  1  0  0  0  0  0  0  0  0  0
    9.1903  -15.2493   21.9733 C   0  0  0  0  0  0  0  0  0  0  0  0
   10.2506  -14.5740   22.0752 O   0  0  0  0  0  0  0  0  0  0  0  0
    8.7736  -15.9372   23.1230 N   0  0  0  0  0  0  0  0  0  0  0  0
    9.5554  -16.0024   24.3739 C   0  0  1  0  0  0  0  0  0  0  0  0
    8.5275  -16.2596   25.4318 C   0  0  0  0  0  0  0  0  0  0  0  0
    7.4411  -15.2947   25.5603 C   0  0  0  0  0  0  0  0  0  0  0  0
    6.0855  -15.5824   25.3842 C   0  0  0  0  0  0  0  0  0  0  0  0
    5.3510  -14.4707   25.5420 N   0  0  0  0  0  0  0  0  0  0  0  0
    6.1810  -13.4466   25.8199 C   0  0  0  0  0  0  0  0  0  0  0  0
    5.8900  -12.1070   26.0770 C   0  0  0  0  0  0  0  0  0  0  0  0
    6.9088  -11.2381   26.3569 C   0  0  0  0  0  0  0  0  0  0  0  0
    8.1927  -11.7420   26.3701 C   0  0  0  0  0  0  0  0  0  0  0  0
    8.4809  -13.0499   26.1187 C   0  0  0  0  0  0  0  0  0  0  0  0
    7.4691  -13.9443   25.8334 C   0  0  0  0  0  0  0  0  0  0  0  0
   10.6104  -17.0090   24.2949 C   0  0  0  0  0  0  0  0  0  0  0  0
   10.4111  -18.1745   23.8749 O   0  0  0  0  0  0  0  0  0  0  0  0
   11.9573  -16.6939   24.7090 N   0  0  0  0  0  0  0  0  0  0  0  0
   12.9699  -17.7209   24.8775 C   0  0  1  0  0  0  0  0  0  0  0  0
   14.3507  -17.1839   24.5562 C   0  0  0  0  0  0  0  0  0  0  0  0
   14.3554  -16.4294   23.2440 C   0  0  0  0  0  0  0  0  0  0  0  0
   15.7381  -15.9779   22.9741 C   0  0  0  0  0  0  0  0  0  0  0  0
   16.2011  -15.9816   21.8113 O   0  0  0  0  0  0  0  0  0  0  0  0
   12.9136  -18.2280   26.2790 C   0  0  0  0  0  0  0  0  0  0  0  0
   13.5972  -19.3563   26.7006 O   0  0  0  0  0  0  0  0  0  0  0  0
   16.5901  -15.5301   23.9830 O   0  0  0  0  0  0  0  0  0  0  0  0
   12.2189  -17.6104   27.1163 O   0  0  0  0  0  0  0  0  0  0  0  0
  1  2  1  0
  3  2  1  0
  4  3  1  0
  5  4  1  0
  5  1  1  0
  5  6  1  1
  6  8  1  0
  7  6  2  0
  9  8  1  0
  9 10  1  1
 11 10  1  0
 11 19  1  0
 12 11  2  0
 13 12  1  0
 13 14  1  0
 14 15  1  0
 14 19  2  0
 15 16  2  0
 16 17  1  0
 18 17  2  0
 19 18  1  0
 20  9  1  0
 21 20  2  0
 22 20  1  0
 23 22  1  0
 23 24  1  1
 24 25  1  0
 25 26  1  0
 26 30  1  0
 27 26  2  0
 28 23  1  0
 29 28  1  0
 31 28  2  0
M  END
$$$$
