CCM.pdb
     RDKit          3D

 21 20  0  0  1  0  0  0  0  0999 V2000
   25.6968  -17.2198  -15.9881 N   0  0  0  0  0  0  0  0  0  0  0  0
   26.3564  -17.3272  -14.7024 C   0  0  1  0  0  0  0  0  0  0  0  0
   26.1873  -16.0374  -13.9674 C   0  0  0  0  0  0  0  0  0  0  0  0
   27.4394  -14.8732  -14.6184 S   0  0  0  0  0  0  0  0  0  0  0  0
   25.8897  -18.5116  -13.9504 C   0  0  0  0  0  0  0  0  0  0  0  0
   24.6609  -18.7819  -13.9535 O   0  0  0  0  0  0  0  0  0  0  0  0
   26.7484  -19.3539  -13.2301 N   0  0  0  0  0  0  0  0  0  0  0  0
   26.2197  -20.5409  -12.5407 C   0  0  1  0  0  0  0  0  0  0  0  0
   26.8790  -21.7714  -13.1569 C   0  0  0  0  0  0  0  0  0  0  0  0
   26.4365  -23.2475  -12.2485 S   0  0  0  0  0  0  0  0  0  0  0  0
   26.5378  -20.3851  -11.1137 C   0  0  0  0  0  0  0  0  0  0  0  0
   27.7032  -20.0385  -10.7405 O   0  0  0  0  0  0  0  0  0  0  0  0
   28.4202  -19.8980   -4.7423 C   0  0  0  0  0  0  0  0  0  0  0  0
   28.3899  -19.5360   -6.5085 S   0  0  0  0  0  0  0  0  0  0  0  0
   26.7138  -18.9750   -6.9360 C   0  0  0  0  0  0  0  0  0  0  0  0
   26.4421  -19.2171   -8.3991 C   0  0  0  0  0  0  0  0  0  0  0  0
   26.0320  -20.6388   -8.7011 C   0  0  2  0  0  0  0  0  0  0  0  0
   25.5749  -20.6082  -10.1146 N   0  0  0  0  0  0  0  0  0  0  0  0
   24.8915  -21.0277   -7.8351 C   0  0  0  0  0  0  0  0  0  0  0  0
   24.9999  -21.3830   -6.5073 O   0  0  0  0  0  0  0  0  0  0  0  0
   23.7096  -21.0453   -8.3271 O   0  0  0  0  0  0  0  0  0  0  0  0
  2  1  1  6
  3  2  1  0
  4  3  1  0
  5  2  1  0
  5  6  2  0
  7  5  1  0
  8  7  1  0
  8  9  1  6
 10  9  1  0
 11  8  1  0
 12 11  2  0
 13 14  1  0
 15 14  1  0
 16 15  1  0
 17 18  1  0
 17 16  1  1
 18 11  1  0
 19 17  1  0
 20 19  1  0
 21 19  2  0
M  END
$$$$
