CCM.pdb
     RDKit          3D

 21 20  0  0  1  0  0  0  0  0999 V2000
   26.3516  -17.0876  -16.1277 N   0  0  0  0  0  0  0  0  0  0  0  0
   26.9810  -18.1055  -15.3107 C   0  0  1  0  0  0  0  0  0  0  0  0
   28.3983  -17.7073  -15.0560 C   0  0  0  0  0  0  0  0  0  0  0  0
   29.4088  -18.3956  -16.4169 S   0  0  0  0  0  0  0  0  0  0  0  0
   26.2032  -18.3728  -14.0821 C   0  0  0  0  0  0  0  0  0  0  0  0
   25.7918  -17.3957  -13.4045 O   0  0  0  0  0  0  0  0  0  0  0  0
   25.8981  -19.6641  -13.6295 N   0  0  0  0  0  0  0  0  0  0  0  0
   25.0401  -19.8554  -12.4500 C   0  0  1  0  0  0  0  0  0  0  0  0
   23.8394  -20.6946  -12.8768 C   0  0  0  0  0  0  0  0  0  0  0  0
   22.8311  -21.1213  -11.4621 S   0  0  0  0  0  0  0  0  0  0  0  0
   25.8597  -20.5218  -11.4273 C   0  0  0  0  0  0  0  0  0  0  0  0
   26.4774  -21.6020  -11.6901 O   0  0  0  0  0  0  0  0  0  0  0  0
   27.5820  -18.0022   -5.8687 C   0  0  0  0  0  0  0  0  0  0  0  0
   28.2995  -19.6368   -5.6144 S   0  0  0  0  0  0  0  0  0  0  0  0
   27.5118  -20.7822   -6.7867 C   0  0  0  0  0  0  0  0  0  0  0  0
   27.1354  -20.0535   -8.0519 C   0  0  0  0  0  0  0  0  0  0  0  0
   26.3946  -20.9216   -9.0409 C   0  0  2  0  0  0  0  0  0  0  0  0
   25.9941  -19.9950  -10.1312 N   0  0  0  0  0  0  0  0  0  0  0  0
   25.1726  -21.4754   -8.4070 C   0  0  0  0  0  0  0  0  0  0  0  0
   25.1430  -22.5991   -7.6087 O   0  0  0  0  0  0  0  0  0  0  0  0
   24.0494  -20.8908   -8.5967 O   0  0  0  0  0  0  0  0  0  0  0  0
  2  1  1  1
  3  2  1  0
  4  3  1  0
  5  2  1  0
  5  6  2  0
  7  5  1  0
  8  7  1  0
  8  9  1  6
 10  9  1  0
 11  8  1  0
 12 11  2  0
 13 14  1  0
 15 14  1  0
 16 15  1  0
 17 18  1  0
 17 16  1  1
 18 11  1  0
 19 17  1  0
 20 19  1  0
 21 19  2  0
M  END
$$$$
