CCM.pdb
     RDKit          3D

 21 20  0  0  1  0  0  0  0  0999 V2000
   13.0532  -10.6076  -15.7281 N   0  0  0  0  0  0  0  0  0  0  0  0
   14.3749  -10.5849  -15.1346 C   0  0  1  0  0  0  0  0  0  0  0  0
   14.9496  -11.9629  -15.1906 C   0  0  0  0  0  0  0  0  0  0  0  0
   14.2026  -12.9189  -13.8213 S   0  0  0  0  0  0  0  0  0  0  0  0
   15.2312   -9.5523  -15.7564 C   0  0  0  0  0  0  0  0  0  0  0  0
   15.0854   -9.3060  -16.9816 O   0  0  0  0  0  0  0  0  0  0  0  0
   16.2025   -8.8294  -15.0495 N   0  0  0  0  0  0  0  0  0  0  0  0
   16.9761   -7.7722  -15.7187 C   0  0  1  0  0  0  0  0  0  0  0  0
   16.1960   -6.4675  -15.5863 C   0  0  0  0  0  0  0  0  0  0  0  0
   17.2086   -5.0737  -16.0678 S   0  0  0  0  0  0  0  0  0  0  0  0
   18.2873   -7.7157  -15.0560 C   0  0  0  0  0  0  0  0  0  0  0  0
   18.3783   -7.7566  -13.7881 O   0  0  0  0  0  0  0  0  0  0  0  0
   25.1768  -10.6202  -14.2457 C   0  0  0  0  0  0  0  0  0  0  0  0
   23.6391  -10.4891  -15.1783 S   0  0  0  0  0  0  0  0  0  0  0  0
   22.8496   -8.9116  -14.7367 C   0  0  0  0  0  0  0  0  0  0  0  0
   21.4966   -8.8058  -15.3935 C   0  0  0  0  0  0  0  0  0  0  0  0
   20.7589   -7.5376  -15.0358 C   0  0  2  0  0  0  0  0  0  0  0  0
   19.4815   -7.6178  -15.7905 N   0  0  0  0  0  0  0  0  0  0  0  0
   21.5253   -6.3591  -15.5110 C   0  0  0  0  0  0  0  0  0  0  0  0
   21.3130   -5.7176  -16.7128 O   0  0  0  0  0  0  0  0  0  0  0  0
   22.4576   -5.8808  -14.7753 O   0  0  0  0  0  0  0  0  0  0  0  0
  2  1  1  6
  3  2  1  0
  4  3  1  0
  5  2  1  0
  5  6  2  0
  7  5  1  0
  8  7  1  0
  8  9  1  1
 10  9  1  0
 11  8  1  0
 12 11  2  0
 13 14  1  0
 15 14  1  0
 16 15  1  0
 17 18  1  0
 17 16  1  6
 18 11  1  0
 19 17  1  0
 20 19  1  0
 21 19  2  0
M  END
$$$$
