CCM.pdb
     RDKit          3D

 21 20  0  0  1  0  0  0  0  0999 V2000
   21.8258  -13.0501  -19.3927 N   0  0  0  0  0  0  0  0  0  0  0  0
   20.8196  -12.0131  -19.2840 C   0  0  1  0  0  0  0  0  0  0  0  0
   19.5662  -12.6164  -18.7386 C   0  0  0  0  0  0  0  0  0  0  0  0
   18.7421  -13.4946  -20.1158 S   0  0  0  0  0  0  0  0  0  0  0  0
   21.3147  -10.8557  -18.5088 C   0  0  0  0  0  0  0  0  0  0  0  0
   22.1020  -11.0647  -17.5497 O   0  0  0  0  0  0  0  0  0  0  0  0
   20.9516   -9.5303  -18.7868 N   0  0  0  0  0  0  0  0  0  0  0  0
   21.4778   -8.4276  -17.9677 C   0  0  1  0  0  0  0  0  0  0  0  0
   21.5210   -7.1767  -18.8404 C   0  0  0  0  0  0  0  0  0  0  0  0
   21.9823   -5.7454  -17.8716 S   0  0  0  0  0  0  0  0  0  0  0  0
   20.5762   -8.2813  -16.8156 C   0  0  0  0  0  0  0  0  0  0  0  0
   19.3229   -8.4557  -16.9434 O   0  0  0  0  0  0  0  0  0  0  0  0
   17.7563   -9.1876  -10.3035 C   0  0  0  0  0  0  0  0  0  0  0  0
   18.6781   -9.4326  -11.8337 S   0  0  0  0  0  0  0  0  0  0  0  0
   19.9117   -8.1027  -11.9629 C   0  0  0  0  0  0  0  0  0  0  0  0
   20.7387   -8.2804  -13.2110 C   0  0  0  0  0  0  0  0  0  0  0  0
   20.0680   -7.7399  -14.4514 C   0  0  2  0  0  0  0  0  0  0  0  0
   21.0592   -7.9486  -15.5384 N   0  0  0  0  0  0  0  0  0  0  0  0
   19.8229   -6.2846  -14.2967 C   0  0  0  0  0  0  0  0  0  0  0  0
   18.6093   -5.7248  -13.9581 O   0  0  0  0  0  0  0  0  0  0  0  0
   20.7874   -5.4640  -14.4855 O   0  0  0  0  0  0  0  0  0  0  0  0
  2  1  1  1
  3  2  1  0
  4  3  1  0
  5  2  1  0
  5  6  2  0
  7  5  1  0
  8  7  1  0
  8  9  1  6
 10  9  1  0
 11  8  1  0
 12 11  2  0
 13 14  1  0
 15 14  1  0
 16 15  1  0
 17 18  1  0
 17 16  1  1
 18 11  1  0
 19 17  1  0
 20 19  1  0
 21 19  2  0
M  END
$$$$
