KEP.pdb
     RDKit          3D

 26 26  0  0  1  0  0  0  0  0999 V2000
    6.1261  -16.7012   20.4717 N   0  0  0  0  0  0  0  0  0  0  0  0
    7.1221  -15.8496   21.0481 C   0  0  1  0  0  0  0  0  0  0  0  0
    7.1905  -14.4958   20.4408 C   0  0  0  0  0  0  0  0  0  0  0  0
    7.3754  -14.5396   18.9636 C   0  0  0  0  0  0  0  0  0  0  0  0
    8.4504  -13.6807   18.4013 C   0  0  0  0  0  0  0  0  0  0  0  0
    8.5128  -13.7262   16.8903 C   0  0  0  0  0  0  0  0  0  0  0  0
    9.4681  -12.7580   16.4123 N   0  0  0  0  0  0  0  0  0  0  0  0
    6.9799  -15.8462   22.5148 C   0  0  0  0  0  0  0  0  0  0  0  0
    5.8519  -15.6220   23.0179 O   0  0  0  0  0  0  0  0  0  0  0  0
    8.0502  -16.0834   23.4172 N   0  0  0  0  0  0  0  0  0  0  0  0
    7.7774  -16.2357   24.8826 C   0  0  1  0  0  0  0  0  0  0  0  0
    7.6490  -17.7307   25.0197 C   0  0  0  0  0  0  0  0  0  0  0  0
    6.6180  -18.2615   25.9195 C   0  0  0  0  0  0  0  0  0  0  0  0
    6.8799  -19.7327   26.0797 C   0  0  0  0  0  0  0  0  0  0  0  0
    6.0150  -20.6111   25.8797 O   0  0  0  0  0  0  0  0  0  0  0  0
    8.8991  -15.6434   25.6284 C   0  0  0  0  0  0  0  0  0  0  0  0
   10.0930  -16.0081   25.2989 O   0  0  0  0  0  0  0  0  0  0  0  0
    8.1451  -20.1219   26.4681 O   0  0  0  0  0  0  0  0  0  0  0  0
    8.8081  -14.6983   26.6810 N   0  0  0  0  0  0  0  0  0  0  0  0
    7.5142  -14.1269   27.0794 C   0  0  0  0  0  0  0  0  0  0  0  0
    7.7526  -13.8684   28.5519 C   0  0  0  0  0  0  0  0  0  0  0  0
    9.1233  -13.1858   28.4544 C   0  0  0  0  0  0  0  0  0  0  0  0
    9.8401  -14.1877   27.5467 C   0  0  1  0  0  0  0  0  0  0  0  0
   10.2764  -15.2981   28.4783 C   0  0  0  0  0  0  0  0  0  0  0  0
   11.4424  -15.1005   29.1757 O   0  0  0  0  0  0  0  0  0  0  0  0
    9.6285  -16.3402   28.6186 O   0  0  0  0  0  0  0  0  0  0  0  0
  2  1  1  6
  3  2  1  0
  3  4  1  0
  4  5  1  0
  5  6  1  0
  6  7  1  0
  8  2  1  0
  8  9  2  0
 10  8  1  0
 11 16  1  0
 11 10  1  0
 11 12  1  6
 13 12  1  0
 13 14  1  0
 14 18  1  0
 15 14  2  0
 16 19  1  0
 17 16  2  0
 19 20  1  0
 19 23  1  0
 20 21  1  0
 21 22  1  0
 23 22  1  0
 24 25  1  0
 23 24  1  1
 26 24  2  0
M  END
$$$$
