KEP.pdb
     RDKit          3D

 26 26  0  0  1  0  0  0  0  0999 V2000
    6.6876  -16.6851   20.0526 N   0  0  0  0  0  0  0  0  0  0  0  0
    7.4208  -15.6813   20.7629 C   0  0  1  0  0  0  0  0  0  0  0  0
    7.0590  -14.2886   20.3945 C   0  0  0  0  0  0  0  0  0  0  0  0
    7.6496  -13.8687   19.0933 C   0  0  0  0  0  0  0  0  0  0  0  0
    8.1971  -12.4885   19.0250 C   0  0  0  0  0  0  0  0  0  0  0  0
    9.6204  -12.3925   19.5290 C   0  0  0  0  0  0  0  0  0  0  0  0
   10.0860  -11.0325   19.4191 N   0  0  0  0  0  0  0  0  0  0  0  0
    7.3615  -15.9574   22.2091 C   0  0  0  0  0  0  0  0  0  0  0  0
    6.2614  -16.2713   22.7258 O   0  0  0  0  0  0  0  0  0  0  0  0
    8.4835  -15.8922   23.0769 N   0  0  0  0  0  0  0  0  0  0  0  0
    8.3128  -16.1376   24.5451 C   0  0  1  0  0  0  0  0  0  0  0  0
    9.0356  -17.4473   24.7260 C   0  0  0  0  0  0  0  0  0  0  0  0
    8.4749  -18.6457   24.0906 C   0  0  0  0  0  0  0  0  0  0  0  0
    9.3650  -19.8010   24.4533 C   0  0  0  0  0  0  0  0  0  0  0  0
    9.6443  -20.1110   25.6304 O   0  0  0  0  0  0  0  0  0  0  0  0
    8.8999  -15.0044   25.2774 C   0  0  0  0  0  0  0  0  0  0  0  0
   10.1824  -14.8632   25.2287 O   0  0  0  0  0  0  0  0  0  0  0  0
    9.8958  -20.5513   23.4246 O   0  0  0  0  0  0  0  0  0  0  0  0
    8.1981  -14.0349   26.0369 N   0  0  0  0  0  0  0  0  0  0  0  0
    6.7358  -13.9169   25.9531 C   0  0  0  0  0  0  0  0  0  0  0  0
    6.4052  -13.4169   27.3433 C   0  0  0  0  0  0  0  0  0  0  0  0
    7.4609  -12.3090   27.4547 C   0  0  0  0  0  0  0  0  0  0  0  0
    8.6965  -13.0918   27.0051 C   0  0  1  0  0  0  0  0  0  0  0  0
    9.1304  -13.8555   28.2380 C   0  0  0  0  0  0  0  0  0  0  0  0
    9.8885  -13.1720   29.1562 O   0  0  0  0  0  0  0  0  0  0  0  0
    8.8273  -15.0377   28.4276 O   0  0  0  0  0  0  0  0  0  0  0  0
  2  1  1  6
  3  2  1  0
  3  4  1  0
  4  5  1  0
  5  6  1  0
  6  7  1  0
  8  2  1  0
  8  9  2  0
 10  8  1  0
 11 16  1  0
 11 10  1  0
 11 12  1  1
 13 12  1  0
 13 14  1  0
 14 18  1  0
 15 14  2  0
 16 19  1  0
 17 16  2  0
 19 20  1  0
 19 23  1  0
 20 21  1  0
 21 22  1  0
 23 22  1  0
 24 25  1  0
 23 24  1  1
 26 24  2  0
M  END
$$$$
