KEP.pdb
     RDKit          3D

 26 26  0  0  1  0  0  0  0  0999 V2000
    6.3170  -17.5712   20.4346 N   0  0  0  0  0  0  0  0  0  0  0  0
    6.7635  -16.3597   21.0532 C   0  0  1  0  0  0  0  0  0  0  0  0
    6.2335  -15.1235   20.4228 C   0  0  0  0  0  0  0  0  0  0  0  0
    6.9903  -14.7345   19.2004 C   0  0  0  0  0  0  0  0  0  0  0  0
    8.0420  -13.6979   19.3702 C   0  0  0  0  0  0  0  0  0  0  0  0
    8.7110  -13.3168   18.0678 C   0  0  0  0  0  0  0  0  0  0  0  0
    9.7697  -12.3717   18.3216 N   0  0  0  0  0  0  0  0  0  0  0  0
    6.5419  -16.4376   22.5079 C   0  0  0  0  0  0  0  0  0  0  0  0
    5.3933  -16.7069   22.9366 O   0  0  0  0  0  0  0  0  0  0  0  0
    7.5564  -16.2252   23.4784 N   0  0  0  0  0  0  0  0  0  0  0  0
    7.2010  -16.1476   24.9319 C   0  0  1  0  0  0  0  0  0  0  0  0
    7.1772  -17.6026   25.3228 C   0  0  0  0  0  0  0  0  0  0  0  0
    8.4471  -18.3383   25.3459 C   0  0  0  0  0  0  0  0  0  0  0  0
    8.4317  -19.2167   26.5653 C   0  0  0  0  0  0  0  0  0  0  0  0
    7.4720  -19.2697   27.3627 O   0  0  0  0  0  0  0  0  0  0  0  0
    8.2237  -15.3426   25.6184 C   0  0  0  0  0  0  0  0  0  0  0  0
    9.4343  -15.7917   25.6196 O   0  0  0  0  0  0  0  0  0  0  0  0
    9.5404  -20.0011   26.8066 O   0  0  0  0  0  0  0  0  0  0  0  0
    8.0204  -14.1074   26.2834 N   0  0  0  0  0  0  0  0  0  0  0  0
    6.7226  -13.4201   26.2295 C   0  0  0  0  0  0  0  0  0  0  0  0
    6.7184  -12.7038   27.5632 C   0  0  0  0  0  0  0  0  0  0  0  0
    8.1318  -12.1083   27.5175 C   0  0  0  0  0  0  0  0  0  0  0  0
    8.9200  -13.3592   27.1236 C   0  0  1  0  0  0  0  0  0  0  0  0
    9.1034  -14.1158   28.4218 C   0  0  0  0  0  0  0  0  0  0  0  0
    8.3101  -15.2198   28.6139 O   0  0  0  0  0  0  0  0  0  0  0  0
    9.9223  -13.7726   29.2804 O   0  0  0  0  0  0  0  0  0  0  0  0
  2  1  1  6
  3  2  1  0
  3  4  1  0
  4  5  1  0
  5  6  1  0
  6  7  1  0
  8  2  1  0
  8  9  2  0
 10  8  1  0
 11 16  1  0
 11 10  1  0
 11 12  1  1
 13 12  1  0
 13 14  1  0
 14 18  1  0
 15 14  2  0
 16 19  1  0
 17 16  2  0
 19 20  1  0
 19 23  1  0
 20 21  1  0
 21 22  1  0
 23 22  1  0
 24 25  1  0
 23 24  1  1
 26 24  2  0
M  END
$$$$
