KEP.pdb
     RDKit          3D

 26 26  0  0  1  0  0  0  0  0999 V2000
    8.6070  -15.3885   19.9428 N   0  0  0  0  0  0  0  0  0  0  0  0
    8.2044  -14.1342   20.5032 C   0  0  1  0  0  0  0  0  0  0  0  0
    7.2837  -13.3500   19.6408 C   0  0  0  0  0  0  0  0  0  0  0  0
    7.8539  -13.0799   18.2916 C   0  0  0  0  0  0  0  0  0  0  0  0
    7.9634  -14.2413   17.3704 C   0  0  0  0  0  0  0  0  0  0  0  0
    8.4686  -13.8594   15.9964 C   0  0  0  0  0  0  0  0  0  0  0  0
    8.5056  -15.0251   15.1489 N   0  0  0  0  0  0  0  0  0  0  0  0
    7.7136  -14.3421   21.8770 C   0  0  0  0  0  0  0  0  0  0  0  0
    7.1171  -13.4042   22.4603 O   0  0  0  0  0  0  0  0  0  0  0  0
    7.8709  -15.5528   22.6020 N   0  0  0  0  0  0  0  0  0  0  0  0
    7.3375  -15.6673   23.9975 C   0  0  1  0  0  0  0  0  0  0  0  0
    7.2300  -17.1607   24.1660 C   0  0  0  0  0  0  0  0  0  0  0  0
    6.8738  -17.6884   25.4886 C   0  0  0  0  0  0  0  0  0  0  0  0
    6.8964  -19.1880   25.3916 C   0  0  0  0  0  0  0  0  0  0  0  0
    7.9460  -19.8536   25.2697 O   0  0  0  0  0  0  0  0  0  0  0  0
    8.2848  -15.0113   24.9127 C   0  0  0  0  0  0  0  0  0  0  0  0
    9.4954  -15.4595   24.9395 O   0  0  0  0  0  0  0  0  0  0  0  0
    5.6892  -19.8537   25.4407 O   0  0  0  0  0  0  0  0  0  0  0  0
    8.0081  -13.9218   25.7762 N   0  0  0  0  0  0  0  0  0  0  0  0
    6.7256  -13.2073   25.7110 C   0  0  0  0  0  0  0  0  0  0  0  0
    6.5699  -12.7595   27.1488 C   0  0  0  0  0  0  0  0  0  0  0  0
    7.9798  -12.1989   27.3771 C   0  0  0  0  0  0  0  0  0  0  0  0
    8.8066  -13.3692   26.8402 C   0  0  1  0  0  0  0  0  0  0  0  0
    8.8398  -14.3641   27.9805 C   0  0  0  0  0  0  0  0  0  0  0  0
    9.8139  -14.1857   28.9315 O   0  0  0  0  0  0  0  0  0  0  0  0
    8.0378  -15.2991   28.0695 O   0  0  0  0  0  0  0  0  0  0  0  0
  2  1  1  6
  3  2  1  0
  3  4  1  0
  4  5  1  0
  5  6  1  0
  6  7  1  0
  8  2  1  0
  8  9  2  0
 10  8  1  0
 11 16  1  0
 11 10  1  0
 11 12  1  1
 13 12  1  0
 13 14  1  0
 14 18  1  0
 15 14  2  0
 16 19  1  0
 17 16  2  0
 19 20  1  0
 19 23  1  0
 20 21  1  0
 21 22  1  0
 23 22  1  0
 24 25  1  0
 23 24  1  1
 26 24  2  0
M  END
$$$$
