KEP.pdb
     RDKit          3D

 26 26  0  0  1  0  0  0  0  0999 V2000
    6.7079  -16.2225   19.6671 N   0  0  0  0  0  0  0  0  0  0  0  0
    7.3687  -15.2604   20.4962 C   0  0  1  0  0  0  0  0  0  0  0  0
    7.2627  -13.8616   20.0081 C   0  0  0  0  0  0  0  0  0  0  0  0
    8.3496  -13.5041   19.0546 C   0  0  0  0  0  0  0  0  0  0  0  0
    8.1087  -13.8187   17.6220 C   0  0  0  0  0  0  0  0  0  0  0  0
    9.2937  -13.4944   16.7390 C   0  0  0  0  0  0  0  0  0  0  0  0
    9.0256  -13.9191   15.3876 N   0  0  0  0  0  0  0  0  0  0  0  0
    6.9484  -15.4441   21.8965 C   0  0  0  0  0  0  0  0  0  0  0  0
    5.7233  -15.4472   22.1704 O   0  0  0  0  0  0  0  0  0  0  0  0
    7.8493  -15.6213   22.9796 N   0  0  0  0  0  0  0  0  0  0  0  0
    7.3267  -15.7512   24.3778 C   0  0  1  0  0  0  0  0  0  0  0  0
    7.4681  -17.2308   24.6248 C   0  0  0  0  0  0  0  0  0  0  0  0
    7.0999  -17.7547   25.9456 C   0  0  0  0  0  0  0  0  0  0  0  0
    7.3972  -19.2279   25.9401 C   0  0  0  0  0  0  0  0  0  0  0  0
    6.9935  -20.0076   25.0521 O   0  0  0  0  0  0  0  0  0  0  0  0
    8.1407  -14.8995   25.2595 C   0  0  0  0  0  0  0  0  0  0  0  0
    9.4212  -15.0620   25.2294 O   0  0  0  0  0  0  0  0  0  0  0  0
    8.1564  -19.7344   26.9745 O   0  0  0  0  0  0  0  0  0  0  0  0
    7.6632  -13.9026   26.1468 N   0  0  0  0  0  0  0  0  0  0  0  0
    6.2312  -13.5840   26.2322 C   0  0  0  0  0  0  0  0  0  0  0  0
    6.1172  -13.1467   27.6771 C   0  0  0  0  0  0  0  0  0  0  0  0
    7.3243  -12.2013   27.7352 C   0  0  0  0  0  0  0  0  0  0  0  0
    8.3851  -13.1077   27.1072 C   0  0  1  0  0  0  0  0  0  0  0  0
    8.8298  -14.0103   28.2382 C   0  0  0  0  0  0  0  0  0  0  0  0
    9.7831  -13.5119   29.0914 O   0  0  0  0  0  0  0  0  0  0  0  0
    8.3694  -15.1444   28.4029 O   0  0  0  0  0  0  0  0  0  0  0  0
  2  1  1  6
  3  2  1  0
  3  4  1  0
  4  5  1  0
  5  6  1  0
  6  7  1  0
  8  2  1  0
  8  9  2  0
 10  8  1  0
 11 16  1  0
 11 10  1  0
 11 12  1  1
 13 12  1  0
 13 14  1  0
 14 18  1  0
 15 14  2  0
 16 19  1  0
 17 16  2  0
 19 20  1  0
 19 23  1  0
 20 21  1  0
 21 22  1  0
 23 22  1  0
 24 25  1  0
 23 24  1  1
 26 24  2  0
M  END
$$$$
