KEP.pdb
     RDKit          3D

 26 26  0  0  1  0  0  0  0  0999 V2000
    6.0871  -15.5708   19.9149 N   0  0  0  0  0  0  0  0  0  0  0  0
    7.0973  -14.9143   20.6882 C   0  0  1  0  0  0  0  0  0  0  0  0
    7.2674  -13.4736   20.3695 C   0  0  0  0  0  0  0  0  0  0  0  0
    7.8260  -13.2508   19.0068 C   0  0  0  0  0  0  0  0  0  0  0  0
    9.1447  -13.8729   18.7179 C   0  0  0  0  0  0  0  0  0  0  0  0
    9.5694  -13.7127   17.2747 C   0  0  0  0  0  0  0  0  0  0  0  0
   10.9076  -14.2203   17.1009 N   0  0  0  0  0  0  0  0  0  0  0  0
    6.8834  -15.1943   22.1191 C   0  0  0  0  0  0  0  0  0  0  0  0
    5.7928  -14.8681   22.6482 O   0  0  0  0  0  0  0  0  0  0  0  0
    7.8431  -15.8195   22.9583 N   0  0  0  0  0  0  0  0  0  0  0  0
    7.5576  -16.0048   24.4175 C   0  0  1  0  0  0  0  0  0  0  0  0
    7.4321  -17.5028   24.5204 C   0  0  0  0  0  0  0  0  0  0  0  0
    7.1234  -18.0874   25.8309 C   0  0  0  0  0  0  0  0  0  0  0  0
    7.0999  -19.5803   25.6592 C   0  0  0  0  0  0  0  0  0  0  0  0
    8.1227  -20.2949   25.7127 O   0  0  0  0  0  0  0  0  0  0  0  0
    8.6709  -15.4263   25.1863 C   0  0  0  0  0  0  0  0  0  0  0  0
    9.8559  -15.8846   24.9564 O   0  0  0  0  0  0  0  0  0  0  0  0
    5.8798  -20.1821   25.4312 O   0  0  0  0  0  0  0  0  0  0  0  0
    8.5812  -14.4019   26.1619 N   0  0  0  0  0  0  0  0  0  0  0  0
    7.3082  -13.7192   26.4319 C   0  0  0  0  0  0  0  0  0  0  0  0
    7.4722  -13.3684   27.8955 C   0  0  0  0  0  0  0  0  0  0  0  0
    8.8907  -12.7861   27.8428 C   0  0  0  0  0  0  0  0  0  0  0  0
    9.5906  -13.8972   27.0573 C   0  0  1  0  0  0  0  0  0  0  0  0
    9.8892  -14.9618   28.0911 C   0  0  0  0  0  0  0  0  0  0  0  0
   11.0264  -14.7956   28.8421 O   0  0  0  0  0  0  0  0  0  0  0  0
    9.1573  -15.9411   28.2663 O   0  0  0  0  0  0  0  0  0  0  0  0
  2  1  1  6
  3  2  1  0
  3  4  1  0
  4  5  1  0
  5  6  1  0
  6  7  1  0
  8  2  1  0
  8  9  2  0
 10  8  1  0
 11 16  1  0
 11 10  1  0
 11 12  1  6
 13 12  1  0
 13 14  1  0
 14 18  1  0
 15 14  2  0
 16 19  1  0
 17 16  2  0
 19 20  1  0
 19 23  1  0
 20 21  1  0
 21 22  1  0
 23 22  1  0
 24 25  1  0
 23 24  1  1
 26 24  2  0
M  END
$$$$
