KEP.pdb
     RDKit          3D

 26 26  0  0  1  0  0  0  0  0999 V2000
    6.3181  -16.5638   19.9154 N   0  0  0  0  0  0  0  0  0  0  0  0
    7.2165  -15.7296   20.6547 C   0  0  1  0  0  0  0  0  0  0  0  0
    7.3613  -14.3563   20.1075 C   0  0  0  0  0  0  0  0  0  0  0  0
    7.6270  -14.3490   18.6420 C   0  0  0  0  0  0  0  0  0  0  0  0
    8.7712  -13.5220   18.1769 C   0  0  0  0  0  0  0  0  0  0  0  0
    9.5659  -14.1822   17.0716 C   0  0  0  0  0  0  0  0  0  0  0  0
    9.3319  -13.4956   15.8257 N   0  0  0  0  0  0  0  0  0  0  0  0
    6.8677  -15.7751   22.0856 C   0  0  0  0  0  0  0  0  0  0  0  0
    5.6732  -15.5975   22.4283 O   0  0  0  0  0  0  0  0  0  0  0  0
    7.8061  -16.0103   23.1250 N   0  0  0  0  0  0  0  0  0  0  0  0
    7.3654  -15.9767   24.5566 C   0  0  1  0  0  0  0  0  0  0  0  0
    7.5019  -17.4230   24.9565 C   0  0  0  0  0  0  0  0  0  0  0  0
    7.1630  -17.7996   26.3341 C   0  0  0  0  0  0  0  0  0  0  0  0
    7.4171  -19.2747   26.4687 C   0  0  0  0  0  0  0  0  0  0  0  0
    6.6567  -20.1490   26.0028 O   0  0  0  0  0  0  0  0  0  0  0  0
    8.2411  -15.0498   25.2911 C   0  0  0  0  0  0  0  0  0  0  0  0
    9.5110  -15.2818   25.2643 O   0  0  0  0  0  0  0  0  0  0  0  0
    8.5522  -19.6725   27.1441 O   0  0  0  0  0  0  0  0  0  0  0  0
    7.8346  -13.9109   26.0307 N   0  0  0  0  0  0  0  0  0  0  0  0
    6.4488  -13.4251   25.9772 C   0  0  0  0  0  0  0  0  0  0  0  0
    6.3018  -12.8163   27.3555 C   0  0  0  0  0  0  0  0  0  0  0  0
    7.6081  -12.0128   27.4010 C   0  0  0  0  0  0  0  0  0  0  0  0
    8.5880  -13.0987   26.9515 C   0  0  1  0  0  0  0  0  0  0  0  0
    8.8523  -13.9111   28.2010 C   0  0  0  0  0  0  0  0  0  0  0  0
    9.7990  -13.4250   29.0684 O   0  0  0  0  0  0  0  0  0  0  0  0
    8.2555  -14.9641   28.4471 O   0  0  0  0  0  0  0  0  0  0  0  0
  2  1  1  6
  3  2  1  0
  3  4  1  0
  4  5  1  0
  5  6  1  0
  6  7  1  0
  8  2  1  0
  8  9  2  0
 10  8  1  0
 11 16  1  0
 11 10  1  0
 11 12  1  1
 13 12  1  0
 13 14  1  0
 14 18  1  0
 15 14  2  0
 16 19  1  0
 17 16  2  0
 19 20  1  0
 19 23  1  0
 20 21  1  0
 21 22  1  0
 23 22  1  0
 24 25  1  0
 23 24  1  1
 26 24  2  0
M  END
$$$$
