KEP.pdb
     RDKit          3D

 26 26  0  0  1  0  0  0  0  0999 V2000
    7.0234  -16.5258   20.6408 N   0  0  0  0  0  0  0  0  0  0  0  0
    7.7650  -15.5763   21.4142 C   0  0  1  0  0  0  0  0  0  0  0  0
    7.1652  -14.2179   21.4479 C   0  0  0  0  0  0  0  0  0  0  0  0
    7.3309  -13.4868   20.1609 C   0  0  0  0  0  0  0  0  0  0  0  0
    8.7251  -13.1966   19.7348 C   0  0  0  0  0  0  0  0  0  0  0  0
    8.7958  -12.3841   18.4605 C   0  0  0  0  0  0  0  0  0  0  0  0
   10.1704  -12.0747   18.1550 N   0  0  0  0  0  0  0  0  0  0  0  0
    8.0540  -16.1412   22.7442 C   0  0  0  0  0  0  0  0  0  0  0  0
    7.1031  -16.5571   23.4502 O   0  0  0  0  0  0  0  0  0  0  0  0
    9.3584  -16.2505   23.2944 N   0  0  0  0  0  0  0  0  0  0  0  0
    9.5488  -16.8144   24.6695 C   0  0  1  0  0  0  0  0  0  0  0  0
   10.3340  -18.0683   24.3837 C   0  0  0  0  0  0  0  0  0  0  0  0
    9.6251  -19.2183   23.8099 C   0  0  0  0  0  0  0  0  0  0  0  0
   10.6319  -20.3200   23.6327 C   0  0  0  0  0  0  0  0  0  0  0  0
   11.6977  -20.1819   22.9967 O   0  0  0  0  0  0  0  0  0  0  0  0
   10.2577  -15.8173   25.4871 C   0  0  0  0  0  0  0  0  0  0  0  0
   11.5269  -15.6809   25.2934 O   0  0  0  0  0  0  0  0  0  0  0  0
   10.3541  -21.5433   24.2065 O   0  0  0  0  0  0  0  0  0  0  0  0
    9.6874  -14.9752   26.4745 N   0  0  0  0  0  0  0  0  0  0  0  0
    8.2365  -14.7506   26.5358 C   0  0  0  0  0  0  0  0  0  0  0  0
    8.0419  -14.5164   28.0188 C   0  0  0  0  0  0  0  0  0  0  0  0
    9.1862  -13.5218   28.2545 C   0  0  0  0  0  0  0  0  0  0  0  0
   10.3231  -14.2765   27.5621 C   0  0  1  0  0  0  0  0  0  0  0  0
   10.7791  -15.2954   28.5844 C   0  0  0  0  0  0  0  0  0  0  0  0
   11.6664  -14.8626   29.5386 O   0  0  0  0  0  0  0  0  0  0  0  0
   10.3837  -16.4655   28.5778 O   0  0  0  0  0  0  0  0  0  0  0  0
  2  1  1  1
  3  2  1  0
  3  4  1  0
  4  5  1  0
  5  6  1  0
  6  7  1  0
  8  2  1  0
  8  9  2  0
 10  8  1  0
 11 16  1  0
 11 10  1  0
 11 12  1  6
 13 12  1  0
 13 14  1  0
 14 18  1  0
 15 14  2  0
 16 19  1  0
 17 16  2  0
 19 20  1  0
 19 23  1  0
 20 21  1  0
 21 22  1  0
 23 22  1  0
 24 25  1  0
 23 24  1  1
 26 24  2  0
M  END
$$$$
