CFD.pdb
     RDKit          3D

 26 26  0  0  1  0  0  0  0  0999 V2000
   15.8450  -12.0909  -16.0621 N   0  0  0  0  0  0  0  0  0  0  0  0
   16.6699  -11.3363  -16.9800 C   0  0  1  0  0  0  0  0  0  0  0  0
   15.9043  -10.8449  -18.1687 C   0  0  0  0  0  0  0  0  0  0  0  0
   15.5106  -12.1704  -19.3381 S   0  0  0  0  0  0  0  0  0  0  0  0
   17.2763  -10.1470  -16.2908 C   0  0  0  0  0  0  0  0  0  0  0  0
   16.5385   -9.3433  -15.6529 O   0  0  0  0  0  0  0  0  0  0  0  0
   18.6726   -9.8942  -16.3366 N   0  0  0  0  0  0  0  0  0  0  0  0
   19.2029   -8.7008  -15.6858 C   0  0  1  0  0  0  0  0  0  0  0  0
   20.6658   -8.8268  -15.4315 C   0  0  0  0  0  0  0  0  0  0  0  0
   21.2629   -7.6202  -14.8465 C   0  0  0  0  0  0  0  0  0  0  0  0
   21.2850   -7.4220  -13.4610 C   0  0  0  0  0  0  0  0  0  0  0  0
   21.8510   -6.3146  -12.8833 C   0  0  0  0  0  0  0  0  0  0  0  0
   22.4269   -5.3426  -13.6573 C   0  0  0  0  0  0  0  0  0  0  0  0
   22.4220   -5.5068  -15.0147 C   0  0  0  0  0  0  0  0  0  0  0  0
   21.8525   -6.6218  -15.5874 C   0  0  0  0  0  0  0  0  0  0  0  0
   18.8783   -7.4838  -16.4527 C   0  0  0  0  0  0  0  0  0  0  0  0
   18.7828   -7.5577  -17.6898 O   0  0  0  0  0  0  0  0  0  0  0  0
   18.6654   -6.2176  -15.8477 N   0  0  0  0  0  0  0  0  0  0  0  0
   18.2830   -5.0521  -16.6527 C   0  0  1  0  0  0  0  0  0  0  0  0
   16.9966   -5.3605  -17.3976 C   0  0  0  0  0  0  0  0  0  0  0  0
   16.4515   -4.2113  -18.1151 C   0  0  0  0  0  0  0  0  0  0  0  0
   17.2144   -3.4398  -18.7484 O   0  0  0  0  0  0  0  0  0  0  0  0
   18.1961   -3.8461  -15.8176 C   0  0  0  0  0  0  0  0  0  0  0  0
   18.7682   -2.6418  -16.1983 O   0  0  0  0  0  0  0  0  0  0  0  0
   15.0891   -3.9594  -18.1049 O   0  0  0  0  0  0  0  0  0  0  0  0
   17.5836   -3.8735  -14.7071 O   0  0  0  0  0  0  0  0  0  0  0  0
  2  1  1  1
  3  2  1  0
  3  4  1  0
  5  7  1  0
  5  2  1  0
  6  5  2  0
  8  7  1  0
  9 10  1  0
  8  9  1  6
 10 11  2  0
 10 15  1  0
 11 12  1  0
 12 13  2  0
 14 13  1  0
 15 14  2  0
 16 17  2  0
 16  8  1  0
 18 16  1  0
 19 20  1  1
 19 18  1  0
 20 21  1  0
 21 25  1  0
 21 22  2  0
 23 19  1  0
 24 23  1  0
 26 23  2  0
M  END
$$$$
