CFD.pdb
     RDKit          3D

 26 26  0  0  1  0  0  0  0  0999 V2000
   27.2446  -21.6853  -14.3951 N   0  0  0  0  0  0  0  0  0  0  0  0
   27.7777  -20.7596  -13.4198 C   0  0  1  0  0  0  0  0  0  0  0  0
   27.3757  -19.3437  -13.6926 C   0  0  0  0  0  0  0  0  0  0  0  0
   28.0406  -18.7219  -15.2580 S   0  0  0  0  0  0  0  0  0  0  0  0
   27.3103  -21.1198  -12.0381 C   0  0  0  0  0  0  0  0  0  0  0  0
   26.2209  -21.7411  -11.8824 O   0  0  0  0  0  0  0  0  0  0  0  0
   28.0654  -20.7769  -10.8858 N   0  0  0  0  0  0  0  0  0  0  0  0
   27.4053  -20.7425   -9.5850 C   0  0  1  0  0  0  0  0  0  0  0  0
   28.3056  -20.1886   -8.5347 C   0  0  0  0  0  0  0  0  0  0  0  0
   27.6855  -20.1299   -7.2055 C   0  0  0  0  0  0  0  0  0  0  0  0
   26.5070  -20.8309   -6.9247 C   0  0  0  0  0  0  0  0  0  0  0  0
   25.9135  -20.8107   -5.6886 C   0  0  0  0  0  0  0  0  0  0  0  0
   26.4639  -20.0887   -4.6633 C   0  0  0  0  0  0  0  0  0  0  0  0
   27.6159  -19.3930   -4.9054 C   0  0  0  0  0  0  0  0  0  0  0  0
   28.2064  -19.4188   -6.1489 C   0  0  0  0  0  0  0  0  0  0  0  0
   26.1241  -20.0157   -9.6539 C   0  0  0  0  0  0  0  0  0  0  0  0
   26.1044  -18.8725  -10.1414 O   0  0  0  0  0  0  0  0  0  0  0  0
   24.8972  -20.5574   -9.1891 N   0  0  0  0  0  0  0  0  0  0  0  0
   23.6180  -20.1334   -9.7692 C   0  0  1  0  0  0  0  0  0  0  0  0
   23.6107  -20.4576  -11.2522 C   0  0  0  0  0  0  0  0  0  0  0  0
   22.3555  -20.1146  -11.9153 C   0  0  0  0  0  0  0  0  0  0  0  0
   21.4630  -19.4845  -11.2951 O   0  0  0  0  0  0  0  0  0  0  0  0
   22.4903  -20.7284   -9.0387 C   0  0  0  0  0  0  0  0  0  0  0  0
   22.6761  -21.5803   -7.9606 O   0  0  0  0  0  0  0  0  0  0  0  0
   22.1354  -20.4801  -13.2335 O   0  0  0  0  0  0  0  0  0  0  0  0
   21.2951  -20.4736   -9.3791 O   0  0  0  0  0  0  0  0  0  0  0  0
  2  1  1  6
  3  2  1  0
  3  4  1  0
  5  7  1  0
  5  2  1  0
  6  5  2  0
  8  7  1  0
  9 10  1  0
  8  9  1  1
 10 11  2  0
 10 15  1  0
 11 12  1  0
 12 13  2  0
 14 13  1  0
 15 14  2  0
 16 17  2  0
 16  8  1  0
 18 16  1  0
 19 20  1  6
 19 18  1  0
 20 21  1  0
 21 25  1  0
 21 22  2  0
 23 19  1  0
 24 23  1  0
 26 23  2  0
M  END
$$$$
