CFD.pdb
     RDKit          3D

 26 26  0  0  1  0  0  0  0  0999 V2000
   26.0145  -22.9782  -17.8154 N   0  0  0  0  0  0  0  0  0  0  0  0
   25.2339  -21.8446  -17.3704 C   0  0  1  0  0  0  0  0  0  0  0  0
   23.9645  -21.6816  -18.1467 C   0  0  0  0  0  0  0  0  0  0  0  0
   22.9960  -20.2515  -17.6024 S   0  0  0  0  0  0  0  0  0  0  0  0
   24.8781  -21.9852  -15.9175 C   0  0  0  0  0  0  0  0  0  0  0  0
   24.2881  -23.0259  -15.5101 O   0  0  0  0  0  0  0  0  0  0  0  0
   25.1874  -20.9690  -14.9755 N   0  0  0  0  0  0  0  0  0  0  0  0
   24.7298  -21.1112  -13.5973 C   0  0  1  0  0  0  0  0  0  0  0  0
   25.6153  -20.3727  -12.6532 C   0  0  0  0  0  0  0  0  0  0  0  0
   25.2190  -20.5165  -11.2472 C   0  0  0  0  0  0  0  0  0  0  0  0
   25.9631  -21.3053  -10.3622 C   0  0  0  0  0  0  0  0  0  0  0  0
   25.6291  -21.4451   -9.0395 C   0  0  0  0  0  0  0  0  0  0  0  0
   24.5328  -20.8047   -8.5265 C   0  0  0  0  0  0  0  0  0  0  0  0
   23.7850  -20.0258   -9.3654 C   0  0  0  0  0  0  0  0  0  0  0  0
   24.1271  -19.8896  -10.6921 C   0  0  0  0  0  0  0  0  0  0  0  0
   23.3176  -20.7105  -13.4580 C   0  0  0  0  0  0  0  0  0  0  0  0
   22.9658  -19.5892  -13.8629 O   0  0  0  0  0  0  0  0  0  0  0  0
   22.3260  -21.5460  -12.8808 N   0  0  0  0  0  0  0  0  0  0  0  0
   20.9495  -21.0702  -12.7028 C   0  0  1  0  0  0  0  0  0  0  0  0
   20.2249  -21.1287  -14.0355 C   0  0  0  0  0  0  0  0  0  0  0  0
   18.8132  -20.7662  -13.9452 C   0  0  0  0  0  0  0  0  0  0  0  0
   17.9299  -21.5455  -14.3821 O   0  0  0  0  0  0  0  0  0  0  0  0
   20.2702  -21.8221  -11.6385 C   0  0  0  0  0  0  0  0  0  0  0  0
   20.8989  -22.8393  -10.9366 O   0  0  0  0  0  0  0  0  0  0  0  0
   18.4330  -19.5606  -13.3781 O   0  0  0  0  0  0  0  0  0  0  0  0
   19.0699  -21.5558  -11.3262 O   0  0  0  0  0  0  0  0  0  0  0  0
  2  1  1  6
  3  2  1  0
  3  4  1  0
  5  7  1  0
  5  2  1  0
  6  5  2  0
  8  7  1  0
  9 10  1  0
  8  9  1  1
 10 11  2  0
 10 15  1  0
 11 12  1  0
 12 13  2  0
 14 13  1  0
 15 14  2  0
 16 17  2  0
 16  8  1  0
 18 16  1  0
 19 20  1  6
 19 18  1  0
 20 21  1  0
 21 25  1  0
 21 22  2  0
 23 19  1  0
 24 23  1  0
 26 23  2  0
M  END
$$$$
