CFD.pdb
     RDKit          3D

 26 26  0  0  1  0  0  0  0  0999 V2000
   18.7096  -12.7865  -18.9020 N   0  0  0  0  0  0  0  0  0  0  0  0
   18.7844  -11.3775  -19.2206 C   0  0  1  0  0  0  0  0  0  0  0  0
   17.5786  -10.8920  -19.9628 C   0  0  0  0  0  0  0  0  0  0  0  0
   17.5064  -11.5219  -21.6591 S   0  0  0  0  0  0  0  0  0  0  0  0
   18.9232  -10.5588  -17.9685 C   0  0  0  0  0  0  0  0  0  0  0  0
   18.0996  -10.7091  -17.0218 O   0  0  0  0  0  0  0  0  0  0  0  0
   19.9652   -9.6067  -17.8154 N   0  0  0  0  0  0  0  0  0  0  0  0
   20.0094   -8.7857  -16.6100 C   0  0  1  0  0  0  0  0  0  0  0  0
   21.3947   -8.6911  -16.0691 C   0  0  0  0  0  0  0  0  0  0  0  0
   21.5067   -7.8084  -14.9017 C   0  0  0  0  0  0  0  0  0  0  0  0
   21.8818   -6.4672  -15.0413 C   0  0  0  0  0  0  0  0  0  0  0  0
   21.9779   -5.6131  -13.9727 C   0  0  0  0  0  0  0  0  0  0  0  0
   21.7047   -6.0510  -12.7042 C   0  0  0  0  0  0  0  0  0  0  0  0
   21.3350   -7.3564  -12.5343 C   0  0  0  0  0  0  0  0  0  0  0  0
   21.2399   -8.2077  -13.6122 C   0  0  0  0  0  0  0  0  0  0  0  0
   19.4164   -7.4563  -16.8457 C   0  0  0  0  0  0  0  0  0  0  0  0
   19.7214   -6.8339  -17.8775 O   0  0  0  0  0  0  0  0  0  0  0  0
   18.5047   -6.8417  -15.9481 N   0  0  0  0  0  0  0  0  0  0  0  0
   18.0599   -5.4588  -16.1545 C   0  0  1  0  0  0  0  0  0  0  0  0
   16.5444   -5.4295  -16.2390 C   0  0  0  0  0  0  0  0  0  0  0  0
   15.9985   -4.0859  -16.4107 C   0  0  0  0  0  0  0  0  0  0  0  0
   16.6386   -3.2200  -17.0579 O   0  0  0  0  0  0  0  0  0  0  0  0
   18.6011   -4.5749  -15.1128 C   0  0  0  0  0  0  0  0  0  0  0  0
   19.2197   -3.3712  -15.4143 O   0  0  0  0  0  0  0  0  0  0  0  0
   14.7708   -3.7518  -15.8623 O   0  0  0  0  0  0  0  0  0  0  0  0
   18.5146   -4.8935  -13.8880 O   0  0  0  0  0  0  0  0  0  0  0  0
  2  1  1  1
  3  2  1  0
  3  4  1  0
  5  7  1  0
  5  2  1  0
  6  5  2  0
  8  7  1  0
  9 10  1  0
  8  9  1  6
 10 11  2  0
 10 15  1  0
 11 12  1  0
 12 13  2  0
 14 13  1  0
 15 14  2  0
 16 17  2  0
 16  8  1  0
 18 16  1  0
 19 20  1  1
 19 18  1  0
 20 21  1  0
 21 25  1  0
 21 22  2  0
 23 19  1  0
 24 23  1  0
 26 23  2  0
M  END
$$$$
