CFD.pdb
     RDKit          3D

 26 26  0  0  1  0  0  0  0  0999 V2000
   28.9988  -23.3783  -17.3945 N   0  0  0  0  0  0  0  0  0  0  0  0
   28.3660  -22.0940  -17.1889 C   0  0  1  0  0  0  0  0  0  0  0  0
   27.5812  -21.6433  -18.3813 C   0  0  0  0  0  0  0  0  0  0  0  0
   27.0092  -19.9318  -18.2303 S   0  0  0  0  0  0  0  0  0  0  0  0
   27.4360  -22.1452  -16.0100 C   0  0  0  0  0  0  0  0  0  0  0  0
   26.7368  -23.1773  -15.8023 O   0  0  0  0  0  0  0  0  0  0  0  0
   27.3161  -21.0533  -15.1107 N   0  0  0  0  0  0  0  0  0  0  0  0
   26.3827  -21.1491  -13.9932 C   0  0  1  0  0  0  0  0  0  0  0  0
   26.8396  -20.3320  -12.8338 C   0  0  0  0  0  0  0  0  0  0  0  0
   25.9932  -20.4820  -11.6440 C   0  0  0  0  0  0  0  0  0  0  0  0
   26.4632  -21.1347  -10.4985 C   0  0  0  0  0  0  0  0  0  0  0  0
   25.7036  -21.2751   -9.3654 C   0  0  0  0  0  0  0  0  0  0  0  0
   24.4312  -20.7713   -9.3130 C   0  0  0  0  0  0  0  0  0  0  0  0
   23.9426  -20.1275  -10.4160 C   0  0  0  0  0  0  0  0  0  0  0  0
   24.7117  -19.9898  -11.5497 C   0  0  0  0  0  0  0  0  0  0  0  0
   25.0119  -20.7996  -14.4092 C   0  0  0  0  0  0  0  0  0  0  0  0
   24.8508  -19.9660  -15.3170 O   0  0  0  0  0  0  0  0  0  0  0  0
   23.8523  -21.3710  -13.8230 N   0  0  0  0  0  0  0  0  0  0  0  0
   22.5197  -21.1101  -14.3790 C   0  0  1  0  0  0  0  0  0  0  0  0
   22.4804  -21.5799  -15.8221 C   0  0  0  0  0  0  0  0  0  0  0  0
   21.1544  -21.4867  -16.4270 C   0  0  0  0  0  0  0  0  0  0  0  0
   20.4725  -20.4392  -16.3001 O   0  0  0  0  0  0  0  0  0  0  0  0
   21.4761  -21.7172  -13.5414 C   0  0  0  0  0  0  0  0  0  0  0  0
   20.2505  -21.1047  -13.3294 O   0  0  0  0  0  0  0  0  0  0  0  0
   20.6346  -22.5509  -17.1459 O   0  0  0  0  0  0  0  0  0  0  0  0
   21.6705  -22.8385  -12.9808 O   0  0  0  0  0  0  0  0  0  0  0  0
  2  1  1  6
  3  2  1  0
  3  4  1  0
  5  7  1  0
  5  2  1  0
  6  5  2  0
  8  7  1  0
  9 10  1  0
  8  9  1  1
 10 11  2  0
 10 15  1  0
 11 12  1  0
 12 13  2  0
 14 13  1  0
 15 14  2  0
 16 17  2  0
 16  8  1  0
 18 16  1  0
 19 20  1  6
 19 18  1  0
 20 21  1  0
 21 25  1  0
 21 22  2  0
 23 19  1  0
 24 23  1  0
 26 23  2  0
M  END
$$$$
