CFD.pdb
     RDKit          3D

 26 26  0  0  1  0  0  0  0  0999 V2000
   29.1728  -20.7431  -14.7565 N   0  0  0  0  0  0  0  0  0  0  0  0
   28.3611  -19.7746  -14.0526 C   0  0  1  0  0  0  0  0  0  0  0  0
   27.8310  -18.7051  -14.9559 C   0  0  0  0  0  0  0  0  0  0  0  0
   26.9403  -17.4120  -14.0538 S   0  0  0  0  0  0  0  0  0  0  0  0
   27.1928  -20.4464  -13.3886 C   0  0  0  0  0  0  0  0  0  0  0  0
   26.6709  -21.4701  -13.9148 O   0  0  0  0  0  0  0  0  0  0  0  0
   26.6486  -19.9581  -12.1717 N   0  0  0  0  0  0  0  0  0  0  0  0
   25.5895  -20.7132  -11.5104 C   0  0  1  0  0  0  0  0  0  0  0  0
   25.4597  -20.3241  -10.0778 C   0  0  0  0  0  0  0  0  0  0  0  0
   26.7108  -20.4555   -9.3214 C   0  0  0  0  0  0  0  0  0  0  0  0
   27.7479  -21.2791   -9.7744 C   0  0  0  0  0  0  0  0  0  0  0  0
   28.9349  -21.4089   -9.1002 C   0  0  0  0  0  0  0  0  0  0  0  0
   29.1527  -20.7231   -7.9350 C   0  0  0  0  0  0  0  0  0  0  0  0
   28.1590  -19.9094   -7.4659 C   0  0  0  0  0  0  0  0  0  0  0  0
   26.9702  -19.7836   -8.1489 C   0  0  0  0  0  0  0  0  0  0  0  0
   24.3110  -20.5887  -12.2346 C   0  0  0  0  0  0  0  0  0  0  0  0
   23.9860  -19.4826  -12.6993 O   0  0  0  0  0  0  0  0  0  0  0  0
   23.4212  -21.6766  -12.4332 N   0  0  0  0  0  0  0  0  0  0  0  0
   22.2082  -21.5201  -13.2438 C   0  0  1  0  0  0  0  0  0  0  0  0
   21.9381  -22.8129  -13.9924 C   0  0  0  0  0  0  0  0  0  0  0  0
   20.6781  -22.8040  -14.7305 C   0  0  0  0  0  0  0  0  0  0  0  0
   19.9295  -21.7957  -14.6937 O   0  0  0  0  0  0  0  0  0  0  0  0
   21.0777  -21.0823  -12.4134 C   0  0  0  0  0  0  0  0  0  0  0  0
   19.8859  -20.6369  -12.9644 O   0  0  0  0  0  0  0  0  0  0  0  0
   20.2947  -23.9058  -15.4780 O   0  0  0  0  0  0  0  0  0  0  0  0
   21.1618  -21.1016  -11.1478 O   0  0  0  0  0  0  0  0  0  0  0  0
  2  1  1  6
  3  2  1  0
  3  4  1  0
  5  7  1  0
  5  2  1  0
  6  5  2  0
  8  7  1  0
  9 10  1  0
  8  9  1  1
 10 11  2  0
 10 15  1  0
 11 12  1  0
 12 13  2  0
 14 13  1  0
 15 14  2  0
 16 17  2  0
 16  8  1  0
 18 16  1  0
 19 20  1  1
 19 18  1  0
 20 21  1  0
 21 25  1  0
 21 22  2  0
 23 19  1  0
 24 23  1  0
 26 23  2  0
M  END
$$$$
