CFD.pdb
     RDKit          3D

 26 26  0  0  1  0  0  0  0  0999 V2000
   28.2741  -19.5694  -16.8030 N   0  0  0  0  0  0  0  0  0  0  0  0
   27.1693  -18.8948  -16.1575 C   0  0  1  0  0  0  0  0  0  0  0  0
   26.1259  -18.4418  -17.1305 C   0  0  0  0  0  0  0  0  0  0  0  0
   26.6423  -16.9856  -18.0752 S   0  0  0  0  0  0  0  0  0  0  0  0
   26.5111  -19.7988  -15.1541 C   0  0  0  0  0  0  0  0  0  0  0  0
   26.4677  -21.0449  -15.3604 O   0  0  0  0  0  0  0  0  0  0  0  0
   25.9266  -19.2881  -13.9653 N   0  0  0  0  0  0  0  0  0  0  0  0
   25.3148  -20.2132  -13.0172 C   0  0  1  0  0  0  0  0  0  0  0  0
   25.9276  -20.0871  -11.6647 C   0  0  0  0  0  0  0  0  0  0  0  0
   27.3504  -20.4469  -11.6324 C   0  0  0  0  0  0  0  0  0  0  0  0
   28.3270  -19.5851  -12.1447 C   0  0  0  0  0  0  0  0  0  0  0  0
   29.6649  -19.8844  -12.1129 C   0  0  0  0  0  0  0  0  0  0  0  0
   30.1025  -21.0619  -11.5675 C   0  0  0  0  0  0  0  0  0  0  0  0
   29.1730  -21.9256  -11.0579 C   0  0  0  0  0  0  0  0  0  0  0  0
   27.8314  -21.6177  -11.0926 C   0  0  0  0  0  0  0  0  0  0  0  0
   23.8500  -20.0482  -12.9775 C   0  0  0  0  0  0  0  0  0  0  0  0
   23.3734  -18.9020  -12.9134 O   0  0  0  0  0  0  0  0  0  0  0  0
   22.9438  -21.1401  -13.0099 N   0  0  0  0  0  0  0  0  0  0  0  0
   21.5533  -20.9534  -13.4393 C   0  0  1  0  0  0  0  0  0  0  0  0
   21.5367  -20.2541  -14.7867 C   0  0  0  0  0  0  0  0  0  0  0  0
   20.5157  -19.2151  -14.8890 C   0  0  0  0  0  0  0  0  0  0  0  0
   19.7833  -18.9475  -13.9039 O   0  0  0  0  0  0  0  0  0  0  0  0
   20.8303  -22.2328  -13.4396 C   0  0  0  0  0  0  0  0  0  0  0  0
   19.4653  -22.3093  -13.2087 O   0  0  0  0  0  0  0  0  0  0  0  0
   20.3433  -18.5145  -16.0718 O   0  0  0  0  0  0  0  0  0  0  0  0
   21.4453  -23.3209  -13.6563 O   0  0  0  0  0  0  0  0  0  0  0  0
  2  1  1  6
  3  2  1  0
  3  4  1  0
  5  7  1  0
  5  2  1  0
  6  5  2  0
  8  7  1  0
  9 10  1  0
  8  9  1  1
 10 11  2  0
 10 15  1  0
 11 12  1  0
 12 13  2  0
 14 13  1  0
 15 14  2  0
 16 17  2  0
 16  8  1  0
 18 16  1  0
 19 20  1  6
 19 18  1  0
 20 21  1  0
 21 25  1  0
 21 22  2  0
 23 19  1  0
 24 23  1  0
 26 23  2  0
M  END
$$$$
