DPL.pdb
     RDKit          3D

 24 24  0  0  1  0  0  0  0  0999 V2000
    8.1817  -19.1953   20.1550 N   0  0  0  0  0  0  0  0  0  0  0  0
    7.4130  -18.2110   20.9492 C   0  0  1  0  0  0  0  0  0  0  0  0
    6.8978  -18.8455   22.1969 C   0  0  0  0  0  0  0  0  0  0  0  0
    6.0587  -20.0266   21.9740 C   0  0  0  0  0  0  0  0  0  0  0  0
    6.1301  -21.0149   22.7319 O   0  0  0  0  0  0  0  0  0  0  0  0
    8.3896  -17.1193   21.1994 C   0  0  0  0  0  0  0  0  0  0  0  0
    9.6153  -17.4584   21.2768 O   0  0  0  0  0  0  0  0  0  0  0  0
    5.1454  -20.1162   20.9200 O   0  0  0  0  0  0  0  0  0  0  0  0
    8.0827  -15.7432   21.3586 N   0  0  0  0  0  0  0  0  0  0  0  0
    6.7389  -15.2571   21.4097 C   0  0  0  0  0  0  0  0  0  0  0  0
    6.7913  -13.7909   21.2242 C   0  0  0  0  0  0  0  0  0  0  0  0
    8.2123  -13.4809   20.9530 C   0  0  0  0  0  0  0  0  0  0  0  0
    9.0055  -14.6813   21.5112 C   0  0  1  0  0  0  0  0  0  0  0  0
    9.3864  -14.3942   22.9331 C   0  0  0  0  0  0  0  0  0  0  0  0
   10.1255  -13.4098   23.1708 O   0  0  0  0  0  0  0  0  0  0  0  0
    5.7373  -12.7738   26.7341 C   0  0  0  0  0  0  0  0  0  0  0  0
    7.1420  -13.3358   26.7085 C   0  0  2  0  0  0  0  0  0  0  0  0
    8.1423  -12.2677   27.0892 C   0  0  0  0  0  0  0  0  0  0  0  0
    7.4918  -13.8177   25.3157 C   0  0  0  0  0  0  0  0  0  0  0  0
    8.7264  -14.7106   25.3426 C   0  0  2  0  0  0  0  0  0  0  0  0
    8.9411  -15.1910   23.9950 N   0  0  0  0  0  0  0  0  0  0  0  0
    8.4041  -15.8760   26.2022 C   0  0  0  0  0  0  0  0  0  0  0  0
    7.6174  -16.7516   25.8217 O   0  0  0  0  0  0  0  0  0  0  0  0
    8.9974  -15.9874   27.4596 O   0  0  0  0  0  0  0  0  0  0  0  0
  2  1  1  6
  2  3  1  0
  2  6  1  0
  3  4  1  0
  4  5  2  0
  4  8  1  0
  6  7  2  0
  9 13  1  0
  9  6  1  0
 10  9  1  0
 11 10  1  0
 11 12  1  0
 12 13  1  0
 13 14  1  1
 14 21  1  0
 14 15  2  0
 17 16  1  6
 17 18  1  0
 19 17  1  0
 20 19  1  6
 20 22  1  0
 21 20  1  0
 22 23  2  0
 22 24  1  0
M  END
$$$$
