DPL.pdb
     RDKit          3D

 24 24  0  0  1  0  0  0  0  0999 V2000
    7.1862  -19.4797   20.9913 N   0  0  0  0  0  0  0  0  0  0  0  0
    6.6053  -18.2417   21.5572 C   0  0  1  0  0  0  0  0  0  0  0  0
    5.9266  -18.5365   22.8523 C   0  0  0  0  0  0  0  0  0  0  0  0
    6.7233  -19.3390   23.7850 C   0  0  0  0  0  0  0  0  0  0  0  0
    7.8627  -19.7399   23.4728 O   0  0  0  0  0  0  0  0  0  0  0  0
    7.7737  -17.3338   21.6940 C   0  0  0  0  0  0  0  0  0  0  0  0
    8.9201  -17.8863   21.7564 O   0  0  0  0  0  0  0  0  0  0  0  0
    6.2647  -19.6973   25.0555 O   0  0  0  0  0  0  0  0  0  0  0  0
    7.7285  -15.9172   21.7606 N   0  0  0  0  0  0  0  0  0  0  0  0
    6.4992  -15.1868   21.7486 C   0  0  0  0  0  0  0  0  0  0  0  0
    6.8282  -13.7713   21.4745 C   0  0  0  0  0  0  0  0  0  0  0  0
    8.2854  -13.7499   21.2199 C   0  0  0  0  0  0  0  0  0  0  0  0
    8.8321  -15.0383   21.8703 C   0  0  1  0  0  0  0  0  0  0  0  0
    9.2420  -14.7354   23.2808 C   0  0  0  0  0  0  0  0  0  0  0  0
   10.2981  -14.0880   23.4745 O   0  0  0  0  0  0  0  0  0  0  0  0
    8.3160  -11.8049   26.3343 C   0  0  0  0  0  0  0  0  0  0  0  0
    7.2535  -12.7130   25.7544 C   0  0  2  0  0  0  0  0  0  0  0  0
    5.8773  -12.2423   26.1677 C   0  0  0  0  0  0  0  0  0  0  0  0
    7.4297  -14.1266   26.2691 C   0  0  0  0  0  0  0  0  0  0  0  0
    8.7225  -14.7398   25.7449 C   0  0  2  0  0  0  0  0  0  0  0  0
    8.4814  -15.1534   24.3796 N   0  0  0  0  0  0  0  0  0  0  0  0
    8.9900  -15.9538   26.5546 C   0  0  0  0  0  0  0  0  0  0  0  0
    9.3226  -15.8679   27.7430 O   0  0  0  0  0  0  0  0  0  0  0  0
    8.8644  -17.2127   25.9674 O   0  0  0  0  0  0  0  0  0  0  0  0
  2  1  1  1
  2  3  1  0
  2  6  1  0
  3  4  1  0
  4  5  2  0
  4  8  1  0
  6  7  2  0
  9 13  1  0
  9  6  1  0
 10  9  1  0
 11 10  1  0
 11 12  1  0
 12 13  1  0
 13 14  1  1
 14 21  1  0
 14 15  2  0
 17 16  1  1
 17 18  1  0
 19 17  1  0
 20 19  1  1
 20 22  1  0
 21 20  1  0
 22 23  2  0
 22 24  1  0
M  END
$$$$
