DPL.pdb
     RDKit          3D

 24 24  0  0  1  0  0  0  0  0999 V2000
   11.5561  -15.7405   18.9014 N   0  0  0  0  0  0  0  0  0  0  0  0
   10.8962  -16.6803   19.8351 C   0  0  1  0  0  0  0  0  0  0  0  0
   11.9195  -17.4420   20.6081 C   0  0  0  0  0  0  0  0  0  0  0  0
   11.3670  -18.3178   21.6455 C   0  0  0  0  0  0  0  0  0  0  0  0
   10.6084  -19.2626   21.3484 O   0  0  0  0  0  0  0  0  0  0  0  0
   10.0485  -15.8006   20.6811 C   0  0  0  0  0  0  0  0  0  0  0  0
   10.6166  -14.7796   21.1892 O   0  0  0  0  0  0  0  0  0  0  0  0
   11.6501  -18.1514   23.0039 O   0  0  0  0  0  0  0  0  0  0  0  0
    8.6731  -15.9933   20.9720 N   0  0  0  0  0  0  0  0  0  0  0  0
    7.9210  -17.0857   20.4374 C   0  0  0  0  0  0  0  0  0  0  0  0
    6.4891  -16.7821   20.6479 C   0  0  0  0  0  0  0  0  0  0  0  0
    6.4580  -15.4192   21.2229 C   0  0  0  0  0  0  0  0  0  0  0  0
    7.8652  -15.1941   21.8151 C   0  0  1  0  0  0  0  0  0  0  0  0
    7.8623  -15.6212   23.2528 C   0  0  0  0  0  0  0  0  0  0  0  0
    8.2441  -16.7812   23.5365 O   0  0  0  0  0  0  0  0  0  0  0  0
    8.3841  -12.2949   26.6327 C   0  0  0  0  0  0  0  0  0  0  0  0
    7.0284  -12.6532   26.0640 C   0  0  2  0  0  0  0  0  0  0  0  0
    5.9632  -11.7420   26.6311 C   0  0  0  0  0  0  0  0  0  0  0  0
    6.6608  -14.0755   26.4331 C   0  0  0  0  0  0  0  0  0  0  0  0
    7.5385  -15.0751   25.6897 C   0  0  2  0  0  0  0  0  0  0  0  0
    7.4475  -14.7644   24.2796 N   0  0  0  0  0  0  0  0  0  0  0  0
    6.9487  -16.4192   25.9052 C   0  0  0  0  0  0  0  0  0  0  0  0
    6.0363  -16.8391   25.1831 O   0  0  0  0  0  0  0  0  0  0  0  0
    7.4304  -17.2234   26.9381 O   0  0  0  0  0  0  0  0  0  0  0  0
  2  1  1  6
  2  3  1  0
  2  6  1  0
  3  4  1  0
  4  5  2  0
  4  8  1  0
  6  7  2  0
  9 13  1  0
  9  6  1  0
 10  9  1  0
 11 10  1  0
 11 12  1  0
 12 13  1  0
 13 14  1  1
 14 21  1  0
 14 15  2  0
 17 16  1  1
 17 18  1  0
 19 17  1  0
 20 19  1  1
 20 22  1  0
 21 20  1  0
 22 23  2  0
 22 24  1  0
M  END
$$$$
