DPL.pdb
     RDKit          3D

 24 24  0  0  1  0  0  0  0  0999 V2000
   10.7187  -18.0263   20.9221 N   0  0  0  0  0  0  0  0  0  0  0  0
    9.3104  -17.5730   20.9614 C   0  0  1  0  0  0  0  0  0  0  0  0
    8.4217  -18.6899   21.3944 C   0  0  0  0  0  0  0  0  0  0  0  0
    8.3199  -19.7910   20.4322 C   0  0  0  0  0  0  0  0  0  0  0  0
    8.2100  -19.5652   19.2103 O   0  0  0  0  0  0  0  0  0  0  0  0
    9.3333  -16.4314   21.9124 C   0  0  0  0  0  0  0  0  0  0  0  0
   10.1986  -16.4852   22.8461 O   0  0  0  0  0  0  0  0  0  0  0  0
    8.3393  -21.1343   20.8169 O   0  0  0  0  0  0  0  0  0  0  0  0
    8.4849  -15.2947   21.8749 N   0  0  0  0  0  0  0  0  0  0  0  0
    7.4384  -15.1492   20.9114 C   0  0  0  0  0  0  0  0  0  0  0  0
    7.0083  -13.7346   20.9354 C   0  0  0  0  0  0  0  0  0  0  0  0
    7.9326  -13.0599   21.8731 C   0  0  0  0  0  0  0  0  0  0  0  0
    8.5142  -14.1860   22.7537 C   0  0  1  0  0  0  0  0  0  0  0  0
    7.6557  -14.3426   23.9735 C   0  0  0  0  0  0  0  0  0  0  0  0
    6.5522  -14.9270   23.8615 O   0  0  0  0  0  0  0  0  0  0  0  0
   10.1084  -13.8918   28.9611 C   0  0  0  0  0  0  0  0  0  0  0  0
    9.2934  -14.3355   27.7659 C   0  0  2  0  0  0  0  0  0  0  0  0
   10.1246  -14.2584   26.5051 C   0  0  0  0  0  0  0  0  0  0  0  0
    8.0928  -13.4306   27.5810 C   0  0  0  0  0  0  0  0  0  0  0  0
    7.2305  -13.9013   26.4161 C   0  0  2  0  0  0  0  0  0  0  0  0
    8.0517  -13.8570   25.2257 N   0  0  0  0  0  0  0  0  0  0  0  0
    6.1341  -12.9146   26.2574 C   0  0  0  0  0  0  0  0  0  0  0  0
    6.1976  -12.0217   25.4037 O   0  0  0  0  0  0  0  0  0  0  0  0
    5.0131  -12.9943   27.0836 O   0  0  0  0  0  0  0  0  0  0  0  0
  2  1  1  1
  2  3  1  0
  2  6  1  0
  3  4  1  0
  4  5  2  0
  4  8  1  0
  6  7  2  0
  9 13  1  0
  9  6  1  0
 10  9  1  0
 11 10  1  0
 11 12  1  0
 12 13  1  0
 13 14  1  1
 14 21  1  0
 14 15  2  0
 17 16  1  1
 17 18  1  0
 19 17  1  0
 20 19  1  1
 20 22  1  0
 21 20  1  0
 22 23  2  0
 22 24  1  0
M  END
$$$$
