DPL.pdb
     RDKit          3D

 24 24  0  0  1  0  0  0  0  0999 V2000
    9.8611  -18.6389   19.4123 N   0  0  0  0  0  0  0  0  0  0  0  0
   10.8322  -18.2118   20.4443 C   0  0  1  0  0  0  0  0  0  0  0  0
   12.2061  -18.1545   19.8664 C   0  0  0  0  0  0  0  0  0  0  0  0
   13.2491  -17.7679   20.8210 C   0  0  0  0  0  0  0  0  0  0  0  0
   13.1553  -18.0683   22.0282 O   0  0  0  0  0  0  0  0  0  0  0  0
   10.3195  -16.8887   20.8856 C   0  0  0  0  0  0  0  0  0  0  0  0
   11.1918  -15.9936   21.1329 O   0  0  0  0  0  0  0  0  0  0  0  0
   14.3897  -17.0532   20.4450 O   0  0  0  0  0  0  0  0  0  0  0  0
    8.9560  -16.5345   21.0551 N   0  0  0  0  0  0  0  0  0  0  0  0
    7.8844  -17.3986   20.6682 C   0  0  0  0  0  0  0  0  0  0  0  0
    6.6465  -16.5897   20.6545 C   0  0  0  0  0  0  0  0  0  0  0  0
    7.0805  -15.2045   20.9406 C   0  0  0  0  0  0  0  0  0  0  0  0
    8.4553  -15.3415   21.6283 C   0  0  1  0  0  0  0  0  0  0  0  0
    8.2525  -15.4079   23.1128 C   0  0  0  0  0  0  0  0  0  0  0  0
    8.5094  -16.4813   23.7076 O   0  0  0  0  0  0  0  0  0  0  0  0
    6.0236  -11.7105   27.5710 C   0  0  0  0  0  0  0  0  0  0  0  0
    6.9781  -12.8211   27.1900 C   0  0  2  0  0  0  0  0  0  0  0  0
    8.3734  -12.5061   27.6801 C   0  0  0  0  0  0  0  0  0  0  0  0
    7.0422  -12.9678   25.6837 C   0  0  0  0  0  0  0  0  0  0  0  0
    7.8081  -14.2253   25.2912 C   0  0  2  0  0  0  0  0  0  0  0  0
    7.7875  -14.3101   23.8471 N   0  0  0  0  0  0  0  0  0  0  0  0
    7.0541  -15.3828   25.8323 C   0  0  0  0  0  0  0  0  0  0  0  0
    6.0196  -15.7831   25.2847 O   0  0  0  0  0  0  0  0  0  0  0  0
    7.5186  -16.0310   26.9767 O   0  0  0  0  0  0  0  0  0  0  0  0
  2  1  1  6
  2  3  1  0
  2  6  1  0
  3  4  1  0
  4  5  2  0
  4  8  1  0
  6  7  2  0
  9 13  1  0
  9  6  1  0
 10  9  1  0
 11 10  1  0
 11 12  1  0
 12 13  1  0
 13 14  1  1
 14 21  1  0
 14 15  2  0
 17 16  1  6
 17 18  1  0
 19 17  1  0
 20 19  1  6
 20 22  1  0
 21 20  1  0
 22 23  2  0
 22 24  1  0
M  END
$$$$
