DPL.pdb
     RDKit          3D

 24 24  0  0  1  0  0  0  0  0999 V2000
   10.5388  -18.2119   19.5377 N   0  0  0  0  0  0  0  0  0  0  0  0
    9.1607  -17.8656   19.9513 C   0  0  1  0  0  0  0  0  0  0  0  0
    8.5219  -19.0257   20.6374 C   0  0  0  0  0  0  0  0  0  0  0  0
    8.4362  -20.2402   19.8212 C   0  0  0  0  0  0  0  0  0  0  0  0
    8.7347  -21.3540   20.2974 O   0  0  0  0  0  0  0  0  0  0  0  0
    9.3432  -16.6832   20.8326 C   0  0  0  0  0  0  0  0  0  0  0  0
   10.4655  -16.5841   21.4276 O   0  0  0  0  0  0  0  0  0  0  0  0
    8.0234  -20.2254   18.4861 O   0  0  0  0  0  0  0  0  0  0  0  0
    8.3875  -15.6615   21.0696 N   0  0  0  0  0  0  0  0  0  0  0  0
    7.0953  -15.6618   20.4572 C   0  0  0  0  0  0  0  0  0  0  0  0
    6.5200  -14.3115   20.6371 C   0  0  0  0  0  0  0  0  0  0  0  0
    7.5876  -13.5130   21.2787 C   0  0  0  0  0  0  0  0  0  0  0  0
    8.5356  -14.5447   21.9259 C   0  0  1  0  0  0  0  0  0  0  0  0
    8.0976  -14.7885   23.3395 C   0  0  0  0  0  0  0  0  0  0  0  0
    7.0644  -15.4698   23.5401 O   0  0  0  0  0  0  0  0  0  0  0  0
    5.7067  -11.7205   26.6290 C   0  0  0  0  0  0  0  0  0  0  0  0
    6.9884  -12.5094   26.7870 C   0  0  2  0  0  0  0  0  0  0  0  0
    8.1795  -11.6578   26.4095 C   0  0  0  0  0  0  0  0  0  0  0  0
    6.9796  -13.7180   25.8739 C   0  0  0  0  0  0  0  0  0  0  0  0
    8.3600  -14.3598   25.8070 C   0  0  2  0  0  0  0  0  0  0  0  0
    8.8075  -14.2791   24.4336 N   0  0  0  0  0  0  0  0  0  0  0  0
    8.1930  -15.7924   26.1546 C   0  0  0  0  0  0  0  0  0  0  0  0
    7.4102  -16.5148   25.5256 O   0  0  0  0  0  0  0  0  0  0  0  0
    8.9304  -16.3346   27.2072 O   0  0  0  0  0  0  0  0  0  0  0  0
  2  1  1  1
  2  3  1  0
  2  6  1  0
  3  4  1  0
  4  5  2  0
  4  8  1  0
  6  7  2  0
  9 13  1  0
  9  6  1  0
 10  9  1  0
 11 10  1  0
 11 12  1  0
 12 13  1  0
 13 14  1  1
 14 21  1  0
 14 15  2  0
 17 16  1  6
 17 18  1  0
 19 17  1  0
 20 19  1  6
 20 22  1  0
 21 20  1  0
 22 23  2  0
 22 24  1  0
M  END
$$$$
