EAA.pdb
     RDKit          3D

 20 19  0  0  1  0  0  0  0  0999 V2000
   21.4248  -10.5477  -15.4351 N   0  0  0  0  0  0  0  0  0  0  0  0
   20.6245   -9.5905  -16.1814 C   0  0  1  0  0  0  0  0  0  0  0  0
   19.3026  -10.1341  -16.5840 C   0  0  0  0  0  0  0  0  0  0  0  0
   19.4265  -11.3001  -17.5240 C   0  0  0  0  0  0  0  0  0  0  0  0
   18.9015  -12.5572  -16.9985 C   0  0  0  0  0  0  0  0  0  0  0  0
   18.4138  -12.7012  -15.8614 O   0  0  0  0  0  0  0  0  0  0  0  0
   20.4324   -8.4033  -15.2766 C   0  0  0  0  0  0  0  0  0  0  0  0
   19.7878   -8.4710  -14.1995 O   0  0  0  0  0  0  0  0  0  0  0  0
   18.9576  -13.6749  -17.8477 O   0  0  0  0  0  0  0  0  0  0  0  0
   22.2278   -5.9299  -13.9187 C   0  0  0  0  0  0  0  0  0  0  0  0
   20.9269   -6.0303  -14.6876 C   0  0  2  0  0  0  0  0  0  0  0  0
   20.9847   -7.1379  -15.6153 N   0  0  0  0  0  0  0  0  0  0  0  0
   20.5686   -4.7610  -15.3659 C   0  0  0  0  0  0  0  0  0  0  0  0
   21.1173   -4.3829  -16.4528 O   0  0  0  0  0  0  0  0  0  0  0  0
   17.8675   -2.1358  -14.9636 C   0  0  0  0  0  0  0  0  0  0  0  0
   19.1706   -2.6758  -15.5086 C   0  0  2  0  0  0  0  0  0  0  0  0
   19.5841   -3.8826  -14.8408 N   0  0  0  0  0  0  0  0  0  0  0  0
   20.2209   -1.6496  -15.3080 C   0  0  0  0  0  0  0  0  0  0  0  0
   20.2986   -0.5514  -16.1497 O   0  0  0  0  0  0  0  0  0  0  0  0
   21.0768   -1.7172  -14.3874 O   0  0  0  0  0  0  0  0  0  0  0  0
  2  1  1  1
  3  2  1  0
  4  5  1  0
  4  3  1  0
  5  6  2  0
  7  2  1  0
  8  7  2  0
  9  5  1  0
 11 10  1  6
 11 13  1  0
 11 12  1  0
 12  7  1  0
 13 17  1  0
 14 13  2  0
 16 18  1  0
 16 15  1  1
 17 16  1  0
 18 20  2  0
 18 19  1  0
M  END
$$$$
