EAA.pdb
     RDKit          3D

 20 19  0  0  1  0  0  0  0  0999 V2000
   16.9061  -10.9710  -17.7580 N   0  0  0  0  0  0  0  0  0  0  0  0
   17.4282  -10.7277  -16.4231 C   0  0  1  0  0  0  0  0  0  0  0  0
   18.5456  -11.6384  -16.0664 C   0  0  0  0  0  0  0  0  0  0  0  0
   18.1040  -13.0711  -15.9621 C   0  0  0  0  0  0  0  0  0  0  0  0
   19.1516  -13.9960  -15.5390 C   0  0  0  0  0  0  0  0  0  0  0  0
   20.1533  -14.2909  -16.2181 O   0  0  0  0  0  0  0  0  0  0  0  0
   17.9099   -9.3020  -16.4107 C   0  0  0  0  0  0  0  0  0  0  0  0
   18.5625   -8.8002  -17.3607 O   0  0  0  0  0  0  0  0  0  0  0  0
   19.0050  -14.5877  -14.2733 O   0  0  0  0  0  0  0  0  0  0  0  0
   17.2324   -6.2227  -14.4451 C   0  0  0  0  0  0  0  0  0  0  0  0
   18.1607   -7.1083  -15.2499 C   0  0  2  0  0  0  0  0  0  0  0  0
   17.6380   -8.4555  -15.3014 N   0  0  0  0  0  0  0  0  0  0  0  0
   19.5549   -7.0768  -14.7452 C   0  0  0  0  0  0  0  0  0  0  0  0
   19.9590   -7.8214  -13.7924 O   0  0  0  0  0  0  0  0  0  0  0  0
   22.7836   -5.3358  -15.7291 C   0  0  0  0  0  0  0  0  0  0  0  0
   21.8867   -6.1381  -14.8133 C   0  0  2  0  0  0  0  0  0  0  0  0
   20.5325   -6.2076  -15.2979 N   0  0  0  0  0  0  0  0  0  0  0  0
   21.8723   -5.4834  -13.4838 C   0  0  0  0  0  0  0  0  0  0  0  0
   22.9399   -5.6383  -12.6139 O   0  0  0  0  0  0  0  0  0  0  0  0
   20.9157   -4.7703  -13.0824 O   0  0  0  0  0  0  0  0  0  0  0  0
  2  1  1  6
  3  2  1  0
  4  5  1  0
  4  3  1  0
  5  6  2  0
  7  2  1  0
  8  7  2  0
  9  5  1  0
 11 10  1  1
 11 13  1  0
 11 12  1  0
 12  7  1  0
 13 17  1  0
 14 13  2  0
 16 18  1  0
 16 15  1  6
 17 16  1  0
 18 20  2  0
 18 19  1  0
M  END
$$$$
