EAA.pdb
     RDKit          3D

 20 19  0  0  1  0  0  0  0  0999 V2000
   17.3303  -10.9979  -16.9968 N   0  0  0  0  0  0  0  0  0  0  0  0
   18.6078  -10.8508  -16.3186 C   0  0  1  0  0  0  0  0  0  0  0  0
   19.7607  -10.8508  -17.2546 C   0  0  0  0  0  0  0  0  0  0  0  0
   19.9669  -12.1887  -17.9072 C   0  0  0  0  0  0  0  0  0  0  0  0
   21.0959  -12.2416  -18.8315 C   0  0  0  0  0  0  0  0  0  0  0  0
   21.1238  -11.6908  -19.9484 O   0  0  0  0  0  0  0  0  0  0  0  0
   18.5483   -9.5383  -15.5845 C   0  0  0  0  0  0  0  0  0  0  0  0
   18.1150   -8.4850  -16.1162 O   0  0  0  0  0  0  0  0  0  0  0  0
   22.2238  -12.9696  -18.4174 O   0  0  0  0  0  0  0  0  0  0  0  0
   19.0154   -8.4271  -12.0335 C   0  0  0  0  0  0  0  0  0  0  0  0
   18.9372   -8.1836  -13.5263 C   0  0  2  0  0  0  0  0  0  0  0  0
   18.9891   -9.4422  -14.2363 N   0  0  0  0  0  0  0  0  0  0  0  0
   19.9760   -7.2385  -14.0028 C   0  0  0  0  0  0  0  0  0  0  0  0
   21.0827   -7.6269  -14.5026 O   0  0  0  0  0  0  0  0  0  0  0  0
   20.2693   -3.4821  -14.4528 C   0  0  0  0  0  0  0  0  0  0  0  0
   20.8095   -4.8898  -14.3375 C   0  0  2  0  0  0  0  0  0  0  0  0
   19.7990   -5.8314  -13.9303 N   0  0  0  0  0  0  0  0  0  0  0  0
   21.8868   -4.8940  -13.3197 C   0  0  0  0  0  0  0  0  0  0  0  0
   23.1301   -4.3561  -13.6119 O   0  0  0  0  0  0  0  0  0  0  0  0
   21.7360   -5.3733  -12.1655 O   0  0  0  0  0  0  0  0  0  0  0  0
  2  1  1  6
  3  2  1  0
  4  5  1  0
  4  3  1  0
  5  6  2  0
  7  2  1  0
  8  7  2  0
  9  5  1  0
 11 10  1  1
 11 13  1  0
 11 12  1  0
 12  7  1  0
 13 17  1  0
 14 13  2  0
 16 18  1  0
 16 15  1  1
 17 16  1  0
 18 20  2  0
 18 19  1  0
M  END
$$$$
