EAA.pdb
     RDKit          3D

 20 19  0  0  1  0  0  0  0  0999 V2000
   19.0761  -11.9122  -17.3395 N   0  0  0  0  0  0  0  0  0  0  0  0
   20.1568  -10.9657  -17.5625 C   0  0  1  0  0  0  0  0  0  0  0  0
   20.0028  -10.2021  -18.8268 C   0  0  0  0  0  0  0  0  0  0  0  0
   20.2126  -11.0609  -20.0421 C   0  0  0  0  0  0  0  0  0  0  0  0
   21.6113  -11.2367  -20.4225 C   0  0  0  0  0  0  0  0  0  0  0  0
   21.9990  -11.8589  -21.4296 O   0  0  0  0  0  0  0  0  0  0  0  0
   20.1394  -10.0202  -16.3917 C   0  0  0  0  0  0  0  0  0  0  0  0
   19.0903   -9.4508  -15.9977 O   0  0  0  0  0  0  0  0  0  0  0  0
   22.5769  -10.6571  -19.5827 O   0  0  0  0  0  0  0  0  0  0  0  0
   22.3293   -9.3727  -13.4935 C   0  0  0  0  0  0  0  0  0  0  0  0
   21.3100   -8.8868  -14.5029 C   0  0  2  0  0  0  0  0  0  0  0  0
   21.3333   -9.7323  -15.6757 N   0  0  0  0  0  0  0  0  0  0  0  0
   21.4920   -7.4566  -14.8505 C   0  0  0  0  0  0  0  0  0  0  0  0
   22.3302   -7.0626  -15.7267 O   0  0  0  0  0  0  0  0  0  0  0  0
   19.7502   -4.1995  -13.9756 C   0  0  0  0  0  0  0  0  0  0  0  0
   20.8558   -5.0396  -14.5745 C   0  0  2  0  0  0  0  0  0  0  0  0
   20.7368   -6.4309  -14.2227 N   0  0  0  0  0  0  0  0  0  0  0  0
   22.1526   -4.5389  -14.0605 C   0  0  0  0  0  0  0  0  0  0  0  0
   22.8468   -3.5555  -14.7471 O   0  0  0  0  0  0  0  0  0  0  0  0
   22.6804   -4.9676  -13.0011 O   0  0  0  0  0  0  0  0  0  0  0  0
  2  1  1  1
  3  2  1  0
  4  5  1  0
  4  3  1  0
  5  6  2  0
  7  2  1  0
  8  7  2  0
  9  5  1  0
 11 10  1  1
 11 13  1  0
 11 12  1  0
 12  7  1  0
 13 17  1  0
 14 13  2  0
 16 18  1  0
 16 15  1  1
 17 16  1  0
 18 20  2  0
 18 19  1  0
M  END
$$$$
