EAA.pdb
     RDKit          3D

 20 19  0  0  1  0  0  0  0  0999 V2000
   27.9340  -21.2879  -15.5688 N   0  0  0  0  0  0  0  0  0  0  0  0
   27.5107  -20.3443  -14.5471 C   0  0  1  0  0  0  0  0  0  0  0  0
   27.0141  -19.0649  -15.1142 C   0  0  0  0  0  0  0  0  0  0  0  0
   28.1028  -18.2774  -15.7874 C   0  0  0  0  0  0  0  0  0  0  0  0
   27.9275  -18.1151  -17.2278 C   0  0  0  0  0  0  0  0  0  0  0  0
   26.9569  -18.5489  -17.8770 O   0  0  0  0  0  0  0  0  0  0  0  0
   26.4092  -21.0210  -13.7766 C   0  0  0  0  0  0  0  0  0  0  0  0
   25.5509  -21.7556  -14.3277 O   0  0  0  0  0  0  0  0  0  0  0  0
   28.9338  -17.4178  -17.9168 O   0  0  0  0  0  0  0  0  0  0  0  0
   25.2653  -20.9960  -10.1802 C   0  0  0  0  0  0  0  0  0  0  0  0
   25.1111  -21.2721  -11.6613 C   0  0  2  0  0  0  0  0  0  0  0  0
   26.2987  -20.8495  -12.3696 N   0  0  0  0  0  0  0  0  0  0  0  0
   23.8843  -20.6614  -12.2283 C   0  0  0  0  0  0  0  0  0  0  0  0
   23.7810  -19.4117  -12.4589 O   0  0  0  0  0  0  0  0  0  0  0  0
   21.0887  -21.6224  -14.3542 C   0  0  0  0  0  0  0  0  0  0  0  0
   21.5429  -20.8766  -13.1196 C   0  0  2  0  0  0  0  0  0  0  0  0
   22.7406  -21.4387  -12.5512 N   0  0  0  0  0  0  0  0  0  0  0  0
   20.4653  -20.9542  -12.1051 C   0  0  0  0  0  0  0  0  0  0  0  0
   20.6595  -21.6593  -10.9280 O   0  0  0  0  0  0  0  0  0  0  0  0
   19.3451  -20.3993  -12.2527 O   0  0  0  0  0  0  0  0  0  0  0  0
  2  1  1  6
  3  2  1  0
  4  5  1  0
  4  3  1  0
  5  6  2  0
  7  2  1  0
  8  7  2  0
  9  5  1  0
 11 10  1  1
 11 13  1  0
 11 12  1  0
 12  7  1  0
 13 17  1  0
 14 13  2  0
 16 18  1  0
 16 15  1  6
 17 16  1  0
 18 20  2  0
 18 19  1  0
M  END
$$$$
