EAA.pdb
     RDKit          3D

 20 19  0  0  1  0  0  0  0  0999 V2000
   19.3787  -13.0460  -17.0149 N   0  0  0  0  0  0  0  0  0  0  0  0
   19.2602  -11.6355  -17.3464 C   0  0  1  0  0  0  0  0  0  0  0  0
   17.8565  -11.1520  -17.3158 C   0  0  0  0  0  0  0  0  0  0  0  0
   17.7463   -9.6946  -17.6659 C   0  0  0  0  0  0  0  0  0  0  0  0
   16.3849   -9.1679  -17.6349 C   0  0  0  0  0  0  0  0  0  0  0  0
   15.3654   -9.8512  -17.4216 O   0  0  0  0  0  0  0  0  0  0  0  0
   20.0773  -10.8909  -16.3252 C   0  0  0  0  0  0  0  0  0  0  0  0
   19.7218  -10.7803  -15.1246 O   0  0  0  0  0  0  0  0  0  0  0  0
   16.2300   -7.7906  -17.8640 O   0  0  0  0  0  0  0  0  0  0  0  0
   23.5601   -9.6528  -16.0485 C   0  0  0  0  0  0  0  0  0  0  0  0
   22.0863   -9.5426  -15.7179 C   0  0  2  0  0  0  0  0  0  0  0  0
   21.3050  -10.2740  -16.6903 N   0  0  0  0  0  0  0  0  0  0  0  0
   21.6355   -8.1351  -15.5945 C   0  0  0  0  0  0  0  0  0  0  0  0
   21.1857   -7.4673  -16.5831 O   0  0  0  0  0  0  0  0  0  0  0  0
   20.9472   -5.7507  -12.7369 C   0  0  0  0  0  0  0  0  0  0  0  0
   21.1782   -6.1002  -14.1899 C   0  0  2  0  0  0  0  0  0  0  0  0
   21.6781   -7.4403  -14.3569 N   0  0  0  0  0  0  0  0  0  0  0  0
   22.1794   -5.1577  -14.7428 C   0  0  0  0  0  0  0  0  0  0  0  0
   21.8445   -3.8323  -14.9704 O   0  0  0  0  0  0  0  0  0  0  0  0
   23.3567   -5.4997  -15.0284 O   0  0  0  0  0  0  0  0  0  0  0  0
  2  1  1  1
  3  2  1  0
  4  5  1  0
  4  3  1  0
  5  6  2  0
  7  2  1  0
  8  7  2  0
  9  5  1  0
 11 10  1  6
 11 13  1  0
 11 12  1  0
 12  7  1  0
 13 17  1  0
 14 13  2  0
 16 18  1  0
 16 15  1  1
 17 16  1  0
 18 20  2  0
 18 19  1  0
M  END
$$$$
