EAA.pdb
     RDKit          3D

 20 19  0  0  1  0  0  0  0  0999 V2000
   22.5689  -20.7982  -17.0643 N   0  0  0  0  0  0  0  0  0  0  0  0
   23.1505  -20.9090  -15.7364 C   0  0  1  0  0  0  0  0  0  0  0  0
   22.1813  -20.5986  -14.6549 C   0  0  0  0  0  0  0  0  0  0  0  0
   21.7813  -19.1500  -14.6446 C   0  0  0  0  0  0  0  0  0  0  0  0
   20.4574  -18.8857  -15.2008 C   0  0  0  0  0  0  0  0  0  0  0  0
   19.4466  -19.5812  -14.9856 O   0  0  0  0  0  0  0  0  0  0  0  0
   23.6268  -22.3301  -15.6006 C   0  0  0  0  0  0  0  0  0  0  0  0
   23.0073  -23.3020  -16.1024 O   0  0  0  0  0  0  0  0  0  0  0  0
   20.3305  -17.7636  -16.0365 O   0  0  0  0  0  0  0  0  0  0  0  0
   26.7008  -24.0084  -14.2239 C   0  0  0  0  0  0  0  0  0  0  0  0
   25.2806  -23.9925  -14.7498 C   0  0  2  0  0  0  0  0  0  0  0  0
   24.8184  -22.6291  -14.8853 N   0  0  0  0  0  0  0  0  0  0  0  0
   24.3590  -24.8074  -13.9215 C   0  0  0  0  0  0  0  0  0  0  0  0
   23.6843  -24.3169  -12.9574 O   0  0  0  0  0  0  0  0  0  0  0  0
   23.3424  -28.4712  -13.7698 C   0  0  0  0  0  0  0  0  0  0  0  0
   23.3322  -27.0249  -13.3287 C   0  0  2  0  0  0  0  0  0  0  0  0
   24.1710  -26.1955  -14.1545 N   0  0  0  0  0  0  0  0  0  0  0  0
   23.8374  -26.9582  -11.9370 C   0  0  0  0  0  0  0  0  0  0  0  0
   22.9604  -27.0429  -10.8674 O   0  0  0  0  0  0  0  0  0  0  0  0
   25.0576  -26.8246  -11.6576 O   0  0  0  0  0  0  0  0  0  0  0  0
  2  1  1  6
  3  2  1  0
  4  5  1  0
  4  3  1  0
  5  6  2  0
  7  2  1  0
  8  7  2  0
  9  5  1  0
 11 10  1  1
 11 13  1  0
 11 12  1  0
 12  7  1  0
 13 17  1  0
 14 13  2  0
 16 18  1  0
 16 15  1  6
 17 16  1  0
 18 20  2  0
 18 19  1  0
M  END
$$$$
