EAA.pdb
     RDKit          3D

 20 19  0  0  1  0  0  0  0  0999 V2000
   24.1733  -19.2272  -17.3756 N   0  0  0  0  0  0  0  0  0  0  0  0
   23.5409  -19.3196  -16.0698 C   0  0  1  0  0  0  0  0  0  0  0  0
   22.0589  -19.2579  -16.1413 C   0  0  0  0  0  0  0  0  0  0  0  0
   21.5611  -17.8881  -16.5082 C   0  0  0  0  0  0  0  0  0  0  0  0
   21.3205  -17.0082  -15.3682 C   0  0  0  0  0  0  0  0  0  0  0  0
   20.9097  -17.3871  -14.2549 O   0  0  0  0  0  0  0  0  0  0  0  0
   23.9676  -20.6393  -15.4857 C   0  0  0  0  0  0  0  0  0  0  0  0
   23.7499  -21.7357  -16.0608 O   0  0  0  0  0  0  0  0  0  0  0  0
   21.5749  -15.6394  -15.5559 O   0  0  0  0  0  0  0  0  0  0  0  0
   25.7887  -21.7411  -12.3722 C   0  0  0  0  0  0  0  0  0  0  0  0
   24.9350  -21.9604  -13.6038 C   0  0  2  0  0  0  0  0  0  0  0  0
   24.6459  -20.6932  -14.2374 N   0  0  0  0  0  0  0  0  0  0  0  0
   23.6984  -22.7243  -13.3090 C   0  0  0  0  0  0  0  0  0  0  0  0
   22.6670  -22.1887  -12.7848 O   0  0  0  0  0  0  0  0  0  0  0  0
   21.4843  -25.0679  -14.4155 C   0  0  0  0  0  0  0  0  0  0  0  0
   22.4311  -24.8953  -13.2491 C   0  0  2  0  0  0  0  0  0  0  0  0
   23.5878  -24.1107  -13.5955 N   0  0  0  0  0  0  0  0  0  0  0  0
   22.8906  -26.2371  -12.8190 C   0  0  0  0  0  0  0  0  0  0  0  0
   21.9972  -27.1407  -12.2659 O   0  0  0  0  0  0  0  0  0  0  0  0
   24.0849  -26.6194  -12.9292 O   0  0  0  0  0  0  0  0  0  0  0  0
  2  1  1  6
  3  2  1  0
  4  5  1  0
  4  3  1  0
  5  6  2  0
  7  2  1  0
  8  7  2  0
  9  5  1  0
 11 10  1  1
 11 13  1  0
 11 12  1  0
 12  7  1  0
 13 17  1  0
 14 13  2  0
 16 18  1  0
 16 15  1  6
 17 16  1  0
 18 20  2  0
 18 19  1  0
M  END
$$$$
