QWS.pdb
     RDKit          3D

 30 31  0  0  1  0  0  0  0  0999 V2000
   28.4521  -19.8276  -18.6648 N   0  0  0  0  0  0  0  0  0  0  0  0
   27.6497  -20.9467  -18.3437 C   0  0  0  0  0  0  0  0  0  0  0  0
   26.4523  -21.0538  -18.7768 O   0  0  0  0  0  0  0  0  0  0  0  0
   28.2389  -22.0058  -17.4816 C   0  0  0  0  0  0  0  0  0  0  0  0
   27.4195  -22.1172  -16.2302 C   0  0  0  0  0  0  0  0  0  0  0  0
   27.6639  -20.9333  -15.3108 C   0  0  2  0  0  0  0  0  0  0  0  0
   29.0994  -20.8167  -15.1375 N   0  0  0  0  0  0  0  0  0  0  0  0
   26.9798  -21.2488  -14.0187 C   0  0  0  0  0  0  0  0  0  0  0  0
   25.8316  -21.7783  -14.1393 O   0  0  0  0  0  0  0  0  0  0  0  0
   27.5233  -20.9979  -12.7533 N   0  0  0  0  0  0  0  0  0  0  0  0
   26.7325  -21.1683  -11.5151 C   0  0  1  0  0  0  0  0  0  0  0  0
   27.5849  -20.9364  -10.3244 C   0  0  0  0  0  0  0  0  0  0  0  0
   26.9175  -20.6723   -9.0462 C   0  0  0  0  0  0  0  0  0  0  0  0
   25.5326  -20.7271   -8.8557 C   0  0  0  0  0  0  0  0  0  0  0  0
   25.2490  -20.4029   -7.5729 N   0  0  0  0  0  0  0  0  0  0  0  0
   26.3801  -20.1391   -6.9135 C   0  0  0  0  0  0  0  0  0  0  0  0
   26.6303  -19.7836   -5.6129 C   0  0  0  0  0  0  0  0  0  0  0  0
   27.9402  -19.5798   -5.1686 C   0  0  0  0  0  0  0  0  0  0  0  0
   28.9810  -19.7418   -6.0590 C   0  0  0  0  0  0  0  0  0  0  0  0
   28.7051  -20.0989   -7.3613 C   0  0  0  0  0  0  0  0  0  0  0  0
   27.4120  -20.3029   -7.8132 C   0  0  0  0  0  0  0  0  0  0  0  0
   25.4877  -20.4457  -11.6069 C   0  0  0  0  0  0  0  0  0  0  0  0
   25.4567  -19.1963  -11.6247 O   0  0  0  0  0  0  0  0  0  0  0  0
   22.3023  -22.1610  -13.2856 O   0  0  0  0  0  0  0  0  0  0  0  0
   22.4490  -20.7813  -13.2137 C   0  0  0  0  0  0  0  0  0  0  0  0
   23.0325  -20.3872  -11.8503 C   0  0  2  0  0  0  0  0  0  0  0  0
   24.2574  -21.1424  -11.6797 N   0  0  0  0  0  0  0  0  0  0  0  0
   22.0704  -20.6570  -10.7616 C   0  0  0  0  0  0  0  0  0  0  0  0
   22.2941  -21.4776   -9.8413 O   0  0  0  0  0  0  0  0  0  0  0  0
   20.8701  -19.9812  -10.7484 O   0  0  0  0  0  0  0  0  0  0  0  0
  2  4  1  0
  2  1  1  0
  3  2  2  0
  5  4  1  0
  6  5  1  0
  6  7  1  1
  8  9  2  0
  8  6  1  0
 10  8  1  0
 11 10  1  0
 11 12  1  1
 13 12  1  0
 13 21  1  0
 14 13  2  0
 15 14  1  0
 15 16  1  0
 16 17  1  0
 16 21  2  0
 17 18  2  0
 18 19  1  0
 20 19  2  0
 21 20  1  0
 22 23  2  0
 22 11  1  0
 24 25  1  0
 26 25  1  6
 26 27  1  0
 27 22  1  0
 28 26  1  0
 29 28  2  0
 30 28  1  0
M  END
$$$$
