QWS.pdb
     RDKit          3D

 30 31  0  0  1  0  0  0  0  0999 V2000
   16.7103  -22.9556    1.8868 N   0  0  0  0  0  0  0  0  0  0  0  0
   15.7249  -22.5202    0.9710 C   0  0  0  0  0  0  0  0  0  0  0  0
   15.0688  -23.3501    0.2544 O   0  0  0  0  0  0  0  0  0  0  0  0
   15.4684  -21.0594    0.8611 C   0  0  0  0  0  0  0  0  0  0  0  0
   16.2919  -20.3484    1.8939 C   0  0  0  0  0  0  0  0  0  0  0  0
   15.5605  -20.2813    3.2232 C   0  0  2  0  0  0  0  0  0  0  0  0
   14.2813  -19.6440    2.9749 N   0  0  0  0  0  0  0  0  0  0  0  0
   16.4132  -19.4606    4.1378 C   0  0  0  0  0  0  0  0  0  0  0  0
   17.6360  -19.8020    4.1751 O   0  0  0  0  0  0  0  0  0  0  0  0
   15.9442  -18.3918    4.9107 N   0  0  0  0  0  0  0  0  0  0  0  0
   16.8253  -17.6553    5.8427 C   0  0  1  0  0  0  0  0  0  0  0  0
   16.6499  -16.1933    5.6694 C   0  0  0  0  0  0  0  0  0  0  0  0
   17.2786  -15.5621    4.5054 C   0  0  0  0  0  0  0  0  0  0  0  0
   17.3366  -16.1399    3.2325 C   0  0  0  0  0  0  0  0  0  0  0  0
   18.0080  -15.3108    2.4001 N   0  0  0  0  0  0  0  0  0  0  0  0
   18.3921  -14.2180    3.0649 C   0  0  0  0  0  0  0  0  0  0  0  0
   19.0758  -13.0937    2.6785 C   0  0  0  0  0  0  0  0  0  0  0  0
   19.3364  -12.0682    3.5923 C   0  0  0  0  0  0  0  0  0  0  0  0
   18.8950  -12.2027    4.8921 C   0  0  0  0  0  0  0  0  0  0  0  0
   18.2105  -13.3418    5.2574 C   0  0  0  0  0  0  0  0  0  0  0  0
   17.9469  -14.3646    4.3616 C   0  0  0  0  0  0  0  0  0  0  0  0
   16.7168  -18.1964    7.1752 C   0  0  0  0  0  0  0  0  0  0  0  0
   15.6445  -18.1471    7.8156 O   0  0  0  0  0  0  0  0  0  0  0  0
   18.9466  -21.2340    8.5464 O   0  0  0  0  0  0  0  0  0  0  0  0
   17.7484  -20.8100    9.1072 C   0  0  0  0  0  0  0  0  0  0  0  0
   17.7085  -19.2769    9.1600 C   0  0  2  0  0  0  0  0  0  0  0  0
   17.8350  -18.8029    7.7965 N   0  0  0  0  0  0  0  0  0  0  0  0
   18.7841  -18.7460   10.0231 C   0  0  0  0  0  0  0  0  0  0  0  0
   19.7435  -18.0721    9.5808 O   0  0  0  0  0  0  0  0  0  0  0  0
   18.7397  -18.9977   11.3767 O   0  0  0  0  0  0  0  0  0  0  0  0
  2  4  1  0
  2  1  1  0
  3  2  2  0
  5  4  1  0
  6  5  1  0
  6  7  1  6
  8  9  2  0
  8  6  1  0
 10  8  1  0
 11 10  1  0
 11 12  1  1
 13 12  1  0
 13 21  1  0
 14 13  2  0
 15 14  1  0
 15 16  1  0
 16 17  1  0
 16 21  2  0
 17 18  2  0
 18 19  1  0
 20 19  2  0
 21 20  1  0
 22 23  2  0
 22 11  1  0
 24 25  1  0
 26 25  1  6
 26 27  1  0
 27 22  1  0
 28 26  1  0
 29 28  2  0
 30 28  1  0
M  END
$$$$
