QWS.pdb
     RDKit          3D

 30 31  0  0  1  0  0  0  0  0999 V2000
   18.6506  -30.1358  -13.3936 N   0  0  0  0  0  0  0  0  0  0  0  0
   19.0032  -30.5154  -14.7093 C   0  0  0  0  0  0  0  0  0  0  0  0
   18.1337  -30.5626  -15.6443 O   0  0  0  0  0  0  0  0  0  0  0  0
   20.4239  -30.8617  -14.9805 C   0  0  0  0  0  0  0  0  0  0  0  0
   21.2268  -30.6011  -13.7405 C   0  0  0  0  0  0  0  0  0  0  0  0
   22.1038  -31.7928  -13.3980 C   0  0  2  0  0  0  0  0  0  0  0  0
   21.6744  -32.8944  -14.2385 N   0  0  0  0  0  0  0  0  0  0  0  0
   21.8757  -32.0876  -11.9495 C   0  0  0  0  0  0  0  0  0  0  0  0
   21.0982  -33.0655  -11.7210 O   0  0  0  0  0  0  0  0  0  0  0  0
   22.4520  -31.3693  -10.8952 N   0  0  0  0  0  0  0  0  0  0  0  0
   22.3084  -31.7979   -9.4869 C   0  0  1  0  0  0  0  0  0  0  0  0
   23.3893  -31.2123   -8.6582 C   0  0  0  0  0  0  0  0  0  0  0  0
   24.6806  -31.9055   -8.6287 C   0  0  0  0  0  0  0  0  0  0  0  0
   25.4019  -32.2741   -9.7694 C   0  0  0  0  0  0  0  0  0  0  0  0
   26.5296  -32.9192   -9.3908 N   0  0  0  0  0  0  0  0  0  0  0  0
   26.5828  -32.9905   -8.0582 C   0  0  0  0  0  0  0  0  0  0  0  0
   27.5088  -33.5218   -7.1973 C   0  0  0  0  0  0  0  0  0  0  0  0
   27.3236  -33.4436   -5.8138 C   0  0  0  0  0  0  0  0  0  0  0  0
   26.1932  -32.8229   -5.3245 C   0  0  0  0  0  0  0  0  0  0  0  0
   25.2763  -32.2970   -6.2090 C   0  0  0  0  0  0  0  0  0  0  0  0
   25.4484  -32.3687   -7.5813 C   0  0  0  0  0  0  0  0  0  0  0  0
   20.9470  -31.6263   -9.0426 C   0  0  0  0  0  0  0  0  0  0  0  0
   20.2681  -30.6338   -9.3837 O   0  0  0  0  0  0  0  0  0  0  0  0
   19.1136  -34.0488   -6.0646 O   0  0  0  0  0  0  0  0  0  0  0  0
   18.4631  -33.7434   -7.2537 C   0  0  0  0  0  0  0  0  0  0  0  0
   18.9632  -32.3968   -7.7931 C   0  0  2  0  0  0  0  0  0  0  0  0
   20.3406  -32.5889   -8.1999 N   0  0  0  0  0  0  0  0  0  0  0  0
   18.8398  -31.3357   -6.7722 C   0  0  0  0  0  0  0  0  0  0  0  0
   17.7445  -31.0048   -6.2611 O   0  0  0  0  0  0  0  0  0  0  0  0
   19.9741  -30.6739   -6.3563 O   0  0  0  0  0  0  0  0  0  0  0  0
  2  4  1  0
  2  1  1  0
  3  2  2  0
  5  4  1  0
  6  5  1  0
  6  7  1  6
  8  9  2  0
  8  6  1  0
 10  8  1  0
 11 10  1  0
 11 12  1  1
 13 12  1  0
 13 21  1  0
 14 13  2  0
 15 14  1  0
 15 16  1  0
 16 17  1  0
 16 21  2  0
 17 18  2  0
 18 19  1  0
 20 19  2  0
 21 20  1  0
 22 23  2  0
 22 11  1  0
 24 25  1  0
 26 25  1  1
 26 27  1  0
 27 22  1  0
 28 26  1  0
 29 28  2  0
 30 28  1  0
M  END
$$$$
