QWS.pdb
     RDKit          3D

 30 31  0  0  1  0  0  0  0  0999 V2000
   29.8624  -18.1732  -17.4672 N   0  0  0  0  0  0  0  0  0  0  0  0
   28.5249  -18.0238  -17.9013 C   0  0  0  0  0  0  0  0  0  0  0  0
   27.9363  -16.8903  -17.8665 O   0  0  0  0  0  0  0  0  0  0  0  0
   27.8138  -19.2294  -18.4038 C   0  0  0  0  0  0  0  0  0  0  0  0
   27.0226  -19.8248  -17.2770 C   0  0  0  0  0  0  0  0  0  0  0  0
   27.8249  -20.8900  -16.5503 C   0  0  2  0  0  0  0  0  0  0  0  0
   27.8792  -22.0504  -17.4192 N   0  0  0  0  0  0  0  0  0  0  0  0
   27.0882  -21.1883  -15.2833 C   0  0  0  0  0  0  0  0  0  0  0  0
   25.9622  -21.7541  -15.4425 O   0  0  0  0  0  0  0  0  0  0  0  0
   27.5627  -20.8857  -14.0016 N   0  0  0  0  0  0  0  0  0  0  0  0
   26.7403  -21.1041  -12.7918 C   0  0  1  0  0  0  0  0  0  0  0  0
   27.5665  -20.9404  -11.5717 C   0  0  0  0  0  0  0  0  0  0  0  0
   26.8722  -20.7164  -10.3003 C   0  0  0  0  0  0  0  0  0  0  0  0
   25.4841  -20.7840  -10.1394 C   0  0  0  0  0  0  0  0  0  0  0  0
   25.1730  -20.4980   -8.8538 N   0  0  0  0  0  0  0  0  0  0  0  0
   26.2892  -20.2472   -8.1645 C   0  0  0  0  0  0  0  0  0  0  0  0
   26.5112  -19.9276   -6.8496 C   0  0  0  0  0  0  0  0  0  0  0  0
   27.8107  -19.7296   -6.3734 C   0  0  0  0  0  0  0  0  0  0  0  0
   28.8701  -19.8606   -7.2469 C   0  0  0  0  0  0  0  0  0  0  0  0
   28.6224  -20.1818   -8.5640 C   0  0  0  0  0  0  0  0  0  0  0  0
   27.3398  -20.3797   -9.0476 C   0  0  0  0  0  0  0  0  0  0  0  0
   25.5069  -20.3615  -12.8782 C   0  0  0  0  0  0  0  0  0  0  0  0
   25.4990  -19.1143  -12.9606 O   0  0  0  0  0  0  0  0  0  0  0  0
   21.3307  -19.9108  -14.6864 O   0  0  0  0  0  0  0  0  0  0  0  0
   22.5489  -20.5452  -14.4775 C   0  0  0  0  0  0  0  0  0  0  0  0
   23.0470  -20.2664  -13.0532 C   0  0  2  0  0  0  0  0  0  0  0  0
   24.2618  -21.0353  -12.8714 N   0  0  0  0  0  0  0  0  0  0  0  0
   22.0214  -20.6237  -12.0513 C   0  0  0  0  0  0  0  0  0  0  0  0
   21.9778  -21.7427  -11.4889 O   0  0  0  0  0  0  0  0  0  0  0  0
   21.0650  -19.6917  -11.7130 O   0  0  0  0  0  0  0  0  0  0  0  0
  2  4  1  0
  2  1  1  0
  3  2  2  0
  5  4  1  0
  6  5  1  0
  6  7  1  6
  8  9  2  0
  8  6  1  0
 10  8  1  0
 11 10  1  0
 11 12  1  1
 13 12  1  0
 13 21  1  0
 14 13  2  0
 15 14  1  0
 15 16  1  0
 16 17  1  0
 16 21  2  0
 17 18  2  0
 18 19  1  0
 20 19  2  0
 21 20  1  0
 22 23  2  0
 22 11  1  0
 24 25  1  0
 26 25  1  6
 26 27  1  0
 27 22  1  0
 28 26  1  0
 29 28  2  0
 30 28  1  0
M  END
$$$$
