QWS.pdb
     RDKit          3D

 30 31  0  0  1  0  0  0  0  0999 V2000
   29.3002  -18.4169  -16.9657 N   0  0  0  0  0  0  0  0  0  0  0  0
   27.9929  -18.8236  -17.3188 C   0  0  0  0  0  0  0  0  0  0  0  0
   27.5475  -18.6751  -18.5072 O   0  0  0  0  0  0  0  0  0  0  0  0
   27.1410  -19.4339  -16.2635 C   0  0  0  0  0  0  0  0  0  0  0  0
   27.8865  -19.3948  -14.9625 C   0  0  0  0  0  0  0  0  0  0  0  0
   28.2540  -20.7947  -14.5021 C   0  0  2  0  0  0  0  0  0  0  0  0
   27.8750  -21.7067  -15.5645 N   0  0  0  0  0  0  0  0  0  0  0  0
   27.4713  -21.0521  -13.2539 C   0  0  0  0  0  0  0  0  0  0  0  0
   26.3319  -21.5818  -13.4394 O   0  0  0  0  0  0  0  0  0  0  0  0
   27.9186  -20.7495  -11.9623 N   0  0  0  0  0  0  0  0  0  0  0  0
   27.0720  -20.9712  -10.7700 C   0  0  1  0  0  0  0  0  0  0  0  0
   27.8732  -20.8096   -9.5330 C   0  0  0  0  0  0  0  0  0  0  0  0
   27.1526  -20.6838   -8.2627 C   0  0  0  0  0  0  0  0  0  0  0  0
   25.7819  -20.9182   -8.1091 C   0  0  0  0  0  0  0  0  0  0  0  0
   25.4344  -20.6852   -6.8222 N   0  0  0  0  0  0  0  0  0  0  0  0
   26.5102  -20.3105   -6.1251 C   0  0  0  0  0  0  0  0  0  0  0  0
   26.6878  -19.9808   -4.8058 C   0  0  0  0  0  0  0  0  0  0  0  0
   27.9527  -19.6344   -4.3214 C   0  0  0  0  0  0  0  0  0  0  0  0
   29.0232  -19.6286   -5.1911 C   0  0  0  0  0  0  0  0  0  0  0  0
   28.8203  -19.9629   -6.5127 C   0  0  0  0  0  0  0  0  0  0  0  0
   27.5722  -20.3072   -7.0044 C   0  0  0  0  0  0  0  0  0  0  0  0
   25.8400  -20.2293  -10.8797 C   0  0  0  0  0  0  0  0  0  0  0  0
   25.8300  -18.9799  -10.9140 O   0  0  0  0  0  0  0  0  0  0  0  0
   23.0115  -21.6424  -12.9276 O   0  0  0  0  0  0  0  0  0  0  0  0
   22.9233  -20.3056  -12.5597 C   0  0  0  0  0  0  0  0  0  0  0  0
   23.3845  -20.1310  -11.1067 C   0  0  2  0  0  0  0  0  0  0  0  0
   24.5988  -20.9065  -10.9518 N   0  0  0  0  0  0  0  0  0  0  0  0
   22.3365  -20.5653  -10.1599 C   0  0  0  0  0  0  0  0  0  0  0  0
   22.5194  -21.4625   -9.3043 O   0  0  0  0  0  0  0  0  0  0  0  0
   21.0986  -19.9632  -10.2116 O   0  0  0  0  0  0  0  0  0  0  0  0
  2  4  1  0
  2  1  1  0
  3  2  2  0
  5  4  1  0
  6  5  1  0
  6  7  1  6
  8  9  2  0
  8  6  1  0
 10  8  1  0
 11 10  1  0
 11 12  1  1
 13 12  1  0
 13 21  1  0
 14 13  2  0
 15 14  1  0
 15 16  1  0
 16 17  1  0
 16 21  2  0
 17 18  2  0
 18 19  1  0
 20 19  2  0
 21 20  1  0
 22 23  2  0
 22 11  1  0
 24 25  1  0
 26 25  1  6
 26 27  1  0
 27 22  1  0
 28 26  1  0
 29 28  2  0
 30 28  1  0
M  END
$$$$
