QWS.pdb
     RDKit          3D

 30 31  0  0  1  0  0  0  0  0999 V2000
   27.1889  -22.2262  -19.2969 N   0  0  0  0  0  0  0  0  0  0  0  0
   25.8592  -22.7014  -19.2248 C   0  0  0  0  0  0  0  0  0  0  0  0
   24.8704  -21.9681  -19.5672 O   0  0  0  0  0  0  0  0  0  0  0  0
   25.6375  -24.0885  -18.7361 C   0  0  0  0  0  0  0  0  0  0  0  0
   24.5174  -24.0728  -17.7385 C   0  0  0  0  0  0  0  0  0  0  0  0
   25.0052  -23.6067  -16.3778 C   0  0  2  0  0  0  0  0  0  0  0  0
   25.8215  -24.6727  -15.8288 N   0  0  0  0  0  0  0  0  0  0  0  0
   23.7849  -23.3675  -15.5466 C   0  0  0  0  0  0  0  0  0  0  0  0
   22.9550  -24.3290  -15.5300 O   0  0  0  0  0  0  0  0  0  0  0  0
   23.5347  -22.1931  -14.8272 N   0  0  0  0  0  0  0  0  0  0  0  0
   22.3392  -22.0413  -13.9698 C   0  0  1  0  0  0  0  0  0  0  0  0
   22.5790  -21.0116  -12.9303 C   0  0  0  0  0  0  0  0  0  0  0  0
   21.4136  -20.3228  -12.3680 C   0  0  0  0  0  0  0  0  0  0  0  0
   20.6769  -20.7883  -11.2735 C   0  0  0  0  0  0  0  0  0  0  0  0
   19.6546  -19.9350  -11.0329 N   0  0  0  0  0  0  0  0  0  0  0  0
   19.6858  -18.9330  -11.9155 C   0  0  0  0  0  0  0  0  0  0  0  0
   18.8937  -17.8267  -12.0862 C   0  0  0  0  0  0  0  0  0  0  0  0
   19.1645  -16.9055  -13.1024 C   0  0  0  0  0  0  0  0  0  0  0  0
   20.2429  -17.1251  -13.9339 C   0  0  0  0  0  0  0  0  0  0  0  0
   21.0243  -18.2443  -13.7435 C   0  0  0  0  0  0  0  0  0  0  0  0
   20.7658  -19.1641  -12.7409 C   0  0  0  0  0  0  0  0  0  0  0  0
   21.1498  -21.9234  -14.7770 C   0  0  0  0  0  0  0  0  0  0  0  0
   21.1223  -21.2056  -15.7999 O   0  0  0  0  0  0  0  0  0  0  0  0
   17.1159  -23.5674  -13.9277 O   0  0  0  0  0  0  0  0  0  0  0  0
   17.9251  -23.7112  -15.0478 C   0  0  0  0  0  0  0  0  0  0  0  0
   18.7841  -22.4540  -15.2380 C   0  0  2  0  0  0  0  0  0  0  0  0
   19.9718  -22.6258  -14.4258 N   0  0  0  0  0  0  0  0  0  0  0  0
   18.0369  -21.2367  -14.8593 C   0  0  0  0  0  0  0  0  0  0  0  0
   17.3842  -20.5532  -15.6823 O   0  0  0  0  0  0  0  0  0  0  0  0
   18.0519  -20.8257  -13.5446 O   0  0  0  0  0  0  0  0  0  0  0  0
  2  4  1  0
  2  1  1  0
  3  2  2  0
  5  4  1  0
  6  5  1  0
  6  7  1  1
  8  9  2  0
  8  6  1  0
 10  8  1  0
 11 10  1  0
 11 12  1  6
 13 12  1  0
 13 21  1  0
 14 13  2  0
 15 14  1  0
 15 16  1  0
 16 17  1  0
 16 21  2  0
 17 18  2  0
 18 19  1  0
 20 19  2  0
 21 20  1  0
 22 23  2  0
 22 11  1  0
 24 25  1  0
 26 25  1  1
 26 27  1  0
 27 22  1  0
 28 26  1  0
 29 28  2  0
 30 28  1  0
M  END
$$$$
