EDI.pdb
     RDKit          3D

 26 25  0  0  1  0  0  0  0  0999 V2000
    7.5666  -16.7333   19.4063 N   0  0  0  0  0  0  0  0  0  0  0  0
    8.8048  -16.2257   19.9624 C   0  0  1  0  0  0  0  0  0  0  0  0
    9.0609  -14.8564   19.4268 C   0  0  0  0  0  0  0  0  0  0  0  0
    7.8233  -14.0468   19.1951 C   0  0  0  0  0  0  0  0  0  0  0  0
    7.8294  -13.6026   17.7546 C   0  0  0  0  0  0  0  0  0  0  0  0
    8.5977  -12.6822   17.3788 O   0  0  0  0  0  0  0  0  0  0  0  0
    8.7444  -16.3283   21.4228 C   0  0  0  0  0  0  0  0  0  0  0  0
    7.6592  -16.2877   22.0768 O   0  0  0  0  0  0  0  0  0  0  0  0
    6.9985  -14.1899   16.8175 O   0  0  0  0  0  0  0  0  0  0  0  0
    9.9203  -16.4844   22.2403 N   0  0  0  0  0  0  0  0  0  0  0  0
    9.8958  -16.7823   23.6291 C   0  0  1  0  0  0  0  0  0  0  0  0
   11.0400  -17.6185   24.1247 C   0  0  0  0  0  0  0  0  0  0  0  0
   10.7896  -18.1649   25.4850 C   0  0  0  0  0  0  0  0  0  0  0  0
   11.7071  -18.7052   26.1168 O   0  0  0  0  0  0  0  0  0  0  0  0
    9.6480  -15.5955   24.4882 C   0  0  0  0  0  0  0  0  0  0  0  0
    9.3431  -14.4573   23.9855 O   0  0  0  0  0  0  0  0  0  0  0  0
    9.5283  -18.0731   26.0545 O   0  0  0  0  0  0  0  0  0  0  0  0
    6.1105  -13.0442   25.1787 C   0  0  0  0  0  0  0  0  0  0  0  0
    7.5809  -13.3384   25.3301 C   0  0  0  0  0  0  0  0  0  0  0  0
    7.8572  -14.1703   26.5247 C   0  0  2  0  0  0  0  0  0  0  0  0
    7.3633  -13.4557   27.7792 C   0  0  0  0  0  0  0  0  0  0  0  0
    9.2734  -14.5627   26.7621 C   0  0  2  0  0  0  0  0  0  0  0  0
    9.7272  -15.6279   25.8961 N   0  0  0  0  0  0  0  0  0  0  0  0
    9.6437  -14.7848   28.1723 C   0  0  0  0  0  0  0  0  0  0  0  0
   10.0459  -16.0750   28.5737 O   0  0  0  0  0  0  0  0  0  0  0  0
    9.6320  -13.9156   29.0551 O   0  0  0  0  0  0  0  0  0  0  0  0
  2  1  1  6
  2  3  1  0
  4  3  1  0
  5  6  2  0
  5  4  1  0
  7  8  2  0
  7  2  1  0
  9  5  1  0
 10  7  1  0
 11 10  1  0
 11 12  1  1
 13 14  2  0
 13 12  1  0
 15 16  2  0
 15 11  1  0
 17 13  1  0
 18 19  1  0
 19 20  1  0
 20 21  1  1
 22 20  1  0
 22 23  1  6
 23 15  1  0
 24 22  1  0
 25 24  1  0
 26 24  2  0
M  END
$$$$
