EDI.pdb
     RDKit          3D

 26 25  0  0  1  0  0  0  0  0999 V2000
    9.4204  -12.7047   19.1347 N   0  0  0  0  0  0  0  0  0  0  0  0
    8.1233  -13.3210   19.3290 C   0  0  1  0  0  0  0  0  0  0  0  0
    7.6668  -13.9247   18.0427 C   0  0  0  0  0  0  0  0  0  0  0  0
    8.5240  -15.0509   17.5550 C   0  0  0  0  0  0  0  0  0  0  0  0
    7.8053  -15.7090   16.4050 C   0  0  0  0  0  0  0  0  0  0  0  0
    8.0362  -15.3481   15.2239 O   0  0  0  0  0  0  0  0  0  0  0  0
    8.2040  -14.2451   20.4633 C   0  0  0  0  0  0  0  0  0  0  0  0
    7.1843  -14.6754   21.0814 O   0  0  0  0  0  0  0  0  0  0  0  0
    6.8820  -16.7171   16.6164 O   0  0  0  0  0  0  0  0  0  0  0  0
    9.4562  -14.7432   20.9724 N   0  0  0  0  0  0  0  0  0  0  0  0
    9.5746  -15.6452   22.0636 C   0  0  1  0  0  0  0  0  0  0  0  0
   10.7157  -16.6164   21.9704 C   0  0  0  0  0  0  0  0  0  0  0  0
   10.4162  -17.7503   21.0559 C   0  0  0  0  0  0  0  0  0  0  0  0
    9.8213  -17.5483   19.9890 O   0  0  0  0  0  0  0  0  0  0  0  0
    9.5001  -14.9848   23.3926 C   0  0  0  0  0  0  0  0  0  0  0  0
   10.2918  -14.0292   23.7104 O   0  0  0  0  0  0  0  0  0  0  0  0
   10.8007  -19.0399   21.3914 O   0  0  0  0  0  0  0  0  0  0  0  0
    6.5254  -11.7685   27.0784 C   0  0  0  0  0  0  0  0  0  0  0  0
    7.5129  -12.9067   27.1072 C   0  0  0  0  0  0  0  0  0  0  0  0
    7.5628  -13.6270   25.8133 C   0  0  2  0  0  0  0  0  0  0  0  0
    6.1766  -14.1605   25.4636 C   0  0  0  0  0  0  0  0  0  0  0  0
    8.5185  -14.7636   25.7089 C   0  0  2  0  0  0  0  0  0  0  0  0
    8.5708  -15.3506   24.3886 N   0  0  0  0  0  0  0  0  0  0  0  0
    8.4186  -15.7781   26.7746 C   0  0  0  0  0  0  0  0  0  0  0  0
    8.2415  -17.1289   26.4119 O   0  0  0  0  0  0  0  0  0  0  0  0
    8.4787  -15.5408   27.9891 O   0  0  0  0  0  0  0  0  0  0  0  0
  2  1  1  6
  2  3  1  0
  4  3  1  0
  5  6  2  0
  5  4  1  0
  7  8  2  0
  7  2  1  0
  9  5  1  0
 10  7  1  0
 11 10  1  0
 11 12  1  6
 13 14  2  0
 13 12  1  0
 15 16  2  0
 15 11  1  0
 17 13  1  0
 18 19  1  0
 19 20  1  0
 20 21  1  1
 22 20  1  0
 22 23  1  6
 23 15  1  0
 24 22  1  0
 25 24  1  0
 26 24  2  0
M  END
$$$$
