EDI.pdb
     RDKit          3D

 26 25  0  0  1  0  0  0  0  0999 V2000
   10.3525  -16.8974   19.9162 N   0  0  0  0  0  0  0  0  0  0  0  0
    9.0977  -16.3526   20.3945 C   0  0  1  0  0  0  0  0  0  0  0  0
    7.9683  -17.0081   19.6719 C   0  0  0  0  0  0  0  0  0  0  0  0
    8.3520  -17.6215   18.3614 C   0  0  0  0  0  0  0  0  0  0  0  0
    7.1077  -18.2148   17.7515 C   0  0  0  0  0  0  0  0  0  0  0  0
    6.8148  -19.4195   17.9554 O   0  0  0  0  0  0  0  0  0  0  0  0
    9.0594  -16.4654   21.8550 C   0  0  0  0  0  0  0  0  0  0  0  0
    8.0705  -16.0905   22.5539 O   0  0  0  0  0  0  0  0  0  0  0  0
    6.2636  -17.4574   16.9595 O   0  0  0  0  0  0  0  0  0  0  0  0
   10.1488  -17.0147   22.6209 N   0  0  0  0  0  0  0  0  0  0  0  0
   10.1043  -17.2495   24.0213 C   0  0  1  0  0  0  0  0  0  0  0  0
   11.1032  -18.2454   24.5355 C   0  0  0  0  0  0  0  0  0  0  0  0
   10.9391  -19.5829   23.9064 C   0  0  0  0  0  0  0  0  0  0  0  0
   11.9337  -20.2663   23.6297 O   0  0  0  0  0  0  0  0  0  0  0  0
   10.0759  -16.0051   24.8329 C   0  0  0  0  0  0  0  0  0  0  0  0
   10.9854  -15.1102   24.7179 O   0  0  0  0  0  0  0  0  0  0  0  0
    9.6724  -20.0732   23.6257 O   0  0  0  0  0  0  0  0  0  0  0  0
    5.9984  -12.6745   25.4213 C   0  0  0  0  0  0  0  0  0  0  0  0
    7.3554  -13.3241   25.3303 C   0  0  0  0  0  0  0  0  0  0  0  0
    7.8363  -13.7853   26.6537 C   0  0  2  0  0  0  0  0  0  0  0  0
    8.0413  -12.5877   27.5767 C   0  0  0  0  0  0  0  0  0  0  0  0
    9.0911  -14.5862   26.6753 C   0  0  2  0  0  0  0  0  0  0  0  0
    9.0662  -15.7170   25.7746 N   0  0  0  0  0  0  0  0  0  0  0  0
    9.5952  -14.9420   28.0147 C   0  0  0  0  0  0  0  0  0  0  0  0
    9.7106  -16.3047   28.3571 O   0  0  0  0  0  0  0  0  0  0  0  0
    9.9344  -14.1282   28.8853 O   0  0  0  0  0  0  0  0  0  0  0  0
  2  1  1  6
  2  3  1  0
  4  3  1  0
  5  6  2  0
  5  4  1  0
  7  8  2  0
  7  2  1  0
  9  5  1  0
 10  7  1  0
 11 10  1  0
 11 12  1  1
 13 14  2  0
 13 12  1  0
 15 16  2  0
 15 11  1  0
 17 13  1  0
 18 19  1  0
 19 20  1  0
 20 21  1  1
 22 20  1  0
 22 23  1  6
 23 15  1  0
 24 22  1  0
 25 24  1  0
 26 24  2  0
M  END
$$$$
