EDI.pdb
     RDKit          3D

 26 25  0  0  1  0  0  0  0  0999 V2000
    8.3279  -15.7082   18.3191 N   0  0  0  0  0  0  0  0  0  0  0  0
    9.4303  -16.1226   19.1635 C   0  0  1  0  0  0  0  0  0  0  0  0
   10.6262  -15.2828   18.8603 C   0  0  0  0  0  0  0  0  0  0  0  0
   11.3088  -14.7271   20.0712 C   0  0  0  0  0  0  0  0  0  0  0  0
   12.7452  -14.4557   19.7033 C   0  0  0  0  0  0  0  0  0  0  0  0
   13.0939  -14.4179   18.4969 O   0  0  0  0  0  0  0  0  0  0  0  0
    8.9883  -16.1058   20.5604 C   0  0  0  0  0  0  0  0  0  0  0  0
    8.0866  -15.3270   20.9933 O   0  0  0  0  0  0  0  0  0  0  0  0
   13.7080  -14.2429   20.6735 O   0  0  0  0  0  0  0  0  0  0  0  0
    9.5454  -16.9780   21.5624 N   0  0  0  0  0  0  0  0  0  0  0  0
    8.9639  -17.2056   22.8384 C   0  0  1  0  0  0  0  0  0  0  0  0
    9.1019  -18.6050   23.3644 C   0  0  0  0  0  0  0  0  0  0  0  0
    8.6571  -19.6238   22.3765 C   0  0  0  0  0  0  0  0  0  0  0  0
    9.4927  -20.2845   21.7456 O   0  0  0  0  0  0  0  0  0  0  0  0
    9.3301  -16.1814   23.8507 C   0  0  0  0  0  0  0  0  0  0  0  0
   10.4877  -15.6329   23.8594 O   0  0  0  0  0  0  0  0  0  0  0  0
    7.3051  -19.8404   22.1555 O   0  0  0  0  0  0  0  0  0  0  0  0
    5.8556  -12.3331   25.4823 C   0  0  0  0  0  0  0  0  0  0  0  0
    7.0631  -13.1272   25.0548 C   0  0  0  0  0  0  0  0  0  0  0  0
    7.6960  -13.8272   26.1971 C   0  0  2  0  0  0  0  0  0  0  0  0
    8.2419  -12.8071   27.1918 C   0  0  0  0  0  0  0  0  0  0  0  0
    8.7977  -14.7772   25.8811 C   0  0  2  0  0  0  0  0  0  0  0  0
    8.4499  -15.7413   24.8612 N   0  0  0  0  0  0  0  0  0  0  0  0
    9.4543  -15.3993   27.0459 C   0  0  0  0  0  0  0  0  0  0  0  0
   10.3174  -14.6151   27.8382 O   0  0  0  0  0  0  0  0  0  0  0  0
    9.3095  -16.5787   27.3969 O   0  0  0  0  0  0  0  0  0  0  0  0
  2  1  1  6
  2  3  1  0
  4  3  1  0
  5  6  2  0
  5  4  1  0
  7  8  2  0
  7  2  1  0
  9  5  1  0
 10  7  1  0
 11 10  1  0
 11 12  1  1
 13 14  2  0
 13 12  1  0
 15 16  2  0
 15 11  1  0
 17 13  1  0
 18 19  1  0
 19 20  1  0
 20 21  1  1
 22 20  1  0
 22 23  1  6
 23 15  1  0
 24 22  1  0
 25 24  1  0
 26 24  2  0
M  END
$$$$
