EDI.pdb
     RDKit          3D

 26 25  0  0  1  0  0  0  0  0999 V2000
    8.4189  -13.9118   18.5555 N   0  0  0  0  0  0  0  0  0  0  0  0
    9.0193  -15.0515   19.2191 C   0  0  1  0  0  0  0  0  0  0  0  0
   10.5039  -14.8981   19.2160 C   0  0  0  0  0  0  0  0  0  0  0  0
   10.9850  -13.5740   19.7222 C   0  0  0  0  0  0  0  0  0  0  0  0
   12.4920  -13.5951   19.7000 C   0  0  0  0  0  0  0  0  0  0  0  0
   13.1298  -14.2274   20.5786 O   0  0  0  0  0  0  0  0  0  0  0  0
    8.4062  -15.2061   20.5410 C   0  0  0  0  0  0  0  0  0  0  0  0
    7.6032  -14.3595   21.0364 O   0  0  0  0  0  0  0  0  0  0  0  0
   13.2061  -12.9262   18.7221 O   0  0  0  0  0  0  0  0  0  0  0  0
    8.6673  -16.3394   21.3911 N   0  0  0  0  0  0  0  0  0  0  0  0
    7.9895  -16.5965   22.6129 C   0  0  1  0  0  0  0  0  0  0  0  0
    7.6865  -18.0415   22.8850 C   0  0  0  0  0  0  0  0  0  0  0  0
    6.2619  -18.3771   22.6209 C   0  0  0  0  0  0  0  0  0  0  0  0
    5.3890  -17.5044   22.7184 O   0  0  0  0  0  0  0  0  0  0  0  0
    8.5964  -15.9146   23.7853 C   0  0  0  0  0  0  0  0  0  0  0  0
    9.8661  -15.8686   23.9495 O   0  0  0  0  0  0  0  0  0  0  0  0
    5.9018  -19.6681   22.2642 O   0  0  0  0  0  0  0  0  0  0  0  0
    6.3512  -11.4418   26.1267 C   0  0  0  0  0  0  0  0  0  0  0  0
    7.2906  -12.4616   25.5356 C   0  0  0  0  0  0  0  0  0  0  0  0
    7.6186  -13.5355   26.5024 C   0  0  2  0  0  0  0  0  0  0  0  0
    8.3896  -12.9520   27.6829 C   0  0  0  0  0  0  0  0  0  0  0  0
    8.3994  -14.6935   25.9870 C   0  0  2  0  0  0  0  0  0  0  0  0
    7.8380  -15.2771   24.7892 N   0  0  0  0  0  0  0  0  0  0  0  0
    8.7680  -15.7090   26.9909 C   0  0  0  0  0  0  0  0  0  0  0  0
    9.7438  -15.3871   27.9561 O   0  0  0  0  0  0  0  0  0  0  0  0
    8.2827  -16.8469   27.0614 O   0  0  0  0  0  0  0  0  0  0  0  0
  2  1  1  1
  2  3  1  0
  4  3  1  0
  5  6  2  0
  5  4  1  0
  7  8  2  0
  7  2  1  0
  9  5  1  0
 10  7  1  0
 11 10  1  0
 11 12  1  1
 13 14  2  0
 13 12  1  0
 15 16  2  0
 15 11  1  0
 17 13  1  0
 18 19  1  0
 19 20  1  0
 20 21  1  1
 22 20  1  0
 22 23  1  6
 23 15  1  0
 24 22  1  0
 25 24  1  0
 26 24  2  0
M  END
$$$$
