EDI.pdb
     RDKit          3D

 26 25  0  0  1  0  0  0  0  0999 V2000
    6.6601  -17.4760   20.2313 N   0  0  0  0  0  0  0  0  0  0  0  0
    8.0366  -17.2374   20.6164 C   0  0  1  0  0  0  0  0  0  0  0  0
    8.5110  -15.9687   19.9898 C   0  0  0  0  0  0  0  0  0  0  0  0
    7.4133  -15.0265   19.6048 C   0  0  0  0  0  0  0  0  0  0  0  0
    8.0469  -13.8335   18.9360 C   0  0  0  0  0  0  0  0  0  0  0  0
    9.0516  -13.9815   18.1961 O   0  0  0  0  0  0  0  0  0  0  0  0
    8.1351  -17.2920   22.0774 C   0  0  0  0  0  0  0  0  0  0  0  0
    7.1242  -17.2727   22.8420 O   0  0  0  0  0  0  0  0  0  0  0  0
    7.5449  -12.5572   19.1164 O   0  0  0  0  0  0  0  0  0  0  0  0
    9.3963  -17.3725   22.7689 N   0  0  0  0  0  0  0  0  0  0  0  0
    9.5303  -17.5753   24.1685 C   0  0  1  0  0  0  0  0  0  0  0  0
   10.4472  -18.6948   24.5683 C   0  0  0  0  0  0  0  0  0  0  0  0
   10.5326  -18.8521   26.0447 C   0  0  0  0  0  0  0  0  0  0  0  0
   11.5868  -18.5889   26.6382 O   0  0  0  0  0  0  0  0  0  0  0  0
    9.7967  -16.3264   24.9282 C   0  0  0  0  0  0  0  0  0  0  0  0
   10.8148  -15.5919   24.6727 O   0  0  0  0  0  0  0  0  0  0  0  0
    9.4334  -19.2941   26.7658 O   0  0  0  0  0  0  0  0  0  0  0  0
    6.2481  -12.4843   26.1349 C   0  0  0  0  0  0  0  0  0  0  0  0
    7.4859  -13.2786   25.8055 C   0  0  0  0  0  0  0  0  0  0  0  0
    8.1448  -13.8043   27.0241 C   0  0  2  0  0  0  0  0  0  0  0  0
    8.6461  -12.6466   27.8825 C   0  0  0  0  0  0  0  0  0  0  0  0
    9.2855  -14.7399   26.8254 C   0  0  2  0  0  0  0  0  0  0  0  0
    8.9667  -15.8605   25.9690 N   0  0  0  0  0  0  0  0  0  0  0  0
    9.9923  -15.1505   28.0530 C   0  0  0  0  0  0  0  0  0  0  0  0
   10.7318  -14.1850   28.7661 O   0  0  0  0  0  0  0  0  0  0  0  0
    9.9921  -16.2968   28.5231 O   0  0  0  0  0  0  0  0  0  0  0  0
  2  1  1  1
  2  3  1  0
  4  3  1  0
  5  6  2  0
  5  4  1  0
  7  8  2  0
  7  2  1  0
  9  5  1  0
 10  7  1  0
 11 10  1  0
 11 12  1  6
 13 14  2  0
 13 12  1  0
 15 16  2  0
 15 11  1  0
 17 13  1  0
 18 19  1  0
 19 20  1  0
 20 21  1  6
 22 20  1  0
 22 23  1  1
 23 15  1  0
 24 22  1  0
 25 24  1  0
 26 24  2  0
M  END
$$$$
