EDI.pdb
     RDKit          3D

 26 25  0  0  1  0  0  0  0  0999 V2000
    8.4593  -17.5791   19.6718 N   0  0  0  0  0  0  0  0  0  0  0  0
    9.0990  -18.2366   20.7936 C   0  0  1  0  0  0  0  0  0  0  0  0
   10.5798  -18.1035   20.6641 C   0  0  0  0  0  0  0  0  0  0  0  0
   11.0280  -17.4404   19.3990 C   0  0  0  0  0  0  0  0  0  0  0  0
   12.5351  -17.4113   19.4061 C   0  0  0  0  0  0  0  0  0  0  0  0
   13.1471  -16.3913   19.8103 O   0  0  0  0  0  0  0  0  0  0  0  0
    8.5272  -17.7134   22.0371 C   0  0  0  0  0  0  0  0  0  0  0  0
    8.0216  -16.5551   22.1346 O   0  0  0  0  0  0  0  0  0  0  0  0
   13.2772  -18.4952   18.9724 O   0  0  0  0  0  0  0  0  0  0  0  0
    8.4925  -18.4770   23.2582 N   0  0  0  0  0  0  0  0  0  0  0  0
    7.8595  -18.0452   24.4545 C   0  0  1  0  0  0  0  0  0  0  0  0
    7.4675  -19.1411   25.4029 C   0  0  0  0  0  0  0  0  0  0  0  0
    6.2090  -19.8180   24.9909 C   0  0  0  0  0  0  0  0  0  0  0  0
    5.5537  -19.3840   24.0343 O   0  0  0  0  0  0  0  0  0  0  0  0
    8.5714  -16.9336   25.1368 C   0  0  0  0  0  0  0  0  0  0  0  0
    9.8504  -16.8607   25.1412 O   0  0  0  0  0  0  0  0  0  0  0  0
    5.7614  -20.9387   25.6747 O   0  0  0  0  0  0  0  0  0  0  0  0
    6.2269  -11.9588   25.6342 C   0  0  0  0  0  0  0  0  0  0  0  0
    7.2555  -13.0322   25.3866 C   0  0  0  0  0  0  0  0  0  0  0  0
    7.7886  -13.5883   26.6523 C   0  0  2  0  0  0  0  0  0  0  0  0
    8.6624  -12.5485   27.3477 C   0  0  0  0  0  0  0  0  0  0  0  0
    8.5798  -14.8458   26.5577 C   0  0  2  0  0  0  0  0  0  0  0  0
    7.9086  -15.8924   25.8195 N   0  0  0  0  0  0  0  0  0  0  0  0
    9.1578  -15.3301   27.8250 C   0  0  0  0  0  0  0  0  0  0  0  0
   10.1901  -14.5842   28.4296 O   0  0  0  0  0  0  0  0  0  0  0  0
    8.8063  -16.3593   28.4185 O   0  0  0  0  0  0  0  0  0  0  0  0
  2  1  1  6
  2  3  1  0
  4  3  1  0
  5  6  2  0
  5  4  1  0
  7  8  2  0
  7  2  1  0
  9  5  1  0
 10  7  1  0
 11 10  1  0
 11 12  1  1
 13 14  2  0
 13 12  1  0
 15 16  2  0
 15 11  1  0
 17 13  1  0
 18 19  1  0
 19 20  1  0
 20 21  1  6
 22 20  1  0
 22 23  1  1
 23 15  1  0
 24 22  1  0
 25 24  1  0
 26 24  2  0
M  END
$$$$
