AME.pdb
     RDKit          3D

 23 22  0  0  1  0  0  0  0  0999 V2000
    5.8165  -17.9098   20.4481 C   0  0  0  0  0  0  0  0  0  0  0  0
    6.1382  -17.8126   21.9018 C   0  0  2  0  0  0  0  0  0  0  0  0
    4.9573  -17.3666   22.6482 N   0  0  0  0  0  0  0  0  0  0  0  0
    7.2624  -16.8652   22.1056 C   0  0  0  0  0  0  0  0  0  0  0  0
    8.3574  -17.0933   21.5649 O   0  0  0  0  0  0  0  0  0  0  0  0
    5.9574  -12.0239   27.1851 C   0  0  0  0  0  0  0  0  0  0  0  0
    7.1987  -12.1109   25.8813 S   0  0  0  0  0  0  0  0  0  0  0  0
    6.7614  -13.4535   24.7427 C   0  0  0  0  0  0  0  0  0  0  0  0
    7.6036  -13.4015   23.4923 C   0  0  0  0  0  0  0  0  0  0  0  0
    8.1572  -14.7383   23.1242 C   0  0  2  0  0  0  0  0  0  0  0  0
    7.0982  -15.7180   22.9010 N   0  0  0  0  0  0  0  0  0  0  0  0
    9.1542  -15.2860   24.0486 C   0  0  0  0  0  0  0  0  0  0  0  0
    8.9839  -15.3495   25.3020 O   0  0  0  0  0  0  0  0  0  0  0  0
   10.3799  -15.7756   23.5395 N   0  0  0  0  0  0  0  0  0  0  0  0
   11.4136  -16.4071   24.3618 C   0  0  1  0  0  0  0  0  0  0  0  0
   11.0877  -17.7840   24.7545 C   0  0  0  0  0  0  0  0  0  0  0  0
   10.8041  -18.1381   26.1483 C   0  0  0  0  0  0  0  0  0  0  0  0
   11.2930  -19.4052   26.6749 C   0  0  0  0  0  0  0  0  0  0  0  0
   12.3203  -19.4513   27.3828 O   0  0  0  0  0  0  0  0  0  0  0  0
   12.7589  -16.1224   23.8576 C   0  0  0  0  0  0  0  0  0  0  0  0
   13.9191  -16.1164   24.6094 O   0  0  0  0  0  0  0  0  0  0  0  0
   10.6591  -20.6134   26.4276 O   0  0  0  0  0  0  0  0  0  0  0  0
   12.8928  -15.8578   22.6370 O   0  0  0  0  0  0  0  0  0  0  0  0
  2  1  1  6
  2  3  1  0
  4  5  2  0
  4  2  1  0
  7  8  1  0
  7  6  1  0
  8  9  1  0
 10  9  1  1
 10 11  1  0
 11  4  1  0
 12 10  1  0
 12 14  1  0
 13 12  2  0
 15 14  1  0
 15 20  1  0
 16 17  1  0
 15 16  1  6
 18 22  1  0
 18 17  1  0
 19 18  2  0
 20 21  1  0
 23 20  2  0
M  END
$$$$
