AME.pdb
     RDKit          3D

 23 22  0  0  1  0  0  0  0  0999 V2000
    9.1332  -18.5606   21.5993 C   0  0  0  0  0  0  0  0  0  0  0  0
    9.0875  -17.1147   21.2339 C   0  0  2  0  0  0  0  0  0  0  0  0
   10.0789  -16.8290   20.1918 N   0  0  0  0  0  0  0  0  0  0  0  0
    9.3516  -16.2841   22.4354 C   0  0  0  0  0  0  0  0  0  0  0  0
   10.5252  -16.0644   22.7786 O   0  0  0  0  0  0  0  0  0  0  0  0
    6.3485  -11.2608   27.7540 C   0  0  0  0  0  0  0  0  0  0  0  0
    6.0440  -12.2374   26.2702 S   0  0  0  0  0  0  0  0  0  0  0  0
    7.4703  -13.3187   25.9756 C   0  0  0  0  0  0  0  0  0  0  0  0
    7.2957  -14.1148   24.7062 C   0  0  0  0  0  0  0  0  0  0  0  0
    8.4809  -14.9713   24.4053 C   0  0  2  0  0  0  0  0  0  0  0  0
    8.2897  -15.7470   23.1834 N   0  0  0  0  0  0  0  0  0  0  0  0
    8.9149  -15.8543   25.4917 C   0  0  0  0  0  0  0  0  0  0  0  0
    8.3111  -16.9218   25.8076 O   0  0  0  0  0  0  0  0  0  0  0  0
   10.0659  -15.5189   26.2428 N   0  0  0  0  0  0  0  0  0  0  0  0
   10.5728  -16.3144   27.3625 C   0  0  1  0  0  0  0  0  0  0  0  0
   11.8699  -16.9468   27.0900 C   0  0  0  0  0  0  0  0  0  0  0  0
   12.0567  -17.8584   25.9576 C   0  0  0  0  0  0  0  0  0  0  0  0
   13.3817  -18.4019   25.6916 C   0  0  0  0  0  0  0  0  0  0  0  0
   14.3487  -18.1234   26.4304 O   0  0  0  0  0  0  0  0  0  0  0  0
   10.3815  -15.6329   28.6446 C   0  0  0  0  0  0  0  0  0  0  0  0
   10.5529  -16.1989   29.8941 O   0  0  0  0  0  0  0  0  0  0  0  0
   13.6444  -19.2456   24.6230 O   0  0  0  0  0  0  0  0  0  0  0  0
   10.0308  -14.4268   28.6303 O   0  0  0  0  0  0  0  0  0  0  0  0
  2  1  1  1
  2  3  1  0
  4  5  2  0
  4  2  1  0
  7  8  1  0
  7  6  1  0
  8  9  1  0
 10  9  1  1
 10 11  1  0
 11  4  1  0
 12 10  1  0
 12 14  1  0
 13 12  2  0
 15 14  1  0
 15 20  1  0
 16 17  1  0
 15 16  1  6
 18 22  1  0
 18 17  1  0
 19 18  2  0
 20 21  1  0
 23 20  2  0
M  END
$$$$
