AME.pdb
     RDKit          3D

 23 22  0  0  1  0  0  0  0  0999 V2000
    7.2507  -15.7641   19.4064 C   0  0  0  0  0  0  0  0  0  0  0  0
    7.8110  -16.5099   20.5708 C   0  0  2  0  0  0  0  0  0  0  0  0
    6.7698  -17.3429   21.1812 N   0  0  0  0  0  0  0  0  0  0  0  0
    8.3526  -15.5525   21.5675 C   0  0  0  0  0  0  0  0  0  0  0  0
    9.3694  -14.8946   21.2909 O   0  0  0  0  0  0  0  0  0  0  0  0
    6.4637  -11.0262   27.7302 C   0  0  0  0  0  0  0  0  0  0  0  0
    5.9288  -12.2907   26.5628 S   0  0  0  0  0  0  0  0  0  0  0  0
    7.3707  -12.8797   25.6332 C   0  0  0  0  0  0  0  0  0  0  0  0
    6.9593  -13.8315   24.5376 C   0  0  0  0  0  0  0  0  0  0  0  0
    8.1301  -14.3723   23.7855 C   0  0  2  0  0  0  0  0  0  0  0  0
    7.7267  -15.3854   22.8149 N   0  0  0  0  0  0  0  0  0  0  0  0
    9.2296  -14.8830   24.6092 C   0  0  0  0  0  0  0  0  0  0  0  0
    9.7410  -14.2360   25.5705 O   0  0  0  0  0  0  0  0  0  0  0  0
    9.7662  -16.1633   24.3369 N   0  0  0  0  0  0  0  0  0  0  0  0
   10.8497  -16.7772   25.1068 C   0  0  1  0  0  0  0  0  0  0  0  0
   10.4280  -17.9598   25.8683 C   0  0  0  0  0  0  0  0  0  0  0  0
   11.3761  -18.7285   26.6799 C   0  0  0  0  0  0  0  0  0  0  0  0
   10.9547  -19.2350   27.9789 C   0  0  0  0  0  0  0  0  0  0  0  0
    9.7444  -19.3821   28.2476 O   0  0  0  0  0  0  0  0  0  0  0  0
   12.0929  -16.8472   24.3358 C   0  0  0  0  0  0  0  0  0  0  0  0
   13.3715  -16.8300   24.8610 O   0  0  0  0  0  0  0  0  0  0  0  0
   11.8544  -19.5786   28.9765 O   0  0  0  0  0  0  0  0  0  0  0  0
   12.0129  -16.9309   23.0850 O   0  0  0  0  0  0  0  0  0  0  0  0
  2  1  1  6
  2  3  1  0
  4  5  2  0
  4  2  1  0
  7  8  1  0
  7  6  1  0
  8  9  1  0
 10  9  1  1
 10 11  1  0
 11  4  1  0
 12 10  1  0
 12 14  1  0
 13 12  2  0
 15 14  1  0
 15 20  1  0
 16 17  1  0
 15 16  1  6
 18 22  1  0
 18 17  1  0
 19 18  2  0
 20 21  1  0
 23 20  2  0
M  END
$$$$
