AME.pdb
     RDKit          3D

 23 22  0  0  1  0  0  0  0  0999 V2000
    7.9381  -12.7175   19.5710 C   0  0  0  0  0  0  0  0  0  0  0  0
    7.8757  -14.1172   20.0839 C   0  0  2  0  0  0  0  0  0  0  0  0
    6.4835  -14.5768   20.1193 N   0  0  0  0  0  0  0  0  0  0  0  0
    8.4725  -14.1822   21.4413 C   0  0  0  0  0  0  0  0  0  0  0  0
    9.7039  -14.0811   21.5713 O   0  0  0  0  0  0  0  0  0  0  0  0
    6.7099  -10.3448   26.8267 C   0  0  0  0  0  0  0  0  0  0  0  0
    6.4321  -12.1095   26.5881 S   0  0  0  0  0  0  0  0  0  0  0  0
    7.4012  -12.6689   25.1605 C   0  0  0  0  0  0  0  0  0  0  0  0
    7.2944  -14.1632   24.9831 C   0  0  0  0  0  0  0  0  0  0  0  0
    8.1861  -14.6717   23.8990 C   0  0  2  0  0  0  0  0  0  0  0  0
    7.6594  -14.3560   22.5746 N   0  0  0  0  0  0  0  0  0  0  0  0
    8.5227  -16.0963   23.9735 C   0  0  0  0  0  0  0  0  0  0  0  0
    8.2097  -16.9357   23.0782 O   0  0  0  0  0  0  0  0  0  0  0  0
    9.2338  -16.5854   25.0944 N   0  0  0  0  0  0  0  0  0  0  0  0
   10.3590  -17.5179   25.0065 C   0  0  1  0  0  0  0  0  0  0  0  0
   11.3581  -17.1350   24.0007 C   0  0  0  0  0  0  0  0  0  0  0  0
   12.5984  -17.8954   23.8222 C   0  0  0  0  0  0  0  0  0  0  0  0
   13.1565  -18.0443   22.4851 C   0  0  0  0  0  0  0  0  0  0  0  0
   13.5459  -17.0496   21.8388 O   0  0  0  0  0  0  0  0  0  0  0  0
   10.8234  -17.9365   26.3309 C   0  0  0  0  0  0  0  0  0  0  0  0
   11.1448  -19.2284   26.7035 O   0  0  0  0  0  0  0  0  0  0  0  0
   13.2875  -19.2756   21.8611 O   0  0  0  0  0  0  0  0  0  0  0  0
   10.9477  -17.0598   27.2219 O   0  0  0  0  0  0  0  0  0  0  0  0
  2  1  1  1
  2  3  1  0
  4  5  2  0
  4  2  1  0
  7  8  1  0
  7  6  1  0
  8  9  1  0
 10  9  1  1
 10 11  1  0
 11  4  1  0
 12 10  1  0
 12 14  1  0
 13 12  2  0
 15 14  1  0
 15 20  1  0
 16 17  1  0
 15 16  1  1
 18 22  1  0
 18 17  1  0
 19 18  2  0
 20 21  1  0
 23 20  2  0
M  END
$$$$
