AME.pdb
     RDKit          3D

 23 22  0  0  1  0  0  0  0  0999 V2000
    8.3309  -19.5337   18.6490 C   0  0  0  0  0  0  0  0  0  0  0  0
    8.7331  -18.1315   18.3353 C   0  0  2  0  0  0  0  0  0  0  0  0
    9.7234  -18.1237   17.2538 N   0  0  0  0  0  0  0  0  0  0  0  0
    9.2929  -17.4858   19.5488 C   0  0  0  0  0  0  0  0  0  0  0  0
   10.5130  -17.5596   19.7708 O   0  0  0  0  0  0  0  0  0  0  0  0
    7.0413  -11.2402   19.9470 C   0  0  0  0  0  0  0  0  0  0  0  0
    6.9208  -12.5028   21.2275 S   0  0  0  0  0  0  0  0  0  0  0  0
    8.1085  -13.8244   20.8628 C   0  0  0  0  0  0  0  0  0  0  0  0
    8.0780  -14.8917   21.9284 C   0  0  0  0  0  0  0  0  0  0  0  0
    8.9575  -16.0515   21.5963 C   0  0  2  0  0  0  0  0  0  0  0  0
    8.4576  -16.7949   20.4436 N   0  0  0  0  0  0  0  0  0  0  0  0
    9.2317  -16.9739   22.7018 C   0  0  0  0  0  0  0  0  0  0  0  0
    8.6486  -18.0894   22.8417 O   0  0  0  0  0  0  0  0  0  0  0  0
   10.1938  -16.6233   23.6779 N   0  0  0  0  0  0  0  0  0  0  0  0
   11.1547  -17.5651   24.2551 C   0  0  1  0  0  0  0  0  0  0  0  0
   11.7562  -18.4669   23.2645 C   0  0  0  0  0  0  0  0  0  0  0  0
   12.7025  -19.5156   23.6558 C   0  0  0  0  0  0  0  0  0  0  0  0
   13.2307  -20.4143   22.6383 C   0  0  0  0  0  0  0  0  0  0  0  0
   14.0722  -21.2889   22.9303 O   0  0  0  0  0  0  0  0  0  0  0  0
   12.0296  -16.9175   25.2350 C   0  0  0  0  0  0  0  0  0  0  0  0
   12.3116  -17.3900   26.5032 O   0  0  0  0  0  0  0  0  0  0  0  0
   12.8381  -20.3545   21.3098 O   0  0  0  0  0  0  0  0  0  0  0  0
   12.5827  -15.8361   24.9151 O   0  0  0  0  0  0  0  0  0  0  0  0
  2  1  1  1
  2  3  1  0
  4  5  2  0
  4  2  1  0
  7  8  1  0
  7  6  1  0
  8  9  1  0
 10  9  1  1
 10 11  1  0
 11  4  1  0
 12 10  1  0
 12 14  1  0
 13 12  2  0
 15 14  1  0
 15 20  1  0
 16 17  1  0
 15 16  1  6
 18 22  1  0
 18 17  1  0
 19 18  2  0
 20 21  1  0
 23 20  2  0
M  END
$$$$
