AME.pdb
     RDKit          3D

 23 22  0  0  1  0  0  0  0  0999 V2000
    6.9923  -16.8326   20.2009 C   0  0  0  0  0  0  0  0  0  0  0  0
    7.6484  -15.4965   20.3038 C   0  0  2  0  0  0  0  0  0  0  0  0
    8.7264  -15.3895   19.3154 N   0  0  0  0  0  0  0  0  0  0  0  0
    8.1869  -15.3052   21.6736 C   0  0  0  0  0  0  0  0  0  0  0  0
    9.3337  -15.7024   21.9388 O   0  0  0  0  0  0  0  0  0  0  0  0
    6.6981  -10.4117   26.0971 C   0  0  0  0  0  0  0  0  0  0  0  0
    6.5139  -11.9652   26.9920 S   0  0  0  0  0  0  0  0  0  0  0  0
    7.5112  -13.2382   26.1703 C   0  0  0  0  0  0  0  0  0  0  0  0
    7.0824  -13.4225   24.7358 C   0  0  0  0  0  0  0  0  0  0  0  0
    7.8817  -14.4701   24.0341 C   0  0  2  0  0  0  0  0  0  0  0  0
    7.4134  -14.6809   22.6675 N   0  0  0  0  0  0  0  0  0  0  0  0
    7.9852  -15.7569   24.7281 C   0  0  0  0  0  0  0  0  0  0  0  0
    7.1472  -16.6960   24.5870 O   0  0  0  0  0  0  0  0  0  0  0  0
    9.0686  -15.9875   25.6081 N   0  0  0  0  0  0  0  0  0  0  0  0
    9.6779  -17.3002   25.8296 C   0  0  1  0  0  0  0  0  0  0  0  0
    9.9277  -18.0453   24.5892 C   0  0  0  0  0  0  0  0  0  0  0  0
   10.6498  -19.3209   24.5919 C   0  0  0  0  0  0  0  0  0  0  0  0
   10.9159  -19.9916   23.3266 C   0  0  0  0  0  0  0  0  0  0  0  0
   10.9506  -19.3501   22.2562 O   0  0  0  0  0  0  0  0  0  0  0  0
   10.7378  -17.2446   26.8388 C   0  0  0  0  0  0  0  0  0  0  0  0
   11.1344  -18.2895   27.6526 O   0  0  0  0  0  0  0  0  0  0  0  0
   11.1430  -21.3565   23.2358 O   0  0  0  0  0  0  0  0  0  0  0  0
   11.3538  -16.1612   26.9950 O   0  0  0  0  0  0  0  0  0  0  0  0
  2  1  1  1
  2  3  1  0
  4  5  2  0
  4  2  1  0
  7  8  1  0
  7  6  1  0
  8  9  1  0
 10  9  1  1
 10 11  1  0
 11  4  1  0
 12 10  1  0
 12 14  1  0
 13 12  2  0
 15 14  1  0
 15 20  1  0
 16 17  1  0
 15 16  1  6
 18 22  1  0
 18 17  1  0
 19 18  2  0
 20 21  1  0
 23 20  2  0
M  END
$$$$
