AME.pdb
     RDKit          3D

 23 22  0  0  1  0  0  0  0  0999 V2000
    7.8402  -12.6970   19.7305 C   0  0  0  0  0  0  0  0  0  0  0  0
    7.8429  -14.0770   20.2977 C   0  0  2  0  0  0  0  0  0  0  0  0
    6.4740  -14.6004   20.3501 N   0  0  0  0  0  0  0  0  0  0  0  0
    8.4387  -14.0606   21.6570 C   0  0  0  0  0  0  0  0  0  0  0  0
    9.6530  -13.8331   21.7876 O   0  0  0  0  0  0  0  0  0  0  0  0
    5.2113  -12.3456   27.1739 C   0  0  0  0  0  0  0  0  0  0  0  0
    6.6302  -11.4734   26.4852 S   0  0  0  0  0  0  0  0  0  0  0  0
    7.1365  -12.2958   24.9497 C   0  0  0  0  0  0  0  0  0  0  0  0
    7.2818  -13.7835   25.1525 C   0  0  0  0  0  0  0  0  0  0  0  0
    8.1859  -14.4089   24.1423 C   0  0  2  0  0  0  0  0  0  0  0  0
    7.6436  -14.2988   22.7914 N   0  0  0  0  0  0  0  0  0  0  0  0
    8.5706  -15.7973   24.4118 C   0  0  0  0  0  0  0  0  0  0  0  0
    8.0058  -16.7955   23.8745 O   0  0  0  0  0  0  0  0  0  0  0  0
    9.6252  -16.0638   25.3163 N   0  0  0  0  0  0  0  0  0  0  0  0
   10.2861  -17.3641   25.4426 C   0  0  1  0  0  0  0  0  0  0  0  0
   11.1670  -17.6841   24.3121 C   0  0  0  0  0  0  0  0  0  0  0  0
   12.4212  -16.9598   24.0872 C   0  0  0  0  0  0  0  0  0  0  0  0
   13.3046  -17.3828   23.0091 C   0  0  0  0  0  0  0  0  0  0  0  0
   14.3495  -16.7502   22.7513 O   0  0  0  0  0  0  0  0  0  0  0  0
   10.7800  -17.5935   26.8022 C   0  0  0  0  0  0  0  0  0  0  0  0
   11.3310  -18.7704   27.2739 O   0  0  0  0  0  0  0  0  0  0  0  0
   13.0442  -18.4924   22.2193 O   0  0  0  0  0  0  0  0  0  0  0  0
   10.7058  -16.6506   27.6287 O   0  0  0  0  0  0  0  0  0  0  0  0
  2  1  1  1
  2  3  1  0
  4  5  2  0
  4  2  1  0
  7  8  1  0
  7  6  1  0
  8  9  1  0
 10  9  1  1
 10 11  1  0
 11  4  1  0
 12 10  1  0
 12 14  1  0
 13 12  2  0
 15 14  1  0
 15 20  1  0
 16 17  1  0
 15 16  1  6
 18 22  1  0
 18 17  1  0
 19 18  2  0
 20 21  1  0
 23 20  2  0
M  END
$$$$
