KPL.pdb
     RDKit          3D

 25 25  0  0  1  0  0  0  0  0999 V2000
   29.3981  -23.2666  -16.8978 N   0  0  0  0  0  0  0  0  0  0  0  0
   28.4426  -22.1906  -17.1562 C   0  0  1  0  0  0  0  0  0  0  0  0
   27.2480  -22.7947  -17.8101 C   0  0  0  0  0  0  0  0  0  0  0  0
   27.3018  -24.2318  -18.1548 C   0  0  0  0  0  0  0  0  0  0  0  0
   26.9511  -25.1843  -17.0528 C   0  0  0  0  0  0  0  0  0  0  0  0
   26.7806  -26.5859  -17.6554 C   0  0  0  0  0  0  0  0  0  0  0  0
   26.5417  -27.4917  -16.5486 N   0  0  0  0  0  0  0  0  0  0  0  0
   28.1411  -21.4795  -15.8939 C   0  0  0  0  0  0  0  0  0  0  0  0
   28.5422  -22.0505  -14.8242 O   0  0  0  0  0  0  0  0  0  0  0  0
   27.4585  -20.2508  -15.8704 N   0  0  0  0  0  0  0  0  0  0  0  0
   27.0394  -19.5756  -17.1075 C   0  0  0  0  0  0  0  0  0  0  0  0
   27.2813  -18.1278  -16.7987 C   0  0  0  0  0  0  0  0  0  0  0  0
   26.7916  -18.0368  -15.3650 C   0  0  0  0  0  0  0  0  0  0  0  0
   27.0289  -19.4152  -14.7951 C   0  0  1  0  0  0  0  0  0  0  0  0
   25.8377  -19.9433  -14.0882 C   0  0  0  0  0  0  0  0  0  0  0  0
   24.9962  -20.6013  -14.7523 O   0  0  0  0  0  0  0  0  0  0  0  0
   26.0187  -20.3047   -8.5256 C   0  0  0  0  0  0  0  0  0  0  0  0
   26.0649  -20.6284  -10.0428 C   0  0  1  0  0  0  0  0  0  0  0  0
   26.5359  -22.0627  -10.0866 C   0  0  0  0  0  0  0  0  0  0  0  0
   24.7013  -20.3834  -10.5636 C   0  0  0  0  0  0  0  0  0  0  0  0
   24.4393  -20.4098  -12.0136 C   0  0  2  0  0  0  0  0  0  0  0  0
   25.5952  -19.7495  -12.7121 N   0  0  0  0  0  0  0  0  0  0  0  0
   23.2196  -19.8554  -12.5378 C   0  0  0  0  0  0  0  0  0  0  0  0
   23.1300  -18.7148  -13.2788 O   0  0  0  0  0  0  0  0  0  0  0  0
   22.1070  -20.4548  -12.3025 O   0  0  0  0  0  0  0  0  0  0  0  0
  2  1  1  1
  2  8  1  0
  2  3  1  0
  3  4  1  0
  4  5  1  0
  5  6  1  0
  6  7  1  0
  8 10  1  0
  9  8  2  0
 10 14  1  0
 10 11  1  0
 12 11  1  0
 13 12  1  0
 13 14  1  0
 14 15  1  6
 15 22  1  0
 15 16  2  0
 18 17  1  1
 18 20  1  0
 19 18  1  0
 21 23  1  0
 21 20  1  1
 22 21  1  0
 23 24  1  0
 25 23  2  0
M  END
$$$$
