KPL.pdb
     RDKit          3D

 25 25  0  0  1  0  0  0  0  0999 V2000
   28.6224  -21.0610  -16.9314 N   0  0  0  0  0  0  0  0  0  0  0  0
   28.9164  -20.3026  -15.7166 C   0  0  1  0  0  0  0  0  0  0  0  0
   28.5009  -18.8916  -15.9532 C   0  0  0  0  0  0  0  0  0  0  0  0
   27.2068  -18.6566  -16.6291 C   0  0  0  0  0  0  0  0  0  0  0  0
   26.8344  -17.2227  -16.8527 C   0  0  0  0  0  0  0  0  0  0  0  0
   25.5305  -17.1779  -17.6618 C   0  0  0  0  0  0  0  0  0  0  0  0
   25.2778  -15.7843  -17.9725 N   0  0  0  0  0  0  0  0  0  0  0  0
   28.2493  -20.9392  -14.5592 C   0  0  0  0  0  0  0  0  0  0  0  0
   27.2212  -21.6471  -14.8299 O   0  0  0  0  0  0  0  0  0  0  0  0
   28.7169  -20.7791  -13.2432 N   0  0  0  0  0  0  0  0  0  0  0  0
   29.9848  -20.0943  -12.9513 C   0  0  0  0  0  0  0  0  0  0  0  0
   30.5516  -20.9033  -11.8225 C   0  0  0  0  0  0  0  0  0  0  0  0
   29.3131  -21.1672  -10.9857 C   0  0  0  0  0  0  0  0  0  0  0  0
   28.1773  -21.1736  -11.9813 C   0  0  1  0  0  0  0  0  0  0  0  0
   27.0421  -20.3266  -11.5437 C   0  0  0  0  0  0  0  0  0  0  0  0
   26.9361  -19.1743  -12.0367 O   0  0  0  0  0  0  0  0  0  0  0  0
   22.8623  -19.3614  -13.5657 C   0  0  0  0  0  0  0  0  0  0  0  0
   22.8193  -20.5693  -12.5920 C   0  0  1  0  0  0  0  0  0  0  0  0
   22.2213  -21.6775  -13.4259 C   0  0  0  0  0  0  0  0  0  0  0  0
   24.2103  -20.7873  -12.1356 C   0  0  0  0  0  0  0  0  0  0  0  0
   24.6181  -20.4041  -10.7722 C   0  0  2  0  0  0  0  0  0  0  0  0
   26.0737  -20.7407  -10.6051 N   0  0  0  0  0  0  0  0  0  0  0  0
   23.9035  -20.9161   -9.6333 C   0  0  0  0  0  0  0  0  0  0  0  0
   23.9599  -22.2017   -9.1836 O   0  0  0  0  0  0  0  0  0  0  0  0
   23.1373  -20.1271   -8.9678 O   0  0  0  0  0  0  0  0  0  0  0  0
  2  1  1  6
  2  8  1  0
  2  3  1  0
  3  4  1  0
  4  5  1  0
  5  6  1  0
  6  7  1  0
  8 10  1  0
  9  8  2  0
 10 14  1  0
 10 11  1  0
 12 11  1  0
 13 12  1  0
 13 14  1  0
 14 15  1  1
 15 22  1  0
 15 16  2  0
 18 17  1  6
 18 20  1  0
 19 18  1  0
 21 23  1  0
 21 20  1  6
 22 21  1  0
 23 24  1  0
 25 23  2  0
M  END
$$$$
