KPL.pdb
     RDKit          3D

 25 25  0  0  1  0  0  0  0  0999 V2000
   27.4377  -20.6334  -16.9531 N   0  0  0  0  0  0  0  0  0  0  0  0
   27.9183  -19.8683  -15.8038 C   0  0  1  0  0  0  0  0  0  0  0  0
   27.3308  -18.5021  -15.8929 C   0  0  0  0  0  0  0  0  0  0  0  0
   27.3797  -17.8130  -17.2005 C   0  0  0  0  0  0  0  0  0  0  0  0
   26.1389  -17.9017  -18.0355 C   0  0  0  0  0  0  0  0  0  0  0  0
   26.3556  -17.0880  -19.3191 C   0  0  0  0  0  0  0  0  0  0  0  0
   25.1369  -17.1996  -20.0968 N   0  0  0  0  0  0  0  0  0  0  0  0
   27.5836  -20.5857  -14.5536 C   0  0  0  0  0  0  0  0  0  0  0  0
   26.5989  -21.3961  -14.6238 O   0  0  0  0  0  0  0  0  0  0  0  0
   28.3040  -20.3916  -13.3621 N   0  0  0  0  0  0  0  0  0  0  0  0
   29.5352  -19.5889  -13.3253 C   0  0  0  0  0  0  0  0  0  0  0  0
   30.4029  -20.3481  -12.3656 C   0  0  0  0  0  0  0  0  0  0  0  0
   29.4015  -20.7384  -11.2939 C   0  0  0  0  0  0  0  0  0  0  0  0
   28.0852  -20.8473  -12.0266 C   0  0  1  0  0  0  0  0  0  0  0  0
   26.9953  -20.1188  -11.3346 C   0  0  0  0  0  0  0  0  0  0  0  0
   26.7188  -18.9549  -11.7231 O   0  0  0  0  0  0  0  0  0  0  0  0
   22.4451  -18.9751  -11.7479 C   0  0  0  0  0  0  0  0  0  0  0  0
   22.6420  -20.4939  -11.4967 C   0  0  1  0  0  0  0  0  0  0  0  0
   21.9987  -21.1401  -12.7007 C   0  0  0  0  0  0  0  0  0  0  0  0
   24.0996  -20.7080  -11.3542 C   0  0  0  0  0  0  0  0  0  0  0  0
   24.7858  -20.3651  -10.0958 C   0  0  2  0  0  0  0  0  0  0  0  0
   26.2506  -20.6579  -10.2646 N   0  0  0  0  0  0  0  0  0  0  0  0
   24.3502  -20.9457   -8.8537 C   0  0  0  0  0  0  0  0  0  0  0  0
   24.8291  -22.1037   -8.3172 O   0  0  0  0  0  0  0  0  0  0  0  0
   23.4337  -20.3546   -8.1732 O   0  0  0  0  0  0  0  0  0  0  0  0
  2  1  1  6
  2  8  1  0
  2  3  1  0
  3  4  1  0
  4  5  1  0
  5  6  1  0
  6  7  1  0
  8 10  1  0
  9  8  2  0
 10 14  1  0
 10 11  1  0
 12 11  1  0
 13 12  1  0
 13 14  1  0
 14 15  1  1
 15 22  1  0
 15 16  2  0
 18 17  1  6
 18 20  1  0
 19 18  1  0
 21 23  1  0
 21 20  1  6
 22 21  1  0
 23 24  1  0
 25 23  2  0
M  END
$$$$
