KPL.pdb
     RDKit          3D

 25 25  0  0  1  0  0  0  0  0999 V2000
   28.1769  -20.2890  -17.0289 N   0  0  0  0  0  0  0  0  0  0  0  0
   28.4953  -19.7209  -15.7200 C   0  0  1  0  0  0  0  0  0  0  0  0
   27.9119  -18.3510  -15.6681 C   0  0  0  0  0  0  0  0  0  0  0  0
   28.2745  -17.4045  -16.7449 C   0  0  0  0  0  0  0  0  0  0  0  0
   27.5518  -17.5822  -18.0453 C   0  0  0  0  0  0  0  0  0  0  0  0
   26.6024  -16.3920  -18.2422 C   0  0  0  0  0  0  0  0  0  0  0  0
   27.1265  -15.6166  -19.3497 N   0  0  0  0  0  0  0  0  0  0  0  0
   28.0058  -20.6229  -14.6539 C   0  0  0  0  0  0  0  0  0  0  0  0
   27.0670  -21.4216  -14.9885 O   0  0  0  0  0  0  0  0  0  0  0  0
   28.5404  -20.6061  -13.3538 N   0  0  0  0  0  0  0  0  0  0  0  0
   29.7365  -19.8188  -13.0200 C   0  0  0  0  0  0  0  0  0  0  0  0
   30.4700  -20.7113  -12.0631 C   0  0  0  0  0  0  0  0  0  0  0  0
   29.3311  -21.2530  -11.2187 C   0  0  0  0  0  0  0  0  0  0  0  0
   28.1384  -21.2520  -12.1454 C   0  0  1  0  0  0  0  0  0  0  0  0
   26.9445  -20.6313  -11.5234 C   0  0  0  0  0  0  0  0  0  0  0  0
   26.8427  -19.3780  -11.5540 O   0  0  0  0  0  0  0  0  0  0  0  0
   22.2557  -19.2695  -12.1958 C   0  0  0  0  0  0  0  0  0  0  0  0
   22.2440  -20.7536  -11.7418 C   0  0  1  0  0  0  0  0  0  0  0  0
   21.3564  -21.4301  -12.7594 C   0  0  0  0  0  0  0  0  0  0  0  0
   23.6563  -21.1963  -11.7254 C   0  0  0  0  0  0  0  0  0  0  0  0
   24.5606  -20.7694  -10.6428 C   0  0  2  0  0  0  0  0  0  0  0  0
   25.9157  -21.3677  -10.8993 N   0  0  0  0  0  0  0  0  0  0  0  0
   24.2112  -21.0171   -9.2694 C   0  0  0  0  0  0  0  0  0  0  0  0
   23.3062  -20.2978   -8.5472 O   0  0  0  0  0  0  0  0  0  0  0  0
   24.7834  -21.9819   -8.6415 O   0  0  0  0  0  0  0  0  0  0  0  0
  2  1  1  6
  2  8  1  0
  2  3  1  0
  3  4  1  0
  4  5  1  0
  5  6  1  0
  6  7  1  0
  8 10  1  0
  9  8  2  0
 10 14  1  0
 10 11  1  0
 12 11  1  0
 13 12  1  0
 13 14  1  0
 14 15  1  1
 15 22  1  0
 15 16  2  0
 18 17  1  6
 18 20  1  0
 19 18  1  0
 21 23  1  0
 21 20  1  6
 22 21  1  0
 23 24  1  0
 25 23  2  0
M  END
$$$$
