KPL.pdb
     RDKit          3D

 25 25  0  0  1  0  0  0  0  0999 V2000
   18.8801  -12.3151  -17.0668 N   0  0  0  0  0  0  0  0  0  0  0  0
   20.2722  -11.8701  -17.0308 C   0  0  1  0  0  0  0  0  0  0  0  0
   20.6186  -11.3596  -18.3869 C   0  0  0  0  0  0  0  0  0  0  0  0
   20.5368  -12.3037  -19.5221 C   0  0  0  0  0  0  0  0  0  0  0  0
   20.9852  -11.7736  -20.8498 C   0  0  0  0  0  0  0  0  0  0  0  0
   20.6719  -12.8235  -21.9252 C   0  0  0  0  0  0  0  0  0  0  0  0
   21.1302  -12.2789  -23.1885 N   0  0  0  0  0  0  0  0  0  0  0  0
   20.4480  -10.8737  -15.9509 C   0  0  0  0  0  0  0  0  0  0  0  0
   19.3934  -10.2475  -15.5947 O   0  0  0  0  0  0  0  0  0  0  0  0
   21.6960  -10.6310  -15.3508 N   0  0  0  0  0  0  0  0  0  0  0  0
   22.8932  -11.4011  -15.7184 C   0  0  0  0  0  0  0  0  0  0  0  0
   23.5951  -11.5788  -14.4046 C   0  0  0  0  0  0  0  0  0  0  0  0
   23.4101  -10.2108  -13.7737 C   0  0  0  0  0  0  0  0  0  0  0  0
   22.1127   -9.6985  -14.3529 C   0  0  1  0  0  0  0  0  0  0  0  0
   22.2350   -8.3132  -14.8662 C   0  0  0  0  0  0  0  0  0  0  0  0
   22.7372   -8.1446  -16.0071 O   0  0  0  0  0  0  0  0  0  0  0  0
   19.5501   -3.9123  -13.9562 C   0  0  0  0  0  0  0  0  0  0  0  0
   19.4178   -5.2843  -14.6696 C   0  0  1  0  0  0  0  0  0  0  0  0
   18.1652   -5.1345  -15.5000 C   0  0  0  0  0  0  0  0  0  0  0  0
   20.6726   -5.4827  -15.4290 C   0  0  0  0  0  0  0  0  0  0  0  0
   21.9309   -5.7902  -14.7261 C   0  0  2  0  0  0  0  0  0  0  0  0
   21.8196   -7.1730  -14.1468 N   0  0  0  0  0  0  0  0  0  0  0  0
   22.4188   -4.9091  -13.6988 C   0  0  0  0  0  0  0  0  0  0  0  0
   22.4654   -5.2032  -12.3686 O   0  0  0  0  0  0  0  0  0  0  0  0
   22.8468   -3.7419  -14.0258 O   0  0  0  0  0  0  0  0  0  0  0  0
  2  1  1  6
  2  8  1  0
  2  3  1  0
  3  4  1  0
  4  5  1  0
  5  6  1  0
  6  7  1  0
  8 10  1  0
  9  8  2  0
 10 14  1  0
 10 11  1  0
 12 11  1  0
 13 12  1  0
 13 14  1  0
 14 15  1  6
 15 22  1  0
 15 16  2  0
 18 17  1  6
 18 20  1  0
 19 18  1  0
 21 23  1  0
 21 20  1  1
 22 21  1  0
 23 24  1  0
 25 23  2  0
M  END
$$$$
