KPL.pdb
     RDKit          3D

 25 25  0  0  1  0  0  0  0  0999 V2000
   18.6066  -12.7746  -19.5894 N   0  0  0  0  0  0  0  0  0  0  0  0
   17.9245  -11.5581  -19.1507 C   0  0  1  0  0  0  0  0  0  0  0  0
   17.0189  -11.9282  -18.0270 C   0  0  0  0  0  0  0  0  0  0  0  0
   15.9961  -12.9665  -18.2774 C   0  0  0  0  0  0  0  0  0  0  0  0
   16.0471  -14.1668  -17.3822 C   0  0  0  0  0  0  0  0  0  0  0  0
   14.8744  -15.0912  -17.7386 C   0  0  0  0  0  0  0  0  0  0  0  0
   14.9350  -16.2160  -16.8254 N   0  0  0  0  0  0  0  0  0  0  0  0
   18.9251  -10.5257  -18.8006 C   0  0  0  0  0  0  0  0  0  0  0  0
   20.1218  -10.9424  -18.6401 O   0  0  0  0  0  0  0  0  0  0  0  0
   18.5838   -9.1696  -18.6555 N   0  0  0  0  0  0  0  0  0  0  0  0
   17.2128   -8.6892  -18.8823 C   0  0  0  0  0  0  0  0  0  0  0  0
   17.4274   -7.3673  -19.5582 C   0  0  0  0  0  0  0  0  0  0  0  0
   18.5922   -6.8053  -18.7637 C   0  0  0  0  0  0  0  0  0  0  0  0
   19.3536   -8.0223  -18.2947 C   0  0  1  0  0  0  0  0  0  0  0  0
   19.6681   -7.9647  -16.8471 C   0  0  0  0  0  0  0  0  0  0  0  0
   19.0834   -8.7718  -16.0797 O   0  0  0  0  0  0  0  0  0  0  0  0
   22.2287   -9.9824  -13.3323 C   0  0  0  0  0  0  0  0  0  0  0  0
   23.0459   -9.3642  -14.4980 C   0  0  1  0  0  0  0  0  0  0  0  0
   23.8271  -10.5353  -15.0452 C   0  0  0  0  0  0  0  0  0  0  0  0
   22.0615   -8.7596  -15.4233 C   0  0  0  0  0  0  0  0  0  0  0  0
   21.4719   -7.4411  -15.1298 C   0  0  2  0  0  0  0  0  0  0  0  0
   20.5867   -7.0553  -16.2820 N   0  0  0  0  0  0  0  0  0  0  0  0
   22.3216   -6.3223  -14.8199 C   0  0  0  0  0  0  0  0  0  0  0  0
   22.5762   -5.8530  -13.5657 O   0  0  0  0  0  0  0  0  0  0  0  0
   22.8975   -5.6885  -15.7786 O   0  0  0  0  0  0  0  0  0  0  0  0
  2  1  1  1
  2  8  1  0
  2  3  1  0
  3  4  1  0
  4  5  1  0
  5  6  1  0
  6  7  1  0
  8 10  1  0
  9  8  2  0
 10 14  1  0
 10 11  1  0
 12 11  1  0
 13 12  1  0
 13 14  1  0
 14 15  1  1
 15 22  1  0
 15 16  2  0
 18 17  1  1
 18 20  1  0
 19 18  1  0
 21 23  1  0
 21 20  1  6
 22 21  1  0
 23 24  1  0
 25 23  2  0
M  END
$$$$
