KPL.pdb
     RDKit          3D

 25 25  0  0  1  0  0  0  0  0999 V2000
   12.7130  -24.9151   -4.4622 N   0  0  0  0  0  0  0  0  0  0  0  0
   14.0855  -24.6090   -4.0624 C   0  0  1  0  0  0  0  0  0  0  0  0
   14.1554  -23.1504   -3.7669 C   0  0  0  0  0  0  0  0  0  0  0  0
   13.8560  -22.2077   -4.8662 C   0  0  0  0  0  0  0  0  0  0  0  0
   12.4360  -21.7393   -4.9602 C   0  0  0  0  0  0  0  0  0  0  0  0
   12.3381  -20.7023   -6.0880 C   0  0  0  0  0  0  0  0  0  0  0  0
   10.9581  -20.2592   -6.1313 N   0  0  0  0  0  0  0  0  0  0  0  0
   14.4765  -25.4716   -2.9254 C   0  0  0  0  0  0  0  0  0  0  0  0
   13.5181  -25.9066   -2.2019 O   0  0  0  0  0  0  0  0  0  0  0  0
   15.8178  -25.7961   -2.6572 N   0  0  0  0  0  0  0  0  0  0  0  0
   16.9241  -25.2073   -3.4262 C   0  0  0  0  0  0  0  0  0  0  0  0
   17.8835  -26.3520   -3.5649 C   0  0  0  0  0  0  0  0  0  0  0  0
   17.8140  -26.9761   -2.1831 C   0  0  0  0  0  0  0  0  0  0  0  0
   16.4184  -26.6652   -1.6965 C   0  0  1  0  0  0  0  0  0  0  0  0
   16.4138  -26.1063   -0.3235 C   0  0  0  0  0  0  0  0  0  0  0  0
   16.7945  -24.9180   -0.1646 O   0  0  0  0  0  0  0  0  0  0  0  0
   12.9282  -24.5992    3.7231 C   0  0  0  0  0  0  0  0  0  0  0  0
   14.3406  -25.2294    3.8523 C   0  0  1  0  0  0  0  0  0  0  0  0
   14.2024  -26.1763    5.0207 C   0  0  0  0  0  0  0  0  0  0  0  0
   14.6377  -25.8593    2.5462 C   0  0  0  0  0  0  0  0  0  0  0  0
   16.0209  -26.2210    2.1884 C   0  0  2  0  0  0  0  0  0  0  0  0
   16.0063  -26.8326    0.8152 N   0  0  0  0  0  0  0  0  0  0  0  0
   16.7916  -27.0739    3.0535 C   0  0  0  0  0  0  0  0  0  0  0  0
   17.0204  -28.4017    2.8469 O   0  0  0  0  0  0  0  0  0  0  0  0
   17.3154  -26.5781    4.1176 O   0  0  0  0  0  0  0  0  0  0  0  0
  2  1  1  1
  2  8  1  0
  2  3  1  0
  3  4  1  0
  4  5  1  0
  5  6  1  0
  6  7  1  0
  8 10  1  0
  9  8  2  0
 10 14  1  0
 10 11  1  0
 12 11  1  0
 13 12  1  0
 13 14  1  0
 14 15  1  1
 15 22  1  0
 15 16  2  0
 18 17  1  6
 18 20  1  0
 19 18  1  0
 21 23  1  0
 21 20  1  1
 22 21  1  0
 23 24  1  0
 25 23  2  0
M  END
$$$$
