PPM.pdb
     RDKit          3D

 23 24  0  0  1  0  0  0  0  0999 V2000
    9.6529  -17.9673   18.0164 N   0  0  0  0  0  0  0  0  0  0  0  0
    8.8698  -18.9334   17.2800 C   0  0  0  0  0  0  0  0  0  0  0  0
    7.7979  -19.2618   18.3258 C   0  0  0  0  0  0  0  0  0  0  0  0
    7.4984  -17.8639   18.8563 C   0  0  0  0  0  0  0  0  0  0  0  0
    8.6380  -16.9793   18.4066 C   0  0  1  0  0  0  0  0  0  0  0  0
    9.1616  -16.1062   19.4559 C   0  0  0  0  0  0  0  0  0  0  0  0
   10.2531  -16.3677   19.9906 O   0  0  0  0  0  0  0  0  0  0  0  0
    8.4502  -14.9503   19.8888 N   0  0  0  0  0  0  0  0  0  0  0  0
    7.2437  -14.5356   19.2261 C   0  0  0  0  0  0  0  0  0  0  0  0
    6.8548  -13.2266   19.8349 C   0  0  0  0  0  0  0  0  0  0  0  0
    8.1444  -12.7356   20.5179 C   0  0  0  0  0  0  0  0  0  0  0  0
    8.7517  -14.0478   20.9395 C   0  0  1  0  0  0  0  0  0  0  0  0
    8.4158  -14.4510   22.3069 C   0  0  0  0  0  0  0  0  0  0  0  0
    7.2926  -15.0086   22.4338 O   0  0  0  0  0  0  0  0  0  0  0  0
    6.7947  -10.9668   27.6718 C   0  0  0  0  0  0  0  0  0  0  0  0
    5.9486  -12.4114   27.0283 S   0  0  0  0  0  0  0  0  0  0  0  0
    7.1167  -13.7157   26.5543 C   0  0  0  0  0  0  0  0  0  0  0  0
    7.4992  -13.5926   25.1031 C   0  0  0  0  0  0  0  0  0  0  0  0
    8.7992  -14.3463   24.8265 C   0  0  2  0  0  0  0  0  0  0  0  0
    9.2066  -14.2757   23.4445 N   0  0  0  0  0  0  0  0  0  0  0  0
    8.5961  -15.7298   25.2760 C   0  0  0  0  0  0  0  0  0  0  0  0
    8.0924  -16.6043   24.5158 O   0  0  0  0  0  0  0  0  0  0  0  0
    8.9698  -16.0850   26.5764 O   0  0  0  0  0  0  0  0  0  0  0  0
  1  2  1  0
  2  3  1  0
  4  3  1  0
  5  4  1  0
  5  1  1  0
  5  6  1  1
  6  7  2  0
  8  6  1  0
  9  8  1  0
 10 11  1  0
 10  9  1  0
 11 12  1  0
 12  8  1  0
 12 13  1  1
 13 20  1  0
 14 13  2  0
 16 17  1  0
 16 15  1  0
 18 17  1  0
 19 18  1  6
 19 21  1  0
 20 19  1  0
 21 22  2  0
 21 23  1  0
M  END
$$$$
