PPM.pdb
     RDKit          3D

 23 24  0  0  1  0  0  0  0  0999 V2000
    7.0512  -14.8140   19.5659 N   0  0  0  0  0  0  0  0  0  0  0  0
    7.2259  -13.8227   18.5287 C   0  0  0  0  0  0  0  0  0  0  0  0
    7.5064  -12.5838   19.3873 C   0  0  0  0  0  0  0  0  0  0  0  0
    8.4479  -13.1814   20.4274 C   0  0  0  0  0  0  0  0  0  0  0  0
    8.2972  -14.6820   20.3330 C   0  0  1  0  0  0  0  0  0  0  0  0
    8.1652  -15.3481   21.6278 C   0  0  0  0  0  0  0  0  0  0  0  0
    7.1229  -15.2094   22.2912 O   0  0  0  0  0  0  0  0  0  0  0  0
    9.2073  -16.1617   22.1581 N   0  0  0  0  0  0  0  0  0  0  0  0
   10.3431  -16.5225   21.3539 C   0  0  0  0  0  0  0  0  0  0  0  0
   11.1475  -17.4866   22.1657 C   0  0  0  0  0  0  0  0  0  0  0  0
   10.1624  -17.9811   23.2407 C   0  0  0  0  0  0  0  0  0  0  0  0
    9.3305  -16.7424   23.4454 C   0  0  1  0  0  0  0  0  0  0  0  0
    9.7903  -15.8871   24.5419 C   0  0  0  0  0  0  0  0  0  0  0  0
   10.8844  -15.2980   24.3311 O   0  0  0  0  0  0  0  0  0  0  0  0
    5.8491  -11.0278   25.8886 C   0  0  0  0  0  0  0  0  0  0  0  0
    6.5104  -12.1728   27.1005 S   0  0  0  0  0  0  0  0  0  0  0  0
    7.8657  -13.1645   26.4151 C   0  0  0  0  0  0  0  0  0  0  0  0
    8.5017  -14.0152   27.4825 C   0  0  0  0  0  0  0  0  0  0  0  0
    9.5990  -14.8938   26.8835 C   0  0  2  0  0  0  0  0  0  0  0  0
    9.1423  -15.6760   25.7608 N   0  0  0  0  0  0  0  0  0  0  0  0
   10.1172  -15.7332   27.9717 C   0  0  0  0  0  0  0  0  0  0  0  0
    9.9046  -16.9781   28.0043 O   0  0  0  0  0  0  0  0  0  0  0  0
   10.8631  -15.1380   28.9945 O   0  0  0  0  0  0  0  0  0  0  0  0
  1  2  1  0
  2  3  1  0
  4  3  1  0
  5  4  1  0
  5  1  1  0
  5  6  1  1
  6  7  2  0
  8  6  1  0
  9  8  1  0
 10 11  1  0
 10  9  1  0
 11 12  1  0
 12  8  1  0
 12 13  1  1
 13 20  1  0
 14 13  2  0
 16 17  1  0
 16 15  1  0
 18 17  1  0
 19 18  1  1
 19 21  1  0
 20 19  1  0
 21 22  2  0
 21 23  1  0
M  END
$$$$
