PPM.pdb
     RDKit          3D

 23 24  0  0  1  0  0  0  0  0999 V2000
    7.4058  -18.5388   18.9678 N   0  0  0  0  0  0  0  0  0  0  0  0
    6.1503  -19.2528   18.9128 C   0  0  0  0  0  0  0  0  0  0  0  0
    5.6933  -19.1028   20.3686 C   0  0  0  0  0  0  0  0  0  0  0  0
    6.0515  -17.6415   20.6167 C   0  0  0  0  0  0  0  0  0  0  0  0
    6.9972  -17.2360   19.5101 C   0  0  1  0  0  0  0  0  0  0  0  0
    8.1681  -16.4926   19.9724 C   0  0  0  0  0  0  0  0  0  0  0  0
    9.2691  -17.0637   20.0578 O   0  0  0  0  0  0  0  0  0  0  0  0
    8.0845  -15.1166   20.3316 N   0  0  0  0  0  0  0  0  0  0  0  0
    6.8755  -14.3696   20.1138 C   0  0  0  0  0  0  0  0  0  0  0  0
    7.1871  -12.9492   20.4612 C   0  0  0  0  0  0  0  0  0  0  0  0
    8.7252  -12.8862   20.4273 C   0  0  0  0  0  0  0  0  0  0  0  0
    9.0700  -14.2730   20.9029 C   0  0  1  0  0  0  0  0  0  0  0  0
    9.3026  -14.3704   22.3457 C   0  0  0  0  0  0  0  0  0  0  0  0
   10.3665  -13.8278   22.7485 O   0  0  0  0  0  0  0  0  0  0  0  0
    5.7958  -10.9680   26.9762 C   0  0  0  0  0  0  0  0  0  0  0  0
    5.8129  -12.7147   26.5696 S   0  0  0  0  0  0  0  0  0  0  0  0
    7.3538  -13.1945   25.7414 C   0  0  0  0  0  0  0  0  0  0  0  0
    7.3856  -14.6778   25.4839 C   0  0  0  0  0  0  0  0  0  0  0  0
    8.6481  -15.0601   24.7126 C   0  0  2  0  0  0  0  0  0  0  0  0
    8.4747  -14.9931   23.2822 N   0  0  0  0  0  0  0  0  0  0  0  0
    9.0349  -16.4035   25.1633 C   0  0  0  0  0  0  0  0  0  0  0  0
    9.4240  -16.6170   26.3462 O   0  0  0  0  0  0  0  0  0  0  0  0
    8.9699  -17.4696   24.2599 O   0  0  0  0  0  0  0  0  0  0  0  0
  1  2  1  0
  2  3  1  0
  4  3  1  0
  5  4  1  0
  5  1  1  0
  5  6  1  1
  6  7  2  0
  8  6  1  0
  9  8  1  0
 10 11  1  0
 10  9  1  0
 11 12  1  0
 12  8  1  0
 12 13  1  1
 13 20  1  0
 14 13  2  0
 16 17  1  0
 16 15  1  0
 18 17  1  0
 19 18  1  1
 19 21  1  0
 20 19  1  0
 21 22  2  0
 21 23  1  0
M  END
$$$$
