PPM.pdb
     RDKit          3D

 23 24  0  0  1  0  0  0  0  0999 V2000
    9.5699  -17.9866   18.2012 N   0  0  0  0  0  0  0  0  0  0  0  0
    8.7953  -18.9254   17.4218 C   0  0  0  0  0  0  0  0  0  0  0  0
    7.6881  -19.2593   18.4284 C   0  0  0  0  0  0  0  0  0  0  0  0
    7.3930  -17.8683   18.9792 C   0  0  0  0  0  0  0  0  0  0  0  0
    8.5581  -16.9918   18.5821 C   0  0  1  0  0  0  0  0  0  0  0  0
    9.0626  -16.1485   19.6646 C   0  0  0  0  0  0  0  0  0  0  0  0
   10.1465  -16.4227   20.2083 O   0  0  0  0  0  0  0  0  0  0  0  0
    8.3411  -15.0078   20.1201 N   0  0  0  0  0  0  0  0  0  0  0  0
    7.1435  -14.5771   19.4514 C   0  0  0  0  0  0  0  0  0  0  0  0
    6.7412  -13.2876   20.0921 C   0  0  0  0  0  0  0  0  0  0  0  0
    8.0186  -12.8132   20.8088 C   0  0  0  0  0  0  0  0  0  0  0  0
    8.6237  -14.1355   21.2011 C   0  0  1  0  0  0  0  0  0  0  0  0
    8.2683  -14.5794   22.5509 C   0  0  0  0  0  0  0  0  0  0  0  0
    7.1425  -15.1382   22.6454 O   0  0  0  0  0  0  0  0  0  0  0  0
    5.6280  -11.3005   26.5720 C   0  0  0  0  0  0  0  0  0  0  0  0
    7.2435  -11.8462   27.1280 S   0  0  0  0  0  0  0  0  0  0  0  0
    7.4456  -13.6391   26.9408 C   0  0  0  0  0  0  0  0  0  0  0  0
    7.3765  -14.0387   25.4906 C   0  0  0  0  0  0  0  0  0  0  0  0
    8.6682  -14.7353   25.0653 C   0  0  2  0  0  0  0  0  0  0  0  0
    9.0436  -14.4405   23.7040 N   0  0  0  0  0  0  0  0  0  0  0  0
    8.4727  -16.1738   25.2888 C   0  0  0  0  0  0  0  0  0  0  0  0
    7.7867  -16.8784   24.4956 O   0  0  0  0  0  0  0  0  0  0  0  0
    9.0607  -16.7752   26.4066 O   0  0  0  0  0  0  0  0  0  0  0  0
  1  2  1  0
  2  3  1  0
  4  3  1  0
  5  4  1  0
  5  1  1  0
  5  6  1  1
  6  7  2  0
  8  6  1  0
  9  8  1  0
 10 11  1  0
 10  9  1  0
 11 12  1  0
 12  8  1  0
 12 13  1  1
 13 20  1  0
 14 13  2  0
 16 17  1  0
 16 15  1  0
 18 17  1  0
 19 18  1  6
 19 21  1  0
 20 19  1  0
 21 22  2  0
 21 23  1  0
M  END
$$$$
