PPM.pdb
     RDKit          3D

 23 24  0  0  1  0  0  0  0  0999 V2000
    7.2498  -14.9564   19.6456 N   0  0  0  0  0  0  0  0  0  0  0  0
    7.4086  -13.9866   18.5858 C   0  0  0  0  0  0  0  0  0  0  0  0
    7.4405  -12.6936   19.4090 C   0  0  0  0  0  0  0  0  0  0  0  0
    8.3336  -13.1296   20.5655 C   0  0  0  0  0  0  0  0  0  0  0  0
    8.3815  -14.6394   20.5271 C   0  0  1  0  0  0  0  0  0  0  0  0
    8.1970  -15.2726   21.8319 C   0  0  0  0  0  0  0  0  0  0  0  0
    7.1578  -15.0611   22.4807 O   0  0  0  0  0  0  0  0  0  0  0  0
    9.1841  -16.1359   22.3887 N   0  0  0  0  0  0  0  0  0  0  0  0
   10.3022  -16.5817   21.6026 C   0  0  0  0  0  0  0  0  0  0  0  0
   11.0406  -17.5746   22.4416 C   0  0  0  0  0  0  0  0  0  0  0  0
   10.0192  -17.9856   23.5180 C   0  0  0  0  0  0  0  0  0  0  0  0
    9.2621  -16.6949   23.6890 C   0  0  1  0  0  0  0  0  0  0  0  0
    9.7642  -15.8453   24.7712 C   0  0  0  0  0  0  0  0  0  0  0  0
   10.8575  -15.2675   24.5273 O   0  0  0  0  0  0  0  0  0  0  0  0
    5.6154  -11.6759   26.6721 C   0  0  0  0  0  0  0  0  0  0  0  0
    6.8817  -12.7107   25.9356 S   0  0  0  0  0  0  0  0  0  0  0  0
    8.4194  -12.6739   26.8970 C   0  0  0  0  0  0  0  0  0  0  0  0
    8.5720  -13.9295   27.7141 C   0  0  0  0  0  0  0  0  0  0  0  0
    9.6451  -14.8340   27.1099 C   0  0  2  0  0  0  0  0  0  0  0  0
    9.1563  -15.6284   26.0096 N   0  0  0  0  0  0  0  0  0  0  0  0
   10.1718  -15.6624   28.2026 C   0  0  0  0  0  0  0  0  0  0  0  0
    9.9268  -16.9000   28.2706 O   0  0  0  0  0  0  0  0  0  0  0  0
   10.9627  -15.0648   29.1896 O   0  0  0  0  0  0  0  0  0  0  0  0
  1  2  1  0
  2  3  1  0
  4  3  1  0
  5  4  1  0
  5  1  1  0
  5  6  1  1
  6  7  2  0
  8  6  1  0
  9  8  1  0
 10 11  1  0
 10  9  1  0
 11 12  1  0
 12  8  1  0
 12 13  1  1
 13 20  1  0
 14 13  2  0
 16 17  1  0
 16 15  1  0
 18 17  1  0
 19 18  1  1
 19 21  1  0
 20 19  1  0
 21 22  2  0
 21 23  1  0
M  END
$$$$
