PPM.pdb
     RDKit          3D

 23 24  0  0  1  0  0  0  0  0999 V2000
    9.9485  -16.9993   18.8952 N   0  0  0  0  0  0  0  0  0  0  0  0
    9.2397  -17.7985   17.9217 C   0  0  0  0  0  0  0  0  0  0  0  0
    8.4019  -18.6785   18.8568 C   0  0  0  0  0  0  0  0  0  0  0  0
    7.9528  -17.6390   19.8781 C   0  0  0  0  0  0  0  0  0  0  0  0
    8.8501  -16.4374   19.6929 C   0  0  1  0  0  0  0  0  0  0  0  0
    9.3670  -15.8839   20.9434 C   0  0  0  0  0  0  0  0  0  0  0  0
   10.5906  -15.8900   21.1634 O   0  0  0  0  0  0  0  0  0  0  0  0
    8.5002  -15.3304   21.9292 N   0  0  0  0  0  0  0  0  0  0  0  0
    7.0893  -15.2038   21.6834 C   0  0  0  0  0  0  0  0  0  0  0  0
    6.5216  -14.4593   22.8490 C   0  0  0  0  0  0  0  0  0  0  0  0
    7.7480  -13.7911   23.4973 C   0  0  0  0  0  0  0  0  0  0  0  0
    8.8072  -14.8245   23.2173 C   0  0  1  0  0  0  0  0  0  0  0  0
    9.0053  -15.7880   24.3025 C   0  0  0  0  0  0  0  0  0  0  0  0
    8.5074  -16.9274   24.0968 O   0  0  0  0  0  0  0  0  0  0  0  0
   10.0744  -12.9985   30.4462 C   0  0  0  0  0  0  0  0  0  0  0  0
   11.1606  -14.1157   29.5579 S   0  0  0  0  0  0  0  0  0  0  0  0
   10.3062  -14.9229   28.1764 C   0  0  0  0  0  0  0  0  0  0  0  0
   11.2509  -15.8030   27.4015 C   0  0  0  0  0  0  0  0  0  0  0  0
   10.5248  -16.4704   26.2343 C   0  0  2  0  0  0  0  0  0  0  0  0
    9.6755  -15.5597   25.5063 N   0  0  0  0  0  0  0  0  0  0  0  0
    9.7759  -17.6058   26.7889 C   0  0  0  0  0  0  0  0  0  0  0  0
    8.5159  -17.5850   26.8799 O   0  0  0  0  0  0  0  0  0  0  0  0
   10.4763  -18.7352   27.2257 O   0  0  0  0  0  0  0  0  0  0  0  0
  1  2  1  0
  2  3  1  0
  4  3  1  0
  5  4  1  0
  5  1  1  0
  5  6  1  1
  6  7  2  0
  8  6  1  0
  9  8  1  0
 10 11  1  0
 10  9  1  0
 11 12  1  0
 12  8  1  0
 12 13  1  1
 13 20  1  0
 14 13  2  0
 16 17  1  0
 16 15  1  0
 18 17  1  0
 19 18  1  1
 19 21  1  0
 20 19  1  0
 21 22  2  0
 21 23  1  0
M  END
$$$$
