PPM.pdb
     RDKit          3D

 23 24  0  0  1  0  0  0  0  0999 V2000
    8.9247  -18.4623   19.5218 N   0  0  0  0  0  0  0  0  0  0  0  0
    7.9980  -19.5389   19.2549 C   0  0  0  0  0  0  0  0  0  0  0  0
    7.3397  -19.6730   20.6331 C   0  0  0  0  0  0  0  0  0  0  0  0
    7.1541  -18.2021   20.9899 C   0  0  0  0  0  0  0  0  0  0  0  0
    8.0393  -17.4161   20.0509 C   0  0  1  0  0  0  0  0  0  0  0  0
    8.8266  -16.3748   20.7093 C   0  0  0  0  0  0  0  0  0  0  0  0
   10.0498  -16.5311   20.8672 O   0  0  0  0  0  0  0  0  0  0  0  0
    8.2269  -15.1714   21.1802 N   0  0  0  0  0  0  0  0  0  0  0  0
    6.8087  -14.9622   21.0712 C   0  0  0  0  0  0  0  0  0  0  0  0
    6.5522  -13.5588   21.5181 C   0  0  0  0  0  0  0  0  0  0  0  0
    7.9318  -12.8811   21.4282 C   0  0  0  0  0  0  0  0  0  0  0  0
    8.8319  -14.0371   21.7774 C   0  0  1  0  0  0  0  0  0  0  0  0
    9.1823  -14.1151   23.1974 C   0  0  0  0  0  0  0  0  0  0  0  0
    9.5659  -13.0289   23.7088 O   0  0  0  0  0  0  0  0  0  0  0  0
    7.9401  -11.6117   26.8771 C   0  0  0  0  0  0  0  0  0  0  0  0
    6.4227  -12.5215   26.5828 S   0  0  0  0  0  0  0  0  0  0  0  0
    6.6937  -14.3139   26.6458 C   0  0  0  0  0  0  0  0  0  0  0  0
    7.0474  -14.8516   25.2844 C   0  0  0  0  0  0  0  0  0  0  0  0
    8.4721  -15.4040   25.2808 C   0  0  2  0  0  0  0  0  0  0  0  0
    9.1304  -15.2523   24.0063 N   0  0  0  0  0  0  0  0  0  0  0  0
    8.3874  -16.8096   25.6988 C   0  0  0  0  0  0  0  0  0  0  0  0
    8.0741  -17.1298   26.8801 O   0  0  0  0  0  0  0  0  0  0  0  0
    8.6603  -17.8151   24.7654 O   0  0  0  0  0  0  0  0  0  0  0  0
  1  2  1  0
  2  3  1  0
  4  3  1  0
  5  4  1  0
  5  1  1  0
  5  6  1  1
  6  7  2  0
  8  6  1  0
  9  8  1  0
 10 11  1  0
 10  9  1  0
 11 12  1  0
 12  8  1  0
 12 13  1  1
 13 20  1  0
 14 13  2  0
 16 17  1  0
 16 15  1  0
 18 17  1  0
 19 18  1  6
 19 21  1  0
 20 19  1  0
 21 22  2  0
 21 23  1  0
M  END
$$$$
