PPM.pdb
     RDKit          3D

 23 24  0  0  1  0  0  0  0  0999 V2000
    8.2398  -15.6676   19.8160 N   0  0  0  0  0  0  0  0  0  0  0  0
    7.2452  -16.4160   19.0815 C   0  0  0  0  0  0  0  0  0  0  0  0
    6.9362  -17.5206   20.0990 C   0  0  0  0  0  0  0  0  0  0  0  0
    6.8854  -16.7003   21.3835 C   0  0  0  0  0  0  0  0  0  0  0  0
    7.5397  -15.3740   21.0737 C   0  0  1  0  0  0  0  0  0  0  0  0
    8.4928  -14.9304   22.0897 C   0  0  0  0  0  0  0  0  0  0  0  0
    9.7009  -14.8445   21.8089 O   0  0  0  0  0  0  0  0  0  0  0  0
    8.0736  -14.5887   23.4077 N   0  0  0  0  0  0  0  0  0  0  0  0
    6.6772  -14.4977   23.7372 C   0  0  0  0  0  0  0  0  0  0  0  0
    6.6056  -13.9813   25.1384 C   0  0  0  0  0  0  0  0  0  0  0  0
    7.9952  -13.3635   25.3792 C   0  0  0  0  0  0  0  0  0  0  0  0
    8.8543  -14.2818   24.5503 C   0  0  1  0  0  0  0  0  0  0  0  0
    9.4374  -15.3960   25.3013 C   0  0  0  0  0  0  0  0  0  0  0  0
    8.5992  -16.1672   25.8410 O   0  0  0  0  0  0  0  0  0  0  0  0
   10.3805  -12.9756   29.4890 C   0  0  0  0  0  0  0  0  0  0  0  0
   10.4057  -14.7025   29.9728 S   0  0  0  0  0  0  0  0  0  0  0  0
   10.2868  -15.8024   28.5354 C   0  0  0  0  0  0  0  0  0  0  0  0
   11.5994  -15.8693   27.8004 C   0  0  0  0  0  0  0  0  0  0  0  0
   11.4163  -16.5357   26.4376 C   0  0  2  0  0  0  0  0  0  0  0  0
   10.7973  -15.6675   25.4662 N   0  0  0  0  0  0  0  0  0  0  0  0
   10.6398  -17.7622   26.6616 C   0  0  0  0  0  0  0  0  0  0  0  0
   11.1351  -18.7574   27.2621 O   0  0  0  0  0  0  0  0  0  0  0  0
    9.3214  -17.8274   26.1984 O   0  0  0  0  0  0  0  0  0  0  0  0
  1  2  1  0
  2  3  1  0
  4  3  1  0
  5  4  1  0
  5  1  1  0
  5  6  1  1
  6  7  2  0
  8  6  1  0
  9  8  1  0
 10 11  1  0
 10  9  1  0
 11 12  1  0
 12  8  1  0
 12 13  1  1
 13 20  1  0
 14 13  2  0
 16 17  1  0
 16 15  1  0
 18 17  1  0
 19 18  1  1
 19 21  1  0
 20 19  1  0
 21 22  2  0
 21 23  1  0
M  END
$$$$
