PPM.pdb
     RDKit          3D

 23 24  0  0  1  0  0  0  0  0999 V2000
    7.0809  -14.4272   19.1239 N   0  0  0  0  0  0  0  0  0  0  0  0
    7.4573  -13.4586   18.1193 C   0  0  0  0  0  0  0  0  0  0  0  0
    7.8884  -12.2942   19.0187 C   0  0  0  0  0  0  0  0  0  0  0  0
    8.6749  -13.0504   20.0840 C   0  0  0  0  0  0  0  0  0  0  0  0
    8.2951  -14.5065   19.9472 C   0  0  1  0  0  0  0  0  0  0  0  0
    7.9999  -15.1651   21.2187 C   0  0  0  0  0  0  0  0  0  0  0  0
    7.0035  -14.8200   21.8773 O   0  0  0  0  0  0  0  0  0  0  0  0
    8.8294  -16.2035   21.7315 N   0  0  0  0  0  0  0  0  0  0  0  0
    9.8405  -16.8129   20.9110 C   0  0  0  0  0  0  0  0  0  0  0  0
   10.4069  -17.9443   21.7074 C   0  0  0  0  0  0  0  0  0  0  0  0
    9.3459  -18.2040   22.7925 C   0  0  0  0  0  0  0  0  0  0  0  0
    8.8283  -16.8070   23.0141 C   0  0  1  0  0  0  0  0  0  0  0  0
    9.4874  -16.0912   24.1089 C   0  0  0  0  0  0  0  0  0  0  0  0
   10.6708  -15.7300   23.8689 O   0  0  0  0  0  0  0  0  0  0  0  0
    5.4295  -11.7582   25.4685 C   0  0  0  0  0  0  0  0  0  0  0  0
    6.6862  -12.2571   26.6469 S   0  0  0  0  0  0  0  0  0  0  0  0
    7.8331  -13.4665   25.9310 C   0  0  0  0  0  0  0  0  0  0  0  0
    8.8722  -13.8825   26.9383 C   0  0  0  0  0  0  0  0  0  0  0  0
    9.5822  -15.1557   26.4800 C   0  0  2  0  0  0  0  0  0  0  0  0
    8.9357  -15.7856   25.3549 N   0  0  0  0  0  0  0  0  0  0  0  0
    9.6605  -16.0456   27.6459 C   0  0  0  0  0  0  0  0  0  0  0  0
    9.0063  -17.1252   27.6981 O   0  0  0  0  0  0  0  0  0  0  0  0
   10.4792  -15.6873   28.7222 O   0  0  0  0  0  0  0  0  0  0  0  0
  1  2  1  0
  2  3  1  0
  4  3  1  0
  5  4  1  0
  5  1  1  0
  5  6  1  1
  6  7  2  0
  8  6  1  0
  9  8  1  0
 10 11  1  0
 10  9  1  0
 11 12  1  0
 12  8  1  0
 12 13  1  1
 13 20  1  0
 14 13  2  0
 16 17  1  0
 16 15  1  0
 18 17  1  0
 19 18  1  1
 19 21  1  0
 20 19  1  0
 21 22  2  0
 21 23  1  0
M  END
$$$$
