PPM.pdb
     RDKit          3D

 23 24  0  0  1  0  0  0  0  0999 V2000
   10.4117  -17.8175   18.4550 N   0  0  0  0  0  0  0  0  0  0  0  0
    9.8916  -18.9106   17.6655 C   0  0  0  0  0  0  0  0  0  0  0  0
    8.9255  -19.5362   18.6783 C   0  0  0  0  0  0  0  0  0  0  0  0
    8.2917  -18.2782   19.2622 C   0  0  0  0  0  0  0  0  0  0  0  0
    9.1846  -17.1241   18.8696 C   0  0  1  0  0  0  0  0  0  0  0  0
    9.4736  -16.1981   19.9634 C   0  0  0  0  0  0  0  0  0  0  0  0
   10.6130  -16.1635   20.4597 O   0  0  0  0  0  0  0  0  0  0  0  0
    8.4770  -15.3232   20.4836 N   0  0  0  0  0  0  0  0  0  0  0  0
    7.2056  -15.1806   19.8277 C   0  0  0  0  0  0  0  0  0  0  0  0
    6.4779  -14.0907   20.5473 C   0  0  0  0  0  0  0  0  0  0  0  0
    7.5863  -13.3450   21.3128 C   0  0  0  0  0  0  0  0  0  0  0  0
    8.5220  -14.4833   21.6246 C   0  0  1  0  0  0  0  0  0  0  0  0
    8.3020  -15.0967   22.9363 C   0  0  0  0  0  0  0  0  0  0  0  0
    7.2333  -15.7567   23.0398 O   0  0  0  0  0  0  0  0  0  0  0  0
    5.6060  -11.3642   26.4634 C   0  0  0  0  0  0  0  0  0  0  0  0
    6.9786  -11.8001   27.5324 S   0  0  0  0  0  0  0  0  0  0  0  0
    7.6339  -13.4461   27.1433 C   0  0  0  0  0  0  0  0  0  0  0  0
    8.0702  -13.5239   25.7042 C   0  0  0  0  0  0  0  0  0  0  0  0
    8.7772  -14.8505   25.4302 C   0  0  2  0  0  0  0  0  0  0  0  0
    9.1464  -15.0150   24.0456 N   0  0  0  0  0  0  0  0  0  0  0  0
    7.8821  -15.9172   25.8973 C   0  0  0  0  0  0  0  0  0  0  0  0
    6.7248  -16.0677   25.4134 O   0  0  0  0  0  0  0  0  0  0  0  0
    8.3236  -16.7855   26.9014 O   0  0  0  0  0  0  0  0  0  0  0  0
  1  2  1  0
  2  3  1  0
  4  3  1  0
  5  4  1  0
  5  1  1  0
  5  6  1  1
  6  7  2  0
  8  6  1  0
  9  8  1  0
 10 11  1  0
 10  9  1  0
 11 12  1  0
 12  8  1  0
 12 13  1  1
 13 20  1  0
 14 13  2  0
 16 17  1  0
 16 15  1  0
 18 17  1  0
 19 18  1  6
 19 21  1  0
 20 19  1  0
 21 22  2  0
 21 23  1  0
M  END
$$$$
