IVA.pdb
     RDKit          3D

 21 20  0  0  1  0  0  0  0  0999 V2000
    6.7740  -11.3638   27.7405 C   0  0  0  0  0  0  0  0  0  0  0  0
    5.8567  -12.2977   26.9261 C   0  0  0  0  0  0  0  0  0  0  0  0
    6.7877  -13.1844   26.1516 C   0  0  2  0  0  0  0  0  0  0  0  0
    7.8504  -12.3717   25.4452 C   0  0  0  0  0  0  0  0  0  0  0  0
    6.1066  -14.1556   25.2193 C   0  0  2  0  0  0  0  0  0  0  0  0
    5.3014  -15.0120   26.1154 N   0  0  0  0  0  0  0  0  0  0  0  0
    7.0125  -15.0429   24.4812 C   0  0  0  0  0  0  0  0  0  0  0  0
    7.4977  -16.0706   25.0649 O   0  0  0  0  0  0  0  0  0  0  0  0
    9.0951  -16.4933   20.1722 C   0  0  0  0  0  0  0  0  0  0  0  0
    8.2574  -15.5032   20.9585 C   0  0  1  0  0  0  0  0  0  0  0  0
    6.8691  -15.4189   20.4088 C   0  0  0  0  0  0  0  0  0  0  0  0
    8.2791  -15.8156   22.4408 C   0  0  2  0  0  0  0  0  0  0  0  0
    7.4225  -14.8733   23.1294 N   0  0  0  0  0  0  0  0  0  0  0  0
    9.6912  -15.6647   22.8941 C   0  0  0  0  0  0  0  0  0  0  0  0
   10.1955  -14.5291   23.0074 O   0  0  0  0  0  0  0  0  0  0  0  0
   11.9037  -16.9396   25.1612 C   0  0  0  0  0  0  0  0  0  0  0  0
   11.8464  -16.7091   23.6657 C   0  0  2  0  0  0  0  0  0  0  0  0
   10.4751  -16.7887   23.2001 N   0  0  0  0  0  0  0  0  0  0  0  0
   12.7300  -17.6524   22.9347 C   0  0  0  0  0  0  0  0  0  0  0  0
   12.3128  -18.5877   22.2330 O   0  0  0  0  0  0  0  0  0  0  0  0
   14.1029  -17.4788   23.0420 O   0  0  0  0  0  0  0  0  0  0  0  0
  2  3  1  0
  2  1  1  0
  3  5  1  0
  3  4  1  6
  5  7  1  0
  5  6  1  1
  7  8  2  0
 10  9  1  6
 10 11  1  0
 10 12  1  0
 12 14  1  0
 13  7  1  0
 12 13  1  1
 14 15  2  0
 17 16  1  1
 17 19  1  0
 18 17  1  0
 18 14  1  0
 19 20  2  0
 19 21  1  0
M  END
$$$$
