IVA.pdb
     RDKit          3D

 21 20  0  0  1  0  0  0  0  0999 V2000
    6.7476  -11.3388   27.7891 C   0  0  0  0  0  0  0  0  0  0  0  0
    5.8504  -12.3356   27.0290 C   0  0  0  0  0  0  0  0  0  0  0  0
    6.7962  -13.1871   26.2333 C   0  0  2  0  0  0  0  0  0  0  0  0
    7.8270  -12.3369   25.5236 C   0  0  0  0  0  0  0  0  0  0  0  0
    6.1312  -14.1666   25.2981 C   0  0  2  0  0  0  0  0  0  0  0  0
    5.3820  -15.0709   26.1956 N   0  0  0  0  0  0  0  0  0  0  0  0
    7.0530  -15.0032   24.5215 C   0  0  0  0  0  0  0  0  0  0  0  0
    7.6445  -15.9815   25.0920 O   0  0  0  0  0  0  0  0  0  0  0  0
    6.7790  -15.3188   20.3314 C   0  0  0  0  0  0  0  0  0  0  0  0
    8.1697  -15.3656   20.9350 C   0  0  1  0  0  0  0  0  0  0  0  0
    8.8800  -14.0629   20.7481 C   0  0  0  0  0  0  0  0  0  0  0  0
    8.1284  -15.8041   22.3844 C   0  0  2  0  0  0  0  0  0  0  0  0
    7.3687  -14.8341   23.1446 N   0  0  0  0  0  0  0  0  0  0  0  0
    9.5396  -15.8520   22.8624 C   0  0  0  0  0  0  0  0  0  0  0  0
   10.1506  -14.7951   23.1200 O   0  0  0  0  0  0  0  0  0  0  0  0
   11.7817  -18.5409   24.1611 C   0  0  0  0  0  0  0  0  0  0  0  0
   11.5694  -17.1930   23.5046 C   0  0  2  0  0  0  0  0  0  0  0  0
   10.2035  -17.0777   23.0307 N   0  0  0  0  0  0  0  0  0  0  0  0
   12.5504  -16.9571   22.4151 C   0  0  0  0  0  0  0  0  0  0  0  0
   12.2602  -16.9734   21.2082 O   0  0  0  0  0  0  0  0  0  0  0  0
   13.8690  -16.7034   22.7662 O   0  0  0  0  0  0  0  0  0  0  0  0
  2  3  1  0
  2  1  1  0
  3  5  1  0
  3  4  1  6
  5  7  1  0
  5  6  1  1
  7  8  2  0
 10  9  1  1
 10 11  1  0
 10 12  1  0
 12 14  1  0
 13  7  1  0
 12 13  1  1
 14 15  2  0
 17 16  1  6
 17 19  1  0
 18 17  1  0
 18 14  1  0
 19 20  2  0
 19 21  1  0
M  END
$$$$
