IVA.pdb
     RDKit          3D

 21 20  0  0  1  0  0  0  0  0999 V2000
    7.0606  -11.4825   28.0825 C   0  0  0  0  0  0  0  0  0  0  0  0
    6.0639  -12.2759   27.2144 C   0  0  0  0  0  0  0  0  0  0  0  0
    6.9145  -13.1500   26.3398 C   0  0  2  0  0  0  0  0  0  0  0  0
    8.0323  -12.3557   25.7005 C   0  0  0  0  0  0  0  0  0  0  0  0
    6.1503  -13.9658   25.3265 C   0  0  2  0  0  0  0  0  0  0  0  0
    5.2892  -14.8443   26.1458 N   0  0  0  0  0  0  0  0  0  0  0  0
    6.9766  -14.8405   24.4869 C   0  0  0  0  0  0  0  0  0  0  0  0
    7.5344  -15.8655   25.0072 O   0  0  0  0  0  0  0  0  0  0  0  0
    6.5976  -15.2600   20.2833 C   0  0  0  0  0  0  0  0  0  0  0  0
    7.9936  -15.1489   20.8656 C   0  0  1  0  0  0  0  0  0  0  0  0
    8.5504  -13.7752   20.6666 C   0  0  0  0  0  0  0  0  0  0  0  0
    8.0238  -15.5855   22.3159 C   0  0  2  0  0  0  0  0  0  0  0  0
    7.2307  -14.6611   23.0986 N   0  0  0  0  0  0  0  0  0  0  0  0
    9.4494  -15.5469   22.7499 C   0  0  0  0  0  0  0  0  0  0  0  0
   10.0245  -14.4524   22.9173 O   0  0  0  0  0  0  0  0  0  0  0  0
   11.7958  -18.0421   24.2185 C   0  0  0  0  0  0  0  0  0  0  0  0
   11.5379  -16.7632   23.4498 C   0  0  2  0  0  0  0  0  0  0  0  0
   10.1670  -16.7322   22.9771 N   0  0  0  0  0  0  0  0  0  0  0  0
   12.5063  -16.5915   22.3373 C   0  0  0  0  0  0  0  0  0  0  0  0
   12.2089  -16.7081   21.1377 O   0  0  0  0  0  0  0  0  0  0  0  0
   13.8211  -16.2824   22.6569 O   0  0  0  0  0  0  0  0  0  0  0  0
  2  3  1  0
  2  1  1  0
  3  5  1  0
  3  4  1  6
  5  7  1  0
  5  6  1  1
  7  8  2  0
 10  9  1  1
 10 11  1  0
 10 12  1  0
 12 14  1  0
 13  7  1  0
 12 13  1  1
 14 15  2  0
 17 16  1  6
 17 19  1  0
 18 17  1  0
 18 14  1  0
 19 20  2  0
 19 21  1  0
M  END
$$$$
