IVA.pdb
     RDKit          3D

 21 20  0  0  1  0  0  0  0  0999 V2000
    6.6332  -11.5697   27.9175 C   0  0  0  0  0  0  0  0  0  0  0  0
    5.7750  -12.5043   27.0420 C   0  0  0  0  0  0  0  0  0  0  0  0
    6.7599  -13.3451   26.2831 C   0  0  2  0  0  0  0  0  0  0  0  0
    7.8052  -12.4832   25.6099 C   0  0  0  0  0  0  0  0  0  0  0  0
    6.1418  -14.3343   25.3262 C   0  0  2  0  0  0  0  0  0  0  0  0
    5.3701  -15.2455   26.1973 N   0  0  0  0  0  0  0  0  0  0  0  0
    7.1017  -15.1618   24.5868 C   0  0  0  0  0  0  0  0  0  0  0  0
    7.5711  -16.2174   25.1323 O   0  0  0  0  0  0  0  0  0  0  0  0
    9.3497  -16.3408   20.2765 C   0  0  0  0  0  0  0  0  0  0  0  0
    8.4865  -15.4002   21.0954 C   0  0  1  0  0  0  0  0  0  0  0  0
    7.1269  -15.2552   20.4898 C   0  0  0  0  0  0  0  0  0  0  0  0
    8.4348  -15.8226   22.5493 C   0  0  2  0  0  0  0  0  0  0  0  0
    7.5826  -14.9028   23.2731 N   0  0  0  0  0  0  0  0  0  0  0  0
    9.8308  -15.7589   23.0685 C   0  0  0  0  0  0  0  0  0  0  0  0
   10.4482  -14.6747   23.0757 O   0  0  0  0  0  0  0  0  0  0  0  0
   12.1479  -18.1923   24.7623 C   0  0  0  0  0  0  0  0  0  0  0  0
   11.8663  -16.9413   23.9569 C   0  0  2  0  0  0  0  0  0  0  0  0
   10.4729  -16.9086   23.5556 N   0  0  0  0  0  0  0  0  0  0  0  0
   12.7768  -16.8285   22.7894 C   0  0  0  0  0  0  0  0  0  0  0  0
   12.5234  -17.2958   21.6675 O   0  0  0  0  0  0  0  0  0  0  0  0
   13.9818  -16.1618   22.9619 O   0  0  0  0  0  0  0  0  0  0  0  0
  2  3  1  0
  2  1  1  0
  3  5  1  0
  3  4  1  6
  5  7  1  0
  5  6  1  1
  7  8  2  0
 10  9  1  6
 10 11  1  0
 10 12  1  0
 12 14  1  0
 13  7  1  0
 12 13  1  1
 14 15  2  0
 17 16  1  6
 17 19  1  0
 18 17  1  0
 18 14  1  0
 19 20  2  0
 19 21  1  0
M  END
$$$$
