IVA.pdb
     RDKit          3D

 21 20  0  0  1  0  0  0  0  0999 V2000
    7.0096  -10.9494   27.8883 C   0  0  0  0  0  0  0  0  0  0  0  0
    6.0443  -11.8525   27.0952 C   0  0  0  0  0  0  0  0  0  0  0  0
    6.9240  -12.8433   26.3899 C   0  0  2  0  0  0  0  0  0  0  0  0
    8.0769  -12.1502   25.6976 C   0  0  0  0  0  0  0  0  0  0  0  0
    6.1971  -13.7894   25.4665 C   0  0  2  0  0  0  0  0  0  0  0  0
    5.3244  -14.5728   26.3662 N   0  0  0  0  0  0  0  0  0  0  0  0
    7.0560  -14.7486   24.7630 C   0  0  0  0  0  0  0  0  0  0  0  0
    7.4956  -15.7728   25.3876 O   0  0  0  0  0  0  0  0  0  0  0  0
    9.2414  -16.3333   20.5400 C   0  0  0  0  0  0  0  0  0  0  0  0
    8.4422  -15.2874   21.2934 C   0  0  1  0  0  0  0  0  0  0  0  0
    7.1487  -14.9985   20.6006 C   0  0  0  0  0  0  0  0  0  0  0  0
    8.2514  -15.6774   22.7448 C   0  0  2  0  0  0  0  0  0  0  0  0
    7.4657  -14.6554   23.4037 N   0  0  0  0  0  0  0  0  0  0  0  0
    9.6101  -15.7635   23.3520 C   0  0  0  0  0  0  0  0  0  0  0  0
   10.3201  -14.7419   23.4474 O   0  0  0  0  0  0  0  0  0  0  0  0
   11.5448  -18.4769   25.1045 C   0  0  0  0  0  0  0  0  0  0  0  0
   11.4368  -17.1426   24.3969 C   0  0  2  0  0  0  0  0  0  0  0  0
   10.1133  -16.9860   23.8247 N   0  0  0  0  0  0  0  0  0  0  0  0
   12.5002  -16.9813   23.3730 C   0  0  0  0  0  0  0  0  0  0  0  0
   12.3951  -17.3730   22.1996 O   0  0  0  0  0  0  0  0  0  0  0  0
   13.6809  -16.3563   23.7493 O   0  0  0  0  0  0  0  0  0  0  0  0
  2  3  1  0
  2  1  1  0
  3  5  1  0
  3  4  1  6
  5  7  1  0
  5  6  1  1
  7  8  2  0
 10  9  1  6
 10 11  1  0
 10 12  1  0
 12 14  1  0
 13  7  1  0
 12 13  1  1
 14 15  2  0
 17 16  1  6
 17 19  1  0
 18 17  1  0
 18 14  1  0
 19 20  2  0
 19 21  1  0
M  END
$$$$
