IVA.pdb
     RDKit          3D

 21 20  0  0  1  0  0  0  0  0999 V2000
  -10.6755  -24.3330   32.4381 C   0  0  0  0  0  0  0  0  0  0  0  0
   -9.7259  -23.1509   32.1596 C   0  0  0  0  0  0  0  0  0  0  0  0
   -8.9668  -23.5399   30.9247 C   0  0  2  0  0  0  0  0  0  0  0  0
   -8.4432  -24.9553   31.0318 C   0  0  0  0  0  0  0  0  0  0  0  0
   -7.8884  -22.5684   30.5130 C   0  0  2  0  0  0  0  0  0  0  0  0
   -8.6229  -21.3240   30.2024 N   0  0  0  0  0  0  0  0  0  0  0  0
   -7.1496  -22.9418   29.3016 C   0  0  0  0  0  0  0  0  0  0  0  0
   -7.7866  -23.1237   28.2091 O   0  0  0  0  0  0  0  0  0  0  0  0
   -4.7299  -21.0748   27.3144 C   0  0  0  0  0  0  0  0  0  0  0  0
   -4.0530  -22.3872   27.6607 C   0  0  1  0  0  0  0  0  0  0  0  0
   -3.0521  -22.2021   28.7563 C   0  0  0  0  0  0  0  0  0  0  0  0
   -5.0685  -23.4665   27.9753 C   0  0  2  0  0  0  0  0  0  0  0  0
   -5.7420  -23.1282   29.2115 N   0  0  0  0  0  0  0  0  0  0  0  0
   -4.3119  -24.7420   28.1256 C   0  0  0  0  0  0  0  0  0  0  0  0
   -3.6284  -24.9489   29.1487 O   0  0  0  0  0  0  0  0  0  0  0  0
   -3.9644  -27.8562   26.0182 C   0  0  0  0  0  0  0  0  0  0  0  0
   -3.6032  -26.9675   27.1898 C   0  0  2  0  0  0  0  0  0  0  0  0
   -4.3533  -25.7278   27.1266 N   0  0  0  0  0  0  0  0  0  0  0  0
   -2.1403  -26.7214   27.2561 C   0  0  0  0  0  0  0  0  0  0  0  0
   -1.5679  -25.7929   26.6632 O   0  0  0  0  0  0  0  0  0  0  0  0
   -1.3672  -27.5792   28.0260 O   0  0  0  0  0  0  0  0  0  0  0  0
  2  3  1  0
  2  1  1  0
  3  5  1  0
  3  4  1  1
  5  7  1  0
  5  6  1  6
  7  8  2  0
 10  9  1  1
 10 11  1  0
 10 12  1  0
 12 14  1  0
 13  7  1  0
 12 13  1  1
 14 15  2  0
 17 16  1  6
 17 19  1  0
 18 17  1  0
 18 14  1  0
 19 20  2  0
 19 21  1  0
M  END
$$$$
