IVA.pdb
     RDKit          3D

 21 20  0  0  1  0  0  0  0  0999 V2000
    7.0367  -11.3296   27.7350 C   0  0  0  0  0  0  0  0  0  0  0  0
    6.1109  -12.3497   27.0431 C   0  0  0  0  0  0  0  0  0  0  0  0
    7.0260  -13.2318   26.2448 C   0  0  2  0  0  0  0  0  0  0  0  0
    8.0167  -12.4096   25.4500 C   0  0  0  0  0  0  0  0  0  0  0  0
    6.3267  -14.2574   25.3874 C   0  0  2  0  0  0  0  0  0  0  0  0
    5.6406  -15.1337   26.3600 N   0  0  0  0  0  0  0  0  0  0  0  0
    7.2181  -15.1133   24.5963 C   0  0  0  0  0  0  0  0  0  0  0  0
    7.7559  -16.1348   25.1437 O   0  0  0  0  0  0  0  0  0  0  0  0
    9.2238  -16.3716   20.1814 C   0  0  0  0  0  0  0  0  0  0  0  0
    8.3882  -15.4273   21.0243 C   0  0  1  0  0  0  0  0  0  0  0  0
    7.0120  -15.2777   20.4582 C   0  0  0  0  0  0  0  0  0  0  0  0
    8.3771  -15.8485   22.4794 C   0  0  2  0  0  0  0  0  0  0  0  0
    7.5586  -14.9186   23.2287 N   0  0  0  0  0  0  0  0  0  0  0  0
    9.7892  -15.8007   22.9546 C   0  0  0  0  0  0  0  0  0  0  0  0
   10.4209  -14.7249   22.9361 O   0  0  0  0  0  0  0  0  0  0  0  0
   12.0353  -18.2281   24.7390 C   0  0  0  0  0  0  0  0  0  0  0  0
   11.7911  -16.9707   23.9315 C   0  0  2  0  0  0  0  0  0  0  0  0
   10.4308  -16.9562   23.4285 N   0  0  0  0  0  0  0  0  0  0  0  0
   12.7831  -16.8255   22.8361 C   0  0  0  0  0  0  0  0  0  0  0  0
   12.5554  -17.1251   21.6531 O   0  0  0  0  0  0  0  0  0  0  0  0
   14.0385  -16.3255   23.1529 O   0  0  0  0  0  0  0  0  0  0  0  0
  2  3  1  0
  2  1  1  0
  3  5  1  0
  3  4  1  6
  5  7  1  0
  5  6  1  1
  7  8  2  0
 10  9  1  6
 10 11  1  0
 10 12  1  0
 12 14  1  0
 13  7  1  0
 12 13  1  1
 14 15  2  0
 17 16  1  6
 17 19  1  0
 18 17  1  0
 18 14  1  0
 19 20  2  0
 19 21  1  0
M  END
$$$$
