IVA.pdb
     RDKit          3D

 21 20  0  0  1  0  0  0  0  0999 V2000
    6.9139  -11.4231   27.8133 C   0  0  0  0  0  0  0  0  0  0  0  0
    6.0193  -12.4516   27.0933 C   0  0  0  0  0  0  0  0  0  0  0  0
    6.9644  -13.3073   26.3013 C   0  0  2  0  0  0  0  0  0  0  0  0
    7.9426  -12.4574   25.5203 C   0  0  0  0  0  0  0  0  0  0  0  0
    6.2999  -14.3463   25.4324 C   0  0  2  0  0  0  0  0  0  0  0  0
    5.6326  -15.2483   26.3945 N   0  0  0  0  0  0  0  0  0  0  0  0
    7.2201  -15.1712   24.6414 C   0  0  0  0  0  0  0  0  0  0  0  0
    7.7873  -16.1777   25.1870 O   0  0  0  0  0  0  0  0  0  0  0  0
    9.1412  -16.4297   20.1935 C   0  0  0  0  0  0  0  0  0  0  0  0
    8.3824  -15.4463   21.0637 C   0  0  1  0  0  0  0  0  0  0  0  0
    7.0075  -15.2046   20.5272 C   0  0  0  0  0  0  0  0  0  0  0  0
    8.3734  -15.8844   22.5139 C   0  0  2  0  0  0  0  0  0  0  0  0
    7.5593  -14.9609   23.2758 N   0  0  0  0  0  0  0  0  0  0  0  0
    9.7867  -15.8462   22.9863 C   0  0  0  0  0  0  0  0  0  0  0  0
   10.4296  -14.7774   22.9553 O   0  0  0  0  0  0  0  0  0  0  0  0
   11.9807  -18.3125   24.7947 C   0  0  0  0  0  0  0  0  0  0  0  0
   11.7413  -17.0085   24.0630 C   0  0  2  0  0  0  0  0  0  0  0  0
   10.4170  -17.0032   23.4717 N   0  0  0  0  0  0  0  0  0  0  0  0
   12.7960  -16.7507   23.0500 C   0  0  0  0  0  0  0  0  0  0  0  0
   13.8594  -16.1586   23.2945 O   0  0  0  0  0  0  0  0  0  0  0  0
   12.5808  -17.1978   21.7538 O   0  0  0  0  0  0  0  0  0  0  0  0
  2  3  1  0
  2  1  1  0
  3  5  1  0
  3  4  1  6
  5  7  1  0
  5  6  1  1
  7  8  2  0
 10  9  1  6
 10 11  1  0
 10 12  1  0
 12 14  1  0
 13  7  1  0
 12 13  1  1
 14 15  2  0
 17 16  1  6
 17 19  1  0
 18 17  1  0
 18 14  1  0
 19 20  2  0
 19 21  1  0
M  END
$$$$
