IVA.pdb
     RDKit          3D

 21 20  0  0  1  0  0  0  0  0999 V2000
    7.9367  -11.7602   20.5055 C   0  0  0  0  0  0  0  0  0  0  0  0
    7.2670  -13.1024   20.8614 C   0  0  0  0  0  0  0  0  0  0  0  0
    8.2983  -14.1489   20.5548 C   0  0  2  0  0  0  0  0  0  0  0  0
    8.7314  -14.0774   19.1069 C   0  0  0  0  0  0  0  0  0  0  0  0
    7.9170  -15.5508   20.9617 C   0  0  2  0  0  0  0  0  0  0  0  0
    6.7031  -15.8392   20.1693 N   0  0  0  0  0  0  0  0  0  0  0  0
    7.5519  -15.7069   22.3742 C   0  0  0  0  0  0  0  0  0  0  0  0
    6.4353  -15.2444   22.7885 O   0  0  0  0  0  0  0  0  0  0  0  0
    7.4483  -18.1226   26.5637 C   0  0  0  0  0  0  0  0  0  0  0  0
    7.7450  -17.9261   25.0893 C   0  0  1  0  0  0  0  0  0  0  0  0
    6.7066  -18.5872   24.2401 C   0  0  0  0  0  0  0  0  0  0  0  0
    7.9262  -16.4602   24.7527 C   0  0  2  0  0  0  0  0  0  0  0  0
    8.3413  -16.3461   23.3704 N   0  0  0  0  0  0  0  0  0  0  0  0
    8.9858  -15.9355   25.6606 C   0  0  0  0  0  0  0  0  0  0  0  0
   10.1784  -16.2563   25.4837 O   0  0  0  0  0  0  0  0  0  0  0  0
    9.0217  -13.4155   28.4626 C   0  0  0  0  0  0  0  0  0  0  0  0
    9.6510  -14.5062   27.6216 C   0  0  2  0  0  0  0  0  0  0  0  0
    8.6648  -15.0767   26.7240 N   0  0  0  0  0  0  0  0  0  0  0  0
   10.2903  -15.5459   28.4673 C   0  0  0  0  0  0  0  0  0  0  0  0
    9.8279  -16.6867   28.6283 O   0  0  0  0  0  0  0  0  0  0  0  0
   11.4743  -15.2239   29.1160 O   0  0  0  0  0  0  0  0  0  0  0  0
  2  3  1  0
  2  1  1  0
  3  5  1  0
  3  4  1  6
  5  7  1  0
  5  6  1  6
  7  8  2  0
 10  9  1  1
 10 11  1  0
 10 12  1  0
 12 14  1  0
 13  7  1  0
 12 13  1  6
 14 15  2  0
 17 16  1  1
 17 19  1  0
 18 17  1  0
 18 14  1  0
 19 20  2  0
 19 21  1  0
M  END
$$$$
