IVA.pdb
     RDKit          3D

 21 20  0  0  1  0  0  0  0  0999 V2000
    6.6059  -11.4425   27.7351 C   0  0  0  0  0  0  0  0  0  0  0  0
    5.7987  -12.5316   27.0010 C   0  0  0  0  0  0  0  0  0  0  0  0
    6.8137  -13.3101   26.2158 C   0  0  2  0  0  0  0  0  0  0  0  0
    7.7190  -12.3862   25.4311 C   0  0  0  0  0  0  0  0  0  0  0  0
    6.2401  -14.4063   25.3524 C   0  0  2  0  0  0  0  0  0  0  0  0
    5.6352  -15.3475   26.3182 N   0  0  0  0  0  0  0  0  0  0  0  0
    7.2291  -15.1654   24.5788 C   0  0  0  0  0  0  0  0  0  0  0  0
    7.8329  -16.1494   25.1262 O   0  0  0  0  0  0  0  0  0  0  0  0
    9.3113  -16.2530   20.1570 C   0  0  0  0  0  0  0  0  0  0  0  0
    8.5017  -15.3141   21.0307 C   0  0  1  0  0  0  0  0  0  0  0  0
    7.1412  -15.0836   20.4541 C   0  0  0  0  0  0  0  0  0  0  0  0
    8.4521  -15.7989   22.4651 C   0  0  2  0  0  0  0  0  0  0  0  0
    7.6000  -14.9120   23.2289 N   0  0  0  0  0  0  0  0  0  0  0  0
    9.8486  -15.7564   22.9848 C   0  0  0  0  0  0  0  0  0  0  0  0
   10.4602  -14.6709   23.0512 O   0  0  0  0  0  0  0  0  0  0  0  0
   12.1756  -18.2638   24.5509 C   0  0  0  0  0  0  0  0  0  0  0  0
   11.8896  -16.9731   23.8125 C   0  0  2  0  0  0  0  0  0  0  0  0
   10.4979  -16.9278   23.4064 N   0  0  0  0  0  0  0  0  0  0  0  0
   12.8048  -16.7921   22.6572 C   0  0  0  0  0  0  0  0  0  0  0  0
   12.5247  -17.1249   21.4945 O   0  0  0  0  0  0  0  0  0  0  0  0
   14.0463  -16.2171   22.8905 O   0  0  0  0  0  0  0  0  0  0  0  0
  2  3  1  0
  2  1  1  0
  3  5  1  0
  3  4  1  6
  5  7  1  0
  5  6  1  1
  7  8  2  0
 10  9  1  6
 10 11  1  0
 10 12  1  0
 12 14  1  0
 13  7  1  0
 12 13  1  1
 14 15  2  0
 17 16  1  6
 17 19  1  0
 18 17  1  0
 18 14  1  0
 19 20  2  0
 19 21  1  0
M  END
$$$$
