WKC.pdb
     RDKit          3D

 30 31  0  0  1  0  0  0  0  0999 V2000
    6.4649  -18.1518   24.8106 N   0  0  0  0  0  0  0  0  0  0  0  0
    6.7964  -16.7916   24.5400 C   0  0  1  0  0  0  0  0  0  0  0  0
    7.5105  -16.0933   25.6723 C   0  0  0  0  0  0  0  0  0  0  0  0
    6.7252  -14.9734   26.2268 C   0  0  0  0  0  0  0  0  0  0  0  0
    5.4781  -15.0300   26.8126 C   0  0  0  0  0  0  0  0  0  0  0  0
    5.1526  -13.7780   27.1685 N   0  0  0  0  0  0  0  0  0  0  0  0
    6.1584  -12.9269   26.8249 C   0  0  0  0  0  0  0  0  0  0  0  0
    6.3052  -11.5523   26.9749 C   0  0  0  0  0  0  0  0  0  0  0  0
    7.4580  -10.9558   26.5203 C   0  0  0  0  0  0  0  0  0  0  0  0
    8.4869  -11.6741   25.9144 C   0  0  0  0  0  0  0  0  0  0  0  0
    8.3132  -13.0225   25.7815 C   0  0  0  0  0  0  0  0  0  0  0  0
    7.1695  -13.6563   26.2257 C   0  0  0  0  0  0  0  0  0  0  0  0
    7.5829  -16.7249   23.2853 C   0  0  0  0  0  0  0  0  0  0  0  0
    8.4589  -17.5975   23.0763 O   0  0  0  0  0  0  0  0  0  0  0  0
    7.3507  -15.6977   22.3430 N   0  0  0  0  0  0  0  0  0  0  0  0
    8.2588  -15.4406   21.2418 C   0  0  1  0  0  0  0  0  0  0  0  0
    7.8145  -14.2330   20.4553 C   0  0  0  0  0  0  0  0  0  0  0  0
    8.7377  -14.0865   19.2794 C   0  0  0  0  0  0  0  0  0  0  0  0
    7.9541  -13.7852   18.0228 C   0  0  0  0  0  0  0  0  0  0  0  0
    8.8165  -13.7974   16.7855 C   0  0  0  0  0  0  0  0  0  0  0  0
    7.9348  -13.4329   15.6686 N   0  0  0  0  0  0  0  0  0  0  0  0
    9.6308  -15.1895   21.7906 C   0  0  0  0  0  0  0  0  0  0  0  0
    9.7489  -14.4896   22.8209 O   0  0  0  0  0  0  0  0  0  0  0  0
   10.7774  -15.7388   21.1485 N   0  0  0  0  0  0  0  0  0  0  0  0
   12.0625  -15.7513   21.8159 C   0  0  1  0  0  0  0  0  0  0  0  0
   11.9280  -16.6132   23.0602 C   0  0  0  0  0  0  0  0  0  0  0  0
   13.5666  -16.8597   23.8350 S   0  0  0  0  0  0  0  0  0  0  0  0
   13.0992  -16.3242   20.9164 C   0  0  0  0  0  0  0  0  0  0  0  0
   12.7911  -16.8979   19.6915 O   0  0  0  0  0  0  0  0  0  0  0  0
   14.3039  -16.2910   21.2730 O   0  0  0  0  0  0  0  0  0  0  0  0
  2  1  1  1
  2 13  1  0
  2  3  1  0
  3  4  1  0
  4  5  2  0
  5  6  1  0
  7  6  1  0
  8  7  2  0
  9  8  1  0
 10 11  1  0
 10  9  2  0
 11 12  2  0
 12  4  1  0
 12  7  1  0
 13 14  2  0
 15 13  1  0
 15 16  1  0
 16 17  1  1
 17 18  1  0
 19 18  1  0
 20 21  1  0
 20 19  1  0
 22 24  1  0
 22 16  1  0
 23 22  2  0
 25 28  1  0
 25 26  1  1
 25 24  1  0
 27 26  1  0
 28 29  1  0
 30 28  2  0
M  END
$$$$
