WKC.pdb
     RDKit          3D

 30 31  0  0  1  0  0  0  0  0999 V2000
    6.6460  -18.4756   24.9314 N   0  0  0  0  0  0  0  0  0  0  0  0
    6.8270  -17.0870   24.6627 C   0  0  1  0  0  0  0  0  0  0  0  0
    7.3431  -16.2929   25.8387 C   0  0  0  0  0  0  0  0  0  0  0  0
    6.4895  -15.1298   26.1500 C   0  0  0  0  0  0  0  0  0  0  0  0
    5.1192  -15.1097   26.3028 C   0  0  0  0  0  0  0  0  0  0  0  0
    4.7719  -13.8433   26.5780 N   0  0  0  0  0  0  0  0  0  0  0  0
    5.8838  -13.0577   26.6043 C   0  0  0  0  0  0  0  0  0  0  0  0
    6.0564  -11.6983   26.8402 C   0  0  0  0  0  0  0  0  0  0  0  0
    7.3276  -11.1752   26.7999 C   0  0  0  0  0  0  0  0  0  0  0  0
    8.4520  -11.9534   26.5317 C   0  0  0  0  0  0  0  0  0  0  0  0
    8.2501  -13.2851   26.3041 C   0  0  0  0  0  0  0  0  0  0  0  0
    6.9885  -13.8459   26.3364 C   0  0  0  0  0  0  0  0  0  0  0  0
    7.7083  -16.9330   23.4809 C   0  0  0  0  0  0  0  0  0  0  0  0
    8.6280  -17.7666   23.3025 O   0  0  0  0  0  0  0  0  0  0  0  0
    7.5166  -15.8672   22.5730 N   0  0  0  0  0  0  0  0  0  0  0  0
    8.3916  -15.6548   21.4361 C   0  0  1  0  0  0  0  0  0  0  0  0
    7.9744  -14.4283   20.6641 C   0  0  0  0  0  0  0  0  0  0  0  0
    8.8035  -14.3699   19.4128 C   0  0  0  0  0  0  0  0  0  0  0  0
    8.0647  -13.6332   18.3196 C   0  0  0  0  0  0  0  0  0  0  0  0
    8.8342  -13.5974   17.0229 C   0  0  0  0  0  0  0  0  0  0  0  0
    8.0964  -12.6902   16.1341 N   0  0  0  0  0  0  0  0  0  0  0  0
    9.7947  -15.4686   21.9296 C   0  0  0  0  0  0  0  0  0  0  0  0
    9.9742  -14.9462   23.0521 O   0  0  0  0  0  0  0  0  0  0  0  0
   10.9012  -15.8797   21.1326 N   0  0  0  0  0  0  0  0  0  0  0  0
   12.1961  -16.1201   21.7348 C   0  0  1  0  0  0  0  0  0  0  0  0
   12.0394  -17.2609   22.7263 C   0  0  0  0  0  0  0  0  0  0  0  0
   13.6716  -17.7366   23.4013 S   0  0  0  0  0  0  0  0  0  0  0  0
   13.1840  -16.4950   20.6882 C   0  0  0  0  0  0  0  0  0  0  0  0
   14.5412  -16.2370   20.8153 O   0  0  0  0  0  0  0  0  0  0  0  0
   12.7814  -17.0684   19.6448 O   0  0  0  0  0  0  0  0  0  0  0  0
  2  1  1  1
  2 13  1  0
  2  3  1  0
  3  4  1  0
  4  5  2  0
  5  6  1  0
  7  6  1  0
  8  7  2  0
  9  8  1  0
 10 11  1  0
 10  9  2  0
 11 12  2  0
 12  4  1  0
 12  7  1  0
 13 14  2  0
 15 13  1  0
 15 16  1  0
 16 17  1  1
 17 18  1  0
 19 18  1  0
 20 21  1  0
 20 19  1  0
 22 24  1  0
 22 16  1  0
 23 22  2  0
 25 28  1  0
 25 26  1  1
 25 24  1  0
 27 26  1  0
 28 29  1  0
 30 28  2  0
M  END
$$$$
