WKC.pdb
     RDKit          3D

 30 31  0  0  1  0  0  0  0  0999 V2000
    7.4008  -17.4990   25.7740 N   0  0  0  0  0  0  0  0  0  0  0  0
    6.8661  -16.9851   24.5561 C   0  0  1  0  0  0  0  0  0  0  0  0
    6.4838  -15.5257   24.6172 C   0  0  0  0  0  0  0  0  0  0  0  0
    7.1206  -14.8244   25.7491 C   0  0  0  0  0  0  0  0  0  0  0  0
    8.1497  -15.2779   26.5472 C   0  0  0  0  0  0  0  0  0  0  0  0
    8.4055  -14.3147   27.4454 N   0  0  0  0  0  0  0  0  0  0  0  0
    7.5674  -13.2613   27.2403 C   0  0  0  0  0  0  0  0  0  0  0  0
    7.4324  -12.0401   27.8914 C   0  0  0  0  0  0  0  0  0  0  0  0
    6.4756  -11.1563   27.4500 C   0  0  0  0  0  0  0  0  0  0  0  0
    5.6342  -11.4354   26.3748 C   0  0  0  0  0  0  0  0  0  0  0  0
    5.7912  -12.6430   25.7559 C   0  0  0  0  0  0  0  0  0  0  0  0
    6.7409  -13.5556   26.1709 C   0  0  0  0  0  0  0  0  0  0  0  0
    7.8271  -17.2442   23.4576 C   0  0  0  0  0  0  0  0  0  0  0  0
    8.8581  -17.9140   23.7046 O   0  0  0  0  0  0  0  0  0  0  0  0
    7.5867  -16.7457   22.1574 N   0  0  0  0  0  0  0  0  0  0  0  0
    8.5105  -16.9692   21.0619 C   0  0  1  0  0  0  0  0  0  0  0  0
    8.0289  -16.2808   19.8096 C   0  0  0  0  0  0  0  0  0  0  0  0
    7.9306  -17.3165   18.7259 C   0  0  0  0  0  0  0  0  0  0  0  0
    6.8724  -18.3409   19.0642 C   0  0  0  0  0  0  0  0  0  0  0  0
    6.7206  -19.3922   17.9933 C   0  0  0  0  0  0  0  0  0  0  0  0
    5.7282  -20.3502   18.4981 N   0  0  0  0  0  0  0  0  0  0  0  0
    9.8532  -16.4186   21.4374 C   0  0  0  0  0  0  0  0  0  0  0  0
    9.9070  -15.3401   22.0691 O   0  0  0  0  0  0  0  0  0  0  0  0
   11.0443  -17.1128   21.0796 N   0  0  0  0  0  0  0  0  0  0  0  0
   12.2909  -16.8421   21.7649 C   0  0  1  0  0  0  0  0  0  0  0  0
   12.0886  -17.1653   23.2359 C   0  0  0  0  0  0  0  0  0  0  0  0
   12.8756  -15.8827   24.2759 S   0  0  0  0  0  0  0  0  0  0  0  0
   13.3754  -17.6934   21.2071 C   0  0  0  0  0  0  0  0  0  0  0  0
   14.7134  -17.3317   21.2645 O   0  0  0  0  0  0  0  0  0  0  0  0
   13.0759  -18.7849   20.6606 O   0  0  0  0  0  0  0  0  0  0  0  0
  2  1  1  1
  2 13  1  0
  2  3  1  0
  3  4  1  0
  4  5  2  0
  5  6  1  0
  7  6  1  0
  8  7  2  0
  9  8  1  0
 10 11  1  0
 10  9  2  0
 11 12  2  0
 12  4  1  0
 12  7  1  0
 13 14  2  0
 15 13  1  0
 15 16  1  0
 16 17  1  6
 17 18  1  0
 19 18  1  0
 20 21  1  0
 20 19  1  0
 22 24  1  0
 22 16  1  0
 23 22  2  0
 25 28  1  0
 25 26  1  1
 25 24  1  0
 27 26  1  0
 28 29  1  0
 30 28  2  0
M  END
$$$$
