WKC.pdb
     RDKit          3D

 30 31  0  0  1  0  0  0  0  0999 V2000
    6.0405  -18.3869   24.4081 N   0  0  0  0  0  0  0  0  0  0  0  0
    6.5285  -17.0549   24.2638 C   0  0  1  0  0  0  0  0  0  0  0  0
    7.2858  -16.5415   25.4649 C   0  0  0  0  0  0  0  0  0  0  0  0
    6.7022  -15.2999   26.0090 C   0  0  0  0  0  0  0  0  0  0  0  0
    5.4609  -15.1374   26.5871 C   0  0  0  0  0  0  0  0  0  0  0  0
    5.3541  -13.8460   26.9350 N   0  0  0  0  0  0  0  0  0  0  0  0
    6.4934  -13.1830   26.5939 C   0  0  0  0  0  0  0  0  0  0  0  0
    6.8742  -11.8534   26.7384 C   0  0  0  0  0  0  0  0  0  0  0  0
    8.1150  -11.4671   26.2885 C   0  0  0  0  0  0  0  0  0  0  0  0
    9.0081  -12.3555   25.6926 C   0  0  0  0  0  0  0  0  0  0  0  0
    8.6053  -13.6544   25.5649 C   0  0  0  0  0  0  0  0  0  0  0  0
    7.3670  -14.0791   26.0047 C   0  0  0  0  0  0  0  0  0  0  0  0
    7.3504  -16.9708   23.0331 C   0  0  0  0  0  0  0  0  0  0  0  0
    8.0370  -17.9652   22.6980 O   0  0  0  0  0  0  0  0  0  0  0  0
    7.3608  -15.7927   22.2527 N   0  0  0  0  0  0  0  0  0  0  0  0
    8.1074  -15.6944   21.0132 C   0  0  1  0  0  0  0  0  0  0  0  0
    7.7214  -14.4487   20.2558 C   0  0  0  0  0  0  0  0  0  0  0  0
    8.4298  -14.4792   18.9315 C   0  0  0  0  0  0  0  0  0  0  0  0
    8.0536  -13.2750   18.0996 C   0  0  0  0  0  0  0  0  0  0  0  0
    8.6868  -13.2958   16.7309 C   0  0  0  0  0  0  0  0  0  0  0  0
    8.2510  -14.5472   16.0973 N   0  0  0  0  0  0  0  0  0  0  0  0
    9.5716  -15.6407   21.3297 C   0  0  0  0  0  0  0  0  0  0  0  0
   10.3916  -15.6154   20.3851 O   0  0  0  0  0  0  0  0  0  0  0  0
   10.0180  -15.6194   22.6820 N   0  0  0  0  0  0  0  0  0  0  0  0
   11.4305  -15.5430   22.9923 C   0  0  1  0  0  0  0  0  0  0  0  0
   11.5632  -15.0280   24.4157 C   0  0  0  0  0  0  0  0  0  0  0  0
   10.4243  -15.9360   25.5222 S   0  0  0  0  0  0  0  0  0  0  0  0
   12.0503  -16.8907   22.8847 C   0  0  0  0  0  0  0  0  0  0  0  0
   13.4053  -17.1081   23.0879 O   0  0  0  0  0  0  0  0  0  0  0  0
   11.3246  -17.8762   22.5990 O   0  0  0  0  0  0  0  0  0  0  0  0
  2  1  1  1
  2 13  1  0
  2  3  1  0
  3  4  1  0
  4  5  2  0
  5  6  1  0
  7  6  1  0
  8  7  2  0
  9  8  1  0
 10 11  1  0
 10  9  2  0
 11 12  2  0
 12  4  1  0
 12  7  1  0
 13 14  2  0
 15 13  1  0
 15 16  1  0
 16 17  1  1
 17 18  1  0
 19 18  1  0
 20 21  1  0
 20 19  1  0
 22 24  1  0
 22 16  1  0
 23 22  2  0
 25 28  1  0
 25 26  1  1
 25 24  1  0
 27 26  1  0
 28 29  1  0
 30 28  2  0
M  END
$$$$
