WKC.pdb
     RDKit          3D

 30 31  0  0  1  0  0  0  0  0999 V2000
    6.4414  -18.2961   23.8604 N   0  0  0  0  0  0  0  0  0  0  0  0
    6.7218  -16.9003   23.7800 C   0  0  1  0  0  0  0  0  0  0  0  0
    7.5112  -16.3610   24.9486 C   0  0  0  0  0  0  0  0  0  0  0  0
    6.7612  -15.3456   25.7133 C   0  0  0  0  0  0  0  0  0  0  0  0
    5.5208  -15.4818   26.3001 C   0  0  0  0  0  0  0  0  0  0  0  0
    5.2311  -14.3101   26.8859 N   0  0  0  0  0  0  0  0  0  0  0  0
    6.2532  -13.4326   26.6876 C   0  0  0  0  0  0  0  0  0  0  0  0
    6.4360  -12.1129   27.0856 C   0  0  0  0  0  0  0  0  0  0  0  0
    7.5973  -11.4683   26.7289 C   0  0  0  0  0  0  0  0  0  0  0  0
    8.6002  -12.0849   25.9834 C   0  0  0  0  0  0  0  0  0  0  0  0
    8.3913  -13.3815   25.6075 C   0  0  0  0  0  0  0  0  0  0  0  0
    7.2381  -14.0610   25.9471 C   0  0  0  0  0  0  0  0  0  0  0  0
    7.4019  -16.6160   22.4940 C   0  0  0  0  0  0  0  0  0  0  0  0
    7.9928  -17.5523   21.9051 O   0  0  0  0  0  0  0  0  0  0  0  0
    7.3856  -15.3151   21.9424 N   0  0  0  0  0  0  0  0  0  0  0  0
    8.0539  -14.9971   20.6951 C   0  0  1  0  0  0  0  0  0  0  0  0
    7.8101  -13.5592   20.3113 C   0  0  0  0  0  0  0  0  0  0  0  0
    8.5857  -13.2820   19.0550 C   0  0  0  0  0  0  0  0  0  0  0  0
    7.9773  -14.0154   17.8821 C   0  0  0  0  0  0  0  0  0  0  0  0
    8.7460  -13.7998   16.6023 C   0  0  0  0  0  0  0  0  0  0  0  0
    8.0733  -14.6112   15.5794 N   0  0  0  0  0  0  0  0  0  0  0  0
    9.5273  -15.2157   20.8627 C   0  0  0  0  0  0  0  0  0  0  0  0
   10.2870  -14.9643   19.9009 O   0  0  0  0  0  0  0  0  0  0  0  0
   10.0499  -15.7012   22.0955 N   0  0  0  0  0  0  0  0  0  0  0  0
   11.4690  -15.9439   22.2515 C   0  0  1  0  0  0  0  0  0  0  0  0
   11.7755  -15.9498   23.7398 C   0  0  0  0  0  0  0  0  0  0  0  0
   11.0237  -14.4883   24.5429 S   0  0  0  0  0  0  0  0  0  0  0  0
   11.8302  -17.2589   21.6580 C   0  0  0  0  0  0  0  0  0  0  0  0
   13.1220  -17.7637   21.6905 O   0  0  0  0  0  0  0  0  0  0  0  0
   10.9356  -17.9457   21.1035 O   0  0  0  0  0  0  0  0  0  0  0  0
  2  1  1  1
  2 13  1  0
  2  3  1  0
  3  4  1  0
  4  5  2  0
  5  6  1  0
  7  6  1  0
  8  7  2  0
  9  8  1  0
 10 11  1  0
 10  9  2  0
 11 12  2  0
 12  4  1  0
 12  7  1  0
 13 14  2  0
 15 13  1  0
 15 16  1  0
 16 17  1  1
 17 18  1  0
 19 18  1  0
 20 21  1  0
 20 19  1  0
 22 24  1  0
 22 16  1  0
 23 22  2  0
 25 28  1  0
 25 26  1  1
 25 24  1  0
 27 26  1  0
 28 29  1  0
 30 28  2  0
M  END
$$$$
