QRT.pdb
     RDKit          3D

 28 27  0  0  1  0  0  0  0  0999 V2000
   16.1263  -15.3435   17.8832 N   0  0  0  0  0  0  0  0  0  0  0  0
   16.0916  -16.3748   18.8487 C   0  0  0  0  0  0  0  0  0  0  0  0
   16.3422  -17.5367   18.4708 O   0  0  0  0  0  0  0  0  0  0  0  0
   15.7725  -16.0718   20.2326 C   0  0  0  0  0  0  0  0  0  0  0  0
   14.3323  -15.9570   20.5734 C   0  0  0  0  0  0  0  0  0  0  0  0
   13.9115  -16.7687   21.7810 C   0  0  2  0  0  0  0  0  0  0  0  0
   13.0389  -17.8499   21.3667 N   0  0  0  0  0  0  0  0  0  0  0  0
   13.1851  -15.9354   22.7634 C   0  0  0  0  0  0  0  0  0  0  0  0
   13.7108  -14.9994   23.4190 O   0  0  0  0  0  0  0  0  0  0  0  0
    5.9358  -13.8152   19.7946 N   0  0  0  0  0  0  0  0  0  0  0  0
    7.1760  -13.5811   19.1082 C   0  0  0  0  0  0  0  0  0  0  0  0
    7.1715  -13.1945   17.8795 N   0  0  0  0  0  0  0  0  0  0  0  0
    8.3656  -13.7971   19.8475 N   0  0  0  0  0  0  0  0  0  0  0  0
    8.3062  -14.3414   21.1883 C   0  0  0  0  0  0  0  0  0  0  0  0
    9.6875  -14.5541   21.7758 C   0  0  0  0  0  0  0  0  0  0  0  0
    9.5896  -15.1455   23.1790 C   0  0  0  0  0  0  0  0  0  0  0  0
   10.9462  -15.3487   23.7832 C   0  0  2  0  0  0  0  0  0  0  0  0
   11.8117  -16.1846   23.0004 N   0  0  0  0  0  0  0  0  0  0  0  0
   10.7390  -16.0053   25.1001 C   0  0  0  0  0  0  0  0  0  0  0  0
   10.5539  -17.2515   25.1518 O   0  0  0  0  0  0  0  0  0  0  0  0
    8.0689  -13.0474   17.3888 C   0  0  0  0  0  0  0  0  0  0  0  0
    9.7564  -14.0828   28.7955 C   0  0  2  0  0  0  0  0  0  0  0  0
   10.8439  -15.1275   28.7589 O   0  0  0  0  0  0  0  0  0  0  0  0
   10.7087  -15.9157   29.9022 C   0  0  1  0  0  0  0  0  0  0  0  0
   10.6045  -16.0270   27.5578 N   0  0  0  0  0  0  0  0  0  0  0  0
   10.7382  -15.2941   26.3213 C   0  0  0  0  0  0  0  0  0  0  0  0
    9.2688  -16.6509   27.6042 O   0  0  0  0  0  0  0  0  0  0  0  0
    8.3588  -16.3116   26.8120 O   0  0  0  0  0  0  0  0  0  0  0  0
  1  2  1  0
  2  3  2  0
  4  5  1  0
  4  2  1  0
  5  6  1  0
  6  8  1  0
  6  7  1  6
  8  9  2  0
 11 13  1  0
 11 10  1  0
 12 11  2  0
 14 13  1  0
 15 14  1  0
 15 16  1  0
 17 16  1  6
 18 17  1  0
 18  8  1  0
 19 17  1  0
 20 19  2  0
 22 21  1  1
 22 24  1  0
 23 22  1  0
 24 25  1  1
 25 19  1  0
 26 24  1  0
 26 28  1  0
 27 26  2  0
M  END
$$$$
