QRT.pdb
     RDKit          3D

 28 27  0  0  1  0  0  0  0  0999 V2000
    8.0142  -11.6590   22.3057 N   0  0  0  0  0  0  0  0  0  0  0  0
    7.4741  -11.2407   21.0687 C   0  0  0  0  0  0  0  0  0  0  0  0
    7.0437  -10.0730   20.9849 O   0  0  0  0  0  0  0  0  0  0  0  0
    7.4302  -12.1557   19.9420 C   0  0  0  0  0  0  0  0  0  0  0  0
    7.9717  -13.5188   20.1705 C   0  0  0  0  0  0  0  0  0  0  0  0
    8.0191  -14.3861   18.9296 C   0  0  2  0  0  0  0  0  0  0  0  0
    6.6717  -14.6587   18.4686 N   0  0  0  0  0  0  0  0  0  0  0  0
    8.6881  -15.6770   19.2001 C   0  0  0  0  0  0  0  0  0  0  0  0
    8.0889  -16.7146   19.5831 O   0  0  0  0  0  0  0  0  0  0  0  0
   12.1053  -19.8830   15.9805 N   0  0  0  0  0  0  0  0  0  0  0  0
   13.1723  -20.6883   16.5065 C   0  0  0  0  0  0  0  0  0  0  0  0
   13.2704  -21.9287   16.1732 N   0  0  0  0  0  0  0  0  0  0  0  0
   14.0796  -20.0495   17.3881 N   0  0  0  0  0  0  0  0  0  0  0  0
   13.9138  -18.6501   17.7223 C   0  0  0  0  0  0  0  0  0  0  0  0
   12.7869  -18.4332   18.7129 C   0  0  0  0  0  0  0  0  0  0  0  0
   12.0543  -17.1280   18.4164 C   0  0  0  0  0  0  0  0  0  0  0  0
   10.8727  -16.9458   19.3205 C   0  0  2  0  0  0  0  0  0  0  0  0
   10.0893  -15.7798   19.0250 N   0  0  0  0  0  0  0  0  0  0  0  0
   11.4026  -16.8068   20.7019 C   0  0  0  0  0  0  0  0  0  0  0  0
   12.2413  -15.9007   20.9584 O   0  0  0  0  0  0  0  0  0  0  0  0
   14.0520  -22.4948   16.5424 C   0  0  0  0  0  0  0  0  0  0  0  0
    9.4352  -16.7231   24.1099 C   0  0  2  0  0  0  0  0  0  0  0  0
   10.5376  -17.7514   24.1615 O   0  0  0  0  0  0  0  0  0  0  0  0
    9.9756  -18.9871   23.8390 C   0  0  2  0  0  0  0  0  0  0  0  0
   11.5534  -17.4200   23.0809 N   0  0  0  0  0  0  0  0  0  0  0  0
   11.0096  -17.6522   21.7639 C   0  0  0  0  0  0  0  0  0  0  0  0
   12.7891  -18.2102   23.2365 O   0  0  0  0  0  0  0  0  0  0  0  0
   13.1438  -19.0486   22.3750 O   0  0  0  0  0  0  0  0  0  0  0  0
  1  2  1  0
  2  3  2  0
  4  5  1  0
  4  2  1  0
  5  6  1  0
  6  8  1  0
  6  7  1  1
  8  9  2  0
 11 13  1  0
 11 10  1  0
 12 11  2  0
 14 13  1  0
 15 14  1  0
 15 16  1  0
 17 16  1  6
 18 17  1  0
 18  8  1  0
 19 17  1  0
 20 19  2  0
 22 21  1  1
 22 24  1  0
 23 22  1  0
 24 25  1  1
 25 19  1  0
 26 24  1  0
 26 28  1  0
 27 26  2  0
M  END
$$$$
