QRT.pdb
     RDKit          3D

 28 27  0  0  1  0  0  0  0  0999 V2000
   10.5827  -24.1911   20.3813 N   0  0  0  0  0  0  0  0  0  0  0  0
   11.6954  -23.3474   20.1643 C   0  0  0  0  0  0  0  0  0  0  0  0
   12.7708  -23.6450   20.7216 O   0  0  0  0  0  0  0  0  0  0  0  0
   11.5714  -22.1756   19.3157 C   0  0  0  0  0  0  0  0  0  0  0  0
   10.2487  -21.9513   18.6803 C   0  0  0  0  0  0  0  0  0  0  0  0
   10.2097  -20.7807   17.7199 C   0  0  2  0  0  0  0  0  0  0  0  0
   11.0975  -21.0325   16.6017 N   0  0  0  0  0  0  0  0  0  0  0  0
   10.6369  -19.5282   18.3800 C   0  0  0  0  0  0  0  0  0  0  0  0
   11.7535  -18.9793   18.1946 O   0  0  0  0  0  0  0  0  0  0  0  0
    8.1965  -12.8144   18.8163 N   0  0  0  0  0  0  0  0  0  0  0  0
    8.1780  -12.3400   20.1721 C   0  0  0  0  0  0  0  0  0  0  0  0
    8.4453  -11.1064   20.4289 N   0  0  0  0  0  0  0  0  0  0  0  0
    7.8576  -13.2878   21.1759 N   0  0  0  0  0  0  0  0  0  0  0  0
    7.6409  -14.6771   20.8292 C   0  0  0  0  0  0  0  0  0  0  0  0
    8.9361  -15.3833   20.4797 C   0  0  0  0  0  0  0  0  0  0  0  0
    8.6738  -16.8448   20.1287 C   0  0  0  0  0  0  0  0  0  0  0  0
    9.9493  -17.5736   19.8304 C   0  0  2  0  0  0  0  0  0  0  0  0
    9.7541  -18.8854   19.2811 N   0  0  0  0  0  0  0  0  0  0  0  0
   10.6768  -17.7168   21.1182 C   0  0  0  0  0  0  0  0  0  0  0  0
   10.1886  -18.4357   22.0320 O   0  0  0  0  0  0  0  0  0  0  0  0
    8.4530  -10.7805   21.4094 C   0  0  0  0  0  0  0  0  0  0  0  0
   14.5073  -18.3314   21.3721 C   0  0  2  0  0  0  0  0  0  0  0  0
   14.1145  -17.3115   22.4118 O   0  0  0  0  0  0  0  0  0  0  0  0
   14.4106  -16.0494   21.8959 C   0  0  2  0  0  0  0  0  0  0  0  0
   12.6089  -17.3797   22.6055 N   0  0  0  0  0  0  0  0  0  0  0  0
   11.9101  -17.0781   21.3787 C   0  0  0  0  0  0  0  0  0  0  0  0
   12.1541  -16.4517   23.6579 O   0  0  0  0  0  0  0  0  0  0  0  0
   11.3730  -15.5049   23.4042 O   0  0  0  0  0  0  0  0  0  0  0  0
  1  2  1  0
  2  3  2  0
  4  5  1  0
  4  2  1  0
  5  6  1  0
  6  8  1  0
  6  7  1  6
  8  9  2  0
 11 13  1  0
 11 10  1  0
 12 11  2  0
 14 13  1  0
 15 14  1  0
 15 16  1  0
 17 16  1  1
 18 17  1  0
 18  8  1  0
 19 17  1  0
 20 19  2  0
 22 21  1  1
 22 24  1  0
 23 22  1  0
 24 25  1  1
 25 19  1  0
 26 24  1  0
 26 28  1  0
 27 26  2  0
M  END
$$$$
