QRT.pdb
     RDKit          3D

 28 27  0  0  1  0  0  0  0  0999 V2000
    7.1536  -11.5522   20.4771 N   0  0  0  0  0  0  0  0  0  0  0  0
    7.1898  -12.9279   20.7982 C   0  0  0  0  0  0  0  0  0  0  0  0
    6.7186  -13.2834   21.8969 O   0  0  0  0  0  0  0  0  0  0  0  0
    7.7616  -13.8826   19.8653 C   0  0  0  0  0  0  0  0  0  0  0  0
    8.2845  -13.3341   18.5888 C   0  0  0  0  0  0  0  0  0  0  0  0
    8.8507  -14.3776   17.6482 C   0  0  2  0  0  0  0  0  0  0  0  0
    7.8489  -15.3900   17.3768 N   0  0  0  0  0  0  0  0  0  0  0  0
   10.0366  -15.0414   18.2312 C   0  0  0  0  0  0  0  0  0  0  0  0
   10.0245  -16.1974   18.7272 O   0  0  0  0  0  0  0  0  0  0  0  0
   17.7608  -15.3469   16.5879 N   0  0  0  0  0  0  0  0  0  0  0  0
   18.2277  -15.3031   17.9458 C   0  0  0  0  0  0  0  0  0  0  0  0
   19.3018  -15.9303   18.2804 N   0  0  0  0  0  0  0  0  0  0  0  0
   17.4536  -14.5496   18.8631 N   0  0  0  0  0  0  0  0  0  0  0  0
   16.2137  -13.9316   18.4411 C   0  0  0  0  0  0  0  0  0  0  0  0
   15.0042  -14.7478   18.8523 C   0  0  0  0  0  0  0  0  0  0  0  0
   13.7210  -14.1070   18.3319 C   0  0  0  0  0  0  0  0  0  0  0  0
   12.5131  -14.9025   18.7258 C   0  0  2  0  0  0  0  0  0  0  0  0
   11.2757  -14.3565   18.2449 N   0  0  0  0  0  0  0  0  0  0  0  0
   12.4666  -14.9110   20.2111 C   0  0  0  0  0  0  0  0  0  0  0  0
   12.3357  -13.8235   20.8358 O   0  0  0  0  0  0  0  0  0  0  0  0
   19.7067  -15.7817   19.2194 C   0  0  0  0  0  0  0  0  0  0  0  0
   11.1533  -18.1751   22.3146 C   0  0  2  0  0  0  0  0  0  0  0  0
   11.0632  -16.7477   22.7939 O   0  0  0  0  0  0  0  0  0  0  0  0
   11.0126  -16.7745   24.1880 C   0  0  1  0  0  0  0  0  0  0  0  0
   12.3427  -16.0283   22.4009 N   0  0  0  0  0  0  0  0  0  0  0  0
   12.5632  -16.0955   20.9758 C   0  0  0  0  0  0  0  0  0  0  0  0
   13.5166  -16.5895   23.0955 O   0  0  0  0  0  0  0  0  0  0  0  0
   14.4315  -17.1739   22.4691 O   0  0  0  0  0  0  0  0  0  0  0  0
  1  2  1  0
  2  3  2  0
  4  5  1  0
  4  2  1  0
  5  6  1  0
  6  8  1  0
  6  7  1  1
  8  9  2  0
 11 13  1  0
 11 10  1  0
 12 11  2  0
 14 13  1  0
 15 14  1  0
 15 16  1  0
 17 16  1  1
 18 17  1  0
 18  8  1  0
 19 17  1  0
 20 19  2  0
 22 21  1  6
 22 24  1  0
 23 22  1  0
 24 25  1  6
 25 19  1  0
 26 24  1  0
 26 28  1  0
 27 26  2  0
M  END
$$$$
