QRT.pdb
     RDKit          3D

 28 27  0  0  1  0  0  0  0  0999 V2000
    8.1674  -12.5518   17.5167 N   0  0  0  0  0  0  0  0  0  0  0  0
    7.7750  -13.8445   17.1021 C   0  0  0  0  0  0  0  0  0  0  0  0
    7.9812  -14.1641   15.9143 O   0  0  0  0  0  0  0  0  0  0  0  0
    7.1529  -14.7581   18.0439 C   0  0  0  0  0  0  0  0  0  0  0  0
    6.9138  -14.2400   19.4144 C   0  0  0  0  0  0  0  0  0  0  0  0
    8.1604  -14.1415   20.2690 C   0  0  2  0  0  0  0  0  0  0  0  0
    9.2593  -14.8260   19.6163 N   0  0  0  0  0  0  0  0  0  0  0  0
    7.9525  -14.7570   21.5975 C   0  0  0  0  0  0  0  0  0  0  0  0
    6.8436  -14.7969   22.1901 O   0  0  0  0  0  0  0  0  0  0  0  0
   12.5424  -21.2027   25.4838 N   0  0  0  0  0  0  0  0  0  0  0  0
   11.1539  -21.4324   25.1955 C   0  0  0  0  0  0  0  0  0  0  0  0
   10.6991  -22.6354   25.1243 N   0  0  0  0  0  0  0  0  0  0  0  0
   10.3442  -20.2858   25.0002 N   0  0  0  0  0  0  0  0  0  0  0  0
   10.9145  -18.9590   25.1090 C   0  0  0  0  0  0  0  0  0  0  0  0
    9.8609  -17.8765   24.9808 C   0  0  0  0  0  0  0  0  0  0  0  0
    9.9845  -17.1625   23.6380 C   0  0  0  0  0  0  0  0  0  0  0  0
    8.9736  -16.0634   23.5075 C   0  0  2  0  0  0  0  0  0  0  0  0
    9.0526  -15.3458   22.2667 N   0  0  0  0  0  0  0  0  0  0  0  0
    9.2332  -15.1038   24.6121 C   0  0  0  0  0  0  0  0  0  0  0  0
   10.2783  -14.3987   24.5910 O   0  0  0  0  0  0  0  0  0  0  0  0
    9.7072  -22.7911   24.8802 C   0  0  0  0  0  0  0  0  0  0  0  0
    7.3564  -12.1356   25.7679 C   0  0  2  0  0  0  0  0  0  0  0  0
    7.5214  -13.0207   26.9782 O   0  0  0  0  0  0  0  0  0  0  0  0
    6.3683  -13.7980   27.0912 C   0  0  2  0  0  0  0  0  0  0  0  0
    8.6827  -13.9675   26.7250 N   0  0  0  0  0  0  0  0  0  0  0  0
    8.3545  -14.9361   25.7060 C   0  0  0  0  0  0  0  0  0  0  0  0
    9.0809  -14.6795   27.9539 O   0  0  0  0  0  0  0  0  0  0  0  0
    9.0539  -15.9305   28.0246 O   0  0  0  0  0  0  0  0  0  0  0  0
  1  2  1  0
  2  3  2  0
  4  5  1  0
  4  2  1  0
  5  6  1  0
  6  8  1  0
  6  7  1  6
  8  9  2  0
 11 13  1  0
 11 10  1  0
 12 11  2  0
 14 13  1  0
 15 14  1  0
 15 16  1  0
 17 16  1  6
 18 17  1  0
 18  8  1  0
 19 17  1  0
 20 19  2  0
 22 21  1  1
 22 24  1  0
 23 22  1  0
 24 25  1  1
 25 19  1  0
 26 24  1  0
 26 28  1  0
 27 26  2  0
M  END
$$$$
