QRT.pdb
     RDKit          3D

 28 27  0  0  1  0  0  0  0  0999 V2000
    8.1619  -12.1355   17.2931 N   0  0  0  0  0  0  0  0  0  0  0  0
    8.2104  -13.4664   16.8204 C   0  0  0  0  0  0  0  0  0  0  0  0
    8.6175  -13.6580   15.6572 O   0  0  0  0  0  0  0  0  0  0  0  0
    7.7953  -14.5632   17.6768 C   0  0  0  0  0  0  0  0  0  0  0  0
    7.3835  -14.2093   19.0585 C   0  0  0  0  0  0  0  0  0  0  0  0
    8.3870  -14.5950   20.1254 C   0  0  2  0  0  0  0  0  0  0  0  0
    9.0870  -15.8011   19.7288 N   0  0  0  0  0  0  0  0  0  0  0  0
    7.7234  -14.8478   21.4226 C   0  0  0  0  0  0  0  0  0  0  0  0
    6.8901  -14.0680   21.9517 O   0  0  0  0  0  0  0  0  0  0  0  0
    9.3065  -19.1878   28.0312 N   0  0  0  0  0  0  0  0  0  0  0  0
    7.9527  -19.6364   28.2041 C   0  0  0  0  0  0  0  0  0  0  0  0
    7.5078  -19.9092   29.3817 N   0  0  0  0  0  0  0  0  0  0  0  0
    7.1651  -19.7559   27.0320 N   0  0  0  0  0  0  0  0  0  0  0  0
    7.7245  -19.4285   25.7369 C   0  0  0  0  0  0  0  0  0  0  0  0
    7.3453  -18.0296   25.2924 C   0  0  0  0  0  0  0  0  0  0  0  0
    7.8504  -17.7595   23.8781 C   0  0  0  0  0  0  0  0  0  0  0  0
    7.5093  -16.3700   23.4311 C   0  0  2  0  0  0  0  0  0  0  0  0
    8.0258  -16.0336   22.1347 N   0  0  0  0  0  0  0  0  0  0  0  0
    8.1078  -15.4380   24.4217 C   0  0  0  0  0  0  0  0  0  0  0  0
    9.3622  -15.3400   24.5051 O   0  0  0  0  0  0  0  0  0  0  0  0
    6.5058  -20.1269   29.5096 C   0  0  0  0  0  0  0  0  0  0  0  0
    6.9115  -11.7107   25.3830 C   0  0  2  0  0  0  0  0  0  0  0  0
    7.1074  -12.5840   26.5973 O   0  0  0  0  0  0  0  0  0  0  0  0
    5.8623  -13.1115   26.9413 C   0  0  2  0  0  0  0  0  0  0  0  0
    8.0018  -13.7499   26.2100 N   0  0  0  0  0  0  0  0  0  0  0  0
    7.3314  -14.6401   25.2922 C   0  0  0  0  0  0  0  0  0  0  0  0
    8.4362  -14.5173   27.3924 O   0  0  0  0  0  0  0  0  0  0  0  0
    9.0597  -13.9736   28.3339 O   0  0  0  0  0  0  0  0  0  0  0  0
  1  2  1  0
  2  3  2  0
  4  5  1  0
  4  2  1  0
  5  6  1  0
  6  8  1  0
  6  7  1  6
  8  9  2  0
 11 13  1  0
 11 10  1  0
 12 11  2  0
 14 13  1  0
 15 14  1  0
 15 16  1  0
 17 16  1  1
 18 17  1  0
 18  8  1  0
 19 17  1  0
 20 19  2  0
 22 21  1  1
 22 24  1  0
 23 22  1  0
 24 25  1  1
 25 19  1  0
 26 24  1  0
 26 28  1  0
 27 26  2  0
M  END
$$$$
