QRT.pdb
     RDKit          3D

 28 27  0  0  1  0  0  0  0  0999 V2000
    9.2719  -12.7849   17.3776 N   0  0  0  0  0  0  0  0  0  0  0  0
    8.3507  -13.7365   16.8848 C   0  0  0  0  0  0  0  0  0  0  0  0
    8.4992  -14.1407   15.7143 O   0  0  0  0  0  0  0  0  0  0  0  0
    7.2717  -14.2168   17.7297 C   0  0  0  0  0  0  0  0  0  0  0  0
    7.2129  -13.6705   19.1087 C   0  0  0  0  0  0  0  0  0  0  0  0
    8.2902  -14.1976   20.0338 C   0  0  2  0  0  0  0  0  0  0  0  0
    8.8195  -15.4428   19.5127 N   0  0  0  0  0  0  0  0  0  0  0  0
    7.7587  -14.4499   21.3906 C   0  0  0  0  0  0  0  0  0  0  0  0
    6.8810  -13.7409   21.9468 O   0  0  0  0  0  0  0  0  0  0  0  0
   12.4043  -19.2561   24.2149 N   0  0  0  0  0  0  0  0  0  0  0  0
   12.1435  -19.6839   22.8685 C   0  0  0  0  0  0  0  0  0  0  0  0
   13.1217  -19.9621   22.0779 N   0  0  0  0  0  0  0  0  0  0  0  0
   10.7838  -19.7758   22.4797 N   0  0  0  0  0  0  0  0  0  0  0  0
    9.7403  -19.2481   23.3342 C   0  0  0  0  0  0  0  0  0  0  0  0
    9.3198  -17.8518   22.9199 C   0  0  0  0  0  0  0  0  0  0  0  0
    8.2050  -17.3354   23.8246 C   0  0  0  0  0  0  0  0  0  0  0  0
    7.7615  -15.9626   23.4177 C   0  0  2  0  0  0  0  0  0  0  0  0
    8.2503  -15.5513   22.1322 N   0  0  0  0  0  0  0  0  0  0  0  0
    8.2903  -15.0179   24.4355 C   0  0  0  0  0  0  0  0  0  0  0  0
    9.4583  -14.5590   24.3112 O   0  0  0  0  0  0  0  0  0  0  0  0
   12.9251  -20.2313   21.0999 C   0  0  0  0  0  0  0  0  0  0  0  0
    6.8657  -11.7189   25.4541 C   0  0  2  0  0  0  0  0  0  0  0  0
    7.0944  -12.4968   26.7261 O   0  0  0  0  0  0  0  0  0  0  0  0
    5.8883  -13.1099   27.0669 C   0  0  2  0  0  0  0  0  0  0  0  0
    8.0984  -13.6008   26.4390 N   0  0  0  0  0  0  0  0  0  0  0  0
    7.5401  -14.5982   25.5571 C   0  0  0  0  0  0  0  0  0  0  0  0
    8.5535  -14.2570   27.6791 O   0  0  0  0  0  0  0  0  0  0  0  0
    8.4182  -15.4904   27.8559 O   0  0  0  0  0  0  0  0  0  0  0  0
  1  2  1  0
  2  3  2  0
  4  5  1  0
  4  2  1  0
  5  6  1  0
  6  8  1  0
  6  7  1  6
  8  9  2  0
 11 13  1  0
 11 10  1  0
 12 11  2  0
 14 13  1  0
 15 14  1  0
 15 16  1  0
 17 16  1  1
 18 17  1  0
 18  8  1  0
 19 17  1  0
 20 19  2  0
 22 21  1  1
 22 24  1  0
 23 22  1  0
 24 25  1  1
 25 19  1  0
 26 24  1  0
 26 28  1  0
 27 26  2  0
M  END
$$$$
