QVY.pdb
     RDKit          3D

 29 29  0  0  1  0  0  0  0  0999 V2000
    7.8371  -22.6115   21.0493 N   0  0  0  0  0  0  0  0  0  0  0  0
    8.4685  -22.0969   19.8415 C   0  0  0  0  0  0  0  0  0  0  0  0
    9.3228  -22.8327   19.3421 O   0  0  0  0  0  0  0  0  0  0  0  0
    8.0344  -20.8003   19.3680 C   0  0  0  0  0  0  0  0  0  0  0  0
    8.3932  -19.5814   20.1362 C   0  0  0  0  0  0  0  0  0  0  0  0
    8.9792  -18.4627   19.3877 C   0  0  2  0  0  0  0  0  0  0  0  0
    9.9105  -18.8989   18.3614 N   0  0  0  0  0  0  0  0  0  0  0  0
    9.3778  -17.2199   20.0449 C   0  0  0  0  0  0  0  0  0  0  0  0
   10.6184  -17.0272   20.3312 O   0  0  0  0  0  0  0  0  0  0  0  0
    6.4928  -14.1632   21.4941 C   0  0  0  0  0  0  0  0  0  0  0  0
    7.8872  -13.8722   20.9086 C   0  0  1  0  0  0  0  0  0  0  0  0
    8.3241  -12.6735   21.7887 C   0  0  0  0  0  0  0  0  0  0  0  0
    8.7908  -15.0094   21.2382 C   0  0  2  0  0  0  0  0  0  0  0  0
    8.5238  -16.1871   20.4164 N   0  0  0  0  0  0  0  0  0  0  0  0
    8.8909  -15.4080   22.6472 C   0  0  0  0  0  0  0  0  0  0  0  0
    8.0765  -16.3392   23.0492 O   0  0  0  0  0  0  0  0  0  0  0  0
    5.8526  -10.7240   27.3525 O   0  0  0  0  0  0  0  0  0  0  0  0
    6.4077  -11.9086   26.8869 C   0  0  0  0  0  0  0  0  0  0  0  0
    7.7836  -12.0173   26.8469 C   0  0  0  0  0  0  0  0  0  0  0  0
    8.3609  -13.1819   26.3890 C   0  0  0  0  0  0  0  0  0  0  0  0
    7.6222  -14.2649   25.9596 C   0  0  0  0  0  0  0  0  0  0  0  0
    8.2289  -15.5114   25.4554 C   0  0  0  0  0  0  0  0  0  0  0  0
    9.6504  -15.3652   25.0404 C   0  0  2  0  0  0  0  0  0  0  0  0
    9.7563  -14.9272   23.6415 N   0  0  0  0  0  0  0  0  0  0  0  0
   10.3720  -16.6361   25.2456 C   0  0  0  0  0  0  0  0  0  0  0  0
   10.2791  -17.6118   24.4674 O   0  0  0  0  0  0  0  0  0  0  0  0
    6.2401  -14.1401   26.0063 C   0  0  0  0  0  0  0  0  0  0  0  0
    5.6462  -12.9874   26.4600 C   0  0  0  0  0  0  0  0  0  0  0  0
   11.2199  -16.8297   26.3442 O   0  0  0  0  0  0  0  0  0  0  0  0
  2  1  1  0
  2  3  2  0
  4  2  1  0
  5  4  1  0
  6  5  1  0
  6  7  1  1
  8  9  2  0
  8  6  1  0
 11 10  1  1
 11 13  1  0
 12 11  1  0
 13 14  1  6
 14  8  1  0
 15 13  1  0
 15 24  1  0
 16 15  2  0
 17 18  1  0
 18 28  2  0
 19 18  1  0
 19 20  2  0
 20 21  1  0
 21 27  2  0
 21 22  1  0
 23 22  1  6
 23 24  1  0
 23 25  1  0
 25 29  1  0
 26 25  2  0
 28 27  1  0
M  END
$$$$
