QVY.pdb
     RDKit          3D

 29 29  0  0  1  0  0  0  0  0999 V2000
   14.2327  -16.7834   16.3329 N   0  0  0  0  0  0  0  0  0  0  0  0
   13.2881  -17.8034   15.8971 C   0  0  0  0  0  0  0  0  0  0  0  0
   13.7241  -18.5998   15.0627 O   0  0  0  0  0  0  0  0  0  0  0  0
   11.9634  -17.7710   16.4783 C   0  0  0  0  0  0  0  0  0  0  0  0
   11.6591  -16.7957   17.5558 C   0  0  0  0  0  0  0  0  0  0  0  0
   10.9223  -17.2924   18.7244 C   0  0  2  0  0  0  0  0  0  0  0  0
    9.9950  -18.3605   18.3925 N   0  0  0  0  0  0  0  0  0  0  0  0
   10.4255  -16.3921   19.7625 C   0  0  0  0  0  0  0  0  0  0  0  0
   11.2246  -15.5269   20.2829 O   0  0  0  0  0  0  0  0  0  0  0  0
    6.8287  -14.9510   19.5665 C   0  0  0  0  0  0  0  0  0  0  0  0
    7.0708  -15.3002   21.0468 C   0  0  1  0  0  0  0  0  0  0  0  0
    6.4205  -16.7052   21.1208 C   0  0  0  0  0  0  0  0  0  0  0  0
    8.5332  -15.4829   21.2618 C   0  0  2  0  0  0  0  0  0  0  0  0
    9.1323  -16.3768   20.2741 N   0  0  0  0  0  0  0  0  0  0  0  0
    8.9765  -15.8710   22.6060 C   0  0  0  0  0  0  0  0  0  0  0  0
    9.3740  -17.1003   22.7569 O   0  0  0  0  0  0  0  0  0  0  0  0
    5.6188  -10.7435   26.5396 O   0  0  0  0  0  0  0  0  0  0  0  0
    6.6237  -11.6974   26.4475 C   0  0  0  0  0  0  0  0  0  0  0  0
    7.5004  -11.6262   25.3832 C   0  0  0  0  0  0  0  0  0  0  0  0
    8.5069  -12.5604   25.2675 C   0  0  0  0  0  0  0  0  0  0  0  0
    8.6872  -13.5828   26.1759 C   0  0  0  0  0  0  0  0  0  0  0  0
    9.7527  -14.5959   26.0554 C   0  0  0  0  0  0  0  0  0  0  0  0
    9.4594  -15.6640   25.0616 C   0  0  2  0  0  0  0  0  0  0  0  0
    9.0411  -15.0946   23.7729 N   0  0  0  0  0  0  0  0  0  0  0  0
    8.4271  -16.5775   25.5885 C   0  0  0  0  0  0  0  0  0  0  0  0
    8.5956  -17.2931   26.6013 O   0  0  0  0  0  0  0  0  0  0  0  0
    7.7978  -13.6405   27.2405 C   0  0  0  0  0  0  0  0  0  0  0  0
    6.7884  -12.7181   27.3733 C   0  0  0  0  0  0  0  0  0  0  0  0
    7.1733  -16.7003   24.9751 O   0  0  0  0  0  0  0  0  0  0  0  0
  2  1  1  0
  2  3  2  0
  4  2  1  0
  5  4  1  0
  6  5  1  0
  6  7  1  6
  8  9  2  0
  8  6  1  0
 11 10  1  6
 11 13  1  0
 12 11  1  0
 13 14  1  6
 14  8  1  0
 15 13  1  0
 15 24  1  0
 16 15  2  0
 17 18  1  0
 18 28  2  0
 19 18  1  0
 19 20  2  0
 20 21  1  0
 21 27  2  0
 21 22  1  0
 23 22  1  1
 23 24  1  0
 23 25  1  0
 25 29  1  0
 26 25  2  0
 28 27  1  0
M  END
$$$$
