QVY.pdb
     RDKit          3D

 29 29  0  0  1  0  0  0  0  0999 V2000
   15.8372  -14.0503   17.6747 N   0  0  0  0  0  0  0  0  0  0  0  0
   14.7245  -14.3750   16.7923 C   0  0  0  0  0  0  0  0  0  0  0  0
   14.9759  -14.3133   15.5866 O   0  0  0  0  0  0  0  0  0  0  0  0
   13.4662  -14.7263   17.4146 C   0  0  0  0  0  0  0  0  0  0  0  0
   13.3850  -15.9354   18.2726 C   0  0  0  0  0  0  0  0  0  0  0  0
   12.0864  -16.2386   18.8865 C   0  0  2  0  0  0  0  0  0  0  0  0
   11.1596  -16.8670   17.9608 N   0  0  0  0  0  0  0  0  0  0  0  0
   11.4416  -15.3187   19.8210 C   0  0  0  0  0  0  0  0  0  0  0  0
   12.1617  -14.6821   20.6779 O   0  0  0  0  0  0  0  0  0  0  0  0
    7.0256  -14.9621   20.5138 C   0  0  0  0  0  0  0  0  0  0  0  0
    8.0083  -13.8003   20.2764 C   0  0  1  0  0  0  0  0  0  0  0  0
    7.4275  -12.7316   21.2370 C   0  0  0  0  0  0  0  0  0  0  0  0
    9.3442  -14.1878   20.8092 C   0  0  2  0  0  0  0  0  0  0  0  0
   10.0779  -15.0551   19.8910 N   0  0  0  0  0  0  0  0  0  0  0  0
    9.3952  -14.7528   22.1627 C   0  0  0  0  0  0  0  0  0  0  0  0
    9.7442  -16.0021   22.2605 O   0  0  0  0  0  0  0  0  0  0  0  0
    9.7229  -16.4429   30.8618 O   0  0  0  0  0  0  0  0  0  0  0  0
    9.5609  -15.8120   29.6354 C   0  0  0  0  0  0  0  0  0  0  0  0
    8.5696  -16.2677   28.7891 C   0  0  0  0  0  0  0  0  0  0  0  0
    8.3872  -15.6598   27.5658 C   0  0  0  0  0  0  0  0  0  0  0  0
    9.1583  -14.6005   27.1341 C   0  0  0  0  0  0  0  0  0  0  0  0
    8.9808  -13.9505   25.8218 C   0  0  0  0  0  0  0  0  0  0  0  0
    9.2000  -14.8594   24.6641 C   0  0  2  0  0  0  0  0  0  0  0  0
    9.1232  -14.1302   23.3904 N   0  0  0  0  0  0  0  0  0  0  0  0
    8.2212  -15.9634   24.6935 C   0  0  0  0  0  0  0  0  0  0  0  0
    7.0309  -15.8356   24.3287 O   0  0  0  0  0  0  0  0  0  0  0  0
   10.1505  -14.1539   27.9965 C   0  0  0  0  0  0  0  0  0  0  0  0
   10.3473  -14.7466   29.2202 C   0  0  0  0  0  0  0  0  0  0  0  0
    8.5726  -17.2443   25.1398 O   0  0  0  0  0  0  0  0  0  0  0  0
  2  1  1  0
  2  3  2  0
  4  2  1  0
  5  4  1  0
  6  5  1  0
  6  7  1  6
  8  9  2  0
  8  6  1  0
 11 10  1  1
 11 13  1  0
 12 11  1  0
 13 14  1  6
 14  8  1  0
 15 13  1  0
 15 24  1  0
 16 15  2  0
 17 18  1  0
 18 28  2  0
 19 18  1  0
 19 20  2  0
 20 21  1  0
 21 27  2  0
 21 22  1  0
 23 22  1  1
 23 24  1  0
 23 25  1  0
 25 29  1  0
 26 25  2  0
 28 27  1  0
M  END
$$$$
