QVY.pdb
     RDKit          3D

 29 29  0  0  1  0  0  0  0  0999 V2000
   15.3781  -13.5302   17.1796 N   0  0  0  0  0  0  0  0  0  0  0  0
   15.2522  -14.7411   17.9799 C   0  0  0  0  0  0  0  0  0  0  0  0
   16.0367  -14.8274   18.9274 O   0  0  0  0  0  0  0  0  0  0  0  0
   14.2400  -15.6956   17.5823 C   0  0  0  0  0  0  0  0  0  0  0  0
   12.8044  -15.3442   17.7251 C   0  0  0  0  0  0  0  0  0  0  0  0
   12.0490  -16.0195   18.7874 C   0  0  2  0  0  0  0  0  0  0  0  0
   11.3593  -17.2091   18.3183 N   0  0  0  0  0  0  0  0  0  0  0  0
   11.3003  -15.2723   19.7957 C   0  0  0  0  0  0  0  0  0  0  0  0
   11.9398  -14.5641   20.6603 O   0  0  0  0  0  0  0  0  0  0  0  0
    6.8632  -13.5375   21.3673 C   0  0  0  0  0  0  0  0  0  0  0  0
    7.7029  -14.2681   20.3030 C   0  0  1  0  0  0  0  0  0  0  0  0
    7.7874  -13.1776   19.2049 C   0  0  0  0  0  0  0  0  0  0  0  0
    9.0811  -14.4635   20.8328 C   0  0  2  0  0  0  0  0  0  0  0  0
    9.9163  -15.2521   19.9305 N   0  0  0  0  0  0  0  0  0  0  0  0
    9.2137  -14.9804   22.2000 C   0  0  0  0  0  0  0  0  0  0  0  0
    9.2501  -16.2738   22.3336 O   0  0  0  0  0  0  0  0  0  0  0  0
   10.4377  -16.5920   30.8095 O   0  0  0  0  0  0  0  0  0  0  0  0
   10.3269  -15.9955   29.5605 C   0  0  0  0  0  0  0  0  0  0  0  0
    9.8812  -14.6903   29.4939 C   0  0  0  0  0  0  0  0  0  0  0  0
    9.7617  -14.0742   28.2670 C   0  0  0  0  0  0  0  0  0  0  0  0
   10.0690  -14.7053   27.0794 C   0  0  0  0  0  0  0  0  0  0  0  0
    9.9327  -14.0605   25.7597 C   0  0  0  0  0  0  0  0  0  0  0  0
    9.3825  -14.9550   24.7054 C   0  0  2  0  0  0  0  0  0  0  0  0
    9.3146  -14.2710   23.4064 N   0  0  0  0  0  0  0  0  0  0  0  0
    8.0510  -15.4505   25.1048 C   0  0  0  0  0  0  0  0  0  0  0  0
    6.9905  -14.8237   24.8839 O   0  0  0  0  0  0  0  0  0  0  0  0
   10.5160  -16.0172   27.1633 C   0  0  0  0  0  0  0  0  0  0  0  0
   10.6422  -16.6481   28.3771 C   0  0  0  0  0  0  0  0  0  0  0  0
    7.8917  -16.6749   25.7672 O   0  0  0  0  0  0  0  0  0  0  0  0
  2  1  1  0
  2  3  2  0
  4  2  1  0
  5  4  1  0
  6  5  1  0
  6  7  1  6
  8  9  2  0
  8  6  1  0
 11 10  1  1
 11 13  1  0
 12 11  1  0
 13 14  1  6
 14  8  1  0
 15 13  1  0
 15 24  1  0
 16 15  2  0
 17 18  1  0
 18 28  2  0
 19 18  1  0
 19 20  2  0
 20 21  1  0
 21 27  2  0
 21 22  1  0
 23 22  1  1
 23 24  1  0
 23 25  1  0
 25 29  1  0
 26 25  2  0
 28 27  1  0
M  END
$$$$
