QVY.pdb
     RDKit          3D

 29 29  0  0  1  0  0  0  0  0999 V2000
   12.1955  -19.7183   14.6069 N   0  0  0  0  0  0  0  0  0  0  0  0
   12.4027  -19.2950   15.9855 C   0  0  0  0  0  0  0  0  0  0  0  0
   13.3824  -19.7924   16.5452 O   0  0  0  0  0  0  0  0  0  0  0  0
   11.4522  -18.3553   16.5398 C   0  0  0  0  0  0  0  0  0  0  0  0
   11.6922  -17.7780   17.8866 C   0  0  0  0  0  0  0  0  0  0  0  0
   10.5591  -17.7536   18.8197 C   0  0  2  0  0  0  0  0  0  0  0  0
    9.3363  -18.2752   18.2335 N   0  0  0  0  0  0  0  0  0  0  0  0
   10.3356  -16.6344   19.7323 C   0  0  0  0  0  0  0  0  0  0  0  0
   11.3397  -16.1073   20.3421 O   0  0  0  0  0  0  0  0  0  0  0  0
    6.3489  -15.1995   21.0999 C   0  0  0  0  0  0  0  0  0  0  0  0
    7.4811  -14.3044   20.5625 C   0  0  1  0  0  0  0  0  0  0  0  0
    7.3232  -13.0618   21.4754 C   0  0  0  0  0  0  0  0  0  0  0  0
    8.7885  -14.9327   20.9007 C   0  0  2  0  0  0  0  0  0  0  0  0
    9.1034  -16.0624   20.0301 N   0  0  0  0  0  0  0  0  0  0  0  0
    9.0141  -15.3147   22.2997 C   0  0  0  0  0  0  0  0  0  0  0  0
    9.0008  -16.5879   22.5660 O   0  0  0  0  0  0  0  0  0  0  0  0
   10.5977  -16.0420   30.9784 O   0  0  0  0  0  0  0  0  0  0  0  0
   10.4553  -15.5794   29.6768 C   0  0  0  0  0  0  0  0  0  0  0  0
   10.0241  -14.2818   29.4852 C   0  0  0  0  0  0  0  0  0  0  0  0
    9.8739  -13.7973   28.2038 C   0  0  0  0  0  0  0  0  0  0  0  0
   10.1359  -14.5553   27.0815 C   0  0  0  0  0  0  0  0  0  0  0  0
    9.9664  -14.0518   25.7054 C   0  0  0  0  0  0  0  0  0  0  0  0
    9.3633  -15.0409   24.7714 C   0  0  2  0  0  0  0  0  0  0  0  0
    9.2523  -14.4933   23.4120 N   0  0  0  0  0  0  0  0  0  0  0  0
    8.0427  -15.4703   25.2707 C   0  0  0  0  0  0  0  0  0  0  0  0
    7.8920  -16.3690   26.1286 O   0  0  0  0  0  0  0  0  0  0  0  0
   10.5689  -15.8578   27.2909 C   0  0  0  0  0  0  0  0  0  0  0  0
   10.7252  -16.3586   28.5606 C   0  0  0  0  0  0  0  0  0  0  0  0
    6.8567  -14.8867   24.8057 O   0  0  0  0  0  0  0  0  0  0  0  0
  2  1  1  0
  2  3  2  0
  4  2  1  0
  5  4  1  0
  6  5  1  0
  6  7  1  6
  8  9  2  0
  8  6  1  0
 11 10  1  1
 11 13  1  0
 12 11  1  0
 13 14  1  6
 14  8  1  0
 15 13  1  0
 15 24  1  0
 16 15  2  0
 17 18  1  0
 18 28  2  0
 19 18  1  0
 19 20  2  0
 20 21  1  0
 21 27  2  0
 21 22  1  0
 23 22  1  1
 23 24  1  0
 23 25  1  0
 25 29  1  0
 26 25  2  0
 28 27  1  0
M  END
$$$$
