QVY.pdb
     RDKit          3D

 29 29  0  0  1  0  0  0  0  0999 V2000
   10.0615  -17.5685   14.6912 N   0  0  0  0  0  0  0  0  0  0  0  0
    8.8836  -18.4069   14.5124 C   0  0  0  0  0  0  0  0  0  0  0  0
    9.0256  -19.3515   13.7326 O   0  0  0  0  0  0  0  0  0  0  0  0
    7.6948  -18.0458   15.2541 C   0  0  0  0  0  0  0  0  0  0  0  0
    7.7409  -16.9044   16.2028 C   0  0  0  0  0  0  0  0  0  0  0  0
    7.7865  -17.2218   17.6354 C   0  0  2  0  0  0  0  0  0  0  0  0
    6.4848  -17.5761   18.1748 N   0  0  0  0  0  0  0  0  0  0  0  0
    8.6153  -16.4609   18.5678 C   0  0  0  0  0  0  0  0  0  0  0  0
    9.8884  -16.6537   18.5824 O   0  0  0  0  0  0  0  0  0  0  0  0
    7.8071  -12.8391   19.1941 C   0  0  0  0  0  0  0  0  0  0  0  0
    8.2958  -13.3285   20.5701 C   0  0  1  0  0  0  0  0  0  0  0  0
    6.9438  -13.5263   21.3017 C   0  0  0  0  0  0  0  0  0  0  0  0
    8.9072  -14.6771   20.4083 C   0  0  2  0  0  0  0  0  0  0  0  0
    8.1548  -15.5205   19.4830 N   0  0  0  0  0  0  0  0  0  0  0  0
    9.2070  -15.4351   21.6286 C   0  0  0  0  0  0  0  0  0  0  0  0
    8.2821  -16.2447   22.0544 O   0  0  0  0  0  0  0  0  0  0  0  0
   13.0694  -22.5117   24.3883 O   0  0  0  0  0  0  0  0  0  0  0  0
   12.5757  -21.3308   23.8496 C   0  0  0  0  0  0  0  0  0  0  0  0
   12.3561  -21.2724   22.4877 C   0  0  0  0  0  0  0  0  0  0  0  0
   11.8668  -20.1126   21.9268 C   0  0  0  0  0  0  0  0  0  0  0  0
   11.5804  -18.9854   22.6686 C   0  0  0  0  0  0  0  0  0  0  0  0
   11.0687  -17.7343   22.0777 C   0  0  0  0  0  0  0  0  0  0  0  0
   10.8848  -16.6336   23.0621 C   0  0  2  0  0  0  0  0  0  0  0  0
   10.3688  -15.4190   22.4152 N   0  0  0  0  0  0  0  0  0  0  0  0
   12.1574  -16.3554   23.7556 C   0  0  0  0  0  0  0  0  0  0  0  0
   13.1162  -15.7575   23.2174 O   0  0  0  0  0  0  0  0  0  0  0  0
   11.8063  -19.0602   24.0366 C   0  0  0  0  0  0  0  0  0  0  0  0
   12.2931  -20.2077   24.6142 C   0  0  0  0  0  0  0  0  0  0  0  0
   12.3722  -16.7512   25.0824 O   0  0  0  0  0  0  0  0  0  0  0  0
  2  1  1  0
  2  3  2  0
  4  2  1  0
  5  4  1  0
  6  5  1  0
  6  7  1  1
  8  9  2  0
  8  6  1  0
 11 10  1  6
 11 13  1  0
 12 11  1  0
 13 14  1  6
 14  8  1  0
 15 13  1  0
 15 24  1  0
 16 15  2  0
 17 18  1  0
 18 28  2  0
 19 18  1  0
 19 20  2  0
 20 21  1  0
 21 27  2  0
 21 22  1  0
 23 22  1  6
 23 24  1  0
 23 25  1  0
 25 29  1  0
 26 25  2  0
 28 27  1  0
M  END
$$$$
