KDG.pdb
     RDKit          3D

 22 21  0  0  1  0  0  0  0  0999 V2000
   -3.4053  -25.5491   25.8947 N   0  0  0  0  0  0  0  0  0  0  0  0
   -3.1381  -25.7643   27.3240 C   0  0  1  0  0  0  0  0  0  0  0  0
   -1.6848  -25.4550   27.5477 C   0  0  0  0  0  0  0  0  0  0  0  0
   -0.7525  -26.5320   27.1022 C   0  0  0  0  0  0  0  0  0  0  0  0
   -0.8505  -27.7831   27.9400 C   0  0  0  0  0  0  0  0  0  0  0  0
    0.1878  -28.7724   27.4936 C   0  0  0  0  0  0  0  0  0  0  0  0
    0.0888  -30.0340   28.1964 N   0  0  0  0  0  0  0  0  0  0  0  0
   -3.9592  -24.7622   28.0450 C   0  0  0  0  0  0  0  0  0  0  0  0
   -3.9197  -24.7266   29.2929 O   0  0  0  0  0  0  0  0  0  0  0  0
   -4.7998  -23.8264   27.4069 N   0  0  0  0  0  0  0  0  0  0  0  0
   -5.5833  -22.9041   28.1445 C   0  0  1  0  0  0  0  0  0  0  0  0
   -5.5411  -21.4931   27.6611 C   0  0  0  0  0  0  0  0  0  0  0  0
   -4.2111  -20.9001   27.8506 C   0  0  0  0  0  0  0  0  0  0  0  0
   -3.5258  -21.0122   28.8982 O   0  0  0  0  0  0  0  0  0  0  0  0
   -6.9866  -23.3764   28.2636 C   0  0  0  0  0  0  0  0  0  0  0  0
   -7.6297  -23.7370   27.2454 O   0  0  0  0  0  0  0  0  0  0  0  0
   -3.5963  -20.1406   26.8340 O   0  0  0  0  0  0  0  0  0  0  0  0
   -7.6407  -23.4355   29.5211 N   0  0  0  0  0  0  0  0  0  0  0  0
   -8.9915  -23.9010   29.6943 C   0  0  0  0  0  0  0  0  0  0  0  0
   -9.4409  -23.8301   31.1021 C   0  0  0  0  0  0  0  0  0  0  0  0
   -8.6256  -23.4891   32.1699 O   0  0  0  0  0  0  0  0  0  0  0  0
  -10.6422  -24.0952   31.3591 O   0  0  0  0  0  0  0  0  0  0  0  0
  2  8  1  0
  2  1  1  6
  3  2  1  0
  4  3  1  0
  5  4  1  0
  6  7  1  0
  6  5  1  0
  8  9  2  0
 10  8  1  0
 10 11  1  0
 11 12  1  6
 13 17  1  0
 13 12  1  0
 14 13  2  0
 15 18  1  0
 15 11  1  0
 16 15  2  0
 19 18  1  0
 20 19  1  0
 21 20  1  0
 22 20  2  0
M  END
$$$$
