KDG.pdb
     RDKit          3D

 22 21  0  0  1  0  0  0  0  0999 V2000
    7.0781  -14.2614   22.0878 N   0  0  0  0  0  0  0  0  0  0  0  0
    8.0646  -14.9078   21.2105 C   0  0  1  0  0  0  0  0  0  0  0  0
    8.4276  -13.9070   20.1500 C   0  0  0  0  0  0  0  0  0  0  0  0
    7.8600  -14.2075   18.8027 C   0  0  0  0  0  0  0  0  0  0  0  0
    8.3575  -13.2713   17.7291 C   0  0  0  0  0  0  0  0  0  0  0  0
    7.7796  -13.6723   16.4019 C   0  0  0  0  0  0  0  0  0  0  0  0
    8.1796  -12.7827   15.3324 N   0  0  0  0  0  0  0  0  0  0  0  0
    9.2543  -15.1631   22.0576 C   0  0  0  0  0  0  0  0  0  0  0  0
    9.4526  -14.4465   23.0611 O   0  0  0  0  0  0  0  0  0  0  0  0
   10.1980  -16.1804   21.8043 N   0  0  0  0  0  0  0  0  0  0  0  0
   11.4168  -16.2618   22.5229 C   0  0  1  0  0  0  0  0  0  0  0  0
   11.6108  -17.5072   23.3215 C   0  0  0  0  0  0  0  0  0  0  0  0
   12.7823  -17.4042   24.2010 C   0  0  0  0  0  0  0  0  0  0  0  0
   13.9670  -17.6065   23.8331 O   0  0  0  0  0  0  0  0  0  0  0  0
   12.5778  -16.0268   21.6266 C   0  0  0  0  0  0  0  0  0  0  0  0
   12.4787  -16.2147   20.3875 O   0  0  0  0  0  0  0  0  0  0  0  0
   12.6485  -17.0597   25.5617 O   0  0  0  0  0  0  0  0  0  0  0  0
   13.8259  -15.5857   22.1365 N   0  0  0  0  0  0  0  0  0  0  0  0
   14.9618  -15.2814   21.3068 C   0  0  0  0  0  0  0  0  0  0  0  0
   16.1148  -14.7769   22.0845 C   0  0  0  0  0  0  0  0  0  0  0  0
   16.1068  -14.5699   23.4550 O   0  0  0  0  0  0  0  0  0  0  0  0
   17.1798  -14.5148   21.4709 O   0  0  0  0  0  0  0  0  0  0  0  0
  2  8  1  0
  2  1  1  1
  3  2  1  0
  4  3  1  0
  5  4  1  0
  6  7  1  0
  6  5  1  0
  8  9  2  0
 10  8  1  0
 10 11  1  0
 11 12  1  6
 13 17  1  0
 13 12  1  0
 14 13  2  0
 15 18  1  0
 15 11  1  0
 16 15  2  0
 19 18  1  0
 20 19  1  0
 21 20  1  0
 22 20  2  0
M  END
$$$$
