KDG.pdb
     RDKit          3D

 22 21  0  0  1  0  0  0  0  0999 V2000
    2.5107  -22.1619   23.5807 N   0  0  0  0  0  0  0  0  0  0  0  0
    3.2108  -22.8135   24.6968 C   0  0  1  0  0  0  0  0  0  0  0  0
    2.8286  -24.2663   24.6632 C   0  0  0  0  0  0  0  0  0  0  0  0
    1.4658  -24.5297   24.1145 C   0  0  0  0  0  0  0  0  0  0  0  0
    0.4392  -24.8023   25.1863 C   0  0  0  0  0  0  0  0  0  0  0  0
   -0.8866  -25.1075   24.5497 C   0  0  0  0  0  0  0  0  0  0  0  0
   -1.9263  -25.3530   25.5265 N   0  0  0  0  0  0  0  0  0  0  0  0
    4.6572  -22.6900   24.3952 C   0  0  0  0  0  0  0  0  0  0  0  0
    5.4419  -23.5720   24.8031 O   0  0  0  0  0  0  0  0  0  0  0  0
    5.2211  -21.6236   23.6643 N   0  0  0  0  0  0  0  0  0  0  0  0
    6.6184  -21.5248   23.4486 C   0  0  1  0  0  0  0  0  0  0  0  0
    7.0279  -21.0195   22.1057 C   0  0  0  0  0  0  0  0  0  0  0  0
    6.8815  -22.0549   21.0748 C   0  0  0  0  0  0  0  0  0  0  0  0
    6.5439  -23.2436   21.3045 O   0  0  0  0  0  0  0  0  0  0  0  0
    7.2669  -20.7353   24.5268 C   0  0  0  0  0  0  0  0  0  0  0  0
    8.5086  -20.5390   24.5187 O   0  0  0  0  0  0  0  0  0  0  0  0
    7.1184  -21.7720   19.7139 O   0  0  0  0  0  0  0  0  0  0  0  0
    6.5110  -20.1813   25.5918 N   0  0  0  0  0  0  0  0  0  0  0  0
    7.0705  -19.3223   26.6020 C   0  0  0  0  0  0  0  0  0  0  0  0
    7.8257  -20.0712   27.6303 C   0  0  0  0  0  0  0  0  0  0  0  0
    8.1051  -21.4273   27.5666 O   0  0  0  0  0  0  0  0  0  0  0  0
    8.2478  -19.4450   28.6350 O   0  0  0  0  0  0  0  0  0  0  0  0
  2  8  1  0
  2  1  1  6
  3  2  1  0
  4  3  1  0
  5  4  1  0
  6  7  1  0
  6  5  1  0
  8  9  2  0
 10  8  1  0
 10 11  1  0
 11 12  1  6
 13 17  1  0
 13 12  1  0
 14 13  2  0
 15 18  1  0
 15 11  1  0
 16 15  2  0
 19 18  1  0
 20 19  1  0
 21 20  1  0
 22 20  2  0
M  END
$$$$
