KDG.pdb
     RDKit          3D

 22 21  0  0  1  0  0  0  0  0999 V2000
    8.9895  -17.8355   20.3758 N   0  0  0  0  0  0  0  0  0  0  0  0
    9.8495  -16.6999   20.7383 C   0  0  1  0  0  0  0  0  0  0  0  0
    8.9564  -15.6490   21.3349 C   0  0  0  0  0  0  0  0  0  0  0  0
    7.8428  -15.2115   20.4426 C   0  0  0  0  0  0  0  0  0  0  0  0
    7.8420  -13.7251   20.1832 C   0  0  0  0  0  0  0  0  0  0  0  0
    6.6936  -13.3704   19.2823 C   0  0  0  0  0  0  0  0  0  0  0  0
    6.5992  -11.9464   19.0404 N   0  0  0  0  0  0  0  0  0  0  0  0
   10.7657  -17.2048   21.7890 C   0  0  0  0  0  0  0  0  0  0  0  0
   10.5253  -18.3048   22.3295 O   0  0  0  0  0  0  0  0  0  0  0  0
   11.9144  -16.5152   22.2303 N   0  0  0  0  0  0  0  0  0  0  0  0
   12.7494  -17.0351   23.2505 C   0  0  1  0  0  0  0  0  0  0  0  0
   14.0970  -16.4042   23.3627 C   0  0  0  0  0  0  0  0  0  0  0  0
   14.7883  -16.3803   22.0674 C   0  0  0  0  0  0  0  0  0  0  0  0
   15.1232  -17.4054   21.4218 O   0  0  0  0  0  0  0  0  0  0  0  0
   12.0535  -17.0235   24.5627 C   0  0  0  0  0  0  0  0  0  0  0  0
   11.7374  -15.9371   25.1106 O   0  0  0  0  0  0  0  0  0  0  0  0
   15.1326  -15.1637   21.4432 O   0  0  0  0  0  0  0  0  0  0  0  0
   11.7256  -18.2293   25.2343 N   0  0  0  0  0  0  0  0  0  0  0  0
   10.9553  -18.2795   26.4490 C   0  0  0  0  0  0  0  0  0  0  0  0
   11.7561  -18.7211   27.6120 C   0  0  0  0  0  0  0  0  0  0  0  0
   11.2615  -18.8562   28.8997 O   0  0  0  0  0  0  0  0  0  0  0  0
   12.9693  -18.9952   27.4316 O   0  0  0  0  0  0  0  0  0  0  0  0
  2  8  1  0
  2  1  1  1
  3  2  1  0
  4  3  1  0
  5  4  1  0
  6  7  1  0
  6  5  1  0
  8  9  2  0
 10  8  1  0
 10 11  1  0
 11 12  1  1
 13 17  1  0
 13 12  1  0
 14 13  2  0
 15 18  1  0
 15 11  1  0
 16 15  2  0
 19 18  1  0
 20 19  1  0
 21 20  1  0
 22 20  2  0
M  END
$$$$
