KDG.pdb
     RDKit          3D

 22 21  0  0  1  0  0  0  0  0999 V2000
    6.4617  -20.2418   18.3749 N   0  0  0  0  0  0  0  0  0  0  0  0
    6.6913  -19.4166   19.5695 C   0  0  1  0  0  0  0  0  0  0  0  0
    5.3554  -19.2231   20.2296 C   0  0  0  0  0  0  0  0  0  0  0  0
    4.3962  -20.3461   20.0143 C   0  0  0  0  0  0  0  0  0  0  0  0
    3.0358  -20.0850   20.6127 C   0  0  0  0  0  0  0  0  0  0  0  0
    2.1504  -21.2784   20.3940 C   0  0  0  0  0  0  0  0  0  0  0  0
    0.8239  -21.0916   20.9426 N   0  0  0  0  0  0  0  0  0  0  0  0
    7.5552  -20.2266   20.4615 C   0  0  0  0  0  0  0  0  0  0  0  0
    7.6485  -21.4567   20.2665 O   0  0  0  0  0  0  0  0  0  0  0  0
    8.2949  -19.6940   21.5379 N   0  0  0  0  0  0  0  0  0  0  0  0
    9.0352  -20.5241   22.4163 C   0  0  1  0  0  0  0  0  0  0  0  0
   10.3633  -19.9911   22.8388 C   0  0  0  0  0  0  0  0  0  0  0  0
   11.1858  -19.6191   21.6806 C   0  0  0  0  0  0  0  0  0  0  0  0
   11.1855  -20.2314   20.5829 O   0  0  0  0  0  0  0  0  0  0  0  0
    8.2213  -20.9035   23.5995 C   0  0  0  0  0  0  0  0  0  0  0  0
    8.7011  -20.8252   24.7588 O   0  0  0  0  0  0  0  0  0  0  0  0
   12.0589  -18.5129   21.7273 O   0  0  0  0  0  0  0  0  0  0  0  0
    6.8862  -21.3624   23.4599 N   0  0  0  0  0  0  0  0  0  0  0  0
    6.0922  -21.8466   24.5583 C   0  0  0  0  0  0  0  0  0  0  0  0
    4.7335  -22.2562   24.1402 C   0  0  0  0  0  0  0  0  0  0  0  0
    3.7348  -22.6658   25.0097 O   0  0  0  0  0  0  0  0  0  0  0  0
    4.4544  -22.2353   22.9149 O   0  0  0  0  0  0  0  0  0  0  0  0
  2  8  1  0
  2  1  1  6
  3  2  1  0
  4  3  1  0
  5  4  1  0
  6  7  1  0
  6  5  1  0
  8  9  2  0
 10  8  1  0
 10 11  1  0
 11 12  1  1
 13 17  1  0
 13 12  1  0
 14 13  2  0
 15 18  1  0
 15 11  1  0
 16 15  2  0
 19 18  1  0
 20 19  1  0
 21 20  1  0
 22 20  2  0
M  END
$$$$
