EGN.pdb
     RDKit          3D

 22 21  0  0  1  0  0  0  0  0999 V2000
    8.3882  -17.8349   19.7709 N   0  0  0  0  0  0  0  0  0  0  0  0
    8.9565  -16.6025   19.2437 C   0  0  1  0  0  0  0  0  0  0  0  0
    8.7143  -16.6114   17.7755 C   0  0  0  0  0  0  0  0  0  0  0  0
    8.6792  -17.9715   17.1540 C   0  0  0  0  0  0  0  0  0  0  0  0
    8.3257  -17.8495   15.7020 C   0  0  0  0  0  0  0  0  0  0  0  0
    8.1584  -16.7041   15.1942 O   0  0  0  0  0  0  0  0  0  0  0  0
    8.4671  -15.4188   19.9662 C   0  0  0  0  0  0  0  0  0  0  0  0
    8.8966  -14.2543   19.7711 O   0  0  0  0  0  0  0  0  0  0  0  0
    8.1907  -19.0041   14.9496 O   0  0  0  0  0  0  0  0  0  0  0  0
    7.4354  -15.5082   20.9743 N   0  0  0  0  0  0  0  0  0  0  0  0
    6.9293  -14.3599   21.6570 C   0  0  0  0  0  0  0  0  0  0  0  0
    7.2981  -14.2937   23.0757 C   0  0  0  0  0  0  0  0  0  0  0  0
    6.8793  -13.4147   23.8710 O   0  0  0  0  0  0  0  0  0  0  0  0
    6.8280  -18.7455   25.9824 N   0  0  0  0  0  0  0  0  0  0  0  0
    6.9837  -17.6270   25.1500 C   0  0  0  0  0  0  0  0  0  0  0  0
    6.9182  -17.8338   23.9004 O   0  0  0  0  0  0  0  0  0  0  0  0
    7.2113  -16.2685   25.6184 C   0  0  0  0  0  0  0  0  0  0  0  0
    8.3528  -15.5355   24.9918 C   0  0  2  0  0  0  0  0  0  0  0  0
    8.1828  -15.2788   23.5947 N   0  0  0  0  0  0  0  0  0  0  0  0
    9.6064  -16.2677   25.2881 C   0  0  0  0  0  0  0  0  0  0  0  0
   10.1060  -16.4052   26.5683 O   0  0  0  0  0  0  0  0  0  0  0  0
   10.2320  -16.7800   24.3308 O   0  0  0  0  0  0  0  0  0  0  0  0
  2  1  1  1
  3  4  1  0
  3  2  1  0
  5  6  2  0
  5  4  1  0
  7  2  1  0
  7  8  2  0
  9  5  1  0
 10  7  1  0
 11 10  1  0
 11 12  1  0
 12 19  1  0
 13 12  2  0
 15 14  1  0
 16 15  2  0
 17 15  1  0
 18 20  1  0
 18 17  1  6
 19 18  1  0
 20 21  1  0
 22 20  2  0
M  END
$$$$
