EGN.pdb
     RDKit          3D

 22 21  0  0  1  0  0  0  0  0999 V2000
   11.0719  -15.7603   15.9978 N   0  0  0  0  0  0  0  0  0  0  0  0
   12.2609  -16.5985   16.0572 C   0  0  1  0  0  0  0  0  0  0  0  0
   12.6655  -16.8703   14.6512 C   0  0  0  0  0  0  0  0  0  0  0  0
   13.1725  -15.6783   13.9031 C   0  0  0  0  0  0  0  0  0  0  0  0
   13.5332  -16.0812   12.5046 C   0  0  0  0  0  0  0  0  0  0  0  0
   14.6100  -16.7089   12.2937 O   0  0  0  0  0  0  0  0  0  0  0  0
   13.2994  -16.0183   16.9216 C   0  0  0  0  0  0  0  0  0  0  0  0
   14.3671  -16.6080   17.2231 O   0  0  0  0  0  0  0  0  0  0  0  0
   12.6704  -15.7524   11.4728 O   0  0  0  0  0  0  0  0  0  0  0  0
   13.1672  -14.7005   17.5003 N   0  0  0  0  0  0  0  0  0  0  0  0
   14.2389  -14.0551   18.1898 C   0  0  0  0  0  0  0  0  0  0  0  0
   14.2350  -14.2702   19.6413 C   0  0  0  0  0  0  0  0  0  0  0  0
   15.0981  -13.7988   20.4245 O   0  0  0  0  0  0  0  0  0  0  0  0
   10.3141  -15.7983   24.2027 N   0  0  0  0  0  0  0  0  0  0  0  0
   11.5424  -15.6063   23.5527 C   0  0  0  0  0  0  0  0  0  0  0  0
   12.5836  -15.6629   24.2748 O   0  0  0  0  0  0  0  0  0  0  0  0
   11.6975  -15.3510   22.1288 C   0  0  0  0  0  0  0  0  0  0  0  0
   13.0970  -15.3537   21.6051 C   0  0  2  0  0  0  0  0  0  0  0  0
   13.1965  -15.0586   20.2088 N   0  0  0  0  0  0  0  0  0  0  0  0
   13.7343  -16.6430   21.9617 C   0  0  0  0  0  0  0  0  0  0  0  0
   14.5102  -16.8046   23.0928 O   0  0  0  0  0  0  0  0  0  0  0  0
   13.5560  -17.6213   21.1993 O   0  0  0  0  0  0  0  0  0  0  0  0
  2  1  1  6
  3  4  1  0
  3  2  1  0
  5  6  2  0
  5  4  1  0
  7  2  1  0
  7  8  2  0
  9  5  1  0
 10  7  1  0
 11 10  1  0
 11 12  1  0
 12 19  1  0
 13 12  2  0
 15 14  1  0
 16 15  2  0
 17 15  1  0
 18 20  1  0
 18 17  1  6
 19 18  1  0
 20 21  1  0
 22 20  2  0
M  END
$$$$
