EGN.pdb
     RDKit          3D

 22 21  0  0  1  0  0  0  0  0999 V2000
   10.1537  -16.2468   19.7115 N   0  0  0  0  0  0  0  0  0  0  0  0
    8.7484  -16.3120   19.3363 C   0  0  1  0  0  0  0  0  0  0  0  0
    8.5081  -17.6822   18.8078 C   0  0  0  0  0  0  0  0  0  0  0  0
    8.9046  -18.7893   19.7322 C   0  0  0  0  0  0  0  0  0  0  0  0
    8.5689  -20.1093   19.1054 C   0  0  0  0  0  0  0  0  0  0  0  0
    9.4891  -20.9469   18.8829 O   0  0  0  0  0  0  0  0  0  0  0  0
    7.8666  -15.8849   20.4328 C   0  0  0  0  0  0  0  0  0  0  0  0
    6.6155  -15.8192   20.3379 O   0  0  0  0  0  0  0  0  0  0  0  0
    7.2491  -20.3782   18.7843 O   0  0  0  0  0  0  0  0  0  0  0  0
    8.3831  -15.5013   21.7270 N   0  0  0  0  0  0  0  0  0  0  0  0
    7.5312  -15.1766   22.8268 C   0  0  0  0  0  0  0  0  0  0  0  0
    8.2471  -14.7666   24.0402 C   0  0  0  0  0  0  0  0  0  0  0  0
    9.4867  -14.8977   24.2037 O   0  0  0  0  0  0  0  0  0  0  0  0
    5.0928  -11.5866   26.7263 N   0  0  0  0  0  0  0  0  0  0  0  0
    6.4666  -11.8469   26.6117 C   0  0  0  0  0  0  0  0  0  0  0  0
    7.1474  -11.0215   25.9306 O   0  0  0  0  0  0  0  0  0  0  0  0
    7.1497  -12.9821   27.2128 C   0  0  0  0  0  0  0  0  0  0  0  0
    8.0914  -13.7318   26.3273 C   0  0  2  0  0  0  0  0  0  0  0  0
    7.5041  -14.1840   25.1037 N   0  0  0  0  0  0  0  0  0  0  0  0
    8.7009  -14.8337   27.1080 C   0  0  0  0  0  0  0  0  0  0  0  0
    8.5801  -16.1610   26.7459 O   0  0  0  0  0  0  0  0  0  0  0  0
    9.3511  -14.5391   28.1380 O   0  0  0  0  0  0  0  0  0  0  0  0
  2  1  1  1
  3  4  1  0
  3  2  1  0
  5  6  2  0
  5  4  1  0
  7  2  1  0
  7  8  2  0
  9  5  1  0
 10  7  1  0
 11 10  1  0
 11 12  1  0
 12 19  1  0
 13 12  2  0
 15 14  1  0
 16 15  2  0
 17 15  1  0
 18 20  1  0
 18 17  1  1
 19 18  1  0
 20 21  1  0
 22 20  2  0
M  END
$$$$
