EGN.pdb
     RDKit          3D

 22 21  0  0  1  0  0  0  0  0999 V2000
    6.0791  -20.0133   20.8845 N   0  0  0  0  0  0  0  0  0  0  0  0
    5.5030  -18.8134   20.2945 C   0  0  1  0  0  0  0  0  0  0  0  0
    4.0435  -19.0648   20.1483 C   0  0  0  0  0  0  0  0  0  0  0  0
    3.2800  -19.0915   21.4343 C   0  0  0  0  0  0  0  0  0  0  0  0
    1.8378  -19.3908   21.1541 C   0  0  0  0  0  0  0  0  0  0  0  0
    1.4910  -19.7649   19.9975 O   0  0  0  0  0  0  0  0  0  0  0  0
    5.8723  -17.6020   21.0420 C   0  0  0  0  0  0  0  0  0  0  0  0
    5.5886  -16.4366   20.6679 O   0  0  0  0  0  0  0  0  0  0  0  0
    0.9164  -19.2484   22.1779 O   0  0  0  0  0  0  0  0  0  0  0  0
    6.6034  -17.6625   22.2872 N   0  0  0  0  0  0  0  0  0  0  0  0
    6.9073  -16.4968   23.0551 C   0  0  0  0  0  0  0  0  0  0  0  0
    6.7638  -16.6781   24.5041 C   0  0  0  0  0  0  0  0  0  0  0  0
    5.6659  -16.6240   25.1143 O   0  0  0  0  0  0  0  0  0  0  0  0
    6.4083  -20.6676   28.0118 N   0  0  0  0  0  0  0  0  0  0  0  0
    7.4960  -19.9519   27.4894 C   0  0  0  0  0  0  0  0  0  0  0  0
    8.6004  -20.0670   28.1025 O   0  0  0  0  0  0  0  0  0  0  0  0
    7.4412  -19.1011   26.3105 C   0  0  0  0  0  0  0  0  0  0  0  0
    7.9329  -17.7006   26.4823 C   0  0  2  0  0  0  0  0  0  0  0  0
    7.9308  -16.9310   25.2764 N   0  0  0  0  0  0  0  0  0  0  0  0
    9.2651  -17.7417   27.1296 C   0  0  0  0  0  0  0  0  0  0  0  0
    9.4336  -17.6517   28.4975 O   0  0  0  0  0  0  0  0  0  0  0  0
   10.2746  -17.8633   26.3973 O   0  0  0  0  0  0  0  0  0  0  0  0
  2  1  1  1
  3  4  1  0
  3  2  1  0
  5  6  2  0
  5  4  1  0
  7  2  1  0
  7  8  2  0
  9  5  1  0
 10  7  1  0
 11 10  1  0
 11 12  1  0
 12 19  1  0
 13 12  2  0
 15 14  1  0
 16 15  2  0
 17 15  1  0
 18 20  1  0
 18 17  1  6
 19 18  1  0
 20 21  1  0
 22 20  2  0
M  END
$$$$
