EGN.pdb
     RDKit          3D

 22 21  0  0  1  0  0  0  0  0999 V2000
    9.9530  -14.4753   19.0691 N   0  0  0  0  0  0  0  0  0  0  0  0
    8.8467  -13.7206   18.4978 C   0  0  1  0  0  0  0  0  0  0  0  0
    8.4363  -14.4328   17.2572 C   0  0  0  0  0  0  0  0  0  0  0  0
    9.5657  -14.9989   16.4563 C   0  0  0  0  0  0  0  0  0  0  0  0
    9.0183  -15.7430   15.2754 C   0  0  0  0  0  0  0  0  0  0  0  0
    8.2742  -16.7479   15.4607 O   0  0  0  0  0  0  0  0  0  0  0  0
    7.7798  -13.4803   19.4808 C   0  0  0  0  0  0  0  0  0  0  0  0
    6.7750  -12.7593   19.2591 O   0  0  0  0  0  0  0  0  0  0  0  0
    9.3450  -15.3062   14.0026 O   0  0  0  0  0  0  0  0  0  0  0  0
    7.8077  -14.0669   20.8014 N   0  0  0  0  0  0  0  0  0  0  0  0
    6.7623  -13.8623   21.7533 C   0  0  0  0  0  0  0  0  0  0  0  0
    6.9113  -14.6440   22.9861 C   0  0  0  0  0  0  0  0  0  0  0  0
    6.1269  -14.5686   23.9657 O   0  0  0  0  0  0  0  0  0  0  0  0
    5.9357  -17.3490   23.3619 N   0  0  0  0  0  0  0  0  0  0  0  0
    6.9860  -18.1439   23.8448 C   0  0  0  0  0  0  0  0  0  0  0  0
    6.8066  -19.3992   23.8224 O   0  0  0  0  0  0  0  0  0  0  0  0
    8.2462  -17.6312   24.3605 C   0  0  0  0  0  0  0  0  0  0  0  0
    8.4227  -16.1479   24.3201 C   0  0  2  0  0  0  0  0  0  0  0  0
    8.0060  -15.5456   23.0912 N   0  0  0  0  0  0  0  0  0  0  0  0
    9.8281  -15.8280   24.6636 C   0  0  0  0  0  0  0  0  0  0  0  0
   10.7115  -15.2766   23.7563 O   0  0  0  0  0  0  0  0  0  0  0  0
   10.2220  -16.0714   25.8280 O   0  0  0  0  0  0  0  0  0  0  0  0
  2  1  1  1
  3  4  1  0
  3  2  1  0
  5  6  2  0
  5  4  1  0
  7  2  1  0
  7  8  2  0
  9  5  1  0
 10  7  1  0
 11 10  1  0
 11 12  1  0
 12 19  1  0
 13 12  2  0
 15 14  1  0
 16 15  2  0
 17 15  1  0
 18 20  1  0
 18 17  1  6
 19 18  1  0
 20 21  1  0
 22 20  2  0
M  END
$$$$
