EGN.pdb
     RDKit          3D

 22 21  0  0  1  0  0  0  0  0999 V2000
    8.8014  -20.6400   15.5494 N   0  0  0  0  0  0  0  0  0  0  0  0
    9.8690  -19.6875   15.8190 C   0  0  1  0  0  0  0  0  0  0  0  0
    9.9969  -18.8316   14.6084 C   0  0  0  0  0  0  0  0  0  0  0  0
   10.6095  -19.5086   13.4237 C   0  0  0  0  0  0  0  0  0  0  0  0
   10.8158  -18.5080   12.3263 C   0  0  0  0  0  0  0  0  0  0  0  0
    9.8190  -17.9050   11.8357 O   0  0  0  0  0  0  0  0  0  0  0  0
    9.6615  -18.9743   17.0882 C   0  0  0  0  0  0  0  0  0  0  0  0
    8.8522  -18.0240   17.2313 O   0  0  0  0  0  0  0  0  0  0  0  0
   12.1031  -18.2688   11.8757 O   0  0  0  0  0  0  0  0  0  0  0  0
   10.3870  -19.3201   18.2894 N   0  0  0  0  0  0  0  0  0  0  0  0
   10.2100  -18.6178   19.5208 C   0  0  0  0  0  0  0  0  0  0  0  0
   10.9853  -19.1639   20.6404 C   0  0  0  0  0  0  0  0  0  0  0  0
   11.6973  -20.1973   20.5649 O   0  0  0  0  0  0  0  0  0  0  0  0
   12.0164  -15.3324   22.8437 N   0  0  0  0  0  0  0  0  0  0  0  0
   12.7201  -16.5172   23.1068 C   0  0  0  0  0  0  0  0  0  0  0  0
   13.9098  -16.5813   22.6717 O   0  0  0  0  0  0  0  0  0  0  0  0
   12.1838  -17.6577   23.8337 C   0  0  0  0  0  0  0  0  0  0  0  0
   11.7660  -18.8310   23.0080 C   0  0  2  0  0  0  0  0  0  0  0  0
   10.9365  -18.4920   21.8928 N   0  0  0  0  0  0  0  0  0  0  0  0
   11.1414  -19.8384   23.8972 C   0  0  0  0  0  0  0  0  0  0  0  0
   11.8611  -20.5601   24.8292 O   0  0  0  0  0  0  0  0  0  0  0  0
    9.9086  -20.0366   23.7916 O   0  0  0  0  0  0  0  0  0  0  0  0
  2  1  1  6
  3  4  1  0
  3  2  1  0
  5  6  2  0
  5  4  1  0
  7  2  1  0
  7  8  2  0
  9  5  1  0
 10  7  1  0
 11 10  1  0
 11 12  1  0
 12 19  1  0
 13 12  2  0
 15 14  1  0
 16 15  2  0
 17 15  1  0
 18 20  1  0
 18 17  1  1
 19 18  1  0
 20 21  1  0
 22 20  2  0
M  END
$$$$
