EGN.pdb
     RDKit          3D

 22 21  0  0  1  0  0  0  0  0999 V2000
   12.0289  -17.1697   19.4381 N   0  0  0  0  0  0  0  0  0  0  0  0
   10.8233  -16.6598   20.0756 C   0  0  1  0  0  0  0  0  0  0  0  0
    9.7267  -17.6089   19.7420 C   0  0  0  0  0  0  0  0  0  0  0  0
   10.0250  -19.0430   20.0445 C   0  0  0  0  0  0  0  0  0  0  0  0
    8.8507  -19.8911   19.6573 C   0  0  0  0  0  0  0  0  0  0  0  0
    8.4496  -19.8923   18.4586 O   0  0  0  0  0  0  0  0  0  0  0  0
   11.0285  -16.3964   21.5077 C   0  0  0  0  0  0  0  0  0  0  0  0
   11.9619  -16.8970   22.1834 O   0  0  0  0  0  0  0  0  0  0  0  0
    8.2317  -20.6569   20.6309 O   0  0  0  0  0  0  0  0  0  0  0  0
   10.1545  -15.5250   22.2599 N   0  0  0  0  0  0  0  0  0  0  0  0
   10.2802  -15.3464   23.6717 C   0  0  0  0  0  0  0  0  0  0  0  0
    9.8395  -16.4997   24.4645 C   0  0  0  0  0  0  0  0  0  0  0  0
    8.6345  -16.7846   24.6820 O   0  0  0  0  0  0  0  0  0  0  0  0
   11.4319  -20.4533   22.9638 N   0  0  0  0  0  0  0  0  0  0  0  0
   10.5891  -20.1831   24.0523 C   0  0  0  0  0  0  0  0  0  0  0  0
    9.3430  -20.3096   23.8525 O   0  0  0  0  0  0  0  0  0  0  0  0
   11.0431  -19.7744   25.3728 C   0  0  0  0  0  0  0  0  0  0  0  0
   10.5236  -18.4664   25.8751 C   0  0  2  0  0  0  0  0  0  0  0  0
   10.8267  -17.3553   25.0264 N   0  0  0  0  0  0  0  0  0  0  0  0
   11.0000  -18.2689   27.2642 C   0  0  0  0  0  0  0  0  0  0  0  0
   11.8132  -17.2148   27.6318 O   0  0  0  0  0  0  0  0  0  0  0  0
   10.6450  -19.0979   28.1343 O   0  0  0  0  0  0  0  0  0  0  0  0
  2  1  1  1
  3  4  1  0
  3  2  1  0
  5  6  2  0
  5  4  1  0
  7  2  1  0
  7  8  2  0
  9  5  1  0
 10  7  1  0
 11 10  1  0
 11 12  1  0
 12 19  1  0
 13 12  2  0
 15 14  1  0
 16 15  2  0
 17 15  1  0
 18 20  1  0
 18 17  1  6
 19 18  1  0
 20 21  1  0
 22 20  2  0
M  END
$$$$
