EGN.pdb
     RDKit          3D

 22 21  0  0  1  0  0  0  0  0999 V2000
   13.3089  -13.8653   19.6756 N   0  0  0  0  0  0  0  0  0  0  0  0
   12.6951  -14.8647   18.8130 C   0  0  1  0  0  0  0  0  0  0  0  0
   13.7354  -15.2858   17.8357 C   0  0  0  0  0  0  0  0  0  0  0  0
   14.5905  -14.1755   17.3128 C   0  0  0  0  0  0  0  0  0  0  0  0
   15.5646  -14.7223   16.3127 C   0  0  0  0  0  0  0  0  0  0  0  0
   16.7953  -14.4592   16.4315 O   0  0  0  0  0  0  0  0  0  0  0  0
   12.0674  -15.9468   19.5859 C   0  0  0  0  0  0  0  0  0  0  0  0
   11.3978  -16.8763   19.0700 O   0  0  0  0  0  0  0  0  0  0  0  0
   15.0866  -15.5074   15.2771 O   0  0  0  0  0  0  0  0  0  0  0  0
   12.1758  -16.0235   21.0251 N   0  0  0  0  0  0  0  0  0  0  0  0
   11.6216  -17.1030   21.7791 C   0  0  0  0  0  0  0  0  0  0  0  0
   11.8608  -17.0113   23.2239 C   0  0  0  0  0  0  0  0  0  0  0  0
   11.9228  -15.9282   23.8591 O   0  0  0  0  0  0  0  0  0  0  0  0
   10.9684  -18.4836   28.1693 N   0  0  0  0  0  0  0  0  0  0  0  0
   10.0467  -18.6792   27.1300 C   0  0  0  0  0  0  0  0  0  0  0  0
    8.8406  -18.8781   27.4685 O   0  0  0  0  0  0  0  0  0  0  0  0
   10.3779  -18.6689   25.7133 C   0  0  0  0  0  0  0  0  0  0  0  0
   11.7904  -18.3257   25.3670 C   0  0  2  0  0  0  0  0  0  0  0  0
   12.0346  -18.2145   23.9618 N   0  0  0  0  0  0  0  0  0  0  0  0
   12.6906  -19.3007   26.0262 C   0  0  0  0  0  0  0  0  0  0  0  0
   13.4491  -18.9846   27.1363 O   0  0  0  0  0  0  0  0  0  0  0  0
   12.7597  -20.4575   25.5494 O   0  0  0  0  0  0  0  0  0  0  0  0
  2  1  1  1
  3  4  1  0
  3  2  1  0
  5  6  2  0
  5  4  1  0
  7  2  1  0
  7  8  2  0
  9  5  1  0
 10  7  1  0
 11 10  1  0
 11 12  1  0
 12 19  1  0
 13 12  2  0
 15 14  1  0
 16 15  2  0
 17 15  1  0
 18 20  1  0
 18 17  1  6
 19 18  1  0
 20 21  1  0
 22 20  2  0
M  END
$$$$
