EGN.pdb
     RDKit          3D

 22 21  0  0  1  0  0  0  0  0999 V2000
   11.8475  -19.6367   22.3074 N   0  0  0  0  0  0  0  0  0  0  0  0
   12.3238  -18.2709   22.1419 C   0  0  1  0  0  0  0  0  0  0  0  0
   12.3222  -17.9895   20.6806 C   0  0  0  0  0  0  0  0  0  0  0  0
   11.9787  -19.1613   19.8168 C   0  0  0  0  0  0  0  0  0  0  0  0
   11.9436  -18.7315   18.3808 C   0  0  0  0  0  0  0  0  0  0  0  0
   12.9761  -18.8648   17.6638 O   0  0  0  0  0  0  0  0  0  0  0  0
   11.5727  -17.3221   22.9774 C   0  0  0  0  0  0  0  0  0  0  0  0
   11.7919  -16.0851   22.9993 O   0  0  0  0  0  0  0  0  0  0  0  0
   10.7717  -18.1957   17.8739 O   0  0  0  0  0  0  0  0  0  0  0  0
   10.5053  -17.7497   23.8529 N   0  0  0  0  0  0  0  0  0  0  0  0
    9.7342  -16.8298   24.6275 C   0  0  0  0  0  0  0  0  0  0  0  0
   10.4204  -16.3298   25.8242 C   0  0  0  0  0  0  0  0  0  0  0  0
   11.5976  -16.6378   26.1402 O   0  0  0  0  0  0  0  0  0  0  0  0
    7.6215  -12.8986   27.0337 N   0  0  0  0  0  0  0  0  0  0  0  0
    8.8867  -12.8326   27.6363 C   0  0  0  0  0  0  0  0  0  0  0  0
    9.5893  -11.8096   27.3745 O   0  0  0  0  0  0  0  0  0  0  0  0
    9.4362  -13.8436   28.5268 C   0  0  0  0  0  0  0  0  0  0  0  0
   10.2787  -14.8996   27.8883 C   0  0  2  0  0  0  0  0  0  0  0  0
    9.7214  -15.4417   26.6874 N   0  0  0  0  0  0  0  0  0  0  0  0
   10.5788  -15.9417   28.8980 C   0  0  0  0  0  0  0  0  0  0  0  0
   11.3254  -15.6893   30.0322 O   0  0  0  0  0  0  0  0  0  0  0  0
   10.1324  -17.0967   28.7060 O   0  0  0  0  0  0  0  0  0  0  0  0
  2  1  1  6
  3  4  1  0
  3  2  1  0
  5  6  2  0
  5  4  1  0
  7  2  1  0
  7  8  2  0
  9  5  1  0
 10  7  1  0
 11 10  1  0
 11 12  1  0
 12 19  1  0
 13 12  2  0
 15 14  1  0
 16 15  2  0
 17 15  1  0
 18 20  1  0
 18 17  1  1
 19 18  1  0
 20 21  1  0
 22 20  2  0
M  END
$$$$
