EGN.pdb
     RDKit          3D

 22 21  0  0  1  0  0  0  0  0999 V2000
    8.1416  -18.5055   19.2271 N   0  0  0  0  0  0  0  0  0  0  0  0
    9.2005  -19.4893   19.0521 C   0  0  1  0  0  0  0  0  0  0  0  0
    9.1599  -19.9152   17.6268 C   0  0  0  0  0  0  0  0  0  0  0  0
    9.7238  -18.9232   16.6596 C   0  0  0  0  0  0  0  0  0  0  0  0
    9.6900  -19.4985   15.2755 C   0  0  0  0  0  0  0  0  0  0  0  0
    9.2708  -20.6780   15.0996 O   0  0  0  0  0  0  0  0  0  0  0  0
   10.4975  -18.9923   19.5350 C   0  0  0  0  0  0  0  0  0  0  0  0
   11.5585  -19.6645   19.5046 O   0  0  0  0  0  0  0  0  0  0  0  0
   10.1224  -18.7164   14.2178 O   0  0  0  0  0  0  0  0  0  0  0  0
   10.6518  -17.6675   20.0917 N   0  0  0  0  0  0  0  0  0  0  0  0
   11.9170  -17.1562   20.5143 C   0  0  0  0  0  0  0  0  0  0  0  0
   12.0021  -16.8777   21.9524 C   0  0  0  0  0  0  0  0  0  0  0  0
   13.0149  -16.3902   22.5157 O   0  0  0  0  0  0  0  0  0  0  0  0
    9.6598  -14.3393   23.1462 N   0  0  0  0  0  0  0  0  0  0  0  0
    8.9353  -15.1635   24.0202 C   0  0  0  0  0  0  0  0  0  0  0  0
    7.7616  -14.7858   24.3173 O   0  0  0  0  0  0  0  0  0  0  0  0
    9.4338  -16.4022   24.5983 C   0  0  0  0  0  0  0  0  0  0  0  0
   10.7939  -16.8370   24.1580 C   0  0  2  0  0  0  0  0  0  0  0  0
   10.8764  -17.1729   22.7698 N   0  0  0  0  0  0  0  0  0  0  0  0
   11.2478  -17.9387   25.0386 C   0  0  0  0  0  0  0  0  0  0  0  0
   11.4935  -19.2150   24.5715 O   0  0  0  0  0  0  0  0  0  0  0  0
   11.4128  -17.6924   26.2562 O   0  0  0  0  0  0  0  0  0  0  0  0
  2  1  1  6
  3  4  1  0
  3  2  1  0
  5  6  2  0
  5  4  1  0
  7  2  1  0
  7  8  2  0
  9  5  1  0
 10  7  1  0
 11 10  1  0
 11 12  1  0
 12 19  1  0
 13 12  2  0
 15 14  1  0
 16 15  2  0
 17 15  1  0
 18 20  1  0
 18 17  1  1
 19 18  1  0
 20 21  1  0
 22 20  2  0
M  END
$$$$
