EGN.pdb
     RDKit          3D

 22 21  0  0  1  0  0  0  0  0999 V2000
   10.1143  -12.8819   19.5832 N   0  0  0  0  0  0  0  0  0  0  0  0
    8.6875  -13.1364   19.7221 C   0  0  1  0  0  0  0  0  0  0  0  0
    8.2178  -13.6733   18.4161 C   0  0  0  0  0  0  0  0  0  0  0  0
    8.9242  -14.9087   17.9555 C   0  0  0  0  0  0  0  0  0  0  0  0
    8.4100  -15.3050   16.6040 C   0  0  0  0  0  0  0  0  0  0  0  0
    7.5222  -14.6015   16.0428 O   0  0  0  0  0  0  0  0  0  0  0  0
    8.3893  -13.9652   20.8996 C   0  0  0  0  0  0  0  0  0  0  0  0
    7.2492  -14.0557   21.4196 O   0  0  0  0  0  0  0  0  0  0  0  0
    8.9253  -16.4402   16.0014 O   0  0  0  0  0  0  0  0  0  0  0  0
    9.4053  -14.7531   21.5598 N   0  0  0  0  0  0  0  0  0  0  0  0
    9.1035  -15.6557   22.6251 C   0  0  0  0  0  0  0  0  0  0  0  0
    9.3425  -15.1056   23.9642 C   0  0  0  0  0  0  0  0  0  0  0  0
    8.9298  -13.9813   24.3466 O   0  0  0  0  0  0  0  0  0  0  0  0
    9.8173  -13.2142   28.7727 N   0  0  0  0  0  0  0  0  0  0  0  0
    9.6212  -14.5502   28.3924 C   0  0  0  0  0  0  0  0  0  0  0  0
    9.7338  -15.4242   29.3046 O   0  0  0  0  0  0  0  0  0  0  0  0
    9.3022  -14.9913   27.0431 C   0  0  0  0  0  0  0  0  0  0  0  0
   10.4572  -15.4188   26.1969 C   0  0  2  0  0  0  0  0  0  0  0  0
   10.0852  -15.8823   24.8956 N   0  0  0  0  0  0  0  0  0  0  0  0
   11.2539  -16.4154   26.9503 C   0  0  0  0  0  0  0  0  0  0  0  0
   11.4549  -17.7054   26.4998 O   0  0  0  0  0  0  0  0  0  0  0  0
   11.7624  -16.0637   28.0403 O   0  0  0  0  0  0  0  0  0  0  0  0
  2  1  1  6
  3  4  1  0
  3  2  1  0
  5  6  2  0
  5  4  1  0
  7  2  1  0
  7  8  2  0
  9  5  1  0
 10  7  1  0
 11 10  1  0
 11 12  1  0
 12 19  1  0
 13 12  2  0
 15 14  1  0
 16 15  2  0
 17 15  1  0
 18 20  1  0
 18 17  1  1
 19 18  1  0
 20 21  1  0
 22 20  2  0
M  END
$$$$
