TSV.pdb
     RDKit          3D

 21 20  0  0  1  0  0  0  0  0999 V2000
   10.9816  -14.2256   18.4436 C   0  0  0  0  0  0  0  0  0  0  0  0
   10.0805  -14.2820   19.6487 C   0  0  1  0  0  0  0  0  0  0  0  0
   10.3511  -13.2111   20.4801 O   0  0  0  0  0  0  0  0  0  0  0  0
    8.6140  -14.2932   19.2645 C   0  0  2  0  0  0  0  0  0  0  0  0
    8.2562  -13.0799   18.5648 N   0  0  0  0  0  0  0  0  0  0  0  0
    7.8466  -14.4214   20.5456 C   0  0  0  0  0  0  0  0  0  0  0  0
    7.3260  -13.3971   21.0362 O   0  0  0  0  0  0  0  0  0  0  0  0
    8.0094  -17.9041   23.0528 O   0  0  0  0  0  0  0  0  0  0  0  0
    6.8131  -17.2631   22.8489 C   0  0  0  0  0  0  0  0  0  0  0  0
    7.0655  -15.8217   22.4884 C   0  0  2  0  0  0  0  0  0  0  0  0
    7.6853  -15.6391   21.2203 N   0  0  0  0  0  0  0  0  0  0  0  0
    7.7681  -15.0958   23.5789 C   0  0  0  0  0  0  0  0  0  0  0  0
    8.9940  -14.8696   23.4243 O   0  0  0  0  0  0  0  0  0  0  0  0
    7.4035  -12.2759   27.6256 C   0  0  0  0  0  0  0  0  0  0  0  0
    6.8230  -13.0817   26.5147 C   0  0  1  0  0  0  0  0  0  0  0  0
    6.2581  -12.1884   25.4265 C   0  0  0  0  0  0  0  0  0  0  0  0
    7.8121  -14.0076   25.8528 C   0  0  2  0  0  0  0  0  0  0  0  0
    7.1392  -14.6571   24.7552 N   0  0  0  0  0  0  0  0  0  0  0  0
    8.3436  -15.0177   26.8315 C   0  0  0  0  0  0  0  0  0  0  0  0
    7.8372  -16.1633   26.9517 O   0  0  0  0  0  0  0  0  0  0  0  0
    9.4249  -14.7225   27.6489 O   0  0  0  0  0  0  0  0  0  0  0  0
  2  4  1  0
  2  1  1  6
  3  2  1  0
  4  6  1  0
  4  5  1  1
  6 11  1  0
  7  6  2  0
  9  8  1  0
 10 12  1  0
 10  9  1  1
 11 10  1  0
 12 13  2  0
 15 14  1  1
 16 15  1  0
 17 15  1  0
 18 12  1  0
 17 18  1  6
 19 21  1  0
 19 17  1  0
 20 19  2  0
M  END
$$$$
