TSV.pdb
     RDKit          3D

 21 20  0  0  1  0  0  0  0  0999 V2000
    9.4732  -20.3716   24.2143 C   0  0  0  0  0  0  0  0  0  0  0  0
    9.3793  -18.9013   23.9031 C   0  0  1  0  0  0  0  0  0  0  0  0
   10.3065  -18.2077   24.6583 O   0  0  0  0  0  0  0  0  0  0  0  0
    9.5821  -18.6163   22.4280 C   0  0  2  0  0  0  0  0  0  0  0  0
   10.8989  -19.0317   22.0001 N   0  0  0  0  0  0  0  0  0  0  0  0
    9.4032  -17.1377   22.2589 C   0  0  0  0  0  0  0  0  0  0  0  0
   10.4077  -16.3999   22.3453 O   0  0  0  0  0  0  0  0  0  0  0  0
    5.5857  -15.4932   21.9115 O   0  0  0  0  0  0  0  0  0  0  0  0
    6.5712  -14.8408   21.2137 C   0  0  0  0  0  0  0  0  0  0  0  0
    7.9144  -15.1534   21.8215 C   0  0  2  0  0  0  0  0  0  0  0  0
    8.1594  -16.5430   22.0079 N   0  0  0  0  0  0  0  0  0  0  0  0
    8.1603  -14.3585   23.0533 C   0  0  0  0  0  0  0  0  0  0  0  0
    8.1414  -13.1072   22.9452 O   0  0  0  0  0  0  0  0  0  0  0  0
    7.1642  -12.7550   27.0853 C   0  0  0  0  0  0  0  0  0  0  0  0
    7.2385  -13.4498   25.7692 C   0  0  1  0  0  0  0  0  0  0  0  0
    7.0764  -12.4703   24.6221 C   0  0  0  0  0  0  0  0  0  0  0  0
    8.5364  -14.1827   25.5402 C   0  0  2  0  0  0  0  0  0  0  0  0
    8.4090  -14.9282   24.3124 N   0  0  0  0  0  0  0  0  0  0  0  0
    8.8513  -15.0948   26.6932 C   0  0  0  0  0  0  0  0  0  0  0  0
    8.4811  -16.2972   26.7154 O   0  0  0  0  0  0  0  0  0  0  0  0
    9.5704  -14.6410   27.7894 O   0  0  0  0  0  0  0  0  0  0  0  0
  2  4  1  0
  2  1  1  6
  3  2  1  0
  4  6  1  0
  4  5  1  1
  6 11  1  0
  7  6  2  0
  9  8  1  0
 10 12  1  0
 10  9  1  1
 11 10  1  0
 12 13  2  0
 15 14  1  1
 16 15  1  0
 17 15  1  0
 18 12  1  0
 17 18  1  6
 19 21  1  0
 19 17  1  0
 20 19  2  0
M  END
$$$$
