TSV.pdb
     RDKit          3D

 21 20  0  0  1  0  0  0  0  0999 V2000
   10.2274  -14.4881   17.8289 C   0  0  0  0  0  0  0  0  0  0  0  0
    9.5798  -14.5292   19.1877 C   0  0  1  0  0  0  0  0  0  0  0  0
   10.3250  -13.7799   20.0790 O   0  0  0  0  0  0  0  0  0  0  0  0
    8.1473  -14.0343   19.1522 C   0  0  2  0  0  0  0  0  0  0  0  0
    8.0930  -12.6435   18.7618 N   0  0  0  0  0  0  0  0  0  0  0  0
    7.6037  -14.2262   20.5359 C   0  0  0  0  0  0  0  0  0  0  0  0
    7.5864  -13.2479   21.3127 O   0  0  0  0  0  0  0  0  0  0  0  0
    7.0896  -18.0186   22.4252 O   0  0  0  0  0  0  0  0  0  0  0  0
    6.0606  -17.1121   22.4810 C   0  0  0  0  0  0  0  0  0  0  0  0
    6.6035  -15.7176   22.3023 C   0  0  2  0  0  0  0  0  0  0  0  0
    7.1130  -15.4541   20.9998 N   0  0  0  0  0  0  0  0  0  0  0  0
    7.5660  -15.3590   23.3769 C   0  0  0  0  0  0  0  0  0  0  0  0
    8.7698  -15.2155   23.0482 O   0  0  0  0  0  0  0  0  0  0  0  0
    8.2162  -13.0703   27.6397 C   0  0  0  0  0  0  0  0  0  0  0  0
    7.3838  -13.6714   26.5598 C   0  0  1  0  0  0  0  0  0  0  0  0
    6.9177  -12.6160   25.5748 C   0  0  0  0  0  0  0  0  0  0  0  0
    8.0972  -14.7327   25.7607 C   0  0  2  0  0  0  0  0  0  0  0  0
    7.2020  -15.1755   24.7206 N   0  0  0  0  0  0  0  0  0  0  0  0
    8.5120  -15.8810   26.6383 C   0  0  0  0  0  0  0  0  0  0  0  0
    7.7553  -16.8619   26.8584 O   0  0  0  0  0  0  0  0  0  0  0  0
    9.7588  -15.9035   27.2461 O   0  0  0  0  0  0  0  0  0  0  0  0
  2  4  1  0
  2  1  1  6
  3  2  1  0
  4  6  1  0
  4  5  1  1
  6 11  1  0
  7  6  2  0
  9  8  1  0
 10 12  1  0
 10  9  1  6
 11 10  1  0
 12 13  2  0
 15 14  1  1
 16 15  1  0
 17 15  1  0
 18 12  1  0
 17 18  1  6
 19 21  1  0
 19 17  1  0
 20 19  2  0
M  END
$$$$
