TSV.pdb
     RDKit          3D

 21 20  0  0  1  0  0  0  0  0999 V2000
   12.7857  -19.0530   20.2065 C   0  0  0  0  0  0  0  0  0  0  0  0
   12.2999  -18.2014   21.3494 C   0  0  1  0  0  0  0  0  0  0  0  0
   13.3378  -17.9782   22.2348 O   0  0  0  0  0  0  0  0  0  0  0  0
   11.7211  -16.8837   20.8731 C   0  0  2  0  0  0  0  0  0  0  0  0
   12.7364  -16.0765   20.2350 N   0  0  0  0  0  0  0  0  0  0  0  0
   11.1779  -16.2003   22.0916 C   0  0  0  0  0  0  0  0  0  0  0  0
   11.7542  -15.1731   22.5083 O   0  0  0  0  0  0  0  0  0  0  0  0
    7.8168  -17.6960   24.2671 O   0  0  0  0  0  0  0  0  0  0  0  0
    7.9567  -16.3500   24.0381 C   0  0  0  0  0  0  0  0  0  0  0  0
    9.4171  -16.0114   23.8830 C   0  0  2  0  0  0  0  0  0  0  0  0
   10.0514  -16.6605   22.7867 N   0  0  0  0  0  0  0  0  0  0  0  0
   10.1611  -16.1831   25.1584 C   0  0  0  0  0  0  0  0  0  0  0  0
   10.9472  -17.1593   25.2403 O   0  0  0  0  0  0  0  0  0  0  0  0
   11.0987  -13.0366   27.6632 C   0  0  0  0  0  0  0  0  0  0  0  0
   10.5180  -14.2387   28.3253 C   0  0  1  0  0  0  0  0  0  0  0  0
    9.0318  -14.0633   28.5744 C   0  0  0  0  0  0  0  0  0  0  0  0
   10.6828  -15.5101   27.5315 C   0  0  2  0  0  0  0  0  0  0  0  0
   10.0308  -15.3213   26.2593 N   0  0  0  0  0  0  0  0  0  0  0  0
   10.0983  -16.6843   28.2665 C   0  0  0  0  0  0  0  0  0  0  0  0
   10.6554  -17.1854   29.2774 O   0  0  0  0  0  0  0  0  0  0  0  0
    8.9089  -17.2672   27.8540 O   0  0  0  0  0  0  0  0  0  0  0  0
  2  4  1  0
  2  1  1  6
  3  2  1  0
  4  6  1  0
  4  5  1  1
  6 11  1  0
  7  6  2  0
  9  8  1  0
 10 12  1  0
 10  9  1  1
 11 10  1  0
 12 13  2  0
 15 14  1  6
 16 15  1  0
 17 15  1  0
 18 12  1  0
 17 18  1  6
 19 21  1  0
 19 17  1  0
 20 19  2  0
M  END
$$$$
