TSV.pdb
     RDKit          3D

 21 20  0  0  1  0  0  0  0  0999 V2000
    9.2041  -12.6214   18.7801 C   0  0  0  0  0  0  0  0  0  0  0  0
    8.2752  -13.4033   17.8895 C   0  0  1  0  0  0  0  0  0  0  0  0
    7.9646  -12.6527   16.7710 O   0  0  0  0  0  0  0  0  0  0  0  0
    8.8659  -14.7383   17.4807 C   0  0  2  0  0  0  0  0  0  0  0  0
    7.9615  -15.4565   16.6113 N   0  0  0  0  0  0  0  0  0  0  0  0
    9.1062  -15.4965   18.7513 C   0  0  0  0  0  0  0  0  0  0  0  0
    8.1211  -15.8354   19.4409 O   0  0  0  0  0  0  0  0  0  0  0  0
   12.1685  -18.1071   21.4179 O   0  0  0  0  0  0  0  0  0  0  0  0
   12.0216  -17.3099   20.3104 C   0  0  0  0  0  0  0  0  0  0  0  0
   10.6899  -16.6065   20.3652 C   0  0  2  0  0  0  0  0  0  0  0  0
   10.3866  -15.8436   19.2026 N   0  0  0  0  0  0  0  0  0  0  0  0
   10.5303  -15.8258   21.6200 C   0  0  0  0  0  0  0  0  0  0  0  0
   11.1274  -14.7230   21.6928 O   0  0  0  0  0  0  0  0  0  0  0  0
    7.7431  -14.1417   22.9797 C   0  0  0  0  0  0  0  0  0  0  0  0
    8.1641  -15.0905   24.0488 C   0  0  1  0  0  0  0  0  0  0  0  0
    7.3215  -16.3519   24.0254 C   0  0  0  0  0  0  0  0  0  0  0  0
    9.6049  -15.5233   23.9458 C   0  0  2  0  0  0  0  0  0  0  0  0
    9.7570  -16.2531   22.7114 N   0  0  0  0  0  0  0  0  0  0  0  0
    9.9990  -16.3705   25.1237 C   0  0  0  0  0  0  0  0  0  0  0  0
   10.1193  -17.6201   25.0385 O   0  0  0  0  0  0  0  0  0  0  0  0
   10.2482  -15.8008   26.3639 O   0  0  0  0  0  0  0  0  0  0  0  0
  2  4  1  0
  2  1  1  1
  3  2  1  0
  4  6  1  0
  4  5  1  6
  6 11  1  0
  7  6  2  0
  9  8  1  0
 10 12  1  0
 10  9  1  6
 11 10  1  0
 12 13  2  0
 15 14  1  6
 16 15  1  0
 17 15  1  0
 18 12  1  0
 17 18  1  6
 19 21  1  0
 19 17  1  0
 20 19  2  0
M  END
$$$$
