TSV.pdb
     RDKit          3D

 21 20  0  0  1  0  0  0  0  0999 V2000
   10.0907  -14.7040   18.2232 C   0  0  0  0  0  0  0  0  0  0  0  0
    9.3797  -14.6934   19.5506 C   0  0  1  0  0  0  0  0  0  0  0  0
   10.0608  -13.8776   20.4346 O   0  0  0  0  0  0  0  0  0  0  0  0
    7.9379  -14.2430   19.4219 C   0  0  2  0  0  0  0  0  0  0  0  0
    7.8644  -12.8932   18.9096 N   0  0  0  0  0  0  0  0  0  0  0  0
    7.3481  -14.3290   20.7972 C   0  0  0  0  0  0  0  0  0  0  0  0
    7.2225  -13.2781   21.4610 O   0  0  0  0  0  0  0  0  0  0  0  0
    6.8934  -18.0369   22.9064 O   0  0  0  0  0  0  0  0  0  0  0  0
    5.9148  -17.0790   22.9985 C   0  0  0  0  0  0  0  0  0  0  0  0
    6.5069  -15.7213   22.7205 C   0  0  2  0  0  0  0  0  0  0  0  0
    6.9299  -15.5356   21.3743 N   0  0  0  0  0  0  0  0  0  0  0  0
    7.5621  -15.3679   23.7061 C   0  0  0  0  0  0  0  0  0  0  0  0
    8.7552  -15.4188   23.3165 O   0  0  0  0  0  0  0  0  0  0  0  0
    8.5461  -12.9455   27.8987 C   0  0  0  0  0  0  0  0  0  0  0  0
    7.6079  -13.6332   26.9674 C   0  0  1  0  0  0  0  0  0  0  0  0
    6.7951  -12.6314   26.1691 C   0  0  0  0  0  0  0  0  0  0  0  0
    8.2913  -14.5364   25.9719 C   0  0  2  0  0  0  0  0  0  0  0  0
    7.2955  -14.9859   25.0308 N   0  0  0  0  0  0  0  0  0  0  0  0
    8.9449  -15.7019   26.6611 C   0  0  0  0  0  0  0  0  0  0  0  0
    8.3744  -16.8176   26.7746 O   0  0  0  0  0  0  0  0  0  0  0  0
   10.2165  -15.5909   27.2048 O   0  0  0  0  0  0  0  0  0  0  0  0
  2  4  1  0
  2  1  1  6
  3  2  1  0
  4  6  1  0
  4  5  1  1
  6 11  1  0
  7  6  2  0
  9  8  1  0
 10 12  1  0
 10  9  1  6
 11 10  1  0
 12 13  2  0
 15 14  1  6
 16 15  1  0
 17 15  1  0
 18 12  1  0
 17 18  1  6
 19 21  1  0
 19 17  1  0
 20 19  2  0
M  END
$$$$
