TSV.pdb
     RDKit          3D

 21 20  0  0  1  0  0  0  0  0999 V2000
   11.2190  -17.2465   19.3556 C   0  0  0  0  0  0  0  0  0  0  0  0
   10.2198  -16.6966   20.3389 C   0  0  1  0  0  0  0  0  0  0  0  0
    9.8895  -15.4008   19.9881 O   0  0  0  0  0  0  0  0  0  0  0  0
    8.9722  -17.5536   20.4241 C   0  0  2  0  0  0  0  0  0  0  0  0
    8.2168  -17.4863   19.1935 N   0  0  0  0  0  0  0  0  0  0  0  0
    8.1745  -17.0185   21.5748 C   0  0  0  0  0  0  0  0  0  0  0  0
    7.3206  -16.1345   21.3509 O   0  0  0  0  0  0  0  0  0  0  0  0
    6.3512  -17.6583   25.9284 O   0  0  0  0  0  0  0  0  0  0  0  0
    7.1044  -18.1657   24.8994 C   0  0  0  0  0  0  0  0  0  0  0  0
    7.5929  -17.0391   24.0256 C   0  0  2  0  0  0  0  0  0  0  0  0
    8.3421  -17.4644   22.8927 N   0  0  0  0  0  0  0  0  0  0  0  0
    8.2938  -15.9930   24.8156 C   0  0  0  0  0  0  0  0  0  0  0  0
    9.5461  -16.0641   24.8834 O   0  0  0  0  0  0  0  0  0  0  0  0
    6.7944  -12.2408   25.0957 C   0  0  0  0  0  0  0  0  0  0  0  0
    7.3222  -12.7645   26.3871 C   0  0  1  0  0  0  0  0  0  0  0  0
    6.1991  -13.2631   27.2767 C   0  0  0  0  0  0  0  0  0  0  0  0
    8.2959  -13.9051   26.2289 C   0  0  2  0  0  0  0  0  0  0  0  0
    7.6357  -14.9454   25.4798 N   0  0  0  0  0  0  0  0  0  0  0  0
    8.7528  -14.4136   27.5680 C   0  0  0  0  0  0  0  0  0  0  0  0
    8.3324  -15.4967   28.0512 O   0  0  0  0  0  0  0  0  0  0  0  0
    9.6660  -13.7005   28.3311 O   0  0  0  0  0  0  0  0  0  0  0  0
  2  4  1  0
  2  1  1  6
  3  2  1  0
  4  6  1  0
  4  5  1  6
  6 11  1  0
  7  6  2  0
  9  8  1  0
 10 12  1  0
 10  9  1  1
 11 10  1  0
 12 13  2  0
 15 14  1  6
 16 15  1  0
 17 15  1  0
 18 12  1  0
 17 18  1  1
 19 21  1  0
 19 17  1  0
 20 19  2  0
M  END
$$$$
