TSV.pdb
     RDKit          3D

 21 20  0  0  1  0  0  0  0  0999 V2000
    8.9796  -12.5475   20.2680 C   0  0  0  0  0  0  0  0  0  0  0  0
    8.0180  -13.1607   19.2848 C   0  0  1  0  0  0  0  0  0  0  0  0
    8.2158  -12.6044   18.0348 O   0  0  0  0  0  0  0  0  0  0  0  0
    8.1549  -14.6690   19.2178 C   0  0  2  0  0  0  0  0  0  0  0  0
    7.2331  -15.2270   18.2541 N   0  0  0  0  0  0  0  0  0  0  0  0
    7.8636  -15.1775   20.5975 C   0  0  0  0  0  0  0  0  0  0  0  0
    6.6772  -15.1997   20.9887 O   0  0  0  0  0  0  0  0  0  0  0  0
    9.1154  -17.8187   24.3584 O   0  0  0  0  0  0  0  0  0  0  0  0
    9.4932  -17.3297   23.1329 C   0  0  0  0  0  0  0  0  0  0  0  0
    8.6635  -16.1184   22.7929 C   0  0  2  0  0  0  0  0  0  0  0  0
    8.8617  -15.6301   21.4708 N   0  0  0  0  0  0  0  0  0  0  0  0
    8.7948  -15.0539   23.8221 C   0  0  0  0  0  0  0  0  0  0  0  0
    9.0486  -13.8913   23.4199 O   0  0  0  0  0  0  0  0  0  0  0  0
    6.2052  -13.9019   26.0340 C   0  0  0  0  0  0  0  0  0  0  0  0
    7.5594  -13.2897   25.9246 C   0  0  1  0  0  0  0  0  0  0  0  0
    7.7154  -12.1280   26.8876 C   0  0  0  0  0  0  0  0  0  0  0  0
    8.6864  -14.2502   26.2094 C   0  0  2  0  0  0  0  0  0  0  0  0
    8.6514  -15.2799   25.2005 N   0  0  0  0  0  0  0  0  0  0  0  0
    8.5566  -14.8410   27.5859 C   0  0  0  0  0  0  0  0  0  0  0  0
    8.6987  -14.1489   28.6270 O   0  0  0  0  0  0  0  0  0  0  0  0
    8.2719  -16.1872   27.7632 O   0  0  0  0  0  0  0  0  0  0  0  0
  2  4  1  0
  2  1  1  1
  3  2  1  0
  4  6  1  0
  4  5  1  6
  6 11  1  0
  7  6  2  0
  9  8  1  0
 10 12  1  0
 10  9  1  1
 11 10  1  0
 12 13  2  0
 15 14  1  1
 16 15  1  0
 17 15  1  0
 18 12  1  0
 17 18  1  6
 19 21  1  0
 19 17  1  0
 20 19  2  0
M  END
$$$$
