TSV.pdb
     RDKit          3D

 21 20  0  0  1  0  0  0  0  0999 V2000
    9.8797  -12.7863   20.0499 C   0  0  0  0  0  0  0  0  0  0  0  0
    8.9099  -13.2572   18.9986 C   0  0  1  0  0  0  0  0  0  0  0  0
    9.3754  -12.9020   17.7464 O   0  0  0  0  0  0  0  0  0  0  0  0
    8.6747  -14.7532   19.0685 C   0  0  2  0  0  0  0  0  0  0  0  0
    7.7937  -15.1856   18.0071 N   0  0  0  0  0  0  0  0  0  0  0  0
    8.0680  -15.0193   20.4130 C   0  0  0  0  0  0  0  0  0  0  0  0
    6.9329  -14.5587   20.6588 O   0  0  0  0  0  0  0  0  0  0  0  0
    9.8063  -17.7348   23.2185 O   0  0  0  0  0  0  0  0  0  0  0  0
    8.4535  -17.5585   23.0691 C   0  0  0  0  0  0  0  0  0  0  0  0
    8.1692  -16.1333   22.6700 C   0  0  2  0  0  0  0  0  0  0  0  0
    8.7156  -15.7621   21.4093 N   0  0  0  0  0  0  0  0  0  0  0  0
    8.5236  -15.1770   23.7515 C   0  0  0  0  0  0  0  0  0  0  0  0
    9.6486  -14.6222   23.6846 O   0  0  0  0  0  0  0  0  0  0  0  0
    7.0317  -12.3675   27.5330 C   0  0  0  0  0  0  0  0  0  0  0  0
    6.8023  -13.2932   26.3881 C   0  0  1  0  0  0  0  0  0  0  0  0
    6.2763  -12.5470   25.1765 C   0  0  0  0  0  0  0  0  0  0  0  0
    8.0400  -14.0320   25.9451 C   0  0  2  0  0  0  0  0  0  0  0  0
    7.6763  -14.8676   24.8276 N   0  0  0  0  0  0  0  0  0  0  0  0
    8.6087  -14.8536   27.0686 C   0  0  0  0  0  0  0  0  0  0  0  0
    8.3089  -16.0650   27.2296 O   0  0  0  0  0  0  0  0  0  0  0  0
    9.4959  -14.3016   27.9812 O   0  0  0  0  0  0  0  0  0  0  0  0
  2  4  1  0
  2  1  1  1
  3  2  1  0
  4  6  1  0
  4  5  1  6
  6 11  1  0
  7  6  2  0
  9  8  1  0
 10 12  1  0
 10  9  1  1
 11 10  1  0
 12 13  2  0
 15 14  1  1
 16 15  1  0
 17 15  1  0
 18 12  1  0
 17 18  1  6
 19 21  1  0
 19 17  1  0
 20 19  2  0
M  END
$$$$
