TSV.pdb
     RDKit          3D

 21 20  0  0  1  0  0  0  0  0999 V2000
    7.2469  -16.5051   21.4587 C   0  0  0  0  0  0  0  0  0  0  0  0
    7.9923  -15.3982   20.7612 C   0  0  1  0  0  0  0  0  0  0  0  0
    7.9544  -15.6036   19.3946 O   0  0  0  0  0  0  0  0  0  0  0  0
    7.4349  -14.0307   21.1040 C   0  0  2  0  0  0  0  0  0  0  0  0
    7.8834  -13.0390   20.1527 N   0  0  0  0  0  0  0  0  0  0  0  0
    7.9255  -13.7126   22.4842 C   0  0  0  0  0  0  0  0  0  0  0  0
    9.0832  -13.2624   22.6184 O   0  0  0  0  0  0  0  0  0  0  0  0
    5.6376  -14.5352   26.0284 O   0  0  0  0  0  0  0  0  0  0  0  0
    6.4266  -13.4159   25.9361 C   0  0  0  0  0  0  0  0  0  0  0  0
    7.5597  -13.6723   24.9761 C   0  0  2  0  0  0  0  0  0  0  0  0
    7.1449  -13.8969   23.6332 N   0  0  0  0  0  0  0  0  0  0  0  0
    8.4773  -14.7294   25.4763 C   0  0  0  0  0  0  0  0  0  0  0  0
    8.5441  -15.7951   24.8147 O   0  0  0  0  0  0  0  0  0  0  0  0
   11.9040  -13.8043   27.5176 C   0  0  0  0  0  0  0  0  0  0  0  0
   11.1100  -14.9219   28.1017 C   0  0  1  0  0  0  0  0  0  0  0  0
   10.2496  -14.4394   29.2542 C   0  0  0  0  0  0  0  0  0  0  0  0
   10.1869  -15.5928   27.1159 C   0  0  2  0  0  0  0  0  0  0  0  0
    9.2611  -14.5979   26.6339 N   0  0  0  0  0  0  0  0  0  0  0  0
    9.4574  -16.7413   27.7558 C   0  0  0  0  0  0  0  0  0  0  0  0
    8.2483  -16.6603   28.0945 O   0  0  0  0  0  0  0  0  0  0  0  0
   10.0964  -17.9482   28.0002 O   0  0  0  0  0  0  0  0  0  0  0  0
  2  4  1  0
  2  1  1  1
  3  2  1  0
  4  6  1  0
  4  5  1  6
  6 11  1  0
  7  6  2  0
  9  8  1  0
 10 12  1  0
 10  9  1  1
 11 10  1  0
 12 13  2  0
 15 14  1  6
 16 15  1  0
 17 15  1  0
 18 12  1  0
 17 18  1  1
 19 21  1  0
 19 17  1  0
 20 19  2  0
M  END
$$$$
