TSV.pdb
     RDKit          3D

 21 20  0  0  1  0  0  0  0  0999 V2000
   12.2521  -18.9571   20.4495 C   0  0  0  0  0  0  0  0  0  0  0  0
   11.5335  -18.1309   21.4832 C   0  0  1  0  0  0  0  0  0  0  0  0
   12.1689  -16.9114   21.6252 O   0  0  0  0  0  0  0  0  0  0  0  0
   10.0723  -17.9262   21.1350 C   0  0  2  0  0  0  0  0  0  0  0  0
    9.9358  -17.1319   19.9350 N   0  0  0  0  0  0  0  0  0  0  0  0
    9.4546  -17.2333   22.3118 C   0  0  0  0  0  0  0  0  0  0  0  0
    9.4079  -15.9848   22.3141 O   0  0  0  0  0  0  0  0  0  0  0  0
    7.9509  -19.3431   25.7310 O   0  0  0  0  0  0  0  0  0  0  0  0
    7.3113  -18.2317   25.2416 C   0  0  0  0  0  0  0  0  0  0  0  0
    8.3080  -17.3357   24.5523 C   0  0  2  0  0  0  0  0  0  0  0  0
    8.9258  -17.9217   23.4119 N   0  0  0  0  0  0  0  0  0  0  0  0
    9.2938  -16.7690   25.5097 C   0  0  0  0  0  0  0  0  0  0  0  0
   10.4681  -17.2118   25.4578 O   0  0  0  0  0  0  0  0  0  0  0  0
   10.1901  -13.2486   28.9220 C   0  0  0  0  0  0  0  0  0  0  0  0
    9.2699  -14.0310   28.0493 C   0  0  1  0  0  0  0  0  0  0  0  0
    8.7279  -13.1770   26.9187 C   0  0  0  0  0  0  0  0  0  0  0  0
    9.9120  -15.2401   27.4169 C   0  0  2  0  0  0  0  0  0  0  0  0
    8.9824  -15.7782   26.4548 N   0  0  0  0  0  0  0  0  0  0  0  0
   10.2664  -16.2677   28.4555 C   0  0  0  0  0  0  0  0  0  0  0  0
    9.4688  -17.1805   28.7929 O   0  0  0  0  0  0  0  0  0  0  0  0
   11.5005  -16.2491   29.0891 O   0  0  0  0  0  0  0  0  0  0  0  0
  2  4  1  0
  2  1  1  6
  3  2  1  0
  4  6  1  0
  4  5  1  6
  6 11  1  0
  7  6  2  0
  9  8  1  0
 10 12  1  0
 10  9  1  1
 11 10  1  0
 12 13  2  0
 15 14  1  6
 16 15  1  0
 17 15  1  0
 18 12  1  0
 17 18  1  6
 19 21  1  0
 19 17  1  0
 20 19  2  0
M  END
$$$$
