MCE.pdb
     RDKit          3D

 24 23  0  0  1  0  0  0  0  0999 V2000
    3.3831  -17.9751   21.5255 C   0  0  0  0  0  0  0  0  0  0  0  0
    4.9409  -18.2450   20.7123 S   0  0  0  0  0  0  0  0  0  0  0  0
    6.0128  -16.8754   20.4766 C   0  0  0  0  0  0  0  0  0  0  0  0
    5.7341  -15.6697   21.2740 C   0  0  0  0  0  0  0  0  0  0  0  0
    6.6799  -14.5482   21.1248 C   0  0  2  0  0  0  0  0  0  0  0  0
    7.5426  -14.6821   19.9539 N   0  0  0  0  0  0  0  0  0  0  0  0
    7.5990  -14.4800   22.3384 C   0  0  0  0  0  0  0  0  0  0  0  0
    8.7680  -14.8403   22.1934 O   0  0  0  0  0  0  0  0  0  0  0  0
    7.1590  -14.0249   23.6013 N   0  0  0  0  0  0  0  0  0  0  0  0
    7.9646  -14.0820   24.7950 C   0  0  1  0  0  0  0  0  0  0  0  0
    7.3983  -13.2580   25.9215 C   0  0  0  0  0  0  0  0  0  0  0  0
    5.6742  -13.5901   26.2620 S   0  0  0  0  0  0  0  0  0  0  0  0
    8.2313  -15.4915   25.1768 C   0  0  0  0  0  0  0  0  0  0  0  0
    7.4664  -16.3989   24.7383 O   0  0  0  0  0  0  0  0  0  0  0  0
    9.2971  -15.8815   26.0066 N   0  0  0  0  0  0  0  0  0  0  0  0
   10.0677  -17.1155   25.8174 C   0  0  1  0  0  0  0  0  0  0  0  0
   10.8694  -16.9894   24.5488 C   0  0  0  0  0  0  0  0  0  0  0  0
   12.3102  -17.3201   24.6781 C   0  0  0  0  0  0  0  0  0  0  0  0
   12.9378  -17.9148   23.4932 C   0  0  0  0  0  0  0  0  0  0  0  0
   13.8319  -17.4125   22.8022 O   0  0  0  0  0  0  0  0  0  0  0  0
   11.0332  -17.3014   26.9289 C   0  0  0  0  0  0  0  0  0  0  0  0
   11.2386  -16.4104   27.7878 O   0  0  0  0  0  0  0  0  0  0  0  0
   12.4723  -19.1871   23.1067 O   0  0  0  0  0  0  0  0  0  0  0  0
   11.7392  -18.4876   27.0393 O   0  0  0  0  0  0  0  0  0  0  0  0
  2  1  1  0
  3  2  1  0
  4  5  1  0
  4  3  1  0
  5  7  1  0
  5  6  1  6
  7  9  1  0
  7  8  2  0
  9 10  1  0
 10 13  1  0
 10 11  1  1
 12 11  1  0
 13 14  2  0
 15 16  1  0
 15 13  1  0
 16 21  1  0
 16 17  1  6
 18 17  1  0
 19 18  1  0
 19 20  2  0
 21 24  1  0
 22 21  2  0
 23 19  1  0
M  END
$$$$
