MCE.pdb
     RDKit          3D

 24 23  0  0  1  0  0  0  0  0999 V2000
    7.3779  -11.1200   26.6335 C   0  0  0  0  0  0  0  0  0  0  0  0
    6.6796  -12.2613   27.8042 S   0  0  0  0  0  0  0  0  0  0  0  0
    6.1773  -13.8440   27.2360 C   0  0  0  0  0  0  0  0  0  0  0  0
    6.9324  -14.4147   26.1084 C   0  0  0  0  0  0  0  0  0  0  0  0
    6.4092  -15.6670   25.5319 C   0  0  2  0  0  0  0  0  0  0  0  0
    6.4875  -16.7959   26.4553 N   0  0  0  0  0  0  0  0  0  0  0  0
    7.2232  -16.0518   24.3024 C   0  0  0  0  0  0  0  0  0  0  0  0
    7.9429  -17.0484   24.3801 O   0  0  0  0  0  0  0  0  0  0  0  0
    7.1785  -15.3135   23.0988 N   0  0  0  0  0  0  0  0  0  0  0  0
    8.1394  -15.4628   22.0351 C   0  0  1  0  0  0  0  0  0  0  0  0
    7.8105  -14.6226   20.8291 C   0  0  0  0  0  0  0  0  0  0  0  0
    9.0151  -14.7474   19.5129 S   0  0  0  0  0  0  0  0  0  0  0  0
    9.5171  -15.2446   22.5430 C   0  0  0  0  0  0  0  0  0  0  0  0
    9.7905  -14.1518   23.1189 O   0  0  0  0  0  0  0  0  0  0  0  0
   10.5477  -16.1930   22.4203 N   0  0  0  0  0  0  0  0  0  0  0  0
   11.9293  -15.9555   22.8533 C   0  0  1  0  0  0  0  0  0  0  0  0
   12.0625  -16.3907   24.2889 C   0  0  0  0  0  0  0  0  0  0  0  0
   11.4494  -17.7035   24.6091 C   0  0  0  0  0  0  0  0  0  0  0  0
   11.7257  -18.2273   25.9511 C   0  0  0  0  0  0  0  0  0  0  0  0
   12.4704  -17.7235   26.8000 O   0  0  0  0  0  0  0  0  0  0  0  0
   12.8728  -16.7787   22.0568 C   0  0  0  0  0  0  0  0  0  0  0  0
   12.4749  -17.6368   21.2328 O   0  0  0  0  0  0  0  0  0  0  0  0
   11.0747  -19.4256   26.3049 O   0  0  0  0  0  0  0  0  0  0  0  0
   14.2383  -16.6098   22.2132 O   0  0  0  0  0  0  0  0  0  0  0  0
  2  1  1  0
  3  2  1  0
  4  5  1  0
  4  3  1  0
  5  7  1  0
  5  6  1  1
  7  9  1  0
  7  8  2  0
  9 10  1  0
 10 13  1  0
 10 11  1  6
 12 11  1  0
 13 14  2  0
 15 16  1  0
 15 13  1  0
 16 21  1  0
 16 17  1  1
 18 17  1  0
 19 18  1  0
 19 20  2  0
 21 24  1  0
 22 21  2  0
 23 19  1  0
M  END
$$$$
