MCE.pdb
     RDKit          3D

 24 23  0  0  1  0  0  0  0  0999 V2000
    6.9513  -10.7830   27.2788 C   0  0  0  0  0  0  0  0  0  0  0  0
    6.8979  -12.4072   26.5575 S   0  0  0  0  0  0  0  0  0  0  0  0
    6.8701  -12.5481   24.8083 C   0  0  0  0  0  0  0  0  0  0  0  0
    6.7744  -13.9084   24.2536 C   0  0  0  0  0  0  0  0  0  0  0  0
    7.8931  -14.8216   24.5518 C   0  0  2  0  0  0  0  0  0  0  0  0
    9.1970  -14.2525   24.2212 N   0  0  0  0  0  0  0  0  0  0  0  0
    7.7535  -16.0980   23.7312 C   0  0  0  0  0  0  0  0  0  0  0  0
    6.7825  -16.1928   22.9790 O   0  0  0  0  0  0  0  0  0  0  0  0
    8.6863  -17.1563   23.8058 N   0  0  0  0  0  0  0  0  0  0  0  0
    9.5747  -17.5141   22.7289 C   0  0  1  0  0  0  0  0  0  0  0  0
    9.8908  -16.3532   21.8228 C   0  0  0  0  0  0  0  0  0  0  0  0
   10.8520  -16.8029   20.3830 S   0  0  0  0  0  0  0  0  0  0  0  0
   10.7853  -18.1927   23.2556 C   0  0  0  0  0  0  0  0  0  0  0  0
   11.2481  -19.1902   22.6300 O   0  0  0  0  0  0  0  0  0  0  0  0
   11.4558  -17.7864   24.4227 N   0  0  0  0  0  0  0  0  0  0  0  0
   12.5967  -18.5062   24.9994 C   0  0  1  0  0  0  0  0  0  0  0  0
   13.8174  -17.6304   24.8952 C   0  0  0  0  0  0  0  0  0  0  0  0
   13.8880  -16.7902   23.6742 C   0  0  0  0  0  0  0  0  0  0  0  0
   15.1510  -16.0747   23.4633 C   0  0  0  0  0  0  0  0  0  0  0  0
   16.1682  -16.5196   22.9187 O   0  0  0  0  0  0  0  0  0  0  0  0
   12.3694  -18.7708   26.4419 C   0  0  0  0  0  0  0  0  0  0  0  0
   11.3768  -18.3094   27.0546 O   0  0  0  0  0  0  0  0  0  0  0  0
   15.2069  -14.7465   23.9298 O   0  0  0  0  0  0  0  0  0  0  0  0
   13.2691  -19.5486   27.1514 O   0  0  0  0  0  0  0  0  0  0  0  0
  2  1  1  0
  3  2  1  0
  4  5  1  0
  4  3  1  0
  5  7  1  0
  5  6  1  6
  7  9  1  0
  7  8  2  0
  9 10  1  0
 10 13  1  0
 10 11  1  1
 12 11  1  0
 13 14  2  0
 15 16  1  0
 15 13  1  0
 16 21  1  0
 16 17  1  1
 18 17  1  0
 19 18  1  0
 19 20  2  0
 21 24  1  0
 22 21  2  0
 23 19  1  0
M  END
$$$$
