MCE.pdb
     RDKit          3D

 24 23  0  0  1  0  0  0  0  0999 V2000
    8.2859  -11.9726   19.6159 C   0  0  0  0  0  0  0  0  0  0  0  0
    6.7922  -12.9313   19.5129 S   0  0  0  0  0  0  0  0  0  0  0  0
    6.9182  -14.6459   19.1600 C   0  0  0  0  0  0  0  0  0  0  0  0
    8.2764  -15.1967   19.0209 C   0  0  0  0  0  0  0  0  0  0  0  0
    8.5902  -16.3882   19.8311 C   0  0  2  0  0  0  0  0  0  0  0  0
    7.3984  -17.1131   20.2638 N   0  0  0  0  0  0  0  0  0  0  0  0
    9.3324  -15.9743   21.0961 C   0  0  0  0  0  0  0  0  0  0  0  0
   10.4257  -15.4222   20.9647 O   0  0  0  0  0  0  0  0  0  0  0  0
    8.8143  -16.2009   22.3906 N   0  0  0  0  0  0  0  0  0  0  0  0
    9.4490  -15.7331   23.5971 C   0  0  1  0  0  0  0  0  0  0  0  0
    8.4700  -15.4931   24.7164 C   0  0  0  0  0  0  0  0  0  0  0  0
    7.3820  -16.8771   25.0320 S   0  0  0  0  0  0  0  0  0  0  0  0
   10.5674  -16.6311   23.9795 C   0  0  0  0  0  0  0  0  0  0  0  0
   10.3716  -17.8810   23.9905 O   0  0  0  0  0  0  0  0  0  0  0  0
   11.8468  -16.1682   24.3338 N   0  0  0  0  0  0  0  0  0  0  0  0
   13.0117  -17.0436   24.5042 C   0  0  1  0  0  0  0  0  0  0  0  0
   14.2553  -16.2497   24.2019 C   0  0  0  0  0  0  0  0  0  0  0  0
   15.5309  -16.9901   24.3646 C   0  0  0  0  0  0  0  0  0  0  0  0
   16.7528  -16.2241   24.0964 C   0  0  0  0  0  0  0  0  0  0  0  0
   16.8185  -15.0396   23.7478 O   0  0  0  0  0  0  0  0  0  0  0  0
   13.1163  -17.5022   25.9117 C   0  0  0  0  0  0  0  0  0  0  0  0
   12.6169  -16.8529   26.8618 O   0  0  0  0  0  0  0  0  0  0  0  0
   17.9728  -16.9110   24.2532 O   0  0  0  0  0  0  0  0  0  0  0  0
   13.7815  -18.6804   26.2065 O   0  0  0  0  0  0  0  0  0  0  0  0
  2  1  1  0
  3  2  1  0
  4  5  1  0
  4  3  1  0
  5  7  1  0
  5  6  1  1
  7  9  1  0
  7  8  2  0
  9 10  1  0
 10 13  1  0
 10 11  1  1
 12 11  1  0
 13 14  2  0
 15 16  1  0
 15 13  1  0
 16 21  1  0
 16 17  1  1
 18 17  1  0
 19 18  1  0
 19 20  2  0
 21 24  1  0
 22 21  2  0
 23 19  1  0
M  END
$$$$
