MCE.pdb
     RDKit          3D

 24 23  0  0  1  0  0  0  0  0999 V2000
    9.0404  -12.1464   27.6895 C   0  0  0  0  0  0  0  0  0  0  0  0
    7.2833  -12.0332   27.4431 S   0  0  0  0  0  0  0  0  0  0  0  0
    6.4625  -13.3563   26.6331 C   0  0  0  0  0  0  0  0  0  0  0  0
    7.2925  -14.2402   25.7981 C   0  0  0  0  0  0  0  0  0  0  0  0
    6.5856  -15.3021   25.0584 C   0  0  2  0  0  0  0  0  0  0  0  0
    5.9805  -16.3014   25.9350 N   0  0  0  0  0  0  0  0  0  0  0  0
    7.5643  -16.0467   24.1583 C   0  0  0  0  0  0  0  0  0  0  0  0
    7.8387  -17.2118   24.4497 O   0  0  0  0  0  0  0  0  0  0  0  0
    8.1556  -15.4522   23.0215 N   0  0  0  0  0  0  0  0  0  0  0  0
    8.8821  -16.1927   22.0208 C   0  0  1  0  0  0  0  0  0  0  0  0
    9.0158  -15.4422   20.7217 C   0  0  0  0  0  0  0  0  0  0  0  0
    7.8347  -14.1125   20.5322 S   0  0  0  0  0  0  0  0  0  0  0  0
   10.1818  -16.6632   22.5620 C   0  0  0  0  0  0  0  0  0  0  0  0
   11.1000  -16.9858   21.7536 O   0  0  0  0  0  0  0  0  0  0  0  0
   10.4553  -16.7720   23.9368 N   0  0  0  0  0  0  0  0  0  0  0  0
   11.7294  -17.2580   24.4781 C   0  0  1  0  0  0  0  0  0  0  0  0
   12.8126  -16.2813   24.1026 C   0  0  0  0  0  0  0  0  0  0  0  0
   13.7250  -16.7357   23.0243 C   0  0  0  0  0  0  0  0  0  0  0  0
   14.7944  -15.8015   22.6565 C   0  0  0  0  0  0  0  0  0  0  0  0
   15.7145  -15.4110   23.3844 O   0  0  0  0  0  0  0  0  0  0  0  0
   11.6795  -17.3080   25.9604 C   0  0  0  0  0  0  0  0  0  0  0  0
   10.6807  -16.9092   26.6063 O   0  0  0  0  0  0  0  0  0  0  0  0
   14.7669  -15.3008   21.3399 O   0  0  0  0  0  0  0  0  0  0  0  0
   12.7582  -17.8067   26.6712 O   0  0  0  0  0  0  0  0  0  0  0  0
  2  1  1  0
  3  2  1  0
  4  5  1  0
  4  3  1  0
  5  7  1  0
  5  6  1  1
  7  9  1  0
  7  8  2  0
  9 10  1  0
 10 13  1  0
 10 11  1  6
 12 11  1  0
 13 14  2  0
 15 16  1  0
 15 13  1  0
 16 21  1  0
 16 17  1  1
 18 17  1  0
 19 18  1  0
 19 20  2  0
 21 24  1  0
 22 21  2  0
 23 19  1  0
M  END
$$$$
