PWC.pdb
     RDKit          3D

 28 30  0  0  1  0  0  0  0  0999 V2000
    9.4503  -16.4841   19.3063 N   0  0  0  0  0  0  0  0  0  0  0  0
    8.2885  -16.3394   18.4719 C   0  0  0  0  0  0  0  0  0  0  0  0
    8.3022  -14.9760   17.8555 C   0  0  0  0  0  0  0  0  0  0  0  0
    9.3721  -14.2304   18.5835 C   0  0  0  0  0  0  0  0  0  0  0  0
    9.9577  -15.1829   19.5948 C   0  0  1  0  0  0  0  0  0  0  0  0
    9.6402  -14.8062   20.9892 C   0  0  0  0  0  0  0  0  0  0  0  0
    9.8888  -13.6459   21.3818 O   0  0  0  0  0  0  0  0  0  0  0  0
    9.0599  -15.7207   21.9035 N   0  0  0  0  0  0  0  0  0  0  0  0
    8.6979  -15.3639   23.2552 C   0  0  1  0  0  0  0  0  0  0  0  0
    7.2271  -15.6201   23.5258 C   0  0  0  0  0  0  0  0  0  0  0  0
    6.9282  -15.1060   24.8873 C   0  0  0  0  0  0  0  0  0  0  0  0
    6.6627  -15.9004   25.9913 C   0  0  0  0  0  0  0  0  0  0  0  0
    6.4466  -15.0627   27.0052 N   0  0  0  0  0  0  0  0  0  0  0  0
    6.5595  -13.7759   26.6095 C   0  0  0  0  0  0  0  0  0  0  0  0
    6.4381  -12.5516   27.2447 C   0  0  0  0  0  0  0  0  0  0  0  0
    6.6143  -11.3461   26.5726 C   0  0  0  0  0  0  0  0  0  0  0  0
    6.9219  -11.3724   25.2196 C   0  0  0  0  0  0  0  0  0  0  0  0
    7.0373  -12.5927   24.6108 C   0  0  0  0  0  0  0  0  0  0  0  0
    6.8656  -13.7830   25.2651 C   0  0  0  0  0  0  0  0  0  0  0  0
    9.5613  -16.0502   24.2563 C   0  0  0  0  0  0  0  0  0  0  0  0
   10.1784  -17.0902   23.9078 O   0  0  0  0  0  0  0  0  0  0  0  0
    9.7009  -15.5609   25.5813 N   0  0  0  0  0  0  0  0  0  0  0  0
   10.7192  -15.9924   26.4903 C   0  0  1  0  0  0  0  0  0  0  0  0
   10.9925  -15.0406   27.6121 C   0  0  0  0  0  0  0  0  0  0  0  0
   12.1735  -15.8099   28.7570 S   0  0  0  0  0  0  0  0  0  0  0  0
   10.4225  -17.3619   27.0384 C   0  0  0  0  0  0  0  0  0  0  0  0
    9.2793  -17.8446   27.0462 O   0  0  0  0  0  0  0  0  0  0  0  0
   11.4879  -18.0933   27.5494 O   0  0  0  0  0  0  0  0  0  0  0  0
  1  2  1  0
  3  2  1  0
  4  5  1  0
  4  3  1  0
  5  1  1  0
  6  8  1  0
  5  6  1  1
  7  6  2  0
  9  8  1  0
 10 11  1  0
  9 10  1  1
 11 12  2  0
 11 19  1  0
 12 13  1  0
 13 14  1  0
 14 15  2  0
 15 16  1  0
 17 16  2  0
 18 17  1  0
 19 18  2  0
 19 14  1  0
 20  9  1  0
 20 21  2  0
 22 20  1  0
 23 24  1  1
 23 22  1  0
 25 24  1  0
 26 23  1  0
 27 26  2  0
 28 26  1  0
M  END
$$$$
