PWC.pdb
     RDKit          3D

 28 30  0  0  1  0  0  0  0  0999 V2000
    7.2376  -16.0442   21.0452 N   0  0  0  0  0  0  0  0  0  0  0  0
    6.1751  -15.0772   21.0994 C   0  0  0  0  0  0  0  0  0  0  0  0
    6.6600  -13.7917   20.5065 C   0  0  0  0  0  0  0  0  0  0  0  0
    8.1362  -13.9634   20.3594 C   0  0  0  0  0  0  0  0  0  0  0  0
    8.4674  -15.3463   20.8603 C   0  0  1  0  0  0  0  0  0  0  0  0
    9.2425  -15.3304   22.1196 C   0  0  0  0  0  0  0  0  0  0  0  0
   10.2617  -14.6117   22.2023 O   0  0  0  0  0  0  0  0  0  0  0  0
    8.8684  -16.1070   23.2448 N   0  0  0  0  0  0  0  0  0  0  0  0
    9.5907  -16.0852   24.4951 C   0  0  1  0  0  0  0  0  0  0  0  0
    8.7009  -16.4737   25.6611 C   0  0  0  0  0  0  0  0  0  0  0  0
    7.5733  -15.5071   25.7026 C   0  0  0  0  0  0  0  0  0  0  0  0
    6.2559  -15.8165   25.4035 C   0  0  0  0  0  0  0  0  0  0  0  0
    5.5674  -14.6856   25.5572 N   0  0  0  0  0  0  0  0  0  0  0  0
    6.3729  -13.6701   25.9384 C   0  0  0  0  0  0  0  0  0  0  0  0
    6.1743  -12.3307   26.2274 C   0  0  0  0  0  0  0  0  0  0  0  0
    7.2164  -11.4912   26.6086 C   0  0  0  0  0  0  0  0  0  0  0  0
    8.4982  -12.0148   26.7018 C   0  0  0  0  0  0  0  0  0  0  0  0
    8.6730  -13.3409   26.4118 C   0  0  0  0  0  0  0  0  0  0  0  0
    7.6529  -14.1733   26.0363 C   0  0  0  0  0  0  0  0  0  0  0  0
   10.8138  -16.9334   24.4398 C   0  0  0  0  0  0  0  0  0  0  0  0
   10.7019  -18.1284   24.0614 O   0  0  0  0  0  0  0  0  0  0  0  0
   12.0896  -16.4273   24.8015 N   0  0  0  0  0  0  0  0  0  0  0  0
   13.2901  -17.2072   24.7976 C   0  0  1  0  0  0  0  0  0  0  0  0
   14.5513  -16.4037   24.8487 C   0  0  0  0  0  0  0  0  0  0  0  0
   15.9682  -17.5394   24.8537 S   0  0  0  0  0  0  0  0  0  0  0  0
   13.2857  -18.2286   25.9024 C   0  0  0  0  0  0  0  0  0  0  0  0
   12.8490  -17.9822   27.0376 O   0  0  0  0  0  0  0  0  0  0  0  0
   13.7961  -19.4885   25.6136 O   0  0  0  0  0  0  0  0  0  0  0  0
  1  2  1  0
  3  2  1  0
  4  5  1  0
  4  3  1  0
  5  1  1  0
  6  8  1  0
  5  6  1  1
  7  6  2  0
  9  8  1  0
 10 11  1  0
  9 10  1  1
 11 12  2  0
 11 19  1  0
 12 13  1  0
 13 14  1  0
 14 15  2  0
 15 16  1  0
 17 16  2  0
 18 17  1  0
 19 18  2  0
 19 14  1  0
 20  9  1  0
 20 21  2  0
 22 20  1  0
 23 24  1  1
 23 22  1  0
 25 24  1  0
 26 23  1  0
 27 26  2  0
 28 26  1  0
M  END
$$$$
