PWC.pdb
     RDKit          3D

 28 30  0  0  1  0  0  0  0  0999 V2000
    7.2950  -15.0627   20.3546 N   0  0  0  0  0  0  0  0  0  0  0  0
    6.3631  -13.9701   20.4236 C   0  0  0  0  0  0  0  0  0  0  0  0
    7.0866  -12.6969   20.1162 C   0  0  0  0  0  0  0  0  0  0  0  0
    8.5358  -13.0572   20.1398 C   0  0  0  0  0  0  0  0  0  0  0  0
    8.6147  -14.5306   20.4494 C   0  0  1  0  0  0  0  0  0  0  0  0
    9.1842  -14.8066   21.7861 C   0  0  0  0  0  0  0  0  0  0  0  0
   10.2936  -14.3189   22.0916 O   0  0  0  0  0  0  0  0  0  0  0  0
    8.5118  -15.6106   22.7404 N   0  0  0  0  0  0  0  0  0  0  0  0
    9.1164  -16.0365   23.9808 C   0  0  1  0  0  0  0  0  0  0  0  0
    8.0753  -16.5223   24.9718 C   0  0  0  0  0  0  0  0  0  0  0  0
    7.1818  -15.3753   25.2777 C   0  0  0  0  0  0  0  0  0  0  0  0
    5.8014  -15.3948   25.1567 C   0  0  0  0  0  0  0  0  0  0  0  0
    5.3821  -14.1832   25.5209 N   0  0  0  0  0  0  0  0  0  0  0  0
    6.4192  -13.3902   25.8684 C   0  0  0  0  0  0  0  0  0  0  0  0
    6.5354  -12.0831   26.3103 C   0  0  0  0  0  0  0  0  0  0  0  0
    7.7666  -11.5058   26.6045 C   0  0  0  0  0  0  0  0  0  0  0  0
    8.9171  -12.2663   26.4495 C   0  0  0  0  0  0  0  0  0  0  0  0
    8.7804  -13.5557   26.0116 C   0  0  0  0  0  0  0  0  0  0  0  0
    7.5727  -14.1310   25.7201 C   0  0  0  0  0  0  0  0  0  0  0  0
   10.1717  -17.0632   23.7553 C   0  0  0  0  0  0  0  0  0  0  0  0
   10.3690  -17.4775   22.5835 O   0  0  0  0  0  0  0  0  0  0  0  0
   10.9510  -17.5791   24.8236 N   0  0  0  0  0  0  0  0  0  0  0  0
   12.1313  -18.3692   24.6440 C   0  0  1  0  0  0  0  0  0  0  0  0
   13.1524  -17.7604   23.7353 C   0  0  0  0  0  0  0  0  0  0  0  0
   14.6114  -18.8404   23.6886 S   0  0  0  0  0  0  0  0  0  0  0  0
   12.7623  -18.7226   25.9634 C   0  0  0  0  0  0  0  0  0  0  0  0
   13.1231  -19.8765   26.2431 O   0  0  0  0  0  0  0  0  0  0  0  0
   12.9361  -17.6983   26.8864 O   0  0  0  0  0  0  0  0  0  0  0  0
  1  2  1  0
  3  2  1  0
  4  5  1  0
  4  3  1  0
  5  1  1  0
  6  8  1  0
  5  6  1  1
  7  6  2  0
  9  8  1  0
 10 11  1  0
  9 10  1  1
 11 12  2  0
 11 19  1  0
 12 13  1  0
 13 14  1  0
 14 15  2  0
 15 16  1  0
 17 16  2  0
 18 17  1  0
 19 18  2  0
 19 14  1  0
 20  9  1  0
 20 21  2  0
 22 20  1  0
 23 24  1  6
 23 22  1  0
 25 24  1  0
 26 23  1  0
 27 26  2  0
 28 26  1  0
M  END
$$$$
