PWC.pdb
     RDKit          3D

 28 30  0  0  1  0  0  0  0  0999 V2000
    8.8324  -15.5843   19.7977 N   0  0  0  0  0  0  0  0  0  0  0  0
    7.6145  -15.1163   19.1941 C   0  0  0  0  0  0  0  0  0  0  0  0
    7.7569  -13.6595   18.8837 C   0  0  0  0  0  0  0  0  0  0  0  0
    9.0038  -13.2320   19.5858 C   0  0  0  0  0  0  0  0  0  0  0  0
    9.5574  -14.4530   20.2756 C   0  0  1  0  0  0  0  0  0  0  0  0
    9.4662  -14.3706   21.7493 C   0  0  0  0  0  0  0  0  0  0  0  0
    9.9885  -13.4020   22.3420 O   0  0  0  0  0  0  0  0  0  0  0  0
    8.8028  -15.3581   22.5198 N   0  0  0  0  0  0  0  0  0  0  0  0
    8.7277  -15.3167   23.9614 C   0  0  1  0  0  0  0  0  0  0  0  0
    7.5285  -16.0875   24.4807 C   0  0  0  0  0  0  0  0  0  0  0  0
    6.6899  -15.1375   25.2565 C   0  0  0  0  0  0  0  0  0  0  0  0
    5.5071  -15.4695   25.8979 C   0  0  0  0  0  0  0  0  0  0  0  0
    5.0700  -14.3475   26.4694 N   0  0  0  0  0  0  0  0  0  0  0  0
    5.9090  -13.3164   26.2284 C   0  0  0  0  0  0  0  0  0  0  0  0
    5.9259  -11.9772   26.5797 C   0  0  0  0  0  0  0  0  0  0  0  0
    6.9461  -11.1185   26.1824 C   0  0  0  0  0  0  0  0  0  0  0  0
    7.9815  -11.6220   25.4075 C   0  0  0  0  0  0  0  0  0  0  0  0
    7.9457  -12.9481   25.0711 C   0  0  0  0  0  0  0  0  0  0  0  0
    6.9457  -13.7993   25.4582 C   0  0  0  0  0  0  0  0  0  0  0  0
    9.9913  -15.7893   24.5928 C   0  0  0  0  0  0  0  0  0  0  0  0
   10.8140  -16.4301   23.8883 O   0  0  0  0  0  0  0  0  0  0  0  0
   10.2837  -15.5348   25.9582 N   0  0  0  0  0  0  0  0  0  0  0  0
   11.4200  -16.0687   26.6460 C   0  0  1  0  0  0  0  0  0  0  0  0
   11.5910  -15.5650   28.0446 C   0  0  0  0  0  0  0  0  0  0  0  0
   11.0849  -13.8221   28.1041 S   0  0  0  0  0  0  0  0  0  0  0  0
   11.4099  -17.5733   26.6388 C   0  0  0  0  0  0  0  0  0  0  0  0
   10.4450  -18.2324   26.2208 O   0  0  0  0  0  0  0  0  0  0  0  0
   12.5370  -18.2250   27.1245 O   0  0  0  0  0  0  0  0  0  0  0  0
  1  2  1  0
  3  2  1  0
  4  5  1  0
  4  3  1  0
  5  1  1  0
  6  8  1  0
  5  6  1  1
  7  6  2  0
  9  8  1  0
 10 11  1  0
  9 10  1  1
 11 12  2  0
 11 19  1  0
 12 13  1  0
 13 14  1  0
 14 15  2  0
 15 16  1  0
 17 16  2  0
 18 17  1  0
 19 18  2  0
 19 14  1  0
 20  9  1  0
 20 21  2  0
 22 20  1  0
 23 24  1  1
 23 22  1  0
 25 24  1  0
 26 23  1  0
 27 26  2  0
 28 26  1  0
M  END
$$$$
