PWC.pdb
     RDKit          3D

 28 30  0  0  1  0  0  0  0  0999 V2000
    7.7725  -15.6742   20.5840 N   0  0  0  0  0  0  0  0  0  0  0  0
    6.5929  -14.8568   20.4996 C   0  0  0  0  0  0  0  0  0  0  0  0
    6.9948  -13.4638   20.1297 C   0  0  0  0  0  0  0  0  0  0  0  0
    8.4809  -13.4357   20.2755 C   0  0  0  0  0  0  0  0  0  0  0  0
    8.9029  -14.8147   20.7154 C   0  0  1  0  0  0  0  0  0  0  0  0
    9.4107  -14.8438   22.1040 C   0  0  0  0  0  0  0  0  0  0  0  0
   10.2659  -14.0053   22.4611 O   0  0  0  0  0  0  0  0  0  0  0  0
    8.9589  -15.7960   23.0519 N   0  0  0  0  0  0  0  0  0  0  0  0
    9.5105  -15.9099   24.3817 C   0  0  1  0  0  0  0  0  0  0  0  0
    8.4546  -16.3200   25.3911 C   0  0  0  0  0  0  0  0  0  0  0  0
    7.4219  -15.2521   25.4148 C   0  0  0  0  0  0  0  0  0  0  0  0
    6.1191  -15.4026   24.9670 C   0  0  0  0  0  0  0  0  0  0  0  0
    5.5250  -14.2249   25.1578 N   0  0  0  0  0  0  0  0  0  0  0  0
    6.3771  -13.3295   25.7033 C   0  0  0  0  0  0  0  0  0  0  0  0
    6.2738  -12.0049   26.0930 C   0  0  0  0  0  0  0  0  0  0  0  0
    7.3442  -11.3078   26.6444 C   0  0  0  0  0  0  0  0  0  0  0  0
    8.5565  -11.9629   26.8090 C   0  0  0  0  0  0  0  0  0  0  0  0
    8.6377  -13.2717   26.4174 C   0  0  0  0  0  0  0  0  0  0  0  0
    7.5891  -13.9645   25.8742 C   0  0  0  0  0  0  0  0  0  0  0  0
   10.6807  -16.8307   24.4159 C   0  0  0  0  0  0  0  0  0  0  0  0
   10.6296  -17.8953   23.7468 O   0  0  0  0  0  0  0  0  0  0  0  0
   11.8400  -16.5358   25.1798 N   0  0  0  0  0  0  0  0  0  0  0  0
   12.9336  -17.4426   25.3566 C   0  0  1  0  0  0  0  0  0  0  0  0
   14.2781  -16.7884   25.4143 C   0  0  0  0  0  0  0  0  0  0  0  0
   14.3995  -15.5817   24.0627 S   0  0  0  0  0  0  0  0  0  0  0  0
   12.7340  -18.3154   26.5659 C   0  0  0  0  0  0  0  0  0  0  0  0
   11.7710  -18.1783   27.3365 O   0  0  0  0  0  0  0  0  0  0  0  0
   13.6791  -19.3055   26.8058 O   0  0  0  0  0  0  0  0  0  0  0  0
  1  2  1  0
  3  2  1  0
  4  5  1  0
  4  3  1  0
  5  1  1  0
  6  8  1  0
  5  6  1  1
  7  6  2  0
  9  8  1  0
 10 11  1  0
  9 10  1  1
 11 12  2  0
 11 19  1  0
 12 13  1  0
 13 14  1  0
 14 15  2  0
 15 16  1  0
 17 16  2  0
 18 17  1  0
 19 18  2  0
 19 14  1  0
 20  9  1  0
 20 21  2  0
 22 20  1  0
 23 24  1  1
 23 22  1  0
 25 24  1  0
 26 23  1  0
 27 26  2  0
 28 26  1  0
M  END
$$$$
