PWC.pdb
     RDKit          3D

 28 30  0  0  1  0  0  0  0  0999 V2000
    8.9598  -15.4268   19.1710 N   0  0  0  0  0  0  0  0  0  0  0  0
    7.7566  -14.9752   18.5265 C   0  0  0  0  0  0  0  0  0  0  0  0
    7.8777  -13.5101   18.2476 C   0  0  0  0  0  0  0  0  0  0  0  0
    9.0851  -13.0677   19.0073 C   0  0  0  0  0  0  0  0  0  0  0  0
    9.6385  -14.2885   19.6977 C   0  0  1  0  0  0  0  0  0  0  0  0
    9.4860  -14.2352   21.1677 C   0  0  0  0  0  0  0  0  0  0  0  0
    9.9291  -13.2484   21.7939 O   0  0  0  0  0  0  0  0  0  0  0  0
    8.8507  -15.2709   21.8976 N   0  0  0  0  0  0  0  0  0  0  0  0
    8.6467  -15.2199   23.3263 C   0  0  1  0  0  0  0  0  0  0  0  0
    7.2695  -15.7263   23.7124 C   0  0  0  0  0  0  0  0  0  0  0  0
    6.9167  -15.1082   25.0166 C   0  0  0  0  0  0  0  0  0  0  0  0
    6.6210  -15.8147   26.1715 C   0  0  0  0  0  0  0  0  0  0  0  0
    6.3597  -14.9010   27.1061 N   0  0  0  0  0  0  0  0  0  0  0  0
    6.4724  -13.6488   26.6115 C   0  0  0  0  0  0  0  0  0  0  0  0
    6.3149  -12.3790   27.1407 C   0  0  0  0  0  0  0  0  0  0  0  0
    6.5016  -11.2294   26.3795 C   0  0  0  0  0  0  0  0  0  0  0  0
    6.8574  -11.3604   25.0445 C   0  0  0  0  0  0  0  0  0  0  0  0
    7.0078  -12.6242   24.5410 C   0  0  0  0  0  0  0  0  0  0  0  0
    6.8261  -13.7601   25.2834 C   0  0  0  0  0  0  0  0  0  0  0  0
    9.7182  -15.9470   24.0623 C   0  0  0  0  0  0  0  0  0  0  0  0
   10.2356  -16.9614   23.5265 O   0  0  0  0  0  0  0  0  0  0  0  0
   10.1630  -15.5243   25.3422 N   0  0  0  0  0  0  0  0  0  0  0  0
   11.2716  -16.1063   26.0363 C   0  0  1  0  0  0  0  0  0  0  0  0
   11.7058  -15.3521   27.2535 C   0  0  0  0  0  0  0  0  0  0  0  0
   10.2568  -15.0610   28.3086 S   0  0  0  0  0  0  0  0  0  0  0  0
   11.0051  -17.5443   26.3900 C   0  0  0  0  0  0  0  0  0  0  0  0
    9.8745  -18.0510   26.3181 O   0  0  0  0  0  0  0  0  0  0  0  0
   12.0842  -18.3123   26.8105 O   0  0  0  0  0  0  0  0  0  0  0  0
  1  2  1  0
  3  2  1  0
  4  5  1  0
  4  3  1  0
  5  1  1  0
  6  8  1  0
  5  6  1  1
  7  6  2  0
  9  8  1  0
 10 11  1  0
  9 10  1  6
 11 12  2  0
 11 19  1  0
 12 13  1  0
 13 14  1  0
 14 15  2  0
 15 16  1  0
 17 16  2  0
 18 17  1  0
 19 18  2  0
 19 14  1  0
 20  9  1  0
 20 21  2  0
 22 20  1  0
 23 24  1  1
 23 22  1  0
 25 24  1  0
 26 23  1  0
 27 26  2  0
 28 26  1  0
M  END
$$$$
