PWC.pdb
     RDKit          3D

 28 30  0  0  1  0  0  0  0  0999 V2000
    7.6662  -16.3162   21.1672 N   0  0  0  0  0  0  0  0  0  0  0  0
    6.4479  -15.5530   21.1512 C   0  0  0  0  0  0  0  0  0  0  0  0
    6.7421  -14.1827   20.6271 C   0  0  0  0  0  0  0  0  0  0  0  0
    8.2324  -14.0875   20.6013 C   0  0  0  0  0  0  0  0  0  0  0  0
    8.7632  -15.4074   21.1004 C   0  0  1  0  0  0  0  0  0  0  0  0
    9.4209  -15.2995   22.4206 C   0  0  0  0  0  0  0  0  0  0  0  0
   10.3181  -14.4459   22.5898 O   0  0  0  0  0  0  0  0  0  0  0  0
    9.0677  -16.1356   23.5092 N   0  0  0  0  0  0  0  0  0  0  0  0
    9.7712  -16.1299   24.7704 C   0  0  1  0  0  0  0  0  0  0  0  0
    8.8540  -16.4923   25.9234 C   0  0  0  0  0  0  0  0  0  0  0  0
    7.7367  -15.5130   25.9288 C   0  0  0  0  0  0  0  0  0  0  0  0
    6.4240  -15.8099   25.5984 C   0  0  0  0  0  0  0  0  0  0  0  0
    5.7447  -14.6703   25.7260 N   0  0  0  0  0  0  0  0  0  0  0  0
    6.5515  -13.6610   26.1201 C   0  0  0  0  0  0  0  0  0  0  0  0
    6.3608  -12.3172   26.3941 C   0  0  0  0  0  0  0  0  0  0  0  0
    7.4023  -11.4865   26.7955 C   0  0  0  0  0  0  0  0  0  0  0  0
    8.6753  -12.0236   26.9254 C   0  0  0  0  0  0  0  0  0  0  0  0
    8.8424  -13.3537   26.6498 C   0  0  0  0  0  0  0  0  0  0  0  0
    7.8229  -14.1775   26.2545 C   0  0  0  0  0  0  0  0  0  0  0  0
   10.9724  -17.0100   24.7352 C   0  0  0  0  0  0  0  0  0  0  0  0
   10.8482  -18.1818   24.2935 O   0  0  0  0  0  0  0  0  0  0  0  0
   12.2409  -16.5593   25.1852 N   0  0  0  0  0  0  0  0  0  0  0  0
   13.4020  -17.3925   25.2699 C   0  0  1  0  0  0  0  0  0  0  0  0
   14.7004  -16.6624   25.1282 C   0  0  0  0  0  0  0  0  0  0  0  0
   14.5185  -15.3898   23.8457 S   0  0  0  0  0  0  0  0  0  0  0  0
   13.4043  -18.2051   26.5362 C   0  0  0  0  0  0  0  0  0  0  0  0
   12.5107  -18.1100   27.3921 O   0  0  0  0  0  0  0  0  0  0  0  0
   14.4593  -19.0887   26.7298 O   0  0  0  0  0  0  0  0  0  0  0  0
  1  2  1  0
  3  2  1  0
  4  5  1  0
  4  3  1  0
  5  1  1  0
  6  8  1  0
  5  6  1  1
  7  6  2  0
  9  8  1  0
 10 11  1  0
  9 10  1  1
 11 12  2  0
 11 19  1  0
 12 13  1  0
 13 14  1  0
 14 15  2  0
 15 16  1  0
 17 16  2  0
 18 17  1  0
 19 18  2  0
 19 14  1  0
 20  9  1  0
 20 21  2  0
 22 20  1  0
 23 24  1  1
 23 22  1  0
 25 24  1  0
 26 23  1  0
 27 26  2  0
 28 26  1  0
M  END
$$$$
