PWC.pdb
     RDKit          3D

 28 30  0  0  1  0  0  0  0  0999 V2000
    9.0395  -16.6601   18.4565 N   0  0  0  0  0  0  0  0  0  0  0  0
   10.2128  -17.2610   17.8828 C   0  0  0  0  0  0  0  0  0  0  0  0
   10.2719  -18.6980   18.2960 C   0  0  0  0  0  0  0  0  0  0  0  0
    9.2358  -18.8393   19.3624 C   0  0  0  0  0  0  0  0  0  0  0  0
    8.5962  -17.4846   19.5324 C   0  0  1  0  0  0  0  0  0  0  0  0
    8.9227  -16.8544   20.8298 C   0  0  0  0  0  0  0  0  0  0  0  0
   10.1195  -16.6546   21.1296 O   0  0  0  0  0  0  0  0  0  0  0  0
    7.9194  -16.4658   21.7526 N   0  0  0  0  0  0  0  0  0  0  0  0
    8.2144  -15.9196   23.0565 C   0  0  1  0  0  0  0  0  0  0  0  0
    6.9767  -15.3330   23.7094 C   0  0  0  0  0  0  0  0  0  0  0  0
    7.3721  -14.8443   25.0556 C   0  0  0  0  0  0  0  0  0  0  0  0
    8.0548  -15.5948   25.9997 C   0  0  0  0  0  0  0  0  0  0  0  0
    8.2116  -14.8010   27.0588 N   0  0  0  0  0  0  0  0  0  0  0  0
    7.6664  -13.5838   26.8433 C   0  0  0  0  0  0  0  0  0  0  0  0
    7.5560  -12.4242   27.5917 C   0  0  0  0  0  0  0  0  0  0  0  0
    6.9251  -11.2837   27.1045 C   0  0  0  0  0  0  0  0  0  0  0  0
    6.3884  -11.3101   25.8250 C   0  0  0  0  0  0  0  0  0  0  0  0
    6.5081  -12.4660   25.1020 C   0  0  0  0  0  0  0  0  0  0  0  0
    7.1273  -13.5921   25.5742 C   0  0  0  0  0  0  0  0  0  0  0  0
    8.8693  -16.9244   23.9396 C   0  0  0  0  0  0  0  0  0  0  0  0
    8.2951  -18.0289   24.1252 O   0  0  0  0  0  0  0  0  0  0  0  0
   10.1142  -16.6649   24.5700 N   0  0  0  0  0  0  0  0  0  0  0  0
   10.9259  -17.6723   25.1830 C   0  0  1  0  0  0  0  0  0  0  0  0
   12.2546  -17.8813   24.5275 C   0  0  0  0  0  0  0  0  0  0  0  0
   13.1007  -16.2799   24.3974 S   0  0  0  0  0  0  0  0  0  0  0  0
   11.1131  -17.4086   26.6525 C   0  0  0  0  0  0  0  0  0  0  0  0
   10.7129  -16.3695   27.2005 O   0  0  0  0  0  0  0  0  0  0  0  0
   11.7622  -18.3824   27.4017 O   0  0  0  0  0  0  0  0  0  0  0  0
  1  2  1  0
  3  2  1  0
  4  5  1  0
  4  3  1  0
  5  1  1  0
  6  8  1  0
  5  6  1  1
  7  6  2  0
  9  8  1  0
 10 11  1  0
  9 10  1  1
 11 12  2  0
 11 19  1  0
 12 13  1  0
 13 14  1  0
 14 15  2  0
 15 16  1  0
 17 16  2  0
 18 17  1  0
 19 18  2  0
 19 14  1  0
 20  9  1  0
 20 21  2  0
 22 20  1  0
 23 24  1  6
 23 22  1  0
 25 24  1  0
 26 23  1  0
 27 26  2  0
 28 26  1  0
M  END
$$$$
