PWC.pdb
     RDKit          3D

 28 30  0  0  1  0  0  0  0  0999 V2000
    8.5095  -15.7133   20.3270 N   0  0  0  0  0  0  0  0  0  0  0  0
    7.3133  -15.0586   19.8717 C   0  0  0  0  0  0  0  0  0  0  0  0
    7.6422  -13.6432   19.5149 C   0  0  0  0  0  0  0  0  0  0  0  0
    9.0202  -13.4182   20.0452 C   0  0  0  0  0  0  0  0  0  0  0  0
    9.4583  -14.7108   20.6857 C   0  0  1  0  0  0  0  0  0  0  0  0
    9.5702  -14.6135   22.1571 C   0  0  0  0  0  0  0  0  0  0  0  0
   10.2559  -13.6974   22.6598 O   0  0  0  0  0  0  0  0  0  0  0  0
    8.9227  -15.5287   23.0244 N   0  0  0  0  0  0  0  0  0  0  0  0
    9.0222  -15.4588   24.4634 C   0  0  1  0  0  0  0  0  0  0  0  0
    7.8692  -16.1777   25.1386 C   0  0  0  0  0  0  0  0  0  0  0  0
    6.8272  -15.1628   25.4415 C   0  0  0  0  0  0  0  0  0  0  0  0
    5.4707  -15.4282   25.5401 C   0  0  0  0  0  0  0  0  0  0  0  0
    4.8862  -14.2632   25.8187 N   0  0  0  0  0  0  0  0  0  0  0  0
    5.7953  -13.2674   25.9036 C   0  0  0  0  0  0  0  0  0  0  0  0
    5.7248  -11.9092   26.1635 C   0  0  0  0  0  0  0  0  0  0  0  0
    6.8558  -11.0993   26.1917 C   0  0  0  0  0  0  0  0  0  0  0  0
    8.0964  -11.6728   25.9508 C   0  0  0  0  0  0  0  0  0  0  0  0
    8.1441  -13.0166   25.6959 C   0  0  0  0  0  0  0  0  0  0  0  0
    7.0360  -13.8202   25.6666 C   0  0  0  0  0  0  0  0  0  0  0  0
   10.3362  -15.9639   24.9501 C   0  0  0  0  0  0  0  0  0  0  0  0
   10.9822  -16.7618   24.2222 O   0  0  0  0  0  0  0  0  0  0  0  0
   10.8692  -15.5684   26.2047 N   0  0  0  0  0  0  0  0  0  0  0  0
   11.9961  -16.1936   26.8281 C   0  0  1  0  0  0  0  0  0  0  0  0
   12.3502  -15.6359   28.1706 C   0  0  0  0  0  0  0  0  0  0  0  0
   10.8216  -15.3633   29.1121 S   0  0  0  0  0  0  0  0  0  0  0  0
   11.8154  -17.6845   26.9217 C   0  0  0  0  0  0  0  0  0  0  0  0
   10.7327  -18.2420   26.6829 O   0  0  0  0  0  0  0  0  0  0  0  0
   12.9195  -18.4427   27.2921 O   0  0  0  0  0  0  0  0  0  0  0  0
  1  2  1  0
  3  2  1  0
  4  5  1  0
  4  3  1  0
  5  1  1  0
  6  8  1  0
  5  6  1  1
  7  6  2  0
  9  8  1  0
 10 11  1  0
  9 10  1  1
 11 12  2  0
 11 19  1  0
 12 13  1  0
 13 14  1  0
 14 15  2  0
 15 16  1  0
 17 16  2  0
 18 17  1  0
 19 18  2  0
 19 14  1  0
 20  9  1  0
 20 21  2  0
 22 20  1  0
 23 24  1  1
 23 22  1  0
 25 24  1  0
 26 23  1  0
 27 26  2  0
 28 26  1  0
M  END
$$$$
