MPV.pdb
     RDKit          3D

 23 23  0  0  1  0  0  0  0  0999 V2000
    8.5188  -11.5521   19.7071 C   0  0  0  0  0  0  0  0  0  0  0  0
    7.9851  -12.6623   18.3734 S   0  0  0  0  0  0  0  0  0  0  0  0
    7.9440  -14.3790   18.9211 C   0  0  0  0  0  0  0  0  0  0  0  0
    7.3724  -14.5204   20.3115 C   0  0  0  0  0  0  0  0  0  0  0  0
    7.3726  -16.0198   20.6409 C   0  0  2  0  0  0  0  0  0  0  0  0
    6.2769  -16.5826   19.9941 N   0  0  0  0  0  0  0  0  0  0  0  0
    7.4608  -16.1731   22.1061 C   0  0  0  0  0  0  0  0  0  0  0  0
    6.3434  -16.0332   22.7152 O   0  0  0  0  0  0  0  0  0  0  0  0
    8.6300  -16.4487   22.8460 N   0  0  0  0  0  0  0  0  0  0  0  0
   10.0052  -16.5865   22.4345 C   0  0  0  0  0  0  0  0  0  0  0  0
   10.4963  -17.7339   23.2951 C   0  0  0  0  0  0  0  0  0  0  0  0
    9.6774  -17.7275   24.5410 C   0  0  0  0  0  0  0  0  0  0  0  0
    8.6649  -16.6585   24.2905 C   0  0  1  0  0  0  0  0  0  0  0  0
    9.0661  -15.4542   25.0270 C   0  0  0  0  0  0  0  0  0  0  0  0
   10.1422  -14.8906   24.7444 O   0  0  0  0  0  0  0  0  0  0  0  0
    6.2978  -13.2760   27.4760 C   0  0  0  0  0  0  0  0  0  0  0  0
    7.5409  -12.7147   26.8325 C   0  0  2  0  0  0  0  0  0  0  0  0
    7.2097  -12.2876   25.4060 C   0  0  0  0  0  0  0  0  0  0  0  0
    8.6607  -13.7079   26.7622 C   0  0  2  0  0  0  0  0  0  0  0  0
    8.2652  -14.9109   26.0528 N   0  0  0  0  0  0  0  0  0  0  0  0
    9.0578  -14.0302   28.1672 C   0  0  0  0  0  0  0  0  0  0  0  0
    8.9032  -15.1467   28.6784 O   0  0  0  0  0  0  0  0  0  0  0  0
    9.6285  -13.0156   28.9272 O   0  0  0  0  0  0  0  0  0  0  0  0
  1  2  1  0
  3  4  1  0
  3  2  1  0
  5  4  1  0
  5  7  1  0
  5  6  1  1
  7  9  1  0
  8  7  2  0
  9 10  1  0
  9 13  1  0
 10 11  1  0
 12 11  1  0
 13 12  1  0
 14 15  2  0
 13 14  1  1
 17 16  1  6
 18 17  1  0
 19 17  1  0
 19 20  1  1
 20 14  1  0
 21 19  1  0
 22 21  2  0
 23 21  1  0
M  END
$$$$
