MPV.pdb
     RDKit          3D

 23 23  0  0  1  0  0  0  0  0999 V2000
    5.5719  -18.6489   23.9398 C   0  0  0  0  0  0  0  0  0  0  0  0
    6.8789  -18.8028   22.6890 S   0  0  0  0  0  0  0  0  0  0  0  0
    7.6342  -17.2074   22.3245 C   0  0  0  0  0  0  0  0  0  0  0  0
    6.6040  -16.1233   22.1155 C   0  0  0  0  0  0  0  0  0  0  0  0
    7.3755  -14.8126   21.9068 C   0  0  2  0  0  0  0  0  0  0  0  0
    8.1906  -14.9886   20.7930 N   0  0  0  0  0  0  0  0  0  0  0  0
    8.0219  -14.4464   23.1820 C   0  0  0  0  0  0  0  0  0  0  0  0
    9.3014  -14.4680   23.1455 O   0  0  0  0  0  0  0  0  0  0  0  0
    7.3631  -14.0923   24.3784 N   0  0  0  0  0  0  0  0  0  0  0  0
    5.9642  -14.0893   24.7285 C   0  0  0  0  0  0  0  0  0  0  0  0
    5.8321  -12.8279   25.5590 C   0  0  0  0  0  0  0  0  0  0  0  0
    7.1615  -12.5756   26.1851 C   0  0  0  0  0  0  0  0  0  0  0  0
    8.0367  -13.6281   25.5878 C   0  0  1  0  0  0  0  0  0  0  0  0
    8.2227  -14.6966   26.5766 C   0  0  0  0  0  0  0  0  0  0  0  0
    7.5616  -15.7494   26.4758 O   0  0  0  0  0  0  0  0  0  0  0  0
   12.6576  -15.5275   28.6377 C   0  0  0  0  0  0  0  0  0  0  0  0
   11.4660  -14.6462   28.3585 C   0  0  2  0  0  0  0  0  0  0  0  0
   10.9607  -14.0656   29.6755 C   0  0  0  0  0  0  0  0  0  0  0  0
   10.3295  -15.3863   27.7212 C   0  0  2  0  0  0  0  0  0  0  0  0
    9.1333  -14.5675   27.6456 N   0  0  0  0  0  0  0  0  0  0  0  0
   10.0801  -16.6105   28.5426 C   0  0  0  0  0  0  0  0  0  0  0  0
    9.0302  -16.8077   29.1675 O   0  0  0  0  0  0  0  0  0  0  0  0
   11.0863  -17.5680   28.5988 O   0  0  0  0  0  0  0  0  0  0  0  0
  1  2  1  0
  3  4  1  0
  3  2  1  0
  5  4  1  0
  5  7  1  0
  5  6  1  6
  7  9  1  0
  8  7  2  0
  9 10  1  0
  9 13  1  0
 10 11  1  0
 12 11  1  0
 13 12  1  0
 14 15  2  0
 13 14  1  1
 17 16  1  1
 18 17  1  0
 19 17  1  0
 19 20  1  1
 20 14  1  0
 21 19  1  0
 22 21  2  0
 23 21  1  0
M  END
$$$$
