MPV.pdb
     RDKit          3D

 23 23  0  0  1  0  0  0  0  0999 V2000
    6.7693  -12.1096   28.1475 C   0  0  0  0  0  0  0  0  0  0  0  0
    7.0186  -11.9180   26.3594 S   0  0  0  0  0  0  0  0  0  0  0  0
    6.2209  -13.2448   25.4364 C   0  0  0  0  0  0  0  0  0  0  0  0
    6.8173  -14.5961   25.7499 C   0  0  0  0  0  0  0  0  0  0  0  0
    6.0336  -15.6286   24.9274 C   0  0  2  0  0  0  0  0  0  0  0  0
    5.4589  -16.5203   25.8275 N   0  0  0  0  0  0  0  0  0  0  0  0
    6.9325  -16.1773   23.8934 C   0  0  0  0  0  0  0  0  0  0  0  0
    7.1192  -17.4409   23.9792 O   0  0  0  0  0  0  0  0  0  0  0  0
    7.5688  -15.4451   22.8690 N   0  0  0  0  0  0  0  0  0  0  0  0
    7.5767  -14.0337   22.5732 C   0  0  0  0  0  0  0  0  0  0  0  0
    7.5125  -14.0112   21.0587 C   0  0  0  0  0  0  0  0  0  0  0  0
    8.1338  -15.2776   20.5759 C   0  0  0  0  0  0  0  0  0  0  0  0
    8.4133  -16.0335   21.8334 C   0  0  1  0  0  0  0  0  0  0  0  0
    9.8443  -15.9189   22.1383 C   0  0  0  0  0  0  0  0  0  0  0  0
   10.4405  -14.8502   21.8977 O   0  0  0  0  0  0  0  0  0  0  0  0
   11.3460  -18.6482   24.9325 C   0  0  0  0  0  0  0  0  0  0  0  0
   11.8318  -17.2292   24.7752 C   0  0  2  0  0  0  0  0  0  0  0  0
   10.8995  -16.2990   25.5451 C   0  0  0  0  0  0  0  0  0  0  0  0
   11.8519  -16.7743   23.3476 C   0  0  2  0  0  0  0  0  0  0  0  0
   10.5710  -16.9893   22.6994 N   0  0  0  0  0  0  0  0  0  0  0  0
   12.9307  -17.5411   22.6520 C   0  0  0  0  0  0  0  0  0  0  0  0
   12.7053  -18.4372   21.8287 O   0  0  0  0  0  0  0  0  0  0  0  0
   14.2495  -17.2213   22.9540 O   0  0  0  0  0  0  0  0  0  0  0  0
  1  2  1  0
  3  4  1  0
  3  2  1  0
  5  4  1  0
  5  7  1  0
  5  6  1  1
  7  9  1  0
  8  7  2  0
  9 10  1  0
  9 13  1  0
 10 11  1  0
 12 11  1  0
 13 12  1  0
 14 15  2  0
 13 14  1  1
 17 16  1  6
 18 17  1  0
 19 17  1  0
 19 20  1  6
 20 14  1  0
 21 19  1  0
 22 21  2  0
 23 21  1  0
M  END
$$$$
