MPV.pdb
     RDKit          3D

 23 23  0  0  1  0  0  0  0  0999 V2000
   11.7449  -20.0951   24.9622 C   0  0  0  0  0  0  0  0  0  0  0  0
   10.9428  -18.4908   25.2438 S   0  0  0  0  0  0  0  0  0  0  0  0
   10.9793  -17.4660   23.7615 C   0  0  0  0  0  0  0  0  0  0  0  0
   10.8320  -18.2827   22.4999 C   0  0  0  0  0  0  0  0  0  0  0  0
   10.7788  -17.2884   21.3315 C   0  0  2  0  0  0  0  0  0  0  0  0
   12.0706  -17.1784   20.8266 N   0  0  0  0  0  0  0  0  0  0  0  0
   10.1156  -16.0562   21.8004 C   0  0  0  0  0  0  0  0  0  0  0  0
   10.9226  -15.1071   22.0954 O   0  0  0  0  0  0  0  0  0  0  0  0
    8.7254  -15.8598   21.9401 N   0  0  0  0  0  0  0  0  0  0  0  0
    7.6111  -16.7411   21.6927 C   0  0  0  0  0  0  0  0  0  0  0  0
    6.5822  -15.8117   21.0795 C   0  0  0  0  0  0  0  0  0  0  0  0
    6.8554  -14.4457   21.6107 C   0  0  0  0  0  0  0  0  0  0  0  0
    8.1073  -14.6218   22.4059 C   0  0  1  0  0  0  0  0  0  0  0  0
    7.7532  -14.6676   23.8294 C   0  0  0  0  0  0  0  0  0  0  0  0
    7.6881  -15.7687   24.4116 O   0  0  0  0  0  0  0  0  0  0  0  0
    5.5414  -12.4140   26.5182 C   0  0  0  0  0  0  0  0  0  0  0  0
    7.0390  -12.2783   26.6329 C   0  0  2  0  0  0  0  0  0  0  0  0
    7.4723  -10.9853   25.9492 C   0  0  0  0  0  0  0  0  0  0  0  0
    7.7788  -13.4075   25.9826 C   0  0  2  0  0  0  0  0  0  0  0  0
    7.4821  -13.4950   24.5643 N   0  0  0  0  0  0  0  0  0  0  0  0
    7.3766  -14.6650   26.6844 C   0  0  0  0  0  0  0  0  0  0  0  0
    6.6220  -15.5102   26.1864 O   0  0  0  0  0  0  0  0  0  0  0  0
    7.8829  -14.8840   27.9605 O   0  0  0  0  0  0  0  0  0  0  0  0
  1  2  1  0
  3  4  1  0
  3  2  1  0
  5  4  1  0
  5  7  1  0
  5  6  1  1
  7  9  1  0
  8  7  2  0
  9 10  1  0
  9 13  1  0
 10 11  1  0
 12 11  1  0
 13 12  1  0
 14 15  2  0
 13 14  1  1
 17 16  1  6
 18 17  1  0
 19 17  1  0
 19 20  1  6
 20 14  1  0
 21 19  1  0
 22 21  2  0
 23 21  1  0
M  END
$$$$
