MPV.pdb
     RDKit          3D

 23 23  0  0  1  0  0  0  0  0999 V2000
    6.6379  -11.9598   26.9271 C   0  0  0  0  0  0  0  0  0  0  0  0
    4.9902  -12.3613   26.2789 S   0  0  0  0  0  0  0  0  0  0  0  0
    4.9313  -14.0377   25.6195 C   0  0  0  0  0  0  0  0  0  0  0  0
    6.3037  -14.6595   25.5195 C   0  0  0  0  0  0  0  0  0  0  0  0
    6.1329  -15.9950   24.7818 C   0  0  2  0  0  0  0  0  0  0  0  0
    5.2990  -16.7909   25.5609 N   0  0  0  0  0  0  0  0  0  0  0  0
    7.4730  -16.5179   24.4522 C   0  0  0  0  0  0  0  0  0  0  0  0
    7.5970  -17.7814   24.6171 O   0  0  0  0  0  0  0  0  0  0  0  0
    8.5720  -15.7624   23.9917 N   0  0  0  0  0  0  0  0  0  0  0  0
    8.7188  -14.3486   23.7485 C   0  0  0  0  0  0  0  0  0  0  0  0
    9.5548  -14.3138   22.4843 C   0  0  0  0  0  0  0  0  0  0  0  0
   10.3707  -15.5616   22.4654 C   0  0  0  0  0  0  0  0  0  0  0  0
    9.8769  -16.3223   23.6520 C   0  0  1  0  0  0  0  0  0  0  0  0
   10.8537  -16.1785   24.7378 C   0  0  0  0  0  0  0  0  0  0  0  0
   12.0727  -16.2213   24.4778 O   0  0  0  0  0  0  0  0  0  0  0  0
    9.7092  -15.0250   28.7906 C   0  0  0  0  0  0  0  0  0  0  0  0
   11.0048  -14.7168   28.0828 C   0  0  2  0  0  0  0  0  0  0  0  0
   10.8337  -13.4353   27.2733 C   0  0  0  0  0  0  0  0  0  0  0  0
   11.4250  -15.8004   27.1369 C   0  0  2  0  0  0  0  0  0  0  0  0
   10.4521  -15.9920   26.0768 N   0  0  0  0  0  0  0  0  0  0  0  0
   11.5858  -17.0523   27.9383 C   0  0  0  0  0  0  0  0  0  0  0  0
   12.4361  -17.1860   28.8276 O   0  0  0  0  0  0  0  0  0  0  0  0
   10.7304  -18.1125   27.6607 O   0  0  0  0  0  0  0  0  0  0  0  0
  1  2  1  0
  3  4  1  0
  3  2  1  0
  5  4  1  0
  5  7  1  0
  5  6  1  1
  7  9  1  0
  8  7  2  0
  9 10  1  0
  9 13  1  0
 10 11  1  0
 12 11  1  0
 13 12  1  0
 14 15  2  0
 13 14  1  1
 17 16  1  6
 18 17  1  0
 19 17  1  0
 19 20  1  6
 20 14  1  0
 21 19  1  0
 22 21  2  0
 23 21  1  0
M  END
$$$$
