MPV.pdb
     RDKit          3D

 23 23  0  0  1  0  0  0  0  0999 V2000
    6.5195  -11.5703   26.6268 C   0  0  0  0  0  0  0  0  0  0  0  0
    4.9884  -12.4589   27.0296 S   0  0  0  0  0  0  0  0  0  0  0  0
    4.8295  -13.9713   26.0619 C   0  0  0  0  0  0  0  0  0  0  0  0
    6.1504  -14.6841   25.8971 C   0  0  0  0  0  0  0  0  0  0  0  0
    5.8915  -15.8927   24.9865 C   0  0  2  0  0  0  0  0  0  0  0  0
    5.2304  -16.8489   25.7509 N   0  0  0  0  0  0  0  0  0  0  0  0
    7.1677  -16.2790   24.3539 C   0  0  0  0  0  0  0  0  0  0  0  0
    7.3814  -17.5411   24.3346 O   0  0  0  0  0  0  0  0  0  0  0  0
    8.1212  -15.4004   23.7973 N   0  0  0  0  0  0  0  0  0  0  0  0
    8.1134  -13.9675   23.6357 C   0  0  0  0  0  0  0  0  0  0  0  0
    8.7494  -13.7834   22.2719 C   0  0  0  0  0  0  0  0  0  0  0  0
    9.6540  -14.9478   22.0507 C   0  0  0  0  0  0  0  0  0  0  0  0
    9.4040  -15.8176   23.2387 C   0  0  1  0  0  0  0  0  0  0  0  0
   10.5140  -15.6473   24.1835 C   0  0  0  0  0  0  0  0  0  0  0  0
   11.6889  -15.7148   23.7703 O   0  0  0  0  0  0  0  0  0  0  0  0
   10.0390  -15.1107   28.5950 C   0  0  0  0  0  0  0  0  0  0  0  0
   11.0501  -14.4711   27.6767 C   0  0  2  0  0  0  0  0  0  0  0  0
   10.4772  -13.1608   27.1460 C   0  0  0  0  0  0  0  0  0  0  0  0
   11.3921  -15.3296   26.4971 C   0  0  2  0  0  0  0  0  0  0  0  0
   10.2904  -15.4080   25.5551 N   0  0  0  0  0  0  0  0  0  0  0  0
   11.7366  -16.6872   27.0204 C   0  0  0  0  0  0  0  0  0  0  0  0
   11.0570  -17.6962   26.7929 O   0  0  0  0  0  0  0  0  0  0  0  0
   12.8809  -16.8087   27.8005 O   0  0  0  0  0  0  0  0  0  0  0  0
  1  2  1  0
  3  4  1  0
  3  2  1  0
  5  4  1  0
  5  7  1  0
  5  6  1  1
  7  9  1  0
  8  7  2  0
  9 10  1  0
  9 13  1  0
 10 11  1  0
 12 11  1  0
 13 12  1  0
 14 15  2  0
 13 14  1  1
 17 16  1  1
 18 17  1  0
 19 17  1  0
 19 20  1  6
 20 14  1  0
 21 19  1  0
 22 21  2  0
 23 21  1  0
M  END
$$$$
