LDW.pdb
     RDKit          3D

 31 32  0  0  1  0  0  0  0  0999 V2000
    6.4634  -13.7723   17.9251 C   0  0  0  0  0  0  0  0  0  0  0  0
    7.8241  -13.7874   18.5397 C   0  0  1  0  0  0  0  0  0  0  0  0
    8.2886  -12.3429   18.6595 C   0  0  0  0  0  0  0  0  0  0  0  0
    7.8893  -14.3943   19.9004 C   0  0  0  0  0  0  0  0  0  0  0  0
    9.1967  -14.2126   20.6047 C   0  0  2  0  0  0  0  0  0  0  0  0
   10.2774  -13.9231   19.6680 N   0  0  0  0  0  0  0  0  0  0  0  0
    9.5268  -15.5438   21.2293 C   0  0  0  0  0  0  0  0  0  0  0  0
    8.6193  -16.2120   21.7880 O   0  0  0  0  0  0  0  0  0  0  0  0
   10.8378  -16.0814   21.2118 N   0  0  0  0  0  0  0  0  0  0  0  0
   11.1372  -17.2850   21.9952 C   0  0  1  0  0  0  0  0  0  0  0  0
   12.4047  -17.9257   21.4994 C   0  0  0  0  0  0  0  0  0  0  0  0
   12.2598  -18.6432   20.2212 C   0  0  0  0  0  0  0  0  0  0  0  0
   11.1464  -18.7672   19.6522 O   0  0  0  0  0  0  0  0  0  0  0  0
   11.1277  -16.9585   23.4227 C   0  0  0  0  0  0  0  0  0  0  0  0
   11.8863  -16.0549   23.8532 O   0  0  0  0  0  0  0  0  0  0  0  0
   13.3534  -19.2300   19.5620 O   0  0  0  0  0  0  0  0  0  0  0  0
   10.2721  -17.6548   24.3066 N   0  0  0  0  0  0  0  0  0  0  0  0
    9.6189  -16.9331   25.3808 C   0  0  1  0  0  0  0  0  0  0  0  0
    8.9969  -15.7165   24.7636 C   0  0  0  0  0  0  0  0  0  0  0  0
    7.8331  -15.1755   25.4850 C   0  0  0  0  0  0  0  0  0  0  0  0
    6.6363  -15.8823   25.7288 C   0  0  0  0  0  0  0  0  0  0  0  0
    5.8154  -15.0999   26.4358 N   0  0  0  0  0  0  0  0  0  0  0  0
    6.3826  -13.9182   26.6802 C   0  0  0  0  0  0  0  0  0  0  0  0
    5.9689  -12.7908   27.3399 C   0  0  0  0  0  0  0  0  0  0  0  0
    6.7857  -11.6622   27.4378 C   0  0  0  0  0  0  0  0  0  0  0  0
    8.0328  -11.6747   26.8619 C   0  0  0  0  0  0  0  0  0  0  0  0
    8.4225  -12.8414   26.1967 C   0  0  0  0  0  0  0  0  0  0  0  0
    7.6412  -13.9570   26.0897 C   0  0  0  0  0  0  0  0  0  0  0  0
    8.7578  -17.7658   26.2058 C   0  0  0  0  0  0  0  0  0  0  0  0
    8.6698  -17.6130   27.5764 O   0  0  0  0  0  0  0  0  0  0  0  0
    8.0304  -18.6962   25.7150 O   0  0  0  0  0  0  0  0  0  0  0  0
  2  1  1  1
  3  2  1  0
  4  2  1  0
  5  4  1  0
  5  6  1  6
  7  5  1  0
  7  8  2  0
  9  7  1  0
 10  9  1  0
 10 11  1  6
 12 13  2  0
 12 11  1  0
 14 17  1  0
 14 10  1  0
 15 14  2  0
 16 12  1  0
 18 17  1  0
 18 19  1  6
 20 19  1  0
 21 20  2  0
 22 23  1  0
 22 21  1  0
 23 28  2  0
 24 25  2  0
 24 23  1  0
 25 26  1  0
 26 27  2  0
 28 27  1  0
 28 20  1  0
 29 18  1  0
 30 29  1  0
 31 29  2  0
M  END
$$$$
