LDW.pdb
     RDKit          3D

 31 32  0  0  1  0  0  0  0  0999 V2000
    7.4807  -11.9563   20.7714 C   0  0  0  0  0  0  0  0  0  0  0  0
    7.5692  -13.3488   20.2400 C   0  0  1  0  0  0  0  0  0  0  0  0
    8.3088  -13.2859   18.9112 C   0  0  0  0  0  0  0  0  0  0  0  0
    8.3016  -14.3076   21.1165 C   0  0  0  0  0  0  0  0  0  0  0  0
    8.3864  -15.7031   20.5839 C   0  0  2  0  0  0  0  0  0  0  0  0
    7.0685  -16.3207   20.4792 N   0  0  0  0  0  0  0  0  0  0  0  0
    9.1441  -16.5013   21.6136 C   0  0  0  0  0  0  0  0  0  0  0  0
    8.5128  -17.1532   22.4846 O   0  0  0  0  0  0  0  0  0  0  0  0
   10.5601  -16.5481   21.6402 N   0  0  0  0  0  0  0  0  0  0  0  0
   11.2406  -17.2630   22.7254 C   0  0  1  0  0  0  0  0  0  0  0  0
   12.6720  -17.5347   22.3512 C   0  0  0  0  0  0  0  0  0  0  0  0
   12.8515  -18.0569   20.9858 C   0  0  0  0  0  0  0  0  0  0  0  0
   12.3574  -19.1541   20.6244 O   0  0  0  0  0  0  0  0  0  0  0  0
   11.0584  -16.5366   23.9838 C   0  0  0  0  0  0  0  0  0  0  0  0
   11.5639  -15.3944   24.1148 O   0  0  0  0  0  0  0  0  0  0  0  0
   13.5829  -17.3625   20.0070 O   0  0  0  0  0  0  0  0  0  0  0  0
   10.3203  -17.1170   25.0405 N   0  0  0  0  0  0  0  0  0  0  0  0
   10.5421  -16.6603   26.3983 C   0  0  1  0  0  0  0  0  0  0  0  0
   10.0977  -15.2291   26.4470 C   0  0  0  0  0  0  0  0  0  0  0  0
    8.6586  -15.0137   26.2236 C   0  0  0  0  0  0  0  0  0  0  0  0
    7.7148  -16.0395   26.0039 C   0  0  0  0  0  0  0  0  0  0  0  0
    6.5055  -15.4859   25.8747 N   0  0  0  0  0  0  0  0  0  0  0  0
    6.5776  -14.1597   25.9925 C   0  0  0  0  0  0  0  0  0  0  0  0
    5.6482  -13.1547   25.9328 C   0  0  0  0  0  0  0  0  0  0  0  0
    6.0123  -11.8150   26.0851 C   0  0  0  0  0  0  0  0  0  0  0  0
    7.3297  -11.4896   26.2992 C   0  0  0  0  0  0  0  0  0  0  0  0
    8.2510  -12.5401   26.3543 C   0  0  0  0  0  0  0  0  0  0  0  0
    7.9175  -13.8570   26.2096 C   0  0  0  0  0  0  0  0  0  0  0  0
   10.0003  -17.5524   27.4112 C   0  0  0  0  0  0  0  0  0  0  0  0
    9.2795  -18.6873   27.0916 O   0  0  0  0  0  0  0  0  0  0  0  0
   10.1529  -17.3403   28.6631 O   0  0  0  0  0  0  0  0  0  0  0  0
  2  1  1  1
  3  2  1  0
  4  2  1  0
  5  4  1  0
  5  6  1  1
  7  5  1  0
  7  8  2  0
  9  7  1  0
 10  9  1  0
 10 11  1  6
 12 13  2  0
 12 11  1  0
 14 17  1  0
 14 10  1  0
 15 14  2  0
 16 12  1  0
 18 17  1  0
 18 19  1  6
 20 19  1  0
 21 20  2  0
 22 23  1  0
 22 21  1  0
 23 28  2  0
 24 25  2  0
 24 23  1  0
 25 26  1  0
 26 27  2  0
 28 27  1  0
 28 20  1  0
 29 18  1  0
 30 29  1  0
 31 29  2  0
M  END
$$$$
