LDW.pdb
     RDKit          3D

 31 32  0  0  1  0  0  0  0  0999 V2000
    7.5254  -11.8915   20.6577 C   0  0  0  0  0  0  0  0  0  0  0  0
    7.6991  -13.2622   20.0919 C   0  0  1  0  0  0  0  0  0  0  0  0
    8.6588  -13.1539   18.9155 C   0  0  0  0  0  0  0  0  0  0  0  0
    8.2640  -14.2640   21.0413 C   0  0  0  0  0  0  0  0  0  0  0  0
    8.4815  -15.6248   20.4589 C   0  0  2  0  0  0  0  0  0  0  0  0
    7.2197  -16.2708   20.1129 N   0  0  0  0  0  0  0  0  0  0  0  0
    9.0940  -16.4587   21.5548 C   0  0  0  0  0  0  0  0  0  0  0  0
    8.3566  -17.1795   22.2751 O   0  0  0  0  0  0  0  0  0  0  0  0
   10.4879  -16.4639   21.8100 N   0  0  0  0  0  0  0  0  0  0  0  0
   11.0291  -17.3378   22.8565 C   0  0  1  0  0  0  0  0  0  0  0  0
   12.4500  -17.7135   22.5364 C   0  0  0  0  0  0  0  0  0  0  0  0
   13.0612  -18.6445   23.5002 C   0  0  0  0  0  0  0  0  0  0  0  0
   12.5013  -19.7195   23.8313 O   0  0  0  0  0  0  0  0  0  0  0  0
   10.8354  -16.7145   24.1675 C   0  0  0  0  0  0  0  0  0  0  0  0
   11.3361  -15.5850   24.3927 O   0  0  0  0  0  0  0  0  0  0  0  0
   14.3034  -18.3891   24.1059 O   0  0  0  0  0  0  0  0  0  0  0  0
   10.0917  -17.3794   25.1690 N   0  0  0  0  0  0  0  0  0  0  0  0
   10.0632  -16.8362   26.5127 C   0  0  1  0  0  0  0  0  0  0  0  0
    8.6325  -16.8728   26.9596 C   0  0  0  0  0  0  0  0  0  0  0  0
    7.7133  -16.0251   26.1824 C   0  0  0  0  0  0  0  0  0  0  0  0
    6.6980  -16.5081   25.3298 C   0  0  0  0  0  0  0  0  0  0  0  0
    6.0397  -15.4645   24.8166 N   0  0  0  0  0  0  0  0  0  0  0  0
    6.5469  -14.3171   25.2683 C   0  0  0  0  0  0  0  0  0  0  0  0
    6.2442  -12.9991   25.0472 C   0  0  0  0  0  0  0  0  0  0  0  0
    6.9653  -11.9726   25.6608 C   0  0  0  0  0  0  0  0  0  0  0  0
    8.0031  -12.2830   26.5058 C   0  0  0  0  0  0  0  0  0  0  0  0
    8.2844  -13.6377   26.7085 C   0  0  0  0  0  0  0  0  0  0  0  0
    7.5919  -14.6580   26.1204 C   0  0  0  0  0  0  0  0  0  0  0  0
   11.0465  -17.4303   27.4046 C   0  0  0  0  0  0  0  0  0  0  0  0
   11.9372  -18.4006   26.9864 O   0  0  0  0  0  0  0  0  0  0  0  0
   11.1463  -17.0953   28.6348 O   0  0  0  0  0  0  0  0  0  0  0  0
  2  1  1  1
  3  2  1  0
  4  2  1  0
  5  4  1  0
  5  6  1  1
  7  5  1  0
  7  8  2  0
  9  7  1  0
 10  9  1  0
 10 11  1  6
 12 13  2  0
 12 11  1  0
 14 17  1  0
 14 10  1  0
 15 14  2  0
 16 12  1  0
 18 17  1  0
 18 19  1  1
 20 19  1  0
 21 20  2  0
 22 23  1  0
 22 21  1  0
 23 28  2  0
 24 25  2  0
 24 23  1  0
 25 26  1  0
 26 27  2  0
 28 27  1  0
 28 20  1  0
 29 18  1  0
 30 29  1  0
 31 29  2  0
M  END
$$$$
