LDW.pdb
     RDKit          3D

 31 32  0  0  1  0  0  0  0  0999 V2000
    7.9399  -12.9953   19.0606 C   0  0  0  0  0  0  0  0  0  0  0  0
    8.3669  -13.4708   20.4100 C   0  0  1  0  0  0  0  0  0  0  0  0
    8.2133  -12.3049   21.3763 C   0  0  0  0  0  0  0  0  0  0  0  0
    7.5727  -14.6108   20.9520 C   0  0  0  0  0  0  0  0  0  0  0  0
    7.9601  -15.0439   22.3306 C   0  0  2  0  0  0  0  0  0  0  0  0
    9.1707  -14.3691   22.7870 N   0  0  0  0  0  0  0  0  0  0  0  0
    8.3069  -16.5072   22.2301 C   0  0  0  0  0  0  0  0  0  0  0  0
    8.0080  -17.1482   21.1899 O   0  0  0  0  0  0  0  0  0  0  0  0
    8.9663  -17.2002   23.2755 N   0  0  0  0  0  0  0  0  0  0  0  0
   10.4320  -17.1968   23.3346 C   0  0  1  0  0  0  0  0  0  0  0  0
   10.9911  -16.2445   22.3132 C   0  0  0  0  0  0  0  0  0  0  0  0
   12.4304  -16.4155   22.0509 C   0  0  0  0  0  0  0  0  0  0  0  0
   13.2874  -15.6170   22.5053 O   0  0  0  0  0  0  0  0  0  0  0  0
   10.8688  -16.9526   24.7109 C   0  0  0  0  0  0  0  0  0  0  0  0
   12.0956  -16.9650   24.9793 O   0  0  0  0  0  0  0  0  0  0  0  0
   12.9315  -17.4784   21.2800 O   0  0  0  0  0  0  0  0  0  0  0  0
    9.9173  -16.7054   25.7266 N   0  0  0  0  0  0  0  0  0  0  0  0
   10.3622  -16.5620   27.0988 C   0  0  1  0  0  0  0  0  0  0  0  0
    9.4962  -15.5089   27.7224 C   0  0  0  0  0  0  0  0  0  0  0  0
    8.2849  -15.1640   26.9599 C   0  0  0  0  0  0  0  0  0  0  0  0
    7.2830  -16.0822   26.5802 C   0  0  0  0  0  0  0  0  0  0  0  0
    6.3198  -15.4192   25.9333 N   0  0  0  0  0  0  0  0  0  0  0  0
    6.6108  -14.1203   25.8547 C   0  0  0  0  0  0  0  0  0  0  0  0
    5.9727  -13.0416   25.3009 C   0  0  0  0  0  0  0  0  0  0  0  0
    6.5243  -11.7599   25.3578 C   0  0  0  0  0  0  0  0  0  0  0  0
    7.7337  -11.5683   25.9807 C   0  0  0  0  0  0  0  0  0  0  0  0
    8.3569  -12.6909   26.5347 C   0  0  0  0  0  0  0  0  0  0  0  0
    7.8355  -13.9529   26.4921 C   0  0  0  0  0  0  0  0  0  0  0  0
   10.4785  -17.8249   27.8108 C   0  0  0  0  0  0  0  0  0  0  0  0
   10.0957  -19.0296   27.2523 O   0  0  0  0  0  0  0  0  0  0  0  0
   10.9385  -17.9000   29.0017 O   0  0  0  0  0  0  0  0  0  0  0  0
  2  1  1  6
  3  2  1  0
  4  2  1  0
  5  4  1  0
  5  6  1  6
  7  5  1  0
  7  8  2  0
  9  7  1  0
 10  9  1  0
 10 11  1  6
 12 13  2  0
 12 11  1  0
 14 17  1  0
 14 10  1  0
 15 14  2  0
 16 12  1  0
 18 17  1  0
 18 19  1  1
 20 19  1  0
 21 20  2  0
 22 23  1  0
 22 21  1  0
 23 28  2  0
 24 25  2  0
 24 23  1  0
 25 26  1  0
 26 27  2  0
 28 27  1  0
 28 20  1  0
 29 18  1  0
 30 29  1  0
 31 29  2  0
M  END
$$$$
