LDW.pdb
     RDKit          3D

 31 32  0  0  1  0  0  0  0  0999 V2000
    6.6164  -13.2317   18.3984 C   0  0  0  0  0  0  0  0  0  0  0  0
    7.9874  -13.7943   18.5802 C   0  0  1  0  0  0  0  0  0  0  0  0
    8.9669  -12.6295   18.5614 C   0  0  0  0  0  0  0  0  0  0  0  0
    8.1954  -14.5351   19.8578 C   0  0  0  0  0  0  0  0  0  0  0  0
    9.6079  -14.9562   20.1142 C   0  0  2  0  0  0  0  0  0  0  0  0
   10.1872  -15.6314   18.9576 N   0  0  0  0  0  0  0  0  0  0  0  0
    9.5475  -15.9843   21.2145 C   0  0  0  0  0  0  0  0  0  0  0  0
    8.5949  -15.9625   22.0357 O   0  0  0  0  0  0  0  0  0  0  0  0
   10.5347  -16.9898   21.3632 N   0  0  0  0  0  0  0  0  0  0  0  0
   10.4639  -17.9112   22.5024 C   0  0  1  0  0  0  0  0  0  0  0  0
   11.3745  -19.0871   22.2771 C   0  0  0  0  0  0  0  0  0  0  0  0
   11.7732  -19.2830   20.8728 C   0  0  0  0  0  0  0  0  0  0  0  0
   12.9193  -18.9762   20.4592 O   0  0  0  0  0  0  0  0  0  0  0  0
   10.7013  -17.1757   23.7463 C   0  0  0  0  0  0  0  0  0  0  0  0
   11.5434  -16.2441   23.7601 O   0  0  0  0  0  0  0  0  0  0  0  0
   10.9000  -19.8233   19.9133 O   0  0  0  0  0  0  0  0  0  0  0  0
    9.9885  -17.5124   24.9196 N   0  0  0  0  0  0  0  0  0  0  0  0
   10.2500  -16.7833   26.1450 C   0  0  1  0  0  0  0  0  0  0  0  0
    9.9605  -15.3409   25.8557 C   0  0  0  0  0  0  0  0  0  0  0  0
    8.5429  -14.9561   25.9548 C   0  0  0  0  0  0  0  0  0  0  0  0
    7.4546  -15.8357   25.7731 C   0  0  0  0  0  0  0  0  0  0  0  0
    6.3203  -15.1569   25.9692 N   0  0  0  0  0  0  0  0  0  0  0  0
    6.5773  -13.8834   26.2690 C   0  0  0  0  0  0  0  0  0  0  0  0
    5.7850  -12.8002   26.5455 C   0  0  0  0  0  0  0  0  0  0  0  0
    6.3348  -11.5468   26.8233 C   0  0  0  0  0  0  0  0  0  0  0  0
    7.6994  -11.3882   26.8206 C   0  0  0  0  0  0  0  0  0  0  0  0
    8.4773  -12.5144   26.5345 C   0  0  0  0  0  0  0  0  0  0  0  0
    7.9616  -13.7497   26.2614 C   0  0  0  0  0  0  0  0  0  0  0  0
    9.6106  -17.3607   27.3168 C   0  0  0  0  0  0  0  0  0  0  0  0
    9.9664  -17.0095   28.6051 O   0  0  0  0  0  0  0  0  0  0  0  0
    8.6808  -18.2344   27.2291 O   0  0  0  0  0  0  0  0  0  0  0  0
  2  1  1  1
  3  2  1  0
  4  2  1  0
  5  4  1  0
  5  6  1  6
  7  5  1  0
  7  8  2  0
  9  7  1  0
 10  9  1  0
 10 11  1  6
 12 13  2  0
 12 11  1  0
 14 17  1  0
 14 10  1  0
 15 14  2  0
 16 12  1  0
 18 17  1  0
 18 19  1  6
 20 19  1  0
 21 20  2  0
 22 23  1  0
 22 21  1  0
 23 28  2  0
 24 25  2  0
 24 23  1  0
 25 26  1  0
 26 27  2  0
 28 27  1  0
 28 20  1  0
 29 18  1  0
 30 29  1  0
 31 29  2  0
M  END
$$$$
