LDW.pdb
     RDKit          3D

 31 32  0  0  1  0  0  0  0  0999 V2000
    6.4770  -13.6355   17.9264 C   0  0  0  0  0  0  0  0  0  0  0  0
    7.8493  -13.7027   18.5107 C   0  0  1  0  0  0  0  0  0  0  0  0
    8.3715  -12.2772   18.6189 C   0  0  0  0  0  0  0  0  0  0  0  0
    7.9214  -14.3117   19.8701 C   0  0  0  0  0  0  0  0  0  0  0  0
    9.2178  -14.0950   20.5849 C   0  0  2  0  0  0  0  0  0  0  0  0
   10.3510  -14.1246   19.6661 N   0  0  0  0  0  0  0  0  0  0  0  0
    9.3926  -15.2748   21.5063 C   0  0  0  0  0  0  0  0  0  0  0  0
    8.4988  -15.5449   22.3491 O   0  0  0  0  0  0  0  0  0  0  0  0
   10.5401  -16.1049   21.4603 N   0  0  0  0  0  0  0  0  0  0  0  0
   10.6596  -17.2275   22.3969 C   0  0  1  0  0  0  0  0  0  0  0  0
   11.7632  -18.1524   21.9616 C   0  0  0  0  0  0  0  0  0  0  0  0
   11.5614  -18.7503   20.6307 C   0  0  0  0  0  0  0  0  0  0  0  0
   10.5273  -19.4051   20.3471 O   0  0  0  0  0  0  0  0  0  0  0  0
   10.7847  -16.7173   23.7639 C   0  0  0  0  0  0  0  0  0  0  0  0
   11.5699  -15.7653   23.9968 O   0  0  0  0  0  0  0  0  0  0  0  0
   12.5089  -18.6251   19.6004 O   0  0  0  0  0  0  0  0  0  0  0  0
   10.0278  -17.2921   24.8104 N   0  0  0  0  0  0  0  0  0  0  0  0
   10.2315  -16.8338   26.1705 C   0  0  1  0  0  0  0  0  0  0  0  0
    9.9177  -15.3676   26.1803 C   0  0  0  0  0  0  0  0  0  0  0  0
    8.4846  -15.0358   26.2376 C   0  0  0  0  0  0  0  0  0  0  0  0
    7.4363  -15.9417   25.9699 C   0  0  0  0  0  0  0  0  0  0  0  0
    6.2716  -15.3114   26.1495 N   0  0  0  0  0  0  0  0  0  0  0  0
    6.4710  -14.0458   26.5185 C   0  0  0  0  0  0  0  0  0  0  0  0
    5.6304  -13.0041   26.8114 C   0  0  0  0  0  0  0  0  0  0  0  0
    6.1237  -11.7477   27.1697 C   0  0  0  0  0  0  0  0  0  0  0  0
    7.4808  -11.5435   27.2316 C   0  0  0  0  0  0  0  0  0  0  0  0
    8.3090  -12.6281   26.9264 C   0  0  0  0  0  0  0  0  0  0  0  0
    7.8489  -13.8655   26.5751 C   0  0  0  0  0  0  0  0  0  0  0  0
    9.5674  -17.6555   27.1700 C   0  0  0  0  0  0  0  0  0  0  0  0
    8.7666  -18.7305   26.8340 O   0  0  0  0  0  0  0  0  0  0  0  0
    9.6790  -17.4323   28.4243 O   0  0  0  0  0  0  0  0  0  0  0  0
  2  1  1  1
  3  2  1  0
  4  2  1  0
  5  4  1  0
  5  6  1  6
  7  5  1  0
  7  8  2  0
  9  7  1  0
 10  9  1  0
 10 11  1  6
 12 13  2  0
 12 11  1  0
 14 17  1  0
 14 10  1  0
 15 14  2  0
 16 12  1  0
 18 17  1  0
 18 19  1  6
 20 19  1  0
 21 20  2  0
 22 23  1  0
 22 21  1  0
 23 28  2  0
 24 25  2  0
 24 23  1  0
 25 26  1  0
 26 27  2  0
 28 27  1  0
 28 20  1  0
 29 18  1  0
 30 29  1  0
 31 29  2  0
M  END
$$$$
