LDW.pdb
     RDKit          3D

 31 32  0  0  1  0  0  0  0  0999 V2000
    6.3228  -13.4321   18.7799 C   0  0  0  0  0  0  0  0  0  0  0  0
    7.7624  -13.6949   19.0760 C   0  0  1  0  0  0  0  0  0  0  0  0
    8.5325  -12.4168   18.7759 C   0  0  0  0  0  0  0  0  0  0  0  0
    8.0518  -14.0720   20.4895 C   0  0  0  0  0  0  0  0  0  0  0  0
    9.5051  -14.2169   20.8136 C   0  0  2  0  0  0  0  0  0  0  0  0
   10.2963  -14.5074   19.6224 N   0  0  0  0  0  0  0  0  0  0  0  0
    9.6196  -15.4300   21.7005 C   0  0  0  0  0  0  0  0  0  0  0  0
    8.6672  -15.7366   22.4628 O   0  0  0  0  0  0  0  0  0  0  0  0
   10.7740  -16.2519   21.7101 N   0  0  0  0  0  0  0  0  0  0  0  0
   10.8807  -17.3388   22.6894 C   0  0  1  0  0  0  0  0  0  0  0  0
   11.9398  -18.3189   22.2645 C   0  0  0  0  0  0  0  0  0  0  0  0
   12.2717  -19.3299   23.2829 C   0  0  0  0  0  0  0  0  0  0  0  0
   11.3866  -20.0255   23.8408 O   0  0  0  0  0  0  0  0  0  0  0  0
   11.0605  -16.7779   24.0301 C   0  0  0  0  0  0  0  0  0  0  0  0
   12.0100  -15.9842   24.2437 O   0  0  0  0  0  0  0  0  0  0  0  0
   13.5935  -19.5780   23.6910 O   0  0  0  0  0  0  0  0  0  0  0  0
   10.1727  -17.1276   25.0731 N   0  0  0  0  0  0  0  0  0  0  0  0
   10.4213  -16.6360   26.4140 C   0  0  1  0  0  0  0  0  0  0  0  0
   10.0269  -15.1895   26.4201 C   0  0  0  0  0  0  0  0  0  0  0  0
    8.5855  -14.9342   26.2631 C   0  0  0  0  0  0  0  0  0  0  0  0
    7.6095  -15.9304   26.0476 C   0  0  0  0  0  0  0  0  0  0  0  0
    6.4095  -15.3456   25.9867 N   0  0  0  0  0  0  0  0  0  0  0  0
    6.5178  -14.0263   26.1463 C   0  0  0  0  0  0  0  0  0  0  0  0
    5.6110  -12.9991   26.1588 C   0  0  0  0  0  0  0  0  0  0  0  0
    6.0126  -11.6741   26.3414 C   0  0  0  0  0  0  0  0  0  0  0  0
    7.3449  -11.3860   26.5124 C   0  0  0  0  0  0  0  0  0  0  0  0
    8.2425  -12.4581   26.4942 C   0  0  0  0  0  0  0  0  0  0  0  0
    7.8722  -13.7614   26.3187 C   0  0  0  0  0  0  0  0  0  0  0  0
    9.8577  -17.4762   27.4587 C   0  0  0  0  0  0  0  0  0  0  0  0
    9.1513  -18.6313   27.1817 O   0  0  0  0  0  0  0  0  0  0  0  0
    9.9762  -17.1967   28.7011 O   0  0  0  0  0  0  0  0  0  0  0  0
  2  1  1  1
  3  2  1  0
  4  2  1  0
  5  4  1  0
  5  6  1  6
  7  5  1  0
  7  8  2  0
  9  7  1  0
 10  9  1  0
 10 11  1  6
 12 13  2  0
 12 11  1  0
 14 17  1  0
 14 10  1  0
 15 14  2  0
 16 12  1  0
 18 17  1  0
 18 19  1  6
 20 19  1  0
 21 20  2  0
 22 23  1  0
 22 21  1  0
 23 28  2  0
 24 25  2  0
 24 23  1  0
 25 26  1  0
 26 27  2  0
 28 27  1  0
 28 20  1  0
 29 18  1  0
 30 29  1  0
 31 29  2  0
M  END
$$$$
