LDW.pdb
     RDKit          3D

 31 32  0  0  1  0  0  0  0  0999 V2000
    6.6166  -12.6075   19.0762 C   0  0  0  0  0  0  0  0  0  0  0  0
    7.8884  -13.3881   19.0261 C   0  0  1  0  0  0  0  0  0  0  0  0
    9.0372  -12.3904   18.9917 C   0  0  0  0  0  0  0  0  0  0  0  0
    8.1138  -14.2924   20.1904 C   0  0  0  0  0  0  0  0  0  0  0  0
    9.4149  -15.0304   20.1668 C   0  0  2  0  0  0  0  0  0  0  0  0
    9.5765  -15.7983   18.9366 N   0  0  0  0  0  0  0  0  0  0  0  0
    9.3475  -16.0381   21.2855 C   0  0  0  0  0  0  0  0  0  0  0  0
    8.4341  -15.9532   22.1461 O   0  0  0  0  0  0  0  0  0  0  0  0
   10.2853  -17.0933   21.4086 N   0  0  0  0  0  0  0  0  0  0  0  0
   10.1927  -18.0152   22.5458 C   0  0  1  0  0  0  0  0  0  0  0  0
   10.9618  -19.2753   22.2571 C   0  0  0  0  0  0  0  0  0  0  0  0
   12.3964  -19.0627   21.9999 C   0  0  0  0  0  0  0  0  0  0  0  0
   12.8030  -18.2095   21.1720 O   0  0  0  0  0  0  0  0  0  0  0  0
   10.5826  -17.3216   23.7751 C   0  0  0  0  0  0  0  0  0  0  0  0
   11.4604  -16.4248   23.7247 O   0  0  0  0  0  0  0  0  0  0  0  0
   13.3945  -19.7975   22.6625 O   0  0  0  0  0  0  0  0  0  0  0  0
    9.9758  -17.6594   25.0063 N   0  0  0  0  0  0  0  0  0  0  0  0
   10.2854  -16.8812   26.1895 C   0  0  1  0  0  0  0  0  0  0  0  0
   10.0063  -15.4488   25.8454 C   0  0  0  0  0  0  0  0  0  0  0  0
    8.5820  -15.0770   25.8259 C   0  0  0  0  0  0  0  0  0  0  0  0
    7.5190  -15.9714   25.5783 C   0  0  0  0  0  0  0  0  0  0  0  0
    6.3668  -15.3008   25.6714 N   0  0  0  0  0  0  0  0  0  0  0  0
    6.5883  -14.0189   25.9638 C   0  0  0  0  0  0  0  0  0  0  0  0
    5.7672  -12.9387   26.1553 C   0  0  0  0  0  0  0  0  0  0  0  0
    6.2824  -11.6743   26.4490 C   0  0  0  0  0  0  0  0  0  0  0  0
    7.6416  -11.5015   26.5492 C   0  0  0  0  0  0  0  0  0  0  0  0
    8.4495  -12.6250   26.3479 C   0  0  0  0  0  0  0  0  0  0  0  0
    7.9677  -13.8709   26.0612 C   0  0  0  0  0  0  0  0  0  0  0  0
    9.6754  -17.3969   27.4048 C   0  0  0  0  0  0  0  0  0  0  0  0
   10.0249  -16.9412   28.6617 O   0  0  0  0  0  0  0  0  0  0  0  0
    8.7792  -18.3092   27.3876 O   0  0  0  0  0  0  0  0  0  0  0  0
  2  1  1  1
  3  2  1  0
  4  2  1  0
  5  4  1  0
  5  6  1  6
  7  5  1  0
  7  8  2  0
  9  7  1  0
 10  9  1  0
 10 11  1  6
 12 13  2  0
 12 11  1  0
 14 17  1  0
 14 10  1  0
 15 14  2  0
 16 12  1  0
 18 17  1  0
 18 19  1  6
 20 19  1  0
 21 20  2  0
 22 23  1  0
 22 21  1  0
 23 28  2  0
 24 25  2  0
 24 23  1  0
 25 26  1  0
 26 27  2  0
 28 27  1  0
 28 20  1  0
 29 18  1  0
 30 29  1  0
 31 29  2  0
M  END
$$$$
