LDW.pdb
     RDKit          3D

 31 32  0  0  1  0  0  0  0  0999 V2000
    6.8135  -12.3297   19.6356 C   0  0  0  0  0  0  0  0  0  0  0  0
    7.7771  -13.4038   19.2525 C   0  0  1  0  0  0  0  0  0  0  0  0
    9.0082  -12.7272   18.6667 C   0  0  0  0  0  0  0  0  0  0  0  0
    8.2330  -14.2668   20.3802 C   0  0  0  0  0  0  0  0  0  0  0  0
    9.2711  -15.2797   20.0131 C   0  0  2  0  0  0  0  0  0  0  0  0
    8.8205  -16.1433   18.9266 N   0  0  0  0  0  0  0  0  0  0  0  0
    9.4347  -16.1702   21.2178 C   0  0  0  0  0  0  0  0  0  0  0  0
    8.5191  -16.2285   22.0784 O   0  0  0  0  0  0  0  0  0  0  0  0
   10.5954  -16.9567   21.4231 N   0  0  0  0  0  0  0  0  0  0  0  0
   10.6701  -17.8474   22.5862 C   0  0  1  0  0  0  0  0  0  0  0  0
   11.7360  -18.8879   22.3765 C   0  0  0  0  0  0  0  0  0  0  0  0
   11.6873  -19.5467   21.0600 C   0  0  0  0  0  0  0  0  0  0  0  0
   12.6785  -19.5613   20.2880 O   0  0  0  0  0  0  0  0  0  0  0  0
   10.8153  -17.0520   23.8072 C   0  0  0  0  0  0  0  0  0  0  0  0
   11.5879  -16.0619   23.8093 O   0  0  0  0  0  0  0  0  0  0  0  0
   10.5342  -20.1972   20.5887 O   0  0  0  0  0  0  0  0  0  0  0  0
   10.0918  -17.3966   24.9717 N   0  0  0  0  0  0  0  0  0  0  0  0
   10.3866  -16.7194   26.2190 C   0  0  1  0  0  0  0  0  0  0  0  0
   10.0875  -15.2667   25.9991 C   0  0  0  0  0  0  0  0  0  0  0  0
    8.6567  -14.9227   25.9575 C   0  0  0  0  0  0  0  0  0  0  0  0
    7.6124  -15.8449   25.7331 C   0  0  0  0  0  0  0  0  0  0  0  0
    6.4473  -15.1934   25.7958 N   0  0  0  0  0  0  0  0  0  0  0  0
    6.6426  -13.8984   26.0462 C   0  0  0  0  0  0  0  0  0  0  0  0
    5.8002  -12.8281   26.1955 C   0  0  0  0  0  0  0  0  0  0  0  0
    6.2896  -11.5451   26.4498 C   0  0  0  0  0  0  0  0  0  0  0  0
    7.6446  -11.3433   26.5532 C   0  0  0  0  0  0  0  0  0  0  0  0
    8.4747  -12.4575   26.3955 C   0  0  0  0  0  0  0  0  0  0  0  0
    8.0183  -13.7212   26.1478 C   0  0  0  0  0  0  0  0  0  0  0  0
    9.7807  -17.3472   27.3826 C   0  0  0  0  0  0  0  0  0  0  0  0
   10.0711  -16.9520   28.6746 O   0  0  0  0  0  0  0  0  0  0  0  0
    8.9435  -18.3089   27.2840 O   0  0  0  0  0  0  0  0  0  0  0  0
  2  1  1  1
  3  2  1  0
  4  2  1  0
  5  4  1  0
  5  6  1  6
  7  5  1  0
  7  8  2  0
  9  7  1  0
 10  9  1  0
 10 11  1  6
 12 13  2  0
 12 11  1  0
 14 17  1  0
 14 10  1  0
 15 14  2  0
 16 12  1  0
 18 17  1  0
 18 19  1  6
 20 19  1  0
 21 20  2  0
 22 23  1  0
 22 21  1  0
 23 28  2  0
 24 25  2  0
 24 23  1  0
 25 26  1  0
 26 27  2  0
 28 27  1  0
 28 20  1  0
 29 18  1  0
 30 29  1  0
 31 29  2  0
M  END
$$$$
