LDW.pdb
     RDKit          3D

 31 32  0  0  1  0  0  0  0  0999 V2000
    7.1120  -12.7870   19.9329 C   0  0  0  0  0  0  0  0  0  0  0  0
    7.7319  -14.0142   19.3508 C   0  0  1  0  0  0  0  0  0  0  0  0
    8.6695  -13.5697   18.2373 C   0  0  0  0  0  0  0  0  0  0  0  0
    8.5306  -14.8279   20.3121 C   0  0  0  0  0  0  0  0  0  0  0  0
    9.2614  -15.9809   19.6999 C   0  0  2  0  0  0  0  0  0  0  0  0
    8.3426  -16.9511   19.1138 N   0  0  0  0  0  0  0  0  0  0  0  0
    9.9544  -16.6903   20.8347 C   0  0  0  0  0  0  0  0  0  0  0  0
    9.3800  -17.6475   21.4144 O   0  0  0  0  0  0  0  0  0  0  0  0
   11.2466  -16.3176   21.2812 N   0  0  0  0  0  0  0  0  0  0  0  0
   11.9279  -17.1357   22.2902 C   0  0  1  0  0  0  0  0  0  0  0  0
   13.3461  -16.6669   22.4683 C   0  0  0  0  0  0  0  0  0  0  0  0
   14.2845  -17.1807   21.4560 C   0  0  0  0  0  0  0  0  0  0  0  0
   15.0845  -16.4258   20.8486 O   0  0  0  0  0  0  0  0  0  0  0  0
   11.1299  -17.1695   23.5176 C   0  0  0  0  0  0  0  0  0  0  0  0
   10.2296  -18.0361   23.6436 O   0  0  0  0  0  0  0  0  0  0  0  0
   14.3432  -18.5413   21.1093 O   0  0  0  0  0  0  0  0  0  0  0  0
   11.3718  -16.2348   24.5501 N   0  0  0  0  0  0  0  0  0  0  0  0
   10.2756  -15.8143   25.4004 C   0  0  1  0  0  0  0  0  0  0  0  0
    9.2965  -15.1016   24.5165 C   0  0  0  0  0  0  0  0  0  0  0  0
    8.0661  -14.6477   25.1856 C   0  0  0  0  0  0  0  0  0  0  0  0
    6.9112  -15.4370   25.3704 C   0  0  0  0  0  0  0  0  0  0  0  0
    6.0065  -14.7186   26.0421 N   0  0  0  0  0  0  0  0  0  0  0  0
    6.4788  -13.5025   26.3179 C   0  0  0  0  0  0  0  0  0  0  0  0
    5.9582  -12.4114   26.9629 C   0  0  0  0  0  0  0  0  0  0  0  0
    6.6896  -11.2301   27.1038 C   0  0  0  0  0  0  0  0  0  0  0  0
    7.9599  -11.1522   26.5863 C   0  0  0  0  0  0  0  0  0  0  0  0
    8.4595  -12.2841   25.9346 C   0  0  0  0  0  0  0  0  0  0  0  0
    7.7629  -13.4500   25.7864 C   0  0  0  0  0  0  0  0  0  0  0  0
    9.7493  -16.8760   26.2437 C   0  0  0  0  0  0  0  0  0  0  0  0
    9.8763  -18.2132   25.9193 O   0  0  0  0  0  0  0  0  0  0  0  0
    9.1308  -16.6387   27.3377 O   0  0  0  0  0  0  0  0  0  0  0  0
  2  1  1  1
  3  2  1  0
  4  2  1  0
  5  4  1  0
  5  6  1  1
  7  5  1  0
  7  8  2  0
  9  7  1  0
 10  9  1  0
 10 11  1  1
 12 13  2  0
 12 11  1  0
 14 17  1  0
 14 10  1  0
 15 14  2  0
 16 12  1  0
 18 17  1  0
 18 19  1  6
 20 19  1  0
 21 20  2  0
 22 23  1  0
 22 21  1  0
 23 28  2  0
 24 25  2  0
 24 23  1  0
 25 26  1  0
 26 27  2  0
 28 27  1  0
 28 20  1  0
 29 18  1  0
 30 29  1  0
 31 29  2  0
M  END
$$$$
