GSP.pdb
     RDKit          3D

 18 18  0  0  1  0  0  0  0  0999 V2000
   20.6739  -21.6993  -11.8626 N   0  0  0  0  0  0  0  0  0  0  0  0
   21.4874  -21.7873  -13.0509 C   0  0  0  0  0  0  0  0  0  0  0  0
   22.5733  -20.7941  -12.9549 C   0  0  0  0  0  0  0  0  0  0  0  0
   22.3050  -19.5840  -12.8941 O   0  0  0  0  0  0  0  0  0  0  0  0
   26.3746  -22.2489  -13.1086 O   0  0  0  0  0  0  0  0  0  0  0  0
   26.2304  -21.0321  -12.4404 C   0  0  0  0  0  0  0  0  0  0  0  0
   25.0475  -20.2568  -13.0184 C   0  0  2  0  0  0  0  0  0  0  0  0
   23.9313  -21.1935  -12.9303 N   0  0  0  0  0  0  0  0  0  0  0  0
   25.3401  -20.0132  -14.4471 C   0  0  0  0  0  0  0  0  0  0  0  0
   24.7455  -20.7445  -15.2947 O   0  0  0  0  0  0  0  0  0  0  0  0
   26.2337  -19.0229  -14.9335 N   0  0  0  0  0  0  0  0  0  0  0  0
   27.1786  -18.2904  -14.0907 C   0  0  0  0  0  0  0  0  0  0  0  0
   27.1941  -16.9336  -14.7134 C   0  0  0  0  0  0  0  0  0  0  0  0
   26.5498  -17.0353  -16.0613 C   0  0  0  0  0  0  0  0  0  0  0  0
   26.4557  -18.5291  -16.2694 C   0  0  1  0  0  0  0  0  0  0  0  0
   27.7819  -18.9721  -16.8199 C   0  0  0  0  0  0  0  0  0  0  0  0
   28.5743  -19.6670  -16.1499 O   0  0  0  0  0  0  0  0  0  0  0  0
   28.1518  -18.6160  -18.0847 O   0  0  0  0  0  0  0  0  0  0  0  0
  1  2  1  0
  3  2  1  0
  4  3  2  0
  5  6  1  0
  7  6  1  1
  7  8  1  0
  7  9  1  0
  8  3  1  0
  9 10  2  0
 11  9  1  0
 11 12  1  0
 13 12  1  0
 14 13  1  0
 15 14  1  0
 15 11  1  0
 15 16  1  1
 16 18  1  0
 17 16  2  0
M  END
$$$$
