GSP.pdb
     RDKit          3D

 18 18  0  0  1  0  0  0  0  0999 V2000
   29.2661  -20.1631  -19.1583 N   0  0  0  0  0  0  0  0  0  0  0  0
   27.9966  -19.6112  -18.7515 C   0  0  0  0  0  0  0  0  0  0  0  0
   27.9033  -19.6735  -17.2811 C   0  0  0  0  0  0  0  0  0  0  0  0
   28.5772  -20.5031  -16.6504 O   0  0  0  0  0  0  0  0  0  0  0  0
   27.2868  -16.5119  -14.9015 O   0  0  0  0  0  0  0  0  0  0  0  0
   26.3021  -17.4899  -14.7534 C   0  0  0  0  0  0  0  0  0  0  0  0
   26.8702  -18.8610  -15.1162 C   0  0  2  0  0  0  0  0  0  0  0  0
   27.0529  -18.7985  -16.5633 N   0  0  0  0  0  0  0  0  0  0  0  0
   25.8218  -19.8610  -14.8215 C   0  0  0  0  0  0  0  0  0  0  0  0
   25.1150  -20.2653  -15.7929 O   0  0  0  0  0  0  0  0  0  0  0  0
   25.5535  -20.3982  -13.5348 N   0  0  0  0  0  0  0  0  0  0  0  0
   26.1599  -19.9016  -12.2996 C   0  0  0  0  0  0  0  0  0  0  0  0
   26.3323  -21.1457  -11.4926 C   0  0  0  0  0  0  0  0  0  0  0  0
   25.5177  -22.2282  -12.1304 C   0  0  0  0  0  0  0  0  0  0  0  0
   24.6737  -21.4632  -13.1235 C   0  0  1  0  0  0  0  0  0  0  0  0
   23.4808  -20.9480  -12.3689 C   0  0  0  0  0  0  0  0  0  0  0  0
   23.4185  -19.7695  -11.9602 O   0  0  0  0  0  0  0  0  0  0  0  0
   22.4248  -21.7736  -12.1108 O   0  0  0  0  0  0  0  0  0  0  0  0
  1  2  1  0
  3  2  1  0
  4  3  2  0
  5  6  1  0
  7  6  1  6
  7  8  1  0
  7  9  1  0
  8  3  1  0
  9 10  2  0
 11  9  1  0
 11 12  1  0
 13 12  1  0
 14 13  1  0
 15 14  1  0
 15 11  1  0
 15 16  1  1
 16 18  1  0
 17 16  2  0
M  END
$$$$
