GSP.pdb
     RDKit          3D

 18 18  0  0  1  0  0  0  0  0999 V2000
   26.8941  -33.9871  -11.7399 N   0  0  0  0  0  0  0  0  0  0  0  0
   25.5523  -33.8855  -11.2193 C   0  0  0  0  0  0  0  0  0  0  0  0
   25.6056  -33.2278   -9.9004 C   0  0  0  0  0  0  0  0  0  0  0  0
   26.7016  -32.9659   -9.3805 O   0  0  0  0  0  0  0  0  0  0  0  0
   22.0792  -32.7144   -8.1780 O   0  0  0  0  0  0  0  0  0  0  0  0
   22.9866  -31.7632   -7.7091 C   0  0  0  0  0  0  0  0  0  0  0  0
   24.4152  -32.2785   -7.8765 C   0  0  2  0  0  0  0  0  0  0  0  0
   24.4215  -32.8838   -9.2050 N   0  0  0  0  0  0  0  0  0  0  0  0
   24.6146  -33.3485   -6.8758 C   0  0  0  0  0  0  0  0  0  0  0  0
   24.3395  -34.5339   -7.2302 O   0  0  0  0  0  0  0  0  0  0  0  0
   25.0909  -33.1429   -5.5541 N   0  0  0  0  0  0  0  0  0  0  0  0
   25.2703  -31.8245   -4.9463 C   0  0  0  0  0  0  0  0  0  0  0  0
   26.4842  -32.0139   -4.0980 C   0  0  0  0  0  0  0  0  0  0  0  0
   26.7398  -33.4844   -3.9771 C   0  0  0  0  0  0  0  0  0  0  0  0
   25.4696  -34.0861   -4.5321 C   0  0  1  0  0  0  0  0  0  0  0  0
   24.4791  -34.1197   -3.4025 C   0  0  0  0  0  0  0  0  0  0  0  0
   23.5009  -33.3443   -3.3609 O   0  0  0  0  0  0  0  0  0  0  0  0
   24.6336  -35.0136   -2.3826 O   0  0  0  0  0  0  0  0  0  0  0  0
  1  2  1  0
  3  2  1  0
  4  3  2  0
  5  6  1  0
  7  6  1  1
  7  8  1  0
  7  9  1  0
  8  3  1  0
  9 10  2  0
 11  9  1  0
 11 12  1  0
 13 12  1  0
 14 13  1  0
 15 14  1  0
 15 11  1  0
 15 16  1  1
 16 18  1  0
 17 16  2  0
M  END
$$$$
