GSP.pdb
     RDKit          3D

 18 18  0  0  1  0  0  0  0  0999 V2000
   23.2535  -11.3143  -20.3753 N   0  0  0  0  0  0  0  0  0  0  0  0
   23.9372  -10.3581  -19.5388 C   0  0  0  0  0  0  0  0  0  0  0  0
   22.9871   -9.8436  -18.5351 C   0  0  0  0  0  0  0  0  0  0  0  0
   21.9097   -9.3454  -18.8974 O   0  0  0  0  0  0  0  0  0  0  0  0
   22.2572   -9.3394  -13.7390 O   0  0  0  0  0  0  0  0  0  0  0  0
   22.9391   -9.9013  -14.8194 C   0  0  0  0  0  0  0  0  0  0  0  0
   22.4521   -9.2758  -16.1256 C   0  0  2  0  0  0  0  0  0  0  0  0
   23.2786   -9.9054  -17.1511 N   0  0  0  0  0  0  0  0  0  0  0  0
   22.7888   -7.8370  -16.0740 C   0  0  0  0  0  0  0  0  0  0  0  0
   23.9791   -7.5083  -16.3599 O   0  0  0  0  0  0  0  0  0  0  0  0
   21.8777   -6.8037  -15.7302 N   0  0  0  0  0  0  0  0  0  0  0  0
   20.4825   -7.0357  -15.3568 C   0  0  0  0  0  0  0  0  0  0  0  0
   19.7834   -5.8517  -15.9384 C   0  0  0  0  0  0  0  0  0  0  0  0
   20.8203   -4.8355  -16.3050 C   0  0  0  0  0  0  0  0  0  0  0  0
   22.0628   -5.3773  -15.6371 C   0  0  1  0  0  0  0  0  0  0  0  0
   22.0310   -4.8975  -14.2134 C   0  0  0  0  0  0  0  0  0  0  0  0
   21.7232   -5.6553  -13.2696 O   0  0  0  0  0  0  0  0  0  0  0  0
   22.3428   -3.6012  -13.9205 O   0  0  0  0  0  0  0  0  0  0  0  0
  1  2  1  0
  3  2  1  0
  4  3  2  0
  5  6  1  0
  7  6  1  1
  7  8  1  0
  7  9  1  0
  8  3  1  0
  9 10  2  0
 11  9  1  0
 11 12  1  0
 13 12  1  0
 14 13  1  0
 15 14  1  0
 15 11  1  0
 15 16  1  1
 16 18  1  0
 17 16  2  0
M  END
$$$$
