GSP.pdb
     RDKit          3D

 18 18  0  0  1  0  0  0  0  0999 V2000
   20.7859  -12.4530  -18.6429 N   0  0  0  0  0  0  0  0  0  0  0  0
   21.5980  -11.2953  -18.3566 C   0  0  0  0  0  0  0  0  0  0  0  0
   20.8278  -10.3789  -17.4953 C   0  0  0  0  0  0  0  0  0  0  0  0
   19.7148   -9.9700  -17.8617 O   0  0  0  0  0  0  0  0  0  0  0  0
   22.2406   -9.7243  -13.7552 O   0  0  0  0  0  0  0  0  0  0  0  0
   20.8774   -9.5198  -13.9739 C   0  0  0  0  0  0  0  0  0  0  0  0
   20.6504   -8.9862  -15.3874 C   0  0  2  0  0  0  0  0  0  0  0  0
   21.3344   -9.9493  -16.2451 N   0  0  0  0  0  0  0  0  0  0  0  0
   21.3568   -7.6910  -15.4849 C   0  0  0  0  0  0  0  0  0  0  0  0
   22.5157   -7.6986  -15.9981 O   0  0  0  0  0  0  0  0  0  0  0  0
   20.8308   -6.4466  -15.0481 N   0  0  0  0  0  0  0  0  0  0  0  0
   19.5346   -6.2943  -14.3874 C   0  0  0  0  0  0  0  0  0  0  0  0
   19.0500   -4.9819  -14.9085 C   0  0  0  0  0  0  0  0  0  0  0  0
   20.2076   -4.2834  -15.5523 C   0  0  0  0  0  0  0  0  0  0  0  0
   21.3856   -5.1175  -15.1051 C   0  0  1  0  0  0  0  0  0  0  0  0
   21.7794   -4.6133  -13.7454 C   0  0  0  0  0  0  0  0  0  0  0  0
   21.4612   -5.2190  -12.7006 O   0  0  0  0  0  0  0  0  0  0  0  0
   22.5043   -3.4629  -13.6251 O   0  0  0  0  0  0  0  0  0  0  0  0
  1  2  1  0
  3  2  1  0
  4  3  2  0
  5  6  1  0
  7  6  1  1
  7  8  1  0
  7  9  1  0
  8  3  1  0
  9 10  2  0
 11  9  1  0
 11 12  1  0
 13 12  1  0
 14 13  1  0
 15 14  1  0
 15 11  1  0
 15 16  1  1
 16 18  1  0
 17 16  2  0
M  END
$$$$
