GSP.pdb
     RDKit          3D

 18 18  0  0  1  0  0  0  0  0999 V2000
   15.3061  -12.3554  -14.9840 N   0  0  0  0  0  0  0  0  0  0  0  0
   15.7197  -11.0049  -14.6893 C   0  0  0  0  0  0  0  0  0  0  0  0
   17.1868  -10.9221  -14.8133 C   0  0  0  0  0  0  0  0  0  0  0  0
   17.9136  -11.4751  -13.9730 O   0  0  0  0  0  0  0  0  0  0  0  0
   19.4653  -10.6052  -18.3209 O   0  0  0  0  0  0  0  0  0  0  0  0
   19.4229   -9.5265  -17.4363 C   0  0  0  0  0  0  0  0  0  0  0  0
   19.2356  -10.0317  -16.0065 C   0  0  2  0  0  0  0  0  0  0  0  0
   17.7931  -10.2182  -15.8815 N   0  0  0  0  0  0  0  0  0  0  0  0
   19.6447   -8.9385  -15.0990 C   0  0  0  0  0  0  0  0  0  0  0  0
   18.7483   -8.1199  -14.7346 O   0  0  0  0  0  0  0  0  0  0  0  0
   20.9629   -8.7431  -14.6089 N   0  0  0  0  0  0  0  0  0  0  0  0
   22.1217   -9.5197  -15.0494 C   0  0  0  0  0  0  0  0  0  0  0  0
   22.9350   -9.6360  -13.8029 C   0  0  0  0  0  0  0  0  0  0  0  0
   22.4037   -8.6494  -12.8096 C   0  0  0  0  0  0  0  0  0  0  0  0
   21.4815   -7.7985  -13.6517 C   0  0  1  0  0  0  0  0  0  0  0  0
   22.3377   -6.7496  -14.3033 C   0  0  0  0  0  0  0  0  0  0  0  0
   22.8521   -5.8190  -13.6483 O   0  0  0  0  0  0  0  0  0  0  0  0
   22.5725   -6.7950  -15.6472 O   0  0  0  0  0  0  0  0  0  0  0  0
  1  2  1  0
  3  2  1  0
  4  3  2  0
  5  6  1  0
  7  6  1  6
  7  8  1  0
  7  9  1  0
  8  3  1  0
  9 10  2  0
 11  9  1  0
 11 12  1  0
 13 12  1  0
 14 13  1  0
 15 14  1  0
 15 11  1  0
 15 16  1  6
 16 18  1  0
 17 16  2  0
M  END
$$$$
