MRQ.pdb
     RDKit          3D

 29 28  0  0  1  0  0  0  0  0999 V2000
   30.8187  -21.0368   -7.5059 C   0  0  0  0  0  0  0  0  0  0  0  0
   31.6682  -22.2771   -8.4753 S   0  0  0  0  0  0  0  0  0  0  0  0
   31.4267  -22.1765  -10.2426 C   0  0  0  0  0  0  0  0  0  0  0  0
   30.1286  -21.5960  -10.6673 C   0  0  0  0  0  0  0  0  0  0  0  0
   29.8218  -21.6923  -12.1299 C   0  0  2  0  0  0  0  0  0  0  0  0
   31.0891  -21.5734  -12.8385 N   0  0  0  0  0  0  0  0  0  0  0  0
   28.9521  -20.5706  -12.5874 C   0  0  0  0  0  0  0  0  0  0  0  0
   29.0996  -19.4001  -12.1591 O   0  0  0  0  0  0  0  0  0  0  0  0
   28.3422  -17.5187  -18.2669 N   0  0  0  0  0  0  0  0  0  0  0  0
   27.3228  -18.4558  -18.6122 C   0  0  0  0  0  0  0  0  0  0  0  0
   27.4864  -19.2730  -19.5814 N   0  0  0  0  0  0  0  0  0  0  0  0
   26.1329  -18.4536  -17.8539 N   0  0  0  0  0  0  0  0  0  0  0  0
   26.0055  -17.4860  -16.7594 C   0  0  0  0  0  0  0  0  0  0  0  0
   25.8748  -18.1871  -15.4502 C   0  0  0  0  0  0  0  0  0  0  0  0
   26.9653  -19.1039  -15.0572 C   0  0  0  0  0  0  0  0  0  0  0  0
   26.8634  -19.8030  -13.7477 C   0  0  2  0  0  0  0  0  0  0  0  0
   27.8901  -20.7640  -13.5497 N   0  0  0  0  0  0  0  0  0  0  0  0
   25.5149  -20.4713  -13.6056 C   0  0  0  0  0  0  0  0  0  0  0  0
   25.2474  -21.4520  -14.3450 O   0  0  0  0  0  0  0  0  0  0  0  0
   26.7254  -19.9162  -19.8332 N   0  0  0  0  0  0  0  0  0  0  0  0
   20.7162  -19.3347   -9.3432 C   0  0  0  0  0  0  0  0  0  0  0  0
   20.2800  -20.3706  -10.2058 O   0  0  0  0  0  0  0  0  0  0  0  0
   19.1605  -20.8778  -10.0002 C   0  0  0  0  0  0  0  0  0  0  0  0
   21.1244  -20.8255  -11.3004 C   0  0  0  0  0  0  0  0  0  0  0  0
   22.4693  -20.1915  -11.4274 C   0  0  1  0  0  0  0  0  0  0  0  0
   23.2477  -20.7166  -12.5697 N   0  0  0  0  0  0  0  0  0  0  0  0
   24.5449  -20.0547  -12.6916 C   0  0  0  0  0  0  0  0  0  0  0  0
   22.5636  -20.5560  -13.8435 O   0  0  0  0  0  0  0  0  0  0  0  0
   22.6243  -19.4858  -14.4886 O   0  0  0  0  0  0  0  0  0  0  0  0
  2  3  1  0
  2  1  1  0
  4  5  1  0
  4  3  1  0
  5  6  1  6
  7  8  2  0
  7  5  1  0
  9 10  1  0
 10 12  1  0
 11 10  2  0
 12 13  1  0
 13 14  1  0
 14 15  1  0
 16 15  1  6
 16 17  1  0
 17  7  1  0
 18 16  1  0
 19 18  2  0
 20 21  1  0
 21 23  1  0
 21 22  2  0
 23 24  1  0
 25 24  1  1
 25 27  1  0
 25 26  1  0
 26 18  1  0
 27 29  1  0
 28 27  2  0
M  END
$$$$
