MRQ.pdb
     RDKit          3D

 29 28  0  0  1  0  0  0  0  0999 V2000
   23.8187  -12.7016  -15.2410 C   0  0  0  0  0  0  0  0  0  0  0  0
   25.4982  -12.3935  -15.7740 S   0  0  0  0  0  0  0  0  0  0  0  0
   26.5345  -13.8392  -15.9397 C   0  0  0  0  0  0  0  0  0  0  0  0
   25.8117  -15.1354  -15.9249 C   0  0  0  0  0  0  0  0  0  0  0  0
   26.6734  -16.3597  -15.9571 C   0  0  2  0  0  0  0  0  0  0  0  0
   27.2232  -16.4570  -17.3027 N   0  0  0  0  0  0  0  0  0  0  0  0
   25.8819  -17.5995  -15.7119 C   0  0  0  0  0  0  0  0  0  0  0  0
   25.3317  -18.2307  -16.6468 O   0  0  0  0  0  0  0  0  0  0  0  0
   27.4498  -21.3865   -9.5633 N   0  0  0  0  0  0  0  0  0  0  0  0
   26.1262  -20.9797   -9.2182 C   0  0  0  0  0  0  0  0  0  0  0  0
   25.8951  -20.3690   -8.1192 N   0  0  0  0  0  0  0  0  0  0  0  0
   25.0836  -21.2703  -10.1234 N   0  0  0  0  0  0  0  0  0  0  0  0
   25.4018  -22.0434  -11.3282 C   0  0  0  0  0  0  0  0  0  0  0  0
   24.8873  -21.3546  -12.5462 C   0  0  0  0  0  0  0  0  0  0  0  0
   25.5198  -20.0728  -12.9215 C   0  0  0  0  0  0  0  0  0  0  0  0
   25.0580  -19.3933  -14.1620 C   0  0  2  0  0  0  0  0  0  0  0  0
   25.7019  -18.1474  -14.3856 N   0  0  0  0  0  0  0  0  0  0  0  0
   23.5608  -19.1867  -14.1289 C   0  0  0  0  0  0  0  0  0  0  0  0
   23.0844  -18.3612  -13.3094 O   0  0  0  0  0  0  0  0  0  0  0  0
   24.9402  -20.0530   -7.9085 N   0  0  0  0  0  0  0  0  0  0  0  0
   18.9610  -21.4091  -18.1671 C   0  0  0  0  0  0  0  0  0  0  0  0
   18.3447  -20.4994  -17.2727 O   0  0  0  0  0  0  0  0  0  0  0  0
   17.1372  -20.2380  -17.4357 C   0  0  0  0  0  0  0  0  0  0  0  0
   19.1094  -19.8897  -16.1951 C   0  0  0  0  0  0  0  0  0  0  0  0
   20.5615  -20.2255  -16.1203 C   0  0  2  0  0  0  0  0  0  0  0  0
   21.2351  -19.6116  -14.9559 N   0  0  0  0  0  0  0  0  0  0  0  0
   22.6737  -19.8681  -14.9647 C   0  0  0  0  0  0  0  0  0  0  0  0
   20.7216  -20.0955  -13.6837 O   0  0  0  0  0  0  0  0  0  0  0  0
   21.1118  -21.1764  -13.1890 O   0  0  0  0  0  0  0  0  0  0  0  0
  2  3  1  0
  2  1  1  0
  4  5  1  0
  4  3  1  0
  5  6  1  6
  7  8  2  0
  7  5  1  0
  9 10  1  0
 10 12  1  0
 11 10  2  0
 12 13  1  0
 13 14  1  0
 14 15  1  0
 16 15  1  1
 16 17  1  0
 17  7  1  0
 18 16  1  0
 19 18  2  0
 20 21  1  0
 21 23  1  0
 21 22  2  0
 23 24  1  0
 25 24  1  6
 25 27  1  0
 25 26  1  0
 26 18  1  0
 27 29  1  0
 28 27  2  0
M  END
$$$$
