MRQ.pdb
     RDKit          3D

 29 28  0  0  1  0  0  0  0  0999 V2000
   26.8775  -18.0840   -6.6596 C   0  0  0  0  0  0  0  0  0  0  0  0
   27.0630  -19.8301   -7.0012 S   0  0  0  0  0  0  0  0  0  0  0  0
   27.8757  -20.2350   -8.5397 C   0  0  0  0  0  0  0  0  0  0  0  0
   27.0652  -19.9972   -9.7600 C   0  0  0  0  0  0  0  0  0  0  0  0
   25.8915  -20.9081   -9.9475 C   0  0  2  0  0  0  0  0  0  0  0  0
   26.3844  -22.2713   -9.8031 N   0  0  0  0  0  0  0  0  0  0  0  0
   25.3130  -20.7896  -11.3168 C   0  0  0  0  0  0  0  0  0  0  0  0
   24.7944  -19.7229  -11.7275 O   0  0  0  0  0  0  0  0  0  0  0  0
   25.1717  -26.7095  -15.7886 N   0  0  0  0  0  0  0  0  0  0  0  0
   23.9304  -26.2726  -16.3408 C   0  0  0  0  0  0  0  0  0  0  0  0
   22.8631  -26.9559  -16.1730 N   0  0  0  0  0  0  0  0  0  0  0  0
   23.9163  -25.0676  -17.0747 N   0  0  0  0  0  0  0  0  0  0  0  0
   24.8266  -23.9925  -16.6674 C   0  0  0  0  0  0  0  0  0  0  0  0
   24.1812  -23.1140  -15.6504 C   0  0  0  0  0  0  0  0  0  0  0  0
   24.7865  -23.0744  -14.3028 C   0  0  0  0  0  0  0  0  0  0  0  0
   24.6358  -21.8330  -13.4965 C   0  0  2  0  0  0  0  0  0  0  0  0
   25.3154  -21.8935  -12.2510 N   0  0  0  0  0  0  0  0  0  0  0  0
   23.1744  -21.5287  -13.2575 C   0  0  0  0  0  0  0  0  0  0  0  0
   22.6081  -22.0392  -12.2582 O   0  0  0  0  0  0  0  0  0  0  0  0
   21.9866  -26.6367  -16.6041 N   0  0  0  0  0  0  0  0  0  0  0  0
   19.8117  -17.3727  -16.6778 C   0  0  0  0  0  0  0  0  0  0  0  0
   21.0601  -17.2732  -16.0152 O   0  0  0  0  0  0  0  0  0  0  0  0
   21.7994  -16.3086  -16.2909 C   0  0  0  0  0  0  0  0  0  0  0  0
   21.4614  -18.2762  -15.0402 C   0  0  0  0  0  0  0  0  0  0  0  0
   20.4903  -19.3736  -14.7579 C   0  0  2  0  0  0  0  0  0  0  0  0
   21.0186  -20.3810  -13.8131 N   0  0  0  0  0  0  0  0  0  0  0  0
   22.4155  -20.7062  -14.0928 C   0  0  0  0  0  0  0  0  0  0  0  0
   20.2739  -21.6304  -13.8418 O   0  0  0  0  0  0  0  0  0  0  0  0
   20.5066  -22.5114  -14.6991 O   0  0  0  0  0  0  0  0  0  0  0  0
  2  3  1  0
  2  1  1  0
  4  5  1  0
  4  3  1  0
  5  6  1  6
  7  8  2  0
  7  5  1  0
  9 10  1  0
 10 12  1  0
 11 10  2  0
 12 13  1  0
 13 14  1  0
 14 15  1  0
 16 15  1  1
 16 17  1  0
 17  7  1  0
 18 16  1  0
 19 18  2  0
 20 21  1  0
 21 23  1  0
 21 22  2  0
 23 24  1  0
 25 24  1  1
 25 27  1  0
 25 26  1  0
 26 18  1  0
 27 29  1  0
 28 27  2  0
M  END
$$$$
