MRQ.pdb
     RDKit          3D

 29 28  0  0  1  0  0  0  0  0999 V2000
   18.3614  -23.6997  -10.0127 C   0  0  0  0  0  0  0  0  0  0  0  0
   17.8975  -24.7105  -11.4138 S   0  0  0  0  0  0  0  0  0  0  0  0
   17.9577  -23.9009  -13.0051 C   0  0  0  0  0  0  0  0  0  0  0  0
   18.4110  -22.4880  -12.9745 C   0  0  0  0  0  0  0  0  0  0  0  0
   18.5828  -21.8322  -14.3097 C   0  0  2  0  0  0  0  0  0  0  0  0
   19.4603  -22.6902  -15.0947 N   0  0  0  0  0  0  0  0  0  0  0  0
   19.2519  -20.5047  -14.1917 C   0  0  0  0  0  0  0  0  0  0  0  0
   18.8126  -19.6058  -13.4339 O   0  0  0  0  0  0  0  0  0  0  0  0
   24.2613  -21.8670  -12.7141 N   0  0  0  0  0  0  0  0  0  0  0  0
   24.8602  -22.4291  -13.8811 C   0  0  0  0  0  0  0  0  0  0  0  0
   25.0881  -23.6845  -13.9595 N   0  0  0  0  0  0  0  0  0  0  0  0
   25.1917  -21.5607  -14.9426 N   0  0  0  0  0  0  0  0  0  0  0  0
   24.6765  -20.1882  -14.9073 C   0  0  0  0  0  0  0  0  0  0  0  0
   23.1894  -20.1873  -14.8018 C   0  0  0  0  0  0  0  0  0  0  0  0
   22.4992  -18.8864  -14.9260 C   0  0  0  0  0  0  0  0  0  0  0  0
   21.0113  -18.8731  -14.9270 C   0  0  2  0  0  0  0  0  0  0  0  0
   20.4441  -20.1750  -14.9409 N   0  0  0  0  0  0  0  0  0  0  0  0
   20.4877  -18.0839  -16.1053 C   0  0  0  0  0  0  0  0  0  0  0  0
   20.5380  -18.6035  -17.2488 O   0  0  0  0  0  0  0  0  0  0  0  0
   25.5894  -24.0564  -14.7758 N   0  0  0  0  0  0  0  0  0  0  0  0
   23.3989  -13.9260  -18.4795 C   0  0  0  0  0  0  0  0  0  0  0  0
   22.1433  -13.5871  -19.0417 O   0  0  0  0  0  0  0  0  0  0  0  0
   22.1150  -12.7406  -19.9558 C   0  0  0  0  0  0  0  0  0  0  0  0
   20.9230  -14.2151  -18.5575 C   0  0  0  0  0  0  0  0  0  0  0  0
   21.0610  -15.1873  -17.4337 C   0  0  2  0  0  0  0  0  0  0  0  0
   19.8036  -15.9067  -17.1372 N   0  0  0  0  0  0  0  0  0  0  0  0
   19.9484  -16.8010  -15.9906 C   0  0  0  0  0  0  0  0  0  0  0  0
   19.3355  -16.7136  -18.2534 O   0  0  0  0  0  0  0  0  0  0  0  0
   19.9339  -17.7546  -18.6048 O   0  0  0  0  0  0  0  0  0  0  0  0
  2  3  1  0
  2  1  1  0
  4  5  1  0
  4  3  1  0
  5  6  1  6
  7  8  2  0
  7  5  1  0
  9 10  1  0
 10 12  1  0
 11 10  2  0
 12 13  1  0
 13 14  1  0
 14 15  1  0
 16 15  1  6
 16 17  1  0
 17  7  1  0
 18 16  1  0
 19 18  2  0
 20 21  1  0
 21 23  1  0
 21 22  2  0
 23 24  1  0
 25 24  1  1
 25 27  1  0
 25 26  1  0
 26 18  1  0
 27 29  1  0
 28 27  2  0
M  END
$$$$
