MRQ.pdb
     RDKit          3D

 29 28  0  0  1  0  0  0  0  0999 V2000
   27.2020  -10.1893    8.8550 C   0  0  0  0  0  0  0  0  0  0  0  0
   26.3511   -9.2112    7.6225 S   0  0  0  0  0  0  0  0  0  0  0  0
   24.7155   -8.6517    8.0734 C   0  0  0  0  0  0  0  0  0  0  0  0
   23.7697   -9.7262    8.4653 C   0  0  0  0  0  0  0  0  0  0  0  0
   22.3871   -9.2755    8.8226 C   0  0  2  0  0  0  0  0  0  0  0  0
   22.4831   -8.5823   10.1003 N   0  0  0  0  0  0  0  0  0  0  0  0
   21.4617  -10.4292    9.0137 C   0  0  0  0  0  0  0  0  0  0  0  0
   21.4831  -11.1312   10.0539 O   0  0  0  0  0  0  0  0  0  0  0  0
   16.7615  -12.5014    3.9413 N   0  0  0  0  0  0  0  0  0  0  0  0
   15.8683  -13.4962    4.4402 C   0  0  0  0  0  0  0  0  0  0  0  0
   15.1203  -14.1617    3.6453 N   0  0  0  0  0  0  0  0  0  0  0  0
   15.8357  -13.7229    5.8324 N   0  0  0  0  0  0  0  0  0  0  0  0
   16.0350  -12.5803    6.7297 C   0  0  0  0  0  0  0  0  0  0  0  0
   17.2759  -12.7557    7.5370 C   0  0  0  0  0  0  0  0  0  0  0  0
   18.3072  -11.7018    7.4376 C   0  0  0  0  0  0  0  0  0  0  0  0
   19.5617  -11.8645    8.2210 C   0  0  2  0  0  0  0  0  0  0  0  0
   20.4866  -10.8067    8.0147 N   0  0  0  0  0  0  0  0  0  0  0  0
   20.2250  -13.1831    7.8945 C   0  0  0  0  0  0  0  0  0  0  0  0
   20.8056  -13.3076    6.7866 O   0  0  0  0  0  0  0  0  0  0  0  0
   14.4548  -14.8434    4.0306 N   0  0  0  0  0  0  0  0  0  0  0  0
   23.3695  -17.1081   11.6796 C   0  0  0  0  0  0  0  0  0  0  0  0
   23.3926  -17.7072   10.3959 O   0  0  0  0  0  0  0  0  0  0  0  0
   24.1450  -18.6837   10.2137 C   0  0  0  0  0  0  0  0  0  0  0  0
   22.5570  -17.1887    9.3231 C   0  0  0  0  0  0  0  0  0  0  0  0
   21.7438  -15.9741    9.6242 C   0  0  2  0  0  0  0  0  0  0  0  0
   20.9493  -15.5116    8.4660 N   0  0  0  0  0  0  0  0  0  0  0  0
   20.2268  -14.2766    8.7630 C   0  0  0  0  0  0  0  0  0  0  0  0
   19.9649  -16.4889    8.0274 O   0  0  0  0  0  0  0  0  0  0  0  0
   18.7892  -16.4705    8.4546 O   0  0  0  0  0  0  0  0  0  0  0  0
  2  3  1  0
  2  1  1  0
  4  5  1  0
  4  3  1  0
  5  6  1  1
  7  8  2  0
  7  5  1  0
  9 10  1  0
 10 12  1  0
 11 10  2  0
 12 13  1  0
 13 14  1  0
 14 15  1  0
 16 15  1  6
 16 17  1  0
 17  7  1  0
 18 16  1  0
 19 18  2  0
 20 21  1  0
 21 23  1  0
 21 22  2  0
 23 24  1  0
 25 24  1  6
 25 27  1  0
 25 26  1  0
 26 18  1  0
 27 29  1  0
 28 27  2  0
M  END
$$$$
