MRQ.pdb
     RDKit          3D

 29 28  0  0  1  0  0  0  0  0999 V2000
   26.5135  -35.3137  -19.7897 C   0  0  0  0  0  0  0  0  0  0  0  0
   26.2764  -35.6328  -18.0456 S   0  0  0  0  0  0  0  0  0  0  0  0
   25.8101  -34.2196  -17.0573 C   0  0  0  0  0  0  0  0  0  0  0  0
   26.8146  -33.1282  -17.0083 C   0  0  0  0  0  0  0  0  0  0  0  0
   27.8875  -33.2792  -15.9745 C   0  0  2  0  0  0  0  0  0  0  0  0
   27.2570  -33.0828  -14.6760 N   0  0  0  0  0  0  0  0  0  0  0  0
   28.9427  -32.2350  -16.1163 C   0  0  0  0  0  0  0  0  0  0  0  0
   28.8757  -31.1381  -15.5102 O   0  0  0  0  0  0  0  0  0  0  0  0
   36.8302  -30.6705  -15.0114 N   0  0  0  0  0  0  0  0  0  0  0  0
   36.8045  -29.9524  -16.2444 C   0  0  0  0  0  0  0  0  0  0  0  0
   37.7900  -29.2169  -16.5938 N   0  0  0  0  0  0  0  0  0  0  0  0
   35.6629  -30.0784  -17.0639 N   0  0  0  0  0  0  0  0  0  0  0  0
   34.6861  -31.1238  -16.7426 C   0  0  0  0  0  0  0  0  0  0  0  0
   33.5720  -31.1251  -17.7333 C   0  0  0  0  0  0  0  0  0  0  0  0
   32.4405  -32.0424  -17.4839 C   0  0  0  0  0  0  0  0  0  0  0  0
   31.1448  -31.4617  -17.0388 C   0  0  2  0  0  0  0  0  0  0  0  0
   30.1034  -32.4239  -16.9581 N   0  0  0  0  0  0  0  0  0  0  0  0
   30.7219  -30.3389  -17.9584 C   0  0  0  0  0  0  0  0  0  0  0  0
   30.3612  -30.6220  -19.1288 O   0  0  0  0  0  0  0  0  0  0  0  0
   37.7500  -28.7104  -17.4870 N   0  0  0  0  0  0  0  0  0  0  0  0
   28.0372  -24.7799  -16.3748 C   0  0  0  0  0  0  0  0  0  0  0  0
   28.2401  -24.7196  -17.7757 O   0  0  0  0  0  0  0  0  0  0  0  0
   27.8370  -23.7117  -18.3877 C   0  0  0  0  0  0  0  0  0  0  0  0
   28.9018  -25.8114  -18.4743 C   0  0  0  0  0  0  0  0  0  0  0  0
   29.4084  -26.9409  -17.6410 C   0  0  1  0  0  0  0  0  0  0  0  0
   30.1610  -27.9430  -18.4258 N   0  0  0  0  0  0  0  0  0  0  0  0
   30.7107  -28.9962  -17.5750 C   0  0  0  0  0  0  0  0  0  0  0  0
   31.2729  -27.3654  -19.1650 O   0  0  0  0  0  0  0  0  0  0  0  0
   32.4600  -27.5697  -18.8268 O   0  0  0  0  0  0  0  0  0  0  0  0
  2  3  1  0
  2  1  1  0
  4  5  1  0
  4  3  1  0
  5  6  1  1
  7  8  2  0
  7  5  1  0
  9 10  1  0
 10 12  1  0
 11 10  2  0
 12 13  1  0
 13 14  1  0
 14 15  1  0
 16 15  1  6
 16 17  1  0
 17  7  1  0
 18 16  1  0
 19 18  2  0
 20 21  1  0
 21 23  1  0
 21 22  2  0
 23 24  1  0
 25 24  1  6
 25 27  1  0
 25 26  1  0
 26 18  1  0
 27 29  1  0
 28 27  2  0
M  END
$$$$
