MRQ.pdb
     RDKit          3D

 29 28  0  0  1  0  0  0  0  0999 V2000
   23.6923  -22.4827  -20.7988 C   0  0  0  0  0  0  0  0  0  0  0  0
   24.9307  -21.2268  -21.0969 S   0  0  0  0  0  0  0  0  0  0  0  0
   25.6791  -20.5171  -19.6383 C   0  0  0  0  0  0  0  0  0  0  0  0
   25.1991  -21.0767  -18.3502 C   0  0  0  0  0  0  0  0  0  0  0  0
   24.3473  -20.1640  -17.5231 C   0  0  2  0  0  0  0  0  0  0  0  0
   25.1469  -18.9805  -17.2364 N   0  0  0  0  0  0  0  0  0  0  0  0
   23.9852  -20.7808  -16.2146 C   0  0  0  0  0  0  0  0  0  0  0  0
   23.4017  -21.8898  -16.1432 O   0  0  0  0  0  0  0  0  0  0  0  0
   27.3384  -20.8617   -8.4570 N   0  0  0  0  0  0  0  0  0  0  0  0
   27.5234  -21.1059   -9.8508 C   0  0  0  0  0  0  0  0  0  0  0  0
   28.6457  -21.5230  -10.2986 N   0  0  0  0  0  0  0  0  0  0  0  0
   26.4340  -20.8743  -10.7170 N   0  0  0  0  0  0  0  0  0  0  0  0
   25.1356  -20.5312  -10.1279 C   0  0  0  0  0  0  0  0  0  0  0  0
   24.0896  -20.4266  -11.1850 C   0  0  0  0  0  0  0  0  0  0  0  0
   24.5297  -20.0402  -12.5419 C   0  0  0  0  0  0  0  0  0  0  0  0
   23.8717  -20.6871  -13.7092 C   0  0  2  0  0  0  0  0  0  0  0  0
   24.2843  -20.1400  -14.9532 N   0  0  0  0  0  0  0  0  0  0  0  0
   22.3676  -20.5911  -13.5920 C   0  0  0  0  0  0  0  0  0  0  0  0
   21.8200  -19.4725  -13.7623 O   0  0  0  0  0  0  0  0  0  0  0  0
   28.7787  -21.6231  -11.3126 N   0  0  0  0  0  0  0  0  0  0  0  0
   17.9299  -25.2860  -12.7875 C   0  0  0  0  0  0  0  0  0  0  0  0
   17.2356  -24.0522  -12.8433 O   0  0  0  0  0  0  0  0  0  0  0  0
   15.9897  -24.0747  -12.8247 C   0  0  0  0  0  0  0  0  0  0  0  0
   17.9661  -22.7960  -12.9214 C   0  0  0  0  0  0  0  0  0  0  0  0
   19.4553  -22.8797  -12.9672 C   0  0  2  0  0  0  0  0  0  0  0  0
   20.1004  -21.5628  -13.1573 N   0  0  0  0  0  0  0  0  0  0  0  0
   21.5493  -21.6850  -13.3026 C   0  0  0  0  0  0  0  0  0  0  0  0
   19.8563  -20.6474  -12.0533 O   0  0  0  0  0  0  0  0  0  0  0  0
   20.5376  -20.6902  -11.0048 O   0  0  0  0  0  0  0  0  0  0  0  0
  2  3  1  0
  2  1  1  0
  4  5  1  0
  4  3  1  0
  5  6  1  1
  7  8  2  0
  7  5  1  0
  9 10  1  0
 10 12  1  0
 11 10  2  0
 12 13  1  0
 13 14  1  0
 14 15  1  0
 16 15  1  1
 16 17  1  0
 17  7  1  0
 18 16  1  0
 19 18  2  0
 20 21  1  0
 21 23  1  0
 21 22  2  0
 23 24  1  0
 25 24  1  6
 25 27  1  0
 25 26  1  0
 26 18  1  0
 27 29  1  0
 28 27  2  0
M  END
$$$$
