MRQ.pdb
     RDKit          3D

 29 28  0  0  1  0  0  0  0  0999 V2000
   24.0707  -17.3748  -22.9944 C   0  0  0  0  0  0  0  0  0  0  0  0
   24.5047  -15.6650  -22.6974 S   0  0  0  0  0  0  0  0  0  0  0  0
   24.6107  -15.1811  -20.9810 C   0  0  0  0  0  0  0  0  0  0  0  0
   24.5420  -16.2992  -20.0075 C   0  0  0  0  0  0  0  0  0  0  0  0
   24.0424  -15.9414  -18.6419 C   0  0  2  0  0  0  0  0  0  0  0  0
   24.8087  -14.7843  -18.1989 N   0  0  0  0  0  0  0  0  0  0  0  0
   24.2866  -17.0363  -17.6594 C   0  0  0  0  0  0  0  0  0  0  0  0
   23.7679  -18.1718  -17.7896 O   0  0  0  0  0  0  0  0  0  0  0  0
   26.5875  -21.0605  -11.2613 N   0  0  0  0  0  0  0  0  0  0  0  0
   26.2035  -21.5064  -12.5614 C   0  0  0  0  0  0  0  0  0  0  0  0
   25.4389  -22.5207  -12.7058 N   0  0  0  0  0  0  0  0  0  0  0  0
   26.6910  -20.7965  -13.6790 N   0  0  0  0  0  0  0  0  0  0  0  0
   27.4052  -19.5369  -13.4474 C   0  0  0  0  0  0  0  0  0  0  0  0
   26.4444  -18.4054  -13.3088 C   0  0  0  0  0  0  0  0  0  0  0  0
   26.2863  -17.5010  -14.4669 C   0  0  0  0  0  0  0  0  0  0  0  0
   25.3084  -17.8722  -15.5250 C   0  0  2  0  0  0  0  0  0  0  0  0
   25.1337  -16.8557  -16.5014 N   0  0  0  0  0  0  0  0  0  0  0  0
   23.9696  -18.2176  -14.9138 C   0  0  0  0  0  0  0  0  0  0  0  0
   23.2642  -17.2894  -14.4439 O   0  0  0  0  0  0  0  0  0  0  0  0
   25.1378  -22.7955  -13.6491 N   0  0  0  0  0  0  0  0  0  0  0  0
   18.7912  -17.9379  -16.2657 C   0  0  0  0  0  0  0  0  0  0  0  0
   18.8056  -18.0908  -14.8572 O   0  0  0  0  0  0  0  0  0  0  0  0
   17.8197  -17.6886  -14.2097 C   0  0  0  0  0  0  0  0  0  0  0  0
   19.9465  -18.7018  -14.1918 C   0  0  0  0  0  0  0  0  0  0  0  0
   21.0759  -19.1504  -15.0579 C   0  0  2  0  0  0  0  0  0  0  0  0
   22.1504  -19.8257  -14.2991 N   0  0  0  0  0  0  0  0  0  0  0  0
   23.4720  -19.5204  -14.8427 C   0  0  0  0  0  0  0  0  0  0  0  0
   22.0146  -21.2741  -14.2912 O   0  0  0  0  0  0  0  0  0  0  0  0
   21.2528  -21.8557  -13.4871 O   0  0  0  0  0  0  0  0  0  0  0  0
  2  3  1  0
  2  1  1  0
  4  5  1  0
  4  3  1  0
  5  6  1  1
  7  8  2  0
  7  5  1  0
  9 10  1  0
 10 12  1  0
 11 10  2  0
 12 13  1  0
 13 14  1  0
 14 15  1  0
 16 15  1  1
 16 17  1  0
 17  7  1  0
 18 16  1  0
 19 18  2  0
 20 21  1  0
 21 23  1  0
 21 22  2  0
 23 24  1  0
 25 24  1  1
 25 27  1  0
 25 26  1  0
 26 18  1  0
 27 29  1  0
 28 27  2  0
M  END
$$$$
