MRQ.pdb
     RDKit          3D

 29 28  0  0  1  0  0  0  0  0999 V2000
   23.3690  -12.4110  -15.5568 C   0  0  0  0  0  0  0  0  0  0  0  0
   24.1732  -12.0721  -17.1183 S   0  0  0  0  0  0  0  0  0  0  0  0
   24.7952  -13.4997  -17.9937 C   0  0  0  0  0  0  0  0  0  0  0  0
   23.9628  -14.7225  -17.8733 C   0  0  0  0  0  0  0  0  0  0  0  0
   24.5377  -15.9621  -18.4858 C   0  0  2  0  0  0  0  0  0  0  0  0
   24.4945  -15.7815  -19.9307 N   0  0  0  0  0  0  0  0  0  0  0  0
   23.7197  -17.1673  -18.1660 C   0  0  0  0  0  0  0  0  0  0  0  0
   22.6560  -17.4284  -18.7788 O   0  0  0  0  0  0  0  0  0  0  0  0
   27.1675  -21.4361  -12.4953 N   0  0  0  0  0  0  0  0  0  0  0  0
   25.8122  -21.8603  -12.6363 C   0  0  0  0  0  0  0  0  0  0  0  0
   25.1140  -22.1710  -11.6116 N   0  0  0  0  0  0  0  0  0  0  0  0
   25.2676  -21.9259  -13.9362 N   0  0  0  0  0  0  0  0  0  0  0  0
   26.0434  -21.3636  -15.0463 C   0  0  0  0  0  0  0  0  0  0  0  0
   25.3536  -20.1729  -15.6201 C   0  0  0  0  0  0  0  0  0  0  0  0
   24.1020  -20.4074  -16.3702 C   0  0  0  0  0  0  0  0  0  0  0  0
   23.3013  -19.2275  -16.7953 C   0  0  2  0  0  0  0  0  0  0  0  0
   24.1027  -18.1050  -17.1338 N   0  0  0  0  0  0  0  0  0  0  0  0
   22.3177  -18.8360  -15.7161 C   0  0  0  0  0  0  0  0  0  0  0  0
   22.7448  -18.2236  -14.7049 O   0  0  0  0  0  0  0  0  0  0  0  0
   24.1262  -22.4272  -11.7328 N   0  0  0  0  0  0  0  0  0  0  0  0
   16.5518  -16.7031  -16.2319 C   0  0  0  0  0  0  0  0  0  0  0  0
   17.8562  -16.2611  -16.5642 O   0  0  0  0  0  0  0  0  0  0  0  0
   17.9713  -15.2705  -17.3115 C   0  0  0  0  0  0  0  0  0  0  0  0
   19.0260  -16.9523  -16.0430 C   0  0  0  0  0  0  0  0  0  0  0  0
   18.7812  -18.1738  -15.2214 C   0  0  2  0  0  0  0  0  0  0  0  0
   20.0273  -18.7791  -14.7043 N   0  0  0  0  0  0  0  0  0  0  0  0
   20.9522  -19.1204  -15.7829 C   0  0  0  0  0  0  0  0  0  0  0  0
   19.7924  -19.9948  -13.9406 O   0  0  0  0  0  0  0  0  0  0  0  0
   20.2322  -21.1023  -14.3218 O   0  0  0  0  0  0  0  0  0  0  0  0
  2  3  1  0
  2  1  1  0
  4  5  1  0
  4  3  1  0
  5  6  1  6
  7  8  2  0
  7  5  1  0
  9 10  1  0
 10 12  1  0
 11 10  2  0
 12 13  1  0
 13 14  1  0
 14 15  1  0
 16 15  1  1
 16 17  1  0
 17  7  1  0
 18 16  1  0
 19 18  2  0
 20 21  1  0
 21 23  1  0
 21 22  2  0
 23 24  1  0
 25 24  1  1
 25 27  1  0
 25 26  1  0
 26 18  1  0
 27 29  1  0
 28 27  2  0
M  END
$$$$
