MRQ.pdb
     RDKit          3D

 29 28  0  0  1  0  0  0  0  0999 V2000
   23.1971  -16.8549  -17.3440 C   0  0  0  0  0  0  0  0  0  0  0  0
   24.4923  -16.5181  -18.5309 S   0  0  0  0  0  0  0  0  0  0  0  0
   25.8604  -17.6669  -18.5294 C   0  0  0  0  0  0  0  0  0  0  0  0
   25.8744  -18.6259  -17.3968 C   0  0  0  0  0  0  0  0  0  0  0  0
   27.0641  -19.5327  -17.3285 C   0  0  2  0  0  0  0  0  0  0  0  0
   26.9414  -20.4783  -18.4299 N   0  0  0  0  0  0  0  0  0  0  0  0
   27.0836  -20.3250  -16.0653 C   0  0  0  0  0  0  0  0  0  0  0  0
   26.3904  -21.3615  -15.9220 O   0  0  0  0  0  0  0  0  0  0  0  0
   32.2996  -22.4145   -9.3638 N   0  0  0  0  0  0  0  0  0  0  0  0
   32.3340  -22.6085  -10.7772 C   0  0  0  0  0  0  0  0  0  0  0  0
   33.0908  -23.4980  -11.2972 N   0  0  0  0  0  0  0  0  0  0  0  0
   31.5102  -21.7924  -11.5810 N   0  0  0  0  0  0  0  0  0  0  0  0
   30.5988  -20.8543  -10.9179 C   0  0  0  0  0  0  0  0  0  0  0  0
   29.2608  -20.8675  -11.5754 C   0  0  0  0  0  0  0  0  0  0  0  0
   29.2221  -20.6995  -13.0432 C   0  0  0  0  0  0  0  0  0  0  0  0
   27.8960  -20.6823  -13.7178 C   0  0  2  0  0  0  0  0  0  0  0  0
   27.9005  -19.9477  -14.9332 N   0  0  0  0  0  0  0  0  0  0  0  0
   26.8377  -20.1217  -12.7953 C   0  0  0  0  0  0  0  0  0  0  0  0
   26.7825  -18.8772  -12.6273 O   0  0  0  0  0  0  0  0  0  0  0  0
   33.1009  -23.6181  -12.3177 N   0  0  0  0  0  0  0  0  0  0  0  0
   20.8137  -21.3901  -12.4096 C   0  0  0  0  0  0  0  0  0  0  0  0
   21.0541  -20.5613  -11.2858 O   0  0  0  0  0  0  0  0  0  0  0  0
   20.0768  -20.1838  -10.6110 C   0  0  0  0  0  0  0  0  0  0  0  0
   22.4101  -20.1651  -10.9364 C   0  0  0  0  0  0  0  0  0  0  0  0
   23.5108  -20.6777  -11.8038 C   0  0  1  0  0  0  0  0  0  0  0  0
   24.8550  -20.3504  -11.2820 N   0  0  0  0  0  0  0  0  0  0  0  0
   25.9129  -20.9172  -12.1157 C   0  0  0  0  0  0  0  0  0  0  0  0
   25.0709  -20.8355   -9.9275 O   0  0  0  0  0  0  0  0  0  0  0  0
   25.6738  -21.9089   -9.7052 O   0  0  0  0  0  0  0  0  0  0  0  0
  2  3  1  0
  2  1  1  0
  4  5  1  0
  4  3  1  0
  5  6  1  6
  7  8  2  0
  7  5  1  0
  9 10  1  0
 10 12  1  0
 11 10  2  0
 12 13  1  0
 13 14  1  0
 14 15  1  0
 16 15  1  1
 16 17  1  0
 17  7  1  0
 18 16  1  0
 19 18  2  0
 20 21  1  0
 21 23  1  0
 21 22  2  0
 23 24  1  0
 25 24  1  6
 25 27  1  0
 25 26  1  0
 26 18  1  0
 27 29  1  0
 28 27  2  0
M  END
$$$$
