GTL.pdb
     RDKit          3D

 20 19  0  0  1  0  0  0  0  0999 V2000
   20.6666  -10.8061  -20.3878 N   0  0  0  0  0  0  0  0  0  0  0  0
   19.4102  -11.1633  -19.7994 C   0  0  0  0  0  0  0  0  0  0  0  0
   18.7515   -9.9713  -19.2307 C   0  0  0  0  0  0  0  0  0  0  0  0
   18.3480   -9.0177  -19.9202 O   0  0  0  0  0  0  0  0  0  0  0  0
   17.0878  -10.5693  -15.5173 C   0  0  0  0  0  0  0  0  0  0  0  0
   16.6605   -9.4634  -16.4577 C   0  0  1  0  0  0  0  0  0  0  0  0
   15.8874   -8.4997  -15.8085 O   0  0  0  0  0  0  0  0  0  0  0  0
   17.8469   -8.8499  -17.1649 C   0  0  2  0  0  0  0  0  0  0  0  0
   18.5727   -9.9191  -17.8158 N   0  0  0  0  0  0  0  0  0  0  0  0
   18.7239   -8.0923  -16.2033 C   0  0  0  0  0  0  0  0  0  0  0  0
   18.2444   -7.2135  -15.4576 O   0  0  0  0  0  0  0  0  0  0  0  0
   23.3594  -10.6837  -14.4229 C   0  0  0  0  0  0  0  0  0  0  0  0
   22.0266   -9.9647  -14.6036 C   0  0  1  0  0  0  0  0  0  0  0  0
   21.4679   -9.8614  -13.1599 C   0  0  0  0  0  0  0  0  0  0  0  0
   22.3479   -8.6022  -15.1216 C   0  0  0  0  0  0  0  0  0  0  0  0
   21.1349   -7.7467  -15.4378 C   0  0  2  0  0  0  0  0  0  0  0  0
   20.0898   -8.3910  -16.1594 N   0  0  0  0  0  0  0  0  0  0  0  0
   21.4665   -6.3801  -15.8400 C   0  0  0  0  0  0  0  0  0  0  0  0
   21.0104   -5.7439  -16.9869 O   0  0  0  0  0  0  0  0  0  0  0  0
   22.2277   -5.7152  -15.0925 O   0  0  0  0  0  0  0  0  0  0  0  0
  1  2  1  0
  3  4  2  0
  3  2  1  0
  6  5  1  1
  6  7  1  0
  6  8  1  0
  8  9  1  1
  9  3  1  0
 10 11  2  0
 10  8  1  0
 13 14  1  1
 13 12  1  0
 15 13  1  0
 16 15  1  6
 16 17  1  0
 17 10  1  0
 18 16  1  0
 19 18  1  0
 20 18  2  0
M  END
$$$$
