GTL.pdb
     RDKit          3D

 20 19  0  0  1  0  0  0  0  0999 V2000
   17.7620  -15.4094  -16.0113 N   0  0  0  0  0  0  0  0  0  0  0  0
   18.1274  -14.3560  -16.9108 C   0  0  0  0  0  0  0  0  0  0  0  0
   19.0942  -13.4442  -16.2689 C   0  0  0  0  0  0  0  0  0  0  0  0
   19.0170  -13.0927  -15.0781 O   0  0  0  0  0  0  0  0  0  0  0  0
   23.4481  -11.1491  -16.8228 C   0  0  0  0  0  0  0  0  0  0  0  0
   22.3891  -12.1025  -17.3323 C   0  0  1  0  0  0  0  0  0  0  0  0
   22.8327  -13.4257  -17.3205 O   0  0  0  0  0  0  0  0  0  0  0  0
   21.0891  -11.9383  -16.5792 C   0  0  2  0  0  0  0  0  0  0  0  0
   20.1696  -12.9451  -17.0635 N   0  0  0  0  0  0  0  0  0  0  0  0
   20.5298  -10.5507  -16.7513 C   0  0  0  0  0  0  0  0  0  0  0  0
   19.7965  -10.2733  -17.7227 O   0  0  0  0  0  0  0  0  0  0  0  0
   18.5655   -6.1812  -17.2074 C   0  0  0  0  0  0  0  0  0  0  0  0
   18.4308   -6.6229  -15.7538 C   0  0  1  0  0  0  0  0  0  0  0  0
   16.9049   -6.5405  -15.4862 C   0  0  0  0  0  0  0  0  0  0  0  0
   18.8788   -8.0457  -15.7009 C   0  0  0  0  0  0  0  0  0  0  0  0
   20.3850   -8.2316  -15.6935 C   0  0  2  0  0  0  0  0  0  0  0  0
   20.8470   -9.5744  -15.8011 N   0  0  0  0  0  0  0  0  0  0  0  0
   21.0801   -7.3715  -14.7362 C   0  0  0  0  0  0  0  0  0  0  0  0
   21.2475   -5.9986  -14.8592 O   0  0  0  0  0  0  0  0  0  0  0  0
   21.5718   -7.9090  -13.7117 O   0  0  0  0  0  0  0  0  0  0  0  0
  1  2  1  0
  3  4  2  0
  3  2  1  0
  6  5  1  1
  6  7  1  0
  6  8  1  0
  8  9  1  6
  9  3  1  0
 10 11  2  0
 10  8  1  0
 13 14  1  6
 13 12  1  0
 15 13  1  0
 16 15  1  1
 16 17  1  0
 17 10  1  0
 18 16  1  0
 19 18  1  0
 20 18  2  0
M  END
$$$$
