GTL.pdb
     RDKit          3D

 20 19  0  0  1  0  0  0  0  0999 V2000
   13.6499  -13.1384  -16.4225 N   0  0  0  0  0  0  0  0  0  0  0  0
   14.8097  -12.9324  -15.6072 C   0  0  0  0  0  0  0  0  0  0  0  0
   15.6616  -11.8739  -16.1833 C   0  0  0  0  0  0  0  0  0  0  0  0
   16.1351  -11.9259  -17.3326 O   0  0  0  0  0  0  0  0  0  0  0  0
   14.7780   -8.5060  -16.7982 C   0  0  0  0  0  0  0  0  0  0  0  0
   15.9396   -8.3917  -15.8352 C   0  0  1  0  0  0  0  0  0  0  0  0
   15.5167   -8.0502  -14.5497 O   0  0  0  0  0  0  0  0  0  0  0  0
   16.7832   -9.6458  -15.8352 C   0  0  2  0  0  0  0  0  0  0  0  0
   15.9516  -10.7357  -15.3725 N   0  0  0  0  0  0  0  0  0  0  0  0
   18.0072   -9.4804  -14.9736 C   0  0  0  0  0  0  0  0  0  0  0  0
   18.0544   -9.9759  -13.8289 O   0  0  0  0  0  0  0  0  0  0  0  0
   22.5926   -9.9357  -12.9827 C   0  0  0  0  0  0  0  0  0  0  0  0
   22.7008   -9.4153  -14.4123 C   0  0  1  0  0  0  0  0  0  0  0  0
   23.7810  -10.3264  -15.0526 C   0  0  0  0  0  0  0  0  0  0  0  0
   21.3779   -9.6683  -15.0557 C   0  0  0  0  0  0  0  0  0  0  0  0
   20.3783   -8.5363  -14.9058 C   0  0  2  0  0  0  0  0  0  0  0  0
   19.0942   -8.7597  -15.4795 N   0  0  0  0  0  0  0  0  0  0  0  0
   20.9604   -7.2075  -15.0934 C   0  0  0  0  0  0  0  0  0  0  0  0
   21.6286   -6.4753  -14.1212 O   0  0  0  0  0  0  0  0  0  0  0  0
   20.8530   -6.6730  -16.2261 O   0  0  0  0  0  0  0  0  0  0  0  0
  1  2  1  0
  3  4  2  0
  3  2  1  0
  6  5  1  6
  6  7  1  0
  6  8  1  0
  8  9  1  1
  9  3  1  0
 10 11  2  0
 10  8  1  0
 13 14  1  6
 13 12  1  0
 15 13  1  0
 16 15  1  6
 16 17  1  0
 17 10  1  0
 18 16  1  0
 19 18  1  0
 20 18  2  0
M  END
$$$$
