GTL.pdb
     RDKit          3D

 20 19  0  0  1  0  0  0  0  0999 V2000
   14.6051  -11.7116  -15.9154 N   0  0  0  0  0  0  0  0  0  0  0  0
   14.6447  -10.3779  -15.3941 C   0  0  0  0  0  0  0  0  0  0  0  0
   15.8063   -9.6477  -15.9377 C   0  0  0  0  0  0  0  0  0  0  0  0
   16.6078  -10.1436  -16.7497 O   0  0  0  0  0  0  0  0  0  0  0  0
   15.5675   -6.0843  -17.2120 C   0  0  0  0  0  0  0  0  0  0  0  0
   16.6757   -6.1110  -16.1819 C   0  0  1  0  0  0  0  0  0  0  0  0
   16.3045   -5.4627  -15.0030 O   0  0  0  0  0  0  0  0  0  0  0  0
   17.1549   -7.5206  -15.9219 C   0  0  2  0  0  0  0  0  0  0  0  0
   16.0124   -8.3038  -15.5037 N   0  0  0  0  0  0  0  0  0  0  0  0
   18.2488   -7.5432  -14.8871 C   0  0  0  0  0  0  0  0  0  0  0  0
   18.0646   -8.0775  -13.7741 O   0  0  0  0  0  0  0  0  0  0  0  0
   22.6080   -9.8982  -12.9328 C   0  0  0  0  0  0  0  0  0  0  0  0
   22.5753   -8.5363  -13.6186 C   0  0  1  0  0  0  0  0  0  0  0  0
   23.7474   -8.6089  -14.6324 C   0  0  0  0  0  0  0  0  0  0  0  0
   21.2762   -8.4622  -14.3500 C   0  0  0  0  0  0  0  0  0  0  0  0
   20.7280   -7.0572  -14.5186 C   0  0  2  0  0  0  0  0  0  0  0  0
   19.4792   -6.9533  -15.1952 N   0  0  0  0  0  0  0  0  0  0  0  0
   21.7462   -6.0645  -14.8610 C   0  0  0  0  0  0  0  0  0  0  0  0
   22.6571   -5.5050  -13.9749 O   0  0  0  0  0  0  0  0  0  0  0  0
   21.8121   -5.6774  -16.0552 O   0  0  0  0  0  0  0  0  0  0  0  0
  1  2  1  0
  3  4  2  0
  3  2  1  0
  6  5  1  6
  6  7  1  0
  6  8  1  0
  8  9  1  1
  9  3  1  0
 10 11  2  0
 10  8  1  0
 13 14  1  6
 13 12  1  0
 15 13  1  0
 16 15  1  6
 16 17  1  0
 17 10  1  0
 18 16  1  0
 19 18  1  0
 20 18  2  0
M  END
$$$$
