GTL.pdb
     RDKit          3D

 20 19  0  0  1  0  0  0  0  0999 V2000
   22.2679  -21.1548  -18.7168 N   0  0  0  0  0  0  0  0  0  0  0  0
   21.2295  -21.5098  -17.7961 C   0  0  0  0  0  0  0  0  0  0  0  0
   21.4081  -22.8988  -17.3304 C   0  0  0  0  0  0  0  0  0  0  0  0
   22.2702  -23.6693  -17.7895 O   0  0  0  0  0  0  0  0  0  0  0  0
   23.2508  -24.0374  -15.8359 C   0  0  0  0  0  0  0  0  0  0  0  0
   22.1554  -24.3700  -14.8461 C   0  0  1  0  0  0  0  0  0  0  0  0
   22.0715  -23.4209  -13.8262 O   0  0  0  0  0  0  0  0  0  0  0  0
   20.8270  -24.5706  -15.5385 C   0  0  2  0  0  0  0  0  0  0  0  0
   20.5423  -23.3736  -16.3000 N   0  0  0  0  0  0  0  0  0  0  0  0
   19.7336  -24.8673  -14.5464 C   0  0  0  0  0  0  0  0  0  0  0  0
   18.9406  -23.9742  -14.1833 O   0  0  0  0  0  0  0  0  0  0  0  0
   16.7023  -29.4453  -12.7441 C   0  0  0  0  0  0  0  0  0  0  0  0
   17.7308  -28.7001  -11.8998 C   0  0  1  0  0  0  0  0  0  0  0  0
   18.3464  -29.8107  -11.0085 C   0  0  0  0  0  0  0  0  0  0  0  0
   18.7605  -28.1817  -12.8478 C   0  0  0  0  0  0  0  0  0  0  0  0
   18.7217  -26.6795  -13.0596 C   0  0  2  0  0  0  0  0  0  0  0  0
   19.6210  -26.1652  -14.0368 N   0  0  0  0  0  0  0  0  0  0  0  0
   18.5877  -25.9130  -11.8210 C   0  0  0  0  0  0  0  0  0  0  0  0
   17.3886  -25.5176  -11.2433 O   0  0  0  0  0  0  0  0  0  0  0  0
   19.6396  -25.5783  -11.2197 O   0  0  0  0  0  0  0  0  0  0  0  0
  1  2  1  0
  3  4  2  0
  3  2  1  0
  6  5  1  6
  6  7  1  0
  6  8  1  0
  8  9  1  1
  9  3  1  0
 10 11  2  0
 10  8  1  0
 13 14  1  1
 13 12  1  0
 15 13  1  0
 16 15  1  1
 16 17  1  0
 17 10  1  0
 18 16  1  0
 19 18  1  0
 20 18  2  0
M  END
$$$$
