GTL.pdb
     RDKit          3D

 20 19  0  0  1  0  0  0  0  0999 V2000
   18.5523  -19.9418  -11.6052 N   0  0  0  0  0  0  0  0  0  0  0  0
   19.8457  -19.3761  -11.8486 C   0  0  0  0  0  0  0  0  0  0  0  0
   20.8454  -20.4440  -12.0439 C   0  0  0  0  0  0  0  0  0  0  0  0
   20.5975  -21.6521  -11.8803 O   0  0  0  0  0  0  0  0  0  0  0  0
   21.2655  -22.3985  -13.9230 C   0  0  0  0  0  0  0  0  0  0  0  0
   22.5149  -21.6025  -14.2320 C   0  0  1  0  0  0  0  0  0  0  0  0
   22.2844  -20.6328  -15.2089 O   0  0  0  0  0  0  0  0  0  0  0  0
   23.1151  -21.0073  -12.9791 C   0  0  2  0  0  0  0  0  0  0  0  0
   22.1618  -20.0613  -12.4408 N   0  0  0  0  0  0  0  0  0  0  0  0
   24.4407  -20.3529  -13.2665 C   0  0  0  0  0  0  0  0  0  0  0  0
   24.5321  -19.1121  -13.3678 O   0  0  0  0  0  0  0  0  0  0  0  0
   29.3488  -21.5401  -10.8365 C   0  0  0  0  0  0  0  0  0  0  0  0
   28.3666  -20.6712  -11.6153 C   0  0  1  0  0  0  0  0  0  0  0  0
   29.2169  -19.4430  -12.0338 C   0  0  0  0  0  0  0  0  0  0  0  0
   27.9766  -21.4540  -12.8249 C   0  0  0  0  0  0  0  0  0  0  0  0
   26.9200  -20.7915  -13.6896 C   0  0  2  0  0  0  0  0  0  0  0  0
   25.5719  -21.1617  -13.4185 N   0  0  0  0  0  0  0  0  0  0  0  0
   27.2995  -20.6742  -15.0974 C   0  0  0  0  0  0  0  0  0  0  0  0
   28.3707  -19.9376  -15.5850 O   0  0  0  0  0  0  0  0  0  0  0  0
   26.6048  -21.2873  -15.9469 O   0  0  0  0  0  0  0  0  0  0  0  0
  1  2  1  0
  3  4  2  0
  3  2  1  0
  6  5  1  1
  6  7  1  0
  6  8  1  0
  8  9  1  6
  9  3  1  0
 10 11  2  0
 10  8  1  0
 13 14  1  6
 13 12  1  0
 15 13  1  0
 16 15  1  6
 16 17  1  0
 17 10  1  0
 18 16  1  0
 19 18  1  0
 20 18  2  0
M  END
$$$$
