GTL.pdb
     RDKit          3D

 20 19  0  0  1  0  0  0  0  0999 V2000
   27.6309  -21.2516  -17.5171 N   0  0  0  0  0  0  0  0  0  0  0  0
   27.9388  -20.5186  -18.7088 C   0  0  0  0  0  0  0  0  0  0  0  0
   28.7968  -19.3602  -18.3925 C   0  0  0  0  0  0  0  0  0  0  0  0
   29.1602  -19.0723  -17.2381 O   0  0  0  0  0  0  0  0  0  0  0  0
   31.9785  -16.0611  -20.0507 C   0  0  0  0  0  0  0  0  0  0  0  0
   31.0645  -17.2432  -20.2900 C   0  0  1  0  0  0  0  0  0  0  0  0
   31.7741  -18.4432  -20.3560 O   0  0  0  0  0  0  0  0  0  0  0  0
   29.9556  -17.3011  -19.2647 C   0  0  2  0  0  0  0  0  0  0  0  0
   29.2268  -18.5335  -19.4735 N   0  0  0  0  0  0  0  0  0  0  0  0
   29.0522  -16.1007  -19.3692 C   0  0  0  0  0  0  0  0  0  0  0  0
   28.1789  -16.0336  -20.2586 O   0  0  0  0  0  0  0  0  0  0  0  0
   26.6014  -11.9927  -16.6020 C   0  0  0  0  0  0  0  0  0  0  0  0
   28.0249  -11.7023  -17.0664 C   0  0  1  0  0  0  0  0  0  0  0  0
   28.6065  -10.8178  -15.9322 C   0  0  0  0  0  0  0  0  0  0  0  0
   28.7347  -13.0149  -17.1004 C   0  0  0  0  0  0  0  0  0  0  0  0
   28.5443  -13.8004  -18.3849 C   0  0  2  0  0  0  0  0  0  0  0  0
   29.2088  -15.0583  -18.4496 N   0  0  0  0  0  0  0  0  0  0  0  0
   28.5808  -12.9744  -19.5915 C   0  0  0  0  0  0  0  0  0  0  0  0
   27.4726  -12.4507  -20.2440 O   0  0  0  0  0  0  0  0  0  0  0  0
   29.7043  -12.7095  -20.0892 O   0  0  0  0  0  0  0  0  0  0  0  0
  1  2  1  0
  3  4  2  0
  3  2  1  0
  6  5  1  1
  6  7  1  0
  6  8  1  0
  8  9  1  6
  9  3  1  0
 10 11  2  0
 10  8  1  0
 13 14  1  1
 13 12  1  0
 15 13  1  0
 16 15  1  1
 16 17  1  0
 17 10  1  0
 18 16  1  0
 19 18  1  0
 20 18  2  0
M  END
$$$$
