HRS.pdb
     RDKit          3D

 28 28  0  0  1  0  0  0  0  0999 V2000
   17.0675  -12.8562  -14.6008 N   0  0  0  0  0  0  0  0  0  0  0  0
   17.2190  -11.6715  -15.3849 C   0  0  1  0  0  0  0  0  0  0  0  0
   15.9918  -10.8346  -15.3725 C   0  0  0  0  0  0  0  0  0  0  0  0
   14.8627  -11.6032  -15.9551 C   0  0  0  0  0  0  0  0  0  0  0  0
   14.6068  -11.7664  -17.3108 C   0  0  0  0  0  0  0  0  0  0  0  0
   13.5150  -12.5113  -17.4382 N   0  0  0  0  0  0  0  0  0  0  0  0
   13.0562  -12.8350  -16.2294 C   0  0  0  0  0  0  0  0  0  0  0  0
   13.8805  -12.2797  -15.3257 N   0  0  0  0  0  0  0  0  0  0  0  0
   18.4594  -10.9559  -15.0578 C   0  0  0  0  0  0  0  0  0  0  0  0
   18.7386  -10.5625  -13.8840 O   0  0  0  0  0  0  0  0  0  0  0  0
   25.8213  -11.8048  -15.3560 N   0  0  0  0  0  0  0  0  0  0  0  0
   26.2103  -10.6981  -16.1962 C   0  0  0  0  0  0  0  0  0  0  0  0
   27.3779  -10.1805  -16.0375 N   0  0  0  0  0  0  0  0  0  0  0  0
   25.3554  -10.1629  -17.1847 N   0  0  0  0  0  0  0  0  0  0  0  0
   24.0248  -10.6745  -17.4493 C   0  0  0  0  0  0  0  0  0  0  0  0
   23.0993  -10.0761  -16.4095 C   0  0  0  0  0  0  0  0  0  0  0  0
   21.7089  -10.6021  -16.7250 C   0  0  0  0  0  0  0  0  0  0  0  0
   20.7278  -10.0653  -15.7276 C   0  0  2  0  0  0  0  0  0  0  0  0
   19.4202  -10.6624  -16.0485 N   0  0  0  0  0  0  0  0  0  0  0  0
   20.6384   -8.5900  -15.9742 C   0  0  0  0  0  0  0  0  0  0  0  0
   20.1292   -8.1822  -17.0458 O   0  0  0  0  0  0  0  0  0  0  0  0
   27.7137   -9.4360  -16.6597 O   0  0  0  0  0  0  0  0  0  0  0  0
   18.8004   -6.0754  -14.4060 C   0  0  0  0  0  0  0  0  0  0  0  0
   20.1103   -5.6456  -14.2009 C   0  0  2  0  0  0  0  0  0  0  0  0
   20.9593   -6.2446  -15.3043 N   0  0  0  0  0  0  0  0  0  0  0  0
   21.1146   -7.6514  -15.0278 C   0  0  0  0  0  0  0  0  0  0  0  0
   22.3089   -5.6259  -15.3448 O   0  0  0  0  0  0  0  0  0  0  0  0
   22.4398   -4.2561  -15.5700 O   0  0  0  0  0  0  0  0  0  0  0  0
  2  9  1  0
  2  1  1  1
  3  2  1  0
  4  3  1  0
  5  4  2  0
  6  7  1  0
  6  5  1  0
  7  8  2  0
  8  4  1  0
  9 10  2  0
 12 14  1  0
 12 11  1  0
 13 12  2  0
 15 14  1  0
 16 15  1  0
 17 16  1  0
 18 17  1  6
 19  9  1  0
 19 18  1  0
 20 25  1  0
 20 18  1  0
 21 20  2  0
 23 22  1  0
 24 23  1  6
 24 25  1  0
 26 24  1  0
 26 27  1  0
 28 26  2  0
M  END
$$$$
