HRS.pdb
     RDKit          3D

 28 28  0  0  1  0  0  0  0  0999 V2000
   26.4972  -20.3978  -16.5650 N   0  0  0  0  0  0  0  0  0  0  0  0
   25.8412  -21.3026  -15.6751 C   0  0  1  0  0  0  0  0  0  0  0  0
   26.8033  -22.0134  -14.7943 C   0  0  0  0  0  0  0  0  0  0  0  0
   27.7256  -22.8286  -15.6249 C   0  0  0  0  0  0  0  0  0  0  0  0
   29.0248  -22.4812  -15.9731 C   0  0  0  0  0  0  0  0  0  0  0  0
   29.5273  -23.4572  -16.7201 N   0  0  0  0  0  0  0  0  0  0  0  0
   28.6135  -24.4160  -16.8691 C   0  0  0  0  0  0  0  0  0  0  0  0
   27.5146  -24.0301  -16.1996 N   0  0  0  0  0  0  0  0  0  0  0  0
   24.7186  -20.6629  -14.9763 C   0  0  0  0  0  0  0  0  0  0  0  0
   24.8793  -19.7820  -14.0769 O   0  0  0  0  0  0  0  0  0  0  0  0
   21.0430  -16.0442  -17.0054 N   0  0  0  0  0  0  0  0  0  0  0  0
   19.7297  -15.9972  -16.4096 C   0  0  0  0  0  0  0  0  0  0  0  0
   19.2173  -14.8503  -16.1296 N   0  0  0  0  0  0  0  0  0  0  0  0
   18.9882  -17.1642  -16.1221 N   0  0  0  0  0  0  0  0  0  0  0  0
   19.4452  -18.5001  -16.4520 C   0  0  0  0  0  0  0  0  0  0  0  0
   20.2041  -19.0241  -15.2498 C   0  0  0  0  0  0  0  0  0  0  0  0
   21.4611  -19.6820  -15.7944 C   0  0  0  0  0  0  0  0  0  0  0  0
   22.2369  -20.2969  -14.6694 C   0  0  2  0  0  0  0  0  0  0  0  0
   23.3813  -21.0011  -15.2726 N   0  0  0  0  0  0  0  0  0  0  0  0
   21.3376  -21.3203  -14.0455 C   0  0  0  0  0  0  0  0  0  0  0  0
   21.2406  -22.4513  -14.5796 O   0  0  0  0  0  0  0  0  0  0  0  0
   18.2660  -14.7761  -15.7505 O   0  0  0  0  0  0  0  0  0  0  0  0
   18.7477  -22.7639  -10.3160 C   0  0  0  0  0  0  0  0  0  0  0  0
   19.5279  -21.7411  -10.8528 C   0  0  2  0  0  0  0  0  0  0  0  0
   19.7584  -22.0697  -12.3143 N   0  0  0  0  0  0  0  0  0  0  0  0
   20.5985  -21.0386  -12.8716 C   0  0  0  0  0  0  0  0  0  0  0  0
   18.4811  -22.0903  -13.0720 O   0  0  0  0  0  0  0  0  0  0  0  0
   17.7760  -23.2847  -13.2147 O   0  0  0  0  0  0  0  0  0  0  0  0
  2  9  1  0
  2  1  1  1
  3  2  1  0
  4  3  1  0
  5  4  2  0
  6  7  1  0
  6  5  1  0
  7  8  2  0
  8  4  1  0
  9 10  2  0
 12 14  1  0
 12 11  1  0
 13 12  2  0
 15 14  1  0
 16 15  1  0
 17 16  1  0
 18 17  1  6
 19  9  1  0
 19 18  1  0
 20 25  1  0
 20 18  1  0
 21 20  2  0
 23 22  1  0
 24 23  1  1
 24 25  1  0
 26 24  1  0
 26 27  1  0
 28 26  2  0
M  END
$$$$
