HRS.pdb
     RDKit          3D

 28 28  0  0  1  0  0  0  0  0999 V2000
   21.3013  -10.9806  -19.7205 N   0  0  0  0  0  0  0  0  0  0  0  0
   22.0884  -10.4019  -18.6781 C   0  0  1  0  0  0  0  0  0  0  0  0
   23.4973  -10.1878  -19.0974 C   0  0  0  0  0  0  0  0  0  0  0  0
   24.0912  -11.4826  -19.5165 C   0  0  0  0  0  0  0  0  0  0  0  0
   24.3723  -11.8607  -20.8234 C   0  0  0  0  0  0  0  0  0  0  0  0
   24.8923  -13.0823  -20.7972 N   0  0  0  0  0  0  0  0  0  0  0  0
   24.9590  -13.5081  -19.5361 C   0  0  0  0  0  0  0  0  0  0  0  0
   24.4697  -12.5300  -18.7561 N   0  0  0  0  0  0  0  0  0  0  0  0
   21.4332   -9.2272  -18.0877 C   0  0  0  0  0  0  0  0  0  0  0  0
   21.1295   -8.1962  -18.7626 O   0  0  0  0  0  0  0  0  0  0  0  0
   14.6850  -10.9685  -13.7822 N   0  0  0  0  0  0  0  0  0  0  0  0
   14.8543  -10.8863  -15.2127 C   0  0  0  0  0  0  0  0  0  0  0  0
   13.8928  -11.2772  -15.9736 N   0  0  0  0  0  0  0  0  0  0  0  0
   16.0371  -10.3935  -15.8065 N   0  0  0  0  0  0  0  0  0  0  0  0
   17.1428   -9.8462  -15.0448 C   0  0  0  0  0  0  0  0  0  0  0  0
   18.1669   -9.3409  -16.0407 C   0  0  0  0  0  0  0  0  0  0  0  0
   19.2962   -8.7393  -15.2209 C   0  0  0  0  0  0  0  0  0  0  0  0
   20.2962   -8.0973  -16.1338 C   0  0  2  0  0  0  0  0  0  0  0  0
   21.1033   -9.1829  -16.7167 N   0  0  0  0  0  0  0  0  0  0  0  0
   21.1912   -7.2680  -15.2642 C   0  0  0  0  0  0  0  0  0  0  0  0
   22.2447   -7.7787  -14.8132 O   0  0  0  0  0  0  0  0  0  0  0  0
   13.9861  -11.2528  -16.9959 O   0  0  0  0  0  0  0  0  0  0  0  0
   23.9934   -4.1667  -14.6668 C   0  0  0  0  0  0  0  0  0  0  0  0
   23.1005   -5.0946  -15.2003 C   0  0  1  0  0  0  0  0  0  0  0  0
   21.8768   -5.1081  -14.3061 N   0  0  0  0  0  0  0  0  0  0  0  0
   20.8742   -5.9266  -14.9421 C   0  0  0  0  0  0  0  0  0  0  0  0
   21.3205   -3.7423  -14.1300 O   0  0  0  0  0  0  0  0  0  0  0  0
   21.6833   -2.9812  -13.0196 O   0  0  0  0  0  0  0  0  0  0  0  0
  2  9  1  0
  2  1  1  6
  3  2  1  0
  4  3  1  0
  5  4  2  0
  6  7  1  0
  6  5  1  0
  7  8  2  0
  8  4  1  0
  9 10  2  0
 12 14  1  0
 12 11  1  0
 13 12  2  0
 15 14  1  0
 16 15  1  0
 17 16  1  0
 18 17  1  1
 19  9  1  0
 19 18  1  0
 20 25  1  0
 20 18  1  0
 21 20  2  0
 23 22  1  0
 24 23  1  1
 24 25  1  0
 26 24  1  0
 26 27  1  0
 28 26  2  0
M  END
$$$$
