HRS.pdb
     RDKit          3D

 28 28  0  0  1  0  0  0  0  0999 V2000
   23.2764  -22.2036  -15.4041 N   0  0  0  0  0  0  0  0  0  0  0  0
   22.4316  -21.2589  -14.7445 C   0  0  1  0  0  0  0  0  0  0  0  0
   22.1578  -20.0698  -15.5916 C   0  0  0  0  0  0  0  0  0  0  0  0
   23.4389  -19.4042  -15.9392 C   0  0  0  0  0  0  0  0  0  0  0  0
   23.9805  -19.3034  -17.2145 C   0  0  0  0  0  0  0  0  0  0  0  0
   25.1296  -18.6441  -17.1243 N   0  0  0  0  0  0  0  0  0  0  0  0
   25.3530  -18.3159  -15.8520 C   0  0  0  0  0  0  0  0  0  0  0  0
   24.3197  -18.7808  -15.1305 N   0  0  0  0  0  0  0  0  0  0  0  0
   21.2396  -21.8991  -14.1726 C   0  0  0  0  0  0  0  0  0  0  0  0
   20.5235  -22.7236  -14.8192 O   0  0  0  0  0  0  0  0  0  0  0  0
   19.0461  -25.8070   -8.3334 N   0  0  0  0  0  0  0  0  0  0  0  0
   17.9787  -24.9792   -7.8260 C   0  0  0  0  0  0  0  0  0  0  0  0
   16.9246  -25.5476   -7.3548 N   0  0  0  0  0  0  0  0  0  0  0  0
   18.0496  -23.5687   -7.8294 N   0  0  0  0  0  0  0  0  0  0  0  0
   19.0699  -22.8239   -8.5412 C   0  0  0  0  0  0  0  0  0  0  0  0
   18.7821  -22.9713  -10.0215 C   0  0  0  0  0  0  0  0  0  0  0  0
   19.8325  -22.1434  -10.7432 C   0  0  0  0  0  0  0  0  0  0  0  0
   19.6876  -22.3237  -12.2237 C   0  0  2  0  0  0  0  0  0  0  0  0
   20.8210  -21.6249  -12.8535 N   0  0  0  0  0  0  0  0  0  0  0  0
   18.4278  -21.6129  -12.6149 C   0  0  0  0  0  0  0  0  0  0  0  0
   18.3883  -20.3610  -12.5431 O   0  0  0  0  0  0  0  0  0  0  0  0
   16.1724  -24.9934   -6.9290 O   0  0  0  0  0  0  0  0  0  0  0  0
   14.6451  -21.3184  -15.2864 C   0  0  0  0  0  0  0  0  0  0  0  0
   15.7526  -22.0587  -14.8760 C   0  0  2  0  0  0  0  0  0  0  0  0
   16.1286  -21.5762  -13.4893 N   0  0  0  0  0  0  0  0  0  0  0  0
   17.2866  -22.3214  -13.0614 C   0  0  0  0  0  0  0  0  0  0  0  0
   15.0327  -21.8188  -12.5166 O   0  0  0  0  0  0  0  0  0  0  0  0
   13.8403  -21.1034  -12.6192 O   0  0  0  0  0  0  0  0  0  0  0  0
  2  9  1  0
  2  1  1  6
  3  2  1  0
  4  3  1  0
  5  4  2  0
  6  7  1  0
  6  5  1  0
  7  8  2  0
  8  4  1  0
  9 10  2  0
 12 14  1  0
 12 11  1  0
 13 12  2  0
 15 14  1  0
 16 15  1  0
 17 16  1  0
 18 17  1  1
 19  9  1  0
 19 18  1  0
 20 25  1  0
 20 18  1  0
 21 20  2  0
 23 22  1  0
 24 23  1  6
 24 25  1  0
 26 24  1  0
 26 27  1  0
 28 26  2  0
M  END
$$$$
