HRS.pdb
     RDKit          3D

 28 28  0  0  1  0  0  0  0  0999 V2000
   24.4186  -13.9323  -17.7286 N   0  0  0  0  0  0  0  0  0  0  0  0
   24.4521  -13.0588  -16.5986 C   0  0  1  0  0  0  0  0  0  0  0  0
   25.8415  -12.7662  -16.1618 C   0  0  0  0  0  0  0  0  0  0  0  0
   26.5597  -14.0412  -15.9091 C   0  0  0  0  0  0  0  0  0  0  0  0
   26.4213  -14.8401  -14.7811 C   0  0  0  0  0  0  0  0  0  0  0  0
   27.2236  -15.8894  -14.9171 N   0  0  0  0  0  0  0  0  0  0  0  0
   27.8716  -15.8036  -16.0787 C   0  0  0  0  0  0  0  0  0  0  0  0
   27.4646  -14.6747  -16.6825 N   0  0  0  0  0  0  0  0  0  0  0  0
   23.6041  -11.8761  -16.7979 C   0  0  0  0  0  0  0  0  0  0  0  0
   23.6443  -11.1695  -17.8514 O   0  0  0  0  0  0  0  0  0  0  0  0
   15.2260  -10.6095  -14.3145 N   0  0  0  0  0  0  0  0  0  0  0  0
   15.6940   -9.4372  -15.0135 C   0  0  0  0  0  0  0  0  0  0  0  0
   14.8532   -8.5019  -15.2864 N   0  0  0  0  0  0  0  0  0  0  0  0
   17.0406   -9.2808  -15.4092 N   0  0  0  0  0  0  0  0  0  0  0  0
   18.0568  -10.2925  -15.1947 C   0  0  0  0  0  0  0  0  0  0  0  0
   19.3606   -9.7401  -15.7338 C   0  0  0  0  0  0  0  0  0  0  0  0
   20.4019  -10.8270  -15.5240 C   0  0  0  0  0  0  0  0  0  0  0  0
   21.7294  -10.3605  -16.0394 C   0  0  2  0  0  0  0  0  0  0  0  0
   22.6867  -11.4564  -15.8116 N   0  0  0  0  0  0  0  0  0  0  0  0
   22.1342   -9.2030  -15.1782 C   0  0  0  0  0  0  0  0  0  0  0  0
   22.6305   -9.4296  -14.0485 O   0  0  0  0  0  0  0  0  0  0  0  0
   15.1642   -7.6212  -15.7130 O   0  0  0  0  0  0  0  0  0  0  0  0
   22.8028   -5.6604  -16.7443 C   0  0  0  0  0  0  0  0  0  0  0  0
   23.3646   -5.9278  -15.4969 C   0  0  1  0  0  0  0  0  0  0  0  0
   22.3816   -6.7954  -14.7365 N   0  0  0  0  0  0  0  0  0  0  0  0
   21.9687   -7.8654  -15.6107 C   0  0  0  0  0  0  0  0  0  0  0  0
   21.1749   -6.0256  -14.3401 O   0  0  0  0  0  0  0  0  0  0  0  0
   21.2680   -5.0459  -13.3523 O   0  0  0  0  0  0  0  0  0  0  0  0
  2  9  1  0
  2  1  1  6
  3  2  1  0
  4  3  1  0
  5  4  2  0
  6  7  1  0
  6  5  1  0
  7  8  2  0
  8  4  1  0
  9 10  2  0
 12 14  1  0
 12 11  1  0
 13 12  2  0
 15 14  1  0
 16 15  1  0
 17 16  1  0
 18 17  1  1
 19  9  1  0
 19 18  1  0
 20 25  1  0
 20 18  1  0
 21 20  2  0
 23 22  1  0
 24 23  1  1
 24 25  1  0
 26 24  1  0
 26 27  1  0
 28 26  2  0
M  END
$$$$
