HRS.pdb
     RDKit          3D

 28 28  0  0  1  0  0  0  0  0999 V2000
   26.8319  -21.9573  -10.9458 N   0  0  0  0  0  0  0  0  0  0  0  0
   27.0850  -20.5556  -11.0563 C   0  0  1  0  0  0  0  0  0  0  0  0
   28.4814  -20.2731  -11.4770 C   0  0  0  0  0  0  0  0  0  0  0  0
   29.4232  -20.9867  -10.5775 C   0  0  0  0  0  0  0  0  0  0  0  0
   29.5780  -20.7544   -9.2166 C   0  0  0  0  0  0  0  0  0  0  0  0
   30.5099  -21.5826   -8.7597 N   0  0  0  0  0  0  0  0  0  0  0  0
   30.9621  -22.3364   -9.7615 C   0  0  0  0  0  0  0  0  0  0  0  0
   30.2972  -21.9710  -10.8701 N   0  0  0  0  0  0  0  0  0  0  0  0
   26.0509  -19.8751  -11.8471 C   0  0  0  0  0  0  0  0  0  0  0  0
   26.2809  -18.8279  -12.5260 O   0  0  0  0  0  0  0  0  0  0  0  0
   25.8344  -25.1781  -17.2546 N   0  0  0  0  0  0  0  0  0  0  0  0
   25.1113  -25.1520  -16.0062 C   0  0  0  0  0  0  0  0  0  0  0  0
   24.9411  -26.2553  -15.3660 N   0  0  0  0  0  0  0  0  0  0  0  0
   24.5836  -23.9598  -15.4635 N   0  0  0  0  0  0  0  0  0  0  0  0
   24.6980  -22.6691  -16.1141 C   0  0  0  0  0  0  0  0  0  0  0  0
   23.8940  -21.6806  -15.2941 C   0  0  0  0  0  0  0  0  0  0  0  0
   24.6453  -21.5040  -13.9850 C   0  0  0  0  0  0  0  0  0  0  0  0
   23.9662  -20.4613  -13.1500 C   0  0  2  0  0  0  0  0  0  0  0  0
   24.7258  -20.3576  -11.8924 N   0  0  0  0  0  0  0  0  0  0  0  0
   22.6048  -20.9981  -12.8281 C   0  0  0  0  0  0  0  0  0  0  0  0
   22.5076  -22.1294  -12.2945 O   0  0  0  0  0  0  0  0  0  0  0  0
   24.4445  -26.2723  -14.4674 O   0  0  0  0  0  0  0  0  0  0  0  0
   19.4429  -18.6931  -13.5017 C   0  0  0  0  0  0  0  0  0  0  0  0
   19.2736  -19.5223  -12.3942 C   0  0  1  0  0  0  0  0  0  0  0  0
   20.1709  -20.7276  -12.5922 N   0  0  0  0  0  0  0  0  0  0  0  0
   21.4316  -20.2590  -13.1124 C   0  0  0  0  0  0  0  0  0  0  0  0
   19.5883  -21.6807  -13.5710 O   0  0  0  0  0  0  0  0  0  0  0  0
   18.4485  -22.4111  -13.2371 O   0  0  0  0  0  0  0  0  0  0  0  0
  2  9  1  0
  2  1  1  6
  3  2  1  0
  4  3  1  0
  5  4  2  0
  6  7  1  0
  6  5  1  0
  7  8  2  0
  8  4  1  0
  9 10  2  0
 12 14  1  0
 12 11  1  0
 13 12  2  0
 15 14  1  0
 16 15  1  0
 17 16  1  0
 18 17  1  6
 19  9  1  0
 19 18  1  0
 20 25  1  0
 20 18  1  0
 21 20  2  0
 23 22  1  0
 24 23  1  1
 24 25  1  0
 26 24  1  0
 26 27  1  0
 28 26  2  0
M  END
$$$$
