HRS.pdb
     RDKit          3D

 28 28  0  0  1  0  0  0  0  0999 V2000
   25.4746  -22.0680  -14.0168 N   0  0  0  0  0  0  0  0  0  0  0  0
   25.2191  -20.6786  -13.8037 C   0  0  1  0  0  0  0  0  0  0  0  0
   26.2101  -20.0648  -12.8829 C   0  0  0  0  0  0  0  0  0  0  0  0
   25.9389  -20.5136  -11.4936 C   0  0  0  0  0  0  0  0  0  0  0  0
   26.1439  -21.7963  -11.0011 C   0  0  0  0  0  0  0  0  0  0  0  0
   25.7853  -21.8101   -9.7227 N   0  0  0  0  0  0  0  0  0  0  0  0
   25.3595  -20.5976   -9.3691 C   0  0  0  0  0  0  0  0  0  0  0  0
   25.4543  -19.8079  -10.4517 N   0  0  0  0  0  0  0  0  0  0  0  0
   25.0225  -19.9597  -15.0695 C   0  0  0  0  0  0  0  0  0  0  0  0
   25.6303  -20.2702  -16.1395 O   0  0  0  0  0  0  0  0  0  0  0  0
   19.3654  -16.1267  -14.3402 N   0  0  0  0  0  0  0  0  0  0  0  0
   19.5109  -17.4882  -13.8852 C   0  0  0  0  0  0  0  0  0  0  0  0
   19.3095  -17.7504  -12.6414 N   0  0  0  0  0  0  0  0  0  0  0  0
   19.8671  -18.5418  -14.7555 N   0  0  0  0  0  0  0  0  0  0  0  0
   20.0793  -18.3625  -16.1786 C   0  0  0  0  0  0  0  0  0  0  0  0
   21.4611  -18.8965  -16.4969 C   0  0  0  0  0  0  0  0  0  0  0  0
   22.4138  -17.7209  -16.3564 C   0  0  0  0  0  0  0  0  0  0  0  0
   23.8293  -18.2052  -16.4424 C   0  0  2  0  0  0  0  0  0  0  0  0
   24.1342  -18.8676  -15.1627 N   0  0  0  0  0  0  0  0  0  0  0  0
   24.6887  -16.9824  -16.5495 C   0  0  0  0  0  0  0  0  0  0  0  0
   24.7036  -16.1642  -15.5985 O   0  0  0  0  0  0  0  0  0  0  0  0
   19.3499  -18.7153  -12.2927 O   0  0  0  0  0  0  0  0  0  0  0  0
   28.2088  -16.6051  -17.1148 C   0  0  0  0  0  0  0  0  0  0  0  0
   27.6591  -15.8650  -18.1602 C   0  0  2  0  0  0  0  0  0  0  0  0
   26.2405  -15.5088  -17.7631 N   0  0  0  0  0  0  0  0  0  0  0  0
   25.4802  -16.7323  -17.6960 C   0  0  0  0  0  0  0  0  0  0  0  0
   25.6046  -14.6195  -18.7684 O   0  0  0  0  0  0  0  0  0  0  0  0
   26.1719  -13.3791  -19.0580 O   0  0  0  0  0  0  0  0  0  0  0  0
  2  9  1  0
  2  1  1  6
  3  2  1  0
  4  3  1  0
  5  4  2  0
  6  7  1  0
  6  5  1  0
  7  8  2  0
  8  4  1  0
  9 10  2  0
 12 14  1  0
 12 11  1  0
 13 12  2  0
 15 14  1  0
 16 15  1  0
 17 16  1  0
 18 17  1  1
 19  9  1  0
 19 18  1  0
 20 25  1  0
 20 18  1  0
 21 20  2  0
 23 22  1  0
 24 23  1  1
 24 25  1  0
 26 24  1  0
 26 27  1  0
 28 26  2  0
M  END
$$$$
