HRS.pdb
     RDKit          3D

 28 28  0  0  1  0  0  0  0  0999 V2000
   17.5048  -31.5079  -12.2926 N   0  0  0  0  0  0  0  0  0  0  0  0
   17.8880  -30.9825  -11.0205 C   0  0  1  0  0  0  0  0  0  0  0  0
   16.7229  -30.4662  -10.2572 C   0  0  0  0  0  0  0  0  0  0  0  0
   16.2146  -29.2307  -10.9054 C   0  0  0  0  0  0  0  0  0  0  0  0
   15.2436  -29.1760  -11.8973 C   0  0  0  0  0  0  0  0  0  0  0  0
   15.0583  -27.9024  -12.2242 N   0  0  0  0  0  0  0  0  0  0  0  0
   15.8638  -27.1352  -11.4900 C   0  0  0  0  0  0  0  0  0  0  0  0
   16.5685  -27.9482  -10.6857 N   0  0  0  0  0  0  0  0  0  0  0  0
   18.7477  -31.9163  -10.2811 C   0  0  0  0  0  0  0  0  0  0  0  0
   18.5552  -33.1706  -10.2731 O   0  0  0  0  0  0  0  0  0  0  0  0
   27.4744  -32.0439   -9.2350 N   0  0  0  0  0  0  0  0  0  0  0  0
   26.9038  -32.9820   -8.2990 C   0  0  0  0  0  0  0  0  0  0  0  0
   27.6950  -33.7161   -7.5978 N   0  0  0  0  0  0  0  0  0  0  0  0
   25.5094  -33.1236   -8.1262 N   0  0  0  0  0  0  0  0  0  0  0  0
   24.5348  -32.2746   -8.7831 C   0  0  0  0  0  0  0  0  0  0  0  0
   23.1618  -32.7738   -8.3815 C   0  0  0  0  0  0  0  0  0  0  0  0
   22.1596  -31.8932   -9.1091 C   0  0  0  0  0  0  0  0  0  0  0  0
   20.7687  -32.3792   -8.8360 C   0  0  2  0  0  0  0  0  0  0  0  0
   19.8496  -31.4593   -9.5277 N   0  0  0  0  0  0  0  0  0  0  0  0
   20.5513  -32.2317   -7.3608 C   0  0  0  0  0  0  0  0  0  0  0  0
   20.4992  -31.0800   -6.8658 O   0  0  0  0  0  0  0  0  0  0  0  0
   27.3248  -34.4340   -6.9640 O   0  0  0  0  0  0  0  0  0  0  0  0
   17.8658  -33.7359   -5.3339 C   0  0  0  0  0  0  0  0  0  0  0  0
   19.0467  -34.1327   -4.7086 C   0  0  2  0  0  0  0  0  0  0  0  0
   20.1258  -33.1505   -5.1186 N   0  0  0  0  0  0  0  0  0  0  0  0
   20.4045  -33.3594   -6.5180 C   0  0  0  0  0  0  0  0  0  0  0  0
   21.3798  -33.3749   -4.3551 O   0  0  0  0  0  0  0  0  0  0  0  0
   21.4149  -33.1211   -2.9845 O   0  0  0  0  0  0  0  0  0  0  0  0
  2  9  1  0
  2  1  1  6
  3  2  1  0
  4  3  1  0
  5  4  2  0
  6  7  1  0
  6  5  1  0
  7  8  2  0
  8  4  1  0
  9 10  2  0
 12 14  1  0
 12 11  1  0
 13 12  2  0
 15 14  1  0
 16 15  1  0
 17 16  1  0
 18 17  1  1
 19  9  1  0
 19 18  1  0
 20 25  1  0
 20 18  1  0
 21 20  2  0
 23 22  1  0
 24 23  1  6
 24 25  1  0
 26 24  1  0
 26 27  1  0
 28 26  2  0
M  END
$$$$
