SAP.pdb
     RDKit          3D

 19 19  0  0  1  0  0  0  0  0999 V2000
   14.3294   -5.2408   -7.6342 O   0  0  0  0  0  0  0  0  0  0  0  0
   15.4076   -5.6167   -8.4233 C   0  0  0  0  0  0  0  0  0  0  0  0
   15.1023   -6.7894   -9.3073 C   0  0  2  0  0  0  0  0  0  0  0  0
   14.8485   -7.9538   -8.5196 N   0  0  0  0  0  0  0  0  0  0  0  0
   16.2117   -7.0108  -10.2935 C   0  0  0  0  0  0  0  0  0  0  0  0
   17.2695   -7.6006   -9.9578 O   0  0  0  0  0  0  0  0  0  0  0  0
   16.5306   -6.5975  -14.0444 C   0  0  0  0  0  0  0  0  0  0  0  0
   17.0929   -6.7943  -12.6464 C   0  0  2  0  0  0  0  0  0  0  0  0
   16.0994   -6.5614  -11.6322 N   0  0  0  0  0  0  0  0  0  0  0  0
   18.3277   -6.0412  -12.4279 C   0  0  0  0  0  0  0  0  0  0  0  0
   18.2963   -4.8941  -11.9492 O   0  0  0  0  0  0  0  0  0  0  0  0
   19.6196   -6.5999  -12.7584 N   0  0  0  0  0  0  0  0  0  0  0  0
   19.8176   -7.9673  -13.1832 C   0  0  0  0  0  0  0  0  0  0  0  0
   21.3001   -8.2400  -13.0534 C   0  0  0  0  0  0  0  0  0  0  0  0
   21.9010   -6.8648  -13.2695 C   0  0  0  0  0  0  0  0  0  0  0  0
   20.8772   -5.9228  -12.7164 C   0  0  1  0  0  0  0  0  0  0  0  0
   20.8468   -4.6379  -13.4846 C   0  0  0  0  0  0  0  0  0  0  0  0
   20.0171   -4.5269  -14.3980 O   0  0  0  0  0  0  0  0  0  0  0  0
   21.7059   -3.5887  -13.2058 O   0  0  0  0  0  0  0  0  0  0  0  0
  1  2  1  0
  3  2  1  0
  3  4  1  1
  5  6  2  0
  5  3  1  0
  8  7  1  6
  8  9  1  0
  9  5  1  0
 10  8  1  0
 10 12  1  0
 11 10  2  0
 12 16  1  0
 13 12  1  0
 13 14  1  0
 14 15  1  0
 16 15  1  0
 16 17  1  6
 17 19  1  0
 18 17  2  0
M  END
$$$$
