SAP.pdb
     RDKit          3D

 19 19  0  0  1  0  0  0  0  0999 V2000
   19.3049  -15.8520  -18.8604 O   0  0  0  0  0  0  0  0  0  0  0  0
   20.0928  -15.0367  -18.0598 C   0  0  0  0  0  0  0  0  0  0  0  0
   21.3765  -14.6337  -18.7229 C   0  0  2  0  0  0  0  0  0  0  0  0
   22.1697  -15.7858  -19.0132 N   0  0  0  0  0  0  0  0  0  0  0  0
   22.1190  -13.6407  -17.8775 C   0  0  0  0  0  0  0  0  0  0  0  0
   22.7496  -14.0045  -16.8529 O   0  0  0  0  0  0  0  0  0  0  0  0
   23.9268  -10.5969  -18.2715 C   0  0  0  0  0  0  0  0  0  0  0  0
   22.8304  -11.2586  -17.4534 C   0  0  2  0  0  0  0  0  0  0  0  0
   22.1311  -12.2635  -18.2092 N   0  0  0  0  0  0  0  0  0  0  0  0
   21.9380  -10.2866  -16.8222 C   0  0  0  0  0  0  0  0  0  0  0  0
   20.9662   -9.8200  -17.4419 O   0  0  0  0  0  0  0  0  0  0  0  0
   22.1525   -9.8371  -15.4650 N   0  0  0  0  0  0  0  0  0  0  0  0
   23.2250  -10.3144  -14.6215 C   0  0  0  0  0  0  0  0  0  0  0  0
   22.8689   -9.9018  -13.2102 C   0  0  0  0  0  0  0  0  0  0  0  0
   22.0503   -8.6460  -13.4383 C   0  0  0  0  0  0  0  0  0  0  0  0
   21.3655   -8.8838  -14.7482 C   0  0  1  0  0  0  0  0  0  0  0  0
   21.1961   -7.6087  -15.5146 C   0  0  0  0  0  0  0  0  0  0  0  0
   22.0654   -7.3108  -16.3457 O   0  0  0  0  0  0  0  0  0  0  0  0
   20.1126   -6.7685  -15.3229 O   0  0  0  0  0  0  0  0  0  0  0  0
  1  2  1  0
  3  2  1  0
  3  4  1  1
  5  6  2  0
  5  3  1  0
  8  7  1  6
  8  9  1  0
  9  5  1  0
 10  8  1  0
 10 12  1  0
 11 10  2  0
 12 16  1  0
 13 12  1  0
 13 14  1  0
 14 15  1  0
 16 15  1  0
 16 17  1  6
 17 19  1  0
 18 17  2  0
M  END
$$$$
