SAP.pdb
     RDKit          3D

 19 19  0  0  1  0  0  0  0  0999 V2000
   20.2717  -13.2986  -17.4968 O   0  0  0  0  0  0  0  0  0  0  0  0
   20.0545  -13.2408  -16.1271 C   0  0  0  0  0  0  0  0  0  0  0  0
   18.7950  -12.5102  -15.7668 C   0  0  2  0  0  0  0  0  0  0  0  0
   17.6584  -13.1743  -16.3217 N   0  0  0  0  0  0  0  0  0  0  0  0
   18.8734  -11.0759  -16.2013 C   0  0  0  0  0  0  0  0  0  0  0  0
   18.4570  -10.7170  -17.3316 O   0  0  0  0  0  0  0  0  0  0  0  0
   18.1620   -8.0006  -15.6442 C   0  0  0  0  0  0  0  0  0  0  0  0
   19.5152   -8.6902  -15.6948 C   0  0  2  0  0  0  0  0  0  0  0  0
   19.4191  -10.0836  -15.3501 N   0  0  0  0  0  0  0  0  0  0  0  0
   20.5372   -7.9760  -14.9298 C   0  0  0  0  0  0  0  0  0  0  0  0
   20.7378   -8.2440  -13.7322 O   0  0  0  0  0  0  0  0  0  0  0  0
   21.3448   -6.9404  -15.5345 N   0  0  0  0  0  0  0  0  0  0  0  0
   21.2188   -6.5274  -16.9140 C   0  0  0  0  0  0  0  0  0  0  0  0
   22.4639   -5.7289  -17.2318 C   0  0  0  0  0  0  0  0  0  0  0  0
   22.8268   -5.1459  -15.8800 C   0  0  0  0  0  0  0  0  0  0  0  0
   22.3735   -6.1804  -14.8974 C   0  0  1  0  0  0  0  0  0  0  0  0
   21.8978   -5.5520  -13.6242 C   0  0  0  0  0  0  0  0  0  0  0  0
   20.7182   -5.1773  -13.5669 O   0  0  0  0  0  0  0  0  0  0  0  0
   22.7265   -5.3820  -12.5283 O   0  0  0  0  0  0  0  0  0  0  0  0
  1  2  1  0
  3  2  1  0
  3  4  1  6
  5  6  2  0
  5  3  1  0
  8  7  1  1
  8  9  1  0
  9  5  1  0
 10  8  1  0
 10 12  1  0
 11 10  2  0
 12 16  1  0
 13 12  1  0
 13 14  1  0
 14 15  1  0
 16 15  1  0
 16 17  1  1
 17 19  1  0
 18 17  2  0
M  END
$$$$
