SAP.pdb
     RDKit          3D

 19 19  0  0  1  0  0  0  0  0999 V2000
   29.7306  -22.6611  -21.5499 O   0  0  0  0  0  0  0  0  0  0  0  0
   28.7848  -21.9248  -20.8499 C   0  0  0  0  0  0  0  0  0  0  0  0
   29.3769  -21.1470  -19.7122 C   0  0  2  0  0  0  0  0  0  0  0  0
   30.2588  -20.1372  -20.2053 N   0  0  0  0  0  0  0  0  0  0  0  0
   30.0627  -22.0661  -18.7441 C   0  0  0  0  0  0  0  0  0  0  0  0
   31.3141  -22.0683  -18.6276 O   0  0  0  0  0  0  0  0  0  0  0  0
   28.8631  -24.5491  -16.1251 C   0  0  0  0  0  0  0  0  0  0  0  0
   29.9103  -23.8836  -17.0024 C   0  0  2  0  0  0  0  0  0  0  0  0
   29.3198  -22.9586  -17.9327 N   0  0  0  0  0  0  0  0  0  0  0  0
   30.8043  -24.8504  -17.6393 C   0  0  0  0  0  0  0  0  0  0  0  0
   30.6062  -25.2251  -18.8083 O   0  0  0  0  0  0  0  0  0  0  0  0
   31.9421  -25.4008  -16.9375 N   0  0  0  0  0  0  0  0  0  0  0  0
   32.3533  -24.9765  -15.6182 C   0  0  0  0  0  0  0  0  0  0  0  0
   33.7588  -25.5014  -15.4239 C   0  0  0  0  0  0  0  0  0  0  0  0
   33.7606  -26.7462  -16.2898 C   0  0  0  0  0  0  0  0  0  0  0  0
   32.8275  -26.4164  -17.4132 C   0  0  1  0  0  0  0  0  0  0  0  0
   32.0864  -27.6306  -17.8808 C   0  0  0  0  0  0  0  0  0  0  0  0
   30.9335  -27.8045  -17.4616 O   0  0  0  0  0  0  0  0  0  0  0  0
   32.6453  -28.5478  -18.7543 O   0  0  0  0  0  0  0  0  0  0  0  0
  1  2  1  0
  3  2  1  0
  3  4  1  6
  5  6  2  0
  5  3  1  0
  8  7  1  6
  8  9  1  0
  9  5  1  0
 10  8  1  0
 10 12  1  0
 11 10  2  0
 12 16  1  0
 13 12  1  0
 13 14  1  0
 14 15  1  0
 16 15  1  0
 16 17  1  1
 17 19  1  0
 18 17  2  0
M  END
$$$$
