SAP.pdb
     RDKit          3D

 19 19  0  0  1  0  0  0  0  0999 V2000
   14.1234   -4.8595   -8.2780 O   0  0  0  0  0  0  0  0  0  0  0  0
   15.2251   -5.4207   -8.9086 C   0  0  0  0  0  0  0  0  0  0  0  0
   14.9852   -6.8327   -9.3544 C   0  0  2  0  0  0  0  0  0  0  0  0
   14.7962   -7.6860   -8.2245 N   0  0  0  0  0  0  0  0  0  0  0  0
   16.1052   -7.3067  -10.2336 C   0  0  0  0  0  0  0  0  0  0  0  0
   17.1985   -7.6860   -9.7432 O   0  0  0  0  0  0  0  0  0  0  0  0
   16.4957   -8.0767  -13.9189 C   0  0  0  0  0  0  0  0  0  0  0  0
   17.0262   -7.6785  -12.5517 C   0  0  2  0  0  0  0  0  0  0  0  0
   15.9634   -7.3409  -11.6427 N   0  0  0  0  0  0  0  0  0  0  0  0
   18.0652   -6.6519  -12.6310 C   0  0  0  0  0  0  0  0  0  0  0  0
   17.7763   -5.4464  -12.5335 O   0  0  0  0  0  0  0  0  0  0  0  0
   19.4551   -6.9997  -12.8241 N   0  0  0  0  0  0  0  0  0  0  0  0
   19.9550   -8.3557  -12.7915 C   0  0  0  0  0  0  0  0  0  0  0  0
   21.4577   -8.2493  -12.6517 C   0  0  0  0  0  0  0  0  0  0  0  0
   21.7517   -6.9258  -13.3306 C   0  0  0  0  0  0  0  0  0  0  0  0
   20.5349   -6.0952  -13.0643 C   0  0  1  0  0  0  0  0  0  0  0  0
   20.2460   -5.1695  -14.2052 C   0  0  0  0  0  0  0  0  0  0  0  0
   19.5059   -5.5777  -15.1111 O   0  0  0  0  0  0  0  0  0  0  0  0
   20.7744   -3.8917  -14.2733 O   0  0  0  0  0  0  0  0  0  0  0  0
  1  2  1  0
  3  2  1  0
  3  4  1  1
  5  6  2  0
  5  3  1  0
  8  7  1  6
  8  9  1  0
  9  5  1  0
 10  8  1  0
 10 12  1  0
 11 10  2  0
 12 16  1  0
 13 12  1  0
 13 14  1  0
 14 15  1  0
 16 15  1  0
 16 17  1  6
 17 19  1  0
 18 17  2  0
M  END
$$$$
