SAP.pdb
     RDKit          3D

 19 19  0  0  1  0  0  0  0  0999 V2000
   19.5914  -23.4472  -12.0353 O   0  0  0  0  0  0  0  0  0  0  0  0
   18.9649  -23.7831  -10.8432 C   0  0  0  0  0  0  0  0  0  0  0  0
   17.5525  -24.2493  -11.0380 C   0  0  2  0  0  0  0  0  0  0  0  0
   16.7619  -23.2118  -11.6204 N   0  0  0  0  0  0  0  0  0  0  0  0
   16.9729  -24.7351   -9.7418 C   0  0  0  0  0  0  0  0  0  0  0  0
   16.4195  -23.9403   -8.9407 O   0  0  0  0  0  0  0  0  0  0  0  0
   16.2616  -28.1338   -8.2458 C   0  0  0  0  0  0  0  0  0  0  0  0
   16.5117  -26.6378   -8.1522 C   0  0  2  0  0  0  0  0  0  0  0  0
   17.0322  -26.1041   -9.3826 N   0  0  0  0  0  0  0  0  0  0  0  0
   17.3116  -26.2755   -6.9824 C   0  0  0  0  0  0  0  0  0  0  0  0
   18.5516  -26.2166   -7.0537 O   0  0  0  0  0  0  0  0  0  0  0  0
   16.6934  -25.9750   -5.7104 N   0  0  0  0  0  0  0  0  0  0  0  0
   15.2636  -25.9483   -5.4995 C   0  0  0  0  0  0  0  0  0  0  0  0
   15.0434  -25.2362   -4.1830 C   0  0  0  0  0  0  0  0  0  0  0  0
   16.3170  -25.5580   -3.4255 C   0  0  0  0  0  0  0  0  0  0  0  0
   17.3651  -25.6574   -4.4899 C   0  0  1  0  0  0  0  0  0  0  0  0
   18.4025  -26.6790   -4.1400 C   0  0  0  0  0  0  0  0  0  0  0  0
   18.1812  -27.8593   -4.4447 O   0  0  0  0  0  0  0  0  0  0  0  0
   19.5821  -26.3453   -3.4967 O   0  0  0  0  0  0  0  0  0  0  0  0
  1  2  1  0
  3  2  1  0
  3  4  1  1
  5  6  2  0
  5  3  1  0
  8  7  1  6
  8  9  1  0
  9  5  1  0
 10  8  1  0
 10 12  1  0
 11 10  2  0
 12 16  1  0
 13 12  1  0
 13 14  1  0
 14 15  1  0
 16 15  1  0
 16 17  1  1
 17 19  1  0
 18 17  2  0
M  END
$$$$
