DVT.pdb
     RDKit          3D

 23 22  0  0  1  0  0  0  0  0999 V2000
   19.5803  -13.6122  -15.8061 N   0  0  0  0  0  0  0  0  0  0  0  0
   19.2052  -12.3608  -16.4158 C   0  0  1  0  0  0  0  0  0  0  0  0
   17.7141  -12.4255  -16.6956 C   0  0  0  0  0  0  0  0  0  0  0  0
   17.5401  -13.1899  -17.9466 C   0  0  0  0  0  0  0  0  0  0  0  0
   18.3958  -14.0059  -18.3506 O   0  0  0  0  0  0  0  0  0  0  0  0
   19.5526  -11.2050  -15.5570 C   0  0  0  0  0  0  0  0  0  0  0  0
   19.1046  -11.2273  -14.3651 O   0  0  0  0  0  0  0  0  0  0  0  0
   16.3998  -13.0116  -18.7116 O   0  0  0  0  0  0  0  0  0  0  0  0
   22.8702   -8.8467  -16.0447 C   0  0  0  0  0  0  0  0  0  0  0  0
   22.0531   -8.9235  -14.7919 C   0  0  2  0  0  0  0  0  0  0  0  0
   22.4660  -10.1427  -13.9949 C   0  0  0  0  0  0  0  0  0  0  0  0
   20.5607   -8.9947  -15.1340 C   0  0  2  0  0  0  0  0  0  0  0  0
   20.3427  -10.1238  -16.0294 N   0  0  0  0  0  0  0  0  0  0  0  0
   20.1692   -7.7011  -15.7338 C   0  0  0  0  0  0  0  0  0  0  0  0
   20.4829   -7.4628  -16.9292 O   0  0  0  0  0  0  0  0  0  0  0  0
   16.9474   -6.4136  -16.5164 C   0  0  0  0  0  0  0  0  0  0  0  0
   17.5747   -5.3211  -15.6716 C   0  0  1  0  0  0  0  0  0  0  0  0
   17.2179   -5.5454  -14.3458 O   0  0  0  0  0  0  0  0  0  0  0  0
   19.0980   -5.4857  -15.7195 C   0  0  2  0  0  0  0  0  0  0  0  0
   19.4413   -6.7107  -14.9994 N   0  0  0  0  0  0  0  0  0  0  0  0
   19.8071   -4.3619  -15.1249 C   0  0  0  0  0  0  0  0  0  0  0  0
   20.5199   -4.4996  -14.0858 O   0  0  0  0  0  0  0  0  0  0  0  0
   19.7599   -3.0727  -15.6374 O   0  0  0  0  0  0  0  0  0  0  0  0
  2  1  1  1
  2  3  1  0
  3  4  1  0
  4  8  1  0
  5  4  2  0
  6  2  1  0
  6 13  1  0
  7  6  2  0
 10  9  1  6
 10 12  1  0
 11 10  1  0
 12 13  1  6
 12 14  1  0
 14 15  2  0
 17 16  1  6
 17 19  1  0
 17 18  1  0
 19 21  1  0
 20 14  1  0
 19 20  1  1
 21 23  1  0
 22 21  2  0
M  END
$$$$
