DVT.pdb
     RDKit          3D

 23 22  0  0  1  0  0  0  0  0999 V2000
   18.5470  -14.3606  -17.4223 N   0  0  0  0  0  0  0  0  0  0  0  0
   18.9976  -13.0905  -17.9346 C   0  0  1  0  0  0  0  0  0  0  0  0
   17.8078  -12.4287  -18.6070 C   0  0  0  0  0  0  0  0  0  0  0  0
   17.4587  -13.2532  -19.7809 C   0  0  0  0  0  0  0  0  0  0  0  0
   18.3301  -13.7586  -20.5201 O   0  0  0  0  0  0  0  0  0  0  0  0
   19.5682  -12.2379  -16.8662 C   0  0  0  0  0  0  0  0  0  0  0  0
   18.8459  -12.0626  -15.8321 O   0  0  0  0  0  0  0  0  0  0  0  0
   16.1293  -13.4857  -20.0905 O   0  0  0  0  0  0  0  0  0  0  0  0
   22.9534  -12.6224  -15.2725 C   0  0  0  0  0  0  0  0  0  0  0  0
   22.8050  -11.1721  -15.6153 C   0  0  2  0  0  0  0  0  0  0  0  0
   23.3498  -10.3282  -14.4825 C   0  0  0  0  0  0  0  0  0  0  0  0
   21.3315  -10.8333  -15.8669 C   0  0  2  0  0  0  0  0  0  0  0  0
   20.8523  -11.6425  -16.9804 N   0  0  0  0  0  0  0  0  0  0  0  0
   21.2369   -9.3811  -16.1288 C   0  0  0  0  0  0  0  0  0  0  0  0
   21.9624   -8.8738  -17.0236 O   0  0  0  0  0  0  0  0  0  0  0  0
   18.4569   -7.5216  -17.3639 C   0  0  0  0  0  0  0  0  0  0  0  0
   18.8729   -6.7504  -16.1258 C   0  0  1  0  0  0  0  0  0  0  0  0
   18.1102   -7.2102  -15.0571 O   0  0  0  0  0  0  0  0  0  0  0  0
   20.3206   -7.1230  -15.7863 C   0  0  2  0  0  0  0  0  0  0  0  0
   20.3437   -8.5326  -15.3993 N   0  0  0  0  0  0  0  0  0  0  0  0
   20.8735   -6.3174  -14.7072 C   0  0  0  0  0  0  0  0  0  0  0  0
   21.1340   -6.8157  -13.5711 O   0  0  0  0  0  0  0  0  0  0  0  0
   21.1540   -4.9637  -14.8323 O   0  0  0  0  0  0  0  0  0  0  0  0
  2  1  1  1
  2  3  1  0
  3  4  1  0
  4  8  1  0
  5  4  2  0
  6  2  1  0
  6 13  1  0
  7  6  2  0
 10  9  1  1
 10 12  1  0
 11 10  1  0
 12 13  1  6
 12 14  1  0
 14 15  2  0
 17 16  1  6
 17 19  1  0
 17 18  1  0
 19 21  1  0
 20 14  1  0
 19 20  1  1
 21 23  1  0
 22 21  2  0
M  END
$$$$
