DVT.pdb
     RDKit          3D

 23 22  0  0  1  0  0  0  0  0999 V2000
   17.4031  -11.5168  -16.9816 N   0  0  0  0  0  0  0  0  0  0  0  0
   18.2381  -10.4208  -17.4061 C   0  0  1  0  0  0  0  0  0  0  0  0
   17.3181   -9.3236  -17.9115 C   0  0  0  0  0  0  0  0  0  0  0  0
   16.7764   -9.7746  -19.2086 C   0  0  0  0  0  0  0  0  0  0  0  0
   15.5506   -9.7791  -19.4508 O   0  0  0  0  0  0  0  0  0  0  0  0
   19.1143   -9.9416  -16.3121 C   0  0  0  0  0  0  0  0  0  0  0  0
   18.5613   -9.7581  -15.1797 O   0  0  0  0  0  0  0  0  0  0  0  0
   17.6369  -10.2107  -20.2020 O   0  0  0  0  0  0  0  0  0  0  0  0
   22.2121  -11.5080  -15.0034 C   0  0  0  0  0  0  0  0  0  0  0  0
   22.5545  -10.0746  -15.2693 C   0  0  2  0  0  0  0  0  0  0  0  0
   23.4425   -9.5542  -14.1590 C   0  0  0  0  0  0  0  0  0  0  0  0
   21.2778   -9.2319  -15.3653 C   0  0  2  0  0  0  0  0  0  0  0  0
   20.4993   -9.6962  -16.5067 N   0  0  0  0  0  0  0  0  0  0  0  0
   21.6769   -7.8128  -15.4804 C   0  0  0  0  0  0  0  0  0  0  0  0
   22.5433   -7.4898  -16.3343 O   0  0  0  0  0  0  0  0  0  0  0  0
   19.8277   -5.0809  -16.6058 C   0  0  0  0  0  0  0  0  0  0  0  0
   20.3614   -4.5743  -15.2795 C   0  0  1  0  0  0  0  0  0  0  0  0
   19.3999   -4.8250  -14.3059 O   0  0  0  0  0  0  0  0  0  0  0  0
   21.5736   -5.4267  -14.8874 C   0  0  2  0  0  0  0  0  0  0  0  0
   21.1070   -6.7923  -14.6535 N   0  0  0  0  0  0  0  0  0  0  0  0
   22.2474   -4.9362  -13.6938 C   0  0  0  0  0  0  0  0  0  0  0  0
   22.9253   -3.8651  -13.7051 O   0  0  0  0  0  0  0  0  0  0  0  0
   22.2037   -5.5898  -12.4699 O   0  0  0  0  0  0  0  0  0  0  0  0
  2  1  1  1
  2  3  1  0
  3  4  1  0
  4  8  1  0
  5  4  2  0
  6  2  1  0
  6 13  1  0
  7  6  2  0
 10  9  1  1
 10 12  1  0
 11 10  1  0
 12 13  1  6
 12 14  1  0
 14 15  2  0
 17 16  1  6
 17 19  1  0
 17 18  1  0
 19 21  1  0
 20 14  1  0
 19 20  1  1
 21 23  1  0
 22 21  2  0
M  END
$$$$
