DVT.pdb
     RDKit          3D

 23 22  0  0  1  0  0  0  0  0999 V2000
   20.9670  -12.5238  -17.4371 N   0  0  0  0  0  0  0  0  0  0  0  0
   21.2212  -11.1707  -17.8649 C   0  0  1  0  0  0  0  0  0  0  0  0
   20.5801  -11.0025  -19.2311 C   0  0  0  0  0  0  0  0  0  0  0  0
   21.4313  -11.7193  -20.2012 C   0  0  0  0  0  0  0  0  0  0  0  0
   22.3997  -11.1697  -20.7680 O   0  0  0  0  0  0  0  0  0  0  0  0
   20.7060  -10.1804  -16.8913 C   0  0  0  0  0  0  0  0  0  0  0  0
   19.4803  -10.2902  -16.5632 O   0  0  0  0  0  0  0  0  0  0  0  0
   21.1650  -13.0433  -20.5072 O   0  0  0  0  0  0  0  0  0  0  0  0
   22.3431   -9.5413  -13.6286 C   0  0  0  0  0  0  0  0  0  0  0  0
   20.9545   -9.1108  -13.9880 C   0  0  2  0  0  0  0  0  0  0  0  0
   20.0680  -10.3306  -14.1241 C   0  0  0  0  0  0  0  0  0  0  0  0
   20.9667   -8.3160  -15.2985 C   0  0  2  0  0  0  0  0  0  0  0  0
   21.5279   -9.1581  -16.3474 N   0  0  0  0  0  0  0  0  0  0  0  0
   21.7471   -7.0803  -15.0740 C   0  0  0  0  0  0  0  0  0  0  0  0
   23.0014   -7.1552  -15.0025 O   0  0  0  0  0  0  0  0  0  0  0  0
   21.4780   -4.1284  -17.2650 C   0  0  0  0  0  0  0  0  0  0  0  0
   21.4406   -3.5788  -15.8518 C   0  0  1  0  0  0  0  0  0  0  0  0
   20.1072   -3.4302  -15.4840 O   0  0  0  0  0  0  0  0  0  0  0  0
   22.0114   -4.6396  -14.9038 C   0  0  2  0  0  0  0  0  0  0  0  0
   21.1220   -5.7993  -14.9381 N   0  0  0  0  0  0  0  0  0  0  0  0
   22.1334   -4.1658  -13.5328 C   0  0  0  0  0  0  0  0  0  0  0  0
   21.4850   -4.7004  -12.5838 O   0  0  0  0  0  0  0  0  0  0  0  0
   22.9534   -3.1093  -13.1608 O   0  0  0  0  0  0  0  0  0  0  0  0
  2  1  1  1
  2  3  1  0
  3  4  1  0
  4  8  1  0
  5  4  2  0
  6  2  1  0
  6 13  1  0
  7  6  2  0
 10  9  1  6
 10 12  1  0
 11 10  1  0
 12 13  1  6
 12 14  1  0
 14 15  2  0
 17 16  1  6
 17 19  1  0
 17 18  1  0
 19 21  1  0
 20 14  1  0
 19 20  1  1
 21 23  1  0
 22 21  2  0
M  END
$$$$
