DVT.pdb
     RDKit          3D

 23 22  0  0  1  0  0  0  0  0999 V2000
   16.6266  -13.9318  -17.9843 N   0  0  0  0  0  0  0  0  0  0  0  0
   16.7884  -13.1151  -16.8073 C   0  0  1  0  0  0  0  0  0  0  0  0
   17.4285  -13.9854  -15.7402 C   0  0  0  0  0  0  0  0  0  0  0  0
   16.3382  -14.7170  -15.0653 C   0  0  0  0  0  0  0  0  0  0  0  0
   15.1386  -14.5550  -15.3752 O   0  0  0  0  0  0  0  0  0  0  0  0
   17.5956  -11.9045  -17.0850 C   0  0  0  0  0  0  0  0  0  0  0  0
   18.5248  -12.0261  -17.9473 O   0  0  0  0  0  0  0  0  0  0  0  0
   16.6325  -15.6157  -14.0539 O   0  0  0  0  0  0  0  0  0  0  0  0
   16.3413   -8.6615  -18.3681 C   0  0  0  0  0  0  0  0  0  0  0  0
   17.1527   -8.3578  -17.1466 C   0  0  2  0  0  0  0  0  0  0  0  0
   17.9169   -7.0678  -17.3571 C   0  0  0  0  0  0  0  0  0  0  0  0
   18.1237   -9.5070  -16.8539 C   0  0  2  0  0  0  0  0  0  0  0  0
   17.3537  -10.6689  -16.4283 N   0  0  0  0  0  0  0  0  0  0  0  0
   19.0808   -9.0434  -15.8264 C   0  0  0  0  0  0  0  0  0  0  0  0
   18.6452   -8.7052  -14.6951 O   0  0  0  0  0  0  0  0  0  0  0  0
   22.5261  -10.7395  -14.8629 C   0  0  0  0  0  0  0  0  0  0  0  0
   22.6951   -9.2538  -15.1173 C   0  0  1  0  0  0  0  0  0  0  0  0
   23.0320   -9.0830  -16.4562 O   0  0  0  0  0  0  0  0  0  0  0  0
   21.3312   -8.5748  -14.9481 C   0  0  2  0  0  0  0  0  0  0  0  0
   20.4888   -8.9697  -16.0756 N   0  0  0  0  0  0  0  0  0  0  0  0
   21.4245   -7.1228  -14.9009 C   0  0  0  0  0  0  0  0  0  0  0  0
   22.0215   -6.5247  -13.9561 O   0  0  0  0  0  0  0  0  0  0  0  0
   20.8767   -6.2913  -15.8681 O   0  0  0  0  0  0  0  0  0  0  0  0
  2  1  1  6
  2  3  1  0
  3  4  1  0
  4  8  1  0
  5  4  2  0
  6  2  1  0
  6 13  1  0
  7  6  2  0
 10  9  1  6
 10 12  1  0
 11 10  1  0
 12 13  1  1
 12 14  1  0
 14 15  2  0
 17 16  1  6
 17 19  1  0
 17 18  1  0
 19 21  1  0
 20 14  1  0
 19 20  1  6
 21 23  1  0
 22 21  2  0
M  END
$$$$
