DVT.pdb
     RDKit          3D

 23 22  0  0  1  0  0  0  0  0999 V2000
   16.8138  -10.1466  -13.9203 N   0  0  0  0  0  0  0  0  0  0  0  0
   17.3544   -8.9502  -13.3246 C   0  0  1  0  0  0  0  0  0  0  0  0
   17.9855   -8.1371  -14.4411 C   0  0  0  0  0  0  0  0  0  0  0  0
   19.2012   -8.8573  -14.8686 C   0  0  0  0  0  0  0  0  0  0  0  0
   19.2213   -9.5792  -15.8883 O   0  0  0  0  0  0  0  0  0  0  0  0
   16.3165   -8.1782  -12.6029 C   0  0  0  0  0  0  0  0  0  0  0  0
   15.1544   -8.1628  -13.1235 O   0  0  0  0  0  0  0  0  0  0  0  0
   20.3669   -8.7431  -14.1301 O   0  0  0  0  0  0  0  0  0  0  0  0
   16.2560   -7.5250   -8.5317 C   0  0  0  0  0  0  0  0  0  0  0  0
   15.0987   -7.4580   -9.4799 C   0  0  2  0  0  0  0  0  0  0  0  0
   14.6206   -8.8603   -9.7915 C   0  0  0  0  0  0  0  0  0  0  0  0
   15.5093   -6.7395  -10.7700 C   0  0  2  0  0  0  0  0  0  0  0  0
   16.5937   -7.4876  -11.3935 N   0  0  0  0  0  0  0  0  0  0  0  0
   15.8935   -5.3558  -10.4176 C   0  0  0  0  0  0  0  0  0  0  0  0
   17.0490   -5.1389   -9.9682 O   0  0  0  0  0  0  0  0  0  0  0  0
   15.4383   -2.2469  -12.6772 C   0  0  0  0  0  0  0  0  0  0  0  0
   14.9044   -1.9407  -11.2909 C   0  0  1  0  0  0  0  0  0  0  0  0
   13.5433   -2.2283  -11.2818 O   0  0  0  0  0  0  0  0  0  0  0  0
   15.5376   -2.9237  -10.2995 C   0  0  2  0  0  0  0  0  0  0  0  0
   14.9942   -4.2527  -10.5742 N   0  0  0  0  0  0  0  0  0  0  0  0
   15.2764   -2.5732   -8.9110 C   0  0  0  0  0  0  0  0  0  0  0  0
   14.5646   -3.3075   -8.1620 O   0  0  0  0  0  0  0  0  0  0  0  0
   15.7754   -1.4276   -8.3064 O   0  0  0  0  0  0  0  0  0  0  0  0
  2  1  1  6
  2  3  1  0
  3  4  1  0
  4  8  1  0
  5  4  2  0
  6  2  1  0
  6 13  1  0
  7  6  2  0
 10  9  1  1
 10 12  1  0
 11 10  1  0
 12 13  1  1
 12 14  1  0
 14 15  2  0
 17 16  1  6
 17 19  1  0
 17 18  1  0
 19 21  1  0
 20 14  1  0
 19 20  1  6
 21 23  1  0
 22 21  2  0
M  END
$$$$
