DVT.pdb
     RDKit          3D

 23 22  0  0  1  0  0  0  0  0999 V2000
   17.9915  -12.4180  -16.9842 N   0  0  0  0  0  0  0  0  0  0  0  0
   18.6879  -11.2423  -17.4440 C   0  0  1  0  0  0  0  0  0  0  0  0
   17.6508  -10.3132  -18.0500 C   0  0  0  0  0  0  0  0  0  0  0  0
   17.3436  -10.8269  -19.3995 C   0  0  0  0  0  0  0  0  0  0  0  0
   17.8913  -11.8510  -19.8607 O   0  0  0  0  0  0  0  0  0  0  0  0
   19.4400  -10.5858  -16.3497 C   0  0  0  0  0  0  0  0  0  0  0  0
   18.8624  -10.5309  -15.2161 O   0  0  0  0  0  0  0  0  0  0  0  0
   16.4226  -10.1677  -20.1960 O   0  0  0  0  0  0  0  0  0  0  0  0
   22.6918  -11.6370  -15.1163 C   0  0  0  0  0  0  0  0  0  0  0  0
   22.8219  -10.1570  -15.3047 C   0  0  2  0  0  0  0  0  0  0  0  0
   23.6102   -9.5698  -14.1532 C   0  0  0  0  0  0  0  0  0  0  0  0
   21.4360   -9.5072  -15.3837 C   0  0  2  0  0  0  0  0  0  0  0  0
   20.7373  -10.0427  -16.5454 N   0  0  0  0  0  0  0  0  0  0  0  0
   21.6236   -8.0420  -15.4504 C   0  0  0  0  0  0  0  0  0  0  0  0
   22.2395   -7.5496  -16.4314 O   0  0  0  0  0  0  0  0  0  0  0  0
   20.2676   -3.5124  -14.4866 C   0  0  0  0  0  0  0  0  0  0  0  0
   20.0314   -5.0039  -14.3440 C   0  0  1  0  0  0  0  0  0  0  0  0
   19.1505   -5.3969  -15.3464 O   0  0  0  0  0  0  0  0  0  0  0  0
   21.3457   -5.7337  -14.6441 C   0  0  2  0  0  0  0  0  0  0  0  0
   21.1243   -7.1636  -14.4360 N   0  0  0  0  0  0  0  0  0  0  0  0
   22.4452   -5.2880  -13.8006 C   0  0  0  0  0  0  0  0  0  0  0  0
   23.1937   -4.3222  -14.1381 O   0  0  0  0  0  0  0  0  0  0  0  0
   22.7579   -5.8742  -12.5817 O   0  0  0  0  0  0  0  0  0  0  0  0
  2  1  1  1
  2  3  1  0
  3  4  1  0
  4  8  1  0
  5  4  2  0
  6  2  1  0
  6 13  1  0
  7  6  2  0
 10  9  1  1
 10 12  1  0
 11 10  1  0
 12 13  1  6
 12 14  1  0
 14 15  2  0
 17 16  1  6
 17 19  1  0
 17 18  1  0
 19 21  1  0
 20 14  1  0
 19 20  1  1
 21 23  1  0
 22 21  2  0
M  END
$$$$
