VHV.pdb
     RDKit          3D

 25 25  0  0  1  0  0  0  0  0999 V2000
   25.7996  -15.7975  -17.8440 C   0  0  0  0  0  0  0  0  0  0  0  0
   26.8906  -16.7723  -18.1897 C   0  0  1  0  0  0  0  0  0  0  0  0
   28.2232  -16.0545  -18.2250 C   0  0  0  0  0  0  0  0  0  0  0  0
   27.0002  -17.8621  -17.1425 C   0  0  2  0  0  0  0  0  0  0  0  0
   28.1359  -18.7480  -17.5115 N   0  0  0  0  0  0  0  0  0  0  0  0
   25.8163  -18.7518  -17.0923 C   0  0  0  0  0  0  0  0  0  0  0  0
   25.8572  -19.8720  -17.7170 O   0  0  0  0  0  0  0  0  0  0  0  0
   24.6169  -18.5008  -16.4154 N   0  0  0  0  0  0  0  0  0  0  0  0
   23.4512  -19.4172  -16.5260 C   0  0  1  0  0  0  0  0  0  0  0  0
   23.9216  -20.6953  -15.9442 C   0  0  0  0  0  0  0  0  0  0  0  0
   22.9397  -21.7944  -15.9041 C   0  0  0  0  0  0  0  0  0  0  0  0
   22.5592  -22.6335  -16.9296 C   0  0  0  0  0  0  0  0  0  0  0  0
   21.6219  -23.4468  -16.4159 N   0  0  0  0  0  0  0  0  0  0  0  0
   21.4350  -23.1237  -15.1370 C   0  0  0  0  0  0  0  0  0  0  0  0
   22.2302  -22.1090  -14.7856 N   0  0  0  0  0  0  0  0  0  0  0  0
   22.2651  -18.7874  -15.9840 C   0  0  0  0  0  0  0  0  0  0  0  0
   22.4083  -18.1581  -14.8688 O   0  0  0  0  0  0  0  0  0  0  0  0
   20.0519  -16.0652  -17.0672 C   0  0  0  0  0  0  0  0  0  0  0  0
   19.1591  -17.2360  -16.7717 C   0  0  1  0  0  0  0  0  0  0  0  0
   18.7176  -17.9856  -17.9904 C   0  0  0  0  0  0  0  0  0  0  0  0
   19.8670  -18.1595  -15.7724 C   0  0  2  0  0  0  0  0  0  0  0  0
   20.9615  -18.7557  -16.5038 N   0  0  0  0  0  0  0  0  0  0  0  0
   18.9566  -19.2193  -15.3109 C   0  0  0  0  0  0  0  0  0  0  0  0
   19.0970  -20.5548  -15.7216 O   0  0  0  0  0  0  0  0  0  0  0  0
   18.0100  -18.9915  -14.5298 O   0  0  0  0  0  0  0  0  0  0  0  0
  2  4  1  0
  2  1  1  1
  3  2  1  0
  4  5  1  6
  6  7  2  0
  6  4  1  0
  8  6  1  0
  9  8  1  0
  9 10  1  1
 11 15  1  0
 11 10  1  0
 12 11  2  0
 13 12  1  0
 13 14  1  0
 14 15  2  0
 16 22  1  0
 16  9  1  0
 17 16  2  0
 19 21  1  0
 19 18  1  6
 20 19  1  0
 21 23  1  0
 21 22  1  6
 23 24  1  0
 25 23  2  0
M  END
$$$$
