VHV.pdb
     RDKit          3D

 25 25  0  0  1  0  0  0  0  0999 V2000
   16.9503  -12.5934  -18.7719 C   0  0  0  0  0  0  0  0  0  0  0  0
   17.4444  -11.3697  -18.0518 C   0  0  1  0  0  0  0  0  0  0  0  0
   16.4826  -11.0096  -16.9395 C   0  0  0  0  0  0  0  0  0  0  0  0
   18.7931  -11.6228  -17.4090 C   0  0  2  0  0  0  0  0  0  0  0  0
   18.6380  -12.7246  -16.4227 N   0  0  0  0  0  0  0  0  0  0  0  0
   19.2975  -10.4706  -16.6254 C   0  0  0  0  0  0  0  0  0  0  0  0
   19.0460  -10.4199  -15.3680 O   0  0  0  0  0  0  0  0  0  0  0  0
   20.0451   -9.3946  -17.1183 N   0  0  0  0  0  0  0  0  0  0  0  0
   20.4929   -8.2852  -16.2353 C   0  0  1  0  0  0  0  0  0  0  0  0
   21.9711   -8.3785  -16.2354 C   0  0  0  0  0  0  0  0  0  0  0  0
   22.5515   -9.5392  -15.5357 C   0  0  0  0  0  0  0  0  0  0  0  0
   22.6653   -9.7445  -14.1773 C   0  0  0  0  0  0  0  0  0  0  0  0
   23.2851  -10.9269  -14.0308 N   0  0  0  0  0  0  0  0  0  0  0  0
   23.5401  -11.4246  -15.2400 C   0  0  0  0  0  0  0  0  0  0  0  0
   23.1022  -10.5967  -16.1930 N   0  0  0  0  0  0  0  0  0  0  0  0
   19.8625   -7.0431  -16.6315 C   0  0  0  0  0  0  0  0  0  0  0  0
   20.0587   -6.6622  -17.8466 O   0  0  0  0  0  0  0  0  0  0  0  0
   16.3538   -6.2389  -16.9376 C   0  0  0  0  0  0  0  0  0  0  0  0
   16.9465   -5.1163  -16.1353 C   0  0  1  0  0  0  0  0  0  0  0  0
   16.7174   -5.2374  -14.6605 C   0  0  0  0  0  0  0  0  0  0  0  0
   18.4411   -5.0083  -16.4625 C   0  0  2  0  0  0  0  0  0  0  0  0
   19.0517   -6.1802  -15.8776 N   0  0  0  0  0  0  0  0  0  0  0  0
   19.0201   -3.8020  -15.8505 C   0  0  0  0  0  0  0  0  0  0  0  0
   19.8010   -3.8580  -14.6847 O   0  0  0  0  0  0  0  0  0  0  0  0
   18.8501   -2.6629  -16.3321 O   0  0  0  0  0  0  0  0  0  0  0  0
  2  4  1  0
  2  1  1  1
  3  2  1  0
  4  5  1  1
  6  7  2  0
  6  4  1  0
  8  6  1  0
  9  8  1  0
  9 10  1  6
 11 15  1  0
 11 10  1  0
 12 11  2  0
 13 12  1  0
 13 14  1  0
 14 15  2  0
 16 22  1  0
 16  9  1  0
 17 16  2  0
 19 21  1  0
 19 18  1  6
 20 19  1  0
 21 23  1  0
 21 22  1  1
 23 24  1  0
 25 23  2  0
M  END
$$$$
