VHV.pdb
     RDKit          3D

 25 25  0  0  1  0  0  0  0  0999 V2000
   28.3759  -18.8161  -14.6686 C   0  0  0  0  0  0  0  0  0  0  0  0
   27.4289  -18.2530  -15.6914 C   0  0  1  0  0  0  0  0  0  0  0  0
   28.1404  -18.1089  -17.0200 C   0  0  0  0  0  0  0  0  0  0  0  0
   26.2527  -19.1817  -15.9154 C   0  0  2  0  0  0  0  0  0  0  0  0
   25.3584  -18.5622  -16.9289 N   0  0  0  0  0  0  0  0  0  0  0  0
   25.4070  -19.3617  -14.7119 C   0  0  0  0  0  0  0  0  0  0  0  0
   24.7554  -18.3540  -14.2572 O   0  0  0  0  0  0  0  0  0  0  0  0
   25.2306  -20.5485  -13.9908 N   0  0  0  0  0  0  0  0  0  0  0  0
   24.3059  -20.6264  -12.8291 C   0  0  1  0  0  0  0  0  0  0  0  0
   23.1609  -21.4312  -13.3137 C   0  0  0  0  0  0  0  0  0  0  0  0
   22.2012  -20.7375  -14.1920 C   0  0  0  0  0  0  0  0  0  0  0  0
   21.1141  -19.9718  -13.8280 C   0  0  0  0  0  0  0  0  0  0  0  0
   20.5345  -19.5807  -14.9746 N   0  0  0  0  0  0  0  0  0  0  0  0
   21.2310  -20.0813  -15.9941 C   0  0  0  0  0  0  0  0  0  0  0  0
   22.2661  -20.8003  -15.5504 N   0  0  0  0  0  0  0  0  0  0  0  0
   25.0221  -21.0559  -11.6459 C   0  0  0  0  0  0  0  0  0  0  0  0
   25.6181  -22.1959  -11.7183 O   0  0  0  0  0  0  0  0  0  0  0  0
   27.7348  -19.5326   -9.5953 C   0  0  0  0  0  0  0  0  0  0  0  0
   26.6688  -19.9589   -8.6272 C   0  0  1  0  0  0  0  0  0  0  0  0
   25.8292  -18.8306   -8.1133 C   0  0  0  0  0  0  0  0  0  0  0  0
   25.8067  -21.0436   -9.2851 C   0  0  2  0  0  0  0  0  0  0  0  0
   25.1702  -20.4020  -10.4127 N   0  0  0  0  0  0  0  0  0  0  0  0
   24.7745  -21.5223   -8.3521 C   0  0  0  0  0  0  0  0  0  0  0  0
   25.0708  -22.4033   -7.2995 O   0  0  0  0  0  0  0  0  0  0  0  0
   23.5796  -21.1730   -8.4434 O   0  0  0  0  0  0  0  0  0  0  0  0
  2  4  1  0
  2  1  1  1
  3  2  1  0
  4  5  1  6
  6  7  2  0
  6  4  1  0
  8  6  1  0
  9  8  1  0
  9 10  1  6
 11 15  1  0
 11 10  1  0
 12 11  2  0
 13 12  1  0
 13 14  1  0
 14 15  2  0
 16 22  1  0
 16  9  1  0
 17 16  2  0
 19 21  1  0
 19 18  1  6
 20 19  1  0
 21 23  1  0
 21 22  1  6
 23 24  1  0
 25 23  2  0
M  END
$$$$
