VHV.pdb
     RDKit          3D

 25 25  0  0  1  0  0  0  0  0999 V2000
   18.0470  -13.9109  -20.4576 C   0  0  0  0  0  0  0  0  0  0  0  0
   17.6373  -12.8052  -19.5250 C   0  0  1  0  0  0  0  0  0  0  0  0
   16.2275  -12.3598  -19.8507 C   0  0  0  0  0  0  0  0  0  0  0  0
   17.6326  -13.2794  -18.0858 C   0  0  2  0  0  0  0  0  0  0  0  0
   16.6805  -14.4160  -17.9746 N   0  0  0  0  0  0  0  0  0  0  0  0
   17.1326  -12.2615  -17.1320 C   0  0  0  0  0  0  0  0  0  0  0  0
   15.8929  -12.2797  -16.8012 O   0  0  0  0  0  0  0  0  0  0  0  0
   17.8864  -11.2481  -16.5283 N   0  0  0  0  0  0  0  0  0  0  0  0
   17.2641  -10.2454  -15.6237 C   0  0  1  0  0  0  0  0  0  0  0  0
   17.5288  -10.7557  -14.2587 C   0  0  0  0  0  0  0  0  0  0  0  0
   16.9743   -9.9621  -13.1467 C   0  0  0  0  0  0  0  0  0  0  0  0
   16.2898   -8.7672  -13.2123 C   0  0  0  0  0  0  0  0  0  0  0  0
   16.0172   -8.4249  -11.9426 N   0  0  0  0  0  0  0  0  0  0  0  0
   16.5099   -9.3634  -11.1354 C   0  0  0  0  0  0  0  0  0  0  0  0
   17.1073  -10.3274  -11.8420 N   0  0  0  0  0  0  0  0  0  0  0  0
   17.7019   -8.9110  -15.9773 C   0  0  0  0  0  0  0  0  0  0  0  0
   18.9717   -8.7414  -16.1147 O   0  0  0  0  0  0  0  0  0  0  0  0
   16.3814   -6.4279  -18.7339 C   0  0  0  0  0  0  0  0  0  0  0  0
   16.4998   -5.7540  -17.3971 C   0  0  1  0  0  0  0  0  0  0  0  0
   15.2007   -5.6290  -16.6631 C   0  0  0  0  0  0  0  0  0  0  0  0
   17.5474   -6.4969  -16.5585 C   0  0  2  0  0  0  0  0  0  0  0  0
   16.9356   -7.7564  -16.2011 N   0  0  0  0  0  0  0  0  0  0  0  0
   17.8603   -5.7438  -15.3338 C   0  0  0  0  0  0  0  0  0  0  0  0
   17.3761   -6.1328  -14.0743 O   0  0  0  0  0  0  0  0  0  0  0  0
   18.5724   -4.7187  -15.3451 O   0  0  0  0  0  0  0  0  0  0  0  0
  2  4  1  0
  2  1  1  6
  3  2  1  0
  4  5  1  6
  6  7  2  0
  6  4  1  0
  8  6  1  0
  9  8  1  0
  9 10  1  1
 11 15  1  0
 11 10  1  0
 12 11  2  0
 13 12  1  0
 13 14  1  0
 14 15  2  0
 16 22  1  0
 16  9  1  0
 17 16  2  0
 19 21  1  0
 19 18  1  6
 20 19  1  0
 21 23  1  0
 21 22  1  1
 23 24  1  0
 25 23  2  0
M  END
$$$$
