VHV.pdb
     RDKit          3D

 25 25  0  0  1  0  0  0  0  0999 V2000
   22.8037  -11.5988  -19.6680 C   0  0  0  0  0  0  0  0  0  0  0  0
   21.9147  -10.7295  -18.8230 C   0  0  1  0  0  0  0  0  0  0  0  0
   20.6823  -10.3413  -19.6120 C   0  0  0  0  0  0  0  0  0  0  0  0
   21.4383  -11.4716  -17.5906 C   0  0  2  0  0  0  0  0  0  0  0  0
   20.6533  -12.6536  -18.0350 N   0  0  0  0  0  0  0  0  0  0  0  0
   20.5067  -10.6822  -16.7511 C   0  0  0  0  0  0  0  0  0  0  0  0
   19.2442  -10.8033  -16.9461 O   0  0  0  0  0  0  0  0  0  0  0  0
   20.8604   -9.7894  -15.7325 N   0  0  0  0  0  0  0  0  0  0  0  0
   19.8452   -8.9508  -15.0418 C   0  0  1  0  0  0  0  0  0  0  0  0
   19.9609   -9.3219  -13.6127 C   0  0  0  0  0  0  0  0  0  0  0  0
   18.8055   -8.9932  -12.7578 C   0  0  0  0  0  0  0  0  0  0  0  0
   17.6200   -8.3920  -13.1234 C   0  0  0  0  0  0  0  0  0  0  0  0
   16.8978   -8.2788  -11.9967 N   0  0  0  0  0  0  0  0  0  0  0  0
   17.6046   -8.7856  -10.9873 C   0  0  0  0  0  0  0  0  0  0  0  0
   18.7865   -9.2358  -11.4183 N   0  0  0  0  0  0  0  0  0  0  0  0
   19.9955   -7.5628  -15.4267 C   0  0  0  0  0  0  0  0  0  0  0  0
   21.1897   -7.0813  -15.3826 O   0  0  0  0  0  0  0  0  0  0  0  0
   19.6869   -5.8128  -18.5625 C   0  0  0  0  0  0  0  0  0  0  0  0
   18.8208   -5.0546  -17.5979 C   0  0  1  0  0  0  0  0  0  0  0  0
   17.3642   -5.3862  -17.7001 C   0  0  0  0  0  0  0  0  0  0  0  0
   19.3480   -5.2803  -16.1754 C   0  0  2  0  0  0  0  0  0  0  0  0
   19.0181   -6.6497  -15.8525 N   0  0  0  0  0  0  0  0  0  0  0  0
   18.6753   -4.3813  -15.2244 C   0  0  0  0  0  0  0  0  0  0  0  0
   19.1420   -3.0818  -14.9682 O   0  0  0  0  0  0  0  0  0  0  0  0
   17.6539   -4.7222  -14.5930 O   0  0  0  0  0  0  0  0  0  0  0  0
  2  4  1  0
  2  1  1  6
  3  2  1  0
  4  5  1  6
  6  7  2  0
  6  4  1  0
  8  6  1  0
  9  8  1  0
  9 10  1  1
 11 15  1  0
 11 10  1  0
 12 11  2  0
 13 12  1  0
 13 14  1  0
 14 15  2  0
 16 22  1  0
 16  9  1  0
 17 16  2  0
 19 21  1  0
 19 18  1  6
 20 19  1  0
 21 23  1  0
 21 22  1  1
 23 24  1  0
 25 23  2  0
M  END
$$$$
