VHV.pdb
     RDKit          3D

 25 25  0  0  1  0  0  0  0  0999 V2000
   39.9058  -11.4232  -10.4528 C   0  0  0  0  0  0  0  0  0  0  0  0
   39.7204  -10.3828  -11.5221 C   0  0  1  0  0  0  0  0  0  0  0  0
   38.5875  -10.7911  -12.4397 C   0  0  0  0  0  0  0  0  0  0  0  0
   39.3450   -9.0436  -10.9207 C   0  0  2  0  0  0  0  0  0  0  0  0
   39.1351   -8.0781  -12.0318 N   0  0  0  0  0  0  0  0  0  0  0  0
   40.4185   -8.4493  -10.0898 C   0  0  0  0  0  0  0  0  0  0  0  0
   41.4890   -8.0368  -10.6646 O   0  0  0  0  0  0  0  0  0  0  0  0
   40.3954   -8.2794   -8.7005 N   0  0  0  0  0  0  0  0  0  0  0  0
   41.5446   -7.6859   -7.9670 C   0  0  1  0  0  0  0  0  0  0  0  0
   40.9693   -6.5326   -7.2374 C   0  0  0  0  0  0  0  0  0  0  0  0
   41.9121   -5.7330   -6.4339 C   0  0  0  0  0  0  0  0  0  0  0  0
   43.2704   -5.9151   -6.2847 C   0  0  0  0  0  0  0  0  0  0  0  0
   43.6826   -4.9588   -5.4365 N   0  0  0  0  0  0  0  0  0  0  0  0
   42.6293   -4.2244   -5.0813 C   0  0  0  0  0  0  0  0  0  0  0  0
   41.5198   -4.6719   -5.6764 N   0  0  0  0  0  0  0  0  0  0  0  0
   42.2501   -8.7111   -7.2263 C   0  0  0  0  0  0  0  0  0  0  0  0
   41.5434   -9.4249   -6.4195 O   0  0  0  0  0  0  0  0  0  0  0  0
   43.4837  -11.7562   -8.1763 C   0  0  0  0  0  0  0  0  0  0  0  0
   44.6565  -11.1744   -7.4405 C   0  0  1  0  0  0  0  0  0  0  0  0
   45.7174  -10.6138   -8.3361 C   0  0  0  0  0  0  0  0  0  0  0  0
   44.1468  -10.1210   -6.4490 C   0  0  2  0  0  0  0  0  0  0  0  0
   43.6114   -9.0518   -7.2605 N   0  0  0  0  0  0  0  0  0  0  0  0
   45.2532   -9.6018   -5.6297 C   0  0  0  0  0  0  0  0  0  0  0  0
   45.7487  -10.2998   -4.5165 O   0  0  0  0  0  0  0  0  0  0  0  0
   45.8126   -8.5138   -5.8774 O   0  0  0  0  0  0  0  0  0  0  0  0
  2  4  1  0
  2  1  1  1
  3  2  1  0
  4  5  1  6
  6  7  2  0
  6  4  1  0
  8  6  1  0
  9  8  1  0
  9 10  1  1
 11 15  1  0
 11 10  1  0
 12 11  2  0
 13 12  1  0
 13 14  1  0
 14 15  2  0
 16 22  1  0
 16  9  1  0
 17 16  2  0
 19 21  1  0
 19 18  1  6
 20 19  1  0
 21 23  1  0
 21 22  1  6
 23 24  1  0
 25 23  2  0
M  END
$$$$
