VHV.pdb
     RDKit          3D

 25 25  0  0  1  0  0  0  0  0999 V2000
   28.6721  -17.3747  -17.1723 C   0  0  0  0  0  0  0  0  0  0  0  0
   27.4450  -17.9364  -16.5098 C   0  0  1  0  0  0  0  0  0  0  0  0
   26.3319  -18.0691  -17.5274 C   0  0  0  0  0  0  0  0  0  0  0  0
   27.7097  -19.3223  -15.9571 C   0  0  2  0  0  0  0  0  0  0  0  0
   27.9134  -20.2480  -17.1027 N   0  0  0  0  0  0  0  0  0  0  0  0
   26.5639  -19.8849  -15.2044 C   0  0  0  0  0  0  0  0  0  0  0  0
   25.7180  -20.6231  -15.8258 O   0  0  0  0  0  0  0  0  0  0  0  0
   26.2914  -19.6973  -13.8442 N   0  0  0  0  0  0  0  0  0  0  0  0
   25.1026  -20.3099  -13.1941 C   0  0  1  0  0  0  0  0  0  0  0  0
   25.4493  -20.3674  -11.7553 C   0  0  0  0  0  0  0  0  0  0  0  0
   24.3878  -20.8383  -10.8469 C   0  0  0  0  0  0  0  0  0  0  0  0
   23.1304  -21.2994  -11.1739 C   0  0  0  0  0  0  0  0  0  0  0  0
   22.5234  -21.5808  -10.0094 N   0  0  0  0  0  0  0  0  0  0  0  0
   23.3661  -21.3062   -9.0147 C   0  0  0  0  0  0  0  0  0  0  0  0
   24.5261  -20.8462   -9.4926 N   0  0  0  0  0  0  0  0  0  0  0  0
   23.8964  -19.6214  -13.6042 C   0  0  0  0  0  0  0  0  0  0  0  0
   23.9354  -18.3337  -13.5832 O   0  0  0  0  0  0  0  0  0  0  0  0
   22.4447  -19.1344  -16.7090 C   0  0  0  0  0  0  0  0  0  0  0  0
   21.2882  -19.6235  -15.8852 C   0  0  1  0  0  0  0  0  0  0  0  0
   20.9700  -21.0728  -16.0859 C   0  0  0  0  0  0  0  0  0  0  0  0
   21.5631  -19.3099  -14.4092 C   0  0  2  0  0  0  0  0  0  0  0  0
   22.6717  -20.1569  -14.0329 N   0  0  0  0  0  0  0  0  0  0  0  0
   20.3934  -19.6441  -13.5815 C   0  0  0  0  0  0  0  0  0  0  0  0
   19.2806  -18.7931  -13.4838 O   0  0  0  0  0  0  0  0  0  0  0  0
   20.3243  -20.7010  -12.9208 O   0  0  0  0  0  0  0  0  0  0  0  0
  2  4  1  0
  2  1  1  6
  3  2  1  0
  4  5  1  6
  6  7  2  0
  6  4  1  0
  8  6  1  0
  9  8  1  0
  9 10  1  1
 11 15  1  0
 11 10  1  0
 12 11  2  0
 13 12  1  0
 13 14  1  0
 14 15  2  0
 16 22  1  0
 16  9  1  0
 17 16  2  0
 19 21  1  0
 19 18  1  6
 20 19  1  0
 21 23  1  0
 21 22  1  1
 23 24  1  0
 25 23  2  0
M  END
$$$$
