VHV.pdb
     RDKit          3D

 25 25  0  0  1  0  0  0  0  0999 V2000
   21.2411  -17.8855  -16.5054 C   0  0  0  0  0  0  0  0  0  0  0  0
   22.1340  -18.5838  -15.5180 C   0  0  1  0  0  0  0  0  0  0  0  0
   21.2958  -19.4241  -14.5781 C   0  0  0  0  0  0  0  0  0  0  0  0
   23.0929  -19.5242  -16.2198 C   0  0  2  0  0  0  0  0  0  0  0  0
   22.3000  -20.6205  -16.8365 N   0  0  0  0  0  0  0  0  0  0  0  0
   24.0355  -20.2003  -15.2978 C   0  0  0  0  0  0  0  0  0  0  0  0
   23.6050  -21.1673  -14.5723 O   0  0  0  0  0  0  0  0  0  0  0  0
   25.3904  -19.8941  -15.1238 N   0  0  0  0  0  0  0  0  0  0  0  0
   26.2455  -20.6493  -14.1702 C   0  0  1  0  0  0  0  0  0  0  0  0
   27.5755  -20.7027  -14.8197 C   0  0  0  0  0  0  0  0  0  0  0  0
   27.7663  -21.7597  -15.8297 C   0  0  0  0  0  0  0  0  0  0  0  0
   26.8696  -22.7282  -16.2278 C   0  0  0  0  0  0  0  0  0  0  0  0
   27.5092  -23.4722  -17.1450 N   0  0  0  0  0  0  0  0  0  0  0  0
   28.7392  -22.9852  -17.3032 C   0  0  0  0  0  0  0  0  0  0  0  0
   28.9341  -21.9288  -16.5086 N   0  0  0  0  0  0  0  0  0  0  0  0
   26.1298  -20.0882  -12.8401 C   0  0  0  0  0  0  0  0  0  0  0  0
   26.1924  -18.8044  -12.7515 O   0  0  0  0  0  0  0  0  0  0  0  0
   23.4380  -20.0919  -10.6305 C   0  0  0  0  0  0  0  0  0  0  0  0
   24.5707  -20.4393   -9.7077 C   0  0  1  0  0  0  0  0  0  0  0  0
   24.5983  -21.8785   -9.2955 C   0  0  0  0  0  0  0  0  0  0  0  0
   25.8917  -20.0198  -10.3646 C   0  0  2  0  0  0  0  0  0  0  0  0
   25.9517  -20.7457  -11.6127 N   0  0  0  0  0  0  0  0  0  0  0  0
   27.0350  -20.4057   -9.5226 C   0  0  0  0  0  0  0  0  0  0  0  0
   27.9147  -21.4381   -9.8862 O   0  0  0  0  0  0  0  0  0  0  0  0
   27.2871  -19.8382   -8.4398 O   0  0  0  0  0  0  0  0  0  0  0  0
  2  4  1  0
  2  1  1  6
  3  2  1  0
  4  5  1  1
  6  7  2  0
  6  4  1  0
  8  6  1  0
  9  8  1  0
  9 10  1  6
 11 15  1  0
 11 10  1  0
 12 11  2  0
 13 12  1  0
 13 14  1  0
 14 15  2  0
 16 22  1  0
 16  9  1  0
 17 16  2  0
 19 21  1  0
 19 18  1  6
 20 19  1  0
 21 23  1  0
 21 22  1  6
 23 24  1  0
 25 23  2  0
M  END
$$$$
