FCH.pdb
     RDKit          3D

 28 29  0  0  1  0  0  0  0  0999 V2000
    7.8926  -14.3067   20.3910 N   0  0  0  0  0  0  0  0  0  0  0  0
    8.2822  -14.1205   21.8192 C   0  0  1  0  0  0  0  0  0  0  0  0
    7.0526  -13.6407   22.4811 C   0  0  0  0  0  0  0  0  0  0  0  0
    7.0716  -13.4162   23.9130 C   0  0  0  0  0  0  0  0  0  0  0  0
    7.5611  -12.2385   24.4295 C   0  0  0  0  0  0  0  0  0  0  0  0
    7.6099  -11.9701   25.7852 C   0  0  0  0  0  0  0  0  0  0  0  0
    7.1427  -12.9375   26.6452 C   0  0  0  0  0  0  0  0  0  0  0  0
    6.6486  -14.1220   26.1573 C   0  0  0  0  0  0  0  0  0  0  0  0
    6.6170  -14.3508   24.8052 C   0  0  0  0  0  0  0  0  0  0  0  0
    8.8572  -15.3839   22.2411 C   0  0  0  0  0  0  0  0  0  0  0  0
    9.0856  -16.3448   21.4239 O   0  0  0  0  0  0  0  0  0  0  0  0
    9.2083  -15.6316   23.5932 N   0  0  0  0  0  0  0  0  0  0  0  0
   10.2141  -16.6129   23.9621 C   0  0  1  0  0  0  0  0  0  0  0  0
   11.5414  -16.2607   23.2801 C   0  0  0  0  0  0  0  0  0  0  0  0
   12.8128  -17.4890   23.6919 S   0  0  0  0  0  0  0  0  0  0  0  0
   10.3818  -16.7004   25.4243 C   0  0  0  0  0  0  0  0  0  0  0  0
   10.7673  -15.7976   26.1831 O   0  0  0  0  0  0  0  0  0  0  0  0
   10.0703  -17.9616   26.0657 N   0  0  0  0  0  0  0  0  0  0  0  0
    9.9894  -18.0697   27.5123 C   0  0  1  0  0  0  0  0  0  0  0  0
    9.0829  -19.2500   27.8074 C   0  0  0  0  0  0  0  0  0  0  0  0
    7.9112  -19.2665   26.9037 C   0  0  0  0  0  0  0  0  0  0  0  0
    6.9202  -18.3186   26.8603 C   0  0  0  0  0  0  0  0  0  0  0  0
    6.0398  -18.6923   25.9104 N   0  0  0  0  0  0  0  0  0  0  0  0
    6.4535  -19.8449   25.3613 C   0  0  0  0  0  0  0  0  0  0  0  0
    7.6109  -20.1945   25.9797 N   0  0  0  0  0  0  0  0  0  0  0  0
   11.3385  -18.4313   28.0281 C   0  0  0  0  0  0  0  0  0  0  0  0
   11.4987  -18.5619   29.3894 O   0  0  0  0  0  0  0  0  0  0  0  0
   12.3101  -18.6142   27.2506 O   0  0  0  0  0  0  0  0  0  0  0  0
  2  1  1  6
  2 10  1  0
  3  2  1  0
  4  3  1  0
  4  9  1  0
  5  4  2  0
  6  5  1  0
  6  7  2  0
  7  8  1  0
  8  9  2  0
 10 11  2  0
 12 13  1  0
 12 10  1  0
 13 16  1  0
 14 15  1  0
 13 14  1  6
 16 17  2  0
 18 16  1  0
 18 19  1  0
 19 26  1  0
 19 20  1  6
 21 25  1  0
 21 20  1  0
 22 21  2  0
 23 22  1  0
 23 24  1  0
 24 25  2  0
 26 28  2  0
 26 27  1  0
M  END
$$$$
