FCH.pdb
     RDKit          3D

 28 29  0  0  1  0  0  0  0  0999 V2000
   10.7730  -15.8400   21.1073 N   0  0  0  0  0  0  0  0  0  0  0  0
    9.9030  -15.2938   22.1895 C   0  0  1  0  0  0  0  0  0  0  0  0
    8.5264  -15.5937   21.7475 C   0  0  0  0  0  0  0  0  0  0  0  0
    7.8815  -14.6946   20.8111 C   0  0  0  0  0  0  0  0  0  0  0  0
    7.5614  -13.4093   21.1837 C   0  0  0  0  0  0  0  0  0  0  0  0
    6.9411  -12.5090   20.3368 C   0  0  0  0  0  0  0  0  0  0  0  0
    6.6365  -12.9348   19.0641 C   0  0  0  0  0  0  0  0  0  0  0  0
    6.9447  -14.2121   18.6655 C   0  0  0  0  0  0  0  0  0  0  0  0
    7.5602  -15.0759   19.5353 C   0  0  0  0  0  0  0  0  0  0  0  0
   10.3869  -15.8845   23.4230 C   0  0  0  0  0  0  0  0  0  0  0  0
   11.2295  -16.8504   23.4412 O   0  0  0  0  0  0  0  0  0  0  0  0
    9.9565  -15.4216   24.6933 N   0  0  0  0  0  0  0  0  0  0  0  0
   10.3466  -16.0809   25.9277 C   0  0  1  0  0  0  0  0  0  0  0  0
    9.7571  -15.3175   27.1195 C   0  0  0  0  0  0  0  0  0  0  0  0
    9.7224  -13.5352   26.7780 S   0  0  0  0  0  0  0  0  0  0  0  0
    9.9261  -17.4940   25.9489 C   0  0  0  0  0  0  0  0  0  0  0  0
    9.1874  -18.0615   25.1294 O   0  0  0  0  0  0  0  0  0  0  0  0
   10.4130  -18.3274   27.0294 N   0  0  0  0  0  0  0  0  0  0  0  0
   10.8217  -19.7015   26.7935 C   0  0  1  0  0  0  0  0  0  0  0  0
   12.0701  -19.6394   25.9335 C   0  0  0  0  0  0  0  0  0  0  0  0
   11.7674  -19.9679   24.5227 C   0  0  0  0  0  0  0  0  0  0  0  0
   10.5358  -20.3158   24.0281 C   0  0  0  0  0  0  0  0  0  0  0  0
   10.6750  -20.5363   22.7056 N   0  0  0  0  0  0  0  0  0  0  0  0
   11.9568  -20.3359   22.3624 C   0  0  0  0  0  0  0  0  0  0  0  0
   12.6269  -19.9848   23.4901 N   0  0  0  0  0  0  0  0  0  0  0  0
   11.2326  -20.2949   28.0958 C   0  0  0  0  0  0  0  0  0  0  0  0
   11.9186  -19.4973   28.9841 O   0  0  0  0  0  0  0  0  0  0  0  0
   10.9652  -21.4893   28.3853 O   0  0  0  0  0  0  0  0  0  0  0  0
  2  1  1  6
  2 10  1  0
  3  2  1  0
  4  3  1  0
  4  9  1  0
  5  4  2  0
  6  5  1  0
  6  7  2  0
  7  8  1  0
  8  9  2  0
 10 11  2  0
 12 13  1  0
 12 10  1  0
 13 16  1  0
 14 15  1  0
 13 14  1  1
 16 17  2  0
 18 16  1  0
 18 19  1  0
 19 26  1  0
 19 20  1  6
 21 25  1  0
 21 20  1  0
 22 21  2  0
 23 22  1  0
 23 24  1  0
 24 25  2  0
 26 28  2  0
 26 27  1  0
M  END
$$$$
