FCH.pdb
     RDKit          3D

 28 29  0  0  1  0  0  0  0  0999 V2000
   22.9356  -64.3988    5.0716 N   0  0  0  0  0  0  0  0  0  0  0  0
   22.5975  -63.1542    5.8217 C   0  0  1  0  0  0  0  0  0  0  0  0
   23.6695  -63.0235    6.8286 C   0  0  0  0  0  0  0  0  0  0  0  0
   23.3399  -62.4887    8.1350 C   0  0  0  0  0  0  0  0  0  0  0  0
   22.3207  -61.5758    8.2798 C   0  0  0  0  0  0  0  0  0  0  0  0
   21.9646  -61.0271    9.4982 C   0  0  0  0  0  0  0  0  0  0  0  0
   22.6734  -61.4240   10.6091 C   0  0  0  0  0  0  0  0  0  0  0  0
   23.6953  -62.3338   10.4938 C   0  0  0  0  0  0  0  0  0  0  0  0
   24.0185  -62.8554    9.2670 C   0  0  0  0  0  0  0  0  0  0  0  0
   22.4475  -62.1159    4.8196 C   0  0  0  0  0  0  0  0  0  0  0  0
   22.9073  -62.2349    3.6290 O   0  0  0  0  0  0  0  0  0  0  0  0
   21.7734  -60.8990    5.0984 N   0  0  0  0  0  0  0  0  0  0  0  0
   20.5040  -60.5604    4.4783 C   0  0  1  0  0  0  0  0  0  0  0  0
   19.7716  -61.8484    4.0841 C   0  0  0  0  0  0  0  0  0  0  0  0
   19.8814  -62.1189    2.2926 S   0  0  0  0  0  0  0  0  0  0  0  0
   19.6673  -59.7303    5.3642 C   0  0  0  0  0  0  0  0  0  0  0  0
   19.2462  -60.0373    6.4902 O   0  0  0  0  0  0  0  0  0  0  0  0
   19.2834  -58.4150    4.8935 N   0  0  0  0  0  0  0  0  0  0  0  0
   20.2680  -57.4918    4.3559 C   0  0  1  0  0  0  0  0  0  0  0  0
   20.6350  -56.5462    5.4842 C   0  0  0  0  0  0  0  0  0  0  0  0
   21.4722  -57.2217    6.5004 C   0  0  0  0  0  0  0  0  0  0  0  0
   21.0065  -57.9350    7.5759 C   0  0  0  0  0  0  0  0  0  0  0  0
   22.0767  -58.3891    8.2582 N   0  0  0  0  0  0  0  0  0  0  0  0
   23.1948  -57.9796    7.6391 C   0  0  0  0  0  0  0  0  0  0  0  0
   22.8142  -57.2584    6.5532 N   0  0  0  0  0  0  0  0  0  0  0  0
   21.4997  -58.2625    4.0306 C   0  0  0  0  0  0  0  0  0  0  0  0
   21.4320  -59.6374    4.0641 O   0  0  0  0  0  0  0  0  0  0  0  0
   22.5757  -57.6836    3.7324 O   0  0  0  0  0  0  0  0  0  0  0  0
  2  1  1  6
  2 10  1  0
  3  2  1  0
  4  3  1  0
  4  9  1  0
  5  4  2  0
  6  5  1  0
  6  7  2  0
  7  8  1  0
  8  9  2  0
 10 11  2  0
 12 13  1  0
 12 10  1  0
 13 16  1  0
 14 15  1  0
 13 14  1  1
 16 17  2  0
 18 16  1  0
 18 19  1  0
 19 26  1  0
 19 20  1  1
 21 25  1  0
 21 20  1  0
 22 21  2  0
 23 22  1  0
 23 24  1  0
 24 25  2  0
 26 28  2  0
 26 27  1  0
M  END
$$$$
