FCH.pdb
     RDKit          3D

 28 29  0  0  1  0  0  0  0  0999 V2000
    7.8624  -16.2002   22.2555 N   0  0  0  0  0  0  0  0  0  0  0  0
    8.2036  -14.9115   22.9256 C   0  0  1  0  0  0  0  0  0  0  0  0
    6.8996  -14.2662   23.1775 C   0  0  0  0  0  0  0  0  0  0  0  0
    6.7222  -13.5011   24.3958 C   0  0  0  0  0  0  0  0  0  0  0  0
    7.3471  -12.2857   24.5552 C   0  0  0  0  0  0  0  0  0  0  0  0
    7.2202  -11.5142   25.6959 C   0  0  0  0  0  0  0  0  0  0  0  0
    6.4272  -11.9997   26.7105 C   0  0  0  0  0  0  0  0  0  0  0  0
    5.7916  -13.2096   26.5783 C   0  0  0  0  0  0  0  0  0  0  0  0
    5.9426  -13.9457   25.4307 C   0  0  0  0  0  0  0  0  0  0  0  0
    9.0413  -15.2627   24.0568 C   0  0  0  0  0  0  0  0  0  0  0  0
    9.9477  -14.4795   24.5133 O   0  0  0  0  0  0  0  0  0  0  0  0
    8.9032  -16.5019   24.7338 N   0  0  0  0  0  0  0  0  0  0  0  0
    9.7142  -16.8445   25.8894 C   0  0  1  0  0  0  0  0  0  0  0  0
    9.0128  -16.3599   27.1638 C   0  0  0  0  0  0  0  0  0  0  0  0
    7.3888  -17.1521   27.3356 S   0  0  0  0  0  0  0  0  0  0  0  0
    9.9851  -18.2923   25.9570 C   0  0  0  0  0  0  0  0  0  0  0  0
    9.2043  -19.2088   25.6571 O   0  0  0  0  0  0  0  0  0  0  0  0
   11.2920  -18.7142   26.4184 N   0  0  0  0  0  0  0  0  0  0  0  0
   11.6275  -20.1224   26.5415 C   0  0  1  0  0  0  0  0  0  0  0  0
   13.1059  -20.2439   26.2230 C   0  0  0  0  0  0  0  0  0  0  0  0
   13.3680  -19.9989   24.7873 C   0  0  0  0  0  0  0  0  0  0  0  0
   12.4429  -20.0881   23.7780 C   0  0  0  0  0  0  0  0  0  0  0  0
   13.0707  -19.7926   22.6223 N   0  0  0  0  0  0  0  0  0  0  0  0
   14.3592  -19.5221   22.8825 C   0  0  0  0  0  0  0  0  0  0  0  0
   14.5365  -19.6513   24.2226 N   0  0  0  0  0  0  0  0  0  0  0  0
   11.4670  -20.5160   27.9684 C   0  0  0  0  0  0  0  0  0  0  0  0
   11.6899  -21.8319   28.3071 O   0  0  0  0  0  0  0  0  0  0  0  0
   11.1375  -19.6779   28.8465 O   0  0  0  0  0  0  0  0  0  0  0  0
  2  1  1  1
  2 10  1  0
  3  2  1  0
  4  3  1  0
  4  9  1  0
  5  4  2  0
  6  5  1  0
  6  7  2  0
  7  8  1  0
  8  9  2  0
 10 11  2  0
 12 13  1  0
 12 10  1  0
 13 16  1  0
 14 15  1  0
 13 14  1  1
 16 17  2  0
 18 16  1  0
 18 19  1  0
 19 26  1  0
 19 20  1  1
 21 25  1  0
 21 20  1  0
 22 21  2  0
 23 22  1  0
 23 24  1  0
 24 25  2  0
 26 28  2  0
 26 27  1  0
M  END
$$$$
