FCH.pdb
     RDKit          3D

 28 29  0  0  1  0  0  0  0  0999 V2000
    7.0846  -16.1932   25.8542 N   0  0  0  0  0  0  0  0  0  0  0  0
    7.4786  -15.4211   24.6398 C   0  0  1  0  0  0  0  0  0  0  0  0
    8.2938  -14.3039   25.1571 C   0  0  0  0  0  0  0  0  0  0  0  0
    7.6393  -13.2488   25.9050 C   0  0  0  0  0  0  0  0  0  0  0  0
    8.0445  -12.9438   27.1841 C   0  0  0  0  0  0  0  0  0  0  0  0
    7.4552  -11.9529   27.9478 C   0  0  0  0  0  0  0  0  0  0  0  0
    6.4154  -11.2473   27.3866 C   0  0  0  0  0  0  0  0  0  0  0  0
    5.9905  -11.5304   26.1120 C   0  0  0  0  0  0  0  0  0  0  0  0
    6.6010  -12.5214   25.3862 C   0  0  0  0  0  0  0  0  0  0  0  0
    8.0943  -16.3806   23.7426 C   0  0  0  0  0  0  0  0  0  0  0  0
    8.5242  -17.5205   24.1414 O   0  0  0  0  0  0  0  0  0  0  0  0
    8.2544  -16.1144   22.3582 N   0  0  0  0  0  0  0  0  0  0  0  0
    8.8491  -17.0802   21.4504 C   0  0  1  0  0  0  0  0  0  0  0  0
    8.1687  -16.9754   20.0804 C   0  0  0  0  0  0  0  0  0  0  0  0
    6.3638  -17.0441   20.2605 S   0  0  0  0  0  0  0  0  0  0  0  0
   10.3063  -16.8909   21.3292 C   0  0  0  0  0  0  0  0  0  0  0  0
   10.9229  -16.4936   20.3286 O   0  0  0  0  0  0  0  0  0  0  0  0
   11.1253  -17.1937   22.4853 N   0  0  0  0  0  0  0  0  0  0  0  0
   12.5584  -16.9554   22.4747 C   0  0  1  0  0  0  0  0  0  0  0  0
   12.7469  -15.4512   22.5358 C   0  0  0  0  0  0  0  0  0  0  0  0
   12.9663  -14.8821   21.1875 C   0  0  0  0  0  0  0  0  0  0  0  0
   12.0656  -14.9047   20.1527 C   0  0  0  0  0  0  0  0  0  0  0  0
   12.6386  -14.2878   19.1000 N   0  0  0  0  0  0  0  0  0  0  0  0
   13.8692  -13.8819   19.4490 C   0  0  0  0  0  0  0  0  0  0  0  0
   14.0657  -14.2524   20.7406 N   0  0  0  0  0  0  0  0  0  0  0  0
   13.1311  -17.5065   23.7337 C   0  0  0  0  0  0  0  0  0  0  0  0
   12.2835  -18.1603   24.5998 O   0  0  0  0  0  0  0  0  0  0  0  0
   14.3526  -17.3834   24.0072 O   0  0  0  0  0  0  0  0  0  0  0  0
  2  1  1  1
  2 10  1  0
  3  2  1  0
  4  3  1  0
  4  9  1  0
  5  4  2  0
  6  5  1  0
  6  7  2  0
  7  8  1  0
  8  9  2  0
 10 11  2  0
 12 13  1  0
 12 10  1  0
 13 16  1  0
 14 15  1  0
 13 14  1  6
 16 17  2  0
 18 16  1  0
 18 19  1  0
 19 26  1  0
 19 20  1  1
 21 25  1  0
 21 20  1  0
 22 21  2  0
 23 22  1  0
 23 24  1  0
 24 25  2  0
 26 28  2  0
 26 27  1  0
M  END
$$$$
