FCH.pdb
     RDKit          3D

 28 29  0  0  1  0  0  0  0  0999 V2000
    5.7211  -16.3853   25.1392 N   0  0  0  0  0  0  0  0  0  0  0  0
    6.4919  -16.2156   23.8730 C   0  0  1  0  0  0  0  0  0  0  0  0
    6.5845  -14.7538   23.6865 C   0  0  0  0  0  0  0  0  0  0  0  0
    6.9235  -13.9240   24.8257 C   0  0  0  0  0  0  0  0  0  0  0  0
    5.9626  -13.5747   25.7466 C   0  0  0  0  0  0  0  0  0  0  0  0
    6.2248  -12.7818   26.8489 C   0  0  0  0  0  0  0  0  0  0  0  0
    7.5133  -12.3291   27.0183 C   0  0  0  0  0  0  0  0  0  0  0  0
    8.4921  -12.6624   26.1149 C   0  0  0  0  0  0  0  0  0  0  0  0
    8.1922  -13.4513   25.0336 C   0  0  0  0  0  0  0  0  0  0  0  0
    7.7137  -16.9781   24.0476 C   0  0  0  0  0  0  0  0  0  0  0  0
    7.7121  -18.2317   24.3154 O   0  0  0  0  0  0  0  0  0  0  0  0
    8.9937  -16.3781   23.9266 N   0  0  0  0  0  0  0  0  0  0  0  0
    9.9851  -16.8591   22.9799 C   0  0  1  0  0  0  0  0  0  0  0  0
    9.3957  -16.8230   21.5649 C   0  0  0  0  0  0  0  0  0  0  0  0
   10.4769  -17.7046   20.4037 S   0  0  0  0  0  0  0  0  0  0  0  0
   11.2324  -16.0759   23.0496 C   0  0  0  0  0  0  0  0  0  0  0  0
   11.8096  -15.5128   22.1066 O   0  0  0  0  0  0  0  0  0  0  0  0
   11.8698  -15.9345   24.3430 N   0  0  0  0  0  0  0  0  0  0  0  0
   12.6019  -17.0357   24.9449 C   0  0  1  0  0  0  0  0  0  0  0  0
   11.6682  -18.2315   24.9358 C   0  0  0  0  0  0  0  0  0  0  0  0
   10.8938  -18.3180   26.1938 C   0  0  0  0  0  0  0  0  0  0  0  0
   10.7690  -17.3203   27.1273 C   0  0  0  0  0  0  0  0  0  0  0  0
    9.9880  -17.7876   28.1216 N   0  0  0  0  0  0  0  0  0  0  0  0
    9.6230  -19.0468   27.8346 C   0  0  0  0  0  0  0  0  0  0  0  0
   10.1863  -19.3687   26.6416 N   0  0  0  0  0  0  0  0  0  0  0  0
   13.7418  -17.3803   24.0511 C   0  0  0  0  0  0  0  0  0  0  0  0
   14.9754  -17.5906   24.6254 O   0  0  0  0  0  0  0  0  0  0  0  0
   13.5920  -17.4788   22.8062 O   0  0  0  0  0  0  0  0  0  0  0  0
  2  1  1  1
  2 10  1  0
  3  2  1  0
  4  3  1  0
  4  9  1  0
  5  4  2  0
  6  5  1  0
  6  7  2  0
  7  8  1  0
  8  9  2  0
 10 11  2  0
 12 13  1  0
 12 10  1  0
 13 16  1  0
 14 15  1  0
 13 14  1  6
 16 17  2  0
 18 16  1  0
 18 19  1  0
 19 26  1  0
 19 20  1  6
 21 25  1  0
 21 20  1  0
 22 21  2  0
 23 22  1  0
 23 24  1  0
 24 25  2  0
 26 28  2  0
 26 27  1  0
M  END
$$$$
