FCH.pdb
     RDKit          3D

 28 29  0  0  1  0  0  0  0  0999 V2000
    6.0991  -16.8439   25.4499 N   0  0  0  0  0  0  0  0  0  0  0  0
    6.9749  -15.7601   24.9166 C   0  0  1  0  0  0  0  0  0  0  0  0
    7.2844  -14.9198   26.0906 C   0  0  0  0  0  0  0  0  0  0  0  0
    6.8414  -13.5397   26.0987 C   0  0  0  0  0  0  0  0  0  0  0  0
    5.6939  -13.1778   26.7663 C   0  0  0  0  0  0  0  0  0  0  0  0
    5.2191  -11.8795   26.8045 C   0  0  0  0  0  0  0  0  0  0  0  0
    5.9405  -10.9156   26.1381 C   0  0  0  0  0  0  0  0  0  0  0  0
    7.0893  -11.2485   25.4638 C   0  0  0  0  0  0  0  0  0  0  0  0
    7.5279  -12.5481   25.4492 C   0  0  0  0  0  0  0  0  0  0  0  0
    8.0622  -16.4312   24.2295 C   0  0  0  0  0  0  0  0  0  0  0  0
    8.4831  -17.5921   24.5733 O   0  0  0  0  0  0  0  0  0  0  0  0
    8.7267  -15.8399   23.1241 N   0  0  0  0  0  0  0  0  0  0  0  0
    9.8750  -16.4643   22.4900 C   0  0  1  0  0  0  0  0  0  0  0  0
   10.0793  -15.8561   21.0974 C   0  0  0  0  0  0  0  0  0  0  0  0
    8.4991  -15.7553   20.2101 S   0  0  0  0  0  0  0  0  0  0  0  0
   11.0938  -16.3251   23.3081 C   0  0  0  0  0  0  0  0  0  0  0  0
   11.8898  -15.3734   23.2989 O   0  0  0  0  0  0  0  0  0  0  0  0
   11.4173  -17.3982   24.2261 N   0  0  0  0  0  0  0  0  0  0  0  0
   12.6052  -17.3410   25.0608 C   0  0  1  0  0  0  0  0  0  0  0  0
   12.1543  -17.6516   26.4758 C   0  0  0  0  0  0  0  0  0  0  0  0
   11.3343  -16.5524   27.0317 C   0  0  0  0  0  0  0  0  0  0  0  0
   11.3763  -15.2407   26.6313 C   0  0  0  0  0  0  0  0  0  0  0  0
   10.4838  -14.5583   27.3762 N   0  0  0  0  0  0  0  0  0  0  0  0
    9.8875  -15.4064   28.2283 C   0  0  0  0  0  0  0  0  0  0  0  0
   10.4177  -16.6375   28.0104 N   0  0  0  0  0  0  0  0  0  0  0  0
   13.5144  -18.4472   24.6526 C   0  0  0  0  0  0  0  0  0  0  0  0
   14.7103  -18.5837   25.3212 O   0  0  0  0  0  0  0  0  0  0  0  0
   13.2077  -19.2392   23.7249 O   0  0  0  0  0  0  0  0  0  0  0  0
  2  1  1  1
  2 10  1  0
  3  2  1  0
  4  3  1  0
  4  9  1  0
  5  4  2  0
  6  5  1  0
  6  7  2  0
  7  8  1  0
  8  9  2  0
 10 11  2  0
 12 13  1  0
 12 10  1  0
 13 16  1  0
 14 15  1  0
 13 14  1  6
 16 17  2  0
 18 16  1  0
 18 19  1  0
 19 26  1  0
 19 20  1  1
 21 25  1  0
 21 20  1  0
 22 21  2  0
 23 22  1  0
 23 24  1  0
 24 25  2  0
 26 28  2  0
 26 27  1  0
M  END
$$$$
