FCH.pdb
     RDKit          3D

 28 29  0  0  1  0  0  0  0  0999 V2000
    7.6751  -16.9836   17.0106 N   0  0  0  0  0  0  0  0  0  0  0  0
    8.2082  -16.1587   18.1338 C   0  0  1  0  0  0  0  0  0  0  0  0
    7.0810  -15.2885   18.5242 C   0  0  0  0  0  0  0  0  0  0  0  0
    7.1844  -14.5173   19.7472 C   0  0  0  0  0  0  0  0  0  0  0  0
    6.6912  -15.0152   20.9313 C   0  0  0  0  0  0  0  0  0  0  0  0
    6.7559  -14.3240   22.1273 C   0  0  0  0  0  0  0  0  0  0  0  0
    7.3450  -13.0803   22.1154 C   0  0  0  0  0  0  0  0  0  0  0  0
    7.8458  -12.5590   20.9480 C   0  0  0  0  0  0  0  0  0  0  0  0
    7.7624  -13.2759   19.7815 C   0  0  0  0  0  0  0  0  0  0  0  0
    8.7336  -17.1014   19.1033 C   0  0  0  0  0  0  0  0  0  0  0  0
    8.1827  -18.2364   19.3303 O   0  0  0  0  0  0  0  0  0  0  0  0
    9.9006  -16.8232   19.8607 N   0  0  0  0  0  0  0  0  0  0  0  0
   10.4397  -17.7688   20.8230 C   0  0  1  0  0  0  0  0  0  0  0  0
   11.8303  -18.2234   20.3641 C   0  0  0  0  0  0  0  0  0  0  0  0
   12.8603  -16.7896   19.9425 S   0  0  0  0  0  0  0  0  0  0  0  0
   10.4957  -17.1952   22.1801 C   0  0  0  0  0  0  0  0  0  0  0  0
   10.7121  -16.0102   22.4773 O   0  0  0  0  0  0  0  0  0  0  0  0
   10.2788  -18.0881   23.3003 N   0  0  0  0  0  0  0  0  0  0  0  0
   10.3815  -17.6147   24.6700 C   0  0  1  0  0  0  0  0  0  0  0  0
    9.4459  -18.4769   25.4965 C   0  0  0  0  0  0  0  0  0  0  0  0
    8.0372  -18.2889   25.0841 C   0  0  0  0  0  0  0  0  0  0  0  0
    7.5256  -17.1759   24.4662 C   0  0  0  0  0  0  0  0  0  0  0  0
    6.2117  -17.3932   24.2574 N   0  0  0  0  0  0  0  0  0  0  0  0
    5.8905  -18.6085   24.7272 C   0  0  0  0  0  0  0  0  0  0  0  0
    7.0233  -19.1571   25.2369 N   0  0  0  0  0  0  0  0  0  0  0  0
   11.7599  -17.8962   25.1575 C   0  0  0  0  0  0  0  0  0  0  0  0
   12.0815  -17.5243   26.4436 O   0  0  0  0  0  0  0  0  0  0  0  0
   12.6131  -18.4572   24.4230 O   0  0  0  0  0  0  0  0  0  0  0  0
  2  1  1  6
  2 10  1  0
  3  2  1  0
  4  3  1  0
  4  9  1  0
  5  4  2  0
  6  5  1  0
  6  7  2  0
  7  8  1  0
  8  9  2  0
 10 11  2  0
 12 13  1  0
 12 10  1  0
 13 16  1  0
 14 15  1  0
 13 14  1  6
 16 17  2  0
 18 16  1  0
 18 19  1  0
 19 26  1  0
 19 20  1  1
 21 25  1  0
 21 20  1  0
 22 21  2  0
 23 22  1  0
 23 24  1  0
 24 25  2  0
 26 28  2  0
 26 27  1  0
M  END
$$$$
