FCH.pdb
     RDKit          3D

 28 29  0  0  1  0  0  0  0  0999 V2000
    5.6059  -17.4072   23.2994 N   0  0  0  0  0  0  0  0  0  0  0  0
    6.4634  -16.2177   23.5750 C   0  0  1  0  0  0  0  0  0  0  0  0
    5.9426  -15.6690   24.8430 C   0  0  0  0  0  0  0  0  0  0  0  0
    6.5852  -14.5030   25.4163 C   0  0  0  0  0  0  0  0  0  0  0  0
    6.1821  -13.2366   25.0598 C   0  0  0  0  0  0  0  0  0  0  0  0
    6.7605  -12.0880   25.5683 C   0  0  0  0  0  0  0  0  0  0  0  0
    7.7868  -12.2362   26.4730 C   0  0  0  0  0  0  0  0  0  0  0  0
    8.2092  -13.4880   26.8468 C   0  0  0  0  0  0  0  0  0  0  0  0
    7.6099  -14.6035   26.3197 C   0  0  0  0  0  0  0  0  0  0  0  0
    7.8321  -16.6966   23.5290 C   0  0  0  0  0  0  0  0  0  0  0  0
    8.1745  -17.8499   23.9717 O   0  0  0  0  0  0  0  0  0  0  0  0
    8.8809  -15.9128   22.9826 N   0  0  0  0  0  0  0  0  0  0  0  0
   10.2613  -16.3657   22.9786 C   0  0  1  0  0  0  0  0  0  0  0  0
   10.9745  -15.8105   21.7401 C   0  0  0  0  0  0  0  0  0  0  0  0
   10.1248  -16.3411   20.2264 S   0  0  0  0  0  0  0  0  0  0  0  0
   10.9684  -15.9741   24.2117 C   0  0  0  0  0  0  0  0  0  0  0  0
   10.9660  -14.8541   24.7455 O   0  0  0  0  0  0  0  0  0  0  0  0
   11.7549  -16.9848   24.8894 N   0  0  0  0  0  0  0  0  0  0  0  0
   12.1180  -16.8417   26.2888 C   0  0  1  0  0  0  0  0  0  0  0  0
   10.8182  -16.7990   27.0703 C   0  0  0  0  0  0  0  0  0  0  0  0
   11.0690  -16.6740   28.5234 C   0  0  0  0  0  0  0  0  0  0  0  0
   11.6158  -15.5832   29.1506 C   0  0  0  0  0  0  0  0  0  0  0  0
   11.6784  -15.8595   30.4685 N   0  0  0  0  0  0  0  0  0  0  0  0
   11.1867  -17.0901   30.6800 C   0  0  0  0  0  0  0  0  0  0  0  0
   10.8117  -17.5883   29.4737 N   0  0  0  0  0  0  0  0  0  0  0  0
   12.8285  -18.0791   26.7141 C   0  0  0  0  0  0  0  0  0  0  0  0
   12.7343  -19.1907   25.9069 O   0  0  0  0  0  0  0  0  0  0  0  0
   13.4979  -18.1178   27.7782 O   0  0  0  0  0  0  0  0  0  0  0  0
  2  1  1  1
  2 10  1  0
  3  2  1  0
  4  3  1  0
  4  9  1  0
  5  4  2  0
  6  5  1  0
  6  7  2  0
  7  8  1  0
  8  9  2  0
 10 11  2  0
 12 13  1  0
 12 10  1  0
 13 16  1  0
 14 15  1  0
 13 14  1  6
 16 17  2  0
 18 16  1  0
 18 19  1  0
 19 26  1  0
 19 20  1  1
 21 25  1  0
 21 20  1  0
 22 21  2  0
 23 22  1  0
 23 24  1  0
 24 25  2  0
 26 28  2  0
 26 27  1  0
M  END
$$$$
