MGN.pdb
     RDKit          3D

 21 20  0  0  1  0  0  0  0  0999 V2000
   16.0211  -16.6745  -22.3152 C   0  0  0  0  0  0  0  0  0  0  0  0
   16.2819  -14.9746  -21.7478 S   0  0  0  0  0  0  0  0  0  0  0  0
   17.7569  -14.9301  -20.7021 C   0  0  0  0  0  0  0  0  0  0  0  0
   17.8910  -13.5643  -20.0658 C   0  0  0  0  0  0  0  0  0  0  0  0
   19.1062  -13.5938  -19.1816 C   0  0  2  0  0  0  0  0  0  0  0  0
   18.8544  -14.4034  -18.0314 N   0  0  0  0  0  0  0  0  0  0  0  0
   19.5550  -12.2453  -18.7791 C   0  0  0  0  0  0  0  0  0  0  0  0
   19.8479  -11.3424  -19.6122 O   0  0  0  0  0  0  0  0  0  0  0  0
   19.6718  -11.9224  -17.4182 N   0  0  0  0  0  0  0  0  0  0  0  0
   19.9759  -10.5699  -16.9475 C   0  0  0  0  0  0  0  0  0  0  0  0
   18.8046  -10.0293  -16.2203 C   0  0  0  0  0  0  0  0  0  0  0  0
   17.6368  -10.3111  -16.6091 O   0  0  0  0  0  0  0  0  0  0  0  0
   15.5496   -8.3903  -12.8633 N   0  0  0  0  0  0  0  0  0  0  0  0
   16.7671   -8.4806  -12.1369 C   0  0  0  0  0  0  0  0  0  0  0  0
   16.7194   -8.2968  -10.8962 O   0  0  0  0  0  0  0  0  0  0  0  0
   18.0002   -8.7809  -12.8713 C   0  0  0  0  0  0  0  0  0  0  0  0
   17.7907   -8.7336  -14.3811 C   0  0  2  0  0  0  0  0  0  0  0  0
   18.9358   -9.2015  -15.0956 N   0  0  0  0  0  0  0  0  0  0  0  0
   17.4504   -7.3136  -14.6947 C   0  0  0  0  0  0  0  0  0  0  0  0
   18.2362   -6.5221  -15.2630 O   0  0  0  0  0  0  0  0  0  0  0  0
   16.1867   -6.8766  -14.3239 O   0  0  0  0  0  0  0  0  0  0  0  0
  2  1  1  0
  3  2  1  0
  4  5  1  0
  4  3  1  0
  5  6  1  1
  7  5  1  0
  7  8  2  0
  9  7  1  0
 10  9  1  0
 10 11  1  0
 11 18  1  0
 12 11  2  0
 13 14  1  0
 14 16  1  0
 15 14  2  0
 17 16  1  1
 17 19  1  0
 18 17  1  0
 19 21  1  0
 20 19  2  0
M  END
$$$$
