MGN.pdb
     RDKit          3D

 21 20  0  0  1  0  0  0  0  0999 V2000
   23.7880  -20.4656   -9.5716 C   0  0  0  0  0  0  0  0  0  0  0  0
   25.5978  -20.5293   -9.5871 S   0  0  0  0  0  0  0  0  0  0  0  0
   26.1657  -20.5191  -11.3041 C   0  0  0  0  0  0  0  0  0  0  0  0
   25.6934  -21.7732  -12.0058 C   0  0  0  0  0  0  0  0  0  0  0  0
   26.0477  -21.6393  -13.4604 C   0  0  2  0  0  0  0  0  0  0  0  0
   27.3589  -21.0876  -13.5954 N   0  0  0  0  0  0  0  0  0  0  0  0
   25.0662  -20.8364  -14.2179 C   0  0  0  0  0  0  0  0  0  0  0  0
   24.2068  -21.3506  -14.9876 O   0  0  0  0  0  0  0  0  0  0  0  0
   25.0632  -19.4380  -14.0989 N   0  0  0  0  0  0  0  0  0  0  0  0
   24.1158  -18.5832  -14.8167 C   0  0  0  0  0  0  0  0  0  0  0  0
   22.7341  -19.0233  -14.5164 C   0  0  0  0  0  0  0  0  0  0  0  0
   22.2335  -18.7957  -13.3798 O   0  0  0  0  0  0  0  0  0  0  0  0
   17.9029  -20.3501  -14.8033 N   0  0  0  0  0  0  0  0  0  0  0  0
   18.3221  -20.3252  -16.1604 C   0  0  0  0  0  0  0  0  0  0  0  0
   17.4379  -20.4328  -17.0447 O   0  0  0  0  0  0  0  0  0  0  0  0
   19.7520  -20.1762  -16.4491 C   0  0  0  0  0  0  0  0  0  0  0  0
   20.5783  -20.0269  -15.1760 C   0  0  2  0  0  0  0  0  0  0  0  0
   21.9392  -19.6953  -15.4566 N   0  0  0  0  0  0  0  0  0  0  0  0
   20.4341  -21.3238  -14.4495 C   0  0  0  0  0  0  0  0  0  0  0  0
   21.0547  -22.3652  -14.7613 O   0  0  0  0  0  0  0  0  0  0  0  0
   19.5570  -21.3445  -13.3745 O   0  0  0  0  0  0  0  0  0  0  0  0
  2  1  1  0
  3  2  1  0
  4  5  1  0
  4  3  1  0
  5  6  1  1
  7  5  1  0
  7  8  2  0
  9  7  1  0
 10  9  1  0
 10 11  1  0
 11 18  1  0
 12 11  2  0
 13 14  1  0
 14 16  1  0
 15 14  2  0
 17 16  1  6
 17 19  1  0
 18 17  1  0
 19 21  1  0
 20 19  2  0
M  END
$$$$
