MGN.pdb
     RDKit          3D

 21 20  0  0  1  0  0  0  0  0999 V2000
   29.5064  -25.2152  -15.9830 C   0  0  0  0  0  0  0  0  0  0  0  0
   29.5985  -24.2491  -17.5120 S   0  0  0  0  0  0  0  0  0  0  0  0
   29.5335  -22.4908  -17.0939 C   0  0  0  0  0  0  0  0  0  0  0  0
   28.6818  -22.2902  -15.8598 C   0  0  0  0  0  0  0  0  0  0  0  0
   27.5249  -21.4115  -16.2456 C   0  0  2  0  0  0  0  0  0  0  0  0
   27.8676  -20.0382  -16.0501 N   0  0  0  0  0  0  0  0  0  0  0  0
   26.2837  -21.7456  -15.5178 C   0  0  0  0  0  0  0  0  0  0  0  0
   25.4802  -22.6396  -15.9057 O   0  0  0  0  0  0  0  0  0  0  0  0
   25.9544  -21.0567  -14.3402 N   0  0  0  0  0  0  0  0  0  0  0  0
   24.7952  -21.4039  -13.5163 C   0  0  0  0  0  0  0  0  0  0  0  0
   23.6834  -20.4732  -13.8176 C   0  0  0  0  0  0  0  0  0  0  0  0
   23.8696  -19.2262  -13.7484 O   0  0  0  0  0  0  0  0  0  0  0  0
   22.8832  -19.2164  -16.5111 N   0  0  0  0  0  0  0  0  0  0  0  0
   21.5984  -19.7089  -16.8646 C   0  0  0  0  0  0  0  0  0  0  0  0
   21.2879  -19.7045  -18.0808 O   0  0  0  0  0  0  0  0  0  0  0  0
   20.7152  -20.1907  -15.7979 C   0  0  0  0  0  0  0  0  0  0  0  0
   21.3356  -20.0063  -14.4170 C   0  0  2  0  0  0  0  0  0  0  0  0
   22.4064  -20.9228  -14.1842 N   0  0  0  0  0  0  0  0  0  0  0  0
   20.2114  -20.1676  -13.4471 C   0  0  0  0  0  0  0  0  0  0  0  0
   20.0500  -21.1856  -12.7368 O   0  0  0  0  0  0  0  0  0  0  0  0
   19.3127  -19.1148  -13.3503 O   0  0  0  0  0  0  0  0  0  0  0  0
  2  1  1  0
  3  2  1  0
  4  5  1  0
  4  3  1  0
  5  6  1  1
  7  5  1  0
  7  8  2  0
  9  7  1  0
 10  9  1  0
 10 11  1  0
 11 18  1  0
 12 11  2  0
 13 14  1  0
 14 16  1  0
 15 14  2  0
 17 16  1  6
 17 19  1  0
 18 17  1  0
 19 21  1  0
 20 19  2  0
M  END
$$$$
