MGN.pdb
     RDKit          3D

 21 20  0  0  1  0  0  0  0  0999 V2000
   29.2546  -18.3525   -3.9466 C   0  0  0  0  0  0  0  0  0  0  0  0
   28.9366  -19.7825   -5.0114 S   0  0  0  0  0  0  0  0  0  0  0  0
   27.8377  -19.2745   -6.3550 C   0  0  0  0  0  0  0  0  0  0  0  0
   27.5803  -20.4470   -7.2755 C   0  0  0  0  0  0  0  0  0  0  0  0
   26.7013  -19.9607   -8.3936 C   0  0  2  0  0  0  0  0  0  0  0  0
   25.5094  -19.3797   -7.8611 N   0  0  0  0  0  0  0  0  0  0  0  0
   26.3716  -21.0221   -9.3666 C   0  0  0  0  0  0  0  0  0  0  0  0
   25.5380  -21.9397   -9.1250 O   0  0  0  0  0  0  0  0  0  0  0  0
   26.9958  -21.0395  -10.6235 N   0  0  0  0  0  0  0  0  0  0  0  0
   26.7302  -22.0724  -11.6264 C   0  0  0  0  0  0  0  0  0  0  0  0
   25.6843  -21.5929  -12.5586 C   0  0  0  0  0  0  0  0  0  0  0  0
   25.7468  -20.4220  -13.0270 O   0  0  0  0  0  0  0  0  0  0  0  0
   25.0338  -24.9699  -15.2195 N   0  0  0  0  0  0  0  0  0  0  0  0
   24.5982  -23.6689  -15.5879 C   0  0  0  0  0  0  0  0  0  0  0  0
   25.2752  -23.0493  -16.4442 O   0  0  0  0  0  0  0  0  0  0  0  0
   23.3925  -23.1279  -14.9525 C   0  0  0  0  0  0  0  0  0  0  0  0
   23.7160  -21.9867  -13.9941 C   0  0  2  0  0  0  0  0  0  0  0  0
   24.6049  -22.3968  -12.9537 N   0  0  0  0  0  0  0  0  0  0  0  0
   22.3980  -21.5101  -13.4781 C   0  0  0  0  0  0  0  0  0  0  0  0
   22.0237  -21.6577  -12.2928 O   0  0  0  0  0  0  0  0  0  0  0  0
   21.5643  -20.8725  -14.3858 O   0  0  0  0  0  0  0  0  0  0  0  0
  2  1  1  0
  3  2  1  0
  4  5  1  0
  4  3  1  0
  5  6  1  1
  7  5  1  0
  7  8  2  0
  9  7  1  0
 10  9  1  0
 10 11  1  0
 11 18  1  0
 12 11  2  0
 13 14  1  0
 14 16  1  0
 15 14  2  0
 17 16  1  6
 17 19  1  0
 18 17  1  0
 19 21  1  0
 20 19  2  0
M  END
$$$$
