MGN.pdb
     RDKit          3D

 21 20  0  0  1  0  0  0  0  0999 V2000
   13.6329  -15.5019  -16.6075 C   0  0  0  0  0  0  0  0  0  0  0  0
   14.1643  -14.3431  -15.3212 S   0  0  0  0  0  0  0  0  0  0  0  0
   15.3365  -13.1702  -16.0430 C   0  0  0  0  0  0  0  0  0  0  0  0
   15.6135  -12.0543  -15.0600 C   0  0  0  0  0  0  0  0  0  0  0  0
   16.6523  -11.1577  -15.6733 C   0  0  2  0  0  0  0  0  0  0  0  0
   17.9486  -11.7414  -15.5292 N   0  0  0  0  0  0  0  0  0  0  0  0
   16.6331   -9.7912  -15.1129 C   0  0  0  0  0  0  0  0  0  0  0  0
   15.6050   -9.0578  -15.1277 O   0  0  0  0  0  0  0  0  0  0  0  0
   17.7929   -9.2553  -14.5319 N   0  0  0  0  0  0  0  0  0  0  0  0
   17.8352   -7.9204  -13.9324 C   0  0  0  0  0  0  0  0  0  0  0  0
   19.1226   -7.2717  -14.2713 C   0  0  0  0  0  0  0  0  0  0  0  0
   20.0818   -7.9662  -14.7094 O   0  0  0  0  0  0  0  0  0  0  0  0
   21.7926   -2.3811  -15.9686 N   0  0  0  0  0  0  0  0  0  0  0  0
   21.7827   -3.1388  -14.7670 C   0  0  0  0  0  0  0  0  0  0  0  0
   22.8590   -3.2300  -14.1276 O   0  0  0  0  0  0  0  0  0  0  0  0
   20.5264   -3.7663  -14.3450 C   0  0  0  0  0  0  0  0  0  0  0  0
   20.5637   -5.2823  -14.5067 C   0  0  2  0  0  0  0  0  0  0  0  0
   19.3295   -5.8921  -14.1250 N   0  0  0  0  0  0  0  0  0  0  0  0
   21.7200   -5.7455  -13.6828 C   0  0  0  0  0  0  0  0  0  0  0  0
   22.9017   -5.7630  -14.0953 O   0  0  0  0  0  0  0  0  0  0  0  0
   21.4377   -6.1739  -12.3935 O   0  0  0  0  0  0  0  0  0  0  0  0
  2  1  1  0
  3  2  1  0
  4  5  1  0
  4  3  1  0
  5  6  1  1
  7  5  1  0
  7  8  2  0
  9  7  1  0
 10  9  1  0
 10 11  1  0
 11 18  1  0
 12 11  2  0
 13 14  1  0
 14 16  1  0
 15 14  2  0
 17 16  1  1
 17 19  1  0
 18 17  1  0
 19 21  1  0
 20 19  2  0
M  END
$$$$
