MGN.pdb
     RDKit          3D

 21 20  0  0  1  0  0  0  0  0999 V2000
   29.6293  -14.0530  -16.5582 C   0  0  0  0  0  0  0  0  0  0  0  0
   28.1511  -13.6443  -15.5952 S   0  0  0  0  0  0  0  0  0  0  0  0
   26.8770  -13.0253  -16.7196 C   0  0  0  0  0  0  0  0  0  0  0  0
   25.6523  -12.6190  -15.9299 C   0  0  0  0  0  0  0  0  0  0  0  0
   24.6212  -12.1343  -16.9104 C   0  0  2  0  0  0  0  0  0  0  0  0
   25.2231  -11.2453  -17.8534 N   0  0  0  0  0  0  0  0  0  0  0  0
   23.4648  -11.4904  -16.2547 C   0  0  0  0  0  0  0  0  0  0  0  0
   22.7713  -12.0640  -15.3686 O   0  0  0  0  0  0  0  0  0  0  0  0
   23.0948  -10.1842  -16.6107 N   0  0  0  0  0  0  0  0  0  0  0  0
   22.0304   -9.4475  -15.9269 C   0  0  0  0  0  0  0  0  0  0  0  0
   22.3492   -8.0014  -15.9397 C   0  0  0  0  0  0  0  0  0  0  0  0
   23.0406   -7.5171  -16.8788 O   0  0  0  0  0  0  0  0  0  0  0  0
   20.6273   -2.6058  -15.9044 N   0  0  0  0  0  0  0  0  0  0  0  0
   21.6002   -3.6079  -16.1641 C   0  0  0  0  0  0  0  0  0  0  0  0
   22.7341   -3.2322  -16.5494 O   0  0  0  0  0  0  0  0  0  0  0  0
   21.2280   -5.0127  -15.9689 C   0  0  0  0  0  0  0  0  0  0  0  0
   22.1720   -5.7243  -15.0054 C   0  0  2  0  0  0  0  0  0  0  0  0
   21.9089   -7.1267  -14.9356 N   0  0  0  0  0  0  0  0  0  0  0  0
   21.9997   -5.0346  -13.6919 C   0  0  0  0  0  0  0  0  0  0  0  0
   21.2144   -5.4286  -12.8004 O   0  0  0  0  0  0  0  0  0  0  0  0
   22.7656   -3.8976  -13.4772 O   0  0  0  0  0  0  0  0  0  0  0  0
  2  1  1  0
  3  2  1  0
  4  5  1  0
  4  3  1  0
  5  6  1  6
  7  5  1  0
  7  8  2  0
  9  7  1  0
 10  9  1  0
 10 11  1  0
 11 18  1  0
 12 11  2  0
 13 14  1  0
 14 16  1  0
 15 14  2  0
 17 16  1  6
 17 19  1  0
 18 17  1  0
 19 21  1  0
 20 19  2  0
M  END
$$$$
