MGN.pdb
     RDKit          3D

 21 20  0  0  1  0  0  0  0  0999 V2000
   27.8764  -18.8424   -4.2003 C   0  0  0  0  0  0  0  0  0  0  0  0
   28.1035  -18.9636   -5.9930 S   0  0  0  0  0  0  0  0  0  0  0  0
   27.0202  -20.2642   -6.6299 C   0  0  0  0  0  0  0  0  0  0  0  0
   27.2562  -20.4447   -8.1132 C   0  0  0  0  0  0  0  0  0  0  0  0
   25.9405  -20.2379   -8.8099 C   0  0  2  0  0  0  0  0  0  0  0  0
   24.9883  -21.1999   -8.3519 N   0  0  0  0  0  0  0  0  0  0  0  0
   26.0577  -20.2834  -10.2816 C   0  0  0  0  0  0  0  0  0  0  0  0
   26.5102  -19.3218  -10.9640 O   0  0  0  0  0  0  0  0  0  0  0  0
   25.6565  -21.4317  -10.9817 N   0  0  0  0  0  0  0  0  0  0  0  0
   25.7557  -21.5477  -12.4378 C   0  0  0  0  0  0  0  0  0  0  0  0
   24.3946  -21.5846  -13.0202 C   0  0  0  0  0  0  0  0  0  0  0  0
   24.2462  -21.5981  -14.2741 O   0  0  0  0  0  0  0  0  0  0  0  0
   20.4605  -23.0869  -14.4897 N   0  0  0  0  0  0  0  0  0  0  0  0
   20.1987  -23.2818  -13.1071 C   0  0  0  0  0  0  0  0  0  0  0  0
   19.3260  -24.1277  -12.7937 O   0  0  0  0  0  0  0  0  0  0  0  0
   20.9563  -22.4905  -12.1325 C   0  0  0  0  0  0  0  0  0  0  0  0
   21.9364  -21.5382  -12.8096 C   0  0  2  0  0  0  0  0  0  0  0  0
   23.2386  -21.6058  -12.2262 N   0  0  0  0  0  0  0  0  0  0  0  0
   21.3198  -20.1824  -12.6991 C   0  0  0  0  0  0  0  0  0  0  0  0
   20.1899  -19.8959  -13.1553 O   0  0  0  0  0  0  0  0  0  0  0  0
   22.0641  -19.2077  -12.0498 O   0  0  0  0  0  0  0  0  0  0  0  0
  2  1  1  0
  3  2  1  0
  4  5  1  0
  4  3  1  0
  5  6  1  1
  7  5  1  0
  7  8  2  0
  9  7  1  0
 10  9  1  0
 10 11  1  0
 11 18  1  0
 12 11  2  0
 13 14  1  0
 14 16  1  0
 15 14  2  0
 17 16  1  1
 17 19  1  0
 18 17  1  0
 19 21  1  0
 20 19  2  0
M  END
$$$$
