MGN.pdb
     RDKit          3D

 21 20  0  0  1  0  0  0  0  0999 V2000
   29.6376  -12.9466  -16.1111 C   0  0  0  0  0  0  0  0  0  0  0  0
   27.9705  -12.2398  -16.1399 S   0  0  0  0  0  0  0  0  0  0  0  0
   26.7662  -13.5861  -16.0514 C   0  0  0  0  0  0  0  0  0  0  0  0
   25.3638  -13.0214  -16.1054 C   0  0  0  0  0  0  0  0  0  0  0  0
   24.8109  -13.3115  -17.4726 C   0  0  2  0  0  0  0  0  0  0  0  0
   25.5117  -12.5472  -18.4557 N   0  0  0  0  0  0  0  0  0  0  0  0
   23.3568  -13.0692  -17.5662 C   0  0  0  0  0  0  0  0  0  0  0  0
   22.5136  -13.6652  -16.8390 O   0  0  0  0  0  0  0  0  0  0  0  0
   22.8589  -12.1420  -18.4947 N   0  0  0  0  0  0  0  0  0  0  0  0
   21.4321  -11.8428  -18.6293 C   0  0  0  0  0  0  0  0  0  0  0  0
   21.0633  -10.7740  -17.6729 C   0  0  0  0  0  0  0  0  0  0  0  0
   19.8958  -10.2933  -17.6851 O   0  0  0  0  0  0  0  0  0  0  0  0
   20.8482   -7.2652  -14.0961 N   0  0  0  0  0  0  0  0  0  0  0  0
   21.2279   -8.5040  -13.5137 C   0  0  0  0  0  0  0  0  0  0  0  0
   21.1889   -8.5951  -12.2624 O   0  0  0  0  0  0  0  0  0  0  0  0
   21.6403   -9.5972  -14.3996 C   0  0  0  0  0  0  0  0  0  0  0  0
   21.6112   -9.1837  -15.8673 C   0  0  2  0  0  0  0  0  0  0  0  0
   21.9704  -10.2607  -16.7343 N   0  0  0  0  0  0  0  0  0  0  0  0
   22.5381   -8.0176  -15.9741 C   0  0  0  0  0  0  0  0  0  0  0  0
   22.3730   -6.9424  -15.3548 O   0  0  0  0  0  0  0  0  0  0  0  0
   23.6334   -8.1639  -16.8135 O   0  0  0  0  0  0  0  0  0  0  0  0
  2  1  1  0
  3  2  1  0
  4  5  1  0
  4  3  1  0
  5  6  1  6
  7  5  1  0
  7  8  2  0
  9  7  1  0
 10  9  1  0
 10 11  1  0
 11 18  1  0
 12 11  2  0
 13 14  1  0
 14 16  1  0
 15 14  2  0
 17 16  1  1
 17 19  1  0
 18 17  1  0
 19 21  1  0
 20 19  2  0
M  END
$$$$
