LSN.pdb
     RDKit          3D

 23 22  0  0  1  0  0  0  0  0999 V2000
    8.8047  -13.1612   18.2961 C   0  0  0  0  0  0  0  0  0  0  0  0
    7.5692  -13.1352   19.1320 C   0  0  2  0  0  0  0  0  0  0  0  0
    6.8760  -11.7733   19.0862 C   0  0  0  0  0  0  0  0  0  0  0  0
    7.6643  -13.6771   20.5035 C   0  0  0  0  0  0  0  0  0  0  0  0
    8.2889  -14.9917   20.7317 C   0  0  2  0  0  0  0  0  0  0  0  0
    7.7683  -16.1209   20.0479 N   0  0  0  0  0  0  0  0  0  0  0  0
    8.3128  -15.3191   22.1951 C   0  0  0  0  0  0  0  0  0  0  0  0
    8.7767  -14.4656   22.9952 O   0  0  0  0  0  0  0  0  0  0  0  0
    6.9496  -18.9769   23.8018 O   0  0  0  0  0  0  0  0  0  0  0  0
    6.8498  -17.7957   24.5052 C   0  0  0  0  0  0  0  0  0  0  0  0
    7.9503  -16.8017   24.1765 C   0  0  2  0  0  0  0  0  0  0  0  0
    7.8441  -16.5354   22.7472 N   0  0  0  0  0  0  0  0  0  0  0  0
    9.2644  -17.3337   24.5416 C   0  0  0  0  0  0  0  0  0  0  0  0
   10.1379  -17.5672   23.6689 O   0  0  0  0  0  0  0  0  0  0  0  0
   12.1922  -18.1249   23.7514 N   0  0  0  0  0  0  0  0  0  0  0  0
   12.5803  -17.0791   24.6500 C   0  0  0  0  0  0  0  0  0  0  0  0
   13.4607  -16.2477   24.3211 O   0  0  0  0  0  0  0  0  0  0  0  0
   11.9353  -16.9919   25.9609 C   0  0  0  0  0  0  0  0  0  0  0  0
   10.9421  -18.0538   26.2650 C   0  0  2  0  0  0  0  0  0  0  0  0
    9.5977  -17.6048   25.9051 N   0  0  0  0  0  0  0  0  0  0  0  0
   10.9747  -18.4597   27.7001 C   0  0  0  0  0  0  0  0  0  0  0  0
   10.0974  -18.1316   28.5095 O   0  0  0  0  0  0  0  0  0  0  0  0
   12.0272  -19.2360   28.1541 O   0  0  0  0  0  0  0  0  0  0  0  0
  2  3  1  1
  2  1  1  0
  4  2  1  0
  5  6  1  6
  5  4  1  0
  5  7  1  0
  7 12  1  0
  7  8  2  0
  9 10  1  0
 11 10  1  6
 11 13  1  0
 12 11  1  0
 13 20  1  0
 14 13  2  0
 16 15  1  0
 17 16  2  0
 18 16  1  0
 19 18  1  1
 20 19  1  0
 21 19  1  0
 21 23  1  0
 22 21  2  0
M  END
$$$$
