LSN.pdb
     RDKit          3D

 23 22  0  0  1  0  0  0  0  0999 V2000
   11.2707  -17.6675   12.4703 C   0  0  0  0  0  0  0  0  0  0  0  0
   11.0358  -16.2124   12.7009 C   0  0  2  0  0  0  0  0  0  0  0  0
   11.5106  -15.3623   11.5223 C   0  0  0  0  0  0  0  0  0  0  0  0
   11.4500  -15.6549   14.0053 C   0  0  0  0  0  0  0  0  0  0  0  0
   11.0248  -16.3126   15.2531 C   0  0  2  0  0  0  0  0  0  0  0  0
    9.6410  -16.5488   15.4610 N   0  0  0  0  0  0  0  0  0  0  0  0
   11.5417  -15.5665   16.4470 C   0  0  0  0  0  0  0  0  0  0  0  0
   12.7456  -15.1998   16.4525 O   0  0  0  0  0  0  0  0  0  0  0  0
    9.3659  -15.0332   20.0632 O   0  0  0  0  0  0  0  0  0  0  0  0
   10.2163  -14.0629   19.5780 C   0  0  0  0  0  0  0  0  0  0  0  0
   11.3648  -14.6220   18.7561 C   0  0  2  0  0  0  0  0  0  0  0  0
   10.7614  -15.2408   17.5823 N   0  0  0  0  0  0  0  0  0  0  0  0
   12.1540  -15.5758   19.5375 C   0  0  0  0  0  0  0  0  0  0  0  0
   11.8488  -16.7941   19.5787 O   0  0  0  0  0  0  0  0  0  0  0  0
   15.3705  -13.6209   21.0732 N   0  0  0  0  0  0  0  0  0  0  0  0
   16.1458  -14.7552   20.6681 C   0  0  0  0  0  0  0  0  0  0  0  0
   17.3543  -14.6252   20.3569 O   0  0  0  0  0  0  0  0  0  0  0  0
   15.5088  -16.0721   20.6215 C   0  0  0  0  0  0  0  0  0  0  0  0
   14.0861  -16.1179   21.0463 C   0  0  2  0  0  0  0  0  0  0  0  0
   13.2997  -15.1520   20.2800 N   0  0  0  0  0  0  0  0  0  0  0  0
   13.9269  -15.8578   22.5066 C   0  0  0  0  0  0  0  0  0  0  0  0
   14.4692  -16.5544   23.3744 O   0  0  0  0  0  0  0  0  0  0  0  0
   13.1410  -14.7946   22.9170 O   0  0  0  0  0  0  0  0  0  0  0  0
  2  3  1  6
  2  1  1  0
  4  2  1  0
  5  6  1  1
  5  4  1  0
  5  7  1  0
  7 12  1  0
  7  8  2  0
  9 10  1  0
 11 10  1  1
 11 13  1  0
 12 11  1  0
 13 20  1  0
 14 13  2  0
 16 15  1  0
 17 16  2  0
 18 16  1  0
 19 18  1  6
 20 19  1  0
 21 19  1  0
 21 23  1  0
 22 21  2  0
M  END
$$$$
