LSN.pdb
     RDKit          3D

 23 22  0  0  1  0  0  0  0  0999 V2000
    6.5233  -12.0392   24.7092 C   0  0  0  0  0  0  0  0  0  0  0  0
    6.2877  -12.8436   25.9433 C   0  0  2  0  0  0  0  0  0  0  0  0
    6.3734  -11.9892   27.2083 C   0  0  0  0  0  0  0  0  0  0  0  0
    7.0184  -14.1218   26.0720 C   0  0  0  0  0  0  0  0  0  0  0  0
    6.8120  -15.1885   25.0771 C   0  0  2  0  0  0  0  0  0  0  0  0
    5.6412  -15.9854   25.1660 N   0  0  0  0  0  0  0  0  0  0  0  0
    7.9902  -16.1159   25.0440 C   0  0  0  0  0  0  0  0  0  0  0  0
    8.1386  -16.9343   25.9884 O   0  0  0  0  0  0  0  0  0  0  0  0
   10.6052  -15.8806   22.0074 O   0  0  0  0  0  0  0  0  0  0  0  0
   10.6358  -17.1097   22.6305 C   0  0  0  0  0  0  0  0  0  0  0  0
   10.0626  -17.0888   24.0369 C   0  0  2  0  0  0  0  0  0  0  0  0
    8.9593  -16.1365   24.0122 N   0  0  0  0  0  0  0  0  0  0  0  0
   11.0868  -16.7203   25.0158 C   0  0  0  0  0  0  0  0  0  0  0  0
   11.7552  -15.6633   24.8924 O   0  0  0  0  0  0  0  0  0  0  0  0
    9.8472  -15.9010   29.1942 N   0  0  0  0  0  0  0  0  0  0  0  0
   11.0301  -15.7640   28.3981 C   0  0  0  0  0  0  0  0  0  0  0  0
   11.2345  -14.7210   27.7312 O   0  0  0  0  0  0  0  0  0  0  0  0
   12.0006  -16.8592   28.3719 C   0  0  0  0  0  0  0  0  0  0  0  0
   12.4899  -17.2580   27.0272 C   0  0  2  0  0  0  0  0  0  0  0  0
   11.3602  -17.5516   26.1463 N   0  0  0  0  0  0  0  0  0  0  0  0
   13.4054  -18.4342   27.0882 C   0  0  0  0  0  0  0  0  0  0  0  0
   14.4469  -18.4388   27.7572 O   0  0  0  0  0  0  0  0  0  0  0  0
   13.0841  -19.5725   26.3689 O   0  0  0  0  0  0  0  0  0  0  0  0
  2  3  1  1
  2  1  1  0
  4  2  1  0
  5  6  1  1
  5  4  1  0
  5  7  1  0
  7 12  1  0
  7  8  2  0
  9 10  1  0
 11 10  1  6
 11 13  1  0
 12 11  1  0
 13 20  1  0
 14 13  2  0
 16 15  1  0
 17 16  2  0
 18 16  1  0
 19 18  1  1
 20 19  1  0
 21 19  1  0
 21 23  1  0
 22 21  2  0
M  END
$$$$
