LSN.pdb
     RDKit          3D

 23 22  0  0  1  0  0  0  0  0999 V2000
    8.4675  -13.6224   18.3319 C   0  0  0  0  0  0  0  0  0  0  0  0
    7.5568  -13.2994   19.4685 C   0  0  2  0  0  0  0  0  0  0  0  0
    7.0643  -11.8530   19.4138 C   0  0  0  0  0  0  0  0  0  0  0  0
    7.9911  -13.6995   20.8232 C   0  0  0  0  0  0  0  0  0  0  0  0
    8.3213  -15.1079   21.1021 C   0  0  2  0  0  0  0  0  0  0  0  0
    7.4190  -16.1163   20.6746 N   0  0  0  0  0  0  0  0  0  0  0  0
    8.5696  -15.3128   22.5668 C   0  0  0  0  0  0  0  0  0  0  0  0
    9.4812  -14.6459   23.1218 O   0  0  0  0  0  0  0  0  0  0  0  0
    6.4404  -18.0796   24.9283 O   0  0  0  0  0  0  0  0  0  0  0  0
    6.9054  -16.8959   25.4599 C   0  0  0  0  0  0  0  0  0  0  0  0
    8.1701  -16.3879   24.7895 C   0  0  2  0  0  0  0  0  0  0  0  0
    7.8416  -16.2144   23.3799 N   0  0  0  0  0  0  0  0  0  0  0  0
    9.2799  -17.3222   24.9857 C   0  0  0  0  0  0  0  0  0  0  0  0
    9.4402  -18.3114   24.2275 O   0  0  0  0  0  0  0  0  0  0  0  0
   12.8389  -16.1339   24.0767 N   0  0  0  0  0  0  0  0  0  0  0  0
   12.7984  -17.4806   24.5631 C   0  0  0  0  0  0  0  0  0  0  0  0
   12.9593  -18.4479   23.7804 O   0  0  0  0  0  0  0  0  0  0  0  0
   12.5663  -17.7151   25.9890 C   0  0  0  0  0  0  0  0  0  0  0  0
   11.2028  -18.1771   26.3550 C   0  0  2  0  0  0  0  0  0  0  0  0
   10.2194  -17.1393   26.0475 N   0  0  0  0  0  0  0  0  0  0  0  0
   11.1058  -18.5583   27.7939 C   0  0  0  0  0  0  0  0  0  0  0  0
   11.8149  -19.4355   28.3041 O   0  0  0  0  0  0  0  0  0  0  0  0
   10.1865  -17.9087   28.5997 O   0  0  0  0  0  0  0  0  0  0  0  0
  2  3  1  1
  2  1  1  0
  4  2  1  0
  5  6  1  1
  5  4  1  0
  5  7  1  0
  7 12  1  0
  7  8  2  0
  9 10  1  0
 11 10  1  1
 11 13  1  0
 12 11  1  0
 13 20  1  0
 14 13  2  0
 16 15  1  0
 17 16  2  0
 18 16  1  0
 19 18  1  1
 20 19  1  0
 21 19  1  0
 21 23  1  0
 22 21  2  0
M  END
$$$$
