LSN.pdb
     RDKit          3D

 23 22  0  0  1  0  0  0  0  0999 V2000
    8.1086  -13.1749   27.4465 C   0  0  0  0  0  0  0  0  0  0  0  0
    7.4657  -13.7157   26.2137 C   0  0  2  0  0  0  0  0  0  0  0  0
    6.6642  -12.6467   25.4704 C   0  0  0  0  0  0  0  0  0  0  0  0
    6.7325  -14.9932   26.3333 C   0  0  0  0  0  0  0  0  0  0  0  0
    6.3390  -15.7300   25.1198 C   0  0  2  0  0  0  0  0  0  0  0  0
    5.5334  -16.8900   25.2587 N   0  0  0  0  0  0  0  0  0  0  0  0
    7.5472  -16.1105   24.3170 C   0  0  0  0  0  0  0  0  0  0  0  0
    8.2164  -17.1142   24.6756 O   0  0  0  0  0  0  0  0  0  0  0  0
   10.4350  -15.1490   20.4882 O   0  0  0  0  0  0  0  0  0  0  0  0
    9.3335  -14.8849   21.2736 C   0  0  0  0  0  0  0  0  0  0  0  0
    9.1678  -15.8570   22.4288 C   0  0  2  0  0  0  0  0  0  0  0  0
    7.9936  -15.4121   23.1693 N   0  0  0  0  0  0  0  0  0  0  0  0
   10.3684  -15.8871   23.2660 C   0  0  0  0  0  0  0  0  0  0  0  0
   10.5981  -14.9828   24.1078 O   0  0  0  0  0  0  0  0  0  0  0  0
   11.8664  -18.9024   26.9498 N   0  0  0  0  0  0  0  0  0  0  0  0
   12.7854  -18.1614   26.1386 C   0  0  0  0  0  0  0  0  0  0  0  0
   13.6752  -17.4514   26.6663 O   0  0  0  0  0  0  0  0  0  0  0  0
   12.6733  -18.2428   24.6815 C   0  0  0  0  0  0  0  0  0  0  0  0
   12.5330  -16.9463   23.9701 C   0  0  2  0  0  0  0  0  0  0  0  0
   11.3199  -16.9480   23.1535 N   0  0  0  0  0  0  0  0  0  0  0  0
   13.7187  -16.6417   23.1177 C   0  0  0  0  0  0  0  0  0  0  0  0
   13.7803  -16.9502   21.9204 O   0  0  0  0  0  0  0  0  0  0  0  0
   14.8000  -15.9865   23.6816 O   0  0  0  0  0  0  0  0  0  0  0  0
  2  3  1  1
  2  1  1  0
  4  2  1  0
  5  6  1  1
  5  4  1  0
  5  7  1  0
  7 12  1  0
  7  8  2  0
  9 10  1  0
 11 10  1  6
 11 13  1  0
 12 11  1  0
 13 20  1  0
 14 13  2  0
 16 15  1  0
 17 16  2  0
 18 16  1  0
 19 18  1  6
 20 19  1  0
 21 19  1  0
 21 23  1  0
 22 21  2  0
M  END
$$$$
