LSN.pdb
     RDKit          3D

 23 22  0  0  1  0  0  0  0  0999 V2000
    8.2067  -11.8626   19.3372 C   0  0  0  0  0  0  0  0  0  0  0  0
    8.2142  -13.3538   19.3816 C   0  0  2  0  0  0  0  0  0  0  0  0
    6.8803  -13.9465   18.9267 C   0  0  0  0  0  0  0  0  0  0  0  0
    8.7305  -13.9953   20.6087 C   0  0  0  0  0  0  0  0  0  0  0  0
    9.5136  -15.2394   20.5128 C   0  0  2  0  0  0  0  0  0  0  0  0
    9.2167  -16.1521   19.4675 N   0  0  0  0  0  0  0  0  0  0  0  0
    9.4615  -15.9981   21.8055 C   0  0  0  0  0  0  0  0  0  0  0  0
    8.5789  -15.6910   22.6484 O   0  0  0  0  0  0  0  0  0  0  0  0
   12.5386  -18.5386   23.3292 O   0  0  0  0  0  0  0  0  0  0  0  0
   11.2076  -18.8927   23.3838 C   0  0  0  0  0  0  0  0  0  0  0  0
   10.2675  -17.7015   23.4500 C   0  0  2  0  0  0  0  0  0  0  0  0
   10.3457  -17.0490   22.1488 N   0  0  0  0  0  0  0  0  0  0  0  0
   10.6389  -16.7997   24.5418 C   0  0  0  0  0  0  0  0  0  0  0  0
   11.4405  -15.8496   24.3576 O   0  0  0  0  0  0  0  0  0  0  0  0
    9.2754  -12.8450   28.3888 N   0  0  0  0  0  0  0  0  0  0  0  0
   10.1063  -13.9854   28.1418 C   0  0  0  0  0  0  0  0  0  0  0  0
   11.1259  -14.1970   28.8417 O   0  0  0  0  0  0  0  0  0  0  0  0
    9.7500  -14.9038   27.0593 C   0  0  0  0  0  0  0  0  0  0  0  0
   10.5696  -16.1389   26.9629 C   0  0  2  0  0  0  0  0  0  0  0  0
   10.1005  -16.9702   25.8551 N   0  0  0  0  0  0  0  0  0  0  0  0
   10.5526  -16.9252   28.2305 C   0  0  0  0  0  0  0  0  0  0  0  0
    9.9773  -18.0164   28.3346 O   0  0  0  0  0  0  0  0  0  0  0  0
   11.2051  -16.4204   29.3421 O   0  0  0  0  0  0  0  0  0  0  0  0
  2  3  1  1
  2  1  1  0
  4  2  1  0
  5  6  1  6
  5  4  1  0
  5  7  1  0
  7 12  1  0
  7  8  2  0
  9 10  1  0
 11 10  1  6
 11 13  1  0
 12 11  1  0
 13 20  1  0
 14 13  2  0
 16 15  1  0
 17 16  2  0
 18 16  1  0
 19 18  1  1
 20 19  1  0
 21 19  1  0
 21 23  1  0
 22 21  2  0
M  END
$$$$
