LSN.pdb
     RDKit          3D

 23 22  0  0  1  0  0  0  0  0999 V2000
    9.3881  -12.5241   19.2359 C   0  0  0  0  0  0  0  0  0  0  0  0
    8.1888  -13.3764   19.4823 C   0  0  2  0  0  0  0  0  0  0  0  0
    6.8883  -12.5808   19.3687 C   0  0  0  0  0  0  0  0  0  0  0  0
    8.2125  -14.2576   20.6685 C   0  0  0  0  0  0  0  0  0  0  0  0
    9.3752  -15.1288   20.9125 C   0  0  2  0  0  0  0  0  0  0  0  0
    9.7656  -16.0430   19.8998 N   0  0  0  0  0  0  0  0  0  0  0  0
    9.1954  -15.9075   22.1816 C   0  0  0  0  0  0  0  0  0  0  0  0
    8.4062  -15.4616   23.0546 O   0  0  0  0  0  0  0  0  0  0  0  0
   11.5216  -19.2897   23.3608 O   0  0  0  0  0  0  0  0  0  0  0  0
   10.1540  -19.2382   23.5249 C   0  0  0  0  0  0  0  0  0  0  0  0
    9.6219  -17.8296   23.7241 C   0  0  2  0  0  0  0  0  0  0  0  0
    9.8586  -17.1243   22.4705 N   0  0  0  0  0  0  0  0  0  0  0  0
   10.2792  -17.1754   24.8569 C   0  0  0  0  0  0  0  0  0  0  0  0
   11.2715  -16.4230   24.6883 O   0  0  0  0  0  0  0  0  0  0  0  0
   11.4266  -13.8435   27.4167 N   0  0  0  0  0  0  0  0  0  0  0  0
   10.4143  -14.4014   28.2627 C   0  0  0  0  0  0  0  0  0  0  0  0
   10.1717  -13.8984   29.3863 O   0  0  0  0  0  0  0  0  0  0  0  0
    9.6640  -15.5694   27.7989 C   0  0  0  0  0  0  0  0  0  0  0  0
   10.4804  -16.7127   27.3164 C   0  0  2  0  0  0  0  0  0  0  0  0
    9.8128  -17.3709   26.1940 N   0  0  0  0  0  0  0  0  0  0  0  0
   10.7534  -17.7042   28.3971 C   0  0  0  0  0  0  0  0  0  0  0  0
   10.0583  -18.7135   28.5718 O   0  0  0  0  0  0  0  0  0  0  0  0
   11.8276  -17.4941   29.2447 O   0  0  0  0  0  0  0  0  0  0  0  0
  2  3  1  1
  2  1  1  0
  4  2  1  0
  5  6  1  6
  5  4  1  0
  5  7  1  0
  7 12  1  0
  7  8  2  0
  9 10  1  0
 11 10  1  6
 11 13  1  0
 12 11  1  0
 13 20  1  0
 14 13  2  0
 16 15  1  0
 17 16  2  0
 18 16  1  0
 19 18  1  1
 20 19  1  0
 21 19  1  0
 21 23  1  0
 22 21  2  0
M  END
$$$$
