LHP.pdb
     RDKit          3D

 26 27  0  0  1  0  0  0  0  0999 V2000
   25.5876  -22.0477   -8.9982 C   0  0  0  0  0  0  0  0  0  0  0  0
   24.6725  -21.2596   -9.9104 C   0  0  1  0  0  0  0  0  0  0  0  0
   23.8281  -20.3798   -8.9981 C   0  0  0  0  0  0  0  0  0  0  0  0
   25.4286  -20.3985  -10.8622 C   0  0  0  0  0  0  0  0  0  0  0  0
   24.5582  -19.7553  -11.9003 C   0  0  2  0  0  0  0  0  0  0  0  0
   23.4038  -20.6179  -12.1757 N   0  0  0  0  0  0  0  0  0  0  0  0
   25.2292  -19.5092  -13.1754 C   0  0  0  0  0  0  0  0  0  0  0  0
   26.4942  -19.3735  -13.2059 O   0  0  0  0  0  0  0  0  0  0  0  0
   24.5027  -19.4161  -14.3948 N   0  0  0  0  0  0  0  0  0  0  0  0
   25.2513  -19.1247  -15.6381 C   0  0  1  0  0  0  0  0  0  0  0  0
   24.5544  -19.8059  -16.7670 C   0  0  0  0  0  0  0  0  0  0  0  0
   25.0788  -19.6471  -18.1102 C   0  0  0  0  0  0  0  0  0  0  0  0
   26.0216  -20.2776  -18.8434 C   0  0  0  0  0  0  0  0  0  0  0  0
   26.0586  -19.7734  -20.1147 N   0  0  0  0  0  0  0  0  0  0  0  0
   25.1222  -18.8294  -20.1409 C   0  0  0  0  0  0  0  0  0  0  0  0
   24.5148  -18.7215  -18.9695 N   0  0  0  0  0  0  0  0  0  0  0  0
   25.3547  -17.6592  -15.8153 C   0  0  0  0  0  0  0  0  0  0  0  0
   24.3302  -16.9404  -15.6588 O   0  0  0  0  0  0  0  0  0  0  0  0
   26.5493  -16.9296  -16.1650 N   0  0  0  0  0  0  0  0  0  0  0  0
   27.8887  -17.4138  -16.3337 C   0  0  0  0  0  0  0  0  0  0  0  0
   28.7662  -16.1978  -16.6749 C   0  0  0  0  0  0  0  0  0  0  0  0
   27.7645  -15.2916  -17.3185 C   0  0  0  0  0  0  0  0  0  0  0  0
   26.5492  -15.4801  -16.4352 C   0  0  1  0  0  0  0  0  0  0  0  0
   25.3468  -15.0852  -17.2442 C   0  0  0  0  0  0  0  0  0  0  0  0
   24.8952  -15.8380  -18.1184 O   0  0  0  0  0  0  0  0  0  0  0  0
   24.7398  -13.8686  -17.0087 O   0  0  0  0  0  0  0  0  0  0  0  0
  2  3  1  1
  2  1  1  0
  4  2  1  0
  5  4  1  0
  5  6  1  6
  7  8  2  0
  7  5  1  0
  9  7  1  0
 10  9  1  0
 10 11  1  6
 11 12  1  0
 12 13  2  0
 12 16  1  0
 13 14  1  0
 14 15  1  0
 16 15  2  0
 17 18  2  0
 17 10  1  0
 19 17  1  0
 20 19  1  0
 21 20  1  0
 22 23  1  0
 22 21  1  0
 23 19  1  0
 24 26  1  0
 23 24  1  6
 25 24  2  0
M  END
$$$$
