LHP.pdb
     RDKit          3D

 26 27  0  0  1  0  0  0  0  0999 V2000
   22.6957  -23.2177  -14.5831 C   0  0  0  0  0  0  0  0  0  0  0  0
   24.1103  -23.4356  -15.0750 C   0  0  1  0  0  0  0  0  0  0  0  0
   24.9596  -23.6448  -13.8284 C   0  0  0  0  0  0  0  0  0  0  0  0
   24.2244  -24.6326  -15.9545 C   0  0  0  0  0  0  0  0  0  0  0  0
   25.6340  -24.9311  -16.3703 C   0  0  2  0  0  0  0  0  0  0  0  0
   26.0819  -23.9274  -17.3421 N   0  0  0  0  0  0  0  0  0  0  0  0
   25.8103  -26.2431  -16.9900 C   0  0  0  0  0  0  0  0  0  0  0  0
   25.5258  -26.4025  -18.2201 O   0  0  0  0  0  0  0  0  0  0  0  0
   26.2953  -27.3578  -16.2512 N   0  0  0  0  0  0  0  0  0  0  0  0
   26.5093  -28.6357  -16.9670 C   0  0  1  0  0  0  0  0  0  0  0  0
   27.7953  -29.2219  -16.4908 C   0  0  0  0  0  0  0  0  0  0  0  0
   28.2184  -30.5038  -17.0219 C   0  0  0  0  0  0  0  0  0  0  0  0
   27.7667  -31.3264  -17.9931 C   0  0  0  0  0  0  0  0  0  0  0  0
   28.6086  -32.3935  -18.1492 N   0  0  0  0  0  0  0  0  0  0  0  0
   29.5783  -32.2035  -17.2590 C   0  0  0  0  0  0  0  0  0  0  0  0
   29.3855  -31.0910  -16.5676 N   0  0  0  0  0  0  0  0  0  0  0  0
   25.3458  -29.5224  -16.7443 C   0  0  0  0  0  0  0  0  0  0  0  0
   25.0049  -29.8165  -15.5662 O   0  0  0  0  0  0  0  0  0  0  0  0
   24.5233  -30.1160  -17.7705 N   0  0  0  0  0  0  0  0  0  0  0  0
   24.6219  -29.9888  -19.1956 C   0  0  0  0  0  0  0  0  0  0  0  0
   23.4711  -30.8100  -19.8005 C   0  0  0  0  0  0  0  0  0  0  0  0
   23.2592  -31.8377  -18.7338 C   0  0  0  0  0  0  0  0  0  0  0  0
   23.3964  -31.0176  -17.4684 C   0  0  1  0  0  0  0  0  0  0  0  0
   23.7514  -31.9673  -16.3602 C   0  0  0  0  0  0  0  0  0  0  0  0
   24.8880  -31.9708  -15.8672 O   0  0  0  0  0  0  0  0  0  0  0  0
   22.7979  -32.8456  -15.8872 O   0  0  0  0  0  0  0  0  0  0  0  0
  2  3  1  1
  2  1  1  0
  4  2  1  0
  5  4  1  0
  5  6  1  6
  7  8  2  0
  7  5  1  0
  9  7  1  0
 10  9  1  0
 10 11  1  1
 11 12  1  0
 12 13  2  0
 12 16  1  0
 13 14  1  0
 14 15  1  0
 16 15  2  0
 17 18  2  0
 17 10  1  0
 19 17  1  0
 20 19  1  0
 21 20  1  0
 22 23  1  0
 22 21  1  0
 23 19  1  0
 24 26  1  0
 23 24  1  1
 25 24  2  0
M  END
$$$$
