LHP.pdb
     RDKit          3D

 26 27  0  0  1  0  0  0  0  0999 V2000
   33.0874  -34.3134   -7.0808 C   0  0  0  0  0  0  0  0  0  0  0  0
   31.9630  -34.8590   -6.2272 C   0  0  1  0  0  0  0  0  0  0  0  0
   32.3036  -36.3209   -5.9705 C   0  0  0  0  0  0  0  0  0  0  0  0
   31.8451  -34.1453   -4.9249 C   0  0  0  0  0  0  0  0  0  0  0  0
   30.6211  -34.5279   -4.1475 C   0  0  2  0  0  0  0  0  0  0  0  0
   29.4241  -34.0601   -4.8553 N   0  0  0  0  0  0  0  0  0  0  0  0
   30.5712  -33.9709   -2.7970 C   0  0  0  0  0  0  0  0  0  0  0  0
   30.2089  -32.7629   -2.6264 O   0  0  0  0  0  0  0  0  0  0  0  0
   30.9192  -34.7471   -1.6568 N   0  0  0  0  0  0  0  0  0  0  0  0
   30.9687  -34.0758   -0.3385 C   0  0  1  0  0  0  0  0  0  0  0  0
   29.8360  -34.5899    0.4843 C   0  0  0  0  0  0  0  0  0  0  0  0
   29.5303  -33.9333    1.7412 C   0  0  0  0  0  0  0  0  0  0  0  0
   28.7920  -32.8603    2.0983 C   0  0  0  0  0  0  0  0  0  0  0  0
   28.7673  -32.7254    3.4596 N   0  0  0  0  0  0  0  0  0  0  0  0
   29.5003  -33.7344    3.9216 C   0  0  0  0  0  0  0  0  0  0  0  0
   29.9728  -34.4779    2.9331 N   0  0  0  0  0  0  0  0  0  0  0  0
   32.2925  -34.3090    0.2804 C   0  0  0  0  0  0  0  0  0  0  0  0
   32.7375  -35.4856    0.3713 O   0  0  0  0  0  0  0  0  0  0  0  0
   33.1679  -33.2955    0.8172 N   0  0  0  0  0  0  0  0  0  0  0  0
   32.9840  -31.8740    0.8660 C   0  0  0  0  0  0  0  0  0  0  0  0
   34.2439  -31.2802    1.5178 C   0  0  0  0  0  0  0  0  0  0  0  0
   34.6967  -32.4268    2.3659 C   0  0  0  0  0  0  0  0  0  0  0  0
   34.4598  -33.6119    1.4537 C   0  0  1  0  0  0  0  0  0  0  0  0
   34.3438  -34.8283    2.3273 C   0  0  0  0  0  0  0  0  0  0  0  0
   33.2515  -35.3894    2.4919 O   0  0  0  0  0  0  0  0  0  0  0  0
   35.4691  -35.3248    2.9528 O   0  0  0  0  0  0  0  0  0  0  0  0
  2  3  1  1
  2  1  1  0
  4  2  1  0
  5  4  1  0
  5  6  1  6
  7  8  2  0
  7  5  1  0
  9  7  1  0
 10  9  1  0
 10 11  1  1
 11 12  1  0
 12 13  2  0
 12 16  1  0
 13 14  1  0
 14 15  1  0
 16 15  2  0
 17 18  2  0
 17 10  1  0
 19 17  1  0
 20 19  1  0
 21 20  1  0
 22 23  1  0
 22 21  1  0
 23 19  1  0
 24 26  1  0
 23 24  1  1
 25 24  2  0
M  END
$$$$
