LHP.pdb
     RDKit          3D

 26 27  0  0  1  0  0  0  0  0999 V2000
   14.2591   -9.7016  -16.4878 C   0  0  0  0  0  0  0  0  0  0  0  0
   15.5572  -10.4616  -16.6544 C   0  0  1  0  0  0  0  0  0  0  0  0
   15.9222  -10.3492  -18.1287 C   0  0  0  0  0  0  0  0  0  0  0  0
   16.6575   -9.8878  -15.8302 C   0  0  0  0  0  0  0  0  0  0  0  0
   17.9718  -10.5822  -16.0289 C   0  0  2  0  0  0  0  0  0  0  0  0
   17.9537  -11.8747  -15.3349 N   0  0  0  0  0  0  0  0  0  0  0  0
   19.1246   -9.8369  -15.5268 C   0  0  0  0  0  0  0  0  0  0  0  0
   19.3811   -9.8374  -14.2802 O   0  0  0  0  0  0  0  0  0  0  0  0
   19.9764   -9.1041  -16.3991 N   0  0  0  0  0  0  0  0  0  0  0  0
   21.1445   -8.4054  -15.8171 C   0  0  1  0  0  0  0  0  0  0  0  0
   22.3663   -8.8737  -16.5327 C   0  0  0  0  0  0  0  0  0  0  0  0
   22.9142  -10.1757  -16.2024 C   0  0  0  0  0  0  0  0  0  0  0  0
   22.5801  -11.1555  -15.3351 C   0  0  0  0  0  0  0  0  0  0  0  0
   23.3995  -12.2393  -15.4955 N   0  0  0  0  0  0  0  0  0  0  0  0
   24.2337  -11.9017  -16.4748 C   0  0  0  0  0  0  0  0  0  0  0  0
   23.9798  -10.6825  -16.9241 N   0  0  0  0  0  0  0  0  0  0  0  0
   20.9374   -6.9432  -15.9113 C   0  0  0  0  0  0  0  0  0  0  0  0
   20.4592   -6.4501  -16.9691 O   0  0  0  0  0  0  0  0  0  0  0  0
   21.2372   -5.9764  -14.8832 N   0  0  0  0  0  0  0  0  0  0  0  0
   21.6577   -6.1955  -13.5296 C   0  0  0  0  0  0  0  0  0  0  0  0
   21.8026   -4.8117  -12.8748 C   0  0  0  0  0  0  0  0  0  0  0  0
   22.1071   -3.9598  -14.0666 C   0  0  0  0  0  0  0  0  0  0  0  0
   21.1642   -4.5212  -15.1099 C   0  0  1  0  0  0  0  0  0  0  0  0
   21.7247   -4.1592  -16.4556 C   0  0  0  0  0  0  0  0  0  0  0  0
   22.4965   -4.9257  -17.0486 O   0  0  0  0  0  0  0  0  0  0  0  0
   21.3740   -2.9575  -17.0362 O   0  0  0  0  0  0  0  0  0  0  0  0
  2  3  1  6
  2  1  1  0
  4  2  1  0
  5  4  1  0
  5  6  1  1
  7  8  2  0
  7  5  1  0
  9  7  1  0
 10  9  1  0
 10 11  1  6
 11 12  1  0
 12 13  2  0
 12 16  1  0
 13 14  1  0
 14 15  1  0
 16 15  2  0
 17 18  2  0
 17 10  1  0
 19 17  1  0
 20 19  1  0
 21 20  1  0
 22 23  1  0
 22 21  1  0
 23 19  1  0
 24 26  1  0
 23 24  1  6
 25 24  2  0
M  END
$$$$
