LHP.pdb
     RDKit          3D

 26 27  0  0  1  0  0  0  0  0999 V2000
   20.8811  -11.4670    7.5470 C   0  0  0  0  0  0  0  0  0  0  0  0
   19.7548  -11.5884    6.5433 C   0  0  1  0  0  0  0  0  0  0  0  0
   20.4152  -11.5926    5.1711 C   0  0  0  0  0  0  0  0  0  0  0  0
   18.9757  -12.8460    6.7180 C   0  0  0  0  0  0  0  0  0  0  0  0
   17.8823  -13.0121    5.7052 C   0  0  2  0  0  0  0  0  0  0  0  0
   16.8086  -12.0506    5.9800 N   0  0  0  0  0  0  0  0  0  0  0  0
   17.2782  -14.3431    5.6890 C   0  0  0  0  0  0  0  0  0  0  0  0
   16.2392  -14.5722    6.3872 O   0  0  0  0  0  0  0  0  0  0  0  0
   17.8231  -15.3999    4.9081 N   0  0  0  0  0  0  0  0  0  0  0  0
   17.2059  -16.7413    5.0132 C   0  0  1  0  0  0  0  0  0  0  0  0
   17.1010  -17.3101    3.6385 C   0  0  0  0  0  0  0  0  0  0  0  0
   16.4348  -18.5862    3.4588 C   0  0  0  0  0  0  0  0  0  0  0  0
   15.1462  -18.9848    3.3918 C   0  0  0  0  0  0  0  0  0  0  0  0
   15.0708  -20.3226    3.1150 N   0  0  0  0  0  0  0  0  0  0  0  0
   16.3334  -20.7276    3.0134 C   0  0  0  0  0  0  0  0  0  0  0  0
   17.1772  -19.7265    3.2103 N   0  0  0  0  0  0  0  0  0  0  0  0
   18.0084  -17.5790    5.9317 C   0  0  0  0  0  0  0  0  0  0  0  0
   19.2626  -17.6162    5.8034 O   0  0  0  0  0  0  0  0  0  0  0  0
   17.4926  -18.3959    7.0034 N   0  0  0  0  0  0  0  0  0  0  0  0
   16.1406  -18.5435    7.4586 C   0  0  0  0  0  0  0  0  0  0  0  0
   16.1713  -19.5161    8.6494 C   0  0  0  0  0  0  0  0  0  0  0  0
   17.3883  -20.3254    8.3286 C   0  0  0  0  0  0  0  0  0  0  0  0
   18.3501  -19.2701    7.8247 C   0  0  1  0  0  0  0  0  0  0  0  0
   19.3722  -19.9702    6.9755 C   0  0  0  0  0  0  0  0  0  0  0  0
   19.1955  -20.1120    5.7575 O   0  0  0  0  0  0  0  0  0  0  0  0
   20.5212  -20.4604    7.5617 O   0  0  0  0  0  0  0  0  0  0  0  0
  2  3  1  6
  2  1  1  0
  4  2  1  0
  5  4  1  0
  5  6  1  1
  7  8  2  0
  7  5  1  0
  9  7  1  0
 10  9  1  0
 10 11  1  6
 11 12  1  0
 12 13  2  0
 12 16  1  0
 13 14  1  0
 14 15  1  0
 16 15  2  0
 17 18  2  0
 17 10  1  0
 19 17  1  0
 20 19  1  0
 21 20  1  0
 22 23  1  0
 22 21  1  0
 23 19  1  0
 24 26  1  0
 23 24  1  6
 25 24  2  0
M  END
$$$$
