LHP.pdb
     RDKit          3D

 26 27  0  0  1  0  0  0  0  0999 V2000
   20.9832  -14.1512  -18.8096 C   0  0  0  0  0  0  0  0  0  0  0  0
   20.0400  -13.0154  -19.1427 C   0  0  1  0  0  0  0  0  0  0  0  0
   18.6478  -13.6301  -19.1996 C   0  0  0  0  0  0  0  0  0  0  0  0
   20.0619  -11.9418  -18.1103 C   0  0  0  0  0  0  0  0  0  0  0  0
   19.0916  -10.8324  -18.3873 C   0  0  2  0  0  0  0  0  0  0  0  0
   19.5619  -10.0436  -19.5316 N   0  0  0  0  0  0  0  0  0  0  0  0
   18.9049   -9.9075  -17.2710 C   0  0  0  0  0  0  0  0  0  0  0  0
   19.6565   -8.8858  -17.1665 O   0  0  0  0  0  0  0  0  0  0  0  0
   17.8980  -10.1180  -16.2885 N   0  0  0  0  0  0  0  0  0  0  0  0
   17.6722   -9.0616  -15.2764 C   0  0  1  0  0  0  0  0  0  0  0  0
   17.3022   -7.8071  -15.9931 C   0  0  0  0  0  0  0  0  0  0  0  0
   16.8941   -6.6522  -15.2159 C   0  0  0  0  0  0  0  0  0  0  0  0
   15.7266   -6.0022  -15.0206 C   0  0  0  0  0  0  0  0  0  0  0  0
   15.8808   -5.0041  -14.0976 N   0  0  0  0  0  0  0  0  0  0  0  0
   17.1592   -5.0610  -13.7354 C   0  0  0  0  0  0  0  0  0  0  0  0
   17.7982   -6.0275  -14.3761 N   0  0  0  0  0  0  0  0  0  0  0  0
   16.6382   -9.5135  -14.3192 C   0  0  0  0  0  0  0  0  0  0  0  0
   15.5137   -9.8883  -14.7500 O   0  0  0  0  0  0  0  0  0  0  0  0
   16.7790   -9.5732  -12.8845 N   0  0  0  0  0  0  0  0  0  0  0  0
   17.8666   -9.1278  -12.0625 C   0  0  0  0  0  0  0  0  0  0  0  0
   17.4984   -9.4664  -10.6083 C   0  0  0  0  0  0  0  0  0  0  0  0
   16.0039   -9.4437  -10.6770 C   0  0  0  0  0  0  0  0  0  0  0  0
   15.7347  -10.1253  -12.0020 C   0  0  1  0  0  0  0  0  0  0  0  0
   14.3682   -9.6946  -12.4532 C   0  0  0  0  0  0  0  0  0  0  0  0
   14.2231   -8.6976  -13.1741 O   0  0  0  0  0  0  0  0  0  0  0  0
   13.2629  -10.4202  -12.0586 O   0  0  0  0  0  0  0  0  0  0  0  0
  2  3  1  1
  2  1  1  0
  4  2  1  0
  5  4  1  0
  5  6  1  6
  7  8  2  0
  7  5  1  0
  9  7  1  0
 10  9  1  0
 10 11  1  6
 11 12  1  0
 12 13  2  0
 12 16  1  0
 13 14  1  0
 14 15  1  0
 16 15  2  0
 17 18  2  0
 17 10  1  0
 19 17  1  0
 20 19  1  0
 21 20  1  0
 22 23  1  0
 22 21  1  0
 23 19  1  0
 24 26  1  0
 23 24  1  6
 25 24  2  0
M  END
$$$$
