LHP.pdb
     RDKit          3D

 26 27  0  0  1  0  0  0  0  0999 V2000
   20.1360  -20.9374  -10.9747 C   0  0  0  0  0  0  0  0  0  0  0  0
   21.4462  -20.6103  -11.6581 C   0  0  1  0  0  0  0  0  0  0  0  0
   21.4799  -19.0940  -11.7955 C   0  0  0  0  0  0  0  0  0  0  0  0
   22.6245  -21.0586  -10.8645 C   0  0  0  0  0  0  0  0  0  0  0  0
   23.9361  -20.6660  -11.4765 C   0  0  2  0  0  0  0  0  0  0  0  0
   24.0942  -21.3380  -12.7711 N   0  0  0  0  0  0  0  0  0  0  0  0
   25.1023  -21.0095  -10.6648 C   0  0  0  0  0  0  0  0  0  0  0  0
   25.4670  -22.2250  -10.5683 O   0  0  0  0  0  0  0  0  0  0  0  0
   25.8485  -20.0155   -9.9731 N   0  0  0  0  0  0  0  0  0  0  0  0
   27.0851  -20.4270   -9.2712 C   0  0  1  0  0  0  0  0  0  0  0  0
   28.2475  -19.8551  -10.0102 C   0  0  0  0  0  0  0  0  0  0  0  0
   28.6342  -20.4518  -11.2747 C   0  0  0  0  0  0  0  0  0  0  0  0
   29.0194  -21.6859  -11.6652 C   0  0  0  0  0  0  0  0  0  0  0  0
   29.1854  -21.7305  -13.0225 N   0  0  0  0  0  0  0  0  0  0  0  0
   28.8930  -20.5050  -13.4483 C   0  0  0  0  0  0  0  0  0  0  0  0
   28.5594  -19.7126  -12.4414 N   0  0  0  0  0  0  0  0  0  0  0  0
   27.0169  -19.9866   -7.8601 C   0  0  0  0  0  0  0  0  0  0  0  0
   26.3470  -18.9607   -7.5608 O   0  0  0  0  0  0  0  0  0  0  0  0
   27.6619  -20.6273   -6.7398 N   0  0  0  0  0  0  0  0  0  0  0  0
   28.3807  -21.8677   -6.6974 C   0  0  0  0  0  0  0  0  0  0  0  0
   28.8271  -22.0785   -5.2410 C   0  0  0  0  0  0  0  0  0  0  0  0
   28.9125  -20.6647   -4.7587 C   0  0  0  0  0  0  0  0  0  0  0  0
   27.6866  -20.0376   -5.3886 C   0  0  1  0  0  0  0  0  0  0  0  0
   27.9293  -18.5568   -5.4538 C   0  0  0  0  0  0  0  0  0  0  0  0
   28.2793  -18.0173   -6.5128 O   0  0  0  0  0  0  0  0  0  0  0  0
   27.7594  -17.7903   -4.3191 O   0  0  0  0  0  0  0  0  0  0  0  0
  2  3  1  1
  2  1  1  0
  4  2  1  0
  5  4  1  0
  5  6  1  6
  7  8  2  0
  7  5  1  0
  9  7  1  0
 10  9  1  0
 10 11  1  6
 11 12  1  0
 12 13  2  0
 12 16  1  0
 13 14  1  0
 14 15  1  0
 16 15  2  0
 17 18  2  0
 17 10  1  0
 19 17  1  0
 20 19  1  0
 21 20  1  0
 22 23  1  0
 22 21  1  0
 23 19  1  0
 24 26  1  0
 23 24  1  6
 25 24  2  0
M  END
$$$$
