LHP.pdb
     RDKit          3D

 26 27  0  0  1  0  0  0  0  0999 V2000
   28.5500  -20.0707   -6.1477 C   0  0  0  0  0  0  0  0  0  0  0  0
   27.1723  -19.6709   -6.6303 C   0  0  1  0  0  0  0  0  0  0  0  0
   26.9610  -18.2397   -6.1546 C   0  0  0  0  0  0  0  0  0  0  0  0
   27.0582  -19.7178   -8.1148 C   0  0  0  0  0  0  0  0  0  0  0  0
   25.6794  -20.0625   -8.5933 C   0  0  2  0  0  0  0  0  0  0  0  0
   24.9864  -20.8495   -7.5671 N   0  0  0  0  0  0  0  0  0  0  0  0
   25.6521  -20.8424   -9.8293 C   0  0  0  0  0  0  0  0  0  0  0  0
   25.5669  -22.1109   -9.7723 O   0  0  0  0  0  0  0  0  0  0  0  0
   25.7185  -20.2189  -11.1062 N   0  0  0  0  0  0  0  0  0  0  0  0
   25.6703  -21.0779  -12.3107 C   0  0  1  0  0  0  0  0  0  0  0  0
   24.3680  -21.8047  -12.3078 C   0  0  0  0  0  0  0  0  0  0  0  0
   24.0751  -22.7191  -13.3952 C   0  0  0  0  0  0  0  0  0  0  0  0
   24.4591  -23.9748  -13.7109 C   0  0  0  0  0  0  0  0  0  0  0  0
   23.8001  -24.4126  -14.8271 N   0  0  0  0  0  0  0  0  0  0  0  0
   23.0094  -23.4035  -15.1813 C   0  0  0  0  0  0  0  0  0  0  0  0
   23.1413  -22.3765  -14.3563 N   0  0  0  0  0  0  0  0  0  0  0  0
   25.8699  -20.2429  -13.5159 C   0  0  0  0  0  0  0  0  0  0  0  0
   25.0944  -19.2727  -13.7353 O   0  0  0  0  0  0  0  0  0  0  0  0
   26.8967  -20.4248  -14.5131 N   0  0  0  0  0  0  0  0  0  0  0  0
   27.9297  -21.4177  -14.5778 C   0  0  0  0  0  0  0  0  0  0  0  0
   28.7596  -21.1208  -15.8378 C   0  0  0  0  0  0  0  0  0  0  0  0
   27.7430  -20.4386  -16.6980 C   0  0  0  0  0  0  0  0  0  0  0  0
   27.0189  -19.5592  -15.7004 C   0  0  1  0  0  0  0  0  0  0  0  0
   25.6682  -19.2495  -16.2800 C   0  0  0  0  0  0  0  0  0  0  0  0
   24.7191  -20.0315  -16.1301 O   0  0  0  0  0  0  0  0  0  0  0  0
   25.4851  -18.0790  -16.9874 O   0  0  0  0  0  0  0  0  0  0  0  0
  2  3  1  6
  2  1  1  0
  4  2  1  0
  5  4  1  0
  5  6  1  1
  7  8  2  0
  7  5  1  0
  9  7  1  0
 10  9  1  0
 10 11  1  6
 11 12  1  0
 12 13  2  0
 12 16  1  0
 13 14  1  0
 14 15  1  0
 16 15  2  0
 17 18  2  0
 17 10  1  0
 19 17  1  0
 20 19  1  0
 21 20  1  0
 22 23  1  0
 22 21  1  0
 23 19  1  0
 24 26  1  0
 23 24  1  6
 25 24  2  0
M  END
$$$$
