NHG.pdb
     RDKit          3D

 23 23  0  0  1  0  0  0  0  0999 V2000
   19.2805  -11.6615  -20.4383 N   0  0  0  0  0  0  0  0  0  0  0  0
   18.5743  -10.4368  -20.3219 C   0  0  0  0  0  0  0  0  0  0  0  0
   17.8886  -10.0273  -21.2948 O   0  0  0  0  0  0  0  0  0  0  0  0
   18.5896   -9.5889  -19.1063 C   0  0  0  0  0  0  0  0  0  0  0  0
   19.4585  -10.2461  -18.0259 C   0  0  2  0  0  0  0  0  0  0  0  0
   18.6475  -11.2965  -17.4470 N   0  0  0  0  0  0  0  0  0  0  0  0
   19.7674   -9.2202  -16.9974 C   0  0  0  0  0  0  0  0  0  0  0  0
   19.0190   -9.1443  -15.9659 O   0  0  0  0  0  0  0  0  0  0  0  0
   20.8608   -8.3238  -17.1187 N   0  0  0  0  0  0  0  0  0  0  0  0
   21.1004   -7.3188  -16.1151 C   0  0  1  0  0  0  0  0  0  0  0  0
   22.5347   -7.4614  -15.6593 C   0  0  0  0  0  0  0  0  0  0  0  0
   22.7169   -8.6760  -14.8311 C   0  0  0  0  0  0  0  0  0  0  0  0
   21.7680   -9.5494  -14.3550 C   0  0  0  0  0  0  0  0  0  0  0  0
   22.3548  -10.5256  -13.6406 N   0  0  0  0  0  0  0  0  0  0  0  0
   23.6729  -10.2756  -13.6612 C   0  0  0  0  0  0  0  0  0  0  0  0
   23.8907   -9.1527  -14.3842 N   0  0  0  0  0  0  0  0  0  0  0  0
   20.8402   -5.9490  -16.6288 C   0  0  0  0  0  0  0  0  0  0  0  0
   21.1243   -4.9506  -15.9214 O   0  0  0  0  0  0  0  0  0  0  0  0
   20.2764   -5.7054  -17.9020 N   0  0  0  0  0  0  0  0  0  0  0  0
   19.9859   -4.3542  -18.3535 C   0  0  0  0  0  0  0  0  0  0  0  0
   18.6596   -3.8954  -17.9016 C   0  0  0  0  0  0  0  0  0  0  0  0
   18.1834   -2.6564  -18.2676 O   0  0  0  0  0  0  0  0  0  0  0  0
   17.9617   -4.6356  -17.1810 O   0  0  0  0  0  0  0  0  0  0  0  0
  2  1  1  0
  2  3  2  0
  4  5  1  0
  4  2  1  0
  5  7  1  0
  5  6  1  1
  7  8  2  0
  9  7  1  0
  9 10  1  0
 10 17  1  0
 10 11  1  6
 12 11  1  0
 12 16  1  0
 13 14  1  0
 13 12  2  0
 14 15  1  0
 15 16  2  0
 17 19  1  0
 18 17  2  0
 19 20  1  0
 20 21  1  0
 21 23  2  0
 21 22  1  0
M  END
$$$$
