NHG.pdb
     RDKit          3D

 23 23  0  0  1  0  0  0  0  0999 V2000
   25.2655  -17.4813  -20.1469 N   0  0  0  0  0  0  0  0  0  0  0  0
   24.0082  -17.9979  -19.7416 C   0  0  0  0  0  0  0  0  0  0  0  0
   22.9630  -17.3454  -19.9993 O   0  0  0  0  0  0  0  0  0  0  0  0
   23.8383  -19.2813  -19.0198 C   0  0  0  0  0  0  0  0  0  0  0  0
   25.2130  -19.8653  -18.6688 C   0  0  2  0  0  0  0  0  0  0  0  0
   25.6356  -20.6162  -19.8322 N   0  0  0  0  0  0  0  0  0  0  0  0
   25.0421  -20.7796  -17.5109 C   0  0  0  0  0  0  0  0  0  0  0  0
   24.5061  -21.9214  -17.7079 O   0  0  0  0  0  0  0  0  0  0  0  0
   25.4515  -20.4316  -16.1975 N   0  0  0  0  0  0  0  0  0  0  0  0
   25.3130  -21.3694  -15.1131 C   0  0  1  0  0  0  0  0  0  0  0  0
   26.6342  -21.4185  -14.3801 C   0  0  0  0  0  0  0  0  0  0  0  0
   27.6505  -22.1682  -15.1543 C   0  0  0  0  0  0  0  0  0  0  0  0
   27.5284  -22.7782  -16.3802 C   0  0  0  0  0  0  0  0  0  0  0  0
   28.6930  -23.3520  -16.7295 N   0  0  0  0  0  0  0  0  0  0  0  0
   29.5545  -23.1088  -15.7301 C   0  0  0  0  0  0  0  0  0  0  0  0
   28.9200  -22.3902  -14.7749 N   0  0  0  0  0  0  0  0  0  0  0  0
   24.2087  -20.9939  -14.1926 C   0  0  0  0  0  0  0  0  0  0  0  0
   24.0019  -21.6697  -13.1542 O   0  0  0  0  0  0  0  0  0  0  0  0
   23.3588  -19.8895  -14.4304 N   0  0  0  0  0  0  0  0  0  0  0  0
   22.3167  -19.5211  -13.4858 C   0  0  0  0  0  0  0  0  0  0  0  0
   21.0375  -20.1884  -13.7887 C   0  0  0  0  0  0  0  0  0  0  0  0
   19.9253  -19.9607  -13.0094 O   0  0  0  0  0  0  0  0  0  0  0  0
   20.9607  -20.9667  -14.7596 O   0  0  0  0  0  0  0  0  0  0  0  0
  2  1  1  0
  2  3  2  0
  4  5  1  0
  4  2  1  0
  5  7  1  0
  5  6  1  6
  7  8  2  0
  9  7  1  0
  9 10  1  0
 10 17  1  0
 10 11  1  1
 12 11  1  0
 12 16  1  0
 13 14  1  0
 13 12  2  0
 14 15  1  0
 15 16  2  0
 17 19  1  0
 18 17  2  0
 19 20  1  0
 20 21  1  0
 21 23  2  0
 21 22  1  0
M  END
$$$$
