NHG.pdb
     RDKit          3D

 23 23  0  0  1  0  0  0  0  0999 V2000
   28.2155  -11.4333  -15.7890 N   0  0  0  0  0  0  0  0  0  0  0  0
   27.2330  -12.0811  -16.5809 C   0  0  0  0  0  0  0  0  0  0  0  0
   27.4578  -13.2423  -17.0119 O   0  0  0  0  0  0  0  0  0  0  0  0
   25.9319  -11.4701  -16.9427 C   0  0  0  0  0  0  0  0  0  0  0  0
   25.8615  -10.0378  -16.3973 C   0  0  2  0  0  0  0  0  0  0  0  0
   25.9462  -10.1555  -14.9568 N   0  0  0  0  0  0  0  0  0  0  0  0
   24.5469   -9.4635  -16.7818 C   0  0  0  0  0  0  0  0  0  0  0  0
   24.2986   -9.2813  -18.0208 O   0  0  0  0  0  0  0  0  0  0  0  0
   23.5595   -9.1110  -15.8255 N   0  0  0  0  0  0  0  0  0  0  0  0
   22.3006   -8.5498  -16.2435 C   0  0  1  0  0  0  0  0  0  0  0  0
   21.2062   -9.4761  -15.7646 C   0  0  0  0  0  0  0  0  0  0  0  0
   21.2829  -10.7924  -16.4397 C   0  0  0  0  0  0  0  0  0  0  0  0
   20.9588  -11.1214  -17.7346 C   0  0  0  0  0  0  0  0  0  0  0  0
   21.1751  -12.4312  -17.9471 N   0  0  0  0  0  0  0  0  0  0  0  0
   21.6355  -12.9355  -16.7922 C   0  0  0  0  0  0  0  0  0  0  0  0
   21.7003  -11.9395  -15.8785 N   0  0  0  0  0  0  0  0  0  0  0  0
   22.1028   -7.1757  -15.7137 C   0  0  0  0  0  0  0  0  0  0  0  0
   20.9851   -6.6144  -15.8306 O   0  0  0  0  0  0  0  0  0  0  0  0
   23.1312   -6.4502  -15.0699 N   0  0  0  0  0  0  0  0  0  0  0  0
   22.8633   -5.1806  -14.4139 C   0  0  0  0  0  0  0  0  0  0  0  0
   22.9334   -4.0483  -15.3555 C   0  0  0  0  0  0  0  0  0  0  0  0
   22.7940   -2.7537  -14.9078 O   0  0  0  0  0  0  0  0  0  0  0  0
   23.1207   -4.2639  -16.5690 O   0  0  0  0  0  0  0  0  0  0  0  0
  2  1  1  0
  2  3  2  0
  4  5  1  0
  4  2  1  0
  5  7  1  0
  5  6  1  1
  7  8  2  0
  9  7  1  0
  9 10  1  0
 10 17  1  0
 10 11  1  1
 12 11  1  0
 12 16  1  0
 13 14  1  0
 13 12  2  0
 14 15  1  0
 15 16  2  0
 17 19  1  0
 18 17  2  0
 19 20  1  0
 20 21  1  0
 21 23  2  0
 21 22  1  0
M  END
$$$$
