NHG.pdb
     RDKit          3D

 23 23  0  0  1  0  0  0  0  0999 V2000
   28.0896  -25.3085  -16.2317 N   0  0  0  0  0  0  0  0  0  0  0  0
   28.6705  -24.0314  -16.4412 C   0  0  0  0  0  0  0  0  0  0  0  0
   29.9161  -23.9406  -16.5986 O   0  0  0  0  0  0  0  0  0  0  0  0
   27.8934  -22.7702  -16.4883 C   0  0  0  0  0  0  0  0  0  0  0  0
   26.4139  -23.0611  -16.2044 C   0  0  2  0  0  0  0  0  0  0  0  0
   25.7888  -23.2446  -17.4973 N   0  0  0  0  0  0  0  0  0  0  0  0
   25.8340  -21.8742  -15.5256 C   0  0  0  0  0  0  0  0  0  0  0  0
   26.2673  -21.5609  -14.3663 O   0  0  0  0  0  0  0  0  0  0  0  0
   24.8189  -21.0778  -16.1166 N   0  0  0  0  0  0  0  0  0  0  0  0
   24.2202  -19.9909  -15.3854 C   0  0  1  0  0  0  0  0  0  0  0  0
   24.2315  -18.7751  -16.2836 C   0  0  0  0  0  0  0  0  0  0  0  0
   25.6143  -18.3106  -16.5415 C   0  0  0  0  0  0  0  0  0  0  0  0
   26.7931  -18.7523  -15.9889 C   0  0  0  0  0  0  0  0  0  0  0  0
   27.8292  -18.0625  -16.4970 N   0  0  0  0  0  0  0  0  0  0  0  0
   27.3131  -17.1844  -17.3703 C   0  0  0  0  0  0  0  0  0  0  0  0
   25.9688  -17.3363  -17.3959 N   0  0  0  0  0  0  0  0  0  0  0  0
   22.8380  -20.3133  -14.9455 C   0  0  0  0  0  0  0  0  0  0  0  0
   22.1713  -21.1815  -15.5615 O   0  0  0  0  0  0  0  0  0  0  0  0
   22.2199  -19.6786  -13.8439 N   0  0  0  0  0  0  0  0  0  0  0  0
   20.8476  -19.9809  -13.4704 C   0  0  0  0  0  0  0  0  0  0  0  0
   19.8772  -19.3734  -14.3992 C   0  0  0  0  0  0  0  0  0  0  0  0
   18.5234  -19.5202  -14.1949 O   0  0  0  0  0  0  0  0  0  0  0  0
   20.2851  -18.7201  -15.3796 O   0  0  0  0  0  0  0  0  0  0  0  0
  2  1  1  0
  2  3  2  0
  4  5  1  0
  4  2  1  0
  5  7  1  0
  5  6  1  6
  7  8  2  0
  9  7  1  0
  9 10  1  0
 10 17  1  0
 10 11  1  6
 12 11  1  0
 12 16  1  0
 13 14  1  0
 13 12  2  0
 14 15  1  0
 15 16  2  0
 17 19  1  0
 18 17  2  0
 19 20  1  0
 20 21  1  0
 21 23  2  0
 21 22  1  0
M  END
$$$$
