NHG.pdb
     RDKit          3D

 23 23  0  0  1  0  0  0  0  0999 V2000
   16.5663  -12.8602  -15.9724 N   0  0  0  0  0  0  0  0  0  0  0  0
   17.8055  -13.2951  -15.4363 C   0  0  0  0  0  0  0  0  0  0  0  0
   17.9208  -14.4842  -15.0397 O   0  0  0  0  0  0  0  0  0  0  0  0
   18.9990  -12.4254  -15.3088 C   0  0  0  0  0  0  0  0  0  0  0  0
   18.6852  -11.0291  -15.8619 C   0  0  2  0  0  0  0  0  0  0  0  0
   18.6542  -11.1691  -17.3026 N   0  0  0  0  0  0  0  0  0  0  0  0
   19.7897  -10.1187  -15.4655 C   0  0  0  0  0  0  0  0  0  0  0  0
   20.0253   -9.9492  -14.2223 O   0  0  0  0  0  0  0  0  0  0  0  0
   20.5904   -9.4324  -16.4150 N   0  0  0  0  0  0  0  0  0  0  0  0
   21.5699   -8.4668  -15.9876 C   0  0  1  0  0  0  0  0  0  0  0  0
   22.8422   -8.7349  -16.7587 C   0  0  0  0  0  0  0  0  0  0  0  0
   23.3874  -10.0763  -16.4460 C   0  0  0  0  0  0  0  0  0  0  0  0
   23.8706  -10.5576  -15.2523 C   0  0  0  0  0  0  0  0  0  0  0  0
   24.2716  -11.8328  -15.3961 N   0  0  0  0  0  0  0  0  0  0  0  0
   24.0449  -12.1634  -16.6765 C   0  0  0  0  0  0  0  0  0  0  0  0
   23.5083  -11.0961  -17.3122 N   0  0  0  0  0  0  0  0  0  0  0  0
   21.1036   -7.0722  -16.2008 C   0  0  0  0  0  0  0  0  0  0  0  0
   20.4901   -6.7713  -17.2548 O   0  0  0  0  0  0  0  0  0  0  0  0
   21.3198   -6.0422  -15.2570 N   0  0  0  0  0  0  0  0  0  0  0  0
   20.8470   -4.6880  -15.4950 C   0  0  0  0  0  0  0  0  0  0  0  0
   21.2012   -3.7786  -14.3900 C   0  0  0  0  0  0  0  0  0  0  0  0
   20.9609   -2.4264  -14.4895 O   0  0  0  0  0  0  0  0  0  0  0  0
   21.7234   -4.2371  -13.3549 O   0  0  0  0  0  0  0  0  0  0  0  0
  2  1  1  0
  2  3  2  0
  4  5  1  0
  4  2  1  0
  5  7  1  0
  5  6  1  6
  7  8  2  0
  9  7  1  0
  9 10  1  0
 10 17  1  0
 10 11  1  6
 12 11  1  0
 12 16  1  0
 13 14  1  0
 13 12  2  0
 14 15  1  0
 15 16  2  0
 17 19  1  0
 18 17  2  0
 19 20  1  0
 20 21  1  0
 21 23  2  0
 21 22  1  0
M  END
$$$$
