NHG.pdb
     RDKit          3D

 23 23  0  0  1  0  0  0  0  0999 V2000
   15.8052  -12.4665  -13.8501 N   0  0  0  0  0  0  0  0  0  0  0  0
   16.3291  -11.6881  -14.9139 C   0  0  0  0  0  0  0  0  0  0  0  0
   15.5643  -11.3259  -15.8458 O   0  0  0  0  0  0  0  0  0  0  0  0
   17.7463  -11.2635  -15.0042 C   0  0  0  0  0  0  0  0  0  0  0  0
   18.2452  -11.4234  -16.4463 C   0  0  2  0  0  0  0  0  0  0  0  0
   18.4377  -12.8444  -16.6458 N   0  0  0  0  0  0  0  0  0  0  0  0
   19.5453  -10.7150  -16.5642 C   0  0  0  0  0  0  0  0  0  0  0  0
   20.5464  -11.1624  -15.9104 O   0  0  0  0  0  0  0  0  0  0  0  0
   19.7150   -9.5625  -17.3746 N   0  0  0  0  0  0  0  0  0  0  0  0
   21.0086   -8.9434  -17.5079 C   0  0  1  0  0  0  0  0  0  0  0  0
   21.2573   -8.7178  -18.9818 C   0  0  0  0  0  0  0  0  0  0  0  0
   21.2898   -9.9998  -19.7234 C   0  0  0  0  0  0  0  0  0  0  0  0
   20.3840  -10.4991  -20.6290 C   0  0  0  0  0  0  0  0  0  0  0  0
   20.7890  -11.7017  -21.0732 N   0  0  0  0  0  0  0  0  0  0  0  0
   21.9486  -11.9682  -20.4532 C   0  0  0  0  0  0  0  0  0  0  0  0
   22.2510  -10.9341  -19.6344 N   0  0  0  0  0  0  0  0  0  0  0  0
   21.0924   -7.6658  -16.7537 C   0  0  0  0  0  0  0  0  0  0  0  0
   22.1316   -6.9638  -16.8247 O   0  0  0  0  0  0  0  0  0  0  0  0
   20.0386   -7.1883  -15.9414 N   0  0  0  0  0  0  0  0  0  0  0  0
   20.1623   -5.9455  -15.1969 C   0  0  0  0  0  0  0  0  0  0  0  0
   20.9146   -6.1276  -13.9420 C   0  0  0  0  0  0  0  0  0  0  0  0
   21.4620   -7.3501  -13.6231 O   0  0  0  0  0  0  0  0  0  0  0  0
   21.0570   -5.1661  -13.1614 O   0  0  0  0  0  0  0  0  0  0  0  0
  2  1  1  0
  2  3  2  0
  4  5  1  0
  4  2  1  0
  5  7  1  0
  5  6  1  1
  7  8  2  0
  9  7  1  0
  9 10  1  0
 10 17  1  0
 10 11  1  6
 12 11  1  0
 12 16  1  0
 13 14  1  0
 13 12  2  0
 14 15  1  0
 15 16  2  0
 17 19  1  0
 18 17  2  0
 19 20  1  0
 20 21  1  0
 21 23  2  0
 21 22  1  0
M  END
$$$$
