NHG.pdb
     RDKit          3D

 23 23  0  0  1  0  0  0  0  0999 V2000
   42.1986  -11.7779  -12.5684 N   0  0  0  0  0  0  0  0  0  0  0  0
   41.2953  -12.2263  -11.5709 C   0  0  0  0  0  0  0  0  0  0  0  0
   41.3137  -13.4361  -11.2233 O   0  0  0  0  0  0  0  0  0  0  0  0
   40.3104  -11.3481  -10.8959 C   0  0  0  0  0  0  0  0  0  0  0  0
   40.4107   -9.9252  -11.4612 C   0  0  2  0  0  0  0  0  0  0  0  0
   41.7398   -9.4573  -11.1287 N   0  0  0  0  0  0  0  0  0  0  0  0
   39.3931   -9.0864  -10.7779 C   0  0  0  0  0  0  0  0  0  0  0  0
   38.1591   -9.3739  -10.9346 O   0  0  0  0  0  0  0  0  0  0  0  0
   39.7410   -7.9803   -9.9599 N   0  0  0  0  0  0  0  0  0  0  0  0
   38.7278   -7.2538   -9.2386 C   0  0  1  0  0  0  0  0  0  0  0  0
   39.0752   -7.3228   -7.7690 C   0  0  0  0  0  0  0  0  0  0  0  0
   38.7484   -8.6515   -7.2015 C   0  0  0  0  0  0  0  0  0  0  0  0
   39.5266   -9.4759   -6.4239 C   0  0  0  0  0  0  0  0  0  0  0  0
   38.8507  -10.5973   -6.1186 N   0  0  0  0  0  0  0  0  0  0  0  0
   37.6461  -10.4885   -6.6993 C   0  0  0  0  0  0  0  0  0  0  0  0
   37.5859   -9.3069   -7.3562 N   0  0  0  0  0  0  0  0  0  0  0  0
   38.6262   -5.8432   -9.6945 C   0  0  0  0  0  0  0  0  0  0  0  0
   39.6392   -5.2589  -10.1530 O   0  0  0  0  0  0  0  0  0  0  0  0
   37.4204   -5.1075   -9.6377 N   0  0  0  0  0  0  0  0  0  0  0  0
   37.3828   -3.6921   -9.9683 C   0  0  0  0  0  0  0  0  0  0  0  0
   37.1672   -3.4686  -11.4096 C   0  0  0  0  0  0  0  0  0  0  0  0
   36.9373   -2.2012  -11.8964 O   0  0  0  0  0  0  0  0  0  0  0  0
   37.1929   -4.4355  -12.1960 O   0  0  0  0  0  0  0  0  0  0  0  0
  2  1  1  0
  2  3  2  0
  4  5  1  0
  4  2  1  0
  5  7  1  0
  5  6  1  1
  7  8  2  0
  9  7  1  0
  9 10  1  0
 10 17  1  0
 10 11  1  1
 12 11  1  0
 12 16  1  0
 13 14  1  0
 13 12  2  0
 14 15  1  0
 15 16  2  0
 17 19  1  0
 18 17  2  0
 19 20  1  0
 20 21  1  0
 21 23  2  0
 21 22  1  0
M  END
$$$$
