NHG.pdb
     RDKit          3D

 23 23  0  0  1  0  0  0  0  0999 V2000
   23.6527  -21.2500   -7.8664 N   0  0  0  0  0  0  0  0  0  0  0  0
   22.8808  -20.7354   -8.9394 C   0  0  0  0  0  0  0  0  0  0  0  0
   21.6466  -20.5492   -8.7755 O   0  0  0  0  0  0  0  0  0  0  0  0
   23.4410  -20.3950  -10.2687 C   0  0  0  0  0  0  0  0  0  0  0  0
   24.9117  -20.8269  -10.3383 C   0  0  2  0  0  0  0  0  0  0  0  0
   25.6153  -20.0005   -9.3802 N   0  0  0  0  0  0  0  0  0  0  0  0
   25.4086  -20.5470  -11.7097 C   0  0  0  0  0  0  0  0  0  0  0  0
   25.7024  -19.3437  -12.0193 O   0  0  0  0  0  0  0  0  0  0  0  0
   25.5685  -21.5647  -12.6855 N   0  0  0  0  0  0  0  0  0  0  0  0
   26.0810  -21.2519  -13.9947 C   0  0  1  0  0  0  0  0  0  0  0  0
   26.9822  -22.3900  -14.4164 C   0  0  0  0  0  0  0  0  0  0  0  0
   27.5830  -22.1351  -15.7461 C   0  0  0  0  0  0  0  0  0  0  0  0
   27.3493  -21.0974  -16.6171 C   0  0  0  0  0  0  0  0  0  0  0  0
   28.1037  -21.2409  -17.7207 N   0  0  0  0  0  0  0  0  0  0  0  0
   28.8158  -22.3658  -17.5541 C   0  0  0  0  0  0  0  0  0  0  0  0
   28.4984  -22.9072  -16.3551 N   0  0  0  0  0  0  0  0  0  0  0  0
   24.9903  -21.0444  -14.9823 C   0  0  0  0  0  0  0  0  0  0  0  0
   24.2456  -22.0036  -15.3035 O   0  0  0  0  0  0  0  0  0  0  0  0
   24.7413  -19.7942  -15.5933 N   0  0  0  0  0  0  0  0  0  0  0  0
   23.6627  -19.6240  -16.5534 C   0  0  0  0  0  0  0  0  0  0  0  0
   22.3389  -19.8225  -15.9355 C   0  0  0  0  0  0  0  0  0  0  0  0
   21.9959  -19.1546  -14.7812 O   0  0  0  0  0  0  0  0  0  0  0  0
   21.5211  -20.6022  -16.4624 O   0  0  0  0  0  0  0  0  0  0  0  0
  2  1  1  0
  2  3  2  0
  4  5  1  0
  4  2  1  0
  5  7  1  0
  5  6  1  1
  7  8  2  0
  9  7  1  0
  9 10  1  0
 10 17  1  0
 10 11  1  6
 12 11  1  0
 12 16  1  0
 13 14  1  0
 13 12  2  0
 14 15  1  0
 15 16  2  0
 17 19  1  0
 18 17  2  0
 19 20  1  0
 20 21  1  0
 21 23  2  0
 21 22  1  0
M  END
$$$$
