NHG.pdb
     RDKit          3D

 23 23  0  0  1  0  0  0  0  0999 V2000
   10.8459  -11.3893  -11.7967 N   0  0  0  0  0  0  0  0  0  0  0  0
   11.2847  -11.4566  -10.4494 C   0  0  0  0  0  0  0  0  0  0  0  0
   10.4317  -11.5544   -9.5288 O   0  0  0  0  0  0  0  0  0  0  0  0
   12.7098  -11.4187  -10.0439 C   0  0  0  0  0  0  0  0  0  0  0  0
   13.5989  -11.2680  -11.2853 C   0  0  2  0  0  0  0  0  0  0  0  0
   14.0073  -12.6087  -11.6478 N   0  0  0  0  0  0  0  0  0  0  0  0
   14.7871  -10.4623  -10.9046 C   0  0  0  0  0  0  0  0  0  0  0  0
   15.6744  -10.9971  -10.1585 O   0  0  0  0  0  0  0  0  0  0  0  0
   14.9719   -9.1239  -11.3385 N   0  0  0  0  0  0  0  0  0  0  0  0
   16.1544   -8.3894  -10.9687 C   0  0  1  0  0  0  0  0  0  0  0  0
   16.8463   -7.9656  -12.2442 C   0  0  0  0  0  0  0  0  0  0  0  0
   17.2719   -9.1401  -13.0402 C   0  0  0  0  0  0  0  0  0  0  0  0
   18.4916   -9.7741  -13.0636 C   0  0  0  0  0  0  0  0  0  0  0  0
   18.4611  -10.8039  -13.9273 N   0  0  0  0  0  0  0  0  0  0  0  0
   17.2268  -10.8266  -14.4527 C   0  0  0  0  0  0  0  0  0  0  0  0
   16.5065   -9.8161  -13.9132 N   0  0  0  0  0  0  0  0  0  0  0  0
   15.8334   -7.2112  -10.1220 C   0  0  0  0  0  0  0  0  0  0  0  0
   14.8415   -6.4924  -10.3996 O   0  0  0  0  0  0  0  0  0  0  0  0
   16.6046   -6.8489   -8.9940 N   0  0  0  0  0  0  0  0  0  0  0  0
   16.2097   -5.7473   -8.1312 C   0  0  0  0  0  0  0  0  0  0  0  0
   16.4247   -4.4386   -8.7753 C   0  0  0  0  0  0  0  0  0  0  0  0
   16.0184   -3.2771   -8.1574 O   0  0  0  0  0  0  0  0  0  0  0  0
   16.9798   -4.3819   -9.8902 O   0  0  0  0  0  0  0  0  0  0  0  0
  2  1  1  0
  2  3  2  0
  4  5  1  0
  4  2  1  0
  5  7  1  0
  5  6  1  1
  7  8  2  0
  9  7  1  0
  9 10  1  0
 10 17  1  0
 10 11  1  6
 12 11  1  0
 12 16  1  0
 13 14  1  0
 13 12  2  0
 14 15  1  0
 15 16  2  0
 17 19  1  0
 18 17  2  0
 19 20  1  0
 20 21  1  0
 21 23  2  0
 21 22  1  0
M  END
$$$$
