NCK.pdb
     RDKit          3D

 24 23  0  0  1  0  0  0  0  0999 V2000
   22.3286  -10.7119  -18.4399 N   0  0  0  0  0  0  0  0  0  0  0  0
   21.5201  -11.2066  -17.3724 C   0  0  0  0  0  0  0  0  0  0  0  0
   20.9472  -12.3095  -17.5256 O   0  0  0  0  0  0  0  0  0  0  0  0
   21.3950  -10.4082  -16.1508 C   0  0  0  0  0  0  0  0  0  0  0  0
   22.1931   -9.1342  -16.1946 C   0  0  2  0  0  0  0  0  0  0  0  0
   23.6020   -9.4667  -15.9931 N   0  0  0  0  0  0  0  0  0  0  0  0
   21.7709   -8.2424  -15.0504 C   0  0  0  0  0  0  0  0  0  0  0  0
   22.1994   -8.4541  -13.8822 O   0  0  0  0  0  0  0  0  0  0  0  0
   20.8892   -7.1677  -15.3062 N   0  0  0  0  0  0  0  0  0  0  0  0
   20.4838   -6.1998  -14.3049 C   0  0  1  0  0  0  0  0  0  0  0  0
   21.6809   -5.4778  -13.7165 C   0  0  0  0  0  0  0  0  0  0  0  0
   22.6372   -4.6396  -15.0014 S   0  0  0  0  0  0  0  0  0  0  0  0
   19.5274   -5.2346  -14.8867 C   0  0  0  0  0  0  0  0  0  0  0  0
   19.7472   -4.7732  -16.0452 O   0  0  0  0  0  0  0  0  0  0  0  0
   18.3621   -4.7811  -14.2277 N   0  0  0  0  0  0  0  0  0  0  0  0
   17.4038   -3.9070  -14.8539 C   0  0  1  0  0  0  0  0  0  0  0  0
   15.9851   -4.4068  -14.7219 C   0  0  0  0  0  0  0  0  0  0  0  0
   14.9757   -3.5114  -15.3726 C   0  0  0  0  0  0  0  0  0  0  0  0
   13.6153   -4.1411  -15.1662 C   0  0  0  0  0  0  0  0  0  0  0  0
   12.5126   -3.3692  -15.8392 C   0  0  0  0  0  0  0  0  0  0  0  0
   11.2280   -3.9802  -15.5627 N   0  0  0  0  0  0  0  0  0  0  0  0
   17.5524   -2.5083  -14.4291 C   0  0  0  0  0  0  0  0  0  0  0  0
   18.0202   -2.2149  -13.3003 O   0  0  0  0  0  0  0  0  0  0  0  0
   17.1769   -1.4892  -15.2717 O   0  0  0  0  0  0  0  0  0  0  0  0
  2  4  1  0
  2  1  1  0
  3  2  2  0
  4  5  1  0
  5  7  1  0
  5  6  1  1
  7  9  1  0
  7  8  2  0
  9 10  1  0
 10 13  1  0
 10 11  1  6
 12 11  1  0
 13 15  1  0
 13 14  2  0
 15 16  1  0
 16 22  1  0
 16 17  1  1
 18 17  1  0
 19 18  1  0
 20 19  1  0
 21 20  1  0
 22 24  1  0
 23 22  2  0
M  END
$$$$
