NCK.pdb
     RDKit          3D

 24 23  0  0  1  0  0  0  0  0999 V2000
   27.1617  -12.2125  -22.3485 N   0  0  0  0  0  0  0  0  0  0  0  0
   25.8318  -11.7045  -22.4561 C   0  0  0  0  0  0  0  0  0  0  0  0
   25.3936  -11.4293  -23.5965 O   0  0  0  0  0  0  0  0  0  0  0  0
   25.0412  -11.5269  -21.2360 C   0  0  0  0  0  0  0  0  0  0  0  0
   25.7558  -11.9924  -19.9972 C   0  0  2  0  0  0  0  0  0  0  0  0
   25.5589  -13.4348  -19.8669 N   0  0  0  0  0  0  0  0  0  0  0  0
   25.1306  -11.3396  -18.7866 C   0  0  0  0  0  0  0  0  0  0  0  0
   23.9947  -11.7067  -18.3765 O   0  0  0  0  0  0  0  0  0  0  0  0
   25.8352  -10.3117  -18.1195 N   0  0  0  0  0  0  0  0  0  0  0  0
   25.3842   -9.6907  -16.8888 C   0  0  1  0  0  0  0  0  0  0  0  0
   26.5514   -9.1739  -16.0696 C   0  0  0  0  0  0  0  0  0  0  0  0
   27.4806  -10.5330  -15.3229 S   0  0  0  0  0  0  0  0  0  0  0  0
   24.4333   -8.5992  -17.1873 C   0  0  0  0  0  0  0  0  0  0  0  0
   24.6783   -7.8167  -18.1522 O   0  0  0  0  0  0  0  0  0  0  0  0
   23.2466   -8.3623  -16.4569 N   0  0  0  0  0  0  0  0  0  0  0  0
   22.3165   -7.3175  -16.8000 C   0  0  1  0  0  0  0  0  0  0  0  0
   21.1347   -7.8253  -17.5908 C   0  0  0  0  0  0  0  0  0  0  0  0
   20.1675   -6.7475  -17.9738 C   0  0  0  0  0  0  0  0  0  0  0  0
   19.0852   -7.3906  -18.8133 C   0  0  0  0  0  0  0  0  0  0  0  0
   18.1484   -6.3818  -19.4209 C   0  0  0  0  0  0  0  0  0  0  0  0
   17.1683   -7.0440  -20.2582 N   0  0  0  0  0  0  0  0  0  0  0  0
   21.9155   -6.5133  -15.6374 C   0  0  0  0  0  0  0  0  0  0  0  0
   21.8656   -7.0115  -14.4848 O   0  0  0  0  0  0  0  0  0  0  0  0
   21.5856   -5.1886  -15.7973 O   0  0  0  0  0  0  0  0  0  0  0  0
  2  4  1  0
  2  1  1  0
  3  2  2  0
  4  5  1  0
  5  7  1  0
  5  6  1  1
  7  9  1  0
  7  8  2  0
  9 10  1  0
 10 13  1  0
 10 11  1  6
 12 11  1  0
 13 15  1  0
 13 14  2  0
 15 16  1  0
 16 22  1  0
 16 17  1  1
 18 17  1  0
 19 18  1  0
 20 19  1  0
 21 20  1  0
 22 24  1  0
 23 22  2  0
M  END
$$$$
