NCK.pdb
     RDKit          3D

 24 23  0  0  1  0  0  0  0  0999 V2000
   17.3290   -9.8766  -18.3223 N   0  0  0  0  0  0  0  0  0  0  0  0
   16.3504   -9.5411  -17.3385 C   0  0  0  0  0  0  0  0  0  0  0  0
   15.1856   -9.2897  -17.7236 O   0  0  0  0  0  0  0  0  0  0  0  0
   16.7474   -9.5046  -15.9291 C   0  0  0  0  0  0  0  0  0  0  0  0
   18.1917   -9.8647  -15.7137 C   0  0  2  0  0  0  0  0  0  0  0  0
   18.3264  -11.3155  -15.8290 N   0  0  0  0  0  0  0  0  0  0  0  0
   18.5959   -9.4833  -14.3088 C   0  0  0  0  0  0  0  0  0  0  0  0
   18.0927  -10.0765  -13.3148 O   0  0  0  0  0  0  0  0  0  0  0  0
   19.5453   -8.4528  -14.1228 N   0  0  0  0  0  0  0  0  0  0  0  0
   19.9072   -7.9126  -12.8263 C   0  0  1  0  0  0  0  0  0  0  0  0
   21.3046   -7.3231  -12.8428 C   0  0  0  0  0  0  0  0  0  0  0  0
   22.5591   -8.6152  -13.0004 S   0  0  0  0  0  0  0  0  0  0  0  0
   18.9188   -6.8984  -12.4028 C   0  0  0  0  0  0  0  0  0  0  0  0
   18.2679   -6.2672  -13.2867 O   0  0  0  0  0  0  0  0  0  0  0  0
   18.6440   -6.5768  -11.0541 N   0  0  0  0  0  0  0  0  0  0  0  0
   17.5796   -5.6869  -10.6672 C   0  0  1  0  0  0  0  0  0  0  0  0
   16.2357   -6.1167  -11.2049 C   0  0  0  0  0  0  0  0  0  0  0  0
   15.1258   -5.1731  -10.8561 C   0  0  0  0  0  0  0  0  0  0  0  0
   13.8478   -5.7510  -11.4241 C   0  0  0  0  0  0  0  0  0  0  0  0
   12.6602   -4.8527  -11.2068 C   0  0  0  0  0  0  0  0  0  0  0  0
   11.4512   -5.4896  -11.6893 N   0  0  0  0  0  0  0  0  0  0  0  0
   17.5544   -5.4311   -9.2205 C   0  0  0  0  0  0  0  0  0  0  0  0
   18.2796   -6.0846   -8.4291 O   0  0  0  0  0  0  0  0  0  0  0  0
   16.7266   -4.4613   -8.7071 O   0  0  0  0  0  0  0  0  0  0  0  0
  2  4  1  0
  2  1  1  0
  3  2  2  0
  4  5  1  0
  5  7  1  0
  5  6  1  1
  7  9  1  0
  7  8  2  0
  9 10  1  0
 10 13  1  0
 10 11  1  6
 12 11  1  0
 13 15  1  0
 13 14  2  0
 15 16  1  0
 16 22  1  0
 16 17  1  1
 18 17  1  0
 19 18  1  0
 20 19  1  0
 21 20  1  0
 22 24  1  0
 23 22  2  0
M  END
$$$$
