NCK.pdb
     RDKit          3D

 24 23  0  0  1  0  0  0  0  0999 V2000
   19.2427  -13.2537  -17.9128 N   0  0  0  0  0  0  0  0  0  0  0  0
   19.4743  -13.4411  -16.5166 C   0  0  0  0  0  0  0  0  0  0  0  0
   19.3954  -14.6022  -16.0540 O   0  0  0  0  0  0  0  0  0  0  0  0
   19.7917  -12.2751  -15.6891 C   0  0  0  0  0  0  0  0  0  0  0  0
   19.7979  -10.9860  -16.4640 C   0  0  2  0  0  0  0  0  0  0  0  0
   21.0725  -10.8805  -17.1714 N   0  0  0  0  0  0  0  0  0  0  0  0
   19.7181   -9.8252  -15.5003 C   0  0  0  0  0  0  0  0  0  0  0  0
   18.7481   -9.7242  -14.6990 O   0  0  0  0  0  0  0  0  0  0  0  0
   20.7446   -8.8536  -15.5084 N   0  0  0  0  0  0  0  0  0  0  0  0
   20.6863   -7.6108  -14.7630 C   0  0  1  0  0  0  0  0  0  0  0  0
   22.0746   -7.0715  -14.4764 C   0  0  0  0  0  0  0  0  0  0  0  0
   21.9992   -5.4072  -13.7748 S   0  0  0  0  0  0  0  0  0  0  0  0
   19.8810   -6.6128  -15.4981 C   0  0  0  0  0  0  0  0  0  0  0  0
   20.1492   -6.3810  -16.7137 O   0  0  0  0  0  0  0  0  0  0  0  0
   18.8122   -5.8843  -14.9284 N   0  0  0  0  0  0  0  0  0  0  0  0
   18.0962   -4.8620  -15.6473 C   0  0  1  0  0  0  0  0  0  0  0  0
   16.6205   -4.8490  -15.3276 C   0  0  0  0  0  0  0  0  0  0  0  0
   15.8543   -3.8159  -16.0953 C   0  0  0  0  0  0  0  0  0  0  0  0
   14.4118   -3.8980  -15.6456 C   0  0  0  0  0  0  0  0  0  0  0  0
   13.5206   -2.9349  -16.3822 C   0  0  0  0  0  0  0  0  0  0  0  0
   12.1878   -2.9451  -15.8132 N   0  0  0  0  0  0  0  0  0  0  0  0
   18.7157   -3.5365  -15.5121 C   0  0  0  0  0  0  0  0  0  0  0  0
   19.1087   -3.1101  -14.3973 O   0  0  0  0  0  0  0  0  0  0  0  0
   18.8755   -2.7352  -16.6174 O   0  0  0  0  0  0  0  0  0  0  0  0
  2  4  1  0
  2  1  1  0
  3  2  2  0
  4  5  1  0
  5  7  1  0
  5  6  1  1
  7  9  1  0
  7  8  2  0
  9 10  1  0
 10 13  1  0
 10 11  1  6
 12 11  1  0
 13 15  1  0
 13 14  2  0
 15 16  1  0
 16 22  1  0
 16 17  1  1
 18 17  1  0
 19 18  1  0
 20 19  1  0
 21 20  1  0
 22 24  1  0
 23 22  2  0
M  END
$$$$
