NCK.pdb
     RDKit          3D

 24 23  0  0  1  0  0  0  0  0999 V2000
   29.5655  -22.6523  -16.9040 N   0  0  0  0  0  0  0  0  0  0  0  0
   28.5466  -21.6639  -16.7521 C   0  0  0  0  0  0  0  0  0  0  0  0
   28.7425  -20.5305  -17.2476 O   0  0  0  0  0  0  0  0  0  0  0  0
   27.3230  -22.0144  -16.0273 C   0  0  0  0  0  0  0  0  0  0  0  0
   27.0436  -21.1010  -14.8655 C   0  0  2  0  0  0  0  0  0  0  0  0
   28.2478  -21.0239  -14.0407 N   0  0  0  0  0  0  0  0  0  0  0  0
   25.9493  -21.6998  -14.0132 C   0  0  0  0  0  0  0  0  0  0  0  0
   25.2972  -22.7012  -14.4195 O   0  0  0  0  0  0  0  0  0  0  0  0
   25.6654  -21.1229  -12.7544 N   0  0  0  0  0  0  0  0  0  0  0  0
   24.6342  -21.6086  -11.8575 C   0  0  1  0  0  0  0  0  0  0  0  0
   24.9761  -21.3135  -10.4096 C   0  0  0  0  0  0  0  0  0  0  0  0
   24.7149  -19.5683  -10.0171 S   0  0  0  0  0  0  0  0  0  0  0  0
   23.3276  -21.0172  -12.2154 C   0  0  0  0  0  0  0  0  0  0  0  0
   23.2841  -19.8150  -12.6104 O   0  0  0  0  0  0  0  0  0  0  0  0
   22.0991  -21.7128  -12.1457 N   0  0  0  0  0  0  0  0  0  0  0  0
   20.8509  -21.1329  -12.5702 C   0  0  1  0  0  0  0  0  0  0  0  0
   19.8582  -22.1677  -13.0432 C   0  0  0  0  0  0  0  0  0  0  0  0
   18.5180  -22.0516  -12.3840 C   0  0  0  0  0  0  0  0  0  0  0  0
   17.6381  -23.1412  -12.9570 C   0  0  0  0  0  0  0  0  0  0  0  0
   16.2059  -23.0229  -12.5102 C   0  0  0  0  0  0  0  0  0  0  0  0
   15.4192  -24.1168  -13.0436 N   0  0  0  0  0  0  0  0  0  0  0  0
   20.2823  -20.2198  -11.5693 C   0  0  0  0  0  0  0  0  0  0  0  0
   20.4989  -20.3797  -10.3419 O   0  0  0  0  0  0  0  0  0  0  0  0
   19.4959  -19.1651  -11.9675 O   0  0  0  0  0  0  0  0  0  0  0  0
  2  4  1  0
  2  1  1  0
  3  2  2  0
  4  5  1  0
  5  7  1  0
  5  6  1  1
  7  9  1  0
  7  8  2  0
  9 10  1  0
 10 13  1  0
 10 11  1  1
 12 11  1  0
 13 15  1  0
 13 14  2  0
 15 16  1  0
 16 22  1  0
 16 17  1  1
 18 17  1  0
 19 18  1  0
 20 19  1  0
 21 20  1  0
 22 24  1  0
 23 22  2  0
M  END
$$$$
