NCK.pdb
     RDKit          3D

 24 23  0  0  1  0  0  0  0  0999 V2000
   17.3956   -9.2181  -18.0807 N   0  0  0  0  0  0  0  0  0  0  0  0
   16.3298   -9.5394  -17.1870 C   0  0  0  0  0  0  0  0  0  0  0  0
   15.1683   -9.6069  -17.6504 O   0  0  0  0  0  0  0  0  0  0  0  0
   16.6374   -9.7746  -15.7744 C   0  0  0  0  0  0  0  0  0  0  0  0
   18.0865   -9.5490  -15.4408 C   0  0  2  0  0  0  0  0  0  0  0  0
   18.8283  -10.7657  -15.7657 N   0  0  0  0  0  0  0  0  0  0  0  0
   18.2253   -9.3183  -13.9542 C   0  0  0  0  0  0  0  0  0  0  0  0
   18.0064  -10.2558  -13.1378 O   0  0  0  0  0  0  0  0  0  0  0  0
   18.6034   -8.0379  -13.4899 N   0  0  0  0  0  0  0  0  0  0  0  0
   18.8604   -7.7275  -12.0966 C   0  0  1  0  0  0  0  0  0  0  0  0
   20.0504   -6.7991  -11.9467 C   0  0  0  0  0  0  0  0  0  0  0  0
   21.5931   -7.6361  -12.3802 S   0  0  0  0  0  0  0  0  0  0  0  0
   17.6565   -7.1358  -11.4758 C   0  0  0  0  0  0  0  0  0  0  0  0
   16.9969   -6.2668  -12.1186 O   0  0  0  0  0  0  0  0  0  0  0  0
   17.1805   -7.4781  -10.1896 N   0  0  0  0  0  0  0  0  0  0  0  0
   16.0057   -6.8799   -9.6095 C   0  0  1  0  0  0  0  0  0  0  0  0
   15.0930   -7.8948   -8.9637 C   0  0  0  0  0  0  0  0  0  0  0  0
   13.8276   -7.3001   -8.4262 C   0  0  0  0  0  0  0  0  0  0  0  0
   13.0043   -8.4336   -7.8542 C   0  0  0  0  0  0  0  0  0  0  0  0
   11.6938   -7.9650   -7.2818 C   0  0  0  0  0  0  0  0  0  0  0  0
   10.8737   -9.0990   -6.9055 N   0  0  0  0  0  0  0  0  0  0  0  0
   16.3248   -5.7575   -8.7167 C   0  0  0  0  0  0  0  0  0  0  0  0
   17.3631   -5.7611   -8.0088 O   0  0  0  0  0  0  0  0  0  0  0  0
   15.4813   -4.6748   -8.6431 O   0  0  0  0  0  0  0  0  0  0  0  0
  2  4  1  0
  2  1  1  0
  3  2  2  0
  4  5  1  0
  5  7  1  0
  5  6  1  1
  7  9  1  0
  7  8  2  0
  9 10  1  0
 10 13  1  0
 10 11  1  6
 12 11  1  0
 13 15  1  0
 13 14  2  0
 15 16  1  0
 16 22  1  0
 16 17  1  1
 18 17  1  0
 19 18  1  0
 20 19  1  0
 21 20  1  0
 22 24  1  0
 23 22  2  0
M  END
$$$$
