NCK.pdb
     RDKit          3D

 24 23  0  0  1  0  0  0  0  0999 V2000
   31.7701  -16.3976  -20.2439 N   0  0  0  0  0  0  0  0  0  0  0  0
   31.7606  -16.3172  -18.8186 C   0  0  0  0  0  0  0  0  0  0  0  0
   31.9081  -17.3752  -18.1649 O   0  0  0  0  0  0  0  0  0  0  0  0
   31.5793  -15.0093  -18.1848 C   0  0  0  0  0  0  0  0  0  0  0  0
   31.6191  -13.8687  -19.1643 C   0  0  2  0  0  0  0  0  0  0  0  0
   33.0076  -13.6581  -19.5693 N   0  0  0  0  0  0  0  0  0  0  0  0
   31.1519  -12.6064  -18.4780 C   0  0  0  0  0  0  0  0  0  0  0  0
   30.0060  -12.5507  -17.9516 O   0  0  0  0  0  0  0  0  0  0  0  0
   32.0155  -11.4883  -18.4338 N   0  0  0  0  0  0  0  0  0  0  0  0
   31.6399  -10.1988  -17.8863 C   0  0  1  0  0  0  0  0  0  0  0  0
   32.8594   -9.3483  -17.5865 C   0  0  0  0  0  0  0  0  0  0  0  0
   33.8409  -10.0597  -16.2454 S   0  0  0  0  0  0  0  0  0  0  0  0
   30.7300   -9.4961  -18.8154 C   0  0  0  0  0  0  0  0  0  0  0  0
   31.0424   -9.4167  -20.0399 O   0  0  0  0  0  0  0  0  0  0  0  0
   29.5120   -8.8942  -18.4254 N   0  0  0  0  0  0  0  0  0  0  0  0
   28.5969   -8.3060  -19.3694 C   0  0  1  0  0  0  0  0  0  0  0  0
   27.1743   -8.7712  -19.1700 C   0  0  0  0  0  0  0  0  0  0  0  0
   26.2222   -8.2291  -20.1915 C   0  0  0  0  0  0  0  0  0  0  0  0
   24.8406   -8.7297  -19.8303 C   0  0  0  0  0  0  0  0  0  0  0  0
   23.7891   -8.2827  -20.8097 C   0  0  0  0  0  0  0  0  0  0  0  0
   22.5007   -8.8452  -20.4580 N   0  0  0  0  0  0  0  0  0  0  0  0
   28.7099   -6.8422  -19.4296 C   0  0  0  0  0  0  0  0  0  0  0  0
   28.8021   -6.1509  -18.3842 O   0  0  0  0  0  0  0  0  0  0  0  0
   28.7165   -6.2015  -20.6457 O   0  0  0  0  0  0  0  0  0  0  0  0
  2  4  1  0
  2  1  1  0
  3  2  2  0
  4  5  1  0
  5  7  1  0
  5  6  1  1
  7  9  1  0
  7  8  2  0
  9 10  1  0
 10 13  1  0
 10 11  1  6
 12 11  1  0
 13 15  1  0
 13 14  2  0
 15 16  1  0
 16 22  1  0
 16 17  1  1
 18 17  1  0
 19 18  1  0
 20 19  1  0
 21 20  1  0
 22 24  1  0
 23 22  2  0
M  END
$$$$
