NCK.pdb
     RDKit          3D

 24 23  0  0  1  0  0  0  0  0999 V2000
   14.3586  -13.2022   -9.7780 N   0  0  0  0  0  0  0  0  0  0  0  0
   14.7902  -12.6361  -11.0155 C   0  0  0  0  0  0  0  0  0  0  0  0
   15.2480  -13.4056  -11.8910 O   0  0  0  0  0  0  0  0  0  0  0  0
   14.6807  -11.1882  -11.2078 C   0  0  0  0  0  0  0  0  0  0  0  0
   14.0478  -10.4843  -10.0390 C   0  0  2  0  0  0  0  0  0  0  0  0
   12.6115  -10.7536  -10.0624 N   0  0  0  0  0  0  0  0  0  0  0  0
   14.2308   -8.9929  -10.1972 C   0  0  0  0  0  0  0  0  0  0  0  0
   13.4938   -8.3377  -10.9849 O   0  0  0  0  0  0  0  0  0  0  0  0
   15.2392   -8.3414   -9.4510 N   0  0  0  0  0  0  0  0  0  0  0  0
   15.4621   -6.9085   -9.4736 C   0  0  1  0  0  0  0  0  0  0  0  0
   15.3801   -6.3136   -8.0808 C   0  0  0  0  0  0  0  0  0  0  0  0
   13.6633   -6.1461   -7.5399 S   0  0  0  0  0  0  0  0  0  0  0  0
   16.7694   -6.6057  -10.0935 C   0  0  0  0  0  0  0  0  0  0  0  0
   17.7701   -7.3242   -9.8006 O   0  0  0  0  0  0  0  0  0  0  0  0
   16.9855   -5.5496  -11.0076 N   0  0  0  0  0  0  0  0  0  0  0  0
   18.1132   -5.5132  -11.9029 C   0  0  1  0  0  0  0  0  0  0  0  0
   18.2517   -6.7769  -12.7178 C   0  0  0  0  0  0  0  0  0  0  0  0
   19.3481   -6.7109  -13.7364 C   0  0  0  0  0  0  0  0  0  0  0  0
   20.0643   -8.0437  -13.7147 C   0  0  0  0  0  0  0  0  0  0  0  0
   21.2361   -8.0861  -14.6579 C   0  0  0  0  0  0  0  0  0  0  0  0
   21.9312   -9.3524  -14.5420 N   0  0  0  0  0  0  0  0  0  0  0  0
   18.1382   -4.3003  -12.7318 C   0  0  0  0  0  0  0  0  0  0  0  0
   17.0806   -3.8045  -13.1956 O   0  0  0  0  0  0  0  0  0  0  0  0
   19.3338   -3.6839  -13.0144 O   0  0  0  0  0  0  0  0  0  0  0  0
  2  4  1  0
  2  1  1  0
  3  2  2  0
  4  5  1  0
  5  7  1  0
  5  6  1  6
  7  9  1  0
  7  8  2  0
  9 10  1  0
 10 13  1  0
 10 11  1  1
 12 11  1  0
 13 15  1  0
 13 14  2  0
 15 16  1  0
 16 22  1  0
 16 17  1  6
 18 17  1  0
 19 18  1  0
 20 19  1  0
 21 20  1  0
 22 24  1  0
 23 22  2  0
M  END
$$$$
