NCK.pdb
     RDKit          3D

 24 23  0  0  1  0  0  0  0  0999 V2000
   19.4379  -14.3252  -16.6609 N   0  0  0  0  0  0  0  0  0  0  0  0
   19.2882  -13.4780  -17.8001 C   0  0  0  0  0  0  0  0  0  0  0  0
   19.5691  -13.9460  -18.9272 O   0  0  0  0  0  0  0  0  0  0  0  0
   18.8160  -12.1054  -17.6041 C   0  0  0  0  0  0  0  0  0  0  0  0
   18.3986  -11.8220  -16.1872 C   0  0  2  0  0  0  0  0  0  0  0  0
   17.1016  -12.4542  -15.9543 N   0  0  0  0  0  0  0  0  0  0  0  0
   18.2140  -10.3329  -16.0107 C   0  0  0  0  0  0  0  0  0  0  0  0
   17.3418   -9.7125  -16.6796 O   0  0  0  0  0  0  0  0  0  0  0  0
   19.0318   -9.6439  -15.0864 N   0  0  0  0  0  0  0  0  0  0  0  0
   18.8634   -8.2442  -14.7458 C   0  0  1  0  0  0  0  0  0  0  0  0
   18.0342   -8.0767  -13.4869 C   0  0  0  0  0  0  0  0  0  0  0  0
   18.7195   -9.0384  -12.1181 S   0  0  0  0  0  0  0  0  0  0  0  0
   20.1823   -7.5949  -14.5913 C   0  0  0  0  0  0  0  0  0  0  0  0
   21.1428   -8.2615  -14.1050 O   0  0  0  0  0  0  0  0  0  0  0  0
   20.4520   -6.2559  -14.9547 N   0  0  0  0  0  0  0  0  0  0  0  0
   21.7692   -5.6783  -14.8771 C   0  0  1  0  0  0  0  0  0  0  0  0
   22.1032   -4.8247  -16.0770 C   0  0  0  0  0  0  0  0  0  0  0  0
   22.2321   -5.6080  -17.3473 C   0  0  0  0  0  0  0  0  0  0  0  0
   22.5485   -4.6247  -18.4531 C   0  0  0  0  0  0  0  0  0  0  0  0
   22.6249   -5.2801  -19.8055 C   0  0  0  0  0  0  0  0  0  0  0  0
   22.8893   -4.2909  -20.8311 N   0  0  0  0  0  0  0  0  0  0  0  0
   22.0077   -4.9832  -13.6047 C   0  0  0  0  0  0  0  0  0  0  0  0
   21.0541   -4.5871  -12.8884 O   0  0  0  0  0  0  0  0  0  0  0  0
   23.2932   -4.7544  -13.1755 O   0  0  0  0  0  0  0  0  0  0  0  0
  2  4  1  0
  2  1  1  0
  3  2  2  0
  4  5  1  0
  5  7  1  0
  5  6  1  6
  7  9  1  0
  7  8  2  0
  9 10  1  0
 10 13  1  0
 10 11  1  1
 12 11  1  0
 13 15  1  0
 13 14  2  0
 15 16  1  0
 16 22  1  0
 16 17  1  6
 18 17  1  0
 19 18  1  0
 20 19  1  0
 21 20  1  0
 22 24  1  0
 23 22  2  0
M  END
$$$$
