NCK.pdb
     RDKit          3D

 24 23  0  0  1  0  0  0  0  0999 V2000
   29.8038  -21.0636  -17.8092 N   0  0  0  0  0  0  0  0  0  0  0  0
   28.4436  -21.1399  -18.2358 C   0  0  0  0  0  0  0  0  0  0  0  0
   28.1887  -20.9255  -19.4431 O   0  0  0  0  0  0  0  0  0  0  0  0
   27.4098  -21.4631  -17.2499 C   0  0  0  0  0  0  0  0  0  0  0  0
   27.9629  -21.7007  -15.8716 C   0  0  2  0  0  0  0  0  0  0  0  0
   28.6579  -22.9865  -15.8700 N   0  0  0  0  0  0  0  0  0  0  0  0
   26.8212  -21.8026  -14.8875 C   0  0  0  0  0  0  0  0  0  0  0  0
   25.6830  -22.1954  -15.2661 O   0  0  0  0  0  0  0  0  0  0  0  0
   27.0450  -21.4516  -13.5367 N   0  0  0  0  0  0  0  0  0  0  0  0
   26.0352  -21.5461  -12.4998 C   0  0  1  0  0  0  0  0  0  0  0  0
   26.5823  -21.1121  -11.1533 C   0  0  0  0  0  0  0  0  0  0  0  0
   25.2708  -21.0181   -9.9127 S   0  0  0  0  0  0  0  0  0  0  0  0
   24.8518  -20.7396  -12.8659 C   0  0  0  0  0  0  0  0  0  0  0  0
   24.9961  -19.5015  -13.0886 O   0  0  0  0  0  0  0  0  0  0  0  0
   23.5445  -21.2635  -12.9867 N   0  0  0  0  0  0  0  0  0  0  0  0
   22.4062  -20.4465  -13.3203 C   0  0  1  0  0  0  0  0  0  0  0  0
   22.0303  -20.5382  -14.7798 C   0  0  0  0  0  0  0  0  0  0  0  0
   20.7071  -19.9103  -15.0942 C   0  0  0  0  0  0  0  0  0  0  0  0
   20.8041  -19.3283  -16.4876 C   0  0  0  0  0  0  0  0  0  0  0  0
   19.5693  -18.5641  -16.8825 C   0  0  0  0  0  0  0  0  0  0  0  0
   19.6967  -18.0652  -18.2372 N   0  0  0  0  0  0  0  0  0  0  0  0
   21.2631  -20.6775  -12.4265 C   0  0  0  0  0  0  0  0  0  0  0  0
   20.2243  -19.9742  -12.4999 O   0  0  0  0  0  0  0  0  0  0  0  0
   21.3155  -21.6788  -11.4863 O   0  0  0  0  0  0  0  0  0  0  0  0
  2  4  1  0
  2  1  1  0
  3  2  2  0
  4  5  1  0
  5  7  1  0
  5  6  1  6
  7  9  1  0
  7  8  2  0
  9 10  1  0
 10 13  1  0
 10 11  1  1
 12 11  1  0
 13 15  1  0
 13 14  2  0
 15 16  1  0
 16 22  1  0
 16 17  1  6
 18 17  1  0
 19 18  1  0
 20 19  1  0
 21 20  1  0
 22 24  1  0
 23 22  2  0
M  END
$$$$
