NCK.pdb
     RDKit          3D

 24 23  0  0  1  0  0  0  0  0999 V2000
   21.8345  -21.6732  -16.4400 N   0  0  0  0  0  0  0  0  0  0  0  0
   22.6405  -20.6363  -15.8803 C   0  0  0  0  0  0  0  0  0  0  0  0
   23.6689  -20.2847  -16.5024 O   0  0  0  0  0  0  0  0  0  0  0  0
   22.2338  -20.0317  -14.6097 C   0  0  0  0  0  0  0  0  0  0  0  0
   21.0301  -20.6955  -13.9993 C   0  0  2  0  0  0  0  0  0  0  0  0
   20.0185  -19.6712  -13.7465 N   0  0  0  0  0  0  0  0  0  0  0  0
   21.4132  -21.2916  -12.6650 C   0  0  0  0  0  0  0  0  0  0  0  0
   22.2603  -22.2252  -12.6006 O   0  0  0  0  0  0  0  0  0  0  0  0
   20.8097  -20.7898  -11.4895 N   0  0  0  0  0  0  0  0  0  0  0  0
   21.0678  -21.3141  -10.1620 C   0  0  1  0  0  0  0  0  0  0  0  0
   21.6013  -20.2379   -9.2359 C   0  0  0  0  0  0  0  0  0  0  0  0
   20.6227  -18.7230   -9.3594 S   0  0  0  0  0  0  0  0  0  0  0  0
   19.8393  -21.9188   -9.6051 C   0  0  0  0  0  0  0  0  0  0  0  0
   18.7213  -21.6286  -10.1238 O   0  0  0  0  0  0  0  0  0  0  0  0
   19.8245  -22.8154   -8.5125 N   0  0  0  0  0  0  0  0  0  0  0  0
   18.7141  -23.6911   -8.2390 C   0  0  1  0  0  0  0  0  0  0  0  0
   18.4868  -24.7043   -9.3352 C   0  0  0  0  0  0  0  0  0  0  0  0
   17.2680  -25.5487   -9.1218 C   0  0  0  0  0  0  0  0  0  0  0  0
   17.1805  -26.5154  -10.2826 C   0  0  0  0  0  0  0  0  0  0  0  0
   15.9632  -27.3972  -10.2104 C   0  0  0  0  0  0  0  0  0  0  0  0
   15.9188  -28.2899  -11.3511 N   0  0  0  0  0  0  0  0  0  0  0  0
   18.7945  -24.3071   -6.9075 C   0  0  0  0  0  0  0  0  0  0  0  0
   17.8837  -25.0604   -6.4805 O   0  0  0  0  0  0  0  0  0  0  0  0
   19.8809  -24.0646   -6.1011 O   0  0  0  0  0  0  0  0  0  0  0  0
  2  4  1  0
  2  1  1  0
  3  2  2  0
  4  5  1  0
  5  7  1  0
  5  6  1  1
  7  9  1  0
  7  8  2  0
  9 10  1  0
 10 13  1  0
 10 11  1  1
 12 11  1  0
 13 15  1  0
 13 14  2  0
 15 16  1  0
 16 22  1  0
 16 17  1  6
 18 17  1  0
 19 18  1  0
 20 19  1  0
 21 20  1  0
 22 24  1  0
 23 22  2  0
M  END
$$$$
