NCK.pdb
     RDKit          3D

 24 23  0  0  1  0  0  0  0  0999 V2000
   16.0231  -15.9570  -14.8831 N   0  0  0  0  0  0  0  0  0  0  0  0
   17.4372  -15.7626  -14.9080 C   0  0  0  0  0  0  0  0  0  0  0  0
   18.1745  -16.7475  -14.6743 O   0  0  0  0  0  0  0  0  0  0  0  0
   17.9629  -14.4277  -15.2031 C   0  0  0  0  0  0  0  0  0  0  0  0
   16.8833  -13.4086  -15.4437 C   0  0  2  0  0  0  0  0  0  0  0  0
   16.6207  -13.3469  -16.8802 N   0  0  0  0  0  0  0  0  0  0  0  0
   17.3793  -12.0472  -15.0158 C   0  0  0  0  0  0  0  0  0  0  0  0
   17.6893  -11.8283  -13.8120 O   0  0  0  0  0  0  0  0  0  0  0  0
   17.4912  -11.0217  -15.9821 N   0  0  0  0  0  0  0  0  0  0  0  0
   17.9212   -9.6700  -15.6792 C   0  0  1  0  0  0  0  0  0  0  0  0
   18.8886   -9.1495  -16.7250 C   0  0  0  0  0  0  0  0  0  0  0  0
   19.3588   -7.4368  -16.3879 S   0  0  0  0  0  0  0  0  0  0  0  0
   16.7495   -8.7765  -15.5625 C   0  0  0  0  0  0  0  0  0  0  0  0
   15.8614   -8.8058  -16.4646 O   0  0  0  0  0  0  0  0  0  0  0  0
   16.5469   -7.8735  -14.4941 N   0  0  0  0  0  0  0  0  0  0  0  0
   15.4174   -6.9819  -14.4319 C   0  0  1  0  0  0  0  0  0  0  0  0
   14.3752   -7.4297  -13.4352 C   0  0  0  0  0  0  0  0  0  0  0  0
   13.1803   -6.5280  -13.3781 C   0  0  0  0  0  0  0  0  0  0  0  0
   12.1861   -7.1572  -12.4265 C   0  0  0  0  0  0  0  0  0  0  0  0
   10.9493   -6.3193  -12.2450 C   0  0  0  0  0  0  0  0  0  0  0  0
   10.0973   -6.8928  -11.2226 N   0  0  0  0  0  0  0  0  0  0  0  0
   15.8139   -5.5795  -14.2439 C   0  0  0  0  0  0  0  0  0  0  0  0
   17.0089   -5.2636  -14.0178 O   0  0  0  0  0  0  0  0  0  0  0  0
   14.8708   -4.5821  -14.3140 O   0  0  0  0  0  0  0  0  0  0  0  0
  2  4  1  0
  2  1  1  0
  3  2  2  0
  4  5  1  0
  5  7  1  0
  5  6  1  6
  7  9  1  0
  7  8  2  0
  9 10  1  0
 10 13  1  0
 10 11  1  6
 12 11  1  0
 13 15  1  0
 13 14  2  0
 15 16  1  0
 16 22  1  0
 16 17  1  1
 18 17  1  0
 19 18  1  0
 20 19  1  0
 21 20  1  0
 22 24  1  0
 23 22  2  0
M  END
$$$$
