NCK.pdb
     RDKit          3D

 24 23  0  0  1  0  0  0  0  0999 V2000
   16.5514  -12.8984  -18.6969 N   0  0  0  0  0  0  0  0  0  0  0  0
   16.8843  -13.4457  -17.4211 C   0  0  0  0  0  0  0  0  0  0  0  0
   16.3158  -14.5028  -17.0636 O   0  0  0  0  0  0  0  0  0  0  0  0
   17.8698  -12.7520  -16.5888 C   0  0  0  0  0  0  0  0  0  0  0  0
   18.5100  -11.5820  -17.2841 C   0  0  2  0  0  0  0  0  0  0  0  0
   19.4645  -12.0954  -18.2646 N   0  0  0  0  0  0  0  0  0  0  0  0
   19.2895  -10.7696  -16.2766 C   0  0  0  0  0  0  0  0  0  0  0  0
   18.7065  -10.2493  -15.2854 O   0  0  0  0  0  0  0  0  0  0  0  0
   20.6808  -10.6000  -16.4595 N   0  0  0  0  0  0  0  0  0  0  0  0
   21.5378   -9.8940  -15.5264 C   0  0  1  0  0  0  0  0  0  0  0  0
   22.9734  -10.3742  -15.6214 C   0  0  0  0  0  0  0  0  0  0  0  0
   24.0438   -9.4697  -14.4794 S   0  0  0  0  0  0  0  0  0  0  0  0
   21.4588   -8.4372  -15.7637 C   0  0  0  0  0  0  0  0  0  0  0  0
   21.7624   -7.9827  -16.9059 O   0  0  0  0  0  0  0  0  0  0  0  0
   21.0610   -7.4972  -14.7860 N   0  0  0  0  0  0  0  0  0  0  0  0
   21.1223   -6.0746  -15.0032 C   0  0  1  0  0  0  0  0  0  0  0  0
   19.7668   -5.4673  -15.2746 C   0  0  0  0  0  0  0  0  0  0  0  0
   19.7966   -3.9742  -15.3928 C   0  0  0  0  0  0  0  0  0  0  0  0
   18.3775   -3.5138  -15.6460 C   0  0  0  0  0  0  0  0  0  0  0  0
   18.2843   -2.0307  -15.8836 C   0  0  0  0  0  0  0  0  0  0  0  0
   16.9195   -1.6543  -16.1928 N   0  0  0  0  0  0  0  0  0  0  0  0
   21.8546   -5.3715  -13.9409 C   0  0  0  0  0  0  0  0  0  0  0  0
   22.2832   -4.2020  -14.1074 O   0  0  0  0  0  0  0  0  0  0  0  0
   22.0833   -5.9916  -12.7357 O   0  0  0  0  0  0  0  0  0  0  0  0
  2  4  1  0
  2  1  1  0
  3  2  2  0
  4  5  1  0
  5  7  1  0
  5  6  1  6
  7  9  1  0
  7  8  2  0
  9 10  1  0
 10 13  1  0
 10 11  1  6
 12 11  1  0
 13 15  1  0
 13 14  2  0
 15 16  1  0
 16 22  1  0
 16 17  1  1
 18 17  1  0
 19 18  1  0
 20 19  1  0
 21 20  1  0
 22 24  1  0
 23 22  2  0
M  END
$$$$
