NCK.pdb
     RDKit          3D

 24 23  0  0  1  0  0  0  0  0999 V2000
   16.1617  -10.9619  -15.7615 N   0  0  0  0  0  0  0  0  0  0  0  0
   17.3495  -11.5226  -15.2023 C   0  0  0  0  0  0  0  0  0  0  0  0
   17.7034  -12.6616  -15.5843 O   0  0  0  0  0  0  0  0  0  0  0  0
   18.0993  -10.7477  -14.2110 C   0  0  0  0  0  0  0  0  0  0  0  0
   17.4646   -9.4208  -13.8968 C   0  0  2  0  0  0  0  0  0  0  0  0
   17.8675   -8.4631  -14.9248 N   0  0  0  0  0  0  0  0  0  0  0  0
   17.9948   -8.9155  -12.5754 C   0  0  0  0  0  0  0  0  0  0  0  0
   17.8115   -9.5781  -11.5168 O   0  0  0  0  0  0  0  0  0  0  0  0
   18.6988   -7.6903  -12.5407 N   0  0  0  0  0  0  0  0  0  0  0  0
   19.1854   -7.0727  -11.3220 C   0  0  1  0  0  0  0  0  0  0  0  0
   20.6238   -6.6150  -11.4695 C   0  0  0  0  0  0  0  0  0  0  0  0
   21.1837   -5.7285   -9.9969 S   0  0  0  0  0  0  0  0  0  0  0  0
   18.3146   -5.9404  -10.9416 C   0  0  0  0  0  0  0  0  0  0  0  0
   18.0039   -5.0817  -11.8188 O   0  0  0  0  0  0  0  0  0  0  0  0
   17.7946   -5.7446   -9.6420 N   0  0  0  0  0  0  0  0  0  0  0  0
   17.0716   -4.5578   -9.2633 C   0  0  1  0  0  0  0  0  0  0  0  0
   15.8815   -4.8559   -8.3831 C   0  0  0  0  0  0  0  0  0  0  0  0
   14.7038   -5.3937   -9.1367 C   0  0  0  0  0  0  0  0  0  0  0  0
   13.6262   -5.7102   -8.1226 C   0  0  0  0  0  0  0  0  0  0  0  0
   12.3717   -6.2442   -8.7594 C   0  0  0  0  0  0  0  0  0  0  0  0
   11.3873   -6.5627   -7.7447 N   0  0  0  0  0  0  0  0  0  0  0  0
   17.9452   -3.5191   -8.7004 C   0  0  0  0  0  0  0  0  0  0  0  0
   19.0950   -3.7935   -8.2741 O   0  0  0  0  0  0  0  0  0  0  0  0
   17.5106   -2.2169   -8.6317 O   0  0  0  0  0  0  0  0  0  0  0  0
  2  4  1  0
  2  1  1  0
  3  2  2  0
  4  5  1  0
  5  7  1  0
  5  6  1  6
  7  9  1  0
  7  8  2  0
  9 10  1  0
 10 13  1  0
 10 11  1  6
 12 11  1  0
 13 15  1  0
 13 14  2  0
 15 16  1  0
 16 22  1  0
 16 17  1  1
 18 17  1  0
 19 18  1  0
 20 19  1  0
 21 20  1  0
 22 24  1  0
 23 22  2  0
M  END
$$$$
