NCK.pdb
     RDKit          3D

 24 23  0  0  1  0  0  0  0  0999 V2000
   19.7460  -22.6506  -12.0416 N   0  0  0  0  0  0  0  0  0  0  0  0
   20.2670  -22.1047  -13.2534 C   0  0  0  0  0  0  0  0  0  0  0  0
   19.6709  -22.3635  -14.3239 O   0  0  0  0  0  0  0  0  0  0  0  0
   21.4696  -21.2706  -13.1943 C   0  0  0  0  0  0  0  0  0  0  0  0
   21.9864  -21.0793  -11.7949 C   0  0  2  0  0  0  0  0  0  0  0  0
   21.0916  -20.1592  -11.0957 N   0  0  0  0  0  0  0  0  0  0  0  0
   23.3491  -20.4292  -11.8518 C   0  0  0  0  0  0  0  0  0  0  0  0
   23.5528  -19.4345  -12.6016 O   0  0  0  0  0  0  0  0  0  0  0  0
   24.3928  -20.9504  -11.0538 N   0  0  0  0  0  0  0  0  0  0  0  0
   25.7769  -20.5298  -11.1589 C   0  0  1  0  0  0  0  0  0  0  0  0
   26.5280  -20.7688   -9.8631 C   0  0  0  0  0  0  0  0  0  0  0  0
   25.4095  -20.7432   -8.4431 S   0  0  0  0  0  0  0  0  0  0  0  0
   26.4382  -21.2286  -12.2810 C   0  0  0  0  0  0  0  0  0  0  0  0
   26.2700  -22.4767  -12.4131 O   0  0  0  0  0  0  0  0  0  0  0  0
   27.2618  -20.5894  -13.2355 N   0  0  0  0  0  0  0  0  0  0  0  0
   27.0659  -20.7348  -14.6550 C   0  0  1  0  0  0  0  0  0  0  0  0
   25.6221  -20.5684  -15.0644 C   0  0  0  0  0  0  0  0  0  0  0  0
   25.3865  -20.8051  -16.5247 C   0  0  0  0  0  0  0  0  0  0  0  0
   23.9127  -20.5824  -16.7854 C   0  0  0  0  0  0  0  0  0  0  0  0
   23.5304  -20.8558  -18.2150 C   0  0  0  0  0  0  0  0  0  0  0  0
   22.1062  -20.6637  -18.4018 N   0  0  0  0  0  0  0  0  0  0  0  0
   27.9773  -19.8917  -15.4408 C   0  0  0  0  0  0  0  0  0  0  0  0
   28.0412  -18.6504  -15.2556 O   0  0  0  0  0  0  0  0  0  0  0  0
   28.7822  -20.4569  -16.4010 O   0  0  0  0  0  0  0  0  0  0  0  0
  2  4  1  0
  2  1  1  0
  3  2  2  0
  4  5  1  0
  5  7  1  0
  5  6  1  1
  7  9  1  0
  7  8  2  0
  9 10  1  0
 10 13  1  0
 10 11  1  1
 12 11  1  0
 13 15  1  0
 13 14  2  0
 15 16  1  0
 16 22  1  0
 16 17  1  1
 18 17  1  0
 19 18  1  0
 20 19  1  0
 21 20  1  0
 22 24  1  0
 23 22  2  0
M  END
$$$$
