PVK.pdb
     RDKit          3D

 24 24  0  0  1  0  0  0  0  0999 V2000
   26.7211  -21.1126  -12.6259 N   0  0  0  0  0  0  0  0  0  0  0  0
   26.7818  -20.5284  -11.3227 C   0  0  0  0  0  0  0  0  0  0  0  0
   25.3734  -20.5676  -10.7564 C   0  0  0  0  0  0  0  0  0  0  0  0
   24.6868  -21.5674  -11.6569 C   0  0  0  0  0  0  0  0  0  0  0  0
   25.3526  -21.2990  -12.9898 C   0  0  1  0  0  0  0  0  0  0  0  0
   24.7750  -20.1157  -13.6809 C   0  0  0  0  0  0  0  0  0  0  0  0
   24.9112  -18.9576  -13.2110 O   0  0  0  0  0  0  0  0  0  0  0  0
   25.7116  -18.9356  -16.9498 C   0  0  0  0  0  0  0  0  0  0  0  0
   24.2348  -19.0551  -17.0054 C   0  0  2  0  0  0  0  0  0  0  0  0
   23.6779  -17.9507  -17.8685 C   0  0  0  0  0  0  0  0  0  0  0  0
   23.5304  -19.1099  -15.6559 C   0  0  2  0  0  0  0  0  0  0  0  0
   24.0523  -20.2359  -14.8878 N   0  0  0  0  0  0  0  0  0  0  0  0
   22.0663  -19.1467  -15.7481 C   0  0  0  0  0  0  0  0  0  0  0  0
   21.5001  -20.2038  -16.2104 O   0  0  0  0  0  0  0  0  0  0  0  0
   21.1570  -18.1318  -15.3780 N   0  0  0  0  0  0  0  0  0  0  0  0
   19.7036  -18.3007  -15.4799 C   0  0  1  0  0  0  0  0  0  0  0  0
   18.9769  -17.3232  -14.6270 C   0  0  0  0  0  0  0  0  0  0  0  0
   18.2931  -17.8921  -13.4272 C   0  0  0  0  0  0  0  0  0  0  0  0
   17.8935  -19.3400  -13.6131 C   0  0  0  0  0  0  0  0  0  0  0  0
   17.1923  -19.8753  -12.3785 C   0  0  0  0  0  0  0  0  0  0  0  0
   16.7679  -21.2440  -12.5598 N   0  0  0  0  0  0  0  0  0  0  0  0
   19.3248  -18.1312  -16.8908 C   0  0  0  0  0  0  0  0  0  0  0  0
   19.9878  -17.2122  -17.6749 O   0  0  0  0  0  0  0  0  0  0  0  0
   18.4089  -18.8079  -17.3895 O   0  0  0  0  0  0  0  0  0  0  0  0
  1  2  1  0
  3  2  1  0
  4  3  1  0
  5  4  1  0
  5  1  1  0
  6 12  1  0
  5  6  1  1
  7  6  2  0
  9  8  1  1
  9 11  1  0
 10  9  1  0
 11 12  1  6
 13 14  2  0
 13 11  1  0
 15 13  1  0
 16 15  1  0
 16 17  1  1
 18 17  1  0
 19 18  1  0
 20 19  1  0
 20 21  1  0
 22 16  1  0
 23 22  1  0
 24 22  2  0
M  END
$$$$
