PVK.pdb
     RDKit          3D

 24 24  0  0  1  0  0  0  0  0999 V2000
   23.0222  -15.4234  -18.3109 N   0  0  0  0  0  0  0  0  0  0  0  0
   21.6033  -15.5183  -18.4556 C   0  0  0  0  0  0  0  0  0  0  0  0
   21.1547  -14.2841  -19.2180 C   0  0  0  0  0  0  0  0  0  0  0  0
   22.4491  -13.7766  -19.8088 C   0  0  0  0  0  0  0  0  0  0  0  0
   23.4469  -14.1241  -18.7246 C   0  0  1  0  0  0  0  0  0  0  0  0
   23.4398  -13.1358  -17.6134 C   0  0  0  0  0  0  0  0  0  0  0  0
   22.5777  -13.1906  -16.7000 O   0  0  0  0  0  0  0  0  0  0  0  0
   26.7538  -11.8819  -15.7246 C   0  0  0  0  0  0  0  0  0  0  0  0
   25.9035  -10.7557  -16.1794 C   0  0  2  0  0  0  0  0  0  0  0  0
   26.0104   -9.6206  -15.1921 C   0  0  0  0  0  0  0  0  0  0  0  0
   24.4483  -11.1060  -16.4628 C   0  0  2  0  0  0  0  0  0  0  0  0
   24.3933  -12.0977  -17.5321 N   0  0  0  0  0  0  0  0  0  0  0  0
   23.6008   -9.9440  -16.7546 C   0  0  0  0  0  0  0  0  0  0  0  0
   23.6887   -9.3865  -17.9092 O   0  0  0  0  0  0  0  0  0  0  0  0
   22.6588   -9.3321  -15.8992 N   0  0  0  0  0  0  0  0  0  0  0  0
   21.8215   -8.2062  -16.3264 C   0  0  1  0  0  0  0  0  0  0  0  0
   20.4264   -8.6365  -16.6088 C   0  0  0  0  0  0  0  0  0  0  0  0
   19.4774   -7.5489  -16.9925 C   0  0  0  0  0  0  0  0  0  0  0  0
   18.0568   -8.0435  -17.1585 C   0  0  0  0  0  0  0  0  0  0  0  0
   17.1484   -6.9357  -17.6585 C   0  0  0  0  0  0  0  0  0  0  0  0
   16.9242   -5.9332  -16.6429 N   0  0  0  0  0  0  0  0  0  0  0  0
   21.8400   -7.1958  -15.2579 C   0  0  0  0  0  0  0  0  0  0  0  0
   22.1145   -7.5718  -13.9610 O   0  0  0  0  0  0  0  0  0  0  0  0
   21.6091   -6.0003  -15.5086 O   0  0  0  0  0  0  0  0  0  0  0  0
  1  2  1  0
  3  2  1  0
  4  3  1  0
  5  4  1  0
  5  1  1  0
  6 12  1  0
  5  6  1  1
  7  6  2  0
  9  8  1  1
  9 11  1  0
 10  9  1  0
 11 12  1  6
 13 14  2  0
 13 11  1  0
 15 13  1  0
 16 15  1  0
 16 17  1  1
 18 17  1  0
 19 18  1  0
 20 19  1  0
 20 21  1  0
 22 16  1  0
 23 22  1  0
 24 22  2  0
M  END
$$$$
