PVK.pdb
     RDKit          3D

 24 24  0  0  1  0  0  0  0  0999 V2000
   27.9612  -14.2853  -17.5471 N   0  0  0  0  0  0  0  0  0  0  0  0
   29.1056  -13.4462  -17.7183 C   0  0  0  0  0  0  0  0  0  0  0  0
   29.0385  -12.3835  -16.6356 C   0  0  0  0  0  0  0  0  0  0  0  0
   28.0415  -12.9696  -15.6638 C   0  0  0  0  0  0  0  0  0  0  0  0
   27.0843  -13.6883  -16.5909 C   0  0  1  0  0  0  0  0  0  0  0  0
   26.0995  -12.7634  -17.2124 C   0  0  0  0  0  0  0  0  0  0  0  0
   26.4582  -11.9025  -18.0554 O   0  0  0  0  0  0  0  0  0  0  0  0
   23.1977  -13.7652  -19.3237 C   0  0  0  0  0  0  0  0  0  0  0  0
   22.6820  -12.9514  -18.1967 C   0  0  2  0  0  0  0  0  0  0  0  0
   21.4527  -12.2017  -18.6454 C   0  0  0  0  0  0  0  0  0  0  0  0
   23.6934  -12.0154  -17.5475 C   0  0  2  0  0  0  0  0  0  0  0  0
   24.7262  -12.8082  -16.8880 N   0  0  0  0  0  0  0  0  0  0  0  0
   23.0970  -11.0326  -16.6354 C   0  0  0  0  0  0  0  0  0  0  0  0
   22.7056  -11.4212  -15.4746 O   0  0  0  0  0  0  0  0  0  0  0  0
   22.8894   -9.6564  -16.8729 N   0  0  0  0  0  0  0  0  0  0  0  0
   22.2740   -8.7695  -15.8798 C   0  0  1  0  0  0  0  0  0  0  0  0
   22.5118   -7.3374  -16.2015 C   0  0  0  0  0  0  0  0  0  0  0  0
   21.9235   -6.3518  -15.2459 C   0  0  0  0  0  0  0  0  0  0  0  0
   22.2560   -4.9194  -15.6040 C   0  0  0  0  0  0  0  0  0  0  0  0
   21.5721   -3.9482  -14.6598 C   0  0  0  0  0  0  0  0  0  0  0  0
   21.9526   -2.5822  -14.9351 N   0  0  0  0  0  0  0  0  0  0  0  0
   20.8317   -9.0552  -15.8482 C   0  0  0  0  0  0  0  0  0  0  0  0
   20.1408   -8.9738  -14.6587 O   0  0  0  0  0  0  0  0  0  0  0  0
   20.2229   -9.3723  -16.8847 O   0  0  0  0  0  0  0  0  0  0  0  0
  1  2  1  0
  3  2  1  0
  4  3  1  0
  5  4  1  0
  5  1  1  0
  6 12  1  0
  5  6  1  6
  7  6  2  0
  9  8  1  6
  9 11  1  0
 10  9  1  0
 11 12  1  1
 13 14  2  0
 13 11  1  0
 15 13  1  0
 16 15  1  0
 16 17  1  6
 18 17  1  0
 19 18  1  0
 20 19  1  0
 20 21  1  0
 22 16  1  0
 23 22  1  0
 24 22  2  0
M  END
$$$$
