PVK.pdb
     RDKit          3D

 24 24  0  0  1  0  0  0  0  0999 V2000
   21.5931  -13.6342  -18.5682 N   0  0  0  0  0  0  0  0  0  0  0  0
   20.5122  -13.6095  -19.5033 C   0  0  0  0  0  0  0  0  0  0  0  0
   20.5164  -12.2334  -20.1452 C   0  0  0  0  0  0  0  0  0  0  0  0
   21.8919  -11.7147  -19.7971 C   0  0  0  0  0  0  0  0  0  0  0  0
   22.1151  -12.3126  -18.4243 C   0  0  1  0  0  0  0  0  0  0  0  0
   21.4327  -11.5381  -17.3538 C   0  0  0  0  0  0  0  0  0  0  0  0
   20.2528  -11.8034  -17.0107 O   0  0  0  0  0  0  0  0  0  0  0  0
   23.1484  -10.9398  -13.9654 C   0  0  0  0  0  0  0  0  0  0  0  0
   22.5840   -9.6559  -14.4466 C   0  0  2  0  0  0  0  0  0  0  0  0
   22.0848   -8.8584  -13.2679 C   0  0  0  0  0  0  0  0  0  0  0  0
   21.5159   -9.7732  -15.5264 C   0  0  2  0  0  0  0  0  0  0  0  0
   22.0728  -10.4768  -16.6774 N   0  0  0  0  0  0  0  0  0  0  0  0
   20.9136   -8.4917  -15.9116 C   0  0  0  0  0  0  0  0  0  0  0  0
   21.6150   -7.6560  -16.5909 O   0  0  0  0  0  0  0  0  0  0  0  0
   19.6084   -8.0359  -15.6249 N   0  0  0  0  0  0  0  0  0  0  0  0
   19.1271   -6.7134  -16.0382 C   0  0  1  0  0  0  0  0  0  0  0  0
   17.6606   -6.7157  -16.2840 C   0  0  0  0  0  0  0  0  0  0  0  0
   17.0641   -5.3991  -16.6599 C   0  0  0  0  0  0  0  0  0  0  0  0
   15.5533   -5.4427  -16.7400 C   0  0  0  0  0  0  0  0  0  0  0  0
   14.9849   -4.0752  -17.0708 C   0  0  0  0  0  0  0  0  0  0  0  0
   13.5410   -4.0945  -17.1071 N   0  0  0  0  0  0  0  0  0  0  0  0
   19.4676   -5.7543  -14.9766 C   0  0  0  0  0  0  0  0  0  0  0  0
   19.8131   -4.4610  -15.3036 O   0  0  0  0  0  0  0  0  0  0  0  0
   19.4495   -6.0954  -13.7813 O   0  0  0  0  0  0  0  0  0  0  0  0
  1  2  1  0
  3  2  1  0
  4  3  1  0
  5  4  1  0
  5  1  1  0
  6 12  1  0
  5  6  1  1
  7  6  2  0
  9  8  1  1
  9 11  1  0
 10  9  1  0
 11 12  1  6
 13 14  2  0
 13 11  1  0
 15 13  1  0
 16 15  1  0
 16 17  1  1
 18 17  1  0
 19 18  1  0
 20 19  1  0
 20 21  1  0
 22 16  1  0
 23 22  1  0
 24 22  2  0
M  END
$$$$
