PVK.pdb
     RDKit          3D

 24 24  0  0  1  0  0  0  0  0999 V2000
   28.8539  -20.4119  -15.3665 N   0  0  0  0  0  0  0  0  0  0  0  0
   28.2398  -19.8704  -16.5382 C   0  0  0  0  0  0  0  0  0  0  0  0
   27.4587  -18.6443  -16.0995 C   0  0  0  0  0  0  0  0  0  0  0  0
   28.0420  -18.3558  -14.7362 C   0  0  0  0  0  0  0  0  0  0  0  0
   28.3288  -19.7483  -14.2160 C   0  0  1  0  0  0  0  0  0  0  0  0
   27.1119  -20.4105  -13.6755 C   0  0  0  0  0  0  0  0  0  0  0  0
   26.5590  -21.3571  -14.2910 O   0  0  0  0  0  0  0  0  0  0  0  0
   26.7820  -21.1264   -9.6881 C   0  0  0  0  0  0  0  0  0  0  0  0
   25.5582  -20.5437  -10.2889 C   0  0  2  0  0  0  0  0  0  0  0  0
   24.3460  -21.0818   -9.5708 C   0  0  0  0  0  0  0  0  0  0  0  0
   25.4256  -20.7099  -11.7973 C   0  0  2  0  0  0  0  0  0  0  0  0
   26.5246  -20.0107  -12.4554 N   0  0  0  0  0  0  0  0  0  0  0  0
   24.1220  -20.2979  -12.3307 C   0  0  0  0  0  0  0  0  0  0  0  0
   23.8391  -19.0451  -12.3781 O   0  0  0  0  0  0  0  0  0  0  0  0
   23.0935  -21.1308  -12.8224 N   0  0  0  0  0  0  0  0  0  0  0  0
   21.8573  -20.5967  -13.4039 C   0  0  1  0  0  0  0  0  0  0  0  0
   21.5261  -21.2607  -14.6926 C   0  0  0  0  0  0  0  0  0  0  0  0
   20.2906  -20.7720  -15.3750 C   0  0  0  0  0  0  0  0  0  0  0  0
   19.9583  -21.5641  -16.6210 C   0  0  0  0  0  0  0  0  0  0  0  0
   18.7480  -20.9843  -17.3293 C   0  0  0  0  0  0  0  0  0  0  0  0
   18.4200  -21.7329  -18.5203 N   0  0  0  0  0  0  0  0  0  0  0  0
   20.7738  -20.7977  -12.4301 C   0  0  0  0  0  0  0  0  0  0  0  0
   19.7024  -19.9315  -12.4055 O   0  0  0  0  0  0  0  0  0  0  0  0
   20.8108  -21.7426  -11.6231 O   0  0  0  0  0  0  0  0  0  0  0  0
  1  2  1  0
  3  2  1  0
  4  3  1  0
  5  4  1  0
  5  1  1  0
  6 12  1  0
  5  6  1  6
  7  6  2  0
  9  8  1  1
  9 11  1  0
 10  9  1  0
 11 12  1  6
 13 14  2  0
 13 11  1  0
 15 13  1  0
 16 15  1  0
 16 17  1  6
 18 17  1  0
 19 18  1  0
 20 19  1  0
 20 21  1  0
 22 16  1  0
 23 22  1  0
 24 22  2  0
M  END
$$$$
