PVK.pdb
     RDKit          3D

 24 24  0  0  1  0  0  0  0  0999 V2000
   26.0095  -12.9688  -16.7609 N   0  0  0  0  0  0  0  0  0  0  0  0
   27.1129  -12.4113  -17.4786 C   0  0  0  0  0  0  0  0  0  0  0  0
   27.6203  -11.2356  -16.6624 C   0  0  0  0  0  0  0  0  0  0  0  0
   26.9935  -11.4818  -15.3102 C   0  0  0  0  0  0  0  0  0  0  0  0
   25.6609  -12.0929  -15.6881 C   0  0  1  0  0  0  0  0  0  0  0  0
   24.6617  -11.0658  -16.0858 C   0  0  0  0  0  0  0  0  0  0  0  0
   24.5021  -10.7463  -17.2911 O   0  0  0  0  0  0  0  0  0  0  0  0
   21.0616  -11.6131  -15.4549 C   0  0  0  0  0  0  0  0  0  0  0  0
   21.4388  -10.3136  -14.8489 C   0  0  2  0  0  0  0  0  0  0  0  0
   20.2414   -9.3966  -14.8517 C   0  0  0  0  0  0  0  0  0  0  0  0
   22.6567   -9.6337  -15.4612 C   0  0  2  0  0  0  0  0  0  0  0  0
   23.8514  -10.4063  -15.1361 N   0  0  0  0  0  0  0  0  0  0  0  0
   22.8032   -8.2223  -15.0868 C   0  0  0  0  0  0  0  0  0  0  0  0
   23.2109   -7.9338  -13.9027 O   0  0  0  0  0  0  0  0  0  0  0  0
   22.5473   -7.0900  -15.8904 N   0  0  0  0  0  0  0  0  0  0  0  0
   22.8229   -5.7228  -15.4361 C   0  0  1  0  0  0  0  0  0  0  0  0
   22.5756   -4.7270  -16.5124 C   0  0  0  0  0  0  0  0  0  0  0  0
   22.8009   -3.2987  -16.1384 C   0  0  0  0  0  0  0  0  0  0  0  0
   22.6484   -2.3555  -17.3122 C   0  0  0  0  0  0  0  0  0  0  0  0
   22.7810   -0.9098  -16.8710 C   0  0  0  0  0  0  0  0  0  0  0  0
   22.5459    0.0034  -17.9652 N   0  0  0  0  0  0  0  0  0  0  0  0
   21.9623   -5.4480  -14.2757 C   0  0  0  0  0  0  0  0  0  0  0  0
   22.4737   -4.7824  -13.1829 O   0  0  0  0  0  0  0  0  0  0  0  0
   20.7732   -5.8105  -14.2653 O   0  0  0  0  0  0  0  0  0  0  0  0
  1  2  1  0
  3  2  1  0
  4  3  1  0
  5  4  1  0
  5  1  1  0
  6 12  1  0
  5  6  1  6
  7  6  2  0
  9  8  1  6
  9 11  1  0
 10  9  1  0
 11 12  1  1
 13 14  2  0
 13 11  1  0
 15 13  1  0
 16 15  1  0
 16 17  1  6
 18 17  1  0
 19 18  1  0
 20 19  1  0
 20 21  1  0
 22 16  1  0
 23 22  1  0
 24 22  2  0
M  END
$$$$
