QQF.pdb
     RDKit          3D

 30 30  0  0  1  0  0  0  0  0999 V2000
   23.8393  -24.0053  -14.2755 N   0  0  0  0  0  0  0  0  0  0  0  0
   25.2455  -24.0960  -14.1990 C   0  0  0  0  0  0  0  0  0  0  0  0
   25.7725  -25.0719  -13.6235 O   0  0  0  0  0  0  0  0  0  0  0  0
   26.0669  -23.0274  -14.8020 C   0  0  0  0  0  0  0  0  0  0  0  0
   25.1856  -21.9707  -15.3903 C   0  0  0  0  0  0  0  0  0  0  0  0
   25.7753  -20.5929  -15.2449 C   0  0  2  0  0  0  0  0  0  0  0  0
   27.1479  -20.6526  -15.7727 N   0  0  0  0  0  0  0  0  0  0  0  0
   25.7710  -20.1938  -13.8278 C   0  0  0  0  0  0  0  0  0  0  0  0
   26.8978  -20.0025  -13.2721 O   0  0  0  0  0  0  0  0  0  0  0  0
   20.6835  -19.2433  -12.2607 N   0  0  0  0  0  0  0  0  0  0  0  0
   21.0291  -20.1146  -11.2191 C   0  0  0  0  0  0  0  0  0  0  0  0
   20.1694  -20.8367  -10.6844 O   0  0  0  0  0  0  0  0  0  0  0  0
   22.4312  -20.1852  -10.7421 C   0  0  0  0  0  0  0  0  0  0  0  0
   23.2725  -19.0967  -11.3737 C   0  0  0  0  0  0  0  0  0  0  0  0
   24.6431  -19.5417  -11.7467 C   0  0  2  0  0  0  0  0  0  0  0  0
   24.5729  -20.0339  -13.1124 N   0  0  0  0  0  0  0  0  0  0  0  0
   25.2333  -20.5785  -10.8401 C   0  0  0  0  0  0  0  0  0  0  0  0
   25.0049  -21.8014  -11.0964 O   0  0  0  0  0  0  0  0  0  0  0  0
   26.0144  -20.2617   -9.7354 N   0  0  0  0  0  0  0  0  0  0  0  0
   26.5853  -21.1457   -8.7597 C   0  0  1  0  0  0  0  0  0  0  0  0
   28.0102  -20.7821   -8.3496 C   0  0  0  0  0  0  0  0  0  0  0  0
   27.9412  -20.1123   -7.0250 C   0  0  0  0  0  0  0  0  0  0  0  0
   28.1186  -20.7536   -5.8210 C   0  0  0  0  0  0  0  0  0  0  0  0
   28.0694  -20.0992   -4.6166 C   0  0  0  0  0  0  0  0  0  0  0  0
   27.8305  -18.7329   -4.5661 C   0  0  0  0  0  0  0  0  0  0  0  0
   27.6439  -18.0794   -5.7932 C   0  0  0  0  0  0  0  0  0  0  0  0
   27.6983  -18.7304   -6.9783 C   0  0  0  0  0  0  0  0  0  0  0  0
   25.6844  -21.4847   -7.6685 C   0  0  0  0  0  0  0  0  0  0  0  0
   25.8923  -22.4547   -6.7376 O   0  0  0  0  0  0  0  0  0  0  0  0
   24.5826  -20.7932   -7.5901 O   0  0  0  0  0  0  0  0  0  0  0  0
  1  2  1  0
  2  4  1  0
  2  3  2  0
  4  5  1  0
  6  7  1  1
  6  5  1  0
  8  6  1  0
  9  8  2  0
 10 11  1  0
 11 12  2  0
 13 11  1  0
 13 14  1  0
 15 14  1  1
 15 16  1  0
 16  8  1  0
 17 19  1  0
 17 15  1  0
 18 17  2  0
 20 28  1  0
 20 19  1  0
 20 21  1  1
 22 21  1  0
 22 23  2  0
 24 23  1  0
 25 24  2  0
 26 27  2  0
 26 25  1  0
 27 22  1  0
 28 29  1  0
 30 28  2  0
M  END
$$$$
