QQF.pdb
     RDKit          3D

 30 30  0  0  1  0  0  0  0  0999 V2000
   27.6320  -21.1951  -16.6835 N   0  0  0  0  0  0  0  0  0  0  0  0
   28.4820  -21.6079  -15.6353 C   0  0  0  0  0  0  0  0  0  0  0  0
   28.9283  -22.7749  -15.6234 O   0  0  0  0  0  0  0  0  0  0  0  0
   28.8242  -20.6461  -14.5686 C   0  0  0  0  0  0  0  0  0  0  0  0
   28.0533  -19.3768  -14.7531 C   0  0  0  0  0  0  0  0  0  0  0  0
   26.5683  -19.6177  -14.8163 C   0  0  2  0  0  0  0  0  0  0  0  0
   26.0142  -18.6496  -15.7765 N   0  0  0  0  0  0  0  0  0  0  0  0
   25.9749  -19.4365  -13.4812 C   0  0  0  0  0  0  0  0  0  0  0  0
   25.9281  -18.2535  -13.0192 O   0  0  0  0  0  0  0  0  0  0  0  0
   21.0826  -22.1825  -11.6013 N   0  0  0  0  0  0  0  0  0  0  0  0
   21.2283  -21.0403  -12.3998 C   0  0  0  0  0  0  0  0  0  0  0  0
   20.2780  -20.6170  -13.0810 O   0  0  0  0  0  0  0  0  0  0  0  0
   22.5240  -20.3205  -12.4399 C   0  0  0  0  0  0  0  0  0  0  0  0
   23.5213  -20.9492  -11.4904 C   0  0  0  0  0  0  0  0  0  0  0  0
   24.8396  -20.2585  -11.4653 C   0  0  2  0  0  0  0  0  0  0  0  0
   25.4827  -20.5242  -12.7414 N   0  0  0  0  0  0  0  0  0  0  0  0
   25.7329  -20.6553  -10.3296 C   0  0  0  0  0  0  0  0  0  0  0  0
   26.3549  -21.7598  -10.4117 O   0  0  0  0  0  0  0  0  0  0  0  0
   25.9083  -19.8722   -9.1953 N   0  0  0  0  0  0  0  0  0  0  0  0
   26.7165  -20.1387   -8.0397 C   0  0  1  0  0  0  0  0  0  0  0  0
   27.4445  -18.9127   -7.4941 C   0  0  0  0  0  0  0  0  0  0  0  0
   28.2153  -19.3411   -6.2983 C   0  0  0  0  0  0  0  0  0  0  0  0
   27.7721  -19.2128   -5.0023 C   0  0  0  0  0  0  0  0  0  0  0  0
   28.5017  -19.6395   -3.9221 C   0  0  0  0  0  0  0  0  0  0  0  0
   29.7458  -20.2284   -4.1002 C   0  0  0  0  0  0  0  0  0  0  0  0
   30.2008  -20.3544   -5.4210 C   0  0  0  0  0  0  0  0  0  0  0  0
   29.4738  -19.9355   -6.4827 C   0  0  0  0  0  0  0  0  0  0  0  0
   26.0682  -20.9793   -7.0446 C   0  0  0  0  0  0  0  0  0  0  0  0
   26.6818  -21.9191   -6.2758 O   0  0  0  0  0  0  0  0  0  0  0  0
   24.7855  -20.8097   -6.8891 O   0  0  0  0  0  0  0  0  0  0  0  0
  1  2  1  0
  2  4  1  0
  2  3  2  0
  4  5  1  0
  6  7  1  6
  6  5  1  0
  8  6  1  0
  9  8  2  0
 10 11  1  0
 11 12  2  0
 13 11  1  0
 13 14  1  0
 15 14  1  6
 15 16  1  0
 16  8  1  0
 17 19  1  0
 17 15  1  0
 18 17  2  0
 20 28  1  0
 20 19  1  0
 20 21  1  1
 22 21  1  0
 22 23  2  0
 24 23  1  0
 25 24  2  0
 26 27  2  0
 26 25  1  0
 27 22  1  0
 28 29  1  0
 30 28  2  0
M  END
$$$$
