QQF.pdb
     RDKit          3D

 30 30  0  0  1  0  0  0  0  0999 V2000
   15.8060  -24.6939    4.0766 N   0  0  0  0  0  0  0  0  0  0  0  0
   14.5115  -24.3588    3.6253 C   0  0  0  0  0  0  0  0  0  0  0  0
   13.5636  -25.1486    3.8221 O   0  0  0  0  0  0  0  0  0  0  0  0
   14.3064  -23.0758    2.9238 C   0  0  0  0  0  0  0  0  0  0  0  0
   15.5936  -22.3158    2.8538 C   0  0  0  0  0  0  0  0  0  0  0  0
   15.4597  -21.0423    2.0618 C   0  0  2  0  0  0  0  0  0  0  0  0
   15.6810  -21.3875    0.6482 N   0  0  0  0  0  0  0  0  0  0  0  0
   16.4505  -20.0576    2.5266 C   0  0  0  0  0  0  0  0  0  0  0  0
   17.5364  -19.9690    1.8723 O   0  0  0  0  0  0  0  0  0  0  0  0
   15.4100  -14.4926    4.3028 N   0  0  0  0  0  0  0  0  0  0  0  0
   16.7979  -14.5337    4.4912 C   0  0  0  0  0  0  0  0  0  0  0  0
   17.4458  -13.4868    4.6656 O   0  0  0  0  0  0  0  0  0  0  0  0
   17.5117  -15.8334    4.4851 C   0  0  0  0  0  0  0  0  0  0  0  0
   16.5602  -16.9713    4.1831 C   0  0  0  0  0  0  0  0  0  0  0  0
   17.2333  -18.2914    4.0419 C   0  0  2  0  0  0  0  0  0  0  0  0
   16.2125  -19.2490    3.6501 N   0  0  0  0  0  0  0  0  0  0  0  0
   17.9559  -18.7601    5.2681 C   0  0  0  0  0  0  0  0  0  0  0  0
   17.2818  -19.3272    6.1832 O   0  0  0  0  0  0  0  0  0  0  0  0
   19.3245  -18.6005    5.4474 N   0  0  0  0  0  0  0  0  0  0  0  0
   20.1299  -18.9788    6.5733 C   0  0  1  0  0  0  0  0  0  0  0  0
   21.4345  -19.6772    6.1979 C   0  0  0  0  0  0  0  0  0  0  0  0
   21.0853  -20.9176    5.4581 C   0  0  0  0  0  0  0  0  0  0  0  0
   21.0340  -22.1703    6.0240 C   0  0  0  0  0  0  0  0  0  0  0  0
   20.6864  -23.2920    5.3153 C   0  0  0  0  0  0  0  0  0  0  0  0
   20.3683  -23.2033    3.9672 C   0  0  0  0  0  0  0  0  0  0  0  0
   20.4259  -21.9270    3.3881 C   0  0  0  0  0  0  0  0  0  0  0  0
   20.7652  -20.8237    4.0943 C   0  0  0  0  0  0  0  0  0  0  0  0
   20.2398  -17.9492    7.5956 C   0  0  0  0  0  0  0  0  0  0  0  0
   19.7605  -16.6796    7.5006 O   0  0  0  0  0  0  0  0  0  0  0  0
   20.8580  -18.2850    8.6926 O   0  0  0  0  0  0  0  0  0  0  0  0
  1  2  1  0
  2  4  1  0
  2  3  2  0
  4  5  1  0
  6  7  1  6
  6  5  1  0
  8  6  1  0
  9  8  2  0
 10 11  1  0
 11 12  2  0
 13 11  1  0
 13 14  1  0
 15 14  1  1
 15 16  1  0
 16  8  1  0
 17 19  1  0
 17 15  1  0
 18 17  2  0
 20 28  1  0
 20 19  1  0
 20 21  1  6
 22 21  1  0
 22 23  2  0
 24 23  1  0
 25 24  2  0
 26 27  2  0
 26 25  1  0
 27 22  1  0
 28 29  1  0
 30 28  2  0
M  END
$$$$
