QQF.pdb
     RDKit          3D

 30 30  0  0  1  0  0  0  0  0999 V2000
   26.9183  -14.3727  -14.4551 N   0  0  0  0  0  0  0  0  0  0  0  0
   26.5070  -14.3406  -15.8047 C   0  0  0  0  0  0  0  0  0  0  0  0
   26.8105  -13.3629  -16.5212 O   0  0  0  0  0  0  0  0  0  0  0  0
   25.7202  -15.4688  -16.3417 C   0  0  0  0  0  0  0  0  0  0  0  0
   25.5503  -16.5230  -15.2933 C   0  0  0  0  0  0  0  0  0  0  0  0
   26.6349  -17.5656  -15.3544 C   0  0  2  0  0  0  0  0  0  0  0  0
   26.9908  -17.7360  -16.7724 N   0  0  0  0  0  0  0  0  0  0  0  0
   26.1475  -18.8289  -14.7764 C   0  0  0  0  0  0  0  0  0  0  0  0
   25.5441  -19.6322  -15.5548 O   0  0  0  0  0  0  0  0  0  0  0  0
   28.8578  -21.6713  -10.2829 N   0  0  0  0  0  0  0  0  0  0  0  0
   29.1864  -21.6502  -11.6449 C   0  0  0  0  0  0  0  0  0  0  0  0
   30.3225  -21.9793  -12.0285 O   0  0  0  0  0  0  0  0  0  0  0  0
   28.1768  -21.2338  -12.6478 C   0  0  0  0  0  0  0  0  0  0  0  0
   26.8444  -20.9497  -11.9878 C   0  0  0  0  0  0  0  0  0  0  0  0
   25.8211  -20.4016  -12.9195 C   0  0  2  0  0  0  0  0  0  0  0  0
   26.3351  -19.1373  -13.4191 N   0  0  0  0  0  0  0  0  0  0  0  0
   24.4606  -20.2194  -12.3183 C   0  0  0  0  0  0  0  0  0  0  0  0
   24.3074  -19.3134  -11.4414 O   0  0  0  0  0  0  0  0  0  0  0  0
   23.3651  -20.9959  -12.6757 N   0  0  0  0  0  0  0  0  0  0  0  0
   21.9854  -20.6109  -12.7632 C   0  0  1  0  0  0  0  0  0  0  0  0
   21.7666  -19.2011  -13.3066 C   0  0  0  0  0  0  0  0  0  0  0  0
   20.3069  -18.9260  -13.2720 C   0  0  0  0  0  0  0  0  0  0  0  0
   19.5030  -18.8605  -14.3864 C   0  0  0  0  0  0  0  0  0  0  0  0
   18.1535  -18.6256  -14.3160 C   0  0  0  0  0  0  0  0  0  0  0  0
   17.5339  -18.4380  -13.0882 C   0  0  0  0  0  0  0  0  0  0  0  0
   18.3541  -18.4991  -11.9519 C   0  0  0  0  0  0  0  0  0  0  0  0
   19.6842  -18.7358  -12.0282 C   0  0  0  0  0  0  0  0  0  0  0  0
   21.1174  -21.6394  -13.3164 C   0  0  0  0  0  0  0  0  0  0  0  0
   21.3234  -22.3124  -14.4806 O   0  0  0  0  0  0  0  0  0  0  0  0
   20.0495  -21.9289  -12.6278 O   0  0  0  0  0  0  0  0  0  0  0  0
  1  2  1  0
  2  4  1  0
  2  3  2  0
  4  5  1  0
  6  7  1  6
  6  5  1  0
  8  6  1  0
  9  8  2  0
 10 11  1  0
 11 12  2  0
 13 11  1  0
 13 14  1  0
 15 14  1  1
 15 16  1  0
 16  8  1  0
 17 19  1  0
 17 15  1  0
 18 17  2  0
 20 28  1  0
 20 19  1  0
 20 21  1  6
 22 21  1  0
 22 23  2  0
 24 23  1  0
 25 24  2  0
 26 27  2  0
 26 25  1  0
 27 22  1  0
 28 29  1  0
 30 28  2  0
M  END
$$$$
