QQF.pdb
     RDKit          3D

 30 30  0  0  1  0  0  0  0  0999 V2000
   29.3908  -21.1202  -14.9778 N   0  0  0  0  0  0  0  0  0  0  0  0
   29.0436  -20.4357  -16.1621 C   0  0  0  0  0  0  0  0  0  0  0  0
   29.5821  -20.7564  -17.2430 O   0  0  0  0  0  0  0  0  0  0  0  0
   28.0478  -19.3475  -16.0957 C   0  0  0  0  0  0  0  0  0  0  0  0
   27.5950  -19.1495  -14.6832 C   0  0  0  0  0  0  0  0  0  0  0  0
   26.8529  -20.3466  -14.1509 C   0  0  2  0  0  0  0  0  0  0  0  0
   25.7920  -20.6633  -15.1206 N   0  0  0  0  0  0  0  0  0  0  0  0
   26.2847  -20.0357  -12.8288 C   0  0  0  0  0  0  0  0  0  0  0  0
   26.7953  -19.0641  -12.1882 O   0  0  0  0  0  0  0  0  0  0  0  0
   20.9061  -20.0295  -10.0996 N   0  0  0  0  0  0  0  0  0  0  0  0
   21.1391  -20.0696  -11.4807 C   0  0  0  0  0  0  0  0  0  0  0  0
   20.2876  -19.6432  -12.2804 O   0  0  0  0  0  0  0  0  0  0  0  0
   22.4107  -20.6233  -12.0053 C   0  0  0  0  0  0  0  0  0  0  0  0
   23.3427  -21.0022  -10.8742 C   0  0  0  0  0  0  0  0  0  0  0  0
   24.6987  -20.3995  -10.9902 C   0  0  2  0  0  0  0  0  0  0  0  0
   25.2240  -20.7823  -12.2902 N   0  0  0  0  0  0  0  0  0  0  0  0
   25.6511  -20.7861   -9.8998 C   0  0  0  0  0  0  0  0  0  0  0  0
   26.1779  -21.9411   -9.9434 O   0  0  0  0  0  0  0  0  0  0  0  0
   25.9801  -19.9407   -8.8473 N   0  0  0  0  0  0  0  0  0  0  0  0
   26.8071  -20.2119   -7.7062 C   0  0  1  0  0  0  0  0  0  0  0  0
   27.7500  -19.0696   -7.3362 C   0  0  0  0  0  0  0  0  0  0  0  0
   28.4578  -19.4555   -6.0881 C   0  0  0  0  0  0  0  0  0  0  0  0
   29.5017  -20.3496   -6.0328 C   0  0  0  0  0  0  0  0  0  0  0  0
   30.1471  -20.6666   -4.8647 C   0  0  0  0  0  0  0  0  0  0  0  0
   29.7599  -20.0851   -3.6654 C   0  0  0  0  0  0  0  0  0  0  0  0
   28.6917  -19.1776   -3.7203 C   0  0  0  0  0  0  0  0  0  0  0  0
   28.0624  -18.8658   -4.8770 C   0  0  0  0  0  0  0  0  0  0  0  0
   26.0988  -20.8274   -6.5942 C   0  0  0  0  0  0  0  0  0  0  0  0
   26.6303  -21.7046   -5.7005 O   0  0  0  0  0  0  0  0  0  0  0  0
   24.8438  -20.5045   -6.4561 O   0  0  0  0  0  0  0  0  0  0  0  0
  1  2  1  0
  2  4  1  0
  2  3  2  0
  4  5  1  0
  6  7  1  6
  6  5  1  0
  8  6  1  0
  9  8  2  0
 10 11  1  0
 11 12  2  0
 13 11  1  0
 13 14  1  0
 15 14  1  1
 15 16  1  0
 16  8  1  0
 17 19  1  0
 17 15  1  0
 18 17  2  0
 20 28  1  0
 20 19  1  0
 20 21  1  1
 22 21  1  0
 22 23  2  0
 24 23  1  0
 25 24  2  0
 26 27  2  0
 26 25  1  0
 27 22  1  0
 28 29  1  0
 30 28  2  0
M  END
$$$$
