QQF.pdb
     RDKit          3D

 30 30  0  0  1  0  0  0  0  0999 V2000
   19.9544  -14.7415  -14.5765 N   0  0  0  0  0  0  0  0  0  0  0  0
   20.0811  -13.7365  -15.5591 C   0  0  0  0  0  0  0  0  0  0  0  0
   21.2119  -13.4432  -16.0023 O   0  0  0  0  0  0  0  0  0  0  0  0
   18.8671  -13.0484  -16.0417 C   0  0  0  0  0  0  0  0  0  0  0  0
   19.1550  -11.5983  -16.2734 C   0  0  0  0  0  0  0  0  0  0  0  0
   17.9185  -10.8264  -16.6508 C   0  0  2  0  0  0  0  0  0  0  0  0
   17.5115  -11.2893  -17.9874 N   0  0  0  0  0  0  0  0  0  0  0  0
   18.2121   -9.3838  -16.6579 C   0  0  0  0  0  0  0  0  0  0  0  0
   18.8677   -8.9267  -17.6461 O   0  0  0  0  0  0  0  0  0  0  0  0
   14.4554   -5.0382  -15.0507 N   0  0  0  0  0  0  0  0  0  0  0  0
   15.6062   -4.2549  -15.2105 C   0  0  0  0  0  0  0  0  0  0  0  0
   15.5457   -3.0153  -15.1329 O   0  0  0  0  0  0  0  0  0  0  0  0
   16.9149   -4.9000  -15.4745 C   0  0  0  0  0  0  0  0  0  0  0  0
   16.7808   -6.4077  -15.4914 C   0  0  0  0  0  0  0  0  0  0  0  0
   18.0680   -7.1195  -15.7196 C   0  0  2  0  0  0  0  0  0  0  0  0
   17.7910   -8.5424  -15.6151 N   0  0  0  0  0  0  0  0  0  0  0  0
   19.1747   -6.7260  -14.7890 C   0  0  0  0  0  0  0  0  0  0  0  0
   19.1012   -7.0975  -13.5766 O   0  0  0  0  0  0  0  0  0  0  0  0
   20.2716   -5.9745  -15.1926 N   0  0  0  0  0  0  0  0  0  0  0  0
   21.3904   -5.5324  -14.4101 C   0  0  1  0  0  0  0  0  0  0  0  0
   22.7419   -6.0186  -14.9276 C   0  0  0  0  0  0  0  0  0  0  0  0
   22.7203   -7.5042  -14.9188 C   0  0  0  0  0  0  0  0  0  0  0  0
   22.3785   -8.2689  -13.8276 C   0  0  0  0  0  0  0  0  0  0  0  0
   22.3483   -9.6397  -13.8612 C   0  0  0  0  0  0  0  0  0  0  0  0
   22.6720  -10.3234  -15.0250 C   0  0  0  0  0  0  0  0  0  0  0  0
   23.0261   -9.5444  -16.1364 C   0  0  0  0  0  0  0  0  0  0  0  0
   23.0494   -8.1919  -16.0976 C   0  0  0  0  0  0  0  0  0  0  0  0
   21.3304   -4.1288  -14.0312 C   0  0  0  0  0  0  0  0  0  0  0  0
   20.4337   -3.2173  -14.4954 O   0  0  0  0  0  0  0  0  0  0  0  0
   22.2230   -3.7211  -13.1737 O   0  0  0  0  0  0  0  0  0  0  0  0
  1  2  1  0
  2  4  1  0
  2  3  2  0
  4  5  1  0
  6  7  1  6
  6  5  1  0
  8  6  1  0
  9  8  2  0
 10 11  1  0
 11 12  2  0
 13 11  1  0
 13 14  1  0
 15 14  1  1
 15 16  1  0
 16  8  1  0
 17 19  1  0
 17 15  1  0
 18 17  2  0
 20 28  1  0
 20 19  1  0
 20 21  1  6
 22 21  1  0
 22 23  2  0
 24 23  1  0
 25 24  2  0
 26 27  2  0
 26 25  1  0
 27 22  1  0
 28 29  1  0
 30 28  2  0
M  END
$$$$
