QQF.pdb
     RDKit          3D

 30 30  0  0  1  0  0  0  0  0999 V2000
   20.1540  -20.2104  -11.2417 N   0  0  0  0  0  0  0  0  0  0  0  0
   19.4566  -20.6597  -12.3833 C   0  0  0  0  0  0  0  0  0  0  0  0
   18.2860  -20.2725  -12.5858 O   0  0  0  0  0  0  0  0  0  0  0  0
   20.1295  -21.5852  -13.3165 C   0  0  0  0  0  0  0  0  0  0  0  0
   21.5129  -21.8882  -12.8330 C   0  0  0  0  0  0  0  0  0  0  0  0
   22.5205  -20.8843  -13.3271 C   0  0  2  0  0  0  0  0  0  0  0  0
   22.5563  -20.9947  -14.7944 N   0  0  0  0  0  0  0  0  0  0  0  0
   23.8410  -21.1720  -12.7432 C   0  0  0  0  0  0  0  0  0  0  0  0
   24.1194  -22.3882  -12.5010 O   0  0  0  0  0  0  0  0  0  0  0  0
   28.9395  -21.3341  -13.1615 N   0  0  0  0  0  0  0  0  0  0  0  0
   28.2612  -20.6395  -14.1719 C   0  0  0  0  0  0  0  0  0  0  0  0
   28.4983  -20.8715  -15.3704 O   0  0  0  0  0  0  0  0  0  0  0  0
   27.2478  -19.6159  -13.8201 C   0  0  0  0  0  0  0  0  0  0  0  0
   27.0428  -19.5508  -12.3217 C   0  0  0  0  0  0  0  0  0  0  0  0
   26.0139  -20.5010  -11.8177 C   0  0  2  0  0  0  0  0  0  0  0  0
   24.7585  -20.1473  -12.4590 N   0  0  0  0  0  0  0  0  0  0  0  0
   25.8590  -20.5237  -10.3274 C   0  0  0  0  0  0  0  0  0  0  0  0
   24.8733  -19.9070   -9.8161 O   0  0  0  0  0  0  0  0  0  0  0  0
   26.7436  -21.1854   -9.4846 N   0  0  0  0  0  0  0  0  0  0  0  0
   27.0708  -20.8885   -8.1192 C   0  0  1  0  0  0  0  0  0  0  0  0
   28.4561  -21.3683   -7.6934 C   0  0  0  0  0  0  0  0  0  0  0  0
   28.7353  -20.8031   -6.3480 C   0  0  0  0  0  0  0  0  0  0  0  0
   29.2175  -19.5343   -6.1241 C   0  0  0  0  0  0  0  0  0  0  0  0
   29.4436  -19.0369   -4.8660 C   0  0  0  0  0  0  0  0  0  0  0  0
   29.1908  -19.8148   -3.7447 C   0  0  0  0  0  0  0  0  0  0  0  0
   28.7045  -21.1106   -3.9725 C   0  0  0  0  0  0  0  0  0  0  0  0
   28.4792  -21.5936   -5.2164 C   0  0  0  0  0  0  0  0  0  0  0  0
   26.7187  -19.5385   -7.7059 C   0  0  0  0  0  0  0  0  0  0  0  0
   27.1246  -18.3900   -8.3115 O   0  0  0  0  0  0  0  0  0  0  0  0
   25.9494  -19.4346   -6.6591 O   0  0  0  0  0  0  0  0  0  0  0  0
  1  2  1  0
  2  4  1  0
  2  3  2  0
  4  5  1  0
  6  7  1  6
  6  5  1  0
  8  6  1  0
  9  8  2  0
 10 11  1  0
 11 12  2  0
 13 11  1  0
 13 14  1  0
 15 14  1  1
 15 16  1  0
 16  8  1  0
 17 19  1  0
 17 15  1  0
 18 17  2  0
 20 28  1  0
 20 19  1  0
 20 21  1  6
 22 21  1  0
 22 23  2  0
 24 23  1  0
 25 24  2  0
 26 27  2  0
 26 25  1  0
 27 22  1  0
 28 29  1  0
 30 28  2  0
M  END
$$$$
