QQF.pdb
     RDKit          3D

 30 30  0  0  1  0  0  0  0  0999 V2000
   15.9155  -13.5147  -13.4074 N   0  0  0  0  0  0  0  0  0  0  0  0
   15.4260  -14.0735  -12.2075 C   0  0  0  0  0  0  0  0  0  0  0  0
   15.2840  -15.3113  -12.1139 O   0  0  0  0  0  0  0  0  0  0  0  0
   15.0879  -13.1766  -11.0844 C   0  0  0  0  0  0  0  0  0  0  0  0
   15.3962  -11.7580  -11.4476 C   0  0  0  0  0  0  0  0  0  0  0  0
   14.3594  -10.7992  -10.9254 C   0  0  2  0  0  0  0  0  0  0  0  0
   13.1347  -11.0167  -11.7122 N   0  0  0  0  0  0  0  0  0  0  0  0
   14.8407   -9.4152  -11.0685 C   0  0  0  0  0  0  0  0  0  0  0  0
   14.6598   -8.8478  -12.1912 O   0  0  0  0  0  0  0  0  0  0  0  0
   15.0522   -5.1280   -6.8247 N   0  0  0  0  0  0  0  0  0  0  0  0
   13.9817   -5.4640   -7.6641 C   0  0  0  0  0  0  0  0  0  0  0  0
   12.8263   -5.0876   -7.4003 O   0  0  0  0  0  0  0  0  0  0  0  0
   14.2176   -6.2755   -8.8825 C   0  0  0  0  0  0  0  0  0  0  0  0
   15.6878   -6.5996   -9.0400 C   0  0  0  0  0  0  0  0  0  0  0  0
   15.9949   -7.4082  -10.2514 C   0  0  2  0  0  0  0  0  0  0  0  0
   15.4787   -8.7455  -10.0116 N   0  0  0  0  0  0  0  0  0  0  0  0
   17.4468   -7.4592  -10.6186 C   0  0  0  0  0  0  0  0  0  0  0  0
   18.2040   -8.2450   -9.9686 O   0  0  0  0  0  0  0  0  0  0  0  0
   17.9983   -6.6867  -11.6334 N   0  0  0  0  0  0  0  0  0  0  0  0
   19.2862   -6.8117  -12.2542 C   0  0  1  0  0  0  0  0  0  0  0  0
   19.5573   -8.1902  -12.8514 C   0  0  0  0  0  0  0  0  0  0  0  0
   20.9399   -8.1819  -13.3957 C   0  0  0  0  0  0  0  0  0  0  0  0
   21.2813   -7.7032  -14.6393 C   0  0  0  0  0  0  0  0  0  0  0  0
   22.5726   -7.6910  -15.1017 C   0  0  0  0  0  0  0  0  0  0  0  0
   23.6078   -8.1754  -14.3142 C   0  0  0  0  0  0  0  0  0  0  0  0
   23.2595   -8.6690  -13.0482 C   0  0  0  0  0  0  0  0  0  0  0  0
   21.9839   -8.6738  -12.5963 C   0  0  0  0  0  0  0  0  0  0  0  0
   19.6516   -5.6803  -13.0931 C   0  0  0  0  0  0  0  0  0  0  0  0
   20.8870   -5.1167  -13.1745 O   0  0  0  0  0  0  0  0  0  0  0  0
   18.7008   -5.1686  -13.8228 O   0  0  0  0  0  0  0  0  0  0  0  0
  1  2  1  0
  2  4  1  0
  2  3  2  0
  4  5  1  0
  6  7  1  6
  6  5  1  0
  8  6  1  0
  9  8  2  0
 10 11  1  0
 11 12  2  0
 13 11  1  0
 13 14  1  0
 15 14  1  1
 15 16  1  0
 16  8  1  0
 17 19  1  0
 17 15  1  0
 18 17  2  0
 20 28  1  0
 20 19  1  0
 20 21  1  6
 22 21  1  0
 22 23  2  0
 24 23  1  0
 25 24  2  0
 26 27  2  0
 26 25  1  0
 27 22  1  0
 28 29  1  0
 30 28  2  0
M  END
$$$$
