QQF.pdb
     RDKit          3D

 30 30  0  0  1  0  0  0  0  0999 V2000
   20.5401  -10.5011  -15.4416 N   0  0  0  0  0  0  0  0  0  0  0  0
   19.9346  -11.7733  -15.5220 C   0  0  0  0  0  0  0  0  0  0  0  0
   20.6168  -12.7631  -15.8623 O   0  0  0  0  0  0  0  0  0  0  0  0
   18.4991  -11.9056  -15.2028 C   0  0  0  0  0  0  0  0  0  0  0  0
   17.9716  -10.6152  -14.6586 C   0  0  0  0  0  0  0  0  0  0  0  0
   16.4877  -10.6677  -14.4088 C   0  0  2  0  0  0  0  0  0  0  0  0
   15.8257  -10.5846  -15.7207 N   0  0  0  0  0  0  0  0  0  0  0  0
   16.0863   -9.5472  -13.5424 C   0  0  0  0  0  0  0  0  0  0  0  0
   16.0776   -8.3854  -14.0576 O   0  0  0  0  0  0  0  0  0  0  0  0
   12.2730   -9.7666   -8.8785 N   0  0  0  0  0  0  0  0  0  0  0  0
   11.9474   -9.4672  -10.2082 C   0  0  0  0  0  0  0  0  0  0  0  0
   10.7800   -9.5901  -10.6186 O   0  0  0  0  0  0  0  0  0  0  0  0
   12.9973   -8.9975  -11.1439 C   0  0  0  0  0  0  0  0  0  0  0  0
   14.3461   -8.9413  -10.4590 C   0  0  0  0  0  0  0  0  0  0  0  0
   15.4652   -8.5817  -11.3721 C   0  0  2  0  0  0  0  0  0  0  0  0
   15.7305   -9.7475  -12.1985 N   0  0  0  0  0  0  0  0  0  0  0  0
   16.7150   -8.1267  -10.6818 C   0  0  0  0  0  0  0  0  0  0  0  0
   17.5118   -9.0103  -10.2372 O   0  0  0  0  0  0  0  0  0  0  0  0
   17.0377   -6.7866  -10.5064 N   0  0  0  0  0  0  0  0  0  0  0  0
   18.1208   -6.2175   -9.7563 C   0  0  1  0  0  0  0  0  0  0  0  0
   19.4540   -6.9366   -9.9463 C   0  0  0  0  0  0  0  0  0  0  0  0
   19.9156   -6.6715  -11.3335 C   0  0  0  0  0  0  0  0  0  0  0  0
   20.2407   -5.4260  -11.8185 C   0  0  0  0  0  0  0  0  0  0  0  0
   20.6847   -5.2204  -13.0999 C   0  0  0  0  0  0  0  0  0  0  0  0
   20.8234   -6.2869  -13.9772 C   0  0  0  0  0  0  0  0  0  0  0  0
   20.4866   -7.5565  -13.4851 C   0  0  0  0  0  0  0  0  0  0  0  0
   20.0536   -7.7529  -12.2181 C   0  0  0  0  0  0  0  0  0  0  0  0
   18.1775   -4.7644   -9.8075 C   0  0  0  0  0  0  0  0  0  0  0  0
   17.4701   -3.9703  -10.6557 O   0  0  0  0  0  0  0  0  0  0  0  0
   18.9845   -4.1855   -8.9637 O   0  0  0  0  0  0  0  0  0  0  0  0
  1  2  1  0
  2  4  1  0
  2  3  2  0
  4  5  1  0
  6  7  1  6
  6  5  1  0
  8  6  1  0
  9  8  2  0
 10 11  1  0
 11 12  2  0
 13 11  1  0
 13 14  1  0
 15 14  1  1
 15 16  1  0
 16  8  1  0
 17 19  1  0
 17 15  1  0
 18 17  2  0
 20 28  1  0
 20 19  1  0
 20 21  1  6
 22 21  1  0
 22 23  2  0
 24 23  1  0
 25 24  2  0
 26 27  2  0
 26 25  1  0
 27 22  1  0
 28 29  1  0
 30 28  2  0
M  END
$$$$
