QQF.pdb
     RDKit          3D

 30 30  0  0  1  0  0  0  0  0999 V2000
   27.5513  -23.1181  -16.5370 N   0  0  0  0  0  0  0  0  0  0  0  0
   28.3123  -22.1610  -15.8324 C   0  0  0  0  0  0  0  0  0  0  0  0
   29.1455  -22.5376  -14.9809 O   0  0  0  0  0  0  0  0  0  0  0  0
   28.1030  -20.7274  -16.1174 C   0  0  0  0  0  0  0  0  0  0  0  0
   27.5597  -20.0357  -14.9067 C   0  0  0  0  0  0  0  0  0  0  0  0
   26.0672  -20.1928  -14.7840 C   0  0  2  0  0  0  0  0  0  0  0  0
   25.4557  -19.3066  -15.7875 N   0  0  0  0  0  0  0  0  0  0  0  0
   25.6360  -19.8285  -13.4243 C   0  0  0  0  0  0  0  0  0  0  0  0
   25.7634  -18.6123  -13.0781 O   0  0  0  0  0  0  0  0  0  0  0  0
   20.7013  -21.7378  -10.7143 N   0  0  0  0  0  0  0  0  0  0  0  0
   20.8870  -20.7411  -11.6815 C   0  0  0  0  0  0  0  0  0  0  0  0
   19.9235  -20.3029  -12.3341 O   0  0  0  0  0  0  0  0  0  0  0  0
   22.2418  -20.1953  -11.9371 C   0  0  0  0  0  0  0  0  0  0  0  0
   23.2708  -20.8670  -11.0532 C   0  0  0  0  0  0  0  0  0  0  0  0
   24.6503  -20.3379  -11.2341 C   0  0  2  0  0  0  0  0  0  0  0  0
   25.1084  -20.7832  -12.5396 N   0  0  0  0  0  0  0  0  0  0  0  0
   25.6210  -20.7420  -10.1664 C   0  0  0  0  0  0  0  0  0  0  0  0
   26.2136  -21.8592  -10.2845 O   0  0  0  0  0  0  0  0  0  0  0  0
   25.8982  -19.9522   -9.0573 N   0  0  0  0  0  0  0  0  0  0  0  0
   26.7387  -20.2511   -7.9331 C   0  0  1  0  0  0  0  0  0  0  0  0
   27.8035  -19.1933   -7.6542 C   0  0  0  0  0  0  0  0  0  0  0  0
   28.3395  -19.4414   -6.2908 C   0  0  0  0  0  0  0  0  0  0  0  0
   27.9973  -18.7095   -5.1775 C   0  0  0  0  0  0  0  0  0  0  0  0
   28.4955  -18.9803   -3.9285 C   0  0  0  0  0  0  0  0  0  0  0  0
   29.3872  -20.0266   -3.7371 C   0  0  0  0  0  0  0  0  0  0  0  0
   29.7409  -20.7697   -4.8730 C   0  0  0  0  0  0  0  0  0  0  0  0
   29.2419  -20.5000   -6.1017 C   0  0  0  0  0  0  0  0  0  0  0  0
   26.0173  -20.7393   -6.7675 C   0  0  0  0  0  0  0  0  0  0  0  0
   26.4781  -21.6545   -5.8727 O   0  0  0  0  0  0  0  0  0  0  0  0
   24.8237  -20.2516   -6.5782 O   0  0  0  0  0  0  0  0  0  0  0  0
  1  2  1  0
  2  4  1  0
  2  3  2  0
  4  5  1  0
  6  7  1  6
  6  5  1  0
  8  6  1  0
  9  8  2  0
 10 11  1  0
 11 12  2  0
 13 11  1  0
 13 14  1  0
 15 14  1  1
 15 16  1  0
 16  8  1  0
 17 19  1  0
 17 15  1  0
 18 17  2  0
 20 28  1  0
 20 19  1  0
 20 21  1  1
 22 21  1  0
 22 23  2  0
 24 23  1  0
 25 24  2  0
 26 27  2  0
 26 25  1  0
 27 22  1  0
 28 29  1  0
 30 28  2  0
M  END
$$$$
