RPP.pdb
     RDKit          3D

 26 27  0  0  1  0  0  0  0  0999 V2000
   23.7159  -17.2192  -18.1895 N   0  0  0  0  0  0  0  0  0  0  0  0
   22.9137  -16.5921  -17.2052 C   0  0  0  0  0  0  0  0  0  0  0  0
   22.9180  -15.3173  -17.0107 N   0  0  0  0  0  0  0  0  0  0  0  0
   22.0491  -17.4036  -16.3768 N   0  0  0  0  0  0  0  0  0  0  0  0
   21.9198  -17.1120  -14.9729 C   0  0  0  0  0  0  0  0  0  0  0  0
   22.6560  -18.1553  -14.1824 C   0  0  0  0  0  0  0  0  0  0  0  0
   22.6833  -19.4708  -14.8681 C   0  0  0  0  0  0  0  0  0  0  0  0
   22.1153  -20.5677  -14.0272 C   0  0  2  0  0  0  0  0  0  0  0  0
   20.7115  -20.2838  -13.7645 N   0  0  0  0  0  0  0  0  0  0  0  0
   22.8876  -20.6807  -12.7708 C   0  0  0  0  0  0  0  0  0  0  0  0
   22.3689  -20.2361  -11.7027 O   0  0  0  0  0  0  0  0  0  0  0  0
   22.4211  -14.9252  -16.1929 N   0  0  0  0  0  0  0  0  0  0  0  0
   24.1646  -21.2817  -12.7810 C   0  0  0  0  0  0  0  0  0  0  0  0
   24.9252  -21.7307  -13.9574 C   0  0  0  0  0  0  0  0  0  0  0  0
   25.3743  -23.0940  -13.3924 C   0  0  0  0  0  0  0  0  0  0  0  0
   25.8874  -22.6963  -12.0419 C   0  0  2  0  0  0  0  0  0  0  0  0
   24.9209  -21.6067  -11.6030 C   0  0  0  0  0  0  0  0  0  0  0  0
   25.5769  -20.5205  -10.9184 O   0  0  0  0  0  0  0  0  0  0  0  0
   25.7137  -19.4585  -11.6802 N   0  0  0  0  0  0  0  0  0  0  0  0
   26.0808  -20.3870   -9.6212 C   0  0  0  0  0  0  0  0  0  0  0  0
   26.0051  -21.4345   -8.5847 C   0  0  0  0  0  0  0  0  0  0  0  0
   25.5917  -20.6508   -7.3451 C   0  0  0  0  0  0  0  0  0  0  0  0
   26.4268  -19.4015   -7.4784 C   0  0  1  0  0  0  0  0  0  0  0  0
   26.7934  -19.3240   -8.9670 C   0  0  0  0  0  0  0  0  0  0  0  0
   28.2715  -19.5434   -9.0166 O   0  0  0  0  0  0  0  0  0  0  0  0
   29.1729  -18.5491   -8.7138 O   0  0  0  0  0  0  0  0  0  0  0  0
  2  1  1  0
  3  2  2  0
  4  2  1  0
  5  4  1  0
  6  5  1  0
  6  7  1  0
  7  8  1  0
  8  9  1  1
 10  8  1  0
 11 10  2  0
 12 16  1  0
 12 10  1  0
 13 14  1  0
 13 12  1  0
 14 15  1  0
 15 16  1  0
 17 19  1  0
 16 17  1  6
 18 17  2  0
 19 20  1  0
 20 21  1  0
 22 21  1  0
 23 19  1  0
 23 22  1  0
 24 25  1  0
 23 24  1  6
 26 24  2  0
M  END
$$$$
