RPP.pdb
     RDKit          3D

 26 27  0  0  1  0  0  0  0  0999 V2000
   23.0109  -21.5899  -15.0468 N   0  0  0  0  0  0  0  0  0  0  0  0
   21.9000  -20.8118  -14.6393 C   0  0  0  0  0  0  0  0  0  0  0  0
   20.7030  -21.0272  -15.0679 N   0  0  0  0  0  0  0  0  0  0  0  0
   22.1027  -19.7272  -13.7039 N   0  0  0  0  0  0  0  0  0  0  0  0
   23.3985  -19.5240  -13.1104 C   0  0  0  0  0  0  0  0  0  0  0  0
   23.5543  -20.4485  -11.9372 C   0  0  0  0  0  0  0  0  0  0  0  0
   24.8126  -20.2070  -11.1890 C   0  0  0  0  0  0  0  0  0  0  0  0
   25.8507  -21.2466  -11.4622 C   0  0  2  0  0  0  0  0  0  0  0  0
   25.2017  -22.4326  -12.0029 N   0  0  0  0  0  0  0  0  0  0  0  0
   26.5853  -21.5541  -10.2157 C   0  0  0  0  0  0  0  0  0  0  0  0
   26.0185  -22.2821   -9.3462 O   0  0  0  0  0  0  0  0  0  0  0  0
   19.9221  -20.4524  -14.7083 N   0  0  0  0  0  0  0  0  0  0  0  0
   27.8888  -21.0478  -10.0236 C   0  0  0  0  0  0  0  0  0  0  0  0
   28.7290  -20.3594  -11.0157 C   0  0  0  0  0  0  0  0  0  0  0  0
   30.0418  -21.1126  -10.7178 C   0  0  0  0  0  0  0  0  0  0  0  0
   30.0964  -21.0254   -9.2229 C   0  0  2  0  0  0  0  0  0  0  0  0
   28.6413  -21.1775   -8.8062 C   0  0  0  0  0  0  0  0  0  0  0  0
   28.2803  -20.3122   -7.7109 O   0  0  0  0  0  0  0  0  0  0  0  0
   27.3917  -19.4086   -8.0587 N   0  0  0  0  0  0  0  0  0  0  0  0
   28.6874  -20.2580   -6.3746 C   0  0  0  0  0  0  0  0  0  0  0  0
   29.7574  -21.0916   -5.7938 C   0  0  0  0  0  0  0  0  0  0  0  0
   29.1545  -21.5348   -4.4665 C   0  0  0  0  0  0  0  0  0  0  0  0
   28.4749  -20.2712   -4.0003 C   0  0  1  0  0  0  0  0  0  0  0  0
   28.2726  -19.4350   -5.2717 C   0  0  0  0  0  0  0  0  0  0  0  0
   29.1681  -18.2495   -5.1052 O   0  0  0  0  0  0  0  0  0  0  0  0
   28.8784  -17.2260   -4.2328 O   0  0  0  0  0  0  0  0  0  0  0  0
  2  1  1  0
  3  2  2  0
  4  2  1  0
  5  4  1  0
  6  5  1  0
  6  7  1  0
  7  8  1  0
  8  9  1  1
 10  8  1  0
 11 10  2  0
 12 16  1  0
 12 10  1  0
 13 14  1  0
 13 12  1  0
 14 15  1  0
 15 16  1  0
 17 19  1  0
 16 17  1  6
 18 17  2  0
 19 20  1  0
 20 21  1  0
 22 21  1  0
 23 19  1  0
 23 22  1  0
 24 25  1  0
 23 24  1  6
 26 24  2  0
M  END
$$$$
