RPP.pdb
     RDKit          3D

 26 27  0  0  1  0  0  0  0  0999 V2000
   22.3324  -19.5584  -14.4219 N   0  0  0  0  0  0  0  0  0  0  0  0
   21.9008  -20.5181  -13.4741 C   0  0  0  0  0  0  0  0  0  0  0  0
   20.9088  -21.3134  -13.6892 N   0  0  0  0  0  0  0  0  0  0  0  0
   22.5928  -20.6208  -12.2080 N   0  0  0  0  0  0  0  0  0  0  0  0
   23.6133  -19.6638  -11.8682 C   0  0  0  0  0  0  0  0  0  0  0  0
   24.8866  -20.0279  -12.5764 C   0  0  0  0  0  0  0  0  0  0  0  0
   26.0569  -20.0447  -11.6646 C   0  0  0  0  0  0  0  0  0  0  0  0
   26.6930  -21.3936  -11.5726 C   0  0  2  0  0  0  0  0  0  0  0  0
   25.7160  -22.4043  -11.9524 N   0  0  0  0  0  0  0  0  0  0  0  0
   27.1916  -21.6146  -10.1977 C   0  0  0  0  0  0  0  0  0  0  0  0
   26.4026  -22.1221   -9.3449 O   0  0  0  0  0  0  0  0  0  0  0  0
   20.6345  -21.9941  -12.9607 N   0  0  0  0  0  0  0  0  0  0  0  0
   28.5202  -21.2715   -9.8670 C   0  0  0  0  0  0  0  0  0  0  0  0
   29.5854  -20.8528  -10.7912 C   0  0  0  0  0  0  0  0  0  0  0  0
   30.7103  -21.7307  -10.2050 C   0  0  0  0  0  0  0  0  0  0  0  0
   30.5741  -21.4416   -8.7411 C   0  0  1  0  0  0  0  0  0  0  0  0
   29.0703  -21.3307   -8.5407 C   0  0  0  0  0  0  0  0  0  0  0  0
   28.7046  -20.2779   -7.6260 O   0  0  0  0  0  0  0  0  0  0  0  0
   28.1782  -19.2419   -8.2398 N   0  0  0  0  0  0  0  0  0  0  0  0
   28.7996  -20.1568   -6.2365 C   0  0  0  0  0  0  0  0  0  0  0  0
   29.4485  -21.1464   -5.3551 C   0  0  0  0  0  0  0  0  0  0  0  0
   28.4663  -21.2583   -4.1957 C   0  0  0  0  0  0  0  0  0  0  0  0
   28.0623  -19.8187   -3.9950 C   0  0  1  0  0  0  0  0  0  0  0  0
   28.3826  -19.1254   -5.3266 C   0  0  0  0  0  0  0  0  0  0  0  0
   29.5010  -18.1830   -5.0164 O   0  0  0  0  0  0  0  0  0  0  0  0
   29.2943  -16.9805   -4.3810 O   0  0  0  0  0  0  0  0  0  0  0  0
  2  1  1  0
  3  2  2  0
  4  2  1  0
  5  4  1  0
  6  5  1  0
  6  7  1  0
  7  8  1  0
  8  9  1  1
 10  8  1  0
 11 10  2  0
 12 16  1  0
 12 10  1  0
 13 14  1  0
 13 12  1  0
 14 15  1  0
 15 16  1  0
 17 19  1  0
 16 17  1  6
 18 17  2  0
 19 20  1  0
 20 21  1  0
 22 21  1  0
 23 19  1  0
 23 22  1  0
 24 25  1  0
 23 24  1  1
 26 24  2  0
M  END
$$$$
