RPP.pdb
     RDKit          3D

 26 27  0  0  1  0  0  0  0  0999 V2000
   20.3559  -21.3617  -10.8053 N   0  0  0  0  0  0  0  0  0  0  0  0
   20.7547  -21.0027  -12.1159 C   0  0  0  0  0  0  0  0  0  0  0  0
   20.0582  -21.2943  -13.1613 N   0  0  0  0  0  0  0  0  0  0  0  0
   21.9929  -20.2788  -12.3039 N   0  0  0  0  0  0  0  0  0  0  0  0
   23.1928  -20.9898  -12.6608 C   0  0  0  0  0  0  0  0  0  0  0  0
   24.0624  -21.1319  -11.4446 C   0  0  0  0  0  0  0  0  0  0  0  0
   25.1127  -20.0863  -11.3741 C   0  0  0  0  0  0  0  0  0  0  0  0
   26.4932  -20.6579  -11.3944 C   0  0  2  0  0  0  0  0  0  0  0  0
   26.4800  -21.8996  -12.1549 N   0  0  0  0  0  0  0  0  0  0  0  0
   26.9594  -20.8789  -10.0081 C   0  0  0  0  0  0  0  0  0  0  0  0
   27.1594  -22.0699   -9.6224 O   0  0  0  0  0  0  0  0  0  0  0  0
   20.4586  -21.1340  -14.1012 N   0  0  0  0  0  0  0  0  0  0  0  0
   27.1801  -19.7760   -9.1554 C   0  0  0  0  0  0  0  0  0  0  0  0
   26.8452  -18.3682   -9.4199 C   0  0  0  0  0  0  0  0  0  0  0  0
   28.1732  -17.7550   -8.9300 C   0  0  0  0  0  0  0  0  0  0  0  0
   28.3447  -18.4445   -7.6107 C   0  0  2  0  0  0  0  0  0  0  0  0
   27.8349  -19.8525   -7.8785 C   0  0  0  0  0  0  0  0  0  0  0  0
   27.0752  -20.3905   -6.7774 O   0  0  0  0  0  0  0  0  0  0  0  0
   25.8146  -20.5913   -7.0899 N   0  0  0  0  0  0  0  0  0  0  0  0
   27.4223  -20.7350   -5.4678 C   0  0  0  0  0  0  0  0  0  0  0  0
   28.6077  -20.2202   -4.7558 C   0  0  0  0  0  0  0  0  0  0  0  0
   29.1640  -21.4692   -4.0833 C   0  0  0  0  0  0  0  0  0  0  0  0
   27.9038  -22.1519   -3.6122 C   0  0  1  0  0  0  0  0  0  0  0  0
   26.7848  -21.5720   -4.4885 C   0  0  0  0  0  0  0  0  0  0  0  0
   25.9333  -20.7726   -3.5553 O   0  0  0  0  0  0  0  0  0  0  0  0
   24.8880  -21.3289   -2.8549 O   0  0  0  0  0  0  0  0  0  0  0  0
  2  1  1  0
  3  2  2  0
  4  2  1  0
  5  4  1  0
  6  5  1  0
  6  7  1  0
  7  8  1  0
  8  9  1  6
 10  8  1  0
 11 10  2  0
 12 16  1  0
 12 10  1  0
 13 14  1  0
 13 12  1  0
 14 15  1  0
 15 16  1  0
 17 19  1  0
 16 17  1  1
 18 17  2  0
 19 20  1  0
 20 21  1  0
 22 21  1  0
 23 19  1  0
 23 22  1  0
 24 25  1  0
 23 24  1  1
 26 24  2  0
M  END
$$$$
