RPP.pdb
     RDKit          3D

 26 27  0  0  1  0  0  0  0  0999 V2000
   20.6041  -20.9055  -14.3190 N   0  0  0  0  0  0  0  0  0  0  0  0
   21.0647  -19.5791  -14.1343 C   0  0  0  0  0  0  0  0  0  0  0  0
   20.2678  -18.5679  -14.0621 N   0  0  0  0  0  0  0  0  0  0  0  0
   22.4859  -19.3346  -14.0205 N   0  0  0  0  0  0  0  0  0  0  0  0
   23.3687  -20.4024  -13.6290 C   0  0  0  0  0  0  0  0  0  0  0  0
   23.6627  -20.2864  -12.1609 C   0  0  0  0  0  0  0  0  0  0  0  0
   25.1044  -20.0668  -11.8876 C   0  0  0  0  0  0  0  0  0  0  0  0
   25.8927  -21.3359  -11.9130 C   0  0  2  0  0  0  0  0  0  0  0  0
   25.0021  -22.4395  -12.2434 N   0  0  0  0  0  0  0  0  0  0  0  0
   26.5441  -21.5421  -10.6012 C   0  0  0  0  0  0  0  0  0  0  0  0
   25.9070  -22.1725   -9.7045 O   0  0  0  0  0  0  0  0  0  0  0  0
   20.6605  -17.6144  -13.9841 N   0  0  0  0  0  0  0  0  0  0  0  0
   27.8480  -21.0499  -10.3775 C   0  0  0  0  0  0  0  0  0  0  0  0
   28.7152  -20.3611  -11.3458 C   0  0  0  0  0  0  0  0  0  0  0  0
   30.0144  -21.1292  -11.0270 C   0  0  0  0  0  0  0  0  0  0  0  0
   30.0384  -21.0551   -9.5306 C   0  0  2  0  0  0  0  0  0  0  0  0
   28.5735  -21.1969   -9.1458 C   0  0  0  0  0  0  0  0  0  0  0  0
   28.1976  -20.3375   -8.0508 O   0  0  0  0  0  0  0  0  0  0  0  0
   27.3094  -19.4358   -8.4044 N   0  0  0  0  0  0  0  0  0  0  0  0
   28.5903  -20.2873   -6.7101 C   0  0  0  0  0  0  0  0  0  0  0  0
   29.6350  -21.1420   -6.1140 C   0  0  0  0  0  0  0  0  0  0  0  0
   29.0072  -21.5671   -4.7923 C   0  0  0  0  0  0  0  0  0  0  0  0
   28.3500  -20.2872   -4.3384 C   0  0  1  0  0  0  0  0  0  0  0  0
   28.1809  -19.4514   -5.6149 C   0  0  0  0  0  0  0  0  0  0  0  0
   29.1001  -18.2852   -5.4420 O   0  0  0  0  0  0  0  0  0  0  0  0
   28.7929  -17.2216   -4.6253 O   0  0  0  0  0  0  0  0  0  0  0  0
  2  1  1  0
  3  2  2  0
  4  2  1  0
  5  4  1  0
  6  5  1  0
  6  7  1  0
  7  8  1  0
  8  9  1  1
 10  8  1  0
 11 10  2  0
 12 16  1  0
 12 10  1  0
 13 14  1  0
 13 12  1  0
 14 15  1  0
 15 16  1  0
 17 19  1  0
 16 17  1  6
 18 17  2  0
 19 20  1  0
 20 21  1  0
 22 21  1  0
 23 19  1  0
 23 22  1  0
 24 25  1  0
 23 24  1  6
 26 24  2  0
M  END
$$$$
