RPP.pdb
     RDKit          3D

 26 27  0  0  1  0  0  0  0  0999 V2000
   22.3965  -22.1272  -14.4258 N   0  0  0  0  0  0  0  0  0  0  0  0
   21.9744  -21.9168  -15.7612 C   0  0  0  0  0  0  0  0  0  0  0  0
   20.7329  -21.8013  -16.0901 N   0  0  0  0  0  0  0  0  0  0  0  0
   22.9671  -21.8259  -16.8095 N   0  0  0  0  0  0  0  0  0  0  0  0
   23.6053  -23.0200  -17.2989 C   0  0  0  0  0  0  0  0  0  0  0  0
   24.5236  -22.6599  -18.4313 C   0  0  0  0  0  0  0  0  0  0  0  0
   25.2922  -21.4191  -18.1645 C   0  0  0  0  0  0  0  0  0  0  0  0
   26.7255  -21.6907  -17.8411 C   0  0  2  0  0  0  0  0  0  0  0  0
   27.0698  -23.0277  -18.3039 N   0  0  0  0  0  0  0  0  0  0  0  0
   26.9408  -21.5516  -16.3843 C   0  0  0  0  0  0  0  0  0  0  0  0
   27.2543  -22.5850  -15.7202 O   0  0  0  0  0  0  0  0  0  0  0  0
   20.4769  -21.7070  -17.0876 N   0  0  0  0  0  0  0  0  0  0  0  0
   26.8055  -20.2879  -15.7702 C   0  0  0  0  0  0  0  0  0  0  0  0
   26.5029  -19.0081  -16.4296 C   0  0  0  0  0  0  0  0  0  0  0  0
   27.5571  -18.1546  -15.6949 C   0  0  0  0  0  0  0  0  0  0  0  0
   27.3161  -18.5540  -14.2709 C   0  0  2  0  0  0  0  0  0  0  0  0
   27.0007  -20.0389  -14.3685 C   0  0  0  0  0  0  0  0  0  0  0  0
   25.9477  -20.4466  -13.4719 O   0  0  0  0  0  0  0  0  0  0  0  0
   24.8570  -20.8054  -14.1112 N   0  0  0  0  0  0  0  0  0  0  0  0
   25.8725  -20.5334  -12.0787 C   0  0  0  0  0  0  0  0  0  0  0  0
   26.9106  -20.0379  -11.1545 C   0  0  0  0  0  0  0  0  0  0  0  0
   27.0236  -21.1684  -10.1393 C   0  0  0  0  0  0  0  0  0  0  0  0
   25.5776  -21.5515   -9.9435 C   0  0  1  0  0  0  0  0  0  0  0  0
   24.8555  -21.0361  -11.1962 C   0  0  0  0  0  0  0  0  0  0  0  0
   23.9625  -19.9407  -10.7087 O   0  0  0  0  0  0  0  0  0  0  0  0
   22.7043  -20.1853  -10.2090 O   0  0  0  0  0  0  0  0  0  0  0  0
  2  1  1  0
  3  2  2  0
  4  2  1  0
  5  4  1  0
  6  5  1  0
  6  7  1  0
  7  8  1  0
  8  9  1  1
 10  8  1  0
 11 10  2  0
 12 16  1  0
 12 10  1  0
 13 14  1  0
 13 12  1  0
 14 15  1  0
 15 16  1  0
 17 19  1  0
 16 17  1  1
 18 17  2  0
 19 20  1  0
 20 21  1  0
 22 21  1  0
 23 19  1  0
 23 22  1  0
 24 25  1  0
 23 24  1  1
 26 24  2  0
M  END
$$$$
