RPP.pdb
     RDKit          3D

 26 27  0  0  1  0  0  0  0  0999 V2000
   18.9209  -19.7206  -12.7922 N   0  0  0  0  0  0  0  0  0  0  0  0
   20.0435  -19.6363  -13.6514 C   0  0  0  0  0  0  0  0  0  0  0  0
   20.0051  -20.0036  -14.8870 N   0  0  0  0  0  0  0  0  0  0  0  0
   21.2912  -19.1185  -13.1343 N   0  0  0  0  0  0  0  0  0  0  0  0
   22.5347  -19.7456  -13.4993 C   0  0  0  0  0  0  0  0  0  0  0  0
   22.8701  -20.8028  -12.4868 C   0  0  0  0  0  0  0  0  0  0  0  0
   24.1396  -20.5205  -11.7726 C   0  0  0  0  0  0  0  0  0  0  0  0
   25.2126  -21.5083  -12.0979 C   0  0  2  0  0  0  0  0  0  0  0  0
   24.5941  -22.7483  -12.5452 N   0  0  0  0  0  0  0  0  0  0  0  0
   26.0627  -21.7277  -10.9075 C   0  0  0  0  0  0  0  0  0  0  0  0
   25.6800  -22.5701  -10.0408 O   0  0  0  0  0  0  0  0  0  0  0  0
   20.8832  -20.0547  -15.4307 N   0  0  0  0  0  0  0  0  0  0  0  0
   27.2720  -21.0139  -10.7648 C   0  0  0  0  0  0  0  0  0  0  0  0
   27.9003  -20.1248  -11.7542 C   0  0  0  0  0  0  0  0  0  0  0  0
   29.3418  -20.6534  -11.6059 C   0  0  0  0  0  0  0  0  0  0  0  0
   29.5005  -20.6563  -10.1159 C   0  0  2  0  0  0  0  0  0  0  0  0
   28.1308  -21.0889   -9.6151 C   0  0  0  0  0  0  0  0  0  0  0  0
   27.7167  -20.3744   -8.4332 O   0  0  0  0  0  0  0  0  0  0  0  0
   26.6851  -19.5918   -8.6572 N   0  0  0  0  0  0  0  0  0  0  0  0
   28.1949  -20.3615   -7.1196 C   0  0  0  0  0  0  0  0  0  0  0  0
   29.4256  -21.0421   -6.6729 C   0  0  0  0  0  0  0  0  0  0  0  0
   28.9936  -21.6919   -5.3642 C   0  0  0  0  0  0  0  0  0  0  0  0
   28.1426  -20.6086   -4.7492 C   0  0  1  0  0  0  0  0  0  0  0  0
   27.7201  -19.7176   -5.9256 C   0  0  0  0  0  0  0  0  0  0  0  0
   28.4119  -18.4126   -5.6945 O   0  0  0  0  0  0  0  0  0  0  0  0
   27.9695  -17.5004   -4.7645 O   0  0  0  0  0  0  0  0  0  0  0  0
  2  1  1  0
  3  2  2  0
  4  2  1  0
  5  4  1  0
  6  5  1  0
  6  7  1  0
  7  8  1  0
  8  9  1  1
 10  8  1  0
 11 10  2  0
 12 16  1  0
 12 10  1  0
 13 14  1  0
 13 12  1  0
 14 15  1  0
 15 16  1  0
 17 19  1  0
 16 17  1  6
 18 17  2  0
 19 20  1  0
 20 21  1  0
 22 21  1  0
 23 19  1  0
 23 22  1  0
 24 25  1  0
 23 24  1  6
 26 24  2  0
M  END
$$$$
