RPP.pdb
     RDKit          3D

 26 27  0  0  1  0  0  0  0  0999 V2000
   19.3171  -20.2034  -16.2302 N   0  0  0  0  0  0  0  0  0  0  0  0
   19.9081  -20.6280  -15.0152 C   0  0  0  0  0  0  0  0  0  0  0  0
   19.2187  -21.0925  -14.0294 N   0  0  0  0  0  0  0  0  0  0  0  0
   21.3438  -20.5423  -14.8605 N   0  0  0  0  0  0  0  0  0  0  0  0
   22.2084  -21.0470  -15.8951 C   0  0  0  0  0  0  0  0  0  0  0  0
   22.1741  -20.1094  -17.0678 C   0  0  0  0  0  0  0  0  0  0  0  0
   23.4138  -19.3026  -17.1842 C   0  0  0  0  0  0  0  0  0  0  0  0
   24.5864  -20.1141  -17.6309 C   0  0  2  0  0  0  0  0  0  0  0  0
   24.1060  -21.2693  -18.3759 N   0  0  0  0  0  0  0  0  0  0  0  0
   25.3836  -20.5240  -16.4544 C   0  0  0  0  0  0  0  0  0  0  0  0
   25.4064  -21.7520  -16.1402 O   0  0  0  0  0  0  0  0  0  0  0  0
   19.7033  -21.3997  -13.1690 N   0  0  0  0  0  0  0  0  0  0  0  0
   26.1025  -19.5568  -15.7195 C   0  0  0  0  0  0  0  0  0  0  0  0
   26.2272  -18.1228  -16.0234 C   0  0  0  0  0  0  0  0  0  0  0  0
   27.7458  -18.0019  -15.7805 C   0  0  0  0  0  0  0  0  0  0  0  0
   27.8867  -18.6945  -14.4592 C   0  0  2  0  0  0  0  0  0  0  0  0
   26.8923  -19.8418  -14.5533 C   0  0  0  0  0  0  0  0  0  0  0  0
   26.1865  -20.0723  -13.3174 O   0  0  0  0  0  0  0  0  0  0  0  0
   24.9045  -19.8001  -13.4148 N   0  0  0  0  0  0  0  0  0  0  0  0
   26.6013  -20.5256  -12.0617 C   0  0  0  0  0  0  0  0  0  0  0  0
   28.0109  -20.6912  -11.6581 C   0  0  0  0  0  0  0  0  0  0  0  0
   27.9992  -22.0359  -10.9418 C   0  0  0  0  0  0  0  0  0  0  0  0
   26.7130  -21.9554  -10.1575 C   0  0  1  0  0  0  0  0  0  0  0  0
   25.8724  -20.8923  -10.8785 C   0  0  0  0  0  0  0  0  0  0  0  0
   25.7784  -19.7514   -9.9169 O   0  0  0  0  0  0  0  0  0  0  0  0
   26.6364  -18.6770   -9.9647 O   0  0  0  0  0  0  0  0  0  0  0  0
  2  1  1  0
  3  2  2  0
  4  2  1  0
  5  4  1  0
  6  5  1  0
  6  7  1  0
  7  8  1  0
  8  9  1  1
 10  8  1  0
 11 10  2  0
 12 16  1  0
 12 10  1  0
 13 14  1  0
 13 12  1  0
 14 15  1  0
 15 16  1  0
 17 19  1  0
 16 17  1  1
 18 17  2  0
 19 20  1  0
 20 21  1  0
 22 21  1  0
 23 19  1  0
 23 22  1  0
 24 25  1  0
 23 24  1  1
 26 24  2  0
M  END
$$$$
