RPP.pdb
     RDKit          3D

 26 27  0  0  1  0  0  0  0  0999 V2000
   20.7844  -18.5650  -11.9089 N   0  0  0  0  0  0  0  0  0  0  0  0
   20.4021  -19.8394  -11.4238 C   0  0  0  0  0  0  0  0  0  0  0  0
   19.2857  -20.4007  -11.7426 N   0  0  0  0  0  0  0  0  0  0  0  0
   21.2915  -20.5517  -10.5327 N   0  0  0  0  0  0  0  0  0  0  0  0
   22.6583  -20.1230  -10.3893 C   0  0  0  0  0  0  0  0  0  0  0  0
   23.3830  -20.3429  -11.6862 C   0  0  0  0  0  0  0  0  0  0  0  0
   24.8218  -19.9917  -11.5975 C   0  0  0  0  0  0  0  0  0  0  0  0
   25.7137  -21.1759  -11.7850 C   0  0  2  0  0  0  0  0  0  0  0  0
   24.9116  -22.3066  -12.2304 N   0  0  0  0  0  0  0  0  0  0  0  0
   26.4131  -21.4764  -10.5168 C   0  0  0  0  0  0  0  0  0  0  0  0
   25.8200  -22.1952   -9.6573 O   0  0  0  0  0  0  0  0  0  0  0  0
   19.0750  -21.3507  -11.3925 N   0  0  0  0  0  0  0  0  0  0  0  0
   27.7131  -20.9738  -10.2936 C   0  0  0  0  0  0  0  0  0  0  0  0
   28.5688  -20.2652  -11.2578 C   0  0  0  0  0  0  0  0  0  0  0  0
   29.8770  -21.0241  -10.9540 C   0  0  0  0  0  0  0  0  0  0  0  0
   29.9075  -20.9670   -9.4570 C   0  0  2  0  0  0  0  0  0  0  0  0
   28.4459  -21.1278   -9.0670 C   0  0  0  0  0  0  0  0  0  0  0  0
   28.0668  -20.2849   -7.9604 O   0  0  0  0  0  0  0  0  0  0  0  0
   27.1923  -19.3672   -8.3069 N   0  0  0  0  0  0  0  0  0  0  0  0
   28.4448  -20.2640   -6.6146 C   0  0  0  0  0  0  0  0  0  0  0  0
   29.4995  -21.1148   -6.0308 C   0  0  0  0  0  0  0  0  0  0  0  0
   28.8666  -21.5877   -4.7280 C   0  0  0  0  0  0  0  0  0  0  0  0
   28.1803  -20.3334   -4.2466 C   0  0  1  0  0  0  0  0  0  0  0  0
   28.0082  -19.4664   -5.5016 C   0  0  0  0  0  0  0  0  0  0  0  0
   28.9030  -18.2880   -5.2873 O   0  0  0  0  0  0  0  0  0  0  0  0
   28.5891  -17.2765   -4.4093 O   0  0  0  0  0  0  0  0  0  0  0  0
  2  1  1  0
  3  2  2  0
  4  2  1  0
  5  4  1  0
  6  5  1  0
  6  7  1  0
  7  8  1  0
  8  9  1  1
 10  8  1  0
 11 10  2  0
 12 16  1  0
 12 10  1  0
 13 14  1  0
 13 12  1  0
 14 15  1  0
 15 16  1  0
 17 19  1  0
 16 17  1  6
 18 17  2  0
 19 20  1  0
 20 21  1  0
 22 21  1  0
 23 19  1  0
 23 22  1  0
 24 25  1  0
 23 24  1  6
 26 24  2  0
M  END
$$$$
