WDT.pdb
     RDKit          3D

 30 31  0  0  1  0  0  0  0  0999 V2000
    7.0326  -17.1314   23.9542 N   0  0  0  0  0  0  0  0  0  0  0  0
    8.2329  -16.2907   24.1614 C   0  0  1  0  0  0  0  0  0  0  0  0
    8.0470  -15.7143   25.5431 C   0  0  0  0  0  0  0  0  0  0  0  0
    6.9688  -14.7173   25.6490 C   0  0  0  0  0  0  0  0  0  0  0  0
    5.6359  -15.0232   25.9404 C   0  0  0  0  0  0  0  0  0  0  0  0
    4.9143  -13.8932   25.9998 N   0  0  0  0  0  0  0  0  0  0  0  0
    5.7325  -12.8597   25.7560 C   0  0  0  0  0  0  0  0  0  0  0  0
    5.5231  -11.5038   25.6870 C   0  0  0  0  0  0  0  0  0  0  0  0
    6.5537  -10.6257   25.4031 C   0  0  0  0  0  0  0  0  0  0  0  0
    7.7969  -11.1321   25.1896 C   0  0  0  0  0  0  0  0  0  0  0  0
    8.0352  -12.4685   25.2512 C   0  0  0  0  0  0  0  0  0  0  0  0
    7.0170  -13.3530   25.5343 C   0  0  0  0  0  0  0  0  0  0  0  0
    9.4427  -17.0919   24.0077 C   0  0  0  0  0  0  0  0  0  0  0  0
    9.4656  -18.2650   24.4970 O   0  0  0  0  0  0  0  0  0  0  0  0
   10.6074  -16.5914   23.3125 N   0  0  0  0  0  0  0  0  0  0  0  0
   11.8899  -17.0281   23.7665 C   0  0  1  0  0  0  0  0  0  0  0  0
   12.9990  -16.4824   22.8386 C   0  0  0  0  0  0  0  0  0  0  0  0
   12.9076  -17.1231   21.5117 C   0  0  0  0  0  0  0  0  0  0  0  0
   12.5745  -18.3383   21.4517 O   0  0  0  0  0  0  0  0  0  0  0  0
   12.2569  -16.5729   25.1138 C   0  0  0  0  0  0  0  0  0  0  0  0
   13.0403  -15.6444   25.3363 O   0  0  0  0  0  0  0  0  0  0  0  0
   13.1737  -16.4352   20.3612 O   0  0  0  0  0  0  0  0  0  0  0  0
   10.6595  -14.6351   27.5452 C   0  0  0  0  0  0  0  0  0  0  0  0
   10.8218  -15.9859   28.2062 C   0  0  1  0  0  0  0  0  0  0  0  0
    9.6338  -16.6877   27.9619 O   0  0  0  0  0  0  0  0  0  0  0  0
   11.9193  -16.8019   27.5941 C   0  0  2  0  0  0  0  0  0  0  0  0
   11.6934  -17.2189   26.2458 N   0  0  0  0  0  0  0  0  0  0  0  0
   12.0772  -18.0242   28.4313 C   0  0  0  0  0  0  0  0  0  0  0  0
   12.4940  -17.9543   29.7698 O   0  0  0  0  0  0  0  0  0  0  0  0
   11.8482  -19.1816   27.9912 O   0  0  0  0  0  0  0  0  0  0  0  0
  2  1  1  1
  2 13  1  0
  2  3  1  0
  3  4  1  0
  4  5  2  0
  5  6  1  0
  7  6  1  0
  8  7  2  0
  9  8  1  0
 10 11  1  0
 10  9  2  0
 11 12  2  0
 12  4  1  0
 12  7  1  0
 13 14  2  0
 15 13  1  0
 15 16  1  0
 16 17  1  6
 17 18  1  0
 18 22  1  0
 19 18  2  0
 20 21  2  0
 20 16  1  0
 24 23  1  6
 24 26  1  0
 25 24  1  0
 26 27  1  6
 27 20  1  0
 28 26  1  0
 28 29  1  0
 30 28  2  0
M  END
$$$$
