WDT.pdb
     RDKit          3D

 30 31  0  0  1  0  0  0  0  0999 V2000
    7.9222  -17.6167   22.4055 N   0  0  0  0  0  0  0  0  0  0  0  0
    9.0100  -16.6401   22.6359 C   0  0  1  0  0  0  0  0  0  0  0  0
    8.2909  -15.3608   22.9856 C   0  0  0  0  0  0  0  0  0  0  0  0
    7.5645  -14.7422   21.8642 C   0  0  0  0  0  0  0  0  0  0  0  0
    6.1787  -14.8057   21.6899 C   0  0  0  0  0  0  0  0  0  0  0  0
    5.8277  -14.1139   20.5947 N   0  0  0  0  0  0  0  0  0  0  0  0
    6.9394  -13.6015   20.0481 C   0  0  0  0  0  0  0  0  0  0  0  0
    7.1569  -12.8309   18.9319 C   0  0  0  0  0  0  0  0  0  0  0  0
    8.4294  -12.4300   18.5658 C   0  0  0  0  0  0  0  0  0  0  0  0
    9.4785  -12.8160   19.3391 C   0  0  0  0  0  0  0  0  0  0  0  0
    9.2950  -13.5780   20.4492 C   0  0  0  0  0  0  0  0  0  0  0  0
    8.0322  -13.9825   20.8246 C   0  0  0  0  0  0  0  0  0  0  0  0
    9.9088  -17.1228   23.6792 C   0  0  0  0  0  0  0  0  0  0  0  0
    9.4076  -17.6110   24.7406 O   0  0  0  0  0  0  0  0  0  0  0  0
   11.3463  -17.0659   23.5356 N   0  0  0  0  0  0  0  0  0  0  0  0
   12.1405  -17.3661   24.6849 C   0  0  1  0  0  0  0  0  0  0  0  0
   13.6425  -17.3179   24.3235 C   0  0  0  0  0  0  0  0  0  0  0  0
   14.4317  -18.0264   25.3503 C   0  0  0  0  0  0  0  0  0  0  0  0
   13.8204  -18.5707   26.3101 O   0  0  0  0  0  0  0  0  0  0  0  0
   11.9842  -16.4304   25.8061 C   0  0  0  0  0  0  0  0  0  0  0  0
   12.3643  -15.2555   25.7793 O   0  0  0  0  0  0  0  0  0  0  0  0
   15.7947  -18.1032   25.2836 O   0  0  0  0  0  0  0  0  0  0  0  0
    9.5337  -14.4089   26.9478 C   0  0  0  0  0  0  0  0  0  0  0  0
    9.7048  -15.3903   28.0859 C   0  0  1  0  0  0  0  0  0  0  0  0
    8.7996  -16.4326   27.8450 O   0  0  0  0  0  0  0  0  0  0  0  0
   11.0648  -16.0187   28.1090 C   0  0  2  0  0  0  0  0  0  0  0  0
   11.3631  -16.8741   27.0034 N   0  0  0  0  0  0  0  0  0  0  0  0
   11.1517  -16.8323   29.3542 C   0  0  0  0  0  0  0  0  0  0  0  0
   11.0399  -16.2504   30.6265 O   0  0  0  0  0  0  0  0  0  0  0  0
   11.3292  -18.0790   29.3385 O   0  0  0  0  0  0  0  0  0  0  0  0
  2  1  1  1
  2 13  1  0
  2  3  1  0
  3  4  1  0
  4  5  2  0
  5  6  1  0
  7  6  1  0
  8  7  2  0
  9  8  1  0
 10 11  1  0
 10  9  2  0
 11 12  2  0
 12  4  1  0
 12  7  1  0
 13 14  2  0
 15 13  1  0
 15 16  1  0
 16 17  1  6
 17 18  1  0
 18 22  1  0
 19 18  2  0
 20 21  2  0
 20 16  1  0
 24 23  1  6
 24 26  1  0
 25 24  1  0
 26 27  1  6
 27 20  1  0
 28 26  1  0
 28 29  1  0
 30 28  2  0
M  END
$$$$
