WDT.pdb
     RDKit          3D

 30 31  0  0  1  0  0  0  0  0999 V2000
    7.2754  -17.1806   23.8517 N   0  0  0  0  0  0  0  0  0  0  0  0
    8.3754  -16.1951   23.9485 C   0  0  1  0  0  0  0  0  0  0  0  0
    8.2417  -15.6267   25.3395 C   0  0  0  0  0  0  0  0  0  0  0  0
    7.1108  -14.7004   25.5148 C   0  0  0  0  0  0  0  0  0  0  0  0
    5.8078  -15.0959   25.8322 C   0  0  0  0  0  0  0  0  0  0  0  0
    5.0233  -14.0140   25.9559 N   0  0  0  0  0  0  0  0  0  0  0  0
    5.7717  -12.9252   25.7288 C   0  0  0  0  0  0  0  0  0  0  0  0
    5.4812  -11.5826   25.7183 C   0  0  0  0  0  0  0  0  0  0  0  0
    6.4493  -10.6346   25.4391 C   0  0  0  0  0  0  0  0  0  0  0  0
    7.7129  -11.0577   25.1706 C   0  0  0  0  0  0  0  0  0  0  0  0
    8.0309  -12.3789   25.1738 C   0  0  0  0  0  0  0  0  0  0  0  0
    7.0755  -13.3324   25.4515 C   0  0  0  0  0  0  0  0  0  0  0  0
    9.6573  -16.8428   23.6901 C   0  0  0  0  0  0  0  0  0  0  0  0
    9.7714  -18.0874   23.9224 O   0  0  0  0  0  0  0  0  0  0  0  0
   10.7926  -16.1113   23.1743 N   0  0  0  0  0  0  0  0  0  0  0  0
   12.0927  -16.6612   23.3958 C   0  0  1  0  0  0  0  0  0  0  0  0
   13.1608  -15.8191   22.6618 C   0  0  0  0  0  0  0  0  0  0  0  0
   14.4894  -16.4442   22.8151 C   0  0  0  0  0  0  0  0  0  0  0  0
   14.6344  -17.6451   22.4573 O   0  0  0  0  0  0  0  0  0  0  0  0
   12.5218  -16.6877   24.8002 C   0  0  0  0  0  0  0  0  0  0  0  0
   13.5902  -17.1743   25.1837 O   0  0  0  0  0  0  0  0  0  0  0  0
   15.5522  -15.7571   23.3309 O   0  0  0  0  0  0  0  0  0  0  0  0
   11.0909  -13.8939   27.7693 C   0  0  0  0  0  0  0  0  0  0  0  0
   11.0422  -15.3761   28.0670 C   0  0  1  0  0  0  0  0  0  0  0  0
    9.7457  -15.7988   27.7448 O   0  0  0  0  0  0  0  0  0  0  0  0
   11.9667  -16.1721   27.1969 C   0  0  2  0  0  0  0  0  0  0  0  0
   11.6798  -16.1282   25.7974 N   0  0  0  0  0  0  0  0  0  0  0  0
   11.8729  -17.5916   27.6395 C   0  0  0  0  0  0  0  0  0  0  0  0
   11.4210  -18.6053   26.7803 O   0  0  0  0  0  0  0  0  0  0  0  0
   12.1907  -17.9623   28.8003 O   0  0  0  0  0  0  0  0  0  0  0  0
  2  1  1  1
  2 13  1  0
  2  3  1  0
  3  4  1  0
  4  5  2  0
  5  6  1  0
  7  6  1  0
  8  7  2  0
  9  8  1  0
 10 11  1  0
 10  9  2  0
 11 12  2  0
 12  4  1  0
 12  7  1  0
 13 14  2  0
 15 13  1  0
 15 16  1  0
 16 17  1  6
 17 18  1  0
 18 22  1  0
 19 18  2  0
 20 21  2  0
 20 16  1  0
 24 23  1  6
 24 26  1  0
 25 24  1  0
 26 27  1  6
 27 20  1  0
 28 26  1  0
 28 29  1  0
 30 28  2  0
M  END
$$$$
