WDT.pdb
     RDKit          3D

 30 31  0  0  1  0  0  0  0  0999 V2000
    8.6914  -18.2839   19.5324 N   0  0  0  0  0  0  0  0  0  0  0  0
    9.7052  -17.2891   19.9483 C   0  0  1  0  0  0  0  0  0  0  0  0
    9.1011  -16.6311   21.1640 C   0  0  0  0  0  0  0  0  0  0  0  0
    8.0321  -15.6632   20.8669 C   0  0  0  0  0  0  0  0  0  0  0  0
    6.6816  -15.8601   21.1706 C   0  0  0  0  0  0  0  0  0  0  0  0
    5.9729  -14.7808   20.8046 N   0  0  0  0  0  0  0  0  0  0  0  0
    6.8167  -13.8861   20.2712 C   0  0  0  0  0  0  0  0  0  0  0  0
    6.6293  -12.6347   19.7364 C   0  0  0  0  0  0  0  0  0  0  0  0
    7.6853  -11.8985   19.2297 C   0  0  0  0  0  0  0  0  0  0  0  0
    8.9313  -12.4402   19.2689 C   0  0  0  0  0  0  0  0  0  0  0  0
    9.1482  -13.6755   19.7918 C   0  0  0  0  0  0  0  0  0  0  0  0
    8.1046  -14.4179   20.3006 C   0  0  0  0  0  0  0  0  0  0  0  0
   10.9835  -17.9464   20.1997 C   0  0  0  0  0  0  0  0  0  0  0  0
   10.9858  -19.1749   20.5262 O   0  0  0  0  0  0  0  0  0  0  0  0
   12.2407  -17.2422   20.0822 N   0  0  0  0  0  0  0  0  0  0  0  0
   13.3979  -17.8490   20.6606 C   0  0  1  0  0  0  0  0  0  0  0  0
   14.6746  -17.1076   20.2034 C   0  0  0  0  0  0  0  0  0  0  0  0
   15.8712  -17.8922   20.5662 C   0  0  0  0  0  0  0  0  0  0  0  0
   15.7122  -18.9868   21.1727 O   0  0  0  0  0  0  0  0  0  0  0  0
   13.4419  -17.8218   22.1284 C   0  0  0  0  0  0  0  0  0  0  0  0
   13.8048  -16.8423   22.7875 O   0  0  0  0  0  0  0  0  0  0  0  0
   17.1325  -17.4620   20.2627 O   0  0  0  0  0  0  0  0  0  0  0  0
   10.5391  -18.4414   24.6220 C   0  0  0  0  0  0  0  0  0  0  0  0
   11.6325  -19.4662   24.8273 C   0  0  1  0  0  0  0  0  0  0  0  0
   11.2644  -20.5892   24.0744 O   0  0  0  0  0  0  0  0  0  0  0  0
   12.9554  -19.0181   24.2849 C   0  0  2  0  0  0  0  0  0  0  0  0
   13.0497  -18.9743   22.8594 N   0  0  0  0  0  0  0  0  0  0  0  0
   13.9817  -19.9767   24.7826 C   0  0  0  0  0  0  0  0  0  0  0  0
   14.1834  -20.1973   26.1540 O   0  0  0  0  0  0  0  0  0  0  0  0
   14.7221  -20.6394   24.0090 O   0  0  0  0  0  0  0  0  0  0  0  0
  2  1  1  1
  2 13  1  0
  2  3  1  0
  3  4  1  0
  4  5  2  0
  5  6  1  0
  7  6  1  0
  8  7  2  0
  9  8  1  0
 10 11  1  0
 10  9  2  0
 11 12  2  0
 12  4  1  0
 12  7  1  0
 13 14  2  0
 15 13  1  0
 15 16  1  0
 16 17  1  6
 17 18  1  0
 18 22  1  0
 19 18  2  0
 20 21  2  0
 20 16  1  0
 24 23  1  6
 24 26  1  0
 25 24  1  0
 26 27  1  6
 27 20  1  0
 28 26  1  0
 28 29  1  0
 30 28  2  0
M  END
$$$$
