WDT.pdb
     RDKit          3D

 30 31  0  0  1  0  0  0  0  0999 V2000
    8.7646  -17.9332   20.8832 N   0  0  0  0  0  0  0  0  0  0  0  0
    9.7562  -16.9290   21.3290 C   0  0  1  0  0  0  0  0  0  0  0  0
    8.9548  -15.9649   22.1682 C   0  0  0  0  0  0  0  0  0  0  0  0
    8.0366  -15.1057   21.4023 C   0  0  0  0  0  0  0  0  0  0  0  0
    6.6424  -15.2021   21.4473 C   0  0  0  0  0  0  0  0  0  0  0  0
    6.0975  -14.2573   20.6652 N   0  0  0  0  0  0  0  0  0  0  0  0
    7.0906  -13.5478   20.1106 C   0  0  0  0  0  0  0  0  0  0  0  0
    7.1008  -12.4874   19.2375 C   0  0  0  0  0  0  0  0  0  0  0  0
    8.2850  -11.9249   18.7957 C   0  0  0  0  0  0  0  0  0  0  0  0
    9.4575  -12.4453   19.2451 C   0  0  0  0  0  0  0  0  0  0  0  0
    9.4796  -13.4938   20.1093 C   0  0  0  0  0  0  0  0  0  0  0  0
    8.3066  -14.0617   20.5573 C   0  0  0  0  0  0  0  0  0  0  0  0
   10.8463  -17.5807   22.0475 C   0  0  0  0  0  0  0  0  0  0  0  0
   10.5741  -18.5509   22.8225 O   0  0  0  0  0  0  0  0  0  0  0  0
   12.2207  -17.1580   21.8973 N   0  0  0  0  0  0  0  0  0  0  0  0
   13.1735  -17.6506   22.8414 C   0  0  1  0  0  0  0  0  0  0  0  0
   14.5820  -17.1058   22.5122 C   0  0  0  0  0  0  0  0  0  0  0  0
   15.5943  -17.7912   23.3397 C   0  0  0  0  0  0  0  0  0  0  0  0
   15.2818  -18.8804   23.8939 O   0  0  0  0  0  0  0  0  0  0  0  0
   12.9243  -17.2568   24.2342 C   0  0  0  0  0  0  0  0  0  0  0  0
   13.1823  -16.1378   24.6891 O   0  0  0  0  0  0  0  0  0  0  0  0
   16.8478  -17.2757   23.5161 O   0  0  0  0  0  0  0  0  0  0  0  0
   10.1006  -16.3835   26.1054 C   0  0  0  0  0  0  0  0  0  0  0  0
   10.6086  -17.6308   26.7937 C   0  0  1  0  0  0  0  0  0  0  0  0
    9.8892  -18.7017   26.2468 O   0  0  0  0  0  0  0  0  0  0  0  0
   12.0517  -17.9072   26.5000 C   0  0  2  0  0  0  0  0  0  0  0  0
   12.3541  -18.1963   25.1332 N   0  0  0  0  0  0  0  0  0  0  0  0
   12.4478  -19.0887   27.3166 C   0  0  0  0  0  0  0  0  0  0  0  0
   12.8767  -20.2866   26.7239 O   0  0  0  0  0  0  0  0  0  0  0  0
   12.4213  -19.0824   28.5756 O   0  0  0  0  0  0  0  0  0  0  0  0
  2  1  1  1
  2 13  1  0
  2  3  1  0
  3  4  1  0
  4  5  2  0
  5  6  1  0
  7  6  1  0
  8  7  2  0
  9  8  1  0
 10 11  1  0
 10  9  2  0
 11 12  2  0
 12  4  1  0
 12  7  1  0
 13 14  2  0
 15 13  1  0
 15 16  1  0
 16 17  1  6
 17 18  1  0
 18 22  1  0
 19 18  2  0
 20 21  2  0
 20 16  1  0
 24 23  1  6
 24 26  1  0
 25 24  1  0
 26 27  1  6
 27 20  1  0
 28 26  1  0
 28 29  1  0
 30 28  2  0
M  END
$$$$
