WDT.pdb
     RDKit          3D

 30 31  0  0  1  0  0  0  0  0999 V2000
    7.4826  -17.5542   25.4039 N   0  0  0  0  0  0  0  0  0  0  0  0
    6.7185  -16.8227   24.3688 C   0  0  1  0  0  0  0  0  0  0  0  0
    6.0620  -15.6929   25.1228 C   0  0  0  0  0  0  0  0  0  0  0  0
    6.9602  -14.9623   26.0324 C   0  0  0  0  0  0  0  0  0  0  0  0
    8.1483  -15.4822   26.5552 C   0  0  0  0  0  0  0  0  0  0  0  0
    8.7503  -14.5569   27.3185 N   0  0  0  0  0  0  0  0  0  0  0  0
    7.9936  -13.4504   27.3116 C   0  0  0  0  0  0  0  0  0  0  0  0
    8.1304  -12.2264   27.9200 C   0  0  0  0  0  0  0  0  0  0  0  0
    7.1849  -11.2291   27.7606 C   0  0  0  0  0  0  0  0  0  0  0  0
    6.1007  -11.4821   26.9807 C   0  0  0  0  0  0  0  0  0  0  0  0
    5.9378  -12.6829   26.3657 C   0  0  0  0  0  0  0  0  0  0  0  0
    6.8733  -13.6835   26.5160 C   0  0  0  0  0  0  0  0  0  0  0  0
    7.6090  -16.3865   23.2983 C   0  0  0  0  0  0  0  0  0  0  0  0
    7.2303  -15.4443   22.5335 O   0  0  0  0  0  0  0  0  0  0  0  0
    8.9059  -16.9905   23.0896 N   0  0  0  0  0  0  0  0  0  0  0  0
    9.6510  -16.5823   21.9407 C   0  0  1  0  0  0  0  0  0  0  0  0
   10.7989  -17.5803   21.6665 C   0  0  0  0  0  0  0  0  0  0  0  0
   11.6845  -17.0530   20.6097 C   0  0  0  0  0  0  0  0  0  0  0  0
   12.1188  -15.8739   20.7211 O   0  0  0  0  0  0  0  0  0  0  0  0
    8.8808  -16.5288   20.6912 C   0  0  0  0  0  0  0  0  0  0  0  0
    8.1066  -17.4176   20.3221 O   0  0  0  0  0  0  0  0  0  0  0  0
   12.0387  -17.8066   19.5260 O   0  0  0  0  0  0  0  0  0  0  0  0
    6.9702  -13.2338   19.4315 C   0  0  0  0  0  0  0  0  0  0  0  0
    7.8409  -13.8179   18.3412 C   0  0  1  0  0  0  0  0  0  0  0  0
    9.0145  -13.0525   18.3238 O   0  0  0  0  0  0  0  0  0  0  0  0
    8.2670  -15.2247   18.6319 C   0  0  2  0  0  0  0  0  0  0  0  0
    9.0135  -15.4016   19.8379 N   0  0  0  0  0  0  0  0  0  0  0  0
    9.1213  -15.6688   17.4950 C   0  0  0  0  0  0  0  0  0  0  0  0
    8.6310  -15.7280   16.1812 O   0  0  0  0  0  0  0  0  0  0  0  0
   10.3231  -16.0141   17.6445 O   0  0  0  0  0  0  0  0  0  0  0  0
  2  1  1  1
  2 13  1  0
  2  3  1  0
  3  4  1  0
  4  5  2  0
  5  6  1  0
  7  6  1  0
  8  7  2  0
  9  8  1  0
 10 11  1  0
 10  9  2  0
 11 12  2  0
 12  4  1  0
 12  7  1  0
 13 14  2  0
 15 13  1  0
 15 16  1  0
 16 17  1  6
 17 18  1  0
 18 22  1  0
 19 18  2  0
 20 21  2  0
 20 16  1  0
 24 23  1  1
 24 26  1  0
 25 24  1  0
 26 27  1  1
 27 20  1  0
 28 26  1  0
 28 29  1  0
 30 28  2  0
M  END
$$$$
