WDT.pdb
     RDKit          3D

 30 31  0  0  1  0  0  0  0  0999 V2000
    8.7790  -16.4086   21.1909 N   0  0  0  0  0  0  0  0  0  0  0  0
    8.9439  -15.8634   22.5569 C   0  0  1  0  0  0  0  0  0  0  0  0
    7.5402  -15.8131   23.1072 C   0  0  0  0  0  0  0  0  0  0  0  0
    7.0498  -14.4575   23.4070 C   0  0  0  0  0  0  0  0  0  0  0  0
    6.2619  -13.6931   22.5409 C   0  0  0  0  0  0  0  0  0  0  0  0
    5.9545  -12.5230   23.1219 N   0  0  0  0  0  0  0  0  0  0  0  0
    6.5166  -12.4985   24.3387 C   0  0  0  0  0  0  0  0  0  0  0  0
    6.5294  -11.5564   25.3384 C   0  0  0  0  0  0  0  0  0  0  0  0
    7.2067  -11.7699   26.5256 C   0  0  0  0  0  0  0  0  0  0  0  0
    7.8705  -12.9445   26.6913 C   0  0  0  0  0  0  0  0  0  0  0  0
    7.8759  -13.8956   25.7209 C   0  0  0  0  0  0  0  0  0  0  0  0
    7.2040  -13.6949   24.5345 C   0  0  0  0  0  0  0  0  0  0  0  0
    9.8565  -16.7013   23.3278 C   0  0  0  0  0  0  0  0  0  0  0  0
    9.5287  -17.9068   23.5632 O   0  0  0  0  0  0  0  0  0  0  0  0
   11.1192  -16.2008   23.8231 N   0  0  0  0  0  0  0  0  0  0  0  0
   11.8441  -17.0213   24.7413 C   0  0  1  0  0  0  0  0  0  0  0  0
   13.2766  -16.4730   24.9312 C   0  0  0  0  0  0  0  0  0  0  0  0
   14.0125  -16.5300   23.6527 C   0  0  0  0  0  0  0  0  0  0  0  0
   13.6502  -17.3727   22.7867 O   0  0  0  0  0  0  0  0  0  0  0  0
   11.2750  -17.0875   26.0937 C   0  0  0  0  0  0  0  0  0  0  0  0
   11.1999  -16.1189   26.8563 O   0  0  0  0  0  0  0  0  0  0  0  0
   15.0658  -15.6992   23.3916 O   0  0  0  0  0  0  0  0  0  0  0  0
    7.7856  -18.3585   27.2628 C   0  0  0  0  0  0  0  0  0  0  0  0
    8.8756  -19.1764   27.9191 C   0  0  1  0  0  0  0  0  0  0  0  0
    9.0102  -20.3400   27.1501 O   0  0  0  0  0  0  0  0  0  0  0  0
   10.2108  -18.4975   27.8819 C   0  0  2  0  0  0  0  0  0  0  0  0
   10.7736  -18.3239   26.5795 N   0  0  0  0  0  0  0  0  0  0  0  0
   11.1512  -19.3337   28.6796 C   0  0  0  0  0  0  0  0  0  0  0  0
   10.9482  -19.5737   30.0476 O   0  0  0  0  0  0  0  0  0  0  0  0
   12.1744  -19.8696   28.1779 O   0  0  0  0  0  0  0  0  0  0  0  0
  2  1  1  6
  2 13  1  0
  2  3  1  0
  3  4  1  0
  4  5  2  0
  5  6  1  0
  7  6  1  0
  8  7  2  0
  9  8  1  0
 10 11  1  0
 10  9  2  0
 11 12  2  0
 12  4  1  0
 12  7  1  0
 13 14  2  0
 15 13  1  0
 15 16  1  0
 16 17  1  1
 17 18  1  0
 18 22  1  0
 19 18  2  0
 20 21  2  0
 20 16  1  0
 24 23  1  6
 24 26  1  0
 25 24  1  0
 26 27  1  6
 27 20  1  0
 28 26  1  0
 28 29  1  0
 30 28  2  0
M  END
$$$$
