WDT.pdb
     RDKit          3D

 30 31  0  0  1  0  0  0  0  0999 V2000
    6.9243  -16.5338   22.8440 N   0  0  0  0  0  0  0  0  0  0  0  0
    8.2174  -15.9351   23.2439 C   0  0  1  0  0  0  0  0  0  0  0  0
    8.1591  -15.9010   24.7510 C   0  0  0  0  0  0  0  0  0  0  0  0
    7.1567  -14.9743   25.3027 C   0  0  0  0  0  0  0  0  0  0  0  0
    5.9383  -15.3706   25.8624 C   0  0  0  0  0  0  0  0  0  0  0  0
    5.2705  -14.2932   26.3034 N   0  0  0  0  0  0  0  0  0  0  0  0
    6.0131  -13.2064   26.0490 C   0  0  0  0  0  0  0  0  0  0  0  0
    5.8108  -11.8673   26.2787 C   0  0  0  0  0  0  0  0  0  0  0  0
    6.7464  -10.9193   25.9047 C   0  0  0  0  0  0  0  0  0  0  0  0
    7.8873  -11.3389   25.2966 C   0  0  0  0  0  0  0  0  0  0  0  0
    8.1160  -12.6567   25.0562 C   0  0  0  0  0  0  0  0  0  0  0  0
    7.1920  -13.6103   25.4251 C   0  0  0  0  0  0  0  0  0  0  0  0
    9.3243  -16.7205   22.7080 C   0  0  0  0  0  0  0  0  0  0  0  0
    9.1950  -17.9824   22.6251 O   0  0  0  0  0  0  0  0  0  0  0  0
   10.5550  -16.1038   22.2659 N   0  0  0  0  0  0  0  0  0  0  0  0
   11.7805  -16.7677   22.5809 C   0  0  1  0  0  0  0  0  0  0  0  0
   12.9825  -15.9381   22.0752 C   0  0  0  0  0  0  0  0  0  0  0  0
   14.2239  -16.7292   22.1855 C   0  0  0  0  0  0  0  0  0  0  0  0
   14.2564  -17.8751   21.6590 O   0  0  0  0  0  0  0  0  0  0  0  0
   12.0256  -16.9653   24.0155 C   0  0  0  0  0  0  0  0  0  0  0  0
   12.3002  -16.0506   24.7986 O   0  0  0  0  0  0  0  0  0  0  0  0
   15.3252  -16.2517   22.8390 O   0  0  0  0  0  0  0  0  0  0  0  0
   11.1702  -19.7526   27.9803 C   0  0  0  0  0  0  0  0  0  0  0  0
   10.9632  -19.4253   26.5182 C   0  0  1  0  0  0  0  0  0  0  0  0
    9.7874  -18.6661   26.4485 O   0  0  0  0  0  0  0  0  0  0  0  0
   12.0504  -18.5589   25.9593 C   0  0  2  0  0  0  0  0  0  0  0  0
   11.9489  -18.2735   24.5624 N   0  0  0  0  0  0  0  0  0  0  0  0
   13.3399  -19.2690   26.1892 C   0  0  0  0  0  0  0  0  0  0  0  0
   13.8395  -19.4941   27.4814 O   0  0  0  0  0  0  0  0  0  0  0  0
   14.0513  -19.7052   25.2460 O   0  0  0  0  0  0  0  0  0  0  0  0
  2  1  1  6
  2 13  1  0
  2  3  1  0
  3  4  1  0
  4  5  2  0
  5  6  1  0
  7  6  1  0
  8  7  2  0
  9  8  1  0
 10 11  1  0
 10  9  2  0
 11 12  2  0
 12  4  1  0
 12  7  1  0
 13 14  2  0
 15 13  1  0
 15 16  1  0
 16 17  1  1
 17 18  1  0
 18 22  1  0
 19 18  2  0
 20 21  2  0
 20 16  1  0
 24 23  1  1
 24 26  1  0
 25 24  1  0
 26 27  1  6
 27 20  1  0
 28 26  1  0
 28 29  1  0
 30 28  2  0
M  END
$$$$
