PRM.pdb
     RDKit          3D

 27 27  0  0  1  0  0  0  0  0999 V2000
    8.5319  -15.2330   18.3119 N   0  0  0  0  0  0  0  0  0  0  0  0
    8.8194  -14.4863   17.0845 C   0  0  0  0  0  0  0  0  0  0  0  0
    7.7881  -13.3587   17.2101 C   0  0  0  0  0  0  0  0  0  0  0  0
    7.6211  -13.1500   18.7024 C   0  0  0  0  0  0  0  0  0  0  0  0
    8.5604  -14.1821   19.2918 C   0  0  1  0  0  0  0  0  0  0  0  0
    8.0984  -14.6384   20.6252 C   0  0  0  0  0  0  0  0  0  0  0  0
    8.0332  -13.8504   21.6288 O   0  0  0  0  0  0  0  0  0  0  0  0
    8.7912  -20.9259   24.0718 N   0  0  0  0  0  0  0  0  0  0  0  0
    7.8718  -20.8647   25.1498 C   0  0  0  0  0  0  0  0  0  0  0  0
    8.1447  -21.2676   26.3475 N   0  0  0  0  0  0  0  0  0  0  0  0
    6.5616  -20.3225   24.8956 N   0  0  0  0  0  0  0  0  0  0  0  0
    6.1884  -19.8341   23.5863 C   0  0  0  0  0  0  0  0  0  0  0  0
    6.4036  -18.3366   23.5691 C   0  0  0  0  0  0  0  0  0  0  0  0
    7.0164  -17.9203   22.2252 C   0  0  0  0  0  0  0  0  0  0  0  0
    7.2281  -16.4313   22.1650 C   0  0  2  0  0  0  0  0  0  0  0  0
    7.6965  -15.9711   20.8880 N   0  0  0  0  0  0  0  0  0  0  0  0
    8.0074  -15.9291   23.3074 C   0  0  0  0  0  0  0  0  0  0  0  0
    9.2426  -16.0695   23.3111 O   0  0  0  0  0  0  0  0  0  0  0  0
    7.3554  -21.2521   27.0343 C   0  0  0  0  0  0  0  0  0  0  0  0
    6.3441  -10.3067   26.1458 S   0  0  0  0  0  0  0  0  0  0  0  0
    7.0208  -11.2267   27.5273 C   0  0  0  0  0  0  0  0  0  0  0  0
    8.0114  -12.6484   27.0087 C   0  0  0  0  0  0  0  0  0  0  0  0
    7.3181  -13.4233   25.9086 C   0  0  1  0  0  0  0  0  0  0  0  0
    8.1426  -14.5944   25.4417 N   0  0  0  0  0  0  0  0  0  0  0  0
    7.3852  -15.2918   24.3977 C   0  0  0  0  0  0  0  0  0  0  0  0
    8.4834  -15.4875   26.5573 O   0  0  0  0  0  0  0  0  0  0  0  0
    7.9826  -16.6041   26.7797 O   0  0  0  0  0  0  0  0  0  0  0  0
  1  5  1  0
  1  2  1  0
  2  3  1  0
  4  3  1  0
  5  4  1  0
  6 16  1  0
  5  6  1  1
  7  6  2  0
  9  8  1  0
  9 10  2  0
 11  9  1  0
 12 11  1  0
 13 12  1  0
 14 13  1  0
 15 14  1  6
 15 16  1  0
 17 24  1  0
 17 15  1  0
 18 17  2  0
 20 19  1  0
 20 21  1  0
 21 22  1  0
 23 22  1  6
 23 24  1  0
 23 25  1  0
 25 27  1  0
 26 25  2  0
M  END
$$$$
