PRM.pdb
     RDKit          3D

 27 27  0  0  1  0  0  0  0  0999 V2000
    8.2756  -14.8394   18.5268 N   0  0  0  0  0  0  0  0  0  0  0  0
    8.4842  -13.9528   17.3790 C   0  0  0  0  0  0  0  0  0  0  0  0
    7.4933  -12.8343   17.7222 C   0  0  0  0  0  0  0  0  0  0  0  0
    7.4485  -12.8067   19.2373 C   0  0  0  0  0  0  0  0  0  0  0  0
    8.4060  -13.9164   19.6206 C   0  0  1  0  0  0  0  0  0  0  0  0
    8.0388  -14.5252   20.9221 C   0  0  0  0  0  0  0  0  0  0  0  0
    8.0653  -13.8629   22.0144 O   0  0  0  0  0  0  0  0  0  0  0  0
    8.6603  -20.8123   25.3068 N   0  0  0  0  0  0  0  0  0  0  0  0
    7.3063  -20.9983   25.6852 C   0  0  0  0  0  0  0  0  0  0  0  0
    6.9420  -21.4890   26.8243 N   0  0  0  0  0  0  0  0  0  0  0  0
    6.2804  -20.6181   24.7480 N   0  0  0  0  0  0  0  0  0  0  0  0
    6.6098  -20.0875   23.4433 C   0  0  0  0  0  0  0  0  0  0  0  0
    6.7910  -18.5918   23.5811 C   0  0  0  0  0  0  0  0  0  0  0  0
    7.0874  -17.9806   22.2050 C   0  0  0  0  0  0  0  0  0  0  0  0
    7.2967  -16.4935   22.3070 C   0  0  2  0  0  0  0  0  0  0  0  0
    7.6332  -15.8759   21.0551 N   0  0  0  0  0  0  0  0  0  0  0  0
    8.1907  -16.1280   23.4167 C   0  0  0  0  0  0  0  0  0  0  0  0
    9.4068  -16.3690   23.3242 O   0  0  0  0  0  0  0  0  0  0  0  0
    5.9147  -21.4899   27.0230 C   0  0  0  0  0  0  0  0  0  0  0  0
    7.0034   -9.9732   25.9811 S   0  0  0  0  0  0  0  0  0  0  0  0
    7.0283  -11.5681   26.7989 C   0  0  0  0  0  0  0  0  0  0  0  0
    7.9179  -12.8291   25.8554 C   0  0  0  0  0  0  0  0  0  0  0  0
    7.8858  -14.1651   26.5662 C   0  0  2  0  0  0  0  0  0  0  0  0
    8.5434  -15.2493   25.7531 N   0  0  0  0  0  0  0  0  0  0  0  0
    7.6997  -15.5101   24.5825 C   0  0  0  0  0  0  0  0  0  0  0  0
    8.7569  -16.4630   26.5530 O   0  0  0  0  0  0  0  0  0  0  0  0
    8.0684  -17.4979   26.5100 O   0  0  0  0  0  0  0  0  0  0  0  0
  1  5  1  0
  1  2  1  0
  2  3  1  0
  4  3  1  0
  5  4  1  0
  6 16  1  0
  5  6  1  1
  7  6  2  0
  9  8  1  0
  9 10  2  0
 11  9  1  0
 12 11  1  0
 13 12  1  0
 14 13  1  0
 15 14  1  6
 15 16  1  0
 17 24  1  0
 17 15  1  0
 18 17  2  0
 20 19  1  0
 20 21  1  0
 21 22  1  0
 23 22  1  6
 23 24  1  0
 23 25  1  0
 25 27  1  0
 26 25  2  0
M  END
$$$$
