PRM.pdb
     RDKit          3D

 27 27  0  0  1  0  0  0  0  0999 V2000
    9.1941  -14.5164   18.8712 N   0  0  0  0  0  0  0  0  0  0  0  0
    9.1909  -13.6640   17.6794 C   0  0  0  0  0  0  0  0  0  0  0  0
    7.6805  -13.5163   17.4610 C   0  0  0  0  0  0  0  0  0  0  0  0
    7.0775  -13.5998   18.8494 C   0  0  0  0  0  0  0  0  0  0  0  0
    8.2934  -13.7987   19.7309 C   0  0  1  0  0  0  0  0  0  0  0  0
    7.9557  -14.5591   20.9586 C   0  0  0  0  0  0  0  0  0  0  0  0
    6.8475  -15.1812   21.0901 O   0  0  0  0  0  0  0  0  0  0  0  0
   10.1198  -22.2490   24.1305 N   0  0  0  0  0  0  0  0  0  0  0  0
   10.2190  -21.7785   22.7964 C   0  0  0  0  0  0  0  0  0  0  0  0
    9.9815  -22.5121   21.7588 N   0  0  0  0  0  0  0  0  0  0  0  0
   10.6051  -20.4065   22.5866 N   0  0  0  0  0  0  0  0  0  0  0  0
    9.7796  -19.4995   21.8197 C   0  0  0  0  0  0  0  0  0  0  0  0
    9.3872  -18.3507   22.7227 C   0  0  0  0  0  0  0  0  0  0  0  0
    9.4183  -17.0381   21.9283 C   0  0  0  0  0  0  0  0  0  0  0  0
    9.0632  -15.8667   22.8043 C   0  0  2  0  0  0  0  0  0  0  0  0
    8.8274  -14.6548   22.0711 N   0  0  0  0  0  0  0  0  0  0  0  0
    9.9888  -15.7130   23.9374 C   0  0  0  0  0  0  0  0  0  0  0  0
   11.0502  -15.0862   23.7764 O   0  0  0  0  0  0  0  0  0  0  0  0
    9.9963  -22.0258   20.8324 C   0  0  0  0  0  0  0  0  0  0  0  0
    6.2674  -12.0808   26.0159 S   0  0  0  0  0  0  0  0  0  0  0  0
    7.6935  -11.9674   27.0960 C   0  0  0  0  0  0  0  0  0  0  0  0
    8.3934  -13.5831   27.5096 C   0  0  0  0  0  0  0  0  0  0  0  0
    8.5453  -14.4437   26.2736 C   0  0  1  0  0  0  0  0  0  0  0  0
    9.6577  -15.4484   26.4225 N   0  0  0  0  0  0  0  0  0  0  0  0
    9.6991  -16.2600   25.2019 C   0  0  0  0  0  0  0  0  0  0  0  0
    9.4739  -16.2763   27.6222 O   0  0  0  0  0  0  0  0  0  0  0  0
    8.9893  -17.4213   27.6536 O   0  0  0  0  0  0  0  0  0  0  0  0
  1  5  1  0
  1  2  1  0
  2  3  1  0
  4  3  1  0
  5  4  1  0
  6 16  1  0
  5  6  1  1
  7  6  2  0
  9  8  1  0
  9 10  2  0
 11  9  1  0
 12 11  1  0
 13 12  1  0
 14 13  1  0
 15 14  1  6
 15 16  1  0
 17 24  1  0
 17 15  1  0
 18 17  2  0
 20 19  1  0
 20 21  1  0
 21 22  1  0
 23 22  1  6
 23 24  1  0
 23 25  1  0
 25 27  1  0
 26 25  2  0
M  END
$$$$
