PRM.pdb
     RDKit          3D

 27 27  0  0  1  0  0  0  0  0999 V2000
    8.1157  -14.8230   19.0023 N   0  0  0  0  0  0  0  0  0  0  0  0
    8.2596  -13.9045   17.8698 C   0  0  0  0  0  0  0  0  0  0  0  0
    7.3731  -12.7490   18.3489 C   0  0  0  0  0  0  0  0  0  0  0  0
    7.4804  -12.7785   19.8608 C   0  0  0  0  0  0  0  0  0  0  0  0
    8.4064  -13.9518   20.1077 C   0  0  1  0  0  0  0  0  0  0  0  0
    8.1360  -14.5907   21.4185 C   0  0  0  0  0  0  0  0  0  0  0  0
    8.3190  -13.9777   22.5245 O   0  0  0  0  0  0  0  0  0  0  0  0
    8.4940  -21.3387   25.4439 N   0  0  0  0  0  0  0  0  0  0  0  0
    7.3078  -20.8123   26.0158 C   0  0  0  0  0  0  0  0  0  0  0  0
    7.2024  -20.4702   27.2580 N   0  0  0  0  0  0  0  0  0  0  0  0
    6.1572  -20.6492   25.1644 N   0  0  0  0  0  0  0  0  0  0  0  0
    6.2698  -20.0574   23.8494 C   0  0  0  0  0  0  0  0  0  0  0  0
    6.7734  -18.6407   24.0179 C   0  0  0  0  0  0  0  0  0  0  0  0
    6.7935  -17.9363   22.6547 C   0  0  0  0  0  0  0  0  0  0  0  0
    7.2506  -16.5086   22.7898 C   0  0  2  0  0  0  0  0  0  0  0  0
    7.6576  -15.9179   21.5459 N   0  0  0  0  0  0  0  0  0  0  0  0
    8.2176  -16.3307   23.8843 C   0  0  0  0  0  0  0  0  0  0  0  0
    9.3955  -16.6932   23.7215 O   0  0  0  0  0  0  0  0  0  0  0  0
    6.2750  -20.0900   27.5584 C   0  0  0  0  0  0  0  0  0  0  0  0
    5.9387  -11.1423   25.8708 S   0  0  0  0  0  0  0  0  0  0  0  0
    7.4477  -11.6404   26.7003 C   0  0  0  0  0  0  0  0  0  0  0  0
    8.2471  -13.0601   25.9149 C   0  0  0  0  0  0  0  0  0  0  0  0
    8.3718  -14.2186   26.8811 C   0  0  2  0  0  0  0  0  0  0  0  0
    8.7997  -15.4849   26.1867 N   0  0  0  0  0  0  0  0  0  0  0  0
    7.8388  -15.7579   25.1133 C   0  0  0  0  0  0  0  0  0  0  0  0
    8.8962  -16.6064   27.1308 O   0  0  0  0  0  0  0  0  0  0  0  0
    8.1999  -17.6369   27.1161 O   0  0  0  0  0  0  0  0  0  0  0  0
  1  5  1  0
  1  2  1  0
  2  3  1  0
  4  3  1  0
  5  4  1  0
  6 16  1  0
  5  6  1  1
  7  6  2  0
  9  8  1  0
  9 10  2  0
 11  9  1  0
 12 11  1  0
 13 12  1  0
 14 13  1  0
 15 14  1  6
 15 16  1  0
 17 24  1  0
 17 15  1  0
 18 17  2  0
 20 19  1  0
 20 21  1  0
 21 22  1  0
 23 22  1  6
 23 24  1  0
 23 25  1  0
 25 27  1  0
 26 25  2  0
M  END
$$$$
