PRM.pdb
     RDKit          3D

 27 27  0  0  1  0  0  0  0  0999 V2000
    8.7870  -14.5354   18.6986 N   0  0  0  0  0  0  0  0  0  0  0  0
    8.7146  -13.5879   17.5834 C   0  0  0  0  0  0  0  0  0  0  0  0
    7.3587  -12.9346   17.8758 C   0  0  0  0  0  0  0  0  0  0  0  0
    7.2189  -12.9890   19.3843 C   0  0  0  0  0  0  0  0  0  0  0  0
    8.4983  -13.6769   19.8144 C   0  0  1  0  0  0  0  0  0  0  0  0
    8.3110  -14.4324   21.0767 C   0  0  0  0  0  0  0  0  0  0  0  0
    7.8779  -13.8781   22.1433 O   0  0  0  0  0  0  0  0  0  0  0  0
   10.1280  -18.9413   18.3240 N   0  0  0  0  0  0  0  0  0  0  0  0
   11.2889  -19.5412   18.8748 C   0  0  0  0  0  0  0  0  0  0  0  0
   12.3689  -19.7637   18.2001 N   0  0  0  0  0  0  0  0  0  0  0  0
   11.2628  -19.9229   20.2637 N   0  0  0  0  0  0  0  0  0  0  0  0
   10.0754  -19.7498   21.0713 C   0  0  0  0  0  0  0  0  0  0  0  0
    9.8520  -18.2651   21.2585 C   0  0  0  0  0  0  0  0  0  0  0  0
    8.6973  -18.0388   22.2437 C   0  0  0  0  0  0  0  0  0  0  0  0
    8.4014  -16.5716   22.4028 C   0  0  2  0  0  0  0  0  0  0  0  0
    8.5944  -15.8151   21.1977 N   0  0  0  0  0  0  0  0  0  0  0  0
    9.0553  -15.9928   23.5868 C   0  0  0  0  0  0  0  0  0  0  0  0
   10.2637  -15.7056   23.5360 O   0  0  0  0  0  0  0  0  0  0  0  0
   13.1971  -20.0981   18.7452 C   0  0  0  0  0  0  0  0  0  0  0  0
    7.1655  -10.8436   27.2406 S   0  0  0  0  0  0  0  0  0  0  0  0
    6.3332  -12.0957   26.2646 C   0  0  0  0  0  0  0  0  0  0  0  0
    7.4754  -13.2912   25.5313 C   0  0  0  0  0  0  0  0  0  0  0  0
    8.0662  -14.1994   26.5883 C   0  0  2  0  0  0  0  0  0  0  0  0
    8.9816  -15.2355   25.9901 N   0  0  0  0  0  0  0  0  0  0  0  0
    8.3424  -15.7560   24.7775 C   0  0  0  0  0  0  0  0  0  0  0  0
    9.2797  -16.3052   26.9519 O   0  0  0  0  0  0  0  0  0  0  0  0
    8.9031  -17.4878   26.8707 O   0  0  0  0  0  0  0  0  0  0  0  0
  1  5  1  0
  1  2  1  0
  2  3  1  0
  4  3  1  0
  5  4  1  0
  6 16  1  0
  5  6  1  1
  7  6  2  0
  9  8  1  0
  9 10  2  0
 11  9  1  0
 12 11  1  0
 13 12  1  0
 14 13  1  0
 15 14  1  6
 15 16  1  0
 17 24  1  0
 17 15  1  0
 18 17  2  0
 20 19  1  0
 20 21  1  0
 21 22  1  0
 23 22  1  6
 23 24  1  0
 23 25  1  0
 25 27  1  0
 26 25  2  0
M  END
$$$$
