SST.pdb
     RDKit          3D

 20 19  0  0  1  0  0  0  0  0999 V2000
   29.0277   -8.8443  -20.8967 O   0  0  0  0  0  0  0  0  0  0  0  0
   29.5004   -8.2578  -19.7468 C   0  0  0  0  0  0  0  0  0  0  0  0
   29.8086   -9.3285  -18.7057 C   0  0  2  0  0  0  0  0  0  0  0  0
   28.5501   -9.7712  -18.1415 N   0  0  0  0  0  0  0  0  0  0  0  0
   30.7143   -8.7817  -17.6646 C   0  0  0  0  0  0  0  0  0  0  0  0
   30.1679   -8.1823  -16.6990 O   0  0  0  0  0  0  0  0  0  0  0  0
   35.0649   -8.9517  -15.6935 O   0  0  0  0  0  0  0  0  0  0  0  0
   34.2856   -9.2538  -16.7941 C   0  0  0  0  0  0  0  0  0  0  0  0
   32.9709   -8.4873  -16.7179 C   0  0  2  0  0  0  0  0  0  0  0  0
   32.1032   -8.9493  -17.7931 N   0  0  0  0  0  0  0  0  0  0  0  0
   33.2258   -7.0346  -16.8416 C   0  0  0  0  0  0  0  0  0  0  0  0
   33.3483   -6.5481  -18.0220 O   0  0  0  0  0  0  0  0  0  0  0  0
   31.3091   -4.0555  -14.8952 C   0  0  0  0  0  0  0  0  0  0  0  0
   32.8058   -3.9674  -14.8006 C   0  0  1  0  0  0  0  0  0  0  0  0
   33.2753   -4.3792  -13.5513 O   0  0  0  0  0  0  0  0  0  0  0  0
   33.4891   -4.7406  -15.9206 C   0  0  2  0  0  0  0  0  0  0  0  0
   33.3359   -6.1780  -15.7185 N   0  0  0  0  0  0  0  0  0  0  0  0
   34.9299   -4.4158  -15.8431 C   0  0  0  0  0  0  0  0  0  0  0  0
   35.8072   -5.3889  -15.4093 O   0  0  0  0  0  0  0  0  0  0  0  0
   35.3927   -3.2860  -16.1568 O   0  0  0  0  0  0  0  0  0  0  0  0
  2  1  1  0
  2  3  1  0
  3  5  1  0
  3  4  1  1
  5  6  2  0
  7  8  1  0
  9  8  1  6
 10  9  1  0
 10  5  1  0
 11 17  1  0
 11  9  1  0
 12 11  2  0
 14 13  1  1
 14 15  1  0
 14 16  1  0
 16 17  1  1
 18 16  1  0
 18 19  1  0
 20 18  2  0
M  END
$$$$
