SST.pdb
     RDKit          3D

 20 19  0  0  1  0  0  0  0  0999 V2000
   20.2157   -5.6146  -18.5055 O   0  0  0  0  0  0  0  0  0  0  0  0
   18.9831   -5.3139  -19.0348 C   0  0  0  0  0  0  0  0  0  0  0  0
   18.0699   -6.5322  -18.9510 C   0  0  2  0  0  0  0  0  0  0  0  0
   16.8903   -6.2555  -19.7449 N   0  0  0  0  0  0  0  0  0  0  0  0
   17.7244   -6.8141  -17.5353 C   0  0  0  0  0  0  0  0  0  0  0  0
   16.8837   -6.0449  -16.9952 O   0  0  0  0  0  0  0  0  0  0  0  0
   19.2157  -10.1782  -15.4891 O   0  0  0  0  0  0  0  0  0  0  0  0
   17.9777   -9.6262  -15.2203 C   0  0  0  0  0  0  0  0  0  0  0  0
   18.0212   -8.1233  -15.4681 C   0  0  2  0  0  0  0  0  0  0  0  0
   18.3304   -7.8950  -16.8734 N   0  0  0  0  0  0  0  0  0  0  0  0
   19.0450   -7.4983  -14.6010 C   0  0  0  0  0  0  0  0  0  0  0  0
   18.8879   -7.5882  -13.3312 O   0  0  0  0  0  0  0  0  0  0  0  0
   22.4415   -8.3087  -13.6954 C   0  0  0  0  0  0  0  0  0  0  0  0
   22.4855   -6.9383  -14.3092 C   0  0  1  0  0  0  0  0  0  0  0  0
   22.9251   -6.9735  -15.6344 O   0  0  0  0  0  0  0  0  0  0  0  0
   21.1433   -6.2270  -14.1999 C   0  0  2  0  0  0  0  0  0  0  0  0
   20.1743   -6.8170  -15.1183 N   0  0  0  0  0  0  0  0  0  0  0  0
   21.3715   -4.8244  -14.6100 C   0  0  0  0  0  0  0  0  0  0  0  0
   22.1898   -4.0303  -13.8327 O   0  0  0  0  0  0  0  0  0  0  0  0
   20.8496   -4.3214  -15.6415 O   0  0  0  0  0  0  0  0  0  0  0  0
  2  1  1  0
  2  3  1  0
  3  5  1  0
  3  4  1  6
  5  6  2  0
  7  8  1  0
  9  8  1  6
 10  9  1  0
 10  5  1  0
 11 17  1  0
 11  9  1  0
 12 11  2  0
 14 13  1  6
 14 15  1  0
 14 16  1  0
 16 17  1  6
 18 16  1  0
 18 19  1  0
 20 18  2  0
M  END
$$$$
