SST.pdb
     RDKit          3D

 20 19  0  0  1  0  0  0  0  0999 V2000
   21.1211  -13.1648  -19.0082 O   0  0  0  0  0  0  0  0  0  0  0  0
   19.8559  -12.7947  -18.6181 C   0  0  0  0  0  0  0  0  0  0  0  0
   19.8377  -12.5026  -17.1215 C   0  0  2  0  0  0  0  0  0  0  0  0
   18.9324  -13.4461  -16.4983 N   0  0  0  0  0  0  0  0  0  0  0  0
   19.4183  -11.0992  -16.8810 C   0  0  0  0  0  0  0  0  0  0  0  0
   18.2364  -10.8000  -17.2028 O   0  0  0  0  0  0  0  0  0  0  0  0
   19.4184   -9.1332  -13.7852 O   0  0  0  0  0  0  0  0  0  0  0  0
   18.8372   -8.8161  -14.9982 C   0  0  0  0  0  0  0  0  0  0  0  0
   19.8991   -8.8145  -16.0911 C   0  0  2  0  0  0  0  0  0  0  0  0
   20.3286  -10.1876  -16.3208 N   0  0  0  0  0  0  0  0  0  0  0  0
   21.0445   -7.9718  -15.6805 C   0  0  0  0  0  0  0  0  0  0  0  0
   22.0669   -8.5587  -15.1752 O   0  0  0  0  0  0  0  0  0  0  0  0
   23.7133   -3.8879  -16.1380 C   0  0  0  0  0  0  0  0  0  0  0  0
   22.5124   -4.7146  -16.5005 C   0  0  1  0  0  0  0  0  0  0  0  0
   22.6181   -5.2542  -17.7844 O   0  0  0  0  0  0  0  0  0  0  0  0
   22.2463   -5.8056  -15.4719 C   0  0  2  0  0  0  0  0  0  0  0  0
   21.0494   -6.5626  -15.8258 N   0  0  0  0  0  0  0  0  0  0  0  0
   21.9952   -5.1229  -14.1842 C   0  0  0  0  0  0  0  0  0  0  0  0
   22.9818   -5.1419  -13.2194 O   0  0  0  0  0  0  0  0  0  0  0  0
   20.9163   -4.5229  -13.9287 O   0  0  0  0  0  0  0  0  0  0  0  0
  2  1  1  0
  2  3  1  0
  3  5  1  0
  3  4  1  1
  5  6  2  0
  7  8  1  0
  9  8  1  1
 10  9  1  0
 10  5  1  0
 11 17  1  0
 11  9  1  0
 12 11  2  0
 14 13  1  1
 14 15  1  0
 14 16  1  0
 16 17  1  6
 18 16  1  0
 18 19  1  0
 20 18  2  0
M  END
$$$$
