SST.pdb
     RDKit          3D

 20 19  0  0  1  0  0  0  0  0999 V2000
   18.9407  -10.6694  -20.2069 O   0  0  0  0  0  0  0  0  0  0  0  0
   18.9320  -10.0418  -18.9837 C   0  0  0  0  0  0  0  0  0  0  0  0
   19.3872  -11.0116  -17.8985 C   0  0  2  0  0  0  0  0  0  0  0  0
   18.3423  -11.9990  -17.7220 N   0  0  0  0  0  0  0  0  0  0  0  0
   19.6640  -10.2750  -16.6399 C   0  0  0  0  0  0  0  0  0  0  0  0
   18.6698  -10.0071  -15.9120 O   0  0  0  0  0  0  0  0  0  0  0  0
   22.4551   -9.2463  -13.0650 O   0  0  0  0  0  0  0  0  0  0  0  0
   22.2239   -9.9323  -14.2421 C   0  0  0  0  0  0  0  0  0  0  0  0
   21.2321   -9.1575  -15.1012 C   0  0  2  0  0  0  0  0  0  0  0  0
   20.9841   -9.9165  -16.3198 N   0  0  0  0  0  0  0  0  0  0  0  0
   21.7795   -7.8204  -15.4223 C   0  0  0  0  0  0  0  0  0  0  0  0
   22.7038   -7.7504  -16.3087 O   0  0  0  0  0  0  0  0  0  0  0  0
   20.2898   -4.9021  -17.0984 C   0  0  0  0  0  0  0  0  0  0  0  0
   20.7663   -4.4464  -15.7485 C   0  0  1  0  0  0  0  0  0  0  0  0
   19.7166   -4.3365  -14.8338 O   0  0  0  0  0  0  0  0  0  0  0  0
   21.8692   -5.3454  -15.2057 C   0  0  2  0  0  0  0  0  0  0  0  0
   21.3231   -6.6352  -14.7944 N   0  0  0  0  0  0  0  0  0  0  0  0
   22.4136   -4.6726  -14.0064 C   0  0  0  0  0  0  0  0  0  0  0  0
   22.2003   -5.2460  -12.7693 O   0  0  0  0  0  0  0  0  0  0  0  0
   23.0658   -3.5954  -14.0651 O   0  0  0  0  0  0  0  0  0  0  0  0
  2  1  1  0
  2  3  1  0
  3  5  1  0
  3  4  1  1
  5  6  2  0
  7  8  1  0
  9  8  1  1
 10  9  1  0
 10  5  1  0
 11 17  1  0
 11  9  1  0
 12 11  2  0
 14 13  1  6
 14 15  1  0
 14 16  1  0
 16 17  1  1
 18 16  1  0
 18 19  1  0
 20 18  2  0
M  END
$$$$
