GQF.pdb
     RDKit          3D

 25 25  0  0  1  0  0  0  0  0999 V2000
    4.7157  -19.3361   21.6822 N   0  0  0  0  0  0  0  0  0  0  0  0
    4.8880  -17.9653   22.0815 C   0  0  0  0  0  0  0  0  0  0  0  0
    6.3206  -17.5319   21.9174 C   0  0  0  0  0  0  0  0  0  0  0  0
    7.2235  -18.3985   21.7248 O   0  0  0  0  0  0  0  0  0  0  0  0
    8.9653  -12.3636   19.7156 N   0  0  0  0  0  0  0  0  0  0  0  0
    8.1472  -13.2626   19.0075 C   0  0  0  0  0  0  0  0  0  0  0  0
    7.8688  -13.0862   17.7848 O   0  0  0  0  0  0  0  0  0  0  0  0
    7.6112  -14.4409   19.7426 C   0  0  0  0  0  0  0  0  0  0  0  0
    8.0539  -14.3512   21.1838 C   0  0  0  0  0  0  0  0  0  0  0  0
    8.0663  -15.7085   21.8506 C   0  0  2  0  0  0  0  0  0  0  0  0
    6.6918  -16.1660   21.9732 N   0  0  0  0  0  0  0  0  0  0  0  0
    8.6963  -15.5261   23.1851 C   0  0  0  0  0  0  0  0  0  0  0  0
    9.8529  -15.0775   23.2647 O   0  0  0  0  0  0  0  0  0  0  0  0
    7.9693  -15.8669   24.3542 N   0  0  0  0  0  0  0  0  0  0  0  0
    8.5519  -15.7895   25.7034 C   0  0  1  0  0  0  0  0  0  0  0  0
    7.5038  -15.2965   26.6822 C   0  0  0  0  0  0  0  0  0  0  0  0
    7.1575  -13.8770   26.5264 C   0  0  0  0  0  0  0  0  0  0  0  0
    8.1420  -12.9021   26.4957 C   0  0  0  0  0  0  0  0  0  0  0  0
    7.8316  -11.5655   26.3409 C   0  0  0  0  0  0  0  0  0  0  0  0
    6.5296  -11.1478   26.2107 C   0  0  0  0  0  0  0  0  0  0  0  0
    5.5390  -12.1068   26.2395 C   0  0  0  0  0  0  0  0  0  0  0  0
    5.8561  -13.4523   26.3955 C   0  0  0  0  0  0  0  0  0  0  0  0
    9.2002  -17.0382   26.0875 C   0  0  0  0  0  0  0  0  0  0  0  0
    9.9544  -17.1062   27.2456 O   0  0  0  0  0  0  0  0  0  0  0  0
    9.1266  -18.1181   25.4147 O   0  0  0  0  0  0  0  0  0  0  0  0
  1  2  1  0
  3  2  1  0
  4  3  2  0
  5  6  1  0
  6  7  2  0
  8  9  1  0
  8  6  1  0
 10  9  1  1
 10 11  1  0
 10 12  1  0
 11  3  1  0
 12 13  2  0
 12 14  1  0
 14 15  1  0
 15 16  1  1
 15 23  1  0
 16 17  1  0
 17 22  2  0
 18 19  2  0
 18 17  1  0
 19 20  1  0
 20 21  2  0
 22 21  1  0
 23 24  1  0
 25 23  2  0
M  END
$$$$
