GQF.pdb
     RDKit          3D

 25 25  0  0  1  0  0  0  0  0999 V2000
    7.9202  -12.2043   18.6527 N   0  0  0  0  0  0  0  0  0  0  0  0
    8.8256  -13.3077   18.8294 C   0  0  0  0  0  0  0  0  0  0  0  0
    8.3547  -14.2205   19.9304 C   0  0  0  0  0  0  0  0  0  0  0  0
    7.5322  -13.7948   20.7939 O   0  0  0  0  0  0  0  0  0  0  0  0
    9.3962  -20.3362   20.0879 N   0  0  0  0  0  0  0  0  0  0  0  0
    8.8750  -20.1995   21.3874 C   0  0  0  0  0  0  0  0  0  0  0  0
    8.7008  -21.2011   22.1423 O   0  0  0  0  0  0  0  0  0  0  0  0
    8.5298  -18.8297   21.8569 C   0  0  0  0  0  0  0  0  0  0  0  0
    8.8200  -17.8518   20.7430 C   0  0  0  0  0  0  0  0  0  0  0  0
    8.4764  -16.4336   21.1403 C   0  0  2  0  0  0  0  0  0  0  0  0
    8.8111  -15.5577   20.0291 N   0  0  0  0  0  0  0  0  0  0  0  0
    9.2899  -16.1152   22.3436 C   0  0  0  0  0  0  0  0  0  0  0  0
   10.3330  -15.4495   22.2241 O   0  0  0  0  0  0  0  0  0  0  0  0
    8.8659  -16.5754   23.6163 N   0  0  0  0  0  0  0  0  0  0  0  0
    8.6179  -15.6677   24.7478 C   0  0  1  0  0  0  0  0  0  0  0  0
    7.7424  -14.5160   24.2933 C   0  0  0  0  0  0  0  0  0  0  0  0
    7.3663  -13.5874   25.3682 C   0  0  0  0  0  0  0  0  0  0  0  0
    8.3299  -13.0000   26.1727 C   0  0  0  0  0  0  0  0  0  0  0  0
    7.9915  -12.1189   27.1806 C   0  0  0  0  0  0  0  0  0  0  0  0
    6.6812  -11.7886   27.4268 C   0  0  0  0  0  0  0  0  0  0  0  0
    5.7111  -12.3655   26.6343 C   0  0  0  0  0  0  0  0  0  0  0  0
    6.0564  -13.2526   25.6199 C   0  0  0  0  0  0  0  0  0  0  0  0
    8.1206  -16.3820   25.9181 C   0  0  0  0  0  0  0  0  0  0  0  0
    7.0569  -17.2592   25.8011 O   0  0  0  0  0  0  0  0  0  0  0  0
    8.6057  -16.2587   27.0902 O   0  0  0  0  0  0  0  0  0  0  0  0
  1  2  1  0
  3  2  1  0
  4  3  2  0
  5  6  1  0
  6  7  2  0
  8  9  1  0
  8  6  1  0
 10  9  1  6
 10 11  1  0
 10 12  1  0
 11  3  1  0
 12 13  2  0
 12 14  1  0
 14 15  1  0
 15 16  1  6
 15 23  1  0
 16 17  1  0
 17 22  2  0
 18 19  2  0
 18 17  1  0
 19 20  1  0
 20 21  2  0
 22 21  1  0
 23 24  1  0
 25 23  2  0
M  END
$$$$
