GQF.pdb
     RDKit          3D

 25 25  0  0  1  0  0  0  0  0999 V2000
    6.1210  -20.0418   21.2444 N   0  0  0  0  0  0  0  0  0  0  0  0
    5.9317  -18.7025   21.7329 C   0  0  0  0  0  0  0  0  0  0  0  0
    7.0074  -17.7835   21.2176 C   0  0  0  0  0  0  0  0  0  0  0  0
    8.0488  -18.2681   20.6848 O   0  0  0  0  0  0  0  0  0  0  0  0
    7.9735  -12.3789   17.6395 N   0  0  0  0  0  0  0  0  0  0  0  0
    8.4270  -13.3348   18.5666 C   0  0  0  0  0  0  0  0  0  0  0  0
    9.0477  -14.3754   18.1986 O   0  0  0  0  0  0  0  0  0  0  0  0
    8.1546  -13.0874   20.0091 C   0  0  0  0  0  0  0  0  0  0  0  0
    7.1829  -14.1336   20.5017 C   0  0  0  0  0  0  0  0  0  0  0  0
    7.8711  -15.4528   20.7721 C   0  0  2  0  0  0  0  0  0  0  0  0
    6.8863  -16.3755   21.3130 N   0  0  0  0  0  0  0  0  0  0  0  0
    8.9531  -15.1798   21.7548 C   0  0  0  0  0  0  0  0  0  0  0  0
    9.8797  -14.4080   21.4530 O   0  0  0  0  0  0  0  0  0  0  0  0
    8.9158  -15.8044   23.0276 N   0  0  0  0  0  0  0  0  0  0  0  0
    8.7456  -15.0490   24.2791 C   0  0  1  0  0  0  0  0  0  0  0  0
    7.5618  -14.1101   24.1492 C   0  0  0  0  0  0  0  0  0  0  0  0
    7.3365  -13.2618   25.3277 C   0  0  0  0  0  0  0  0  0  0  0  0
    6.2409  -13.4631   26.1522 C   0  0  0  0  0  0  0  0  0  0  0  0
    6.0216  -12.6792   27.2678 C   0  0  0  0  0  0  0  0  0  0  0  0
    6.8840  -11.6650   27.6055 C   0  0  0  0  0  0  0  0  0  0  0  0
    7.9788  -11.4528   26.7941 C   0  0  0  0  0  0  0  0  0  0  0  0
    8.1961  -12.2448   25.6714 C   0  0  0  0  0  0  0  0  0  0  0  0
    8.6973  -15.9280   25.4418 C   0  0  0  0  0  0  0  0  0  0  0  0
    9.5326  -15.7040   26.5219 O   0  0  0  0  0  0  0  0  0  0  0  0
    7.9158  -16.9291   25.5490 O   0  0  0  0  0  0  0  0  0  0  0  0
  1  2  1  0
  3  2  1  0
  4  3  2  0
  5  6  1  0
  6  7  2  0
  8  9  1  0
  8  6  1  0
 10  9  1  1
 10 11  1  0
 10 12  1  0
 11  3  1  0
 12 13  2  0
 12 14  1  0
 14 15  1  0
 15 16  1  6
 15 23  1  0
 16 17  1  0
 17 22  2  0
 18 19  2  0
 18 17  1  0
 19 20  1  0
 20 21  2  0
 22 21  1  0
 23 24  1  0
 25 23  2  0
M  END
$$$$
