GQF.pdb
     RDKit          3D

 25 25  0  0  1  0  0  0  0  0999 V2000
    5.4762  -19.7502   21.7715 N   0  0  0  0  0  0  0  0  0  0  0  0
    5.2875  -18.4000   22.2292 C   0  0  0  0  0  0  0  0  0  0  0  0
    6.4378  -17.5232   21.8107 C   0  0  0  0  0  0  0  0  0  0  0  0
    7.4760  -18.0433   21.3059 O   0  0  0  0  0  0  0  0  0  0  0  0
    7.6692  -12.4711   18.3796 N   0  0  0  0  0  0  0  0  0  0  0  0
    8.3126  -13.2621   19.3488 C   0  0  0  0  0  0  0  0  0  0  0  0
    9.0961  -14.2029   19.0255 O   0  0  0  0  0  0  0  0  0  0  0  0
    8.0446  -12.9600   20.7816 C   0  0  0  0  0  0  0  0  0  0  0  0
    6.9585  -13.8870   21.2739 C   0  0  0  0  0  0  0  0  0  0  0  0
    7.5104  -15.2424   21.6552 C   0  0  2  0  0  0  0  0  0  0  0  0
    6.3912  -16.1162   21.9675 N   0  0  0  0  0  0  0  0  0  0  0  0
    8.3809  -15.0336   22.8424 C   0  0  0  0  0  0  0  0  0  0  0  0
    9.4312  -14.3783   22.7292 O   0  0  0  0  0  0  0  0  0  0  0  0
    8.0025  -15.5856   24.0929 N   0  0  0  0  0  0  0  0  0  0  0  0
    8.8660  -15.5240   25.2830 C   0  0  1  0  0  0  0  0  0  0  0  0
    8.0346  -15.1527   26.4957 C   0  0  0  0  0  0  0  0  0  0  0  0
    7.5420  -13.7683   26.4846 C   0  0  0  0  0  0  0  0  0  0  0  0
    8.4164  -12.6994   26.6014 C   0  0  0  0  0  0  0  0  0  0  0  0
    7.9683  -11.3933   26.5836 C   0  0  0  0  0  0  0  0  0  0  0  0
    6.6330  -11.1009   26.4490 C   0  0  0  0  0  0  0  0  0  0  0  0
    5.7510  -12.1545   26.3319 C   0  0  0  0  0  0  0  0  0  0  0  0
    6.2066  -13.4688   26.3502 C   0  0  0  0  0  0  0  0  0  0  0  0
    9.6602  -16.7369   25.4410 C   0  0  0  0  0  0  0  0  0  0  0  0
    9.5154  -17.7874   24.5520 O   0  0  0  0  0  0  0  0  0  0  0  0
   10.5129  -16.9168   26.3710 O   0  0  0  0  0  0  0  0  0  0  0  0
  1  2  1  0
  3  2  1  0
  4  3  2  0
  5  6  1  0
  6  7  2  0
  8  9  1  0
  8  6  1  0
 10  9  1  1
 10 11  1  0
 10 12  1  0
 11  3  1  0
 12 13  2  0
 12 14  1  0
 14 15  1  0
 15 16  1  1
 15 23  1  0
 16 17  1  0
 17 22  2  0
 18 19  2  0
 18 17  1  0
 19 20  1  0
 20 21  2  0
 22 21  1  0
 23 24  1  0
 25 23  2  0
M  END
$$$$
