GQF.pdb
     RDKit          3D

 25 25  0  0  1  0  0  0  0  0999 V2000
    7.9821  -12.4173   18.4439 N   0  0  0  0  0  0  0  0  0  0  0  0
    8.8987  -13.4398   18.8710 C   0  0  0  0  0  0  0  0  0  0  0  0
    8.3158  -14.2498   19.9985 C   0  0  0  0  0  0  0  0  0  0  0  0
    7.3300  -13.8002   20.6538 O   0  0  0  0  0  0  0  0  0  0  0  0
    8.4116  -20.2946   20.6275 N   0  0  0  0  0  0  0  0  0  0  0  0
    8.3858  -19.4541   19.4997 C   0  0  0  0  0  0  0  0  0  0  0  0
    8.3243  -19.9210   18.3242 O   0  0  0  0  0  0  0  0  0  0  0  0
    8.4330  -17.9838   19.7278 C   0  0  0  0  0  0  0  0  0  0  0  0
    8.4919  -17.7292   21.2154 C   0  0  0  0  0  0  0  0  0  0  0  0
    8.4271  -16.2521   21.5330 C   0  0  2  0  0  0  0  0  0  0  0  0
    8.8449  -15.5154   20.3513 N   0  0  0  0  0  0  0  0  0  0  0  0
    9.3530  -16.0164   22.6724 C   0  0  0  0  0  0  0  0  0  0  0  0
   10.5813  -16.0839   22.4929 O   0  0  0  0  0  0  0  0  0  0  0  0
    8.8234  -15.7167   23.9535 N   0  0  0  0  0  0  0  0  0  0  0  0
    9.6753  -15.4254   25.1176 C   0  0  1  0  0  0  0  0  0  0  0  0
    9.6631  -13.9348   25.3962 C   0  0  0  0  0  0  0  0  0  0  0  0
    8.3605  -13.4172   25.8372 C   0  0  0  0  0  0  0  0  0  0  0  0
    8.1196  -13.1378   27.1731 C   0  0  0  0  0  0  0  0  0  0  0  0
    6.9033  -12.6427   27.6004 C   0  0  0  0  0  0  0  0  0  0  0  0
    5.8802  -12.4069   26.7148 C   0  0  0  0  0  0  0  0  0  0  0  0
    6.1054  -12.6804   25.3820 C   0  0  0  0  0  0  0  0  0  0  0  0
    7.3322  -13.1789   24.9558 C   0  0  0  0  0  0  0  0  0  0  0  0
    9.3321  -16.2590   26.2640 C   0  0  0  0  0  0  0  0  0  0  0  0
    8.2384  -17.1050   26.2099 O   0  0  0  0  0  0  0  0  0  0  0  0
    9.9844  -16.2725   27.3587 O   0  0  0  0  0  0  0  0  0  0  0  0
  1  2  1  0
  3  2  1  0
  4  3  2  0
  5  6  1  0
  6  7  2  0
  8  9  1  0
  8  6  1  0
 10  9  1  6
 10 11  1  0
 10 12  1  0
 11  3  1  0
 12 13  2  0
 12 14  1  0
 14 15  1  0
 15 16  1  1
 15 23  1  0
 16 17  1  0
 17 22  2  0
 18 19  2  0
 18 17  1  0
 19 20  1  0
 20 21  2  0
 22 21  1  0
 23 24  1  0
 25 23  2  0
M  END
$$$$
