GQF.pdb
     RDKit          3D

 25 25  0  0  1  0  0  0  0  0999 V2000
    7.7934  -13.1028   18.5028 N   0  0  0  0  0  0  0  0  0  0  0  0
    8.2060  -14.4313   18.8674 C   0  0  0  0  0  0  0  0  0  0  0  0
    7.7794  -14.7617   20.2731 C   0  0  0  0  0  0  0  0  0  0  0  0
    7.6928  -13.8415   21.1385 O   0  0  0  0  0  0  0  0  0  0  0  0
    6.1313  -20.4854   22.0857 N   0  0  0  0  0  0  0  0  0  0  0  0
    6.1069  -19.8680   23.3495 C   0  0  0  0  0  0  0  0  0  0  0  0
    5.8171  -20.5141   24.3993 O   0  0  0  0  0  0  0  0  0  0  0  0
    6.4348  -18.4177   23.4206 C   0  0  0  0  0  0  0  0  0  0  0  0
    6.7241  -17.9206   22.0240 C   0  0  0  0  0  0  0  0  0  0  0  0
    7.1129  -16.4592   22.0198 C   0  0  2  0  0  0  0  0  0  0  0  0
    7.4684  -16.0884   20.6597 N   0  0  0  0  0  0  0  0  0  0  0  0
    8.2735  -16.3204   22.9388 C   0  0  0  0  0  0  0  0  0  0  0  0
    9.4029  -16.6811   22.5646 O   0  0  0  0  0  0  0  0  0  0  0  0
    8.0787  -15.7773   24.2344 N   0  0  0  0  0  0  0  0  0  0  0  0
    9.1956  -15.4438   25.1328 C   0  0  1  0  0  0  0  0  0  0  0  0
    9.3561  -13.9377   25.2069 C   0  0  0  0  0  0  0  0  0  0  0  0
    8.2069  -13.2401   25.8001 C   0  0  0  0  0  0  0  0  0  0  0  0
    8.2361  -12.8102   27.1174 C   0  0  0  0  0  0  0  0  0  0  0  0
    7.1669  -12.1458   27.6851 C   0  0  0  0  0  0  0  0  0  0  0  0
    6.0278  -11.8836   26.9639 C   0  0  0  0  0  0  0  0  0  0  0  0
    5.9842  -12.3056   25.6516 C   0  0  0  0  0  0  0  0  0  0  0  0
    7.0635  -12.9745   25.0836 C   0  0  0  0  0  0  0  0  0  0  0  0
    9.0675  -16.1041   26.4268 C   0  0  0  0  0  0  0  0  0  0  0  0
   10.0966  -16.0380   27.3496 O   0  0  0  0  0  0  0  0  0  0  0  0
    8.0419  -16.7660   26.7931 O   0  0  0  0  0  0  0  0  0  0  0  0
  1  2  1  0
  3  2  1  0
  4  3  2  0
  5  6  1  0
  6  7  2  0
  8  9  1  0
  8  6  1  0
 10  9  1  6
 10 11  1  0
 10 12  1  0
 11  3  1  0
 12 13  2  0
 12 14  1  0
 14 15  1  0
 15 16  1  1
 15 23  1  0
 16 17  1  0
 17 22  2  0
 18 19  2  0
 18 17  1  0
 19 20  1  0
 20 21  2  0
 22 21  1  0
 23 24  1  0
 25 23  2  0
M  END
$$$$
