GQF.pdb
     RDKit          3D

 25 25  0  0  1  0  0  0  0  0999 V2000
    6.3247  -19.7405   20.8930 N   0  0  0  0  0  0  0  0  0  0  0  0
    6.1184  -18.4897   21.5719 C   0  0  0  0  0  0  0  0  0  0  0  0
    7.2902  -17.5661   21.3685 C   0  0  0  0  0  0  0  0  0  0  0  0
    8.3847  -18.0241   20.9264 O   0  0  0  0  0  0  0  0  0  0  0  0
    8.4616  -11.9287   19.4425 N   0  0  0  0  0  0  0  0  0  0  0  0
    7.9537  -13.0382   18.7426 C   0  0  0  0  0  0  0  0  0  0  0  0
    7.7648  -13.0048   17.4909 O   0  0  0  0  0  0  0  0  0  0  0  0
    7.6404  -14.2673   19.5219 C   0  0  0  0  0  0  0  0  0  0  0  0
    7.9843  -14.0187   20.9715 C   0  0  0  0  0  0  0  0  0  0  0  0
    8.3558  -15.2989   21.6856 C   0  0  2  0  0  0  0  0  0  0  0  0
    7.2020  -16.1831   21.6613 N   0  0  0  0  0  0  0  0  0  0  0  0
    8.7207  -14.9244   23.0776 C   0  0  0  0  0  0  0  0  0  0  0  0
    8.6775  -13.7320   23.4267 O   0  0  0  0  0  0  0  0  0  0  0  0
    9.1146  -15.9335   23.9930 N   0  0  0  0  0  0  0  0  0  0  0  0
    8.9720  -15.7846   25.4501 C   0  0  1  0  0  0  0  0  0  0  0  0
    7.5403  -15.4139   25.7856 C   0  0  0  0  0  0  0  0  0  0  0  0
    7.3458  -13.9908   26.0957 C   0  0  0  0  0  0  0  0  0  0  0  0
    6.0942  -13.4039   25.9957 C   0  0  0  0  0  0  0  0  0  0  0  0
    5.8952  -12.0700   26.2925 C   0  0  0  0  0  0  0  0  0  0  0  0
    6.9340  -11.2690   26.7000 C   0  0  0  0  0  0  0  0  0  0  0  0
    8.1853  -11.8393   26.8040 C   0  0  0  0  0  0  0  0  0  0  0  0
    8.3814  -13.1835   26.5042 C   0  0  0  0  0  0  0  0  0  0  0  0
    9.4807  -16.9482   26.1673 C   0  0  0  0  0  0  0  0  0  0  0  0
    9.6261  -18.1609   25.5169 O   0  0  0  0  0  0  0  0  0  0  0  0
    9.8161  -16.9396   27.3968 O   0  0  0  0  0  0  0  0  0  0  0  0
  1  2  1  0
  3  2  1  0
  4  3  2  0
  5  6  1  0
  6  7  2  0
  8  9  1  0
  8  6  1  0
 10  9  1  6
 10 11  1  0
 10 12  1  0
 11  3  1  0
 12 13  2  0
 12 14  1  0
 14 15  1  0
 15 16  1  6
 15 23  1  0
 16 17  1  0
 17 22  2  0
 18 19  2  0
 18 17  1  0
 19 20  1  0
 20 21  2  0
 22 21  1  0
 23 24  1  0
 25 23  2  0
M  END
$$$$
