GQF.pdb
     RDKit          3D

 25 25  0  0  1  0  0  0  0  0999 V2000
    7.7896  -20.4832   20.9052 N   0  0  0  0  0  0  0  0  0  0  0  0
    7.2723  -19.2584   21.4534 C   0  0  0  0  0  0  0  0  0  0  0  0
    8.2914  -18.1538   21.3613 C   0  0  0  0  0  0  0  0  0  0  0  0
    9.5106  -18.4352   21.1677 O   0  0  0  0  0  0  0  0  0  0  0  0
    8.3802  -11.9383   19.0471 N   0  0  0  0  0  0  0  0  0  0  0  0
    7.7270  -13.1841   19.0587 C   0  0  0  0  0  0  0  0  0  0  0  0
    6.5352  -13.3135   18.6505 O   0  0  0  0  0  0  0  0  0  0  0  0
    8.4830  -14.3603   19.5697 C   0  0  0  0  0  0  0  0  0  0  0  0
    8.2751  -14.4543   21.0628 C   0  0  0  0  0  0  0  0  0  0  0  0
    8.8852  -15.7146   21.6341 C   0  0  2  0  0  0  0  0  0  0  0  0
    7.9207  -16.7925   21.4866 N   0  0  0  0  0  0  0  0  0  0  0  0
    9.1749  -15.4408   23.0666 C   0  0  0  0  0  0  0  0  0  0  0  0
   10.1749  -14.7702   23.3762 O   0  0  0  0  0  0  0  0  0  0  0  0
    8.3057  -15.9489   24.0655 N   0  0  0  0  0  0  0  0  0  0  0  0
    8.5756  -15.8006   25.5046 C   0  0  1  0  0  0  0  0  0  0  0  0
    7.3154  -15.3443   26.2139 C   0  0  0  0  0  0  0  0  0  0  0  0
    7.1654  -13.8846   26.2916 C   0  0  0  0  0  0  0  0  0  0  0  0
    8.2733  -13.0521   26.2747 C   0  0  0  0  0  0  0  0  0  0  0  0
    8.1467  -11.6784   26.3381 C   0  0  0  0  0  0  0  0  0  0  0  0
    6.9128  -11.0806   26.4207 C   0  0  0  0  0  0  0  0  0  0  0  0
    5.8011  -11.8965   26.4385 C   0  0  0  0  0  0  0  0  0  0  0  0
    5.9331  -13.2798   26.3744 C   0  0  0  0  0  0  0  0  0  0  0  0
    9.1887  -16.9978   26.0683 C   0  0  0  0  0  0  0  0  0  0  0  0
    9.7906  -16.9541   27.3135 O   0  0  0  0  0  0  0  0  0  0  0  0
    9.2175  -18.1294   25.4827 O   0  0  0  0  0  0  0  0  0  0  0  0
  1  2  1  0
  3  2  1  0
  4  3  2  0
  5  6  1  0
  6  7  2  0
  8  9  1  0
  8  6  1  0
 10  9  1  1
 10 11  1  0
 10 12  1  0
 11  3  1  0
 12 13  2  0
 12 14  1  0
 14 15  1  0
 15 16  1  1
 15 23  1  0
 16 17  1  0
 17 22  2  0
 18 19  2  0
 18 17  1  0
 19 20  1  0
 20 21  2  0
 22 21  1  0
 23 24  1  0
 25 23  2  0
M  END
$$$$
