GQF.pdb
     RDKit          3D

 25 25  0  0  1  0  0  0  0  0999 V2000
   13.9789  -16.7646   20.8314 N   0  0  0  0  0  0  0  0  0  0  0  0
   12.6371  -17.2759   20.9104 C   0  0  0  0  0  0  0  0  0  0  0  0
   11.7698  -16.3852   21.7600 C   0  0  0  0  0  0  0  0  0  0  0  0
   12.2811  -15.7370   22.7200 O   0  0  0  0  0  0  0  0  0  0  0  0
    6.6643  -12.7560   19.7087 N   0  0  0  0  0  0  0  0  0  0  0  0
    7.3877  -13.9543   19.5688 C   0  0  0  0  0  0  0  0  0  0  0  0
    7.0277  -14.8570   18.7570 O   0  0  0  0  0  0  0  0  0  0  0  0
    8.6021  -14.1351   20.4106 C   0  0  0  0  0  0  0  0  0  0  0  0
    8.2742  -15.0965   21.5284 C   0  0  0  0  0  0  0  0  0  0  0  0
    9.4995  -15.4460   22.3430 C   0  0  2  0  0  0  0  0  0  0  0  0
   10.3816  -16.2501   21.5130 N   0  0  0  0  0  0  0  0  0  0  0  0
    9.0250  -16.2108   23.5266 C   0  0  0  0  0  0  0  0  0  0  0  0
    8.8587  -17.4398   23.4404 O   0  0  0  0  0  0  0  0  0  0  0  0
    8.7668  -15.5283   24.7427 N   0  0  0  0  0  0  0  0  0  0  0  0
    8.3101  -16.2180   25.9599 C   0  0  1  0  0  0  0  0  0  0  0  0
    8.3088  -15.2467   27.1245 C   0  0  0  0  0  0  0  0  0  0  0  0
    7.6859  -13.9502   26.8241 C   0  0  0  0  0  0  0  0  0  0  0  0
    6.3074  -13.8070   26.8131 C   0  0  0  0  0  0  0  0  0  0  0  0
    5.7087  -12.5927   26.5412 C   0  0  0  0  0  0  0  0  0  0  0  0
    6.4587  -11.4745   26.2698 C   0  0  0  0  0  0  0  0  0  0  0  0
    7.8319  -11.6018   26.2771 C   0  0  0  0  0  0  0  0  0  0  0  0
    8.4310  -12.8269   26.5517 C   0  0  0  0  0  0  0  0  0  0  0  0
    7.0451  -16.9123   25.7484 C   0  0  0  0  0  0  0  0  0  0  0  0
    6.6230  -17.8821   26.6407 O   0  0  0  0  0  0  0  0  0  0  0  0
    6.2633  -16.6902   24.7667 O   0  0  0  0  0  0  0  0  0  0  0  0
  1  2  1  0
  3  2  1  0
  4  3  2  0
  5  6  1  0
  6  7  2  0
  8  9  1  0
  8  6  1  0
 10  9  1  6
 10 11  1  0
 10 12  1  0
 11  3  1  0
 12 13  2  0
 12 14  1  0
 14 15  1  0
 15 16  1  1
 15 23  1  0
 16 17  1  0
 17 22  2  0
 18 19  2  0
 18 17  1  0
 19 20  1  0
 20 21  2  0
 22 21  1  0
 23 24  1  0
 25 23  2  0
M  END
$$$$
