TWN.pdb
     RDKit          3D

 30 31  0  0  1  0  0  0  0  0999 V2000
   27.1914  -21.9920  -17.4394 C   0  0  0  0  0  0  0  0  0  0  0  0
   26.2756  -21.9250  -16.2367 C   0  0  1  0  0  0  0  0  0  0  0  0
   25.0677  -22.5192  -16.6772 O   0  0  0  0  0  0  0  0  0  0  0  0
   26.7425  -22.7703  -15.0833 C   0  0  2  0  0  0  0  0  0  0  0  0
   26.7749  -24.1548  -15.4740 N   0  0  0  0  0  0  0  0  0  0  0  0
   25.8968  -22.5750  -13.8600 C   0  0  0  0  0  0  0  0  0  0  0  0
   25.1865  -23.5142  -13.4134 O   0  0  0  0  0  0  0  0  0  0  0  0
   25.8639  -21.3425  -13.1673 N   0  0  0  0  0  0  0  0  0  0  0  0
   24.9274  -21.1384  -12.0742 C   0  0  1  0  0  0  0  0  0  0  0  0
   25.5323  -20.1924  -11.0879 C   0  0  0  0  0  0  0  0  0  0  0  0
   26.7618  -20.6386  -10.4349 C   0  0  0  0  0  0  0  0  0  0  0  0
   27.7811  -21.3817  -11.0472 C   0  0  0  0  0  0  0  0  0  0  0  0
   28.7492  -21.5863  -10.1506 N   0  0  0  0  0  0  0  0  0  0  0  0
   28.4189  -21.0090   -8.9588 C   0  0  0  0  0  0  0  0  0  0  0  0
   29.0817  -20.9571   -7.7478 C   0  0  0  0  0  0  0  0  0  0  0  0
   28.5333  -20.3147   -6.6642 C   0  0  0  0  0  0  0  0  0  0  0  0
   27.2974  -19.7261   -6.8399 C   0  0  0  0  0  0  0  0  0  0  0  0
   26.6410  -19.7785   -8.0463 C   0  0  0  0  0  0  0  0  0  0  0  0
   27.1914  -20.4270   -9.1468 C   0  0  0  0  0  0  0  0  0  0  0  0
   23.5671  -20.8807  -12.5219 C   0  0  0  0  0  0  0  0  0  0  0  0
   23.2756  -19.9776  -13.3787 O   0  0  0  0  0  0  0  0  0  0  0  0
   18.2464  -22.7972  -13.2623 N   0  0  0  0  0  0  0  0  0  0  0  0
   18.7753  -22.2171  -12.0763 C   0  0  0  0  0  0  0  0  0  0  0  0
   18.0511  -21.5572  -11.2778 O   0  0  0  0  0  0  0  0  0  0  0  0
   20.2087  -22.3549  -11.7177 C   0  0  0  0  0  0  0  0  0  0  0  0
   21.0721  -21.2900  -12.4575 C   0  0  2  0  0  0  0  0  0  0  0  0
   22.4049  -21.6154  -12.0670 N   0  0  0  0  0  0  0  0  0  0  0  0
   20.5713  -19.9670  -12.1617 C   0  0  0  0  0  0  0  0  0  0  0  0
   20.8857  -19.3391  -11.1365 O   0  0  0  0  0  0  0  0  0  0  0  0
   19.7006  -19.3487  -13.0441 O   0  0  0  0  0  0  0  0  0  0  0  0
  2  1  1  6
  2  3  1  0
  4  6  1  0
  4  2  1  0
  4  5  1  6
  6  7  2  0
  8  9  1  0
  8  6  1  0
  9 10  1  6
 10 11  1  0
 11 19  1  0
 12 11  2  0
 12 13  1  0
 13 14  1  0
 14 15  1  0
 15 16  2  0
 17 16  1  0
 18 17  2  0
 19 14  2  0
 19 18  1  0
 20  9  1  0
 21 20  2  0
 22 23  1  0
 23 24  2  0
 25 23  1  0
 26 27  1  0
 26 25  1  1
 27 20  1  0
 28 30  1  0
 28 26  1  0
 29 28  2  0
M  END
$$$$
