TWN.pdb
     RDKit          3D

 30 31  0  0  1  0  0  0  0  0999 V2000
   26.4949  -37.4884   -2.1717 C   0  0  0  0  0  0  0  0  0  0  0  0
   27.8006  -37.9578   -2.7756 C   0  0  1  0  0  0  0  0  0  0  0  0
   27.4781  -38.2694   -4.1191 O   0  0  0  0  0  0  0  0  0  0  0  0
   28.8448  -36.8776   -2.8527 C   0  0  2  0  0  0  0  0  0  0  0  0
   29.9192  -37.2975   -3.7130 N   0  0  0  0  0  0  0  0  0  0  0  0
   29.3589  -36.4902   -1.4980 C   0  0  0  0  0  0  0  0  0  0  0  0
   30.0294  -37.3033   -0.8086 O   0  0  0  0  0  0  0  0  0  0  0  0
   29.1141  -35.2108   -0.9474 N   0  0  0  0  0  0  0  0  0  0  0  0
   29.5156  -34.9085    0.4169 C   0  0  1  0  0  0  0  0  0  0  0  0
   29.5617  -33.4250    0.5912 C   0  0  0  0  0  0  0  0  0  0  0  0
   29.8579  -32.9417    1.9387 C   0  0  0  0  0  0  0  0  0  0  0  0
   31.1332  -32.8901    2.5193 C   0  0  0  0  0  0  0  0  0  0  0  0
   31.0165  -32.3762    3.7462 N   0  0  0  0  0  0  0  0  0  0  0  0
   29.7108  -32.0806    4.0122 C   0  0  0  0  0  0  0  0  0  0  0  0
   29.0983  -31.5490    5.1306 C   0  0  0  0  0  0  0  0  0  0  0  0
   27.7395  -31.3496    5.1697 C   0  0  0  0  0  0  0  0  0  0  0  0
   27.0184  -31.7019    4.0468 C   0  0  0  0  0  0  0  0  0  0  0  0
   27.6310  -32.2294    2.9353 C   0  0  0  0  0  0  0  0  0  0  0  0
   29.0061  -32.4332    2.8897 C   0  0  0  0  0  0  0  0  0  0  0  0
   28.8015  -35.6915    1.4141 C   0  0  0  0  0  0  0  0  0  0  0  0
   27.5675  -36.0057    1.2994 O   0  0  0  0  0  0  0  0  0  0  0  0
   27.5805  -38.8649    5.2981 N   0  0  0  0  0  0  0  0  0  0  0  0
   27.7015  -39.1942    3.9198 C   0  0  0  0  0  0  0  0  0  0  0  0
   27.3558  -40.3247    3.4726 O   0  0  0  0  0  0  0  0  0  0  0  0
   28.2445  -38.2254    2.9355 C   0  0  0  0  0  0  0  0  0  0  0  0
   28.6575  -36.8955    3.6336 C   0  0  2  0  0  0  0  0  0  0  0  0
   29.3998  -36.2100    2.6267 N   0  0  0  0  0  0  0  0  0  0  0  0
   29.3085  -37.1876    4.8904 C   0  0  0  0  0  0  0  0  0  0  0  0
   28.7130  -37.6883    5.8593 O   0  0  0  0  0  0  0  0  0  0  0  0
   30.6558  -36.9068    5.0480 O   0  0  0  0  0  0  0  0  0  0  0  0
  2  1  1  1
  2  3  1  0
  4  6  1  0
  4  2  1  0
  4  5  1  6
  6  7  2  0
  8  9  1  0
  8  6  1  0
  9 10  1  1
 10 11  1  0
 11 19  1  0
 12 11  2  0
 12 13  1  0
 13 14  1  0
 14 15  1  0
 15 16  2  0
 17 16  1  0
 18 17  2  0
 19 14  2  0
 19 18  1  0
 20  9  1  0
 21 20  2  0
 22 23  1  0
 23 24  2  0
 25 23  1  0
 26 27  1  0
 26 25  1  6
 27 20  1  0
 28 30  1  0
 28 26  1  0
 29 28  2  0
M  END
$$$$
