TWN.pdb
     RDKit          3D

 30 31  0  0  1  0  0  0  0  0999 V2000
   27.6945  -22.7225  -15.9227 C   0  0  0  0  0  0  0  0  0  0  0  0
   28.3332  -21.5685  -15.1810 C   0  0  1  0  0  0  0  0  0  0  0  0
   29.1733  -20.9519  -16.1403 O   0  0  0  0  0  0  0  0  0  0  0  0
   27.3498  -20.5081  -14.7667 C   0  0  2  0  0  0  0  0  0  0  0  0
   28.0548  -19.3436  -14.3002 N   0  0  0  0  0  0  0  0  0  0  0  0
   26.3849  -21.0049  -13.7313 C   0  0  0  0  0  0  0  0  0  0  0  0
   25.7668  -22.0895  -13.8971 O   0  0  0  0  0  0  0  0  0  0  0  0
   26.1339  -20.2832  -12.5413 N   0  0  0  0  0  0  0  0  0  0  0  0
   25.1312  -20.7486  -11.5969 C   0  0  1  0  0  0  0  0  0  0  0  0
   25.5002  -20.2786  -10.2272 C   0  0  0  0  0  0  0  0  0  0  0  0
   26.7841  -20.7465   -9.7076 C   0  0  0  0  0  0  0  0  0  0  0  0
   27.6175  -21.6856  -10.3318 C   0  0  0  0  0  0  0  0  0  0  0  0
   28.7069  -21.8487   -9.5770 N   0  0  0  0  0  0  0  0  0  0  0  0
   28.6370  -21.0549   -8.4689 C   0  0  0  0  0  0  0  0  0  0  0  0
   29.5023  -20.8824   -7.4059 C   0  0  0  0  0  0  0  0  0  0  0  0
   29.2047  -20.0181   -6.3802 C   0  0  0  0  0  0  0  0  0  0  0  0
   28.0092  -19.3333   -6.4601 C   0  0  0  0  0  0  0  0  0  0  0  0
   27.1510  -19.5062   -7.5197 C   0  0  0  0  0  0  0  0  0  0  0  0
   27.4469  -20.3794   -8.5611 C   0  0  0  0  0  0  0  0  0  0  0  0
   23.7664  -20.5270  -12.0505 C   0  0  0  0  0  0  0  0  0  0  0  0
   23.3439  -19.3909  -12.4570 O   0  0  0  0  0  0  0  0  0  0  0  0
   21.6584  -21.5197  -15.2111 N   0  0  0  0  0  0  0  0  0  0  0  0
   21.1041  -22.6395  -14.5316 C   0  0  0  0  0  0  0  0  0  0  0  0
   20.7602  -23.6884  -15.1472 O   0  0  0  0  0  0  0  0  0  0  0  0
   20.8981  -22.6310  -13.0620 C   0  0  0  0  0  0  0  0  0  0  0  0
   21.3865  -21.2891  -12.4395 C   0  0  2  0  0  0  0  0  0  0  0  0
   22.7478  -21.5549  -12.1067 N   0  0  0  0  0  0  0  0  0  0  0  0
   20.4854  -20.8864  -11.3838 C   0  0  0  0  0  0  0  0  0  0  0  0
   20.7291  -21.0729  -10.1797 O   0  0  0  0  0  0  0  0  0  0  0  0
   19.2902  -20.2622  -11.7014 O   0  0  0  0  0  0  0  0  0  0  0  0
  2  1  1  6
  2  3  1  0
  4  6  1  0
  4  2  1  0
  4  5  1  1
  6  7  2  0
  8  9  1  0
  8  6  1  0
  9 10  1  1
 10 11  1  0
 11 19  1  0
 12 11  2  0
 12 13  1  0
 13 14  1  0
 14 15  1  0
 15 16  2  0
 17 16  1  0
 18 17  2  0
 19 14  2  0
 19 18  1  0
 20  9  1  0
 21 20  2  0
 22 23  1  0
 23 24  2  0
 25 23  1  0
 26 27  1  0
 26 25  1  1
 27 20  1  0
 28 30  1  0
 28 26  1  0
 29 28  2  0
M  END
$$$$
