TWN.pdb
     RDKit          3D

 30 31  0  0  1  0  0  0  0  0999 V2000
   27.7974  -18.3391  -14.3230 C   0  0  0  0  0  0  0  0  0  0  0  0
   27.8240  -19.5978  -15.1625 C   0  0  1  0  0  0  0  0  0  0  0  0
   28.7786  -19.3293  -16.1739 O   0  0  0  0  0  0  0  0  0  0  0  0
   28.3489  -20.7977  -14.4223 C   0  0  2  0  0  0  0  0  0  0  0  0
   28.4056  -21.9311  -15.3072 N   0  0  0  0  0  0  0  0  0  0  0  0
   27.5368  -21.1082  -13.2001 C   0  0  0  0  0  0  0  0  0  0  0  0
   26.4143  -21.6702  -13.3003 O   0  0  0  0  0  0  0  0  0  0  0  0
   27.9943  -20.7858  -11.9013 N   0  0  0  0  0  0  0  0  0  0  0  0
   27.1269  -20.9710  -10.7494 C   0  0  1  0  0  0  0  0  0  0  0  0
   27.9428  -20.8477   -9.5034 C   0  0  0  0  0  0  0  0  0  0  0  0
   27.1985  -20.6531   -8.2603 C   0  0  0  0  0  0  0  0  0  0  0  0
   25.8389  -20.9420   -8.0758 C   0  0  0  0  0  0  0  0  0  0  0  0
   25.5155  -20.6551   -6.8125 N   0  0  0  0  0  0  0  0  0  0  0  0
   26.6064  -20.1842   -6.1409 C   0  0  0  0  0  0  0  0  0  0  0  0
   26.7684  -19.7539   -4.8381 C   0  0  0  0  0  0  0  0  0  0  0  0
   27.9845  -19.3034   -4.3845 C   0  0  0  0  0  0  0  0  0  0  0  0
   29.0311  -19.3009   -5.2841 C   0  0  0  0  0  0  0  0  0  0  0  0
   28.8668  -19.7307   -6.5793 C   0  0  0  0  0  0  0  0  0  0  0  0
   27.6384  -20.1882   -7.0441 C   0  0  0  0  0  0  0  0  0  0  0  0
   25.8887  -20.2112  -10.8329 C   0  0  0  0  0  0  0  0  0  0  0  0
   25.8581  -18.9521  -11.0523 O   0  0  0  0  0  0  0  0  0  0  0  0
   21.8307  -21.6714  -12.9912 N   0  0  0  0  0  0  0  0  0  0  0  0
   22.8421  -20.8541  -13.5675 C   0  0  0  0  0  0  0  0  0  0  0  0
   23.0423  -20.8231  -14.8151 O   0  0  0  0  0  0  0  0  0  0  0  0
   23.7177  -19.9972  -12.7302 C   0  0  0  0  0  0  0  0  0  0  0  0
   23.3893  -20.1758  -11.2180 C   0  0  2  0  0  0  0  0  0  0  0  0
   24.5669  -20.7865  -10.6936 N   0  0  0  0  0  0  0  0  0  0  0  0
   22.1301  -20.8700  -11.0724 C   0  0  0  0  0  0  0  0  0  0  0  0
   22.0506  -22.0567  -10.7123 O   0  0  0  0  0  0  0  0  0  0  0  0
   20.9443  -20.2057  -11.3397 O   0  0  0  0  0  0  0  0  0  0  0  0
  2  1  1  1
  2  3  1  0
  4  6  1  0
  4  2  1  0
  4  5  1  6
  6  7  2  0
  8  9  1  0
  8  6  1  0
  9 10  1  1
 10 11  1  0
 11 19  1  0
 12 11  2  0
 12 13  1  0
 13 14  1  0
 14 15  1  0
 15 16  2  0
 17 16  1  0
 18 17  2  0
 19 14  2  0
 19 18  1  0
 20  9  1  0
 21 20  2  0
 22 23  1  0
 23 24  2  0
 25 23  1  0
 26 27  1  0
 26 25  1  6
 27 20  1  0
 28 30  1  0
 28 26  1  0
 29 28  2  0
M  END
$$$$
