MSD.pdb
     RDKit          3D

 23 22  0  0  1  0  0  0  0  0999 V2000
    7.1090  -11.4229   20.2102 C   0  0  0  0  0  0  0  0  0  0  0  0
    7.4067  -12.5533   18.8127 S   0  0  0  0  0  0  0  0  0  0  0  0
    7.3117  -14.2334   19.4463 C   0  0  0  0  0  0  0  0  0  0  0  0
    7.2255  -14.3001   20.9489 C   0  0  0  0  0  0  0  0  0  0  0  0
    7.2504  -15.7862   21.3092 C   0  0  2  0  0  0  0  0  0  0  0  0
    6.0860  -16.4144   20.7021 N   0  0  0  0  0  0  0  0  0  0  0  0
    7.2610  -15.9865   22.7830 C   0  0  0  0  0  0  0  0  0  0  0  0
    6.9879  -14.9870   23.4970 O   0  0  0  0  0  0  0  0  0  0  0  0
    6.4961  -19.3220   24.6876 O   0  0  0  0  0  0  0  0  0  0  0  0
    6.7725  -18.1867   25.4543 C   0  0  0  0  0  0  0  0  0  0  0  0
    7.8846  -17.4275   24.7356 C   0  0  2  0  0  0  0  0  0  0  0  0
    7.5692  -17.2590   23.3327 N   0  0  0  0  0  0  0  0  0  0  0  0
    9.1343  -18.2137   24.9213 C   0  0  0  0  0  0  0  0  0  0  0  0
    9.3681  -19.1716   24.1419 O   0  0  0  0  0  0  0  0  0  0  0  0
   10.0750  -17.9376   25.9322 N   0  0  0  0  0  0  0  0  0  0  0  0
   11.2361  -18.8263   26.2077 C   0  0  1  0  0  0  0  0  0  0  0  0
   12.4931  -17.9856   26.2055 C   0  0  0  0  0  0  0  0  0  0  0  0
   12.8251  -17.5781   24.8460 C   0  0  0  0  0  0  0  0  0  0  0  0
   13.6823  -16.7104   24.6168 O   0  0  0  0  0  0  0  0  0  0  0  0
   10.9216  -19.4219   27.5187 C   0  0  0  0  0  0  0  0  0  0  0  0
   11.6188  -20.4811   28.0425 O   0  0  0  0  0  0  0  0  0  0  0  0
   12.1767  -18.1637   23.7668 O   0  0  0  0  0  0  0  0  0  0  0  0
    9.9832  -18.9639   28.2074 O   0  0  0  0  0  0  0  0  0  0  0  0
  1  2  1  0
  2  3  1  0
  4  5  1  0
  4  3  1  0
  5  6  1  1
  5  7  1  0
  7  8  2  0
 11 10  1  1
 10  9  1  0
 12  7  1  0
 12 11  1  0
 13 11  1  0
 13 15  1  0
 14 13  2  0
 16 15  1  0
 16 17  1  1
 17 18  1  0
 18 19  2  0
 18 22  1  0
 20 21  1  0
 20 16  1  0
 23 20  2  0
M  END
$$$$
