MSD.pdb
     RDKit          3D

 23 22  0  0  1  0  0  0  0  0999 V2000
    4.0492  -18.3751   22.0815 C   0  0  0  0  0  0  0  0  0  0  0  0
    4.2357  -17.8684   20.3413 S   0  0  0  0  0  0  0  0  0  0  0  0
    5.2425  -16.3789   20.3166 C   0  0  0  0  0  0  0  0  0  0  0  0
    6.0824  -16.2061   21.5554 C   0  0  0  0  0  0  0  0  0  0  0  0
    6.6820  -14.8019   21.4683 C   0  0  2  0  0  0  0  0  0  0  0  0
    7.2453  -14.6365   20.1362 N   0  0  0  0  0  0  0  0  0  0  0  0
    7.7139  -14.5871   22.5178 C   0  0  0  0  0  0  0  0  0  0  0  0
    8.9149  -14.7480   22.1790 O   0  0  0  0  0  0  0  0  0  0  0  0
    6.3541  -13.9101   26.2209 O   0  0  0  0  0  0  0  0  0  0  0  0
    7.6821  -13.4818   26.1441 C   0  0  0  0  0  0  0  0  0  0  0  0
    8.2930  -14.1519   24.9165 C   0  0  2  0  0  0  0  0  0  0  0  0
    7.3327  -14.2178   23.8349 N   0  0  0  0  0  0  0  0  0  0  0  0
    8.7307  -15.5101   25.3384 C   0  0  0  0  0  0  0  0  0  0  0  0
    7.9271  -16.4691   25.2194 O   0  0  0  0  0  0  0  0  0  0  0  0
   10.0079  -15.7780   25.8677 N   0  0  0  0  0  0  0  0  0  0  0  0
   10.4373  -17.1460   26.2652 C   0  0  1  0  0  0  0  0  0  0  0  0
   11.9221  -17.2747   26.0086 C   0  0  0  0  0  0  0  0  0  0  0  0
   12.1598  -17.7602   24.6550 C   0  0  0  0  0  0  0  0  0  0  0  0
   13.2741  -18.1733   24.2972 O   0  0  0  0  0  0  0  0  0  0  0  0
   10.0708  -17.2310   27.6903 C   0  0  0  0  0  0  0  0  0  0  0  0
   10.0144  -16.1338   28.5120 O   0  0  0  0  0  0  0  0  0  0  0  0
   11.1263  -17.7685   23.7278 O   0  0  0  0  0  0  0  0  0  0  0  0
    9.7941  -18.3382   28.2023 O   0  0  0  0  0  0  0  0  0  0  0  0
  1  2  1  0
  2  3  1  0
  4  5  1  0
  4  3  1  0
  5  6  1  6
  5  7  1  0
  7  8  2  0
 11 10  1  1
 10  9  1  0
 12  7  1  0
 12 11  1  0
 13 11  1  0
 13 15  1  0
 14 13  2  0
 16 15  1  0
 16 17  1  1
 17 18  1  0
 18 19  2  0
 18 22  1  0
 20 21  1  0
 20 16  1  0
 23 20  2  0
M  END
$$$$
