MSD.pdb
     RDKit          3D

 23 22  0  0  1  0  0  0  0  0999 V2000
    7.7692  -11.6400   20.2740 C   0  0  0  0  0  0  0  0  0  0  0  0
    8.2719  -12.5063   18.7521 S   0  0  0  0  0  0  0  0  0  0  0  0
    7.3135  -14.0243   18.6521 C   0  0  0  0  0  0  0  0  0  0  0  0
    7.4715  -14.9101   19.8605 C   0  0  0  0  0  0  0  0  0  0  0  0
    8.1939  -16.1669   19.3730 C   0  0  2  0  0  0  0  0  0  0  0  0
    7.2273  -16.9940   18.6656 N   0  0  0  0  0  0  0  0  0  0  0  0
    8.8107  -16.9105   20.5039 C   0  0  0  0  0  0  0  0  0  0  0  0
    8.0991  -17.0877   21.5265 O   0  0  0  0  0  0  0  0  0  0  0  0
   11.4004  -19.6916   19.9139 O   0  0  0  0  0  0  0  0  0  0  0  0
   10.9084  -19.5692   21.2162 C   0  0  0  0  0  0  0  0  0  0  0  0
   10.7899  -18.0754   21.5059 C   0  0  2  0  0  0  0  0  0  0  0  0
   10.1446  -17.3878   20.4073 N   0  0  0  0  0  0  0  0  0  0  0  0
   12.1708  -17.5677   21.7290 C   0  0  0  0  0  0  0  0  0  0  0  0
   12.7704  -17.0067   20.7775 O   0  0  0  0  0  0  0  0  0  0  0  0
   12.8449  -17.6842   22.9599 N   0  0  0  0  0  0  0  0  0  0  0  0
   14.2508  -17.2346   23.1468 C   0  0  1  0  0  0  0  0  0  0  0  0
   14.3458  -15.7805   22.7423 C   0  0  0  0  0  0  0  0  0  0  0  0
   15.3597  -15.6096   21.7092 C   0  0  0  0  0  0  0  0  0  0  0  0
   15.9668  -16.5780   21.2254 O   0  0  0  0  0  0  0  0  0  0  0  0
   14.5100  -17.4714   24.5783 C   0  0  0  0  0  0  0  0  0  0  0  0
   15.7737  -17.6115   25.0936 O   0  0  0  0  0  0  0  0  0  0  0  0
   15.6686  -14.3392   21.2417 O   0  0  0  0  0  0  0  0  0  0  0  0
   13.5564  -17.5537   25.3836 O   0  0  0  0  0  0  0  0  0  0  0  0
  1  2  1  0
  2  3  1  0
  4  5  1  0
  4  3  1  0
  5  6  1  1
  5  7  1  0
  7  8  2  0
 11 10  1  6
 10  9  1  0
 12  7  1  0
 12 11  1  0
 13 11  1  0
 13 15  1  0
 14 13  2  0
 16 15  1  0
 16 17  1  1
 17 18  1  0
 18 19  2  0
 18 22  1  0
 20 21  1  0
 20 16  1  0
 23 20  2  0
M  END
$$$$
