MSD.pdb
     RDKit          3D

 23 22  0  0  1  0  0  0  0  0999 V2000
    8.4830  -11.5118   19.8086 C   0  0  0  0  0  0  0  0  0  0  0  0
    7.2818  -12.6555   19.0547 S   0  0  0  0  0  0  0  0  0  0  0  0
    7.6777  -14.3123   19.6303 C   0  0  0  0  0  0  0  0  0  0  0  0
    9.1464  -14.6376   19.5467 C   0  0  0  0  0  0  0  0  0  0  0  0
    9.3043  -16.0389   20.1387 C   0  0  2  0  0  0  0  0  0  0  0  0
    7.9855  -16.6523   20.1973 N   0  0  0  0  0  0  0  0  0  0  0  0
    9.9339  -15.9905   21.4854 C   0  0  0  0  0  0  0  0  0  0  0  0
   11.1758  -15.7926   21.5282 O   0  0  0  0  0  0  0  0  0  0  0  0
    7.6193  -16.7766   24.7692 O   0  0  0  0  0  0  0  0  0  0  0  0
    8.6313  -15.8479   25.0269 C   0  0  0  0  0  0  0  0  0  0  0  0
    9.7184  -16.0763   23.9803 C   0  0  2  0  0  0  0  0  0  0  0  0
    9.1453  -16.1633   22.6536 N   0  0  0  0  0  0  0  0  0  0  0  0
   10.4197  -17.3347   24.3532 C   0  0  0  0  0  0  0  0  0  0  0  0
   10.0705  -18.4085   23.8012 O   0  0  0  0  0  0  0  0  0  0  0  0
   11.4618  -17.3846   25.2990 N   0  0  0  0  0  0  0  0  0  0  0  0
   12.1558  -18.6509   25.6573 C   0  0  1  0  0  0  0  0  0  0  0  0
   13.6409  -18.3768   25.7363 C   0  0  0  0  0  0  0  0  0  0  0  0
   14.3942  -19.5640   25.3523 C   0  0  0  0  0  0  0  0  0  0  0  0
   14.5641  -20.5101   26.1374 O   0  0  0  0  0  0  0  0  0  0  0  0
   11.5522  -19.0317   26.9470 C   0  0  0  0  0  0  0  0  0  0  0  0
   11.1341  -20.3082   27.2261 O   0  0  0  0  0  0  0  0  0  0  0  0
   14.9435  -19.6577   24.0805 O   0  0  0  0  0  0  0  0  0  0  0  0
   11.4009  -18.1756   27.8463 O   0  0  0  0  0  0  0  0  0  0  0  0
  1  2  1  0
  2  3  1  0
  4  5  1  0
  4  3  1  0
  5  6  1  1
  5  7  1  0
  7  8  2  0
 11 10  1  1
 10  9  1  0
 12  7  1  0
 12 11  1  0
 13 11  1  0
 13 15  1  0
 14 13  2  0
 16 15  1  0
 16 17  1  1
 17 18  1  0
 18 19  2  0
 18 22  1  0
 20 21  1  0
 20 16  1  0
 23 20  2  0
M  END
$$$$
