MSD.pdb
     RDKit          3D

 23 22  0  0  1  0  0  0  0  0999 V2000
    8.3906  -12.0178   21.0504 C   0  0  0  0  0  0  0  0  0  0  0  0
    7.3810  -12.2420   19.5505 S   0  0  0  0  0  0  0  0  0  0  0  0
    8.0895  -13.6083   18.6208 C   0  0  0  0  0  0  0  0  0  0  0  0
    8.5080  -14.7666   19.4887 C   0  0  0  0  0  0  0  0  0  0  0  0
    9.1621  -15.7832   18.5519 C   0  0  2  0  0  0  0  0  0  0  0  0
    8.1440  -16.2616   17.6279 N   0  0  0  0  0  0  0  0  0  0  0  0
    9.7684  -16.9088   19.3120 C   0  0  0  0  0  0  0  0  0  0  0  0
    9.0449  -17.9189   19.5106 O   0  0  0  0  0  0  0  0  0  0  0  0
   13.3687  -17.8277   18.8987 O   0  0  0  0  0  0  0  0  0  0  0  0
   12.6520  -18.7180   19.7030 C   0  0  0  0  0  0  0  0  0  0  0  0
   11.7111  -17.8784   20.5627 C   0  0  2  0  0  0  0  0  0  0  0  0
   11.1059  -16.8207   19.7810 N   0  0  0  0  0  0  0  0  0  0  0  0
   12.5229  -17.3302   21.6829 C   0  0  0  0  0  0  0  0  0  0  0  0
   12.9639  -16.1567   21.5929 O   0  0  0  0  0  0  0  0  0  0  0  0
   12.8243  -18.0636   22.8467 N   0  0  0  0  0  0  0  0  0  0  0  0
   13.6214  -17.4937   23.9663 C   0  0  1  0  0  0  0  0  0  0  0  0
   13.5014  -18.4175   25.1576 C   0  0  0  0  0  0  0  0  0  0  0  0
   12.2375  -18.1901   25.8470 C   0  0  0  0  0  0  0  0  0  0  0  0
   11.4842  -17.2545   25.5349 O   0  0  0  0  0  0  0  0  0  0  0  0
   14.9867  -17.4046   23.4183 C   0  0  0  0  0  0  0  0  0  0  0  0
   15.8617  -16.4037   23.7567 O   0  0  0  0  0  0  0  0  0  0  0  0
   11.8490  -19.0305   26.8818 O   0  0  0  0  0  0  0  0  0  0  0  0
   15.3945  -18.2644   22.6064 O   0  0  0  0  0  0  0  0  0  0  0  0
  1  2  1  0
  2  3  1  0
  4  5  1  0
  4  3  1  0
  5  6  1  6
  5  7  1  0
  7  8  2  0
 11 10  1  6
 10  9  1  0
 12  7  1  0
 12 11  1  0
 13 11  1  0
 13 15  1  0
 14 13  2  0
 16 15  1  0
 16 17  1  1
 17 18  1  0
 18 19  2  0
 18 22  1  0
 20 21  1  0
 20 16  1  0
 23 20  2  0
M  END
$$$$
