MSD.pdb
     RDKit          3D

 23 22  0  0  1  0  0  0  0  0999 V2000
    7.6796  -12.5108   27.7187 C   0  0  0  0  0  0  0  0  0  0  0  0
    6.6139  -11.7907   26.4283 S   0  0  0  0  0  0  0  0  0  0  0  0
    6.4923  -12.9911   25.0951 C   0  0  0  0  0  0  0  0  0  0  0  0
    7.4250  -14.1627   25.2606 C   0  0  0  0  0  0  0  0  0  0  0  0
    7.2262  -15.0405   24.0242 C   0  0  2  0  0  0  0  0  0  0  0  0
    5.8474  -15.5073   24.0225 N   0  0  0  0  0  0  0  0  0  0  0  0
    8.1794  -16.1823   24.0112 C   0  0  0  0  0  0  0  0  0  0  0  0
    7.8846  -17.1802   24.7186 O   0  0  0  0  0  0  0  0  0  0  0  0
   11.9710  -15.7417   22.3644 O   0  0  0  0  0  0  0  0  0  0  0  0
   11.3776  -16.9867   22.1385 C   0  0  0  0  0  0  0  0  0  0  0  0
   10.3404  -17.1888   23.2398 C   0  0  2  0  0  0  0  0  0  0  0  0
    9.3615  -16.1222   23.2267 N   0  0  0  0  0  0  0  0  0  0  0  0
   11.0818  -17.2304   24.5293 C   0  0  0  0  0  0  0  0  0  0  0  0
   11.2277  -16.1639   25.1783 O   0  0  0  0  0  0  0  0  0  0  0  0
   11.6320  -18.4114   25.0638 N   0  0  0  0  0  0  0  0  0  0  0  0
   12.3817  -18.4335   26.3487 C   0  0  1  0  0  0  0  0  0  0  0  0
   12.0370  -19.7106   27.0818 C   0  0  0  0  0  0  0  0  0  0  0  0
   11.1990  -19.4180   28.2379 C   0  0  0  0  0  0  0  0  0  0  0  0
   11.4267  -18.4491   28.9793 O   0  0  0  0  0  0  0  0  0  0  0  0
   13.7939  -18.3483   25.9352 C   0  0  0  0  0  0  0  0  0  0  0  0
   14.1855  -18.3291   24.6205 O   0  0  0  0  0  0  0  0  0  0  0  0
   10.1139  -20.2322   28.5340 O   0  0  0  0  0  0  0  0  0  0  0  0
   14.6980  -18.2900   26.7976 O   0  0  0  0  0  0  0  0  0  0  0  0
  1  2  1  0
  2  3  1  0
  4  5  1  0
  4  3  1  0
  5  6  1  1
  5  7  1  0
  7  8  2  0
 11 10  1  6
 10  9  1  0
 12  7  1  0
 12 11  1  0
 13 11  1  0
 13 15  1  0
 14 13  2  0
 16 15  1  0
 16 17  1  6
 17 18  1  0
 18 19  2  0
 18 22  1  0
 20 21  1  0
 20 16  1  0
 23 20  2  0
M  END
$$$$
