MSD.pdb
     RDKit          3D

 23 22  0  0  1  0  0  0  0  0999 V2000
    8.0226  -11.4724   20.4038 C   0  0  0  0  0  0  0  0  0  0  0  0
    7.9795  -12.8489   19.2111 S   0  0  0  0  0  0  0  0  0  0  0  0
    8.5904  -14.3147   20.0545 C   0  0  0  0  0  0  0  0  0  0  0  0
    7.8067  -14.6597   21.2941 C   0  0  0  0  0  0  0  0  0  0  0  0
    7.5883  -16.1727   21.2499 C   0  0  2  0  0  0  0  0  0  0  0  0
    6.1604  -16.4238   21.3812 N   0  0  0  0  0  0  0  0  0  0  0  0
    8.3552  -16.8626   22.3215 C   0  0  0  0  0  0  0  0  0  0  0  0
    7.8525  -16.8606   23.4750 O   0  0  0  0  0  0  0  0  0  0  0  0
   10.1920  -20.0727   21.6667 O   0  0  0  0  0  0  0  0  0  0  0  0
   10.0880  -19.6786   23.0035 C   0  0  0  0  0  0  0  0  0  0  0  0
   10.3616  -18.1776   23.0449 C   0  0  2  0  0  0  0  0  0  0  0  0
    9.5964  -17.4869   22.0282 N   0  0  0  0  0  0  0  0  0  0  0  0
   11.8245  -17.9992   22.8393 C   0  0  0  0  0  0  0  0  0  0  0  0
   12.3355  -18.3871   21.7585 O   0  0  0  0  0  0  0  0  0  0  0  0
   12.6717  -17.4138   23.7999 N   0  0  0  0  0  0  0  0  0  0  0  0
   14.1505  -17.3719   23.6417 C   0  0  1  0  0  0  0  0  0  0  0  0
   14.5648  -15.9384   23.3956 C   0  0  0  0  0  0  0  0  0  0  0  0
   14.8424  -15.7295   21.9801 C   0  0  0  0  0  0  0  0  0  0  0  0
   14.7130  -16.6422   21.1491 O   0  0  0  0  0  0  0  0  0  0  0  0
   14.6572  -17.9278   24.9092 C   0  0  0  0  0  0  0  0  0  0  0  0
   15.9335  -18.4098   25.0541 O   0  0  0  0  0  0  0  0  0  0  0  0
   15.2635  -14.4851   21.5304 O   0  0  0  0  0  0  0  0  0  0  0  0
   13.9147  -17.9763   25.9146 O   0  0  0  0  0  0  0  0  0  0  0  0
  1  2  1  0
  2  3  1  0
  4  5  1  0
  4  3  1  0
  5  6  1  1
  5  7  1  0
  7  8  2  0
 11 10  1  6
 10  9  1  0
 12  7  1  0
 12 11  1  0
 13 11  1  0
 13 15  1  0
 14 13  2  0
 16 15  1  0
 16 17  1  1
 17 18  1  0
 18 19  2  0
 18 22  1  0
 20 21  1  0
 20 16  1  0
 23 20  2  0
M  END
$$$$
