MSD.pdb
     RDKit          3D

 23 22  0  0  1  0  0  0  0  0999 V2000
    7.0631  -12.1099   27.7796 C   0  0  0  0  0  0  0  0  0  0  0  0
    7.3086  -11.5092   26.0771 S   0  0  0  0  0  0  0  0  0  0  0  0
    6.2771  -12.5099   24.9965 C   0  0  0  0  0  0  0  0  0  0  0  0
    6.6859  -13.9594   24.9562 C   0  0  0  0  0  0  0  0  0  0  0  0
    8.0350  -13.9993   24.2370 C   0  0  2  0  0  0  0  0  0  0  0  0
    7.8318  -13.5251   22.8758 N   0  0  0  0  0  0  0  0  0  0  0  0
    8.6143  -15.3692   24.2472 C   0  0  0  0  0  0  0  0  0  0  0  0
    8.4551  -16.0487   25.2942 O   0  0  0  0  0  0  0  0  0  0  0  0
   11.2195  -16.4711   21.3102 O   0  0  0  0  0  0  0  0  0  0  0  0
   10.3924  -17.5332   21.6854 C   0  0  0  0  0  0  0  0  0  0  0  0
    9.8533  -17.2047   23.0750 C   0  0  2  0  0  0  0  0  0  0  0  0
    9.3111  -15.8628   23.1126 N   0  0  0  0  0  0  0  0  0  0  0  0
   10.9871  -17.3599   24.0262 C   0  0  0  0  0  0  0  0  0  0  0  0
   11.6303  -16.3373   24.3731 O   0  0  0  0  0  0  0  0  0  0  0  0
   11.3791  -18.6020   24.5615 N   0  0  0  0  0  0  0  0  0  0  0  0
   12.4990  -18.7365   25.5317 C   0  0  1  0  0  0  0  0  0  0  0  0
   12.2141  -19.9190   26.4303 C   0  0  0  0  0  0  0  0  0  0  0  0
   11.3709  -19.5120   27.5473 C   0  0  0  0  0  0  0  0  0  0  0  0
   11.5902  -18.4689   28.1830 O   0  0  0  0  0  0  0  0  0  0  0  0
   13.6872  -18.9118   24.6773 C   0  0  0  0  0  0  0  0  0  0  0  0
   14.9373  -18.4799   25.0417 O   0  0  0  0  0  0  0  0  0  0  0  0
   10.2903  -20.2979   27.9251 O   0  0  0  0  0  0  0  0  0  0  0  0
   13.5832  -19.4751   23.5653 O   0  0  0  0  0  0  0  0  0  0  0  0
  1  2  1  0
  2  3  1  0
  4  5  1  0
  4  3  1  0
  5  6  1  6
  5  7  1  0
  7  8  2  0
 11 10  1  6
 10  9  1  0
 12  7  1  0
 12 11  1  0
 13 11  1  0
 13 15  1  0
 14 13  2  0
 16 15  1  0
 16 17  1  1
 17 18  1  0
 18 19  2  0
 18 22  1  0
 20 21  1  0
 20 16  1  0
 23 20  2  0
M  END
$$$$
