MSD.pdb
     RDKit          3D

 23 22  0  0  1  0  0  0  0  0999 V2000
    7.4652  -11.6007   19.5235 C   0  0  0  0  0  0  0  0  0  0  0  0
    6.9052  -12.9228   18.4020 S   0  0  0  0  0  0  0  0  0  0  0  0
    7.6908  -14.4508   18.9323 C   0  0  0  0  0  0  0  0  0  0  0  0
    8.6454  -14.2625   20.0826 C   0  0  0  0  0  0  0  0  0  0  0  0
    9.1616  -15.6577   20.4375 C   0  0  2  0  0  0  0  0  0  0  0  0
    8.0114  -16.4998   20.7328 N   0  0  0  0  0  0  0  0  0  0  0  0
   10.1021  -15.6110   21.5888 C   0  0  0  0  0  0  0  0  0  0  0  0
   11.2716  -15.2098   21.3547 O   0  0  0  0  0  0  0  0  0  0  0  0
    8.7794  -16.9141   25.2135 O   0  0  0  0  0  0  0  0  0  0  0  0
    9.6773  -15.8492   25.3268 C   0  0  0  0  0  0  0  0  0  0  0  0
   10.5134  -15.8377   24.0500 C   0  0  2  0  0  0  0  0  0  0  0  0
    9.6733  -16.0073   22.8832 N   0  0  0  0  0  0  0  0  0  0  0  0
   11.5037  -16.9418   24.1720 C   0  0  0  0  0  0  0  0  0  0  0  0
   11.2104  -18.0719   23.7066 O   0  0  0  0  0  0  0  0  0  0  0  0
   12.7611  -16.7843   24.7861 N   0  0  0  0  0  0  0  0  0  0  0  0
   13.7637  -17.8820   24.8471 C   0  0  1  0  0  0  0  0  0  0  0  0
   15.1460  -17.2701   24.8055 C   0  0  0  0  0  0  0  0  0  0  0  0
   15.3283  -16.5192   23.5696 C   0  0  0  0  0  0  0  0  0  0  0  0
   14.9485  -16.9639   22.4749 O   0  0  0  0  0  0  0  0  0  0  0  0
   13.4565  -18.5709   26.1134 C   0  0  0  0  0  0  0  0  0  0  0  0
   14.0508  -19.7509   26.4829 O   0  0  0  0  0  0  0  0  0  0  0  0
   15.9402  -15.2731   23.5970 O   0  0  0  0  0  0  0  0  0  0  0  0
   12.6212  -18.0834   26.9066 O   0  0  0  0  0  0  0  0  0  0  0  0
  1  2  1  0
  2  3  1  0
  4  5  1  0
  4  3  1  0
  5  6  1  1
  5  7  1  0
  7  8  2  0
 11 10  1  1
 10  9  1  0
 12  7  1  0
 12 11  1  0
 13 11  1  0
 13 15  1  0
 14 13  2  0
 16 15  1  0
 16 17  1  1
 17 18  1  0
 18 19  2  0
 18 22  1  0
 20 21  1  0
 20 16  1  0
 23 20  2  0
M  END
$$$$
