LWF.pdb
     RDKit          3D

 34 36  0  0  1  0  0  0  0  0999 V2000
   14.0003  -21.2436    4.2316 C   0  0  0  0  0  0  0  0  0  0  0  0
   15.3568  -21.6727    3.7436 C   0  0  2  0  0  0  0  0  0  0  0  0
   15.6458  -23.0958    4.1597 C   0  0  0  0  0  0  0  0  0  0  0  0
   16.4485  -20.7203    4.0375 C   0  0  0  0  0  0  0  0  0  0  0  0
   16.2309  -19.2798    3.7238 C   0  0  2  0  0  0  0  0  0  0  0  0
   16.3245  -18.9662    2.3141 N   0  0  0  0  0  0  0  0  0  0  0  0
   17.3334  -18.5431    4.4208 C   0  0  0  0  0  0  0  0  0  0  0  0
   18.4897  -18.5345    3.9256 O   0  0  0  0  0  0  0  0  0  0  0  0
   17.0941  -17.8632    5.6131 N   0  0  0  0  0  0  0  0  0  0  0  0
   18.1958  -17.1633    6.3261 C   0  0  1  0  0  0  0  0  0  0  0  0
   17.6965  -15.8465    6.7918 C   0  0  0  0  0  0  0  0  0  0  0  0
   18.0170  -14.6471    6.0522 C   0  0  0  0  0  0  0  0  0  0  0  0
   17.2969  -13.9538    5.0855 C   0  0  0  0  0  0  0  0  0  0  0  0
   17.9688  -12.8884    4.6659 N   0  0  0  0  0  0  0  0  0  0  0  0
   19.1158  -12.8652    5.3354 C   0  0  0  0  0  0  0  0  0  0  0  0
   20.1389  -11.9127    5.2417 C   0  0  0  0  0  0  0  0  0  0  0  0
   21.2655  -12.0135    6.0224 C   0  0  0  0  0  0  0  0  0  0  0  0
   21.3513  -13.0920    6.9050 C   0  0  0  0  0  0  0  0  0  0  0  0
   20.3232  -14.0318    6.9855 C   0  0  0  0  0  0  0  0  0  0  0  0
   19.1939  -13.9311    6.2039 C   0  0  0  0  0  0  0  0  0  0  0  0
   18.7995  -18.0536    7.3195 C   0  0  0  0  0  0  0  0  0  0  0  0
   18.0599  -18.8508    7.9970 O   0  0  0  0  0  0  0  0  0  0  0  0
   20.1801  -18.1012    7.5818 N   0  0  0  0  0  0  0  0  0  0  0  0
   20.7423  -19.0406    8.5759 C   0  0  1  0  0  0  0  0  0  0  0  0
   21.9017  -19.7285    7.8109 C   0  0  0  0  0  0  0  0  0  0  0  0
   21.3720  -20.7788    6.9186 C   0  0  0  0  0  0  0  0  0  0  0  0
   21.1271  -20.4818    5.5736 C   0  0  0  0  0  0  0  0  0  0  0  0
   20.6562  -21.4583    4.7500 C   0  0  0  0  0  0  0  0  0  0  0  0
   20.4182  -22.7304    5.2193 C   0  0  0  0  0  0  0  0  0  0  0  0
   20.6686  -23.0075    6.5640 C   0  0  0  0  0  0  0  0  0  0  0  0
   21.1451  -22.0378    7.4186 C   0  0  0  0  0  0  0  0  0  0  0  0
   21.3239  -18.3419    9.7156 C   0  0  0  0  0  0  0  0  0  0  0  0
   21.4617  -16.9704    9.6755 O   0  0  0  0  0  0  0  0  0  0  0  0
   21.7042  -18.9941   10.7399 O   0  0  0  0  0  0  0  0  0  0  0  0
  2  1  1  1
  2  3  1  0
  4  2  1  0
  5  4  1  0
  5  6  1  6
  7  9  1  0
  7  5  1  0
  8  7  2  0
 10 21  1  0
 10  9  1  0
 10 11  1  1
 12 11  1  0
 12 20  1  0
 13 12  2  0
 14 13  1  0
 14 15  1  0
 15 16  1  0
 15 20  2  0
 16 17  2  0
 17 18  1  0
 19 18  2  0
 20 19  1  0
 21 22  2  0
 23 24  1  0
 23 21  1  0
 24 25  1  6
 26 27  2  0
 26 25  1  0
 28 27  1  0
 29 28  2  0
 30 29  1  0
 30 31  2  0
 31 26  1  0
 32 24  1  0
 33 32  1  0
 34 32  2  0
M  END
$$$$
