LWF.pdb
     RDKit          3D

 34 36  0  0  1  0  0  0  0  0999 V2000
   21.9004  -20.7349  -15.2884 C   0  0  0  0  0  0  0  0  0  0  0  0
   23.3831  -20.6902  -15.5375 C   0  0  2  0  0  0  0  0  0  0  0  0
   23.7328  -21.4406  -16.8010 C   0  0  0  0  0  0  0  0  0  0  0  0
   24.2164  -21.0459  -14.3695 C   0  0  0  0  0  0  0  0  0  0  0  0
   23.8808  -20.4357  -13.0520 C   0  0  2  0  0  0  0  0  0  0  0  0
   23.9537  -18.9904  -13.0397 N   0  0  0  0  0  0  0  0  0  0  0  0
   24.9153  -20.9446  -12.0954 C   0  0  0  0  0  0  0  0  0  0  0  0
   25.1214  -22.1817  -11.9978 O   0  0  0  0  0  0  0  0  0  0  0  0
   25.6563  -20.0630  -11.3113 N   0  0  0  0  0  0  0  0  0  0  0  0
   26.6571  -20.5685  -10.3340 C   0  0  1  0  0  0  0  0  0  0  0  0
   27.9885  -20.0237  -10.6956 C   0  0  0  0  0  0  0  0  0  0  0  0
   28.8919  -20.8010  -11.5127 C   0  0  0  0  0  0  0  0  0  0  0  0
   28.9073  -21.0353  -12.8833 C   0  0  0  0  0  0  0  0  0  0  0  0
   29.9291  -21.8128  -13.2209 N   0  0  0  0  0  0  0  0  0  0  0  0
   30.5869  -22.0956  -12.1022 C   0  0  0  0  0  0  0  0  0  0  0  0
   31.7472  -22.8692  -11.9675 C   0  0  0  0  0  0  0  0  0  0  0  0
   32.3282  -23.0547  -10.7358 C   0  0  0  0  0  0  0  0  0  0  0  0
   31.7233  -22.4485   -9.6331 C   0  0  0  0  0  0  0  0  0  0  0  0
   30.5677  -21.6814   -9.7850 C   0  0  0  0  0  0  0  0  0  0  0  0
   29.9855  -21.4947  -11.0188 C   0  0  0  0  0  0  0  0  0  0  0  0
   26.1805  -20.3521   -8.9665 C   0  0  0  0  0  0  0  0  0  0  0  0
   26.5395  -19.3045   -8.3225 O   0  0  0  0  0  0  0  0  0  0  0  0
   25.3210  -21.2393   -8.2947 N   0  0  0  0  0  0  0  0  0  0  0  0
   25.4669  -21.5037   -6.8471 C   0  0  1  0  0  0  0  0  0  0  0  0
   25.5536  -20.0864   -6.2257 C   0  0  0  0  0  0  0  0  0  0  0  0
   26.8629  -19.8958   -5.5703 C   0  0  0  0  0  0  0  0  0  0  0  0
   27.1810  -20.6478   -4.4341 C   0  0  0  0  0  0  0  0  0  0  0  0
   28.3966  -20.4824   -3.8438 C   0  0  0  0  0  0  0  0  0  0  0  0
   29.3154  -19.5890   -4.3465 C   0  0  0  0  0  0  0  0  0  0  0  0
   28.9798  -18.8480   -5.4806 C   0  0  0  0  0  0  0  0  0  0  0  0
   27.7569  -18.9960   -6.0971 C   0  0  0  0  0  0  0  0  0  0  0  0
   24.2860  -22.1535   -6.2916 C   0  0  0  0  0  0  0  0  0  0  0  0
   24.3087  -22.6102   -4.9906 O   0  0  0  0  0  0  0  0  0  0  0  0
   23.2419  -22.3004   -7.0038 O   0  0  0  0  0  0  0  0  0  0  0  0
  2  1  1  1
  2  3  1  0
  4  2  1  0
  5  4  1  0
  5  6  1  6
  7  9  1  0
  7  5  1  0
  8  7  2  0
 10 21  1  0
 10  9  1  0
 10 11  1  1
 12 11  1  0
 12 20  1  0
 13 12  2  0
 14 13  1  0
 14 15  1  0
 15 16  1  0
 15 20  2  0
 16 17  2  0
 17 18  1  0
 19 18  2  0
 20 19  1  0
 21 22  2  0
 23 24  1  0
 23 21  1  0
 24 25  1  1
 26 27  2  0
 26 25  1  0
 28 27  1  0
 29 28  2  0
 30 29  1  0
 30 31  2  0
 31 26  1  0
 32 24  1  0
 33 32  1  0
 34 32  2  0
M  END
$$$$
