LWF.pdb
     RDKit          3D

 34 36  0  0  1  0  0  0  0  0999 V2000
   29.2799  -17.6797  -15.1774 C   0  0  0  0  0  0  0  0  0  0  0  0
   28.1419  -18.3883  -15.8596 C   0  0  2  0  0  0  0  0  0  0  0  0
   27.3594  -17.4280  -16.7240 C   0  0  0  0  0  0  0  0  0  0  0  0
   27.3076  -19.2193  -14.9661 C   0  0  0  0  0  0  0  0  0  0  0  0
   27.9933  -20.1058  -13.9839 C   0  0  2  0  0  0  0  0  0  0  0  0
   28.7643  -21.1688  -14.5921 N   0  0  0  0  0  0  0  0  0  0  0  0
   26.8998  -20.7461  -13.1849 C   0  0  0  0  0  0  0  0  0  0  0  0
   26.3746  -21.8153  -13.5890 O   0  0  0  0  0  0  0  0  0  0  0  0
   26.4567  -20.1727  -11.9950 N   0  0  0  0  0  0  0  0  0  0  0  0
   25.4282  -20.8482  -11.1596 C   0  0  1  0  0  0  0  0  0  0  0  0
   25.7268  -20.5793   -9.7319 C   0  0  0  0  0  0  0  0  0  0  0  0
   27.0244  -20.9094   -9.1883 C   0  0  0  0  0  0  0  0  0  0  0  0
   28.0559  -21.6876   -9.7024 C   0  0  0  0  0  0  0  0  0  0  0  0
   29.0863  -21.7230   -8.8660 N   0  0  0  0  0  0  0  0  0  0  0  0
   28.7557  -20.9850   -7.8123 C   0  0  0  0  0  0  0  0  0  0  0  0
   29.5374  -20.7142   -6.6816 C   0  0  0  0  0  0  0  0  0  0  0  0
   29.0612  -19.9078   -5.6757 C   0  0  0  0  0  0  0  0  0  0  0  0
   27.7796  -19.3734   -5.8217 C   0  0  0  0  0  0  0  0  0  0  0  0
   27.0143  -19.6535   -6.9542 C   0  0  0  0  0  0  0  0  0  0  0  0
   27.4910  -20.4609   -7.9627 C   0  0  0  0  0  0  0  0  0  0  0  0
   24.0872  -20.5218  -11.6488 C   0  0  0  0  0  0  0  0  0  0  0  0
   23.7524  -19.2983  -11.8285 O   0  0  0  0  0  0  0  0  0  0  0  0
   23.1149  -21.4909  -11.9533 N   0  0  0  0  0  0  0  0  0  0  0  0
   21.7603  -21.1061  -12.4050 C   0  0  1  0  0  0  0  0  0  0  0  0
   21.6073  -21.8406  -13.7614 C   0  0  0  0  0  0  0  0  0  0  0  0
   22.2588  -21.0669  -14.8369 C   0  0  0  0  0  0  0  0  0  0  0  0
   23.4389  -21.5477  -15.4144 C   0  0  0  0  0  0  0  0  0  0  0  0
   24.0263  -20.8405  -16.4186 C   0  0  0  0  0  0  0  0  0  0  0  0
   23.4780  -19.6626  -16.8736 C   0  0  0  0  0  0  0  0  0  0  0  0
   22.3004  -19.1991  -16.2852 C   0  0  0  0  0  0  0  0  0  0  0  0
   21.6858  -19.8952  -15.2676 C   0  0  0  0  0  0  0  0  0  0  0  0
   20.7253  -21.6143  -11.5130 C   0  0  0  0  0  0  0  0  0  0  0  0
   19.4089  -21.2638  -11.7279 O   0  0  0  0  0  0  0  0  0  0  0  0
   21.0351  -22.3744  -10.5407 O   0  0  0  0  0  0  0  0  0  0  0  0
  2  1  1  1
  2  3  1  0
  4  2  1  0
  5  4  1  0
  5  6  1  6
  7  9  1  0
  7  5  1  0
  8  7  2  0
 10 21  1  0
 10  9  1  0
 10 11  1  1
 12 11  1  0
 12 20  1  0
 13 12  2  0
 14 13  1  0
 14 15  1  0
 15 16  1  0
 15 20  2  0
 16 17  2  0
 17 18  1  0
 19 18  2  0
 20 19  1  0
 21 22  2  0
 23 24  1  0
 23 21  1  0
 24 25  1  6
 26 27  2  0
 26 25  1  0
 28 27  1  0
 29 28  2  0
 30 29  1  0
 30 31  2  0
 31 26  1  0
 32 24  1  0
 33 32  1  0
 34 32  2  0
M  END
$$$$
