LWF.pdb
     RDKit          3D

 34 36  0  0  1  0  0  0  0  0999 V2000
   30.6730  -24.3676  -15.5119 C   0  0  0  0  0  0  0  0  0  0  0  0
   29.6038  -23.6929  -16.3268 C   0  0  2  0  0  0  0  0  0  0  0  0
   30.0808  -23.4600  -17.7410 C   0  0  0  0  0  0  0  0  0  0  0  0
   28.9966  -22.5064  -15.6875 C   0  0  0  0  0  0  0  0  0  0  0  0
   27.8367  -21.8582  -16.3621 C   0  0  2  0  0  0  0  0  0  0  0  0
   28.2077  -20.8065  -17.2844 N   0  0  0  0  0  0  0  0  0  0  0  0
   27.0312  -21.2297  -15.2666 C   0  0  0  0  0  0  0  0  0  0  0  0
   27.3968  -20.1320  -14.7730 O   0  0  0  0  0  0  0  0  0  0  0  0
   25.8773  -21.8457  -14.7868 N   0  0  0  0  0  0  0  0  0  0  0  0
   25.0710  -21.2181  -13.7059 C   0  0  1  0  0  0  0  0  0  0  0  0
   23.6484  -21.5905  -13.8997 C   0  0  0  0  0  0  0  0  0  0  0  0
   22.6534  -21.1766  -12.9371 C   0  0  0  0  0  0  0  0  0  0  0  0
   22.3899  -19.9308  -12.3782 C   0  0  0  0  0  0  0  0  0  0  0  0
   21.3708  -19.9968  -11.5299 N   0  0  0  0  0  0  0  0  0  0  0  0
   20.9575  -21.2591  -11.5181 C   0  0  0  0  0  0  0  0  0  0  0  0
   19.8929  -21.8011  -10.7862 C   0  0  0  0  0  0  0  0  0  0  0  0
   19.5708  -23.1326  -10.8971 C   0  0  0  0  0  0  0  0  0  0  0  0
   20.3382  -23.9182  -11.7592 C   0  0  0  0  0  0  0  0  0  0  0  0
   21.3953  -23.3623  -12.4806 C   0  0  0  0  0  0  0  0  0  0  0  0
   21.7182  -22.0282  -12.3703 C   0  0  0  0  0  0  0  0  0  0  0  0
   25.6759  -21.4929  -12.4011 C   0  0  0  0  0  0  0  0  0  0  0  0
   26.1647  -22.6511  -12.1540 O   0  0  0  0  0  0  0  0  0  0  0  0
   25.7683  -20.5390  -11.3721 N   0  0  0  0  0  0  0  0  0  0  0  0
   26.2649  -20.9034  -10.0277 C   0  0  1  0  0  0  0  0  0  0  0  0
   27.3648  -19.8475   -9.7482 C   0  0  0  0  0  0  0  0  0  0  0  0
   27.8021  -19.9267   -8.3401 C   0  0  0  0  0  0  0  0  0  0  0  0
   28.7953  -20.8427   -7.9772 C   0  0  0  0  0  0  0  0  0  0  0  0
   29.2087  -20.8996   -6.6812 C   0  0  0  0  0  0  0  0  0  0  0  0
   28.6659  -20.0714   -5.7249 C   0  0  0  0  0  0  0  0  0  0  0  0
   27.6763  -19.1642   -6.1063 C   0  0  0  0  0  0  0  0  0  0  0  0
   27.2399  -19.0863   -7.4106 C   0  0  0  0  0  0  0  0  0  0  0  0
   25.2364  -20.7445   -9.0068 C   0  0  0  0  0  0  0  0  0  0  0  0
   24.2002  -19.8589   -9.2163 O   0  0  0  0  0  0  0  0  0  0  0  0
   25.2960  -21.4171   -7.9284 O   0  0  0  0  0  0  0  0  0  0  0  0
  2  1  1  1
  2  3  1  0
  4  2  1  0
  5  4  1  0
  5  6  1  6
  7  9  1  0
  7  5  1  0
  8  7  2  0
 10 21  1  0
 10  9  1  0
 10 11  1  1
 12 11  1  0
 12 20  1  0
 13 12  2  0
 14 13  1  0
 14 15  1  0
 15 16  1  0
 15 20  2  0
 16 17  2  0
 17 18  1  0
 19 18  2  0
 20 19  1  0
 21 22  2  0
 23 24  1  0
 23 21  1  0
 24 25  1  1
 26 27  2  0
 26 25  1  0
 28 27  1  0
 29 28  2  0
 30 29  1  0
 30 31  2  0
 31 26  1  0
 32 24  1  0
 33 32  1  0
 34 32  2  0
M  END
$$$$
