LWF.pdb
     RDKit          3D

 34 36  0  0  1  0  0  0  0  0999 V2000
   28.6902  -18.9299  -18.4644 C   0  0  0  0  0  0  0  0  0  0  0  0
   29.0623  -20.2617  -17.8725 C   0  0  2  0  0  0  0  0  0  0  0  0
   29.2312  -21.2978  -18.9588 C   0  0  0  0  0  0  0  0  0  0  0  0
   28.2099  -20.6965  -16.7458 C   0  0  0  0  0  0  0  0  0  0  0  0
   27.9377  -19.7227  -15.6511 C   0  0  2  0  0  0  0  0  0  0  0  0
   29.1294  -19.1233  -15.0899 N   0  0  0  0  0  0  0  0  0  0  0  0
   27.2781  -20.5124  -14.5622 C   0  0  0  0  0  0  0  0  0  0  0  0
   26.3780  -21.3426  -14.8499 O   0  0  0  0  0  0  0  0  0  0  0  0
   27.6509  -20.3405  -13.2309 N   0  0  0  0  0  0  0  0  0  0  0  0
   26.8627  -20.9599  -12.1322 C   0  0  1  0  0  0  0  0  0  0  0  0
   27.7037  -21.0006  -10.9111 C   0  0  0  0  0  0  0  0  0  0  0  0
   27.0946  -20.8724   -9.6071 C   0  0  0  0  0  0  0  0  0  0  0  0
   25.7866  -21.0892   -9.1877 C   0  0  0  0  0  0  0  0  0  0  0  0
   25.6598  -20.8550   -7.8871 N   0  0  0  0  0  0  0  0  0  0  0  0
   26.8560  -20.4886   -7.4409 C   0  0  0  0  0  0  0  0  0  0  0  0
   27.2123  -20.1611   -6.1261 C   0  0  0  0  0  0  0  0  0  0  0  0
   28.5066  -19.8200   -5.8138 C   0  0  0  0  0  0  0  0  0  0  0  0
   29.4450  -19.8119   -6.8476 C   0  0  0  0  0  0  0  0  0  0  0  0
   29.0731  -20.1405   -8.1516 C   0  0  0  0  0  0  0  0  0  0  0  0
   27.7767  -20.4829   -8.4651 C   0  0  0  0  0  0  0  0  0  0  0  0
   25.5480  -20.3229  -12.0335 C   0  0  0  0  0  0  0  0  0  0  0  0
   25.4623  -19.0549  -11.8716 O   0  0  0  0  0  0  0  0  0  0  0  0
   24.3351  -21.0294  -12.1166 N   0  0  0  0  0  0  0  0  0  0  0  0
   23.0358  -20.3542  -11.9094 C   0  0  1  0  0  0  0  0  0  0  0  0
   22.9371  -19.3795  -13.1105 C   0  0  0  0  0  0  0  0  0  0  0  0
   22.6500  -20.1263  -14.3514 C   0  0  0  0  0  0  0  0  0  0  0  0
   21.3224  -20.3859  -14.7084 C   0  0  0  0  0  0  0  0  0  0  0  0
   21.0615  -21.0587  -15.8628 C   0  0  0  0  0  0  0  0  0  0  0  0
   22.0816  -21.4862  -16.6825 C   0  0  0  0  0  0  0  0  0  0  0  0
   23.3994  -21.2178  -16.3097 C   0  0  0  0  0  0  0  0  0  0  0  0
   23.6909  -20.5390  -15.1469 C   0  0  0  0  0  0  0  0  0  0  0  0
   21.9179  -21.2848  -12.0080 C   0  0  0  0  0  0  0  0  0  0  0  0
   22.1551  -22.6006  -12.3457 O   0  0  0  0  0  0  0  0  0  0  0  0
   20.7306  -20.8845  -11.7863 O   0  0  0  0  0  0  0  0  0  0  0  0
  2  1  1  6
  2  3  1  0
  4  2  1  0
  5  4  1  0
  5  6  1  1
  7  9  1  0
  7  5  1  0
  8  7  2  0
 10 21  1  0
 10  9  1  0
 10 11  1  1
 12 11  1  0
 12 20  1  0
 13 12  2  0
 14 13  1  0
 14 15  1  0
 15 16  1  0
 15 20  2  0
 16 17  2  0
 17 18  1  0
 19 18  2  0
 20 19  1  0
 21 22  2  0
 23 24  1  0
 23 21  1  0
 24 25  1  6
 26 27  2  0
 26 25  1  0
 28 27  1  0
 29 28  2  0
 30 29  1  0
 30 31  2  0
 31 26  1  0
 32 24  1  0
 33 32  1  0
 34 32  2  0
M  END
$$$$
