RSS.pdb
     RDKit          3D

 24 23  0  0  1  0  0  0  0  0999 V2000
   30.3430  -20.3574  -10.4215 N   0  0  0  0  0  0  0  0  0  0  0  0
   30.2154  -21.6626  -10.9489 C   0  0  0  0  0  0  0  0  0  0  0  0
   31.0477  -22.1533  -11.8078 N   0  0  0  0  0  0  0  0  0  0  0  0
   29.1246  -22.4787  -10.5154 N   0  0  0  0  0  0  0  0  0  0  0  0
   27.7300  -22.0981  -10.6714 C   0  0  0  0  0  0  0  0  0  0  0  0
   27.4666  -20.6999  -10.2566 C   0  0  0  0  0  0  0  0  0  0  0  0
   26.8475  -19.8815  -11.3340 C   0  0  0  0  0  0  0  0  0  0  0  0
   25.3785  -20.0785  -11.4890 C   0  0  2  0  0  0  0  0  0  0  0  0
   24.8903  -21.3069  -10.9391 N   0  0  0  0  0  0  0  0  0  0  0  0
   24.9519  -20.0115  -12.9176 C   0  0  0  0  0  0  0  0  0  0  0  0
   25.3143  -19.0656  -13.6648 O   0  0  0  0  0  0  0  0  0  0  0  0
   30.8984  -23.1450  -12.0931 O   0  0  0  0  0  0  0  0  0  0  0  0
   23.2323  -22.3584  -16.7186 C   0  0  0  0  0  0  0  0  0  0  0  0
   23.6419  -22.3820  -15.3850 C   0  0  2  0  0  0  0  0  0  0  0  0
   23.6285  -20.9723  -14.8305 N   0  0  0  0  0  0  0  0  0  0  0  0
   24.1226  -21.0221  -13.4640 C   0  0  0  0  0  0  0  0  0  0  0  0
   22.2170  -20.4485  -14.7517 O   0  0  0  0  0  0  0  0  0  0  0  0
   21.4512  -20.7216  -13.7965 O   0  0  0  0  0  0  0  0  0  0  0  0
   18.9114  -17.5132  -16.7929 C   0  0  0  0  0  0  0  0  0  0  0  0
   20.1750  -18.0748  -16.8465 C   0  0  2  0  0  0  0  0  0  0  0  0
   20.3178  -19.1635  -15.7991 N   0  0  0  0  0  0  0  0  0  0  0  0
   21.6967  -19.6058  -15.7851 C   0  0  0  0  0  0  0  0  0  0  0  0
   19.4588  -20.3184  -16.1052 O   0  0  0  0  0  0  0  0  0  0  0  0
   18.1995  -20.4267  -15.5800 O   0  0  0  0  0  0  0  0  0  0  0  0
  1  2  1  0
  2  3  2  0
  2  4  1  0
  4  5  1  0
  5  6  1  0
  6  7  1  0
  7  8  1  0
  8  9  1  6
  8 10  1  0
 10 11  2  0
 10 15  1  0
 13 12  1  0
 14 13  1  6
 14 16  1  0
 15 14  1  0
 16 17  2  0
 16 21  1  0
 18 19  1  0
 20 19  1  1
 20 22  1  0
 21 20  1  0
 22 23  1  0
 24 22  2  0
M  END
$$$$
