RSS.pdb
     RDKit          3D

 24 23  0  0  1  0  0  0  0  0999 V2000
   38.0775  -11.4256   -6.2442 N   0  0  0  0  0  0  0  0  0  0  0  0
   37.8067  -10.0446   -6.1127 C   0  0  0  0  0  0  0  0  0  0  0  0
   37.0605   -9.5657   -5.1719 N   0  0  0  0  0  0  0  0  0  0  0  0
   38.3818   -9.1356   -7.0543 N   0  0  0  0  0  0  0  0  0  0  0  0
   39.7258   -9.2827   -7.5893 C   0  0  0  0  0  0  0  0  0  0  0  0
   40.7776   -8.9716   -6.5928 C   0  0  0  0  0  0  0  0  0  0  0  0
   42.1516   -9.0326   -7.1604 C   0  0  0  0  0  0  0  0  0  0  0  0
   42.7119  -10.4093   -7.2687 C   0  0  2  0  0  0  0  0  0  0  0  0
   42.6401  -11.1686   -6.0571 N   0  0  0  0  0  0  0  0  0  0  0  0
   44.1332  -10.4015   -7.7240 C   0  0  0  0  0  0  0  0  0  0  0  0
   44.4981   -9.7201   -8.7174 O   0  0  0  0  0  0  0  0  0  0  0  0
   36.9127   -8.5335   -5.1689 O   0  0  0  0  0  0  0  0  0  0  0  0
   46.6189  -13.3715   -6.4568 C   0  0  0  0  0  0  0  0  0  0  0  0
   47.2444  -12.1250   -6.5004 C   0  0  1  0  0  0  0  0  0  0  0  0
   46.4978  -11.2218   -7.4606 N   0  0  0  0  0  0  0  0  0  0  0  0
   45.1073  -11.1693   -7.0390 C   0  0  0  0  0  0  0  0  0  0  0  0
   46.4977  -11.8104   -8.8485 O   0  0  0  0  0  0  0  0  0  0  0  0
   45.8384  -12.8360   -9.1435 O   0  0  0  0  0  0  0  0  0  0  0  0
   48.3587   -9.7372  -11.9591 C   0  0  0  0  0  0  0  0  0  0  0  0
   47.3152  -10.6068  -12.2234 C   0  0  1  0  0  0  0  0  0  0  0  0
   47.3165  -11.7558  -11.2322 N   0  0  0  0  0  0  0  0  0  0  0  0
   47.2651  -11.2046   -9.8940 C   0  0  0  0  0  0  0  0  0  0  0  0
   48.5359  -12.5701  -11.3565 O   0  0  0  0  0  0  0  0  0  0  0  0
   48.8260  -13.2439  -12.5119 O   0  0  0  0  0  0  0  0  0  0  0  0
  1  2  1  0
  2  3  2  0
  2  4  1  0
  4  5  1  0
  5  6  1  0
  6  7  1  0
  7  8  1  0
  8  9  1  1
  8 10  1  0
 10 11  2  0
 10 15  1  0
 13 12  1  0
 14 13  1  1
 14 16  1  0
 15 14  1  0
 16 17  2  0
 16 21  1  0
 18 19  1  0
 20 19  1  6
 20 22  1  0
 21 20  1  0
 22 23  1  0
 24 22  2  0
M  END
$$$$
