RSS.pdb
     RDKit          3D

 24 23  0  0  1  0  0  0  0  0999 V2000
   23.3938  -14.7088  -19.2597 N   0  0  0  0  0  0  0  0  0  0  0  0
   23.7176  -14.1033  -20.4951 C   0  0  0  0  0  0  0  0  0  0  0  0
   23.7742  -14.7655  -21.6040 N   0  0  0  0  0  0  0  0  0  0  0  0
   23.9913  -12.7004  -20.5257 N   0  0  0  0  0  0  0  0  0  0  0  0
   23.6263  -11.7911  -19.4515 C   0  0  0  0  0  0  0  0  0  0  0  0
   22.1598  -11.6686  -19.2764 C   0  0  0  0  0  0  0  0  0  0  0  0
   21.7811  -10.7090  -18.2042 C   0  0  0  0  0  0  0  0  0  0  0  0
   20.3263  -10.6899  -17.8815 C   0  0  2  0  0  0  0  0  0  0  0  0
   19.4757  -11.0032  -18.9896 N   0  0  0  0  0  0  0  0  0  0  0  0
   19.8930   -9.3743  -17.3256 C   0  0  0  0  0  0  0  0  0  0  0  0
   19.8421   -8.3442  -18.0470 O   0  0  0  0  0  0  0  0  0  0  0  0
   24.0544  -14.2330  -22.4555 O   0  0  0  0  0  0  0  0  0  0  0  0
   17.9100   -7.0976  -13.5367 C   0  0  0  0  0  0  0  0  0  0  0  0
   18.3331   -8.2953  -14.1141 C   0  0  2  0  0  0  0  0  0  0  0  0
   19.1407   -7.9945  -15.3600 N   0  0  0  0  0  0  0  0  0  0  0  0
   19.5275   -9.2604  -15.9614 C   0  0  0  0  0  0  0  0  0  0  0  0
   20.4226   -7.2868  -15.0010 O   0  0  0  0  0  0  0  0  0  0  0  0
   21.4553   -7.9050  -14.6476 O   0  0  0  0  0  0  0  0  0  0  0  0
   22.7627   -3.0188  -15.0951 C   0  0  0  0  0  0  0  0  0  0  0  0
   21.6356   -3.7641  -15.3938 C   0  0  1  0  0  0  0  0  0  0  0  0
   21.7291   -5.1434  -14.7682 N   0  0  0  0  0  0  0  0  0  0  0  0
   20.5028   -5.8586  -15.0541 C   0  0  0  0  0  0  0  0  0  0  0  0
   21.8930   -5.0603  -13.3082 O   0  0  0  0  0  0  0  0  0  0  0  0
   23.1345   -5.0229  -12.7332 O   0  0  0  0  0  0  0  0  0  0  0  0
  1  2  1  0
  2  3  2  0
  2  4  1  0
  4  5  1  0
  5  6  1  0
  6  7  1  0
  7  8  1  0
  8  9  1  6
  8 10  1  0
 10 11  2  0
 10 15  1  0
 13 12  1  0
 14 13  1  6
 14 16  1  0
 15 14  1  0
 16 17  2  0
 16 21  1  0
 18 19  1  0
 20 19  1  6
 20 22  1  0
 21 20  1  0
 22 23  1  0
 24 22  2  0
M  END
$$$$
