RSS.pdb
     RDKit          3D

 24 23  0  0  1  0  0  0  0  0999 V2000
   21.2137  -12.4963    5.1670 N   0  0  0  0  0  0  0  0  0  0  0  0
   20.2431  -11.4904    5.3766 C   0  0  0  0  0  0  0  0  0  0  0  0
   19.6458  -10.8828    4.4043 N   0  0  0  0  0  0  0  0  0  0  0  0
   19.9020  -11.1286    6.7169 N   0  0  0  0  0  0  0  0  0  0  0  0
   19.8964  -12.0725    7.8230 C   0  0  0  0  0  0  0  0  0  0  0  0
   18.9916  -13.2231    7.5912 C   0  0  0  0  0  0  0  0  0  0  0  0
   18.9963  -14.2006    8.7130 C   0  0  0  0  0  0  0  0  0  0  0  0
   18.1209  -15.3874    8.4983 C   0  0  2  0  0  0  0  0  0  0  0  0
   16.7413  -15.1621    8.8072 N   0  0  0  0  0  0  0  0  0  0  0  0
   18.5809  -16.5718    9.2813 C   0  0  0  0  0  0  0  0  0  0  0  0
   18.3967  -16.6459   10.5242 O   0  0  0  0  0  0  0  0  0  0  0  0
   18.9592  -10.1423    4.6641 O   0  0  0  0  0  0  0  0  0  0  0  0
   18.4101  -20.2705    8.2173 C   0  0  0  0  0  0  0  0  0  0  0  0
   19.7489  -19.9886    8.4914 C   0  0  2  0  0  0  0  0  0  0  0  0
   19.8335  -18.7531    9.3638 N   0  0  0  0  0  0  0  0  0  0  0  0
   19.2403  -17.6451    8.6327 C   0  0  0  0  0  0  0  0  0  0  0  0
   21.2725  -18.3766    9.6091 O   0  0  0  0  0  0  0  0  0  0  0  0
   22.0083  -17.9098    8.7068 O   0  0  0  0  0  0  0  0  0  0  0  0
   24.5770  -16.4688   12.1120 C   0  0  0  0  0  0  0  0  0  0  0  0
   23.2879  -16.7945   11.7287 C   0  0  1  0  0  0  0  0  0  0  0  0
   23.2376  -18.2080   11.1793 N   0  0  0  0  0  0  0  0  0  0  0  0
   21.8555  -18.5429   10.9058 C   0  0  0  0  0  0  0  0  0  0  0  0
   23.7719  -19.1791   12.1472 O   0  0  0  0  0  0  0  0  0  0  0  0
   22.9546  -20.0787   12.7765 O   0  0  0  0  0  0  0  0  0  0  0  0
  1  2  1  0
  2  3  2  0
  2  4  1  0
  4  5  1  0
  5  6  1  0
  6  7  1  0
  7  8  1  0
  8  9  1  1
  8 10  1  0
 10 11  2  0
 10 15  1  0
 13 12  1  0
 14 13  1  1
 14 16  1  0
 15 14  1  0
 16 17  2  0
 16 21  1  0
 18 19  1  0
 20 19  1  6
 20 22  1  0
 21 20  1  0
 22 23  1  0
 24 22  2  0
M  END
$$$$
