RSS.pdb
     RDKit          3D

 24 23  0  0  1  0  0  0  0  0999 V2000
   10.0911  -11.2423  -10.3006 N   0  0  0  0  0  0  0  0  0  0  0  0
   11.0780  -12.0802  -10.8679 C   0  0  0  0  0  0  0  0  0  0  0  0
   10.8336  -12.8771  -11.8561 N   0  0  0  0  0  0  0  0  0  0  0  0
   12.4032  -12.0463  -10.3327 N   0  0  0  0  0  0  0  0  0  0  0  0
   13.2546  -10.8687  -10.3799 C   0  0  0  0  0  0  0  0  0  0  0  0
   13.9895  -10.7424  -11.6606 C   0  0  0  0  0  0  0  0  0  0  0  0
   14.8757   -9.5481  -11.7063 C   0  0  0  0  0  0  0  0  0  0  0  0
   16.3024   -9.8278  -11.3786 C   0  0  2  0  0  0  0  0  0  0  0  0
   16.5094  -10.3556  -10.0640 N   0  0  0  0  0  0  0  0  0  0  0  0
   17.1598   -8.6155  -11.5288 C   0  0  0  0  0  0  0  0  0  0  0  0
   17.4208   -7.8731  -10.5464 O   0  0  0  0  0  0  0  0  0  0  0  0
   11.6383  -13.4275  -12.2260 O   0  0  0  0  0  0  0  0  0  0  0  0
   19.8622   -8.6992  -14.2769 C   0  0  0  0  0  0  0  0  0  0  0  0
   19.9810   -7.7121  -13.2978 C   0  0  1  0  0  0  0  0  0  0  0  0
   18.6092   -7.1548  -12.9776 N   0  0  0  0  0  0  0  0  0  0  0  0
   17.7008   -8.2750  -12.7932 C   0  0  0  0  0  0  0  0  0  0  0  0
   18.0746   -6.3634  -14.1441 O   0  0  0  0  0  0  0  0  0  0  0  0
   17.6115   -6.9121  -15.1727 O   0  0  0  0  0  0  0  0  0  0  0  0
   16.8278   -1.9058  -15.6789 C   0  0  0  0  0  0  0  0  0  0  0  0
   17.4082   -2.6993  -14.7050 C   0  0  2  0  0  0  0  0  0  0  0  0
   17.5127   -4.1359  -15.1823 N   0  0  0  0  0  0  0  0  0  0  0  0
   18.0782   -4.9324  -14.1132 C   0  0  0  0  0  0  0  0  0  0  0  0
   18.3860   -4.2473  -16.3614 O   0  0  0  0  0  0  0  0  0  0  0  0
   17.8781   -4.1836  -17.6307 O   0  0  0  0  0  0  0  0  0  0  0  0
  1  2  1  0
  2  3  2  0
  2  4  1  0
  4  5  1  0
  5  6  1  0
  6  7  1  0
  7  8  1  0
  8  9  1  1
  8 10  1  0
 10 11  2  0
 10 15  1  0
 13 12  1  0
 14 13  1  1
 14 16  1  0
 15 14  1  0
 16 17  2  0
 16 21  1  0
 18 19  1  0
 20 19  1  1
 20 22  1  0
 21 20  1  0
 22 23  1  0
 24 22  2  0
M  END
$$$$
