RSS.pdb
     RDKit          3D

 24 23  0  0  1  0  0  0  0  0999 V2000
   27.9664  -21.2576  -11.7328 N   0  0  0  0  0  0  0  0  0  0  0  0
   27.0819  -21.0764  -10.6454 C   0  0  0  0  0  0  0  0  0  0  0  0
   27.4417  -21.2499   -9.4159 N   0  0  0  0  0  0  0  0  0  0  0  0
   25.7336  -20.6817  -10.9105 N   0  0  0  0  0  0  0  0  0  0  0  0
   25.0307  -21.0124  -12.1396 C   0  0  0  0  0  0  0  0  0  0  0  0
   25.4802  -20.1997  -13.2944 C   0  0  0  0  0  0  0  0  0  0  0  0
   24.3542  -19.7224  -14.1419 C   0  0  0  0  0  0  0  0  0  0  0  0
   23.3540  -20.7727  -14.4845 C   0  0  2  0  0  0  0  0  0  0  0  0
   23.8326  -21.7610  -15.4029 N   0  0  0  0  0  0  0  0  0  0  0  0
   22.1001  -20.1901  -15.0466 C   0  0  0  0  0  0  0  0  0  0  0  0
   21.8144  -20.3068  -16.2668 O   0  0  0  0  0  0  0  0  0  0  0  0
   26.6930  -21.1838   -8.6933 O   0  0  0  0  0  0  0  0  0  0  0  0
   18.5657  -19.9889  -13.0565 C   0  0  0  0  0  0  0  0  0  0  0  0
   19.0261  -18.7489  -13.5008 C   0  0  2  0  0  0  0  0  0  0  0  0
   19.9390  -18.9499  -14.6928 N   0  0  0  0  0  0  0  0  0  0  0  0
   21.1997  -19.4879  -14.2077 C   0  0  0  0  0  0  0  0  0  0  0  0
   20.2638  -17.6271  -15.3391 O   0  0  0  0  0  0  0  0  0  0  0  0
   21.0153  -16.7811  -14.7978 O   0  0  0  0  0  0  0  0  0  0  0  0
   21.8420  -16.9323  -18.5811 C   0  0  0  0  0  0  0  0  0  0  0  0
   20.5744  -16.3848  -18.6729 C   0  0  2  0  0  0  0  0  0  0  0  0
   20.0385  -16.0503  -17.2932 N   0  0  0  0  0  0  0  0  0  0  0  0
   19.7139  -17.2889  -16.6167 C   0  0  0  0  0  0  0  0  0  0  0  0
   18.8205  -15.2287  -17.3755 O   0  0  0  0  0  0  0  0  0  0  0  0
   17.6115  -15.7047  -16.9453 O   0  0  0  0  0  0  0  0  0  0  0  0
  1  2  1  0
  2  3  2  0
  2  4  1  0
  4  5  1  0
  5  6  1  0
  6  7  1  0
  7  8  1  0
  8  9  1  6
  8 10  1  0
 10 11  2  0
 10 15  1  0
 13 12  1  0
 14 13  1  6
 14 16  1  0
 15 14  1  0
 16 17  2  0
 16 21  1  0
 18 19  1  0
 20 19  1  1
 20 22  1  0
 21 20  1  0
 22 23  1  0
 24 22  2  0
M  END
$$$$
