ILM.pdb
     RDKit          3D

 25 24  0  0  1  0  0  0  0  0999 V2000
    6.0027  -17.8609   18.4510 C   0  0  0  0  0  0  0  0  0  0  0  0
    6.5009  -18.3092   19.8029 C   0  0  0  0  0  0  0  0  0  0  0  0
    7.4097  -17.3337   20.4497 C   0  0  2  0  0  0  0  0  0  0  0  0
    8.6111  -17.1173   19.5495 C   0  0  0  0  0  0  0  0  0  0  0  0
    7.8242  -17.6217   21.8518 C   0  0  2  0  0  0  0  0  0  0  0  0
    6.7637  -18.0799   22.7245 N   0  0  0  0  0  0  0  0  0  0  0  0
    8.5021  -16.4909   22.5133 C   0  0  0  0  0  0  0  0  0  0  0  0
    9.5850  -16.0003   22.0658 O   0  0  0  0  0  0  0  0  0  0  0  0
    7.2056  -11.9021   24.1801 C   0  0  0  0  0  0  0  0  0  0  0  0
    6.7347  -13.1650   24.8531 C   0  0  2  0  0  0  0  0  0  0  0  0
    5.8815  -12.7323   26.0586 C   0  0  0  0  0  0  0  0  0  0  0  0
    7.8383  -14.0040   25.3532 C   0  0  0  0  0  0  0  0  0  0  0  0
    8.6514  -14.7789   24.3857 C   0  0  2  0  0  0  0  0  0  0  0  0
    8.0053  -15.8594   23.6988 N   0  0  0  0  0  0  0  0  0  0  0  0
    9.9299  -15.1970   25.0199 C   0  0  0  0  0  0  0  0  0  0  0  0
   10.8504  -14.3401   25.1416 O   0  0  0  0  0  0  0  0  0  0  0  0
   10.6141  -13.6212   30.2589 C   0  0  0  0  0  0  0  0  0  0  0  0
   10.6731  -15.4041   30.5204 S   0  0  0  0  0  0  0  0  0  0  0  0
   11.3736  -16.2675   29.0666 C   0  0  0  0  0  0  0  0  0  0  0  0
   10.4729  -16.0730   27.8879 C   0  0  0  0  0  0  0  0  0  0  0  0
   11.0143  -16.7592   26.6908 C   0  0  2  0  0  0  0  0  0  0  0  0
   10.1877  -16.4925   25.4978 N   0  0  0  0  0  0  0  0  0  0  0  0
   11.0860  -18.2302   26.8158 C   0  0  0  0  0  0  0  0  0  0  0  0
   10.3387  -18.9996   26.1092 O   0  0  0  0  0  0  0  0  0  0  0  0
   11.9339  -18.9138   27.6731 O   0  0  0  0  0  0  0  0  0  0  0  0
  2  3  1  0
  2  1  1  0
  3  5  1  0
  3  4  1  6
  5  7  1  0
  5  6  1  1
  7  8  2  0
 10 11  1  1
 10  9  1  0
 12 10  1  0
 13 12  1  1
 14 13  1  0
 14  7  1  0
 15 16  2  0
 15 13  1  0
 18 17  1  0
 19 18  1  0
 19 20  1  0
 21 20  1  1
 21 23  1  0
 21 22  1  0
 22 15  1  0
 23 25  1  0
 24 23  2  0
M  END
$$$$
