ILM.pdb
     RDKit          3D

 25 24  0  0  1  0  0  0  0  0999 V2000
    7.8468  -12.0699   19.3984 C   0  0  0  0  0  0  0  0  0  0  0  0
    7.7450  -13.2593   20.3213 C   0  0  0  0  0  0  0  0  0  0  0  0
    8.5631  -14.4155   19.8856 C   0  0  2  0  0  0  0  0  0  0  0  0
    8.2012  -14.7550   18.4523 C   0  0  0  0  0  0  0  0  0  0  0  0
    8.5408  -15.6259   20.7545 C   0  0  2  0  0  0  0  0  0  0  0  0
    7.2774  -16.3321   20.7925 N   0  0  0  0  0  0  0  0  0  0  0  0
    8.9590  -15.3649   22.1448 C   0  0  0  0  0  0  0  0  0  0  0  0
   10.1127  -14.9146   22.4274 O   0  0  0  0  0  0  0  0  0  0  0  0
    7.6835  -12.3921   25.4166 C   0  0  0  0  0  0  0  0  0  0  0  0
    6.7285  -13.5522   25.3081 C   0  0  2  0  0  0  0  0  0  0  0  0
    5.6591  -13.3483   26.3960 C   0  0  0  0  0  0  0  0  0  0  0  0
    7.3708  -14.8582   25.5393 C   0  0  0  0  0  0  0  0  0  0  0  0
    8.4622  -15.2956   24.6362 C   0  0  2  0  0  0  0  0  0  0  0  0
    8.1132  -15.5940   23.2776 N   0  0  0  0  0  0  0  0  0  0  0  0
    9.2375  -16.3926   25.2742 C   0  0  0  0  0  0  0  0  0  0  0  0
    9.0371  -17.5776   24.8843 O   0  0  0  0  0  0  0  0  0  0  0  0
   10.2069  -13.3897   28.5226 C   0  0  0  0  0  0  0  0  0  0  0  0
   11.6527  -14.3600   28.9907 S   0  0  0  0  0  0  0  0  0  0  0  0
   12.2693  -15.3566   27.5849 C   0  0  0  0  0  0  0  0  0  0  0  0
   11.9829  -16.8037   27.8344 C   0  0  0  0  0  0  0  0  0  0  0  0
   10.9533  -17.3079   26.8949 C   0  0  2  0  0  0  0  0  0  0  0  0
   10.1870  -16.2005   26.2914 N   0  0  0  0  0  0  0  0  0  0  0  0
    9.9543  -18.2041   27.5143 C   0  0  0  0  0  0  0  0  0  0  0  0
   10.2970  -19.3193   28.0514 O   0  0  0  0  0  0  0  0  0  0  0  0
    8.5935  -17.9496   27.5825 O   0  0  0  0  0  0  0  0  0  0  0  0
  2  3  1  0
  2  1  1  0
  3  5  1  0
  3  4  1  6
  5  7  1  0
  5  6  1  1
  7  8  2  0
 10 11  1  1
 10  9  1  0
 12 10  1  0
 13 12  1  1
 14 13  1  0
 14  7  1  0
 15 16  2  0
 15 13  1  0
 18 17  1  0
 19 18  1  0
 19 20  1  0
 21 20  1  1
 21 23  1  0
 21 22  1  0
 22 15  1  0
 23 25  1  0
 24 23  2  0
M  END
$$$$
