ILM.pdb
     RDKit          3D

 25 24  0  0  1  0  0  0  0  0999 V2000
    8.4161  -19.9918   19.9321 C   0  0  0  0  0  0  0  0  0  0  0  0
    7.5406  -18.7874   20.1767 C   0  0  0  0  0  0  0  0  0  0  0  0
    8.1200  -17.8234   21.1415 C   0  0  2  0  0  0  0  0  0  0  0  0
    8.5385  -18.5763   22.3898 C   0  0  0  0  0  0  0  0  0  0  0  0
    7.2991  -16.6258   21.4771 C   0  0  2  0  0  0  0  0  0  0  0  0
    6.6860  -15.9639   20.3447 N   0  0  0  0  0  0  0  0  0  0  0  0
    8.0268  -15.6092   22.2600 C   0  0  0  0  0  0  0  0  0  0  0  0
    8.9507  -14.9016   21.7508 O   0  0  0  0  0  0  0  0  0  0  0  0
    6.9968  -11.4704   24.1986 C   0  0  0  0  0  0  0  0  0  0  0  0
    6.5172  -12.7269   24.8774 C   0  0  2  0  0  0  0  0  0  0  0  0
    5.6605  -12.2828   26.0763 C   0  0  0  0  0  0  0  0  0  0  0  0
    7.6147  -13.5676   25.3878 C   0  0  0  0  0  0  0  0  0  0  0  0
    8.4328  -14.3473   24.4283 C   0  0  2  0  0  0  0  0  0  0  0  0
    7.7583  -15.3377   23.6403 N   0  0  0  0  0  0  0  0  0  0  0  0
    9.6338  -14.8933   25.1145 C   0  0  0  0  0  0  0  0  0  0  0  0
   10.5273  -14.0866   25.4980 O   0  0  0  0  0  0  0  0  0  0  0  0
   11.0138  -13.8587   28.7884 C   0  0  0  0  0  0  0  0  0  0  0  0
   10.4624  -15.4647   29.3948 S   0  0  0  0  0  0  0  0  0  0  0  0
    9.6913  -16.4514   28.0601 C   0  0  0  0  0  0  0  0  0  0  0  0
   10.7337  -17.2939   27.3954 C   0  0  0  0  0  0  0  0  0  0  0  0
   11.0524  -16.7720   26.0452 C   0  0  2  0  0  0  0  0  0  0  0  0
    9.8460  -16.2585   25.3681 N   0  0  0  0  0  0  0  0  0  0  0  0
   11.6371  -17.7748   25.1301 C   0  0  0  0  0  0  0  0  0  0  0  0
   11.0451  -18.1140   24.0419 O   0  0  0  0  0  0  0  0  0  0  0  0
   12.8401  -18.4318   25.3362 O   0  0  0  0  0  0  0  0  0  0  0  0
  2  3  1  0
  2  1  1  0
  3  5  1  0
  3  4  1  1
  5  7  1  0
  5  6  1  6
  7  8  2  0
 10 11  1  1
 10  9  1  0
 12 10  1  0
 13 12  1  1
 14 13  1  0
 14  7  1  0
 15 16  2  0
 15 13  1  0
 18 17  1  0
 19 18  1  0
 19 20  1  0
 21 20  1  1
 21 23  1  0
 21 22  1  0
 22 15  1  0
 23 25  1  0
 24 23  2  0
M  END
$$$$
