ILM.pdb
     RDKit          3D

 25 24  0  0  1  0  0  0  0  0999 V2000
    8.4985  -20.4752   20.8277 C   0  0  0  0  0  0  0  0  0  0  0  0
    8.3444  -18.9992   20.5545 C   0  0  0  0  0  0  0  0  0  0  0  0
    8.6214  -18.1488   21.7360 C   0  0  2  0  0  0  0  0  0  0  0  0
    7.8089  -18.6648   22.9082 C   0  0  0  0  0  0  0  0  0  0  0  0
    8.4565  -16.6777   21.5644 C   0  0  2  0  0  0  0  0  0  0  0  0
    9.1772  -16.1046   20.4470 N   0  0  0  0  0  0  0  0  0  0  0  0
    8.7929  -15.8991   22.7712 C   0  0  0  0  0  0  0  0  0  0  0  0
    9.9912  -15.7570   23.1682 O   0  0  0  0  0  0  0  0  0  0  0  0
    6.0411  -12.1225   27.0166 C   0  0  0  0  0  0  0  0  0  0  0  0
    7.2793  -12.8089   26.5014 C   0  0  2  0  0  0  0  0  0  0  0  0
    8.3104  -11.7035   26.2128 C   0  0  0  0  0  0  0  0  0  0  0  0
    7.0523  -13.5579   25.2526 C   0  0  0  0  0  0  0  0  0  0  0  0
    8.1008  -14.4871   24.7678 C   0  0  2  0  0  0  0  0  0  0  0  0
    7.8123  -15.2473   23.5864 N   0  0  0  0  0  0  0  0  0  0  0  0
    8.5758  -15.3425   25.8877 C   0  0  0  0  0  0  0  0  0  0  0  0
    7.7413  -16.0920   26.4691 O   0  0  0  0  0  0  0  0  0  0  0  0
   12.8649  -17.7422   23.4315 C   0  0  0  0  0  0  0  0  0  0  0  0
   12.8539  -18.4514   25.0891 S   0  0  0  0  0  0  0  0  0  0  0  0
   11.3111  -18.0350   25.9812 C   0  0  0  0  0  0  0  0  0  0  0  0
   11.5993  -16.9990   27.0214 C   0  0  0  0  0  0  0  0  0  0  0  0
   10.3603  -16.2868   27.4149 C   0  0  2  0  0  0  0  0  0  0  0  0
    9.9022  -15.3748   26.3490 N   0  0  0  0  0  0  0  0  0  0  0  0
   10.4983  -15.4564   28.6298 C   0  0  0  0  0  0  0  0  0  0  0  0
   10.6082  -14.1787   28.5587 O   0  0  0  0  0  0  0  0  0  0  0  0
   10.5218  -15.9446   29.9269 O   0  0  0  0  0  0  0  0  0  0  0  0
  2  3  1  0
  2  1  1  0
  3  5  1  0
  3  4  1  1
  5  7  1  0
  5  6  1  6
  7  8  2  0
 10 11  1  6
 10  9  1  0
 12 10  1  0
 13 12  1  1
 14 13  1  0
 14  7  1  0
 15 16  2  0
 15 13  1  0
 18 17  1  0
 19 18  1  0
 19 20  1  0
 21 20  1  6
 21 23  1  0
 21 22  1  0
 22 15  1  0
 23 25  1  0
 24 23  2  0
M  END
$$$$
