ILM.pdb
     RDKit          3D

 25 24  0  0  1  0  0  0  0  0999 V2000
    6.7522  -21.7528   26.0998 C   0  0  0  0  0  0  0  0  0  0  0  0
    6.0883  -20.7837   25.1526 C   0  0  0  0  0  0  0  0  0  0  0  0
    6.9016  -19.5756   24.8792 C   0  0  2  0  0  0  0  0  0  0  0  0
    7.2702  -18.9281   26.2003 C   0  0  0  0  0  0  0  0  0  0  0  0
    6.3362  -18.5812   23.9241 C   0  0  2  0  0  0  0  0  0  0  0  0
    5.9007  -19.1263   22.6554 N   0  0  0  0  0  0  0  0  0  0  0  0
    7.2375  -17.4468   23.6473 C   0  0  0  0  0  0  0  0  0  0  0  0
    8.1475  -17.5101   22.7633 O   0  0  0  0  0  0  0  0  0  0  0  0
    5.6357  -13.8841   26.1131 C   0  0  0  0  0  0  0  0  0  0  0  0
    7.0759  -13.5103   25.8774 C   0  0  2  0  0  0  0  0  0  0  0  0
    7.1976  -12.0060   26.1790 C   0  0  0  0  0  0  0  0  0  0  0  0
    7.5152  -13.7338   24.4885 C   0  0  0  0  0  0  0  0  0  0  0  0
    8.0210  -15.0715   24.0981 C   0  0  2  0  0  0  0  0  0  0  0  0
    7.1651  -16.1962   24.3416 N   0  0  0  0  0  0  0  0  0  0  0  0
    9.3891  -15.2742   24.6444 C   0  0  0  0  0  0  0  0  0  0  0  0
   10.2998  -14.4677   24.3029 O   0  0  0  0  0  0  0  0  0  0  0  0
    9.9633  -12.9021   28.7126 C   0  0  0  0  0  0  0  0  0  0  0  0
   11.3611  -13.9751   29.0947 S   0  0  0  0  0  0  0  0  0  0  0  0
   11.9648  -14.8399   27.5990 C   0  0  0  0  0  0  0  0  0  0  0  0
   11.2400  -16.1397   27.4463 C   0  0  0  0  0  0  0  0  0  0  0  0
   11.1190  -16.5122   26.0167 C   0  0  2  0  0  0  0  0  0  0  0  0
    9.7430  -16.3116   25.5229 N   0  0  0  0  0  0  0  0  0  0  0  0
   11.4539  -17.9224   25.7273 C   0  0  0  0  0  0  0  0  0  0  0  0
   12.6129  -18.4048   25.9989 O   0  0  0  0  0  0  0  0  0  0  0  0
   10.5893  -18.8426   25.1556 O   0  0  0  0  0  0  0  0  0  0  0  0
  2  3  1  0
  2  1  1  0
  3  5  1  0
  3  4  1  1
  5  7  1  0
  5  6  1  6
  7  8  2  0
 10 11  1  6
 10  9  1  0
 12 10  1  0
 13 12  1  1
 14 13  1  0
 14  7  1  0
 15 16  2  0
 15 13  1  0
 18 17  1  0
 19 18  1  0
 19 20  1  0
 21 20  1  1
 21 23  1  0
 21 22  1  0
 22 15  1  0
 23 25  1  0
 24 23  2  0
M  END
$$$$
