ILM.pdb
     RDKit          3D

 25 24  0  0  1  0  0  0  0  0999 V2000
    7.1694  -12.6162   19.0055 C   0  0  0  0  0  0  0  0  0  0  0  0
    7.2432  -13.5651   20.1764 C   0  0  0  0  0  0  0  0  0  0  0  0
    8.1626  -14.7057   19.9539 C   0  0  2  0  0  0  0  0  0  0  0  0
    7.7221  -15.4498   18.7078 C   0  0  0  0  0  0  0  0  0  0  0  0
    8.3748  -15.6368   21.0980 C   0  0  2  0  0  0  0  0  0  0  0  0
    7.2206  -16.4286   21.4684 N   0  0  0  0  0  0  0  0  0  0  0  0
    8.8827  -14.9746   22.3143 C   0  0  0  0  0  0  0  0  0  0  0  0
    9.9732  -14.3232   22.3206 O   0  0  0  0  0  0  0  0  0  0  0  0
    7.4878  -11.4806   25.3444 C   0  0  0  0  0  0  0  0  0  0  0  0
    6.7111  -12.7659   25.4635 C   0  0  2  0  0  0  0  0  0  0  0  0
    5.7513  -12.5942   26.6542 C   0  0  0  0  0  0  0  0  0  0  0  0
    7.5634  -13.9381   25.7303 C   0  0  0  0  0  0  0  0  0  0  0  0
    8.6145  -14.3041   24.7509 C   0  0  2  0  0  0  0  0  0  0  0  0
    8.2005  -15.0096   23.5730 N   0  0  0  0  0  0  0  0  0  0  0  0
    9.7414  -14.9799   25.4472 C   0  0  0  0  0  0  0  0  0  0  0  0
   10.5801  -14.2675   26.0681 O   0  0  0  0  0  0  0  0  0  0  0  0
   10.4197  -14.3039   28.8561 C   0  0  0  0  0  0  0  0  0  0  0  0
   10.4738  -16.0398   29.3406 S   0  0  0  0  0  0  0  0  0  0  0  0
    9.5402  -17.0881   28.1663 C   0  0  0  0  0  0  0  0  0  0  0  0
   10.4980  -17.8613   27.3160 C   0  0  0  0  0  0  0  0  0  0  0  0
   11.0292  -17.0183   26.2187 C   0  0  2  0  0  0  0  0  0  0  0  0
    9.9402  -16.3704   25.4623 N   0  0  0  0  0  0  0  0  0  0  0  0
   11.8338  -17.7563   25.2224 C   0  0  0  0  0  0  0  0  0  0  0  0
   11.4403  -17.8852   24.0065 O   0  0  0  0  0  0  0  0  0  0  0  0
   13.0525  -18.3646   25.4792 O   0  0  0  0  0  0  0  0  0  0  0  0
  2  3  1  0
  2  1  1  0
  3  5  1  0
  3  4  1  6
  5  7  1  0
  5  6  1  1
  7  8  2  0
 10 11  1  1
 10  9  1  0
 12 10  1  0
 13 12  1  1
 14 13  1  0
 14  7  1  0
 15 16  2  0
 15 13  1  0
 18 17  1  0
 19 18  1  0
 19 20  1  0
 21 20  1  1
 21 23  1  0
 21 22  1  0
 22 15  1  0
 23 25  1  0
 24 23  2  0
M  END
$$$$
