CTG.pdb
     RDKit          3D

 18 17  0  0  1  0  0  0  0  0999 V2000
    9.9628  -15.4834   13.7979 N   0  0  0  0  0  0  0  0  0  0  0  0
    9.9807  -16.1667   15.0499 C   0  0  1  0  0  0  0  0  0  0  0  0
   10.5662  -17.5594   14.9572 C   0  0  0  0  0  0  0  0  0  0  0  0
    9.5697  -18.6628   13.9615 S   0  0  0  0  0  0  0  0  0  0  0  0
   10.6611  -15.3557   16.0927 C   0  0  0  0  0  0  0  0  0  0  0  0
   11.7180  -14.7171   15.8495 O   0  0  0  0  0  0  0  0  0  0  0  0
    8.8360  -12.8856   18.2723 C   0  0  0  0  0  0  0  0  0  0  0  0
    9.7198  -13.6862   19.1638 C   0  0  1  0  0  0  0  0  0  0  0  0
    8.9580  -14.5935   19.8980 O   0  0  0  0  0  0  0  0  0  0  0  0
   10.8162  -14.4204   18.4376 C   0  0  2  0  0  0  0  0  0  0  0  0
   10.1583  -15.2544   17.4236 N   0  0  0  0  0  0  0  0  0  0  0  0
   11.6692  -15.2264   19.3255 C   0  0  0  0  0  0  0  0  0  0  0  0
   11.3161  -16.3932   19.6356 O   0  0  0  0  0  0  0  0  0  0  0  0
   12.9043  -14.7711   19.8784 N   0  0  0  0  0  0  0  0  0  0  0  0
   13.6710  -15.5057   20.8360 C   0  0  0  0  0  0  0  0  0  0  0  0
   14.9859  -14.8791   21.1257 C   0  0  0  0  0  0  0  0  0  0  0  0
   15.7916  -15.2972   22.1732 O   0  0  0  0  0  0  0  0  0  0  0  0
   15.4107  -13.9338   20.4134 O   0  0  0  0  0  0  0  0  0  0  0  0
  2  1  1  6
  2  3  1  0
  3  4  1  0
  5  6  2  0
  5  2  1  0
  8  7  1  6
  8  9  1  0
  8 10  1  0
 10 11  1  6
 11  5  1  0
 12 10  1  0
 12 14  1  0
 13 12  2  0
 15 14  1  0
 15 16  1  0
 16 17  1  0
 18 16  2  0
M  END
$$$$
