CTG.pdb
     RDKit          3D

 18 17  0  0  1  0  0  0  0  0999 V2000
    8.2627  -19.2010   19.1524 N   0  0  0  0  0  0  0  0  0  0  0  0
    9.2228  -18.3440   18.5374 C   0  0  1  0  0  0  0  0  0  0  0  0
    8.8073  -17.8819   17.1572 C   0  0  0  0  0  0  0  0  0  0  0  0
    7.6897  -19.0249   16.3533 S   0  0  0  0  0  0  0  0  0  0  0  0
    9.5595  -17.1968   19.4199 C   0  0  0  0  0  0  0  0  0  0  0  0
   10.4056  -16.3283   19.0825 O   0  0  0  0  0  0  0  0  0  0  0  0
    8.3579  -14.1850   23.0816 C   0  0  0  0  0  0  0  0  0  0  0  0
    8.1145  -15.3246   22.1550 C   0  0  1  0  0  0  0  0  0  0  0  0
    7.3054  -14.9129   21.0974 O   0  0  0  0  0  0  0  0  0  0  0  0
    9.3725  -15.9506   21.6129 C   0  0  2  0  0  0  0  0  0  0  0  0
    8.9462  -17.0143   20.6946 N   0  0  0  0  0  0  0  0  0  0  0  0
   10.2662  -16.4707   22.6600 C   0  0  0  0  0  0  0  0  0  0  0  0
    9.8496  -17.3581   23.4481 O   0  0  0  0  0  0  0  0  0  0  0  0
   11.6106  -16.0316   22.8553 N   0  0  0  0  0  0  0  0  0  0  0  0
   12.4851  -16.5545   23.8583 C   0  0  0  0  0  0  0  0  0  0  0  0
   13.8055  -15.8753   23.8839 C   0  0  0  0  0  0  0  0  0  0  0  0
   14.7706  -16.1663   24.8354 O   0  0  0  0  0  0  0  0  0  0  0  0
   14.0877  -15.0007   23.0255 O   0  0  0  0  0  0  0  0  0  0  0  0
  2  1  1  1
  2  3  1  0
  3  4  1  0
  5  6  2  0
  5  2  1  0
  8  7  1  1
  8  9  1  0
  8 10  1  0
 10 11  1  6
 11  5  1  0
 12 10  1  0
 12 14  1  0
 13 12  2  0
 15 14  1  0
 15 16  1  0
 16 17  1  0
 18 16  2  0
M  END
$$$$
