CTG.pdb
     RDKit          3D

 18 17  0  0  1  0  0  0  0  0999 V2000
    8.0009  -14.3693   16.7805 N   0  0  0  0  0  0  0  0  0  0  0  0
    8.4540  -13.9462   18.0651 C   0  0  1  0  0  0  0  0  0  0  0  0
    7.6650  -12.7783   18.6172 C   0  0  0  0  0  0  0  0  0  0  0  0
    8.2153  -12.2810   20.2456 S   0  0  0  0  0  0  0  0  0  0  0  0
    8.4896  -15.0831   19.0214 C   0  0  0  0  0  0  0  0  0  0  0  0
    7.7233  -16.0741   18.9002 O   0  0  0  0  0  0  0  0  0  0  0  0
    8.7637  -17.6799   19.0489 C   0  0  0  0  0  0  0  0  0  0  0  0
    9.7774  -17.4684   20.1187 C   0  0  1  0  0  0  0  0  0  0  0  0
   11.0434  -17.3281   19.5529 O   0  0  0  0  0  0  0  0  0  0  0  0
    9.4893  -16.2875   21.0082 C   0  0  2  0  0  0  0  0  0  0  0  0
    9.3900  -15.1169   20.1271 N   0  0  0  0  0  0  0  0  0  0  0  0
   10.4996  -16.0853   22.0588 C   0  0  0  0  0  0  0  0  0  0  0  0
   11.5360  -15.4194   21.8044 O   0  0  0  0  0  0  0  0  0  0  0  0
   10.3898  -16.6030   23.3849 N   0  0  0  0  0  0  0  0  0  0  0  0
   11.2631  -16.2440   24.4585 C   0  0  0  0  0  0  0  0  0  0  0  0
   12.2499  -17.3064   24.7797 C   0  0  0  0  0  0  0  0  0  0  0  0
   13.1808  -17.1703   25.7976 O   0  0  0  0  0  0  0  0  0  0  0  0
   12.2664  -18.3787   24.1228 O   0  0  0  0  0  0  0  0  0  0  0  0
  2  1  1  6
  2  3  1  0
  3  4  1  0
  5  6  2  0
  5  2  1  0
  8  7  1  6
  8  9  1  0
  8 10  1  0
 10 11  1  6
 11  5  1  0
 12 10  1  0
 12 14  1  0
 13 12  2  0
 15 14  1  0
 15 16  1  0
 16 17  1  0
 18 16  2  0
M  END
$$$$
