CTG.pdb
     RDKit          3D

 18 17  0  0  1  0  0  0  0  0999 V2000
    5.3642  -13.4902   26.5773 N   0  0  0  0  0  0  0  0  0  0  0  0
    6.5765  -13.1076   25.9302 C   0  0  1  0  0  0  0  0  0  0  0  0
    7.5491  -12.4105   26.8571 C   0  0  0  0  0  0  0  0  0  0  0  0
    7.0195  -10.7595   27.2992 S   0  0  0  0  0  0  0  0  0  0  0  0
    7.2074  -14.2666   25.2468 C   0  0  0  0  0  0  0  0  0  0  0  0
    7.3765  -15.3680   25.8318 O   0  0  0  0  0  0  0  0  0  0  0  0
    6.7251  -14.6569   21.3566 C   0  0  0  0  0  0  0  0  0  0  0  0
    8.0854  -15.1244   21.7411 C   0  0  1  0  0  0  0  0  0  0  0  0
    9.0437  -14.2147   21.2974 O   0  0  0  0  0  0  0  0  0  0  0  0
    8.2566  -15.3557   23.2195 C   0  0  2  0  0  0  0  0  0  0  0  0
    7.6557  -14.1982   23.8945 N   0  0  0  0  0  0  0  0  0  0  0  0
    9.6586  -15.5457   23.6242 C   0  0  0  0  0  0  0  0  0  0  0  0
   10.3396  -14.5536   23.9905 O   0  0  0  0  0  0  0  0  0  0  0  0
   10.3249  -16.8084   23.6329 N   0  0  0  0  0  0  0  0  0  0  0  0
   11.6865  -16.9916   24.0288 C   0  0  0  0  0  0  0  0  0  0  0  0
   12.0973  -18.4187   24.0402 C   0  0  0  0  0  0  0  0  0  0  0  0
   13.3838  -18.8172   24.3680 O   0  0  0  0  0  0  0  0  0  0  0  0
   11.2715  -19.3206   23.7468 O   0  0  0  0  0  0  0  0  0  0  0  0
  2  1  1  1
  2  3  1  0
  3  4  1  0
  5  6  2  0
  5  2  1  0
  8  7  1  1
  8  9  1  0
  8 10  1  0
 10 11  1  1
 11  5  1  0
 12 10  1  0
 12 14  1  0
 13 12  2  0
 15 14  1  0
 15 16  1  0
 16 17  1  0
 18 16  2  0
M  END
$$$$
