CTG.pdb
     RDKit          3D

 18 17  0  0  1  0  0  0  0  0999 V2000
    5.0182  -18.5023   22.8210 N   0  0  0  0  0  0  0  0  0  0  0  0
    5.7228  -17.3612   23.3070 C   0  0  1  0  0  0  0  0  0  0  0  0
    6.3176  -17.5731   24.6827 C   0  0  0  0  0  0  0  0  0  0  0  0
    6.6849  -16.0354   25.5208 S   0  0  0  0  0  0  0  0  0  0  0  0
    6.7485  -16.9097   22.3313 C   0  0  0  0  0  0  0  0  0  0  0  0
    7.4802  -17.7271   21.7144 O   0  0  0  0  0  0  0  0  0  0  0  0
    8.6397  -13.1457   19.6921 C   0  0  0  0  0  0  0  0  0  0  0  0
    7.5787  -13.8607   20.4535 C   0  0  1  0  0  0  0  0  0  0  0  0
    6.5365  -14.2146   19.5984 O   0  0  0  0  0  0  0  0  0  0  0  0
    8.0693  -15.0837   21.1830 C   0  0  2  0  0  0  0  0  0  0  0  0
    6.9624  -15.5302   22.0386 N   0  0  0  0  0  0  0  0  0  0  0  0
    9.2924  -14.8472   21.9663 C   0  0  0  0  0  0  0  0  0  0  0  0
    9.2346  -14.1553   23.0152 O   0  0  0  0  0  0  0  0  0  0  0  0
   10.5785  -15.3588   21.6159 N   0  0  0  0  0  0  0  0  0  0  0  0
   11.7386  -15.2414   22.4433 C   0  0  0  0  0  0  0  0  0  0  0  0
   12.9623  -15.7861   21.8021 C   0  0  0  0  0  0  0  0  0  0  0  0
   14.2183  -15.6597   22.3748 O   0  0  0  0  0  0  0  0  0  0  0  0
   12.8889  -16.3885   20.7007 O   0  0  0  0  0  0  0  0  0  0  0  0
  2  1  1  6
  2  3  1  0
  3  4  1  0
  5  6  2  0
  5  2  1  0
  8  7  1  6
  8  9  1  0
  8 10  1  0
 10 11  1  1
 11  5  1  0
 12 10  1  0
 12 14  1  0
 13 12  2  0
 15 14  1  0
 15 16  1  0
 16 17  1  0
 18 16  2  0
M  END
$$$$
