CTG.pdb
     RDKit          3D

 18 17  0  0  1  0  0  0  0  0999 V2000
    8.0520  -14.1946   17.8551 N   0  0  0  0  0  0  0  0  0  0  0  0
    8.9074  -13.8405   18.9403 C   0  0  1  0  0  0  0  0  0  0  0  0
    8.7047  -12.4178   19.4155 C   0  0  0  0  0  0  0  0  0  0  0  0
    9.3478  -11.2071   18.2655 S   0  0  0  0  0  0  0  0  0  0  0  0
    8.7854  -14.8129   20.0574 C   0  0  0  0  0  0  0  0  0  0  0  0
    7.6957  -15.3847   20.3210 O   0  0  0  0  0  0  0  0  0  0  0  0
    8.2003  -17.4070   20.3604 C   0  0  0  0  0  0  0  0  0  0  0  0
    9.4710  -17.4865   21.1322 C   0  0  1  0  0  0  0  0  0  0  0  0
   10.5248  -17.8130   20.2805 O   0  0  0  0  0  0  0  0  0  0  0  0
    9.8060  -16.2279   21.8887 C   0  0  2  0  0  0  0  0  0  0  0  0
    9.8911  -15.1529   20.8918 N   0  0  0  0  0  0  0  0  0  0  0  0
   11.0448  -16.3299   22.6762 C   0  0  0  0  0  0  0  0  0  0  0  0
   12.0751  -15.7163   22.2963 O   0  0  0  0  0  0  0  0  0  0  0  0
   11.1703  -17.0954   23.8749 N   0  0  0  0  0  0  0  0  0  0  0  0
   12.3175  -17.0638   24.7277 C   0  0  0  0  0  0  0  0  0  0  0  0
   12.1025  -17.7796   26.0110 C   0  0  0  0  0  0  0  0  0  0  0  0
   13.0983  -17.9019   26.9675 O   0  0  0  0  0  0  0  0  0  0  0  0
   10.9887  -18.3037   26.2681 O   0  0  0  0  0  0  0  0  0  0  0  0
  2  1  1  6
  2  3  1  0
  3  4  1  0
  5  6  2  0
  5  2  1  0
  8  7  1  6
  8  9  1  0
  8 10  1  0
 10 11  1  6
 11  5  1  0
 12 10  1  0
 12 14  1  0
 13 12  2  0
 15 14  1  0
 15 16  1  0
 16 17  1  0
 18 16  2  0
M  END
$$$$
