CTG.pdb
     RDKit          3D

 18 17  0  0  1  0  0  0  0  0999 V2000
    5.2087  -13.1306   26.4302 N   0  0  0  0  0  0  0  0  0  0  0  0
    6.4880  -12.8593   25.8606 C   0  0  1  0  0  0  0  0  0  0  0  0
    7.4189  -12.1364   26.8104 C   0  0  0  0  0  0  0  0  0  0  0  0
    6.8007  -10.5282   27.2931 S   0  0  0  0  0  0  0  0  0  0  0  0
    7.1086  -14.0982   25.3236 C   0  0  0  0  0  0  0  0  0  0  0  0
    7.2100  -15.1425   26.0187 O   0  0  0  0  0  0  0  0  0  0  0  0
    7.0645  -14.6675   21.3715 C   0  0  0  0  0  0  0  0  0  0  0  0
    8.2979  -15.2434   21.9748 C   0  0  1  0  0  0  0  0  0  0  0  0
    9.4007  -14.4585   21.6426 O   0  0  0  0  0  0  0  0  0  0  0  0
    8.2276  -15.4063   23.4705 C   0  0  2  0  0  0  0  0  0  0  0  0
    7.6231  -14.1752   23.9955 N   0  0  0  0  0  0  0  0  0  0  0  0
    9.5344  -15.6712   24.0930 C   0  0  0  0  0  0  0  0  0  0  0  0
   10.2540  -14.7076   24.4615 O   0  0  0  0  0  0  0  0  0  0  0  0
   10.0637  -16.9781   24.3173 N   0  0  0  0  0  0  0  0  0  0  0  0
   11.3257  -17.2342   24.9386 C   0  0  0  0  0  0  0  0  0  0  0  0
   11.6158  -18.6837   25.0802 C   0  0  0  0  0  0  0  0  0  0  0  0
   12.7745  -19.1528   25.6791 O   0  0  0  0  0  0  0  0  0  0  0  0
   10.8009  -19.5403   24.6516 O   0  0  0  0  0  0  0  0  0  0  0  0
  2  1  1  1
  2  3  1  0
  3  4  1  0
  5  6  2  0
  5  2  1  0
  8  7  1  1
  8  9  1  0
  8 10  1  0
 10 11  1  1
 11  5  1  0
 12 10  1  0
 12 14  1  0
 13 12  2  0
 15 14  1  0
 15 16  1  0
 16 17  1  0
 18 16  2  0
M  END
$$$$
