AHC.pdb
     RDKit          3D

 22 22  0  0  1  0  0  0  0  0999 V2000
    7.7317  -13.0680   18.4345 C   0  0  0  0  0  0  0  0  0  0  0  0
    8.7968  -13.3688   19.4720 C   0  0  2  0  0  0  0  0  0  0  0  0
    9.7345  -14.2956   18.8793 N   0  0  0  0  0  0  0  0  0  0  0  0
    8.1627  -13.9351   20.6952 C   0  0  0  0  0  0  0  0  0  0  0  0
    7.3546  -13.2397   21.3240 O   0  0  0  0  0  0  0  0  0  0  0  0
    8.4766  -15.2319   21.1252 N   0  0  0  0  0  0  0  0  0  0  0  0
    7.9221  -15.8498   22.3139 C   0  0  1  0  0  0  0  0  0  0  0  0
    8.3202  -17.2820   22.4053 C   0  0  0  0  0  0  0  0  0  0  0  0
    7.7421  -17.9505   23.5981 C   0  0  0  0  0  0  0  0  0  0  0  0
    6.5040  -17.6513   24.1740 C   0  0  0  0  0  0  0  0  0  0  0  0
    6.3009  -18.4450   25.2313 N   0  0  0  0  0  0  0  0  0  0  0  0
    7.3713  -19.2349   25.3404 C   0  0  0  0  0  0  0  0  0  0  0  0
    8.2413  -18.9419   24.3607 N   0  0  0  0  0  0  0  0  0  0  0  0
    8.2850  -15.0833   23.5389 C   0  0  0  0  0  0  0  0  0  0  0  0
    9.4766  -14.7044   23.6686 O   0  0  0  0  0  0  0  0  0  0  0  0
    7.3547  -14.7605   24.5642 N   0  0  0  0  0  0  0  0  0  0  0  0
    7.7511  -13.8927   25.6497 C   0  0  1  0  0  0  0  0  0  0  0  0
    6.6575  -12.9144   26.0189 C   0  0  0  0  0  0  0  0  0  0  0  0
    7.0703  -11.8992   27.4334 S   0  0  0  0  0  0  0  0  0  0  0  0
    8.0107  -14.7238   26.8365 C   0  0  0  0  0  0  0  0  0  0  0  0
    7.3922  -15.7894   27.0039 O   0  0  0  0  0  0  0  0  0  0  0  0
    8.9424  -14.3208   27.7665 O   0  0  0  0  0  0  0  0  0  0  0  0
  2  1  1  6
  2  3  1  0
  2  4  1  0
  4  5  2  0
  6  4  1  0
  6  7  1  0
  7 14  1  0
  7  8  1  1
  9 13  1  0
  9  8  1  0
 10  9  2  0
 11 10  1  0
 11 12  1  0
 12 13  2  0
 14 16  1  0
 14 15  2  0
 16 17  1  0
 17 20  1  0
 17 18  1  1
 19 18  1  0
 20 21  2  0
 20 22  1  0
M  END
$$$$
