AHC.pdb
     RDKit          3D

 22 22  0  0  1  0  0  0  0  0999 V2000
    9.8054  -19.6295   19.9648 C   0  0  0  0  0  0  0  0  0  0  0  0
    9.7593  -18.5144   18.9373 C   0  0  2  0  0  0  0  0  0  0  0  0
   10.7364  -18.8201   17.9169 N   0  0  0  0  0  0  0  0  0  0  0  0
   10.0431  -17.2094   19.5971 C   0  0  0  0  0  0  0  0  0  0  0  0
   11.2209  -16.8544   19.7338 O   0  0  0  0  0  0  0  0  0  0  0  0
    8.9943  -16.3993   20.0544 N   0  0  0  0  0  0  0  0  0  0  0  0
    9.1782  -15.0825   20.6327 C   0  0  1  0  0  0  0  0  0  0  0  0
    7.9617  -14.2438   20.4461 C   0  0  0  0  0  0  0  0  0  0  0  0
    7.6221  -14.0583   19.0129 C   0  0  0  0  0  0  0  0  0  0  0  0
    7.8411  -12.8928   18.2727 C   0  0  0  0  0  0  0  0  0  0  0  0
    7.4165  -13.0758   17.0175 N   0  0  0  0  0  0  0  0  0  0  0  0
    6.9369  -14.3191   16.9428 C   0  0  0  0  0  0  0  0  0  0  0  0
    7.0579  -14.9147   18.1400 N   0  0  0  0  0  0  0  0  0  0  0  0
    9.5873  -15.1741   22.0625 C   0  0  0  0  0  0  0  0  0  0  0  0
    9.4888  -14.1421   22.7735 O   0  0  0  0  0  0  0  0  0  0  0  0
   10.0814  -16.3656   22.6601 N   0  0  0  0  0  0  0  0  0  0  0  0
   10.4452  -16.3727   24.0587 C   0  0  1  0  0  0  0  0  0  0  0  0
    9.2562  -16.0974   24.9530 C   0  0  0  0  0  0  0  0  0  0  0  0
    9.6126  -16.3354   26.6902 S   0  0  0  0  0  0  0  0  0  0  0  0
   10.9458  -17.7140   24.4007 C   0  0  0  0  0  0  0  0  0  0  0  0
   11.4909  -17.9191   25.4993 O   0  0  0  0  0  0  0  0  0  0  0  0
   10.8106  -18.7474   23.5012 O   0  0  0  0  0  0  0  0  0  0  0  0
  2  1  1  1
  2  3  1  0
  2  4  1  0
  4  5  2  0
  6  4  1  0
  6  7  1  0
  7 14  1  0
  7  8  1  1
  9 13  1  0
  9  8  1  0
 10  9  2  0
 11 10  1  0
 11 12  1  0
 12 13  2  0
 14 16  1  0
 14 15  2  0
 16 17  1  0
 17 20  1  0
 17 18  1  1
 19 18  1  0
 20 21  2  0
 20 22  1  0
M  END
$$$$
