AHC.pdb
     RDKit          3D

 22 22  0  0  1  0  0  0  0  0999 V2000
    8.5456  -12.0205   19.7696 C   0  0  0  0  0  0  0  0  0  0  0  0
    8.8042  -12.9494   18.5985 C   0  0  2  0  0  0  0  0  0  0  0  0
    7.5214  -13.3895   18.0984 N   0  0  0  0  0  0  0  0  0  0  0  0
    9.6446  -14.0967   19.0417 C   0  0  0  0  0  0  0  0  0  0  0  0
    9.0858  -15.1412   19.4007 O   0  0  0  0  0  0  0  0  0  0  0  0
   11.0427  -13.9938   19.0516 N   0  0  0  0  0  0  0  0  0  0  0  0
   11.9354  -15.0914   19.3688 C   0  0  1  0  0  0  0  0  0  0  0  0
   13.2236  -14.9604   18.6329 C   0  0  0  0  0  0  0  0  0  0  0  0
   13.1409  -15.5057   17.2546 C   0  0  0  0  0  0  0  0  0  0  0  0
   12.4851  -16.6844   16.8877 C   0  0  0  0  0  0  0  0  0  0  0  0
   12.6104  -16.8721   15.5693 N   0  0  0  0  0  0  0  0  0  0  0  0
   13.3241  -15.8495   15.0933 C   0  0  0  0  0  0  0  0  0  0  0  0
   13.6459  -15.0246   16.1025 N   0  0  0  0  0  0  0  0  0  0  0  0
   12.1354  -15.2155   20.8401 C   0  0  0  0  0  0  0  0  0  0  0  0
   12.7548  -14.2960   21.4327 O   0  0  0  0  0  0  0  0  0  0  0  0
   11.6626  -16.3173   21.6038 N   0  0  0  0  0  0  0  0  0  0  0  0
   11.8602  -16.3395   23.0352 C   0  0  1  0  0  0  0  0  0  0  0  0
   10.6381  -16.8508   23.7662 C   0  0  0  0  0  0  0  0  0  0  0  0
   10.9479  -17.2039   25.4928 S   0  0  0  0  0  0  0  0  0  0  0  0
   12.9658  -17.2633   23.3363 C   0  0  0  0  0  0  0  0  0  0  0  0
   13.1688  -18.2554   22.6148 O   0  0  0  0  0  0  0  0  0  0  0  0
   13.7799  -17.0292   24.4215 O   0  0  0  0  0  0  0  0  0  0  0  0
  2  1  1  1
  2  3  1  0
  2  4  1  0
  4  5  2  0
  6  4  1  0
  6  7  1  0
  7 14  1  0
  7  8  1  6
  9 13  1  0
  9  8  1  0
 10  9  2  0
 11 10  1  0
 11 12  1  0
 12 13  2  0
 14 16  1  0
 14 15  2  0
 16 17  1  0
 17 20  1  0
 17 18  1  1
 19 18  1  0
 20 21  2  0
 20 22  1  0
M  END
$$$$
