AHC.pdb
     RDKit          3D

 22 22  0  0  1  0  0  0  0  0999 V2000
    7.1718  -13.0705   17.6291 C   0  0  0  0  0  0  0  0  0  0  0  0
    8.4957  -13.3124   18.3291 C   0  0  2  0  0  0  0  0  0  0  0  0
    9.4717  -13.6430   17.3154 N   0  0  0  0  0  0  0  0  0  0  0  0
    8.3454  -14.4089   19.3261 C   0  0  0  0  0  0  0  0  0  0  0  0
    7.4843  -14.2984   20.2083 O   0  0  0  0  0  0  0  0  0  0  0  0
    9.1650  -15.5446   19.2649 N   0  0  0  0  0  0  0  0  0  0  0  0
    9.1630  -16.6017   20.2574 C   0  0  1  0  0  0  0  0  0  0  0  0
    9.7399  -17.8567   19.7004 C   0  0  0  0  0  0  0  0  0  0  0  0
    8.8546  -18.4791   18.6841 C   0  0  0  0  0  0  0  0  0  0  0  0
    7.4682  -18.3170   18.6093 C   0  0  0  0  0  0  0  0  0  0  0  0
    6.9929  -19.0179   17.5739 N   0  0  0  0  0  0  0  0  0  0  0  0
    8.0353  -19.6166   16.9937 C   0  0  0  0  0  0  0  0  0  0  0  0
    9.1575  -19.2960   17.6573 N   0  0  0  0  0  0  0  0  0  0  0  0
    9.8508  -16.1695   21.5064 C   0  0  0  0  0  0  0  0  0  0  0  0
   11.0039  -15.6786   21.4076 O   0  0  0  0  0  0  0  0  0  0  0  0
    9.2704  -16.2842   22.7990 N   0  0  0  0  0  0  0  0  0  0  0  0
    9.9897  -15.8042   23.9569 C   0  0  1  0  0  0  0  0  0  0  0  0
    9.0536  -15.3752   25.0655 C   0  0  0  0  0  0  0  0  0  0  0  0
    7.8823  -14.1238   24.5520 S   0  0  0  0  0  0  0  0  0  0  0  0
   10.8106  -16.9071   24.4827 C   0  0  0  0  0  0  0  0  0  0  0  0
   10.6572  -18.0637   24.0528 O   0  0  0  0  0  0  0  0  0  0  0  0
   11.7530  -16.6586   25.4550 O   0  0  0  0  0  0  0  0  0  0  0  0
  2  1  1  6
  2  3  1  0
  2  4  1  0
  4  5  2  0
  6  4  1  0
  6  7  1  0
  7 14  1  0
  7  8  1  6
  9 13  1  0
  9  8  1  0
 10  9  2  0
 11 10  1  0
 11 12  1  0
 12 13  2  0
 14 16  1  0
 14 15  2  0
 16 17  1  0
 17 20  1  0
 17 18  1  1
 19 18  1  0
 20 21  2  0
 20 22  1  0
M  END
$$$$
