AHC.pdb
     RDKit          3D

 22 22  0  0  1  0  0  0  0  0999 V2000
   12.1609  -17.0040   17.1572 C   0  0  0  0  0  0  0  0  0  0  0  0
   12.1692  -17.1961   18.6619 C   0  0  2  0  0  0  0  0  0  0  0  0
   11.3541  -18.3523   18.9592 N   0  0  0  0  0  0  0  0  0  0  0  0
   11.6487  -15.9702   19.3291 C   0  0  0  0  0  0  0  0  0  0  0  0
   12.2871  -14.9154   19.2198 O   0  0  0  0  0  0  0  0  0  0  0  0
   10.4574  -16.0119   20.0669 N   0  0  0  0  0  0  0  0  0  0  0  0
    9.9849  -14.9295   20.9080 C   0  0  1  0  0  0  0  0  0  0  0  0
    8.5193  -14.7247   20.7400 C   0  0  0  0  0  0  0  0  0  0  0  0
    8.1884  -14.0666   19.4511 C   0  0  0  0  0  0  0  0  0  0  0  0
    9.1173  -13.6363   18.4992 C   0  0  0  0  0  0  0  0  0  0  0  0
    8.4724  -13.0894   17.4627 N   0  0  0  0  0  0  0  0  0  0  0  0
    7.1668  -13.1611   17.7308 C   0  0  0  0  0  0  0  0  0  0  0  0
    6.9902  -13.7479   18.9254 N   0  0  0  0  0  0  0  0  0  0  0  0
   10.3651  -15.1480   22.3319 C   0  0  0  0  0  0  0  0  0  0  0  0
    9.8079  -14.4401   23.2086 O   0  0  0  0  0  0  0  0  0  0  0  0
   11.3228  -16.1134   22.7467 N   0  0  0  0  0  0  0  0  0  0  0  0
   11.4271  -16.4708   24.1431 C   0  0  1  0  0  0  0  0  0  0  0  0
   10.1476  -17.0866   24.6656 C   0  0  0  0  0  0  0  0  0  0  0  0
   10.2836  -17.6652   26.3533 S   0  0  0  0  0  0  0  0  0  0  0  0
   12.4867  -17.4825   24.2848 C   0  0  0  0  0  0  0  0  0  0  0  0
   12.9652  -18.0352   23.2789 O   0  0  0  0  0  0  0  0  0  0  0  0
   12.9514  -17.8197   25.5360 O   0  0  0  0  0  0  0  0  0  0  0  0
  2  1  1  6
  2  3  1  0
  2  4  1  0
  4  5  2  0
  6  4  1  0
  6  7  1  0
  7 14  1  0
  7  8  1  1
  9 13  1  0
  9  8  1  0
 10  9  2  0
 11 10  1  0
 11 12  1  0
 12 13  2  0
 14 16  1  0
 14 15  2  0
 16 17  1  0
 17 20  1  0
 17 18  1  6
 19 18  1  0
 20 21  2  0
 20 22  1  0
M  END
$$$$
