AHC.pdb
     RDKit          3D

 22 22  0  0  1  0  0  0  0  0999 V2000
    8.1544  -18.1058   19.7813 C   0  0  0  0  0  0  0  0  0  0  0  0
    8.6197  -16.6629   19.7268 C   0  0  2  0  0  0  0  0  0  0  0  0
    9.7986  -16.6154   18.8918 N   0  0  0  0  0  0  0  0  0  0  0  0
    8.9016  -16.1723   21.1048 C   0  0  0  0  0  0  0  0  0  0  0  0
   10.0226  -16.3712   21.5905 O   0  0  0  0  0  0  0  0  0  0  0  0
    7.9145  -15.4978   21.8367 N   0  0  0  0  0  0  0  0  0  0  0  0
    8.1115  -14.9730   23.1739 C   0  0  1  0  0  0  0  0  0  0  0  0
    6.9220  -14.1972   23.6226 C   0  0  0  0  0  0  0  0  0  0  0  0
    7.1081  -13.6167   24.9762 C   0  0  0  0  0  0  0  0  0  0  0  0
    8.2164  -13.8260   25.8021 C   0  0  0  0  0  0  0  0  0  0  0  0
    8.0527  -13.1531   26.9464 N   0  0  0  0  0  0  0  0  0  0  0  0
    6.8769  -12.5263   26.8684 C   0  0  0  0  0  0  0  0  0  0  0  0
    6.3044  -12.8016   25.6856 N   0  0  0  0  0  0  0  0  0  0  0  0
    8.4727  -16.0568   24.1304 C   0  0  0  0  0  0  0  0  0  0  0  0
    7.7354  -17.0739   24.1783 O   0  0  0  0  0  0  0  0  0  0  0  0
    9.6049  -15.9981   24.9880 N   0  0  0  0  0  0  0  0  0  0  0  0
    9.9581  -17.1443   25.7944 C   0  0  1  0  0  0  0  0  0  0  0  0
   11.3380  -17.6667   25.4596 C   0  0  0  0  0  0  0  0  0  0  0  0
   12.4823  -16.3761   24.9835 S   0  0  0  0  0  0  0  0  0  0  0  0
    9.9806  -16.7286   27.2062 C   0  0  0  0  0  0  0  0  0  0  0  0
    9.7926  -15.5384   27.5131 O   0  0  0  0  0  0  0  0  0  0  0  0
   10.2108  -17.6607   28.1928 O   0  0  0  0  0  0  0  0  0  0  0  0
  2  1  1  1
  2  3  1  0
  2  4  1  0
  4  5  2  0
  6  4  1  0
  6  7  1  0
  7 14  1  0
  7  8  1  1
  9 13  1  0
  9  8  1  0
 10  9  2  0
 11 10  1  0
 11 12  1  0
 12 13  2  0
 14 16  1  0
 14 15  2  0
 16 17  1  0
 17 20  1  0
 17 18  1  6
 19 18  1  0
 20 21  2  0
 20 22  1  0
M  END
$$$$
