AHC.pdb
     RDKit          3D

 22 22  0  0  1  0  0  0  0  0999 V2000
    8.2085  -12.2651   19.7238 C   0  0  0  0  0  0  0  0  0  0  0  0
    8.4115  -13.7662   19.6408 C   0  0  2  0  0  0  0  0  0  0  0  0
    7.6284  -14.2518   18.5271 N   0  0  0  0  0  0  0  0  0  0  0  0
    7.9977  -14.4021   20.9227 C   0  0  0  0  0  0  0  0  0  0  0  0
    6.7921  -14.5842   21.1358 O   0  0  0  0  0  0  0  0  0  0  0  0
    8.9573  -14.7867   21.8695 N   0  0  0  0  0  0  0  0  0  0  0  0
    8.6538  -15.5270   23.0787 C   0  0  1  0  0  0  0  0  0  0  0  0
    9.4400  -16.7903   23.1417 C   0  0  0  0  0  0  0  0  0  0  0  0
    8.9632  -17.7979   22.1612 C   0  0  0  0  0  0  0  0  0  0  0  0
    7.6242  -18.0768   21.8724 C   0  0  0  0  0  0  0  0  0  0  0  0
    7.5594  -19.0370   20.9434 N   0  0  0  0  0  0  0  0  0  0  0  0
    8.8146  -19.3723   20.6373 C   0  0  0  0  0  0  0  0  0  0  0  0
    9.6630  -18.6302   21.3668 N   0  0  0  0  0  0  0  0  0  0  0  0
    8.8452  -14.6816   24.2906 C   0  0  0  0  0  0  0  0  0  0  0  0
    9.9760  -14.1661   24.4800 O   0  0  0  0  0  0  0  0  0  0  0  0
    7.8169  -14.4300   25.2394 N   0  0  0  0  0  0  0  0  0  0  0  0
    8.0937  -13.6205   26.4041 C   0  0  1  0  0  0  0  0  0  0  0  0
    6.8243  -13.1302   27.0658 C   0  0  0  0  0  0  0  0  0  0  0  0
    5.8807  -12.0124   26.0354 S   0  0  0  0  0  0  0  0  0  0  0  0
    8.8044  -14.4524   27.3886 C   0  0  0  0  0  0  0  0  0  0  0  0
    8.9110  -15.6788   27.2136 O   0  0  0  0  0  0  0  0  0  0  0  0
    9.3544  -13.8715   28.5090 O   0  0  0  0  0  0  0  0  0  0  0  0
  2  1  1  1
  2  3  1  0
  2  4  1  0
  4  5  2  0
  6  4  1  0
  6  7  1  0
  7 14  1  0
  7  8  1  1
  9 13  1  0
  9  8  1  0
 10  9  2  0
 11 10  1  0
 11 12  1  0
 12 13  2  0
 14 16  1  0
 14 15  2  0
 16 17  1  0
 17 20  1  0
 17 18  1  1
 19 18  1  0
 20 21  2  0
 20 22  1  0
M  END
$$$$
