AHC.pdb
     RDKit          3D

 22 22  0  0  1  0  0  0  0  0999 V2000
    8.0647  -12.1710   19.5527 C   0  0  0  0  0  0  0  0  0  0  0  0
    8.5253  -13.5004   18.9852 C   0  0  2  0  0  0  0  0  0  0  0  0
    7.8122  -13.7171   17.7466 N   0  0  0  0  0  0  0  0  0  0  0  0
    8.2608  -14.5869   19.9693 C   0  0  0  0  0  0  0  0  0  0  0  0
    7.1269  -15.0805   20.0218 O   0  0  0  0  0  0  0  0  0  0  0  0
    9.2786  -15.0410   20.8197 N   0  0  0  0  0  0  0  0  0  0  0  0
    9.0903  -16.0481   21.8457 C   0  0  1  0  0  0  0  0  0  0  0  0
   10.0275  -17.1890   21.6510 C   0  0  0  0  0  0  0  0  0  0  0  0
    9.5290  -18.1598   20.6446 C   0  0  0  0  0  0  0  0  0  0  0  0
    8.2899  -18.0949   20.0008 C   0  0  0  0  0  0  0  0  0  0  0  0
    8.1703  -19.1277   19.1592 N   0  0  0  0  0  0  0  0  0  0  0  0
    9.2943  -19.8416   19.2519 C   0  0  0  0  0  0  0  0  0  0  0  0
   10.1150  -19.2641   20.1438 N   0  0  0  0  0  0  0  0  0  0  0  0
    9.1973  -15.4555   23.2086 C   0  0  0  0  0  0  0  0  0  0  0  0
   10.2915  -14.9352   23.5435 O   0  0  0  0  0  0  0  0  0  0  0  0
    8.1278  -15.4492   24.1451 N   0  0  0  0  0  0  0  0  0  0  0  0
    8.3491  -14.9635   25.4881 C   0  0  1  0  0  0  0  0  0  0  0  0
    7.0499  -14.6391   26.1926 C   0  0  0  0  0  0  0  0  0  0  0  0
    6.1411  -13.3086   25.4145 S   0  0  0  0  0  0  0  0  0  0  0  0
    9.0106  -16.0263   26.2623 C   0  0  0  0  0  0  0  0  0  0  0  0
    9.1216  -17.1709   25.7893 O   0  0  0  0  0  0  0  0  0  0  0  0
    9.5092  -15.7535   27.5162 O   0  0  0  0  0  0  0  0  0  0  0  0
  2  1  1  1
  2  3  1  0
  2  4  1  0
  4  5  2  0
  6  4  1  0
  6  7  1  0
  7 14  1  0
  7  8  1  1
  9 13  1  0
  9  8  1  0
 10  9  2  0
 11 10  1  0
 11 12  1  0
 12 13  2  0
 14 16  1  0
 14 15  2  0
 16 17  1  0
 17 20  1  0
 17 18  1  1
 19 18  1  0
 20 21  2  0
 20 22  1  0
M  END
$$$$
