AHC.pdb
     RDKit          3D

 22 22  0  0  1  0  0  0  0  0999 V2000
    9.4761  -18.6044   16.9819 C   0  0  0  0  0  0  0  0  0  0  0  0
    9.3734  -19.1182   18.4055 C   0  0  2  0  0  0  0  0  0  0  0  0
    7.9863  -19.4396   18.6548 N   0  0  0  0  0  0  0  0  0  0  0  0
    9.8769  -18.0839   19.3519 C   0  0  0  0  0  0  0  0  0  0  0  0
   11.0534  -17.7113   19.2569 O   0  0  0  0  0  0  0  0  0  0  0  0
    9.0325  -17.5435   20.3318 N   0  0  0  0  0  0  0  0  0  0  0  0
    9.4448  -16.5433   21.2971 C   0  0  1  0  0  0  0  0  0  0  0  0
    8.3428  -15.5792   21.5695 C   0  0  0  0  0  0  0  0  0  0  0  0
    8.1322  -14.6344   20.4440 C   0  0  0  0  0  0  0  0  0  0  0  0
    8.9361  -14.5401   19.3042 C   0  0  0  0  0  0  0  0  0  0  0  0
    8.4569  -13.5858   18.4987 N   0  0  0  0  0  0  0  0  0  0  0  0
    7.3768  -13.0754   19.0942 C   0  0  0  0  0  0  0  0  0  0  0  0
    7.1768  -13.7024   20.2645 N   0  0  0  0  0  0  0  0  0  0  0  0
    9.9615  -17.1771   22.5426 C   0  0  0  0  0  0  0  0  0  0  0  0
    9.1338  -17.7183   23.3186 O   0  0  0  0  0  0  0  0  0  0  0  0
   11.3384  -17.2003   22.8955 N   0  0  0  0  0  0  0  0  0  0  0  0
   11.7667  -17.9088   24.0801 C   0  0  1  0  0  0  0  0  0  0  0  0
   12.2722  -19.2976   23.7556 C   0  0  0  0  0  0  0  0  0  0  0  0
   10.9566  -20.4857   23.5122 S   0  0  0  0  0  0  0  0  0  0  0  0
   12.8862  -17.1681   24.6840 C   0  0  0  0  0  0  0  0  0  0  0  0
   13.3245  -16.1396   24.1397 O   0  0  0  0  0  0  0  0  0  0  0  0
   13.4518  -17.6148   25.8569 O   0  0  0  0  0  0  0  0  0  0  0  0
  2  1  1  6
  2  3  1  0
  2  4  1  0
  4  5  2  0
  6  4  1  0
  6  7  1  0
  7 14  1  0
  7  8  1  1
  9 13  1  0
  9  8  1  0
 10  9  2  0
 11 10  1  0
 11 12  1  0
 12 13  2  0
 14 16  1  0
 14 15  2  0
 16 17  1  0
 17 20  1  0
 17 18  1  6
 19 18  1  0
 20 21  2  0
 20 22  1  0
M  END
$$$$
