SPR.pdb
     RDKit          3D

 25 25  0  0  1  0  0  0  0  0999 V2000
    8.9337  -17.5753   16.8914 O   0  0  0  0  0  0  0  0  0  0  0  0
    8.0703  -16.6262   16.3686 C   0  0  0  0  0  0  0  0  0  0  0  0
    8.8096  -15.3060   16.1196 C   0  0  2  0  0  0  0  0  0  0  0  0
    9.6488  -15.5100   14.9760 N   0  0  0  0  0  0  0  0  0  0  0  0
    9.4995  -14.8525   17.3334 C   0  0  0  0  0  0  0  0  0  0  0  0
   10.7791  -14.8936   17.2894 O   0  0  0  0  0  0  0  0  0  0  0  0
    8.9086  -14.3864   18.5169 N   0  0  0  0  0  0  0  0  0  0  0  0
    7.5073  -14.3042   18.8831 C   0  0  0  0  0  0  0  0  0  0  0  0
    7.3834  -13.2988   19.9976 C   0  0  0  0  0  0  0  0  0  0  0  0
    8.7673  -12.7076   20.0931 C   0  0  0  0  0  0  0  0  0  0  0  0
    9.6231  -13.8680   19.6693 C   0  0  1  0  0  0  0  0  0  0  0  0
    9.7450  -14.9068   20.7359 C   0  0  0  0  0  0  0  0  0  0  0  0
    8.8616  -15.7711   20.9321 O   0  0  0  0  0  0  0  0  0  0  0  0
   15.4565  -13.8043   19.9874 N   0  0  0  0  0  0  0  0  0  0  0  0
   15.5539  -14.8462   19.0018 C   0  0  0  0  0  0  0  0  0  0  0  0
   15.8598  -14.5375   17.8076 N   0  0  0  0  0  0  0  0  0  0  0  0
   15.2961  -16.1501   19.4539 N   0  0  0  0  0  0  0  0  0  0  0  0
   14.9166  -16.3427   20.8704 C   0  0  0  0  0  0  0  0  0  0  0  0
   13.4373  -16.1556   20.9219 C   0  0  0  0  0  0  0  0  0  0  0  0
   12.7115  -16.2372   22.1769 C   0  0  0  0  0  0  0  0  0  0  0  0
   11.2565  -16.1789   22.3365 C   0  0  2  0  0  0  0  0  0  0  0  0
   10.8892  -14.9304   21.5608 N   0  0  0  0  0  0  0  0  0  0  0  0
   10.6447  -16.0542   23.6515 C   0  0  0  0  0  0  0  0  0  0  0  0
   10.0952  -15.0133   24.0583 O   0  0  0  0  0  0  0  0  0  0  0  0
   10.6247  -17.1146   24.5807 O   0  0  0  0  0  0  0  0  0  0  0  0
  2  1  1  0
  3  2  1  0
  3  4  1  6
  5  7  1  0
  5  3  1  0
  6  5  2  0
  7  8  1  0
  9  8  1  0
 10 11  1  0
 10  9  1  0
 11  7  1  0
 11 12  1  1
 13 12  2  0
 15 14  1  0
 15 16  2  0
 17 15  1  0
 18 17  1  0
 19 18  1  0
 20 19  1  0
 21 22  1  0
 21 20  1  1
 22 12  1  0
 23 21  1  0
 24 23  2  0
 25 23  1  0
M  END
$$$$
