SPR.pdb
     RDKit          3D

 25 25  0  0  1  0  0  0  0  0999 V2000
    7.4314  -17.5028   18.3396 O   0  0  0  0  0  0  0  0  0  0  0  0
    8.1110  -17.4612   17.1330 C   0  0  0  0  0  0  0  0  0  0  0  0
    8.5111  -16.0211   16.7906 C   0  0  2  0  0  0  0  0  0  0  0  0
    9.2628  -16.0781   15.5717 N   0  0  0  0  0  0  0  0  0  0  0  0
    9.1944  -15.3819   17.9218 C   0  0  0  0  0  0  0  0  0  0  0  0
   10.4441  -15.6419   18.0307 O   0  0  0  0  0  0  0  0  0  0  0  0
    8.6263  -14.5294   18.8797 N   0  0  0  0  0  0  0  0  0  0  0  0
    7.2959  -13.9538   18.9352 C   0  0  0  0  0  0  0  0  0  0  0  0
    7.3533  -12.7547   19.8445 C   0  0  0  0  0  0  0  0  0  0  0  0
    8.8252  -12.6045   20.1357 C   0  0  0  0  0  0  0  0  0  0  0  0
    9.2953  -14.0302   20.0674 C   0  0  1  0  0  0  0  0  0  0  0  0
    8.9035  -14.8187   21.2742 C   0  0  0  0  0  0  0  0  0  0  0  0
    7.7794  -15.3572   21.3857 O   0  0  0  0  0  0  0  0  0  0  0  0
   13.1579  -21.4983   19.8397 N   0  0  0  0  0  0  0  0  0  0  0  0
   11.8298  -21.7101   20.3473 C   0  0  0  0  0  0  0  0  0  0  0  0
   11.1717  -22.7210   19.9476 N   0  0  0  0  0  0  0  0  0  0  0  0
   11.3603  -20.7574   21.2654 N   0  0  0  0  0  0  0  0  0  0  0  0
   11.1091  -19.3809   20.7860 C   0  0  0  0  0  0  0  0  0  0  0  0
   10.7327  -18.5935   21.9962 C   0  0  0  0  0  0  0  0  0  0  0  0
   10.4253  -17.1772   21.9071 C   0  0  0  0  0  0  0  0  0  0  0  0
    9.9981  -16.3167   23.0129 C   0  0  2  0  0  0  0  0  0  0  0  0
    9.8198  -14.9731   22.3357 N   0  0  0  0  0  0  0  0  0  0  0  0
   10.8509  -16.0956   24.1717 C   0  0  0  0  0  0  0  0  0  0  0  0
   11.7437  -15.2283   24.2129 O   0  0  0  0  0  0  0  0  0  0  0  0
   10.7328  -16.8543   25.3543 O   0  0  0  0  0  0  0  0  0  0  0  0
  2  1  1  0
  3  2  1  0
  3  4  1  6
  5  7  1  0
  5  3  1  0
  6  5  2  0
  7  8  1  0
  9  8  1  0
 10 11  1  0
 10  9  1  0
 11  7  1  0
 11 12  1  1
 13 12  2  0
 15 14  1  0
 15 16  2  0
 17 15  1  0
 18 17  1  0
 19 18  1  0
 20 19  1  0
 21 22  1  0
 21 20  1  6
 22 12  1  0
 23 21  1  0
 24 23  2  0
 25 23  1  0
M  END
$$$$
