SPR.pdb
     RDKit          3D

 25 25  0  0  1  0  0  0  0  0999 V2000
    8.2312  -17.5229   16.5341 O   0  0  0  0  0  0  0  0  0  0  0  0
    7.5657  -16.4443   15.9743 C   0  0  0  0  0  0  0  0  0  0  0  0
    8.5102  -15.2447   15.8321 C   0  0  2  0  0  0  0  0  0  0  0  0
    9.3919  -15.5382   14.7409 N   0  0  0  0  0  0  0  0  0  0  0  0
    9.1685  -14.9393   17.1081 C   0  0  0  0  0  0  0  0  0  0  0  0
   10.4203  -15.2063   17.1617 O   0  0  0  0  0  0  0  0  0  0  0  0
    8.5749  -14.3937   18.2557 N   0  0  0  0  0  0  0  0  0  0  0  0
    7.1868  -14.0576   18.5104 C   0  0  0  0  0  0  0  0  0  0  0  0
    7.1560  -13.0685   19.6456 C   0  0  0  0  0  0  0  0  0  0  0  0
    8.6120  -12.7487   19.8728 C   0  0  0  0  0  0  0  0  0  0  0  0
    9.2716  -14.0403   19.4792 C   0  0  1  0  0  0  0  0  0  0  0  0
    9.1075  -15.1038   20.5154 C   0  0  0  0  0  0  0  0  0  0  0  0
    8.1177  -15.8692   20.5378 O   0  0  0  0  0  0  0  0  0  0  0  0
   15.9909  -19.5556   19.5637 N   0  0  0  0  0  0  0  0  0  0  0  0
   15.2533  -20.2111   20.6089 C   0  0  0  0  0  0  0  0  0  0  0  0
   15.2871  -21.4792   20.6844 N   0  0  0  0  0  0  0  0  0  0  0  0
   14.5395  -19.3730   21.4802 N   0  0  0  0  0  0  0  0  0  0  0  0
   13.9390  -18.1365   20.9343 C   0  0  0  0  0  0  0  0  0  0  0  0
   12.5613  -18.0704   21.5034 C   0  0  0  0  0  0  0  0  0  0  0  0
   11.8222  -16.8212   21.5425 C   0  0  0  0  0  0  0  0  0  0  0  0
   10.4507  -16.6460   22.0263 C   0  0  2  0  0  0  0  0  0  0  0  0
   10.0929  -15.2666   21.5118 N   0  0  0  0  0  0  0  0  0  0  0  0
   10.1436  -16.6587   23.4492 C   0  0  0  0  0  0  0  0  0  0  0  0
   10.0109  -15.6264   24.1331 O   0  0  0  0  0  0  0  0  0  0  0  0
    9.9694  -17.8547   24.1753 O   0  0  0  0  0  0  0  0  0  0  0  0
  2  1  1  0
  3  2  1  0
  3  4  1  6
  5  7  1  0
  5  3  1  0
  6  5  2  0
  7  8  1  0
  9  8  1  0
 10 11  1  0
 10  9  1  0
 11  7  1  0
 11 12  1  1
 13 12  2  0
 15 14  1  0
 15 16  2  0
 17 15  1  0
 18 17  1  0
 19 18  1  0
 20 19  1  0
 21 22  1  0
 21 20  1  1
 22 12  1  0
 23 21  1  0
 24 23  2  0
 25 23  1  0
M  END
$$$$
