SPR.pdb
     RDKit          3D

 25 25  0  0  1  0  0  0  0  0999 V2000
    8.4233  -17.8992   16.3990 O   0  0  0  0  0  0  0  0  0  0  0  0
    7.2824  -17.1408   16.1919 C   0  0  0  0  0  0  0  0  0  0  0  0
    7.6486  -15.7597   15.6353 C   0  0  2  0  0  0  0  0  0  0  0  0
    8.0874  -15.9596   14.2857 N   0  0  0  0  0  0  0  0  0  0  0  0
    8.6057  -15.0755   16.5133 C   0  0  0  0  0  0  0  0  0  0  0  0
    9.7814  -14.9155   16.0304 O   0  0  0  0  0  0  0  0  0  0  0  0
    8.3666  -14.5876   17.8062 N   0  0  0  0  0  0  0  0  0  0  0  0
    7.1888  -14.7184   18.6430 C   0  0  0  0  0  0  0  0  0  0  0  0
    7.2403  -13.6273   19.6799 C   0  0  0  0  0  0  0  0  0  0  0  0
    8.4161  -12.7875   19.2484 C   0  0  0  0  0  0  0  0  0  0  0  0
    9.3026  -13.8151   18.6029 C   0  0  1  0  0  0  0  0  0  0  0  0
    9.9958  -14.6805   19.6039 C   0  0  0  0  0  0  0  0  0  0  0  0
    9.5491  -15.7986   19.9451 O   0  0  0  0  0  0  0  0  0  0  0  0
   18.2075  -13.0634   17.9948 N   0  0  0  0  0  0  0  0  0  0  0  0
   18.3062  -14.3967   18.5229 C   0  0  0  0  0  0  0  0  0  0  0  0
   19.4178  -15.0079   18.4483 N   0  0  0  0  0  0  0  0  0  0  0  0
   17.1357  -14.9242   19.0909 N   0  0  0  0  0  0  0  0  0  0  0  0
   15.9074  -14.1005   19.0666 C   0  0  0  0  0  0  0  0  0  0  0  0
   14.8395  -14.9488   19.6716 C   0  0  0  0  0  0  0  0  0  0  0  0
   13.4854  -14.4508   19.8359 C   0  0  0  0  0  0  0  0  0  0  0  0
   12.3558  -15.1947   20.3983 C   0  0  2  0  0  0  0  0  0  0  0  0
   11.1977  -14.2390   20.1960 N   0  0  0  0  0  0  0  0  0  0  0  0
   12.3348  -15.5931   21.7983 C   0  0  0  0  0  0  0  0  0  0  0  0
   11.7451  -14.9506   22.6872 O   0  0  0  0  0  0  0  0  0  0  0  0
   12.9880  -16.7521   22.2653 O   0  0  0  0  0  0  0  0  0  0  0  0
  2  1  1  0
  3  2  1  0
  3  4  1  6
  5  7  1  0
  5  3  1  0
  6  5  2  0
  7  8  1  0
  9  8  1  0
 10 11  1  0
 10  9  1  0
 11  7  1  0
 11 12  1  1
 13 12  2  0
 15 14  1  0
 15 16  2  0
 17 15  1  0
 18 17  1  0
 19 18  1  0
 20 19  1  0
 21 22  1  0
 21 20  1  1
 22 12  1  0
 23 21  1  0
 24 23  2  0
 25 23  1  0
M  END
$$$$
