SPR.pdb
     RDKit          3D

 25 25  0  0  1  0  0  0  0  0999 V2000
   11.9838  -18.3850   17.5152 O   0  0  0  0  0  0  0  0  0  0  0  0
   10.6525  -18.7676   17.4863 C   0  0  0  0  0  0  0  0  0  0  0  0
    9.7473  -17.5485   17.2719 C   0  0  2  0  0  0  0  0  0  0  0  0
   10.0853  -17.0011   15.9913 N   0  0  0  0  0  0  0  0  0  0  0  0
    9.8456  -16.6153   18.4009 C   0  0  0  0  0  0  0  0  0  0  0  0
   10.9191  -16.6991   19.0948 O   0  0  0  0  0  0  0  0  0  0  0  0
    8.8983  -15.6571   18.7899 N   0  0  0  0  0  0  0  0  0  0  0  0
    7.5857  -15.3752   18.2401 C   0  0  0  0  0  0  0  0  0  0  0  0
    7.2050  -13.9789   18.6567 C   0  0  0  0  0  0  0  0  0  0  0  0
    8.4583  -13.4529   19.3097 C   0  0  0  0  0  0  0  0  0  0  0  0
    9.0547  -14.7095   19.8784 C   0  0  1  0  0  0  0  0  0  0  0  0
    8.3388  -15.1775   21.1032 C   0  0  0  0  0  0  0  0  0  0  0  0
    8.0508  -16.3807   21.2912 O   0  0  0  0  0  0  0  0  0  0  0  0
    5.7240   -9.8108   27.4708 N   0  0  0  0  0  0  0  0  0  0  0  0
    5.9094  -11.0397   28.1933 C   0  0  0  0  0  0  0  0  0  0  0  0
    5.3392  -11.1838   29.3197 N   0  0  0  0  0  0  0  0  0  0  0  0
    6.7259  -12.0012   27.5771 N   0  0  0  0  0  0  0  0  0  0  0  0
    7.1185  -11.7928   26.1664 C   0  0  0  0  0  0  0  0  0  0  0  0
    7.3939  -13.1528   25.6180 C   0  0  0  0  0  0  0  0  0  0  0  0
    7.7694  -13.3420   24.2282 C   0  0  0  0  0  0  0  0  0  0  0  0
    7.9804  -14.6284   23.5598 C   0  0  2  0  0  0  0  0  0  0  0  0
    7.9665  -14.2449   22.0941 N   0  0  0  0  0  0  0  0  0  0  0  0
    7.0376  -15.7261   23.7181 C   0  0  0  0  0  0  0  0  0  0  0  0
    7.0977  -16.5560   24.6447 O   0  0  0  0  0  0  0  0  0  0  0  0
    5.9679  -15.9400   22.8245 O   0  0  0  0  0  0  0  0  0  0  0  0
  2  1  1  0
  3  2  1  0
  3  4  1  6
  5  7  1  0
  5  3  1  0
  6  5  2  0
  7  8  1  0
  9  8  1  0
 10 11  1  0
 10  9  1  0
 11  7  1  0
 11 12  1  1
 13 12  2  0
 15 14  1  0
 15 16  2  0
 17 15  1  0
 18 17  1  0
 19 18  1  0
 20 19  1  0
 21 22  1  0
 21 20  1  1
 22 12  1  0
 23 21  1  0
 24 23  2  0
 25 23  1  0
M  END
$$$$
