SPR.pdb
     RDKit          3D

 25 25  0  0  1  0  0  0  0  0999 V2000
   10.7455  -17.4910   17.8353 O   0  0  0  0  0  0  0  0  0  0  0  0
   10.1888  -16.7864   16.7802 C   0  0  0  0  0  0  0  0  0  0  0  0
   10.7386  -15.3555   16.7396 C   0  0  2  0  0  0  0  0  0  0  0  0
   12.0741  -15.4388   16.2264 N   0  0  0  0  0  0  0  0  0  0  0  0
   10.6071  -14.7041   18.0486 C   0  0  0  0  0  0  0  0  0  0  0  0
   11.7088  -14.4217   18.6381 O   0  0  0  0  0  0  0  0  0  0  0  0
    9.4165  -14.3655   18.7079 N   0  0  0  0  0  0  0  0  0  0  0  0
    8.0414  -14.5018   18.2662 C   0  0  0  0  0  0  0  0  0  0  0  0
    7.2012  -13.5590   19.0867 C   0  0  0  0  0  0  0  0  0  0  0  0
    8.2204  -12.7731   19.8725 C   0  0  0  0  0  0  0  0  0  0  0  0
    9.3230  -13.7814   20.0337 C   0  0  1  0  0  0  0  0  0  0  0  0
    9.0000  -14.8218   21.0558 C   0  0  0  0  0  0  0  0  0  0  0  0
    8.6158  -15.9709   20.7427 O   0  0  0  0  0  0  0  0  0  0  0  0
   10.1112  -13.7825   29.7267 N   0  0  0  0  0  0  0  0  0  0  0  0
   10.5653  -15.1107   29.4169 C   0  0  0  0  0  0  0  0  0  0  0  0
   11.4568  -15.6432   30.1494 N   0  0  0  0  0  0  0  0  0  0  0  0
    9.9699  -15.7228   28.3025 N   0  0  0  0  0  0  0  0  0  0  0  0
    9.4669  -14.8615   27.2104 C   0  0  0  0  0  0  0  0  0  0  0  0
   10.0092  -15.4481   25.9502 C   0  0  0  0  0  0  0  0  0  0  0  0
    9.6915  -14.8738   24.6550 C   0  0  0  0  0  0  0  0  0  0  0  0
    9.3232  -15.6188   23.4487 C   0  0  2  0  0  0  0  0  0  0  0  0
    9.1269  -14.5169   22.4274 N   0  0  0  0  0  0  0  0  0  0  0  0
    8.1285  -16.4495   23.4085 C   0  0  0  0  0  0  0  0  0  0  0  0
    8.1059  -17.6396   23.7747 O   0  0  0  0  0  0  0  0  0  0  0  0
    6.8865  -15.9674   22.9466 O   0  0  0  0  0  0  0  0  0  0  0  0
  2  1  1  0
  3  2  1  0
  3  4  1  1
  5  7  1  0
  5  3  1  0
  6  5  2  0
  7  8  1  0
  9  8  1  0
 10 11  1  0
 10  9  1  0
 11  7  1  0
 11 12  1  1
 13 12  2  0
 15 14  1  0
 15 16  2  0
 17 15  1  0
 18 17  1  0
 19 18  1  0
 20 19  1  0
 21 22  1  0
 21 20  1  1
 22 12  1  0
 23 21  1  0
 24 23  2  0
 25 23  1  0
M  END
$$$$
