SPR.pdb
     RDKit          3D

 25 25  0  0  1  0  0  0  0  0999 V2000
   10.1404  -13.6520   18.4777 O   0  0  0  0  0  0  0  0  0  0  0  0
    9.0821  -12.7615   18.5594 C   0  0  0  0  0  0  0  0  0  0  0  0
    7.7447  -13.5062   18.4688 C   0  0  2  0  0  0  0  0  0  0  0  0
    6.7119  -12.5194   18.5859 N   0  0  0  0  0  0  0  0  0  0  0  0
    7.6841  -14.5994   19.4466 C   0  0  0  0  0  0  0  0  0  0  0  0
    7.1628  -14.3003   20.5780 O   0  0  0  0  0  0  0  0  0  0  0  0
    8.1320  -15.9167   19.2700 N   0  0  0  0  0  0  0  0  0  0  0  0
    8.7163  -16.5480   18.1019 C   0  0  0  0  0  0  0  0  0  0  0  0
    8.5519  -18.0371   18.2557 C   0  0  0  0  0  0  0  0  0  0  0  0
    7.6864  -18.1702   19.4834 C   0  0  0  0  0  0  0  0  0  0  0  0
    8.0970  -16.9619   20.2769 C   0  0  1  0  0  0  0  0  0  0  0  0
    9.4341  -17.1298   20.9214 C   0  0  0  0  0  0  0  0  0  0  0  0
   10.4942  -17.1849   20.2587 O   0  0  0  0  0  0  0  0  0  0  0  0
    9.0746  -13.5761   28.8244 N   0  0  0  0  0  0  0  0  0  0  0  0
    9.9120  -14.7428   28.8866 C   0  0  0  0  0  0  0  0  0  0  0  0
   10.7661  -14.8385   29.8227 N   0  0  0  0  0  0  0  0  0  0  0  0
    9.7100  -15.7022   27.8818 N   0  0  0  0  0  0  0  0  0  0  0  0
    9.2592  -15.2436   26.5499 C   0  0  0  0  0  0  0  0  0  0  0  0
   10.1297  -15.9477   25.5637 C   0  0  0  0  0  0  0  0  0  0  0  0
    9.9043  -15.8201   24.1349 C   0  0  0  0  0  0  0  0  0  0  0  0
   10.6346  -16.5278   23.0805 C   0  0  2  0  0  0  0  0  0  0  0  0
    9.5251  -17.2311   22.3256 N   0  0  0  0  0  0  0  0  0  0  0  0
   11.6338  -17.5372   23.3998 C   0  0  0  0  0  0  0  0  0  0  0  0
   12.7897  -17.2657   23.7754 O   0  0  0  0  0  0  0  0  0  0  0  0
   11.3696  -18.9192   23.3085 O   0  0  0  0  0  0  0  0  0  0  0  0
  2  1  1  0
  3  2  1  0
  3  4  1  1
  5  7  1  0
  5  3  1  0
  6  5  2  0
  7  8  1  0
  9  8  1  0
 10 11  1  0
 10  9  1  0
 11  7  1  0
 11 12  1  6
 13 12  2  0
 15 14  1  0
 15 16  2  0
 17 15  1  0
 18 17  1  0
 19 18  1  0
 20 19  1  0
 21 22  1  0
 21 20  1  1
 22 12  1  0
 23 21  1  0
 24 23  2  0
 25 23  1  0
M  END
$$$$
