MKQ.pdb
     RDKit          3D

 27 26  0  0  1  0  0  0  0  0999 V2000
    7.4528  -11.3277   26.9364 C   0  0  0  0  0  0  0  0  0  0  0  0
    6.0634  -12.3083   27.5756 S   0  0  0  0  0  0  0  0  0  0  0  0
    5.6839  -13.5856   26.3426 C   0  0  0  0  0  0  0  0  0  0  0  0
    6.9200  -14.1876   25.7565 C   0  0  0  0  0  0  0  0  0  0  0  0
    6.5274  -15.2272   24.7389 C   0  0  2  0  0  0  0  0  0  0  0  0
    5.8067  -16.3237   25.3480 N   0  0  0  0  0  0  0  0  0  0  0  0
    7.6840  -15.7722   24.0043 C   0  0  0  0  0  0  0  0  0  0  0  0
    8.2046  -16.8391   24.3998 O   0  0  0  0  0  0  0  0  0  0  0  0
    8.1865  -15.1022   22.8842 N   0  0  0  0  0  0  0  0  0  0  0  0
    9.3704  -15.5657   22.1441 C   0  0  1  0  0  0  0  0  0  0  0  0
    9.4833  -14.6208   20.9663 C   0  0  0  0  0  0  0  0  0  0  0  0
    8.3730  -14.7398   19.9862 C   0  0  0  0  0  0  0  0  0  0  0  0
    8.6943  -13.9483   18.7491 C   0  0  0  0  0  0  0  0  0  0  0  0
    7.6112  -14.0252   17.7235 C   0  0  0  0  0  0  0  0  0  0  0  0
    8.0087  -13.2251   16.5802 N   0  0  0  0  0  0  0  0  0  0  0  0
   10.5102  -15.5158   23.0667 C   0  0  0  0  0  0  0  0  0  0  0  0
   10.9729  -14.3981   23.4054 O   0  0  0  0  0  0  0  0  0  0  0  0
   11.3242  -14.5677   28.0638 N   0  0  0  0  0  0  0  0  0  0  0  0
   10.6680  -15.8430   27.9678 C   0  0  0  0  0  0  0  0  0  0  0  0
   10.0441  -16.2477   28.9578 O   0  0  0  0  0  0  0  0  0  0  0  0
   10.8099  -16.5449   26.6827 C   0  0  0  0  0  0  0  0  0  0  0  0
   11.6642  -15.8071   25.7204 C   0  0  0  0  0  0  0  0  0  0  0  0
   12.1649  -16.5784   24.5487 C   0  0  2  0  0  0  0  0  0  0  0  0
   11.0957  -16.6822   23.5788 N   0  0  0  0  0  0  0  0  0  0  0  0
   12.6926  -17.9192   24.9204 C   0  0  0  0  0  0  0  0  0  0  0  0
   13.7529  -17.9504   25.5955 O   0  0  0  0  0  0  0  0  0  0  0  0
   12.0941  -19.0965   24.5716 O   0  0  0  0  0  0  0  0  0  0  0  0
  1  2  1  0
  3  4  1  0
  3  2  1  0
  4  5  1  0
  5  6  1  1
  7  8  2  0
  7  5  1  0
  9  7  1  0
 10  9  1  0
 10 11  1  6
 11 12  1  0
 12 13  1  0
 13 14  1  0
 14 15  1  0
 16 10  1  0
 17 16  2  0
 19 18  1  0
 19 21  1  0
 20 19  2  0
 23 22  1  1
 22 21  1  0
 23 24  1  0
 24 16  1  0
 25 23  1  0
 26 25  2  0
 27 25  1  0
M  END
$$$$
