MKQ.pdb
     RDKit          3D

 27 26  0  0  1  0  0  0  0  0999 V2000
    6.4092  -11.1563   26.8017 C   0  0  0  0  0  0  0  0  0  0  0  0
    6.7962  -12.5473   27.9043 S   0  0  0  0  0  0  0  0  0  0  0  0
    6.2216  -14.0650   27.0906 C   0  0  0  0  0  0  0  0  0  0  0  0
    7.1182  -14.4763   25.9678 C   0  0  0  0  0  0  0  0  0  0  0  0
    6.5394  -15.6942   25.2953 C   0  0  2  0  0  0  0  0  0  0  0  0
    6.4957  -16.8282   26.1923 N   0  0  0  0  0  0  0  0  0  0  0  0
    7.2798  -16.0812   24.0802 C   0  0  0  0  0  0  0  0  0  0  0  0
    7.8961  -17.1701   24.0676 O   0  0  0  0  0  0  0  0  0  0  0  0
    7.2892  -15.2399   22.9629 N   0  0  0  0  0  0  0  0  0  0  0  0
    8.1619  -15.4691   21.8011 C   0  0  1  0  0  0  0  0  0  0  0  0
    7.7419  -14.4225   20.7907 C   0  0  0  0  0  0  0  0  0  0  0  0
    8.5127  -14.4633   19.5210 C   0  0  0  0  0  0  0  0  0  0  0  0
    7.8110  -13.6500   18.4693 C   0  0  0  0  0  0  0  0  0  0  0  0
    8.4959  -13.7161   17.1436 C   0  0  0  0  0  0  0  0  0  0  0  0
    7.8691  -12.7526   16.2582 N   0  0  0  0  0  0  0  0  0  0  0  0
    9.5484  -15.3374   22.2627 C   0  0  0  0  0  0  0  0  0  0  0  0
    9.8347  -14.4313   23.0844 O   0  0  0  0  0  0  0  0  0  0  0  0
   11.2205  -16.7747   26.3795 N   0  0  0  0  0  0  0  0  0  0  0  0
   11.1428  -17.9407   25.5426 C   0  0  0  0  0  0  0  0  0  0  0  0
   10.6579  -18.9704   26.0300 O   0  0  0  0  0  0  0  0  0  0  0  0
   11.6568  -17.7856   24.1729 C   0  0  0  0  0  0  0  0  0  0  0  0
   11.8630  -16.3653   23.7980 C   0  0  0  0  0  0  0  0  0  0  0  0
   11.9007  -16.0612   22.3404 C   0  0  2  0  0  0  0  0  0  0  0  0
   10.5607  -16.1954   21.8104 N   0  0  0  0  0  0  0  0  0  0  0  0
   12.8668  -16.9134   21.5956 C   0  0  0  0  0  0  0  0  0  0  0  0
   12.3977  -17.6678   20.7056 O   0  0  0  0  0  0  0  0  0  0  0  0
   14.2133  -16.9175   21.8257 O   0  0  0  0  0  0  0  0  0  0  0  0
  1  2  1  0
  3  4  1  0
  3  2  1  0
  4  5  1  0
  5  6  1  1
  7  8  2  0
  7  5  1  0
  9  7  1  0
 10  9  1  0
 10 11  1  6
 11 12  1  0
 12 13  1  0
 13 14  1  0
 14 15  1  0
 16 10  1  0
 17 16  2  0
 19 18  1  0
 19 21  1  0
 20 19  2  0
 23 22  1  1
 22 21  1  0
 23 24  1  0
 24 16  1  0
 25 23  1  0
 26 25  2  0
 27 25  1  0
M  END
$$$$
