MKQ.pdb
     RDKit          3D

 27 26  0  0  1  0  0  0  0  0999 V2000
    7.9419  -11.3698   21.3112 C   0  0  0  0  0  0  0  0  0  0  0  0
    7.5510  -12.2164   19.7520 S   0  0  0  0  0  0  0  0  0  0  0  0
    8.4807  -13.7755   19.7295 C   0  0  0  0  0  0  0  0  0  0  0  0
    8.2410  -14.5920   20.9582 C   0  0  0  0  0  0  0  0  0  0  0  0
    9.4901  -15.3686   21.2856 C   0  0  2  0  0  0  0  0  0  0  0  0
    9.9182  -16.1844   20.1703 N   0  0  0  0  0  0  0  0  0  0  0  0
    9.3308  -16.2331   22.4695 C   0  0  0  0  0  0  0  0  0  0  0  0
    8.8522  -15.7435   23.5168 O   0  0  0  0  0  0  0  0  0  0  0  0
    9.7110  -17.5780   22.4162 N   0  0  0  0  0  0  0  0  0  0  0  0
    9.7254  -18.4488   23.6017 C   0  0  1  0  0  0  0  0  0  0  0  0
   10.2011  -19.7915   23.0884 C   0  0  0  0  0  0  0  0  0  0  0  0
    9.1915  -20.5226   22.2797 C   0  0  0  0  0  0  0  0  0  0  0  0
    9.7918  -21.7875   21.7322 C   0  0  0  0  0  0  0  0  0  0  0  0
    8.8060  -22.6005   20.9589 C   0  0  0  0  0  0  0  0  0  0  0  0
    9.4898  -23.7679   20.4343 N   0  0  0  0  0  0  0  0  0  0  0  0
   10.6191  -17.8307   24.5877 C   0  0  0  0  0  0  0  0  0  0  0  0
   11.3929  -16.9124   24.2189 O   0  0  0  0  0  0  0  0  0  0  0  0
    8.0970  -14.2421   26.0697 N   0  0  0  0  0  0  0  0  0  0  0  0
    8.5293  -14.1927   27.4397 C   0  0  0  0  0  0  0  0  0  0  0  0
    8.2612  -13.1763   28.0939 O   0  0  0  0  0  0  0  0  0  0  0  0
    9.2574  -15.3741   27.9280 C   0  0  0  0  0  0  0  0  0  0  0  0
    9.4437  -16.4045   26.8773 C   0  0  0  0  0  0  0  0  0  0  0  0
   10.6708  -17.2426   26.9782 C   0  0  2  0  0  0  0  0  0  0  0  0
   10.6319  -18.2386   25.9290 N   0  0  0  0  0  0  0  0  0  0  0  0
   10.8347  -17.8709   28.3172 C   0  0  0  0  0  0  0  0  0  0  0  0
   11.2821  -17.1437   29.2403 O   0  0  0  0  0  0  0  0  0  0  0  0
   10.5293  -19.1742   28.5891 O   0  0  0  0  0  0  0  0  0  0  0  0
  1  2  1  0
  3  4  1  0
  3  2  1  0
  4  5  1  0
  5  6  1  6
  7  8  2  0
  7  5  1  0
  9  7  1  0
 10  9  1  0
 10 11  1  6
 11 12  1  0
 12 13  1  0
 13 14  1  0
 14 15  1  0
 16 10  1  0
 17 16  2  0
 19 18  1  0
 19 21  1  0
 20 19  2  0
 23 22  1  1
 22 21  1  0
 23 24  1  0
 24 16  1  0
 25 23  1  0
 26 25  2  0
 27 25  1  0
M  END
$$$$
