MKQ.pdb
     RDKit          3D

 27 26  0  0  1  0  0  0  0  0999 V2000
    8.1122  -11.5338   20.3608 C   0  0  0  0  0  0  0  0  0  0  0  0
    7.1779  -12.3886   19.0582 S   0  0  0  0  0  0  0  0  0  0  0  0
    7.5235  -14.1639   19.2140 C   0  0  0  0  0  0  0  0  0  0  0  0
    7.0898  -14.7082   20.5367 C   0  0  0  0  0  0  0  0  0  0  0  0
    8.0544  -15.7824   20.9681 C   0  0  2  0  0  0  0  0  0  0  0  0
    8.0612  -16.8953   20.0439 N   0  0  0  0  0  0  0  0  0  0  0  0
    7.7708  -16.2941   22.3217 C   0  0  0  0  0  0  0  0  0  0  0  0
    7.5109  -15.4793   23.2350 O   0  0  0  0  0  0  0  0  0  0  0  0
    7.7938  -17.6695   22.5741 N   0  0  0  0  0  0  0  0  0  0  0  0
    7.5421  -18.2386   23.9071 C   0  0  1  0  0  0  0  0  0  0  0  0
    7.4892  -19.7353   23.6838 C   0  0  0  0  0  0  0  0  0  0  0  0
    6.2263  -20.3712   24.1404 C   0  0  0  0  0  0  0  0  0  0  0  0
    5.6394  -21.1993   23.0315 C   0  0  0  0  0  0  0  0  0  0  0  0
    4.3164  -21.7885   23.3963 C   0  0  0  0  0  0  0  0  0  0  0  0
    3.7853  -22.4723   22.2319 N   0  0  0  0  0  0  0  0  0  0  0  0
    8.6337  -17.7993   24.7835 C   0  0  0  0  0  0  0  0  0  0  0  0
    9.8002  -17.7376   24.3214 O   0  0  0  0  0  0  0  0  0  0  0  0
    9.7122  -13.0688   29.3586 N   0  0  0  0  0  0  0  0  0  0  0  0
    9.1437  -13.2854   28.0563 C   0  0  0  0  0  0  0  0  0  0  0  0
    8.2553  -12.5105   27.6776 O   0  0  0  0  0  0  0  0  0  0  0  0
    9.6856  -14.4239   27.2984 C   0  0  0  0  0  0  0  0  0  0  0  0
    9.0100  -15.7026   27.6280 C   0  0  0  0  0  0  0  0  0  0  0  0
    9.4969  -16.9153   26.9134 C   0  0  2  0  0  0  0  0  0  0  0  0
    8.4086  -17.4477   26.1219 N   0  0  0  0  0  0  0  0  0  0  0  0
   10.0538  -17.9447   27.8325 C   0  0  0  0  0  0  0  0  0  0  0  0
    9.3576  -18.9730   28.0300 O   0  0  0  0  0  0  0  0  0  0  0  0
   11.2613  -17.8311   28.4609 O   0  0  0  0  0  0  0  0  0  0  0  0
  1  2  1  0
  3  4  1  0
  3  2  1  0
  4  5  1  0
  5  6  1  6
  7  8  2  0
  7  5  1  0
  9  7  1  0
 10  9  1  0
 10 11  1  6
 11 12  1  0
 12 13  1  0
 13 14  1  0
 14 15  1  0
 16 10  1  0
 17 16  2  0
 19 18  1  0
 19 21  1  0
 20 19  2  0
 23 22  1  1
 22 21  1  0
 23 24  1  0
 24 16  1  0
 25 23  1  0
 26 25  2  0
 27 25  1  0
M  END
$$$$
