MKQ.pdb
     RDKit          3D

 27 26  0  0  1  0  0  0  0  0999 V2000
    8.1954  -11.9704   20.3716 C   0  0  0  0  0  0  0  0  0  0  0  0
    6.5294  -12.6925   20.3092 S   0  0  0  0  0  0  0  0  0  0  0  0
    6.7044  -14.4253   19.7970 C   0  0  0  0  0  0  0  0  0  0  0  0
    7.9631  -15.0418   20.3163 C   0  0  0  0  0  0  0  0  0  0  0  0
    8.0370  -16.4745   19.8554 C   0  0  2  0  0  0  0  0  0  0  0  0
    6.8920  -17.2377   20.3016 N   0  0  0  0  0  0  0  0  0  0  0  0
    9.2642  -17.1564   20.3063 C   0  0  0  0  0  0  0  0  0  0  0  0
    9.2324  -17.8233   21.3646 O   0  0  0  0  0  0  0  0  0  0  0  0
   10.4418  -17.0551   19.5586 N   0  0  0  0  0  0  0  0  0  0  0  0
   11.7000  -17.7009   19.9636 C   0  0  1  0  0  0  0  0  0  0  0  0
   12.5558  -17.6958   18.7145 C   0  0  0  0  0  0  0  0  0  0  0  0
   12.2021  -18.7547   17.7341 C   0  0  0  0  0  0  0  0  0  0  0  0
   13.0637  -18.6272   16.5088 C   0  0  0  0  0  0  0  0  0  0  0  0
   12.7832  -19.6914   15.4990 C   0  0  0  0  0  0  0  0  0  0  0  0
   13.5737  -19.4149   14.3140 N   0  0  0  0  0  0  0  0  0  0  0  0
   12.2541  -16.9203   21.0756 C   0  0  0  0  0  0  0  0  0  0  0  0
   12.4163  -15.6830   20.9316 O   0  0  0  0  0  0  0  0  0  0  0  0
   11.5690  -18.1655   26.9503 N   0  0  0  0  0  0  0  0  0  0  0  0
   12.8923  -18.6439   26.6567 C   0  0  0  0  0  0  0  0  0  0  0  0
   13.4184  -19.4205   27.4650 O   0  0  0  0  0  0  0  0  0  0  0  0
   13.4923  -18.1518   25.4069 C   0  0  0  0  0  0  0  0  0  0  0  0
   12.5892  -17.2432   24.6591 C   0  0  0  0  0  0  0  0  0  0  0  0
   13.1092  -16.6986   23.3740 C   0  0  2  0  0  0  0  0  0  0  0  0
   12.6072  -17.5194   22.2930 N   0  0  0  0  0  0  0  0  0  0  0  0
   14.5942  -16.6077   23.3420 C   0  0  0  0  0  0  0  0  0  0  0  0
   15.2079  -17.4876   22.6861 O   0  0  0  0  0  0  0  0  0  0  0  0
   15.3113  -15.6342   23.9776 O   0  0  0  0  0  0  0  0  0  0  0  0
  1  2  1  0
  3  4  1  0
  3  2  1  0
  4  5  1  0
  5  6  1  1
  7  8  2  0
  7  5  1  0
  9  7  1  0
 10  9  1  0
 10 11  1  6
 11 12  1  0
 12 13  1  0
 13 14  1  0
 14 15  1  0
 16 10  1  0
 17 16  2  0
 19 18  1  0
 19 21  1  0
 20 19  2  0
 23 22  1  1
 22 21  1  0
 23 24  1  0
 24 16  1  0
 25 23  1  0
 26 25  2  0
 27 25  1  0
M  END
$$$$
