MKQ.pdb
     RDKit          3D

 27 26  0  0  1  0  0  0  0  0999 V2000
    6.9827  -10.7074   25.4537 C   0  0  0  0  0  0  0  0  0  0  0  0
    5.8331  -11.5088   26.6097 S   0  0  0  0  0  0  0  0  0  0  0  0
    5.4622  -13.1604   25.9537 C   0  0  0  0  0  0  0  0  0  0  0  0
    6.6974  -13.9781   25.7554 C   0  0  0  0  0  0  0  0  0  0  0  0
    6.3289  -15.2711   25.0750 C   0  0  2  0  0  0  0  0  0  0  0  0
    5.5214  -16.1126   25.9309 N   0  0  0  0  0  0  0  0  0  0  0  0
    7.5072  -16.0394   24.6328 C   0  0  0  0  0  0  0  0  0  0  0  0
    8.0314  -16.8538   25.4250 O   0  0  0  0  0  0  0  0  0  0  0  0
    8.0261  -15.8558   23.3470 N   0  0  0  0  0  0  0  0  0  0  0  0
    9.1540  -16.6421   22.8240 C   0  0  1  0  0  0  0  0  0  0  0  0
    9.1669  -16.3561   21.3371 C   0  0  0  0  0  0  0  0  0  0  0  0
   10.2677  -17.0297   20.6007 C   0  0  0  0  0  0  0  0  0  0  0  0
   10.1600  -16.7301   19.1315 C   0  0  0  0  0  0  0  0  0  0  0  0
    9.8825  -17.9512   18.3175 C   0  0  0  0  0  0  0  0  0  0  0  0
    9.9290  -17.5841   16.9145 N   0  0  0  0  0  0  0  0  0  0  0  0
   10.3608  -16.2005   23.5320 C   0  0  0  0  0  0  0  0  0  0  0  0
   10.6319  -14.9745   23.5700 O   0  0  0  0  0  0  0  0  0  0  0  0
   11.1945  -14.2681   28.0369 N   0  0  0  0  0  0  0  0  0  0  0  0
   11.2376  -15.6730   28.3377 C   0  0  0  0  0  0  0  0  0  0  0  0
   10.9721  -16.0244   29.4949 O   0  0  0  0  0  0  0  0  0  0  0  0
   11.5992  -16.5598   27.2210 C   0  0  0  0  0  0  0  0  0  0  0  0
   11.9985  -15.8115   26.0040 C   0  0  0  0  0  0  0  0  0  0  0  0
   12.4109  -16.6267   24.8277 C   0  0  2  0  0  0  0  0  0  0  0  0
   11.2182  -17.1108   24.1660 N   0  0  0  0  0  0  0  0  0  0  0  0
   13.3229  -17.7456   25.1893 C   0  0  0  0  0  0  0  0  0  0  0  0
   14.4745  -17.4391   25.5904 O   0  0  0  0  0  0  0  0  0  0  0  0
   12.9784  -19.0650   25.1090 O   0  0  0  0  0  0  0  0  0  0  0  0
  1  2  1  0
  3  4  1  0
  3  2  1  0
  4  5  1  0
  5  6  1  1
  7  8  2  0
  7  5  1  0
  9  7  1  0
 10  9  1  0
 10 11  1  6
 11 12  1  0
 12 13  1  0
 13 14  1  0
 14 15  1  0
 16 10  1  0
 17 16  2  0
 19 18  1  0
 19 21  1  0
 20 19  2  0
 23 22  1  1
 22 21  1  0
 23 24  1  0
 24 16  1  0
 25 23  1  0
 26 25  2  0
 27 25  1  0
M  END
$$$$
