MKQ.pdb
     RDKit          3D

 27 26  0  0  1  0  0  0  0  0999 V2000
    6.8984  -10.7935   26.3915 C   0  0  0  0  0  0  0  0  0  0  0  0
    6.1065  -12.0783   27.4027 S   0  0  0  0  0  0  0  0  0  0  0  0
    5.6774  -13.4543   26.2990 C   0  0  0  0  0  0  0  0  0  0  0  0
    6.8656  -14.2942   25.9577 C   0  0  0  0  0  0  0  0  0  0  0  0
    6.4520  -15.3564   24.9722 C   0  0  2  0  0  0  0  0  0  0  0  0
    5.5710  -16.3311   25.5775 N   0  0  0  0  0  0  0  0  0  0  0  0
    7.6020  -16.0632   24.3786 C   0  0  0  0  0  0  0  0  0  0  0  0
    8.1049  -17.0277   24.9970 O   0  0  0  0  0  0  0  0  0  0  0  0
    8.1180  -15.6567   23.1438 N   0  0  0  0  0  0  0  0  0  0  0  0
    9.2802  -16.3030   22.5150 C   0  0  1  0  0  0  0  0  0  0  0  0
    9.2770  -15.7979   21.0876 C   0  0  0  0  0  0  0  0  0  0  0  0
   10.3806  -16.3379   20.2520 C   0  0  0  0  0  0  0  0  0  0  0  0
   10.1009  -17.7719   19.8979 C   0  0  0  0  0  0  0  0  0  0  0  0
   11.0885  -18.3234   18.9226 C   0  0  0  0  0  0  0  0  0  0  0  0
   10.7691  -19.7198   18.6909 N   0  0  0  0  0  0  0  0  0  0  0  0
   10.4665  -15.9167   23.2872 C   0  0  0  0  0  0  0  0  0  0  0  0
   10.7550  -14.6987   23.3944 O   0  0  0  0  0  0  0  0  0  0  0  0
   12.4309  -17.4081   28.5513 N   0  0  0  0  0  0  0  0  0  0  0  0
   11.6518  -16.2490   28.2115 C   0  0  0  0  0  0  0  0  0  0  0  0
   11.0134  -15.6961   29.1170 O   0  0  0  0  0  0  0  0  0  0  0  0
   11.6949  -15.8352   26.8003 C   0  0  0  0  0  0  0  0  0  0  0  0
   12.4921  -16.7603   25.9583 C   0  0  0  0  0  0  0  0  0  0  0  0
   12.5395  -16.4585   24.5005 C   0  0  2  0  0  0  0  0  0  0  0  0
   11.2855  -16.8708   23.9071 N   0  0  0  0  0  0  0  0  0  0  0  0
   13.6985  -17.0921   23.8152 C   0  0  0  0  0  0  0  0  0  0  0  0
   14.8467  -16.7394   24.1871 O   0  0  0  0  0  0  0  0  0  0  0  0
   13.5802  -18.0208   22.8204 O   0  0  0  0  0  0  0  0  0  0  0  0
  1  2  1  0
  3  4  1  0
  3  2  1  0
  4  5  1  0
  5  6  1  1
  7  8  2  0
  7  5  1  0
  9  7  1  0
 10  9  1  0
 10 11  1  6
 11 12  1  0
 12 13  1  0
 13 14  1  0
 14 15  1  0
 16 10  1  0
 17 16  2  0
 19 18  1  0
 19 21  1  0
 20 19  2  0
 23 22  1  1
 22 21  1  0
 23 24  1  0
 24 16  1  0
 25 23  1  0
 26 25  2  0
 27 25  1  0
M  END
$$$$
