MKQ.pdb
     RDKit          3D

 27 26  0  0  1  0  0  0  0  0999 V2000
    6.4538  -10.7920   26.5402 C   0  0  0  0  0  0  0  0  0  0  0  0
    5.9535  -11.9516   27.8461 S   0  0  0  0  0  0  0  0  0  0  0  0
    5.6421  -13.5580   27.0597 C   0  0  0  0  0  0  0  0  0  0  0  0
    6.7565  -13.9657   26.1510 C   0  0  0  0  0  0  0  0  0  0  0  0
    6.3586  -15.2183   25.4140 C   0  0  2  0  0  0  0  0  0  0  0  0
    6.1789  -16.3339   26.3172 N   0  0  0  0  0  0  0  0  0  0  0  0
    7.3323  -15.6032   24.3757 C   0  0  0  0  0  0  0  0  0  0  0  0
    8.1143  -16.5536   24.6012 O   0  0  0  0  0  0  0  0  0  0  0  0
    7.3762  -14.9126   23.1602 N   0  0  0  0  0  0  0  0  0  0  0  0
    8.3009  -15.2712   22.0739 C   0  0  1  0  0  0  0  0  0  0  0  0
    7.8968  -14.3846   20.9148 C   0  0  0  0  0  0  0  0  0  0  0  0
    8.6765  -14.6199   19.6721 C   0  0  0  0  0  0  0  0  0  0  0  0
    8.0947  -13.8168   18.5422 C   0  0  0  0  0  0  0  0  0  0  0  0
    8.7303  -14.1340   17.2284 C   0  0  0  0  0  0  0  0  0  0  0  0
    8.1091  -13.3077   16.2103 N   0  0  0  0  0  0  0  0  0  0  0  0
    9.6638  -15.0364   22.5641 C   0  0  0  0  0  0  0  0  0  0  0  0
    9.9520  -13.9156   23.0527 O   0  0  0  0  0  0  0  0  0  0  0  0
   11.3940  -15.4364   27.4063 N   0  0  0  0  0  0  0  0  0  0  0  0
   11.4873  -16.8169   27.0170 C   0  0  0  0  0  0  0  0  0  0  0  0
   11.5819  -17.6651   27.9141 O   0  0  0  0  0  0  0  0  0  0  0  0
   11.4608  -17.0810   25.5700 C   0  0  0  0  0  0  0  0  0  0  0  0
   11.3684  -15.8389   24.7645 C   0  0  0  0  0  0  0  0  0  0  0  0
   11.8202  -15.9297   23.3482 C   0  0  2  0  0  0  0  0  0  0  0  0
   10.6514  -16.0295   22.5007 N   0  0  0  0  0  0  0  0  0  0  0  0
   12.7604  -17.0586   23.1113 C   0  0  0  0  0  0  0  0  0  0  0  0
   13.9314  -16.9307   23.5509 O   0  0  0  0  0  0  0  0  0  0  0  0
   12.4215  -18.2061   22.4523 O   0  0  0  0  0  0  0  0  0  0  0  0
  1  2  1  0
  3  4  1  0
  3  2  1  0
  4  5  1  0
  5  6  1  1
  7  8  2  0
  7  5  1  0
  9  7  1  0
 10  9  1  0
 10 11  1  6
 11 12  1  0
 12 13  1  0
 13 14  1  0
 14 15  1  0
 16 10  1  0
 17 16  2  0
 19 18  1  0
 19 21  1  0
 20 19  2  0
 23 22  1  1
 22 21  1  0
 23 24  1  0
 24 16  1  0
 25 23  1  0
 26 25  2  0
 27 25  1  0
M  END
$$$$
