MKQ.pdb
     RDKit          3D

 27 26  0  0  1  0  0  0  0  0999 V2000
    7.3931  -11.3121   27.8340 C   0  0  0  0  0  0  0  0  0  0  0  0
    6.4177  -11.1023   26.3158 S   0  0  0  0  0  0  0  0  0  0  0  0
    5.8875  -12.7522   25.7752 C   0  0  0  0  0  0  0  0  0  0  0  0
    7.0457  -13.6284   25.4221 C   0  0  0  0  0  0  0  0  0  0  0  0
    6.5290  -14.9125   24.8266 C   0  0  2  0  0  0  0  0  0  0  0  0
    5.6735  -15.6228   25.7519 N   0  0  0  0  0  0  0  0  0  0  0  0
    7.6105  -15.8167   24.3939 C   0  0  0  0  0  0  0  0  0  0  0  0
    7.9517  -16.7564   25.1464 O   0  0  0  0  0  0  0  0  0  0  0  0
    8.2410  -15.6215   23.1609 N   0  0  0  0  0  0  0  0  0  0  0  0
    9.2916  -16.5174   22.6533 C   0  0  1  0  0  0  0  0  0  0  0  0
    9.3844  -16.2043   21.1747 C   0  0  0  0  0  0  0  0  0  0  0  0
    8.5856  -17.1130   20.3123 C   0  0  0  0  0  0  0  0  0  0  0  0
    8.7663  -16.7387   18.8675 C   0  0  0  0  0  0  0  0  0  0  0  0
    7.9522  -17.5906   17.9498 C   0  0  0  0  0  0  0  0  0  0  0  0
    8.1572  -17.1225   16.5917 N   0  0  0  0  0  0  0  0  0  0  0  0
   10.5162  -16.2271   23.4076 C   0  0  0  0  0  0  0  0  0  0  0  0
   11.0035  -15.0703   23.3585 O   0  0  0  0  0  0  0  0  0  0  0  0
   11.7640  -16.8513   29.7309 N   0  0  0  0  0  0  0  0  0  0  0  0
   11.3435  -17.6049   28.5813 C   0  0  0  0  0  0  0  0  0  0  0  0
   11.0116  -18.7852   28.7540 O   0  0  0  0  0  0  0  0  0  0  0  0
   11.3528  -16.8828   27.2996 C   0  0  0  0  0  0  0  0  0  0  0  0
   12.2216  -17.5297   26.2862 C   0  0  0  0  0  0  0  0  0  0  0  0
   12.3194  -16.8512   24.9639 C   0  0  2  0  0  0  0  0  0  0  0  0
   11.1557  -17.2066   24.1803 N   0  0  0  0  0  0  0  0  0  0  0  0
   13.5795  -17.1717   24.2401 C   0  0  0  0  0  0  0  0  0  0  0  0
   13.5106  -18.0269   23.3210 O   0  0  0  0  0  0  0  0  0  0  0  0
   14.7856  -16.5940   24.5188 O   0  0  0  0  0  0  0  0  0  0  0  0
  1  2  1  0
  3  4  1  0
  3  2  1  0
  4  5  1  0
  5  6  1  1
  7  8  2  0
  7  5  1  0
  9  7  1  0
 10  9  1  0
 10 11  1  6
 11 12  1  0
 12 13  1  0
 13 14  1  0
 14 15  1  0
 16 10  1  0
 17 16  2  0
 19 18  1  0
 19 21  1  0
 20 19  2  0
 23 22  1  1
 22 21  1  0
 23 24  1  0
 24 16  1  0
 25 23  1  0
 26 25  2  0
 27 25  1  0
M  END
$$$$
