MKQ.pdb
     RDKit          3D

 27 26  0  0  1  0  0  0  0  0999 V2000
    5.4105  -11.0964   27.9246 C   0  0  0  0  0  0  0  0  0  0  0  0
    6.8814  -11.9172   27.2441 S   0  0  0  0  0  0  0  0  0  0  0  0
    6.3081  -13.2871   26.2000 C   0  0  0  0  0  0  0  0  0  0  0  0
    7.4416  -14.0101   25.5470 C   0  0  0  0  0  0  0  0  0  0  0  0
    6.8907  -15.1274   24.6991 C   0  0  2  0  0  0  0  0  0  0  0  0
    6.1821  -16.1032   25.4981 N   0  0  0  0  0  0  0  0  0  0  0  0
    7.9337  -15.8212   23.9213 C   0  0  0  0  0  0  0  0  0  0  0  0
    8.3435  -16.9354   24.3167 O   0  0  0  0  0  0  0  0  0  0  0  0
    8.4529  -15.2376   22.7612 N   0  0  0  0  0  0  0  0  0  0  0  0
    9.5169  -15.8647   21.9621 C   0  0  1  0  0  0  0  0  0  0  0  0
    9.6076  -15.0194   20.7092 C   0  0  0  0  0  0  0  0  0  0  0  0
    8.3273  -14.9014   19.9646 C   0  0  0  0  0  0  0  0  0  0  0  0
    8.5367  -14.1028   18.7082 C   0  0  0  0  0  0  0  0  0  0  0  0
    7.2807  -13.9427   17.9161 C   0  0  0  0  0  0  0  0  0  0  0  0
    7.5854  -13.1621   16.7315 N   0  0  0  0  0  0  0  0  0  0  0  0
   10.7360  -15.8628   22.7786 C   0  0  0  0  0  0  0  0  0  0  0  0
   10.8165  -15.0746   23.7534 O   0  0  0  0  0  0  0  0  0  0  0  0
    9.9649  -18.7718   26.4109 N   0  0  0  0  0  0  0  0  0  0  0  0
   11.3404  -19.1223   26.6378 C   0  0  0  0  0  0  0  0  0  0  0  0
   11.6496  -19.5541   27.7563 O   0  0  0  0  0  0  0  0  0  0  0  0
   12.2508  -18.9271   25.4988 C   0  0  0  0  0  0  0  0  0  0  0  0
   11.6374  -18.1316   24.4074 C   0  0  0  0  0  0  0  0  0  0  0  0
   12.5636  -17.3001   23.5894 C   0  0  2  0  0  0  0  0  0  0  0  0
   11.8121  -16.7168   22.4988 N   0  0  0  0  0  0  0  0  0  0  0  0
   13.7400  -18.0630   23.0910 C   0  0  0  0  0  0  0  0  0  0  0  0
   13.6259  -18.6255   21.9723 O   0  0  0  0  0  0  0  0  0  0  0  0
   14.9164  -18.1809   23.7752 O   0  0  0  0  0  0  0  0  0  0  0  0
  1  2  1  0
  3  4  1  0
  3  2  1  0
  4  5  1  0
  5  6  1  1
  7  8  2  0
  7  5  1  0
  9  7  1  0
 10  9  1  0
 10 11  1  6
 11 12  1  0
 12 13  1  0
 13 14  1  0
 14 15  1  0
 16 10  1  0
 17 16  2  0
 19 18  1  0
 19 21  1  0
 20 19  2  0
 23 22  1  6
 22 21  1  0
 23 24  1  0
 24 16  1  0
 25 23  1  0
 26 25  2  0
 27 25  1  0
M  END
$$$$
