MKQ.pdb
     RDKit          3D

 27 26  0  0  1  0  0  0  0  0999 V2000
    5.6171  -10.6450   26.4702 C   0  0  0  0  0  0  0  0  0  0  0  0
    5.5754  -11.8574   27.8225 S   0  0  0  0  0  0  0  0  0  0  0  0
    6.6726  -13.2280   27.3609 C   0  0  0  0  0  0  0  0  0  0  0  0
    6.1830  -13.9590   26.1527 C   0  0  0  0  0  0  0  0  0  0  0  0
    7.2430  -14.9298   25.7005 C   0  0  2  0  0  0  0  0  0  0  0  0
    8.5719  -14.4529   26.0154 N   0  0  0  0  0  0  0  0  0  0  0  0
    7.1744  -15.2178   24.2559 C   0  0  0  0  0  0  0  0  0  0  0  0
    6.2034  -15.8718   23.8143 O   0  0  0  0  0  0  0  0  0  0  0  0
    8.1821  -14.7646   23.3985 N   0  0  0  0  0  0  0  0  0  0  0  0
    8.4887  -15.4163   22.1159 C   0  0  1  0  0  0  0  0  0  0  0  0
    8.3377  -14.3214   21.0810 C   0  0  0  0  0  0  0  0  0  0  0  0
    8.5521  -14.7761   19.6828 C   0  0  0  0  0  0  0  0  0  0  0  0
    8.3027  -13.6401   18.7304 C   0  0  0  0  0  0  0  0  0  0  0  0
    8.5204  -14.0302   17.3052 C   0  0  0  0  0  0  0  0  0  0  0  0
    8.5000  -12.8266   16.4950 N   0  0  0  0  0  0  0  0  0  0  0  0
    9.8457  -15.9651   22.2173 C   0  0  0  0  0  0  0  0  0  0  0  0
   10.8002  -15.1894   22.4733 O   0  0  0  0  0  0  0  0  0  0  0  0
   10.7840  -20.1442   25.5400 N   0  0  0  0  0  0  0  0  0  0  0  0
   11.0525  -18.7589   25.8135 C   0  0  0  0  0  0  0  0  0  0  0  0
   10.7910  -18.3323   26.9461 O   0  0  0  0  0  0  0  0  0  0  0  0
   11.6185  -17.9808   24.7006 C   0  0  0  0  0  0  0  0  0  0  0  0
   11.5118  -18.6850   23.3995 C   0  0  0  0  0  0  0  0  0  0  0  0
   11.4553  -17.8282   22.1825 C   0  0  2  0  0  0  0  0  0  0  0  0
   10.1041  -17.3310   22.0356 N   0  0  0  0  0  0  0  0  0  0  0  0
   11.9099  -18.5352   20.9545 C   0  0  0  0  0  0  0  0  0  0  0  0
   13.1450  -18.5373   20.7188 O   0  0  0  0  0  0  0  0  0  0  0  0
   11.0684  -19.1707   20.0862 O   0  0  0  0  0  0  0  0  0  0  0  0
  1  2  1  0
  3  4  1  0
  3  2  1  0
  4  5  1  0
  5  6  1  6
  7  8  2  0
  7  5  1  0
  9  7  1  0
 10  9  1  0
 10 11  1  6
 11 12  1  0
 12 13  1  0
 13 14  1  0
 14 15  1  0
 16 10  1  0
 17 16  2  0
 19 18  1  0
 19 21  1  0
 20 19  2  0
 23 22  1  1
 22 21  1  0
 23 24  1  0
 24 16  1  0
 25 23  1  0
 26 25  2  0
 27 25  1  0
M  END
$$$$
