QQT.pdb
     RDKit          3D

 26 25  0  0  1  0  0  0  0  0999 V2000
   11.5264  -13.5083   20.1254 N   0  0  0  0  0  0  0  0  0  0  0  0
   10.7235  -14.0793   19.1017 C   0  0  0  0  0  0  0  0  0  0  0  0
   11.1088  -15.1283   18.5371 O   0  0  0  0  0  0  0  0  0  0  0  0
    9.4555  -13.3894   18.7553 C   0  0  0  0  0  0  0  0  0  0  0  0
    8.4755  -13.5465   19.9047 C   0  0  0  0  0  0  0  0  0  0  0  0
    8.1339  -15.0301   20.0502 C   0  0  2  0  0  0  0  0  0  0  0  0
    7.2081  -15.4294   19.0327 N   0  0  0  0  0  0  0  0  0  0  0  0
    7.5279  -15.2306   21.3900 C   0  0  0  0  0  0  0  0  0  0  0  0
    6.2896  -14.9975   21.5114 O   0  0  0  0  0  0  0  0  0  0  0  0
    8.0109  -19.9282   24.8973 N   0  0  0  0  0  0  0  0  0  0  0  0
    7.4165  -19.0593   25.8494 C   0  0  0  0  0  0  0  0  0  0  0  0
    6.9689  -19.4656   26.9328 O   0  0  0  0  0  0  0  0  0  0  0  0
    7.3214  -17.5827   25.5395 C   0  0  0  0  0  0  0  0  0  0  0  0
    7.8778  -17.3307   24.1741 C   0  0  0  0  0  0  0  0  0  0  0  0
    7.7434  -15.9040   23.7838 C   0  0  2  0  0  0  0  0  0  0  0  0
    8.3242  -15.6626   22.4603 N   0  0  0  0  0  0  0  0  0  0  0  0
    8.3590  -14.9560   24.7520 C   0  0  0  0  0  0  0  0  0  0  0  0
    9.5882  -14.8216   24.9450 O   0  0  0  0  0  0  0  0  0  0  0  0
    6.6083  -11.4458   25.6887 C   0  0  0  0  0  0  0  0  0  0  0  0
    7.1512  -12.1145   26.9270 C   0  0  1  0  0  0  0  0  0  0  0  0
    6.0418  -12.7196   27.5626 O   0  0  0  0  0  0  0  0  0  0  0  0
    8.0789  -13.2635   26.5560 C   0  0  2  0  0  0  0  0  0  0  0  0
    7.5290  -14.1105   25.5485 N   0  0  0  0  0  0  0  0  0  0  0  0
    8.3699  -13.9934   27.8116 C   0  0  0  0  0  0  0  0  0  0  0  0
    8.0565  -15.1908   27.9735 O   0  0  0  0  0  0  0  0  0  0  0  0
    9.0099  -13.3259   28.8379 O   0  0  0  0  0  0  0  0  0  0  0  0
  2  3  2  0
  2  1  1  0
  4  2  1  0
  5  4  1  0
  5  6  1  0
  6  7  1  6
  6  8  1  0
  8  9  2  0
 11 12  2  0
 11 10  1  0
 13 11  1  0
 14 13  1  0
 15 14  1  1
 16  8  1  0
 16 15  1  0
 17 15  1  0
 17 18  2  0
 20 19  1  6
 20 22  1  0
 21 20  1  0
 22 23  1  6
 23 17  1  0
 24 22  1  0
 25 24  2  0
 26 24  1  0
M  END
$$$$
