QQT.pdb
     RDKit          3D

 26 25  0  0  1  0  0  0  0  0999 V2000
    5.2246  -19.1180   18.9370 N   0  0  0  0  0  0  0  0  0  0  0  0
    6.3198  -18.7579   18.1068 C   0  0  0  0  0  0  0  0  0  0  0  0
    6.3487  -19.1651   16.9231 O   0  0  0  0  0  0  0  0  0  0  0  0
    7.3825  -17.9071   18.6989 C   0  0  0  0  0  0  0  0  0  0  0  0
    6.9456  -17.4591   20.0825 C   0  0  0  0  0  0  0  0  0  0  0  0
    8.0297  -16.5486   20.6614 C   0  0  2  0  0  0  0  0  0  0  0  0
    9.3287  -17.0900   20.3942 N   0  0  0  0  0  0  0  0  0  0  0  0
    7.8140  -16.4552   22.1268 C   0  0  0  0  0  0  0  0  0  0  0  0
    6.6798  -16.0591   22.5258 O   0  0  0  0  0  0  0  0  0  0  0  0
   11.2077  -19.3215   26.5120 N   0  0  0  0  0  0  0  0  0  0  0  0
   10.3514  -18.5286   27.3199 C   0  0  0  0  0  0  0  0  0  0  0  0
   10.3720  -18.5779   28.5594 O   0  0  0  0  0  0  0  0  0  0  0  0
    9.3753  -17.5863   26.6531 C   0  0  0  0  0  0  0  0  0  0  0  0
    9.5293  -17.6893   25.1688 C   0  0  0  0  0  0  0  0  0  0  0  0
    8.6614  -16.7142   24.4602 C   0  0  2  0  0  0  0  0  0  0  0  0
    8.8477  -16.8000   23.0092 N   0  0  0  0  0  0  0  0  0  0  0  0
    8.8738  -15.3032   24.8831 C   0  0  0  0  0  0  0  0  0  0  0  0
    9.9029  -14.6297   24.6516 O   0  0  0  0  0  0  0  0  0  0  0  0
    6.6031  -12.1306   24.4731 C   0  0  0  0  0  0  0  0  0  0  0  0
    6.8506  -12.4005   25.9363 C   0  0  1  0  0  0  0  0  0  0  0  0
    5.7482  -13.1649   26.3847 O   0  0  0  0  0  0  0  0  0  0  0  0
    8.0656  -13.2997   26.1202 C   0  0  2  0  0  0  0  0  0  0  0  0
    7.8567  -14.6163   25.6126 N   0  0  0  0  0  0  0  0  0  0  0  0
    8.3792  -13.2948   27.5678 C   0  0  0  0  0  0  0  0  0  0  0  0
    8.3724  -14.3376   28.2541 O   0  0  0  0  0  0  0  0  0  0  0  0
    8.6898  -12.0954   28.1788 O   0  0  0  0  0  0  0  0  0  0  0  0
  2  3  2  0
  2  1  1  0
  4  2  1  0
  5  4  1  0
  5  6  1  0
  6  7  1  1
  6  8  1  0
  8  9  2  0
 11 12  2  0
 11 10  1  0
 13 11  1  0
 14 13  1  0
 15 14  1  1
 16  8  1  0
 16 15  1  0
 17 15  1  0
 17 18  2  0
 20 19  1  6
 20 22  1  0
 21 20  1  0
 22 23  1  1
 23 17  1  0
 24 22  1  0
 25 24  2  0
 26 24  1  0
M  END
$$$$
