QQT.pdb
     RDKit          3D

 26 25  0  0  1  0  0  0  0  0999 V2000
    8.0662  -17.4027   17.1319 N   0  0  0  0  0  0  0  0  0  0  0  0
    8.1192  -15.9870   17.2394 C   0  0  0  0  0  0  0  0  0  0  0  0
    8.0325  -15.2920   16.2015 O   0  0  0  0  0  0  0  0  0  0  0  0
    8.2766  -15.4046   18.5958 C   0  0  0  0  0  0  0  0  0  0  0  0
    6.9981  -14.6783   18.9750 C   0  0  0  0  0  0  0  0  0  0  0  0
    7.3708  -13.3142   19.5576 C   0  0  2  0  0  0  0  0  0  0  0  0
    8.2658  -12.6249   18.6768 N   0  0  0  0  0  0  0  0  0  0  0  0
    8.0288  -13.5410   20.8685 C   0  0  0  0  0  0  0  0  0  0  0  0
    9.2932  -13.6011   20.8844 O   0  0  0  0  0  0  0  0  0  0  0  0
    5.6315  -12.1302   26.4010 N   0  0  0  0  0  0  0  0  0  0  0  0
    6.8121  -12.8056   26.8067 C   0  0  0  0  0  0  0  0  0  0  0  0
    7.1945  -12.8269   27.9868 O   0  0  0  0  0  0  0  0  0  0  0  0
    7.6401  -13.5283   25.7687 C   0  0  0  0  0  0  0  0  0  0  0  0
    7.0070  -13.3508   24.4250 C   0  0  0  0  0  0  0  0  0  0  0  0
    7.8768  -13.8687   23.3382 C   0  0  2  0  0  0  0  0  0  0  0  0
    7.2509  -13.6796   22.0268 N   0  0  0  0  0  0  0  0  0  0  0  0
    8.2362  -15.3049   23.4896 C   0  0  0  0  0  0  0  0  0  0  0  0
    7.4417  -16.2631   23.3603 O   0  0  0  0  0  0  0  0  0  0  0  0
   12.3351  -16.5132   23.3701 C   0  0  0  0  0  0  0  0  0  0  0  0
   11.1556  -17.3979   23.0518 C   0  0  1  0  0  0  0  0  0  0  0  0
   11.5310  -18.7049   23.4412 O   0  0  0  0  0  0  0  0  0  0  0  0
    9.9635  -17.0428   23.9301 C   0  0  2  0  0  0  0  0  0  0  0  0
    9.5782  -15.6749   23.8069 N   0  0  0  0  0  0  0  0  0  0  0  0
   10.3392  -17.4019   25.3172 C   0  0  0  0  0  0  0  0  0  0  0  0
   10.6458  -18.5671   25.6435 O   0  0  0  0  0  0  0  0  0  0  0  0
   10.3506  -16.4132   26.2820 O   0  0  0  0  0  0  0  0  0  0  0  0
  2  3  2  0
  2  1  1  0
  4  2  1  0
  5  4  1  0
  5  6  1  0
  6  7  1  6
  6  8  1  0
  8  9  2  0
 11 12  2  0
 11 10  1  0
 13 11  1  0
 14 13  1  0
 15 14  1  1
 16  8  1  0
 16 15  1  0
 17 15  1  0
 17 18  2  0
 20 19  1  1
 20 22  1  0
 21 20  1  0
 22 23  1  1
 23 17  1  0
 24 22  1  0
 25 24  2  0
 26 24  1  0
M  END
$$$$
