QQT.pdb
     RDKit          3D

 26 25  0  0  1  0  0  0  0  0999 V2000
    7.1746  -12.3357   18.5904 N   0  0  0  0  0  0  0  0  0  0  0  0
    7.5979  -13.6612   18.3031 C   0  0  0  0  0  0  0  0  0  0  0  0
    6.9618  -14.3368   17.4625 O   0  0  0  0  0  0  0  0  0  0  0  0
    8.7874  -14.1765   19.0265 C   0  0  0  0  0  0  0  0  0  0  0  0
    8.3261  -15.0398   20.1875 C   0  0  0  0  0  0  0  0  0  0  0  0
    9.5273  -15.3147   21.0935 C   0  0  2  0  0  0  0  0  0  0  0  0
   10.2155  -16.4947   20.6626 N   0  0  0  0  0  0  0  0  0  0  0  0
    9.0233  -15.5017   22.4769 C   0  0  0  0  0  0  0  0  0  0  0  0
    8.4370  -14.5212   23.0222 O   0  0  0  0  0  0  0  0  0  0  0  0
    7.0843  -21.2827   24.5683 N   0  0  0  0  0  0  0  0  0  0  0  0
    6.5171  -19.9853   24.4697 C   0  0  0  0  0  0  0  0  0  0  0  0
    5.3998  -19.7105   24.9338 O   0  0  0  0  0  0  0  0  0  0  0  0
    7.2966  -18.8922   23.7749 C   0  0  0  0  0  0  0  0  0  0  0  0
    8.3753  -18.4020   24.6880 C   0  0  0  0  0  0  0  0  0  0  0  0
    8.6638  -16.9616   24.4693 C   0  0  2  0  0  0  0  0  0  0  0  0
    9.2057  -16.7303   23.1276 N   0  0  0  0  0  0  0  0  0  0  0  0
    9.6023  -16.3790   25.4667 C   0  0  0  0  0  0  0  0  0  0  0  0
   10.8499  -16.4628   25.4157 O   0  0  0  0  0  0  0  0  0  0  0  0
    9.7053  -12.7933   27.0887 C   0  0  0  0  0  0  0  0  0  0  0  0
    9.5655  -13.8382   28.1675 C   0  0  1  0  0  0  0  0  0  0  0  0
    8.1829  -13.9215   28.4542 O   0  0  0  0  0  0  0  0  0  0  0  0
    9.9507  -15.2131   27.6387 C   0  0  2  0  0  0  0  0  0  0  0  0
    9.0932  -15.6584   26.5892 N   0  0  0  0  0  0  0  0  0  0  0  0
    9.9439  -16.1300   28.8019 C   0  0  0  0  0  0  0  0  0  0  0  0
    9.1451  -17.0850   28.8924 O   0  0  0  0  0  0  0  0  0  0  0  0
   10.8527  -15.9208   29.8212 O   0  0  0  0  0  0  0  0  0  0  0  0
  2  3  2  0
  2  1  1  0
  4  2  1  0
  5  4  1  0
  5  6  1  0
  6  7  1  6
  6  8  1  0
  8  9  2  0
 11 12  2  0
 11 10  1  0
 13 11  1  0
 14 13  1  0
 15 14  1  1
 16  8  1  0
 16 15  1  0
 17 15  1  0
 17 18  2  0
 20 19  1  6
 20 22  1  0
 21 20  1  0
 22 23  1  6
 23 17  1  0
 24 22  1  0
 25 24  2  0
 26 24  1  0
M  END
$$$$
