QQT.pdb
     RDKit          3D

 26 25  0  0  1  0  0  0  0  0999 V2000
    8.4208  -12.3014   19.7816 N   0  0  0  0  0  0  0  0  0  0  0  0
    8.3017  -13.4685   18.9802 C   0  0  0  0  0  0  0  0  0  0  0  0
    8.9261  -13.5318   17.8968 O   0  0  0  0  0  0  0  0  0  0  0  0
    7.4311  -14.5619   19.4807 C   0  0  0  0  0  0  0  0  0  0  0  0
    8.3007  -15.6537   20.0790 C   0  0  0  0  0  0  0  0  0  0  0  0
    7.3908  -16.7725   20.5884 C   0  0  2  0  0  0  0  0  0  0  0  0
    6.2336  -16.8918   19.7526 N   0  0  0  0  0  0  0  0  0  0  0  0
    6.9796  -16.4327   21.9734 C   0  0  0  0  0  0  0  0  0  0  0  0
    5.9177  -15.7590   22.1183 O   0  0  0  0  0  0  0  0  0  0  0  0
    7.7937  -20.2000   26.6397 N   0  0  0  0  0  0  0  0  0  0  0  0
    6.8555  -20.2587   25.5762 C   0  0  0  0  0  0  0  0  0  0  0  0
    6.1864  -21.2751   25.3344 O   0  0  0  0  0  0  0  0  0  0  0  0
    6.6582  -19.0420   24.7010 C   0  0  0  0  0  0  0  0  0  0  0  0
    7.4871  -17.9156   25.2320 C   0  0  0  0  0  0  0  0  0  0  0  0
    7.2973  -16.6753   24.4371 C   0  0  2  0  0  0  0  0  0  0  0  0
    7.7597  -16.8568   23.0585 N   0  0  0  0  0  0  0  0  0  0  0  0
    7.9777  -15.4834   25.0126 C   0  0  0  0  0  0  0  0  0  0  0  0
    9.1260  -15.0920   24.7054 O   0  0  0  0  0  0  0  0  0  0  0  0
    6.5365  -11.8050   25.5841 C   0  0  0  0  0  0  0  0  0  0  0  0
    7.0065  -12.4189   26.8793 C   0  0  1  0  0  0  0  0  0  0  0  0
    5.8635  -13.0049   27.4716 O   0  0  0  0  0  0  0  0  0  0  0  0
    7.9597  -13.5759   26.6123 C   0  0  2  0  0  0  0  0  0  0  0  0
    7.3142  -14.6886   25.9958 N   0  0  0  0  0  0  0  0  0  0  0  0
    8.5721  -13.9275   27.9143 C   0  0  0  0  0  0  0  0  0  0  0  0
    8.5105  -15.0802   28.3895 O   0  0  0  0  0  0  0  0  0  0  0  0
    9.2338  -12.9460   28.6266 O   0  0  0  0  0  0  0  0  0  0  0  0
  2  3  2  0
  2  1  1  0
  4  2  1  0
  5  4  1  0
  5  6  1  0
  6  7  1  6
  6  8  1  0
  8  9  2  0
 11 12  2  0
 11 10  1  0
 13 11  1  0
 14 13  1  0
 15 14  1  1
 16  8  1  0
 16 15  1  0
 17 15  1  0
 17 18  2  0
 20 19  1  6
 20 22  1  0
 21 20  1  0
 22 23  1  1
 23 17  1  0
 24 22  1  0
 25 24  2  0
 26 24  1  0
M  END
$$$$
