QQT.pdb
     RDKit          3D

 26 25  0  0  1  0  0  0  0  0999 V2000
    7.9519  -12.5885   17.3607 N   0  0  0  0  0  0  0  0  0  0  0  0
    7.9362  -13.9475   16.9466 C   0  0  0  0  0  0  0  0  0  0  0  0
    8.0952  -14.2185   15.7346 O   0  0  0  0  0  0  0  0  0  0  0  0
    7.7292  -14.9831   17.9899 C   0  0  0  0  0  0  0  0  0  0  0  0
    7.3199  -14.3063   19.2861 C   0  0  0  0  0  0  0  0  0  0  0  0
    8.5586  -14.1691   20.1728 C   0  0  2  0  0  0  0  0  0  0  0  0
    9.6790  -14.8241   19.5667 N   0  0  0  0  0  0  0  0  0  0  0  0
    8.2552  -14.7975   21.4827 C   0  0  0  0  0  0  0  0  0  0  0  0
    7.0986  -14.6148   21.9638 O   0  0  0  0  0  0  0  0  0  0  0  0
   10.6589  -19.9753   24.3431 N   0  0  0  0  0  0  0  0  0  0  0  0
   10.8329  -19.3629   23.0745 C   0  0  0  0  0  0  0  0  0  0  0  0
   11.6958  -19.7394   22.2665 O   0  0  0  0  0  0  0  0  0  0  0  0
    9.9377  -18.2084   22.6858 C   0  0  0  0  0  0  0  0  0  0  0  0
    9.9261  -17.2019   23.7922 C   0  0  0  0  0  0  0  0  0  0  0  0
    9.0124  -16.0700   23.4920 C   0  0  2  0  0  0  0  0  0  0  0  0
    9.2344  -15.5587   22.1368 N   0  0  0  0  0  0  0  0  0  0  0  0
    9.1247  -14.9371   24.4506 C   0  0  0  0  0  0  0  0  0  0  0  0
   10.0927  -14.1471   24.5210 O   0  0  0  0  0  0  0  0  0  0  0  0
    6.5323  -12.1302   25.0823 C   0  0  0  0  0  0  0  0  0  0  0  0
    6.8297  -12.8239   26.3883 C   0  0  1  0  0  0  0  0  0  0  0  0
    5.8253  -13.8073   26.5460 O   0  0  0  0  0  0  0  0  0  0  0  0
    8.1393  -13.5959   26.3021 C   0  0  2  0  0  0  0  0  0  0  0  0
    8.0748  -14.6868   25.3852 N   0  0  0  0  0  0  0  0  0  0  0  0
    8.4630  -14.0332   27.6797 C   0  0  0  0  0  0  0  0  0  0  0  0
    8.6012  -15.2367   27.9810 O   0  0  0  0  0  0  0  0  0  0  0  0
    8.6172  -13.0764   28.6642 O   0  0  0  0  0  0  0  0  0  0  0  0
  2  3  2  0
  2  1  1  0
  4  2  1  0
  5  4  1  0
  5  6  1  0
  6  7  1  6
  6  8  1  0
  8  9  2  0
 11 12  2  0
 11 10  1  0
 13 11  1  0
 14 13  1  0
 15 14  1  1
 16  8  1  0
 16 15  1  0
 17 15  1  0
 17 18  2  0
 20 19  1  6
 20 22  1  0
 21 20  1  0
 22 23  1  6
 23 17  1  0
 24 22  1  0
 25 24  2  0
 26 24  1  0
M  END
$$$$
