QQT.pdb
     RDKit          3D

 26 25  0  0  1  0  0  0  0  0999 V2000
    6.8418  -12.7551   18.9776 N   0  0  0  0  0  0  0  0  0  0  0  0
    7.6209  -13.6477   18.1936 C   0  0  0  0  0  0  0  0  0  0  0  0
    7.5365  -13.5972   16.9454 O   0  0  0  0  0  0  0  0  0  0  0  0
    8.5033  -14.6030   18.9097 C   0  0  0  0  0  0  0  0  0  0  0  0
    8.2076  -14.5313   20.3975 C   0  0  0  0  0  0  0  0  0  0  0  0
    9.1791  -15.4586   21.1293 C   0  0  2  0  0  0  0  0  0  0  0  0
    9.1669  -16.7614   20.5341 N   0  0  0  0  0  0  0  0  0  0  0  0
    8.7468  -15.5475   22.5463 C   0  0  0  0  0  0  0  0  0  0  0  0
    8.5202  -14.4619   23.1567 O   0  0  0  0  0  0  0  0  0  0  0  0
    7.1077  -20.8424   25.5410 N   0  0  0  0  0  0  0  0  0  0  0  0
    6.9687  -19.8812   26.5759 C   0  0  0  0  0  0  0  0  0  0  0  0
    6.5166  -20.1687   27.6949 O   0  0  0  0  0  0  0  0  0  0  0  0
    7.3848  -18.4517   26.3133 C   0  0  0  0  0  0  0  0  0  0  0  0
    7.7790  -18.3110   24.8772 C   0  0  0  0  0  0  0  0  0  0  0  0
    8.1773  -16.9172   24.5537 C   0  0  2  0  0  0  0  0  0  0  0  0
    8.6043  -16.8018   23.1567 N   0  0  0  0  0  0  0  0  0  0  0  0
    9.2588  -16.3839   25.4259 C   0  0  0  0  0  0  0  0  0  0  0  0
   10.4789  -16.6265   25.2892 O   0  0  0  0  0  0  0  0  0  0  0  0
    9.4415  -12.6391   26.9484 C   0  0  0  0  0  0  0  0  0  0  0  0
    9.5820  -13.6919   28.0194 C   0  0  1  0  0  0  0  0  0  0  0  0
    8.2906  -13.8635   28.5706 O   0  0  0  0  0  0  0  0  0  0  0  0
    9.9406  -15.0390   27.4068 C   0  0  2  0  0  0  0  0  0  0  0  0
    8.9352  -15.5240   26.5187 N   0  0  0  0  0  0  0  0  0  0  0  0
   10.1909  -15.9634   28.5368 C   0  0  0  0  0  0  0  0  0  0  0  0
    9.5486  -17.0235   28.6845 O   0  0  0  0  0  0  0  0  0  0  0  0
   11.1685  -15.6410   29.4581 O   0  0  0  0  0  0  0  0  0  0  0  0
  2  3  2  0
  2  1  1  0
  4  2  1  0
  5  4  1  0
  5  6  1  0
  6  7  1  6
  6  8  1  0
  8  9  2  0
 11 12  2  0
 11 10  1  0
 13 11  1  0
 14 13  1  0
 15 14  1  1
 16  8  1  0
 16 15  1  0
 17 15  1  0
 17 18  2  0
 20 19  1  6
 20 22  1  0
 21 20  1  0
 22 23  1  1
 23 17  1  0
 24 22  1  0
 25 24  2  0
 26 24  1  0
M  END
$$$$
