QQT.pdb
     RDKit          3D

 26 25  0  0  1  0  0  0  0  0999 V2000
   11.6243  -17.2941   13.1513 N   0  0  0  0  0  0  0  0  0  0  0  0
   12.3250  -18.3990   12.5972 C   0  0  0  0  0  0  0  0  0  0  0  0
   12.3226  -18.5634   11.3559 O   0  0  0  0  0  0  0  0  0  0  0  0
   13.0298  -19.3083   13.5354 C   0  0  0  0  0  0  0  0  0  0  0  0
   12.8502  -18.7944   14.9530 C   0  0  0  0  0  0  0  0  0  0  0  0
   13.5694  -19.7480   15.9083 C   0  0  2  0  0  0  0  0  0  0  0  0
   12.7707  -20.9137   16.1423 N   0  0  0  0  0  0  0  0  0  0  0  0
   13.7982  -19.0287   17.1862 C   0  0  0  0  0  0  0  0  0  0  0  0
   14.5541  -18.0136   17.1575 O   0  0  0  0  0  0  0  0  0  0  0  0
    9.6958  -18.7806   21.7052 N   0  0  0  0  0  0  0  0  0  0  0  0
   10.3577  -20.0307   21.5885 C   0  0  0  0  0  0  0  0  0  0  0  0
    9.8928  -21.0770   22.0664 O   0  0  0  0  0  0  0  0  0  0  0  0
   11.6785  -20.0985   20.8562 C   0  0  0  0  0  0  0  0  0  0  0  0
   12.0446  -18.7299   20.3762 C   0  0  0  0  0  0  0  0  0  0  0  0
   13.3226  -18.7398   19.6194 C   0  0  2  0  0  0  0  0  0  0  0  0
   13.1856  -19.4818   18.3633 N   0  0  0  0  0  0  0  0  0  0  0  0
   14.4680  -19.3062   20.3824 C   0  0  0  0  0  0  0  0  0  0  0  0
   14.6929  -20.5269   20.5424 O   0  0  0  0  0  0  0  0  0  0  0  0
   18.0209  -18.6563   19.6930 C   0  0  0  0  0  0  0  0  0  0  0  0
   17.8628  -18.3661   21.1648 C   0  0  1  0  0  0  0  0  0  0  0  0
   17.7235  -16.9627   21.2737 O   0  0  0  0  0  0  0  0  0  0  0  0
   16.5550  -18.9425   21.6900 C   0  0  2  0  0  0  0  0  0  0  0  0
   15.4143  -18.4341   21.0007 N   0  0  0  0  0  0  0  0  0  0  0  0
   16.5166  -18.6484   23.1412 C   0  0  0  0  0  0  0  0  0  0  0  0
   15.6445  -17.9134   23.6487 O   0  0  0  0  0  0  0  0  0  0  0  0
   17.4787  -19.2067   23.9604 O   0  0  0  0  0  0  0  0  0  0  0  0
  2  3  2  0
  2  1  1  0
  4  2  1  0
  5  4  1  0
  5  6  1  0
  6  7  1  1
  6  8  1  0
  8  9  2  0
 11 12  2  0
 11 10  1  0
 13 11  1  0
 14 13  1  0
 15 14  1  1
 16  8  1  0
 16 15  1  0
 17 15  1  0
 17 18  2  0
 20 19  1  6
 20 22  1  0
 21 20  1  0
 22 23  1  6
 23 17  1  0
 24 22  1  0
 25 24  2  0
 26 24  1  0
M  END
$$$$
