YFN.pdb
     RDKit          3D

 32 33  0  0  1  0  0  0  0  0999 V2000
   25.1757  -23.0800  -23.7159 O   0  0  0  0  0  0  0  0  0  0  0  0
   25.9401  -24.1384  -23.2776 C   0  0  0  0  0  0  0  0  0  0  0  0
   25.4172  -25.3683  -22.9394 C   0  0  0  0  0  0  0  0  0  0  0  0
   26.2352  -26.3877  -22.5073 C   0  0  0  0  0  0  0  0  0  0  0  0
   27.5959  -26.2056  -22.4017 C   0  0  0  0  0  0  0  0  0  0  0  0
   28.4859  -27.3301  -21.9266 C   0  0  0  0  0  0  0  0  0  0  0  0
   28.3118  -27.4173  -20.4271 C   0  0  2  0  0  0  0  0  0  0  0  0
   28.7992  -26.1982  -19.8125 N   0  0  0  0  0  0  0  0  0  0  0  0
   29.0275  -28.5591  -19.8386 C   0  0  0  0  0  0  0  0  0  0  0  0
   29.9703  -29.1206  -20.4575 O   0  0  0  0  0  0  0  0  0  0  0  0
   28.1233  -24.9830  -22.7370 C   0  0  0  0  0  0  0  0  0  0  0  0
   27.3051  -23.9654  -23.1685 C   0  0  0  0  0  0  0  0  0  0  0  0
   28.7188  -29.1030  -18.5591 N   0  0  0  0  0  0  0  0  0  0  0  0
   29.3547  -30.3151  -18.0489 C   0  0  1  0  0  0  0  0  0  0  0  0
   29.6606  -30.1722  -16.5741 C   0  0  0  0  0  0  0  0  0  0  0  0
   30.1479  -31.4169  -15.9446 C   0  0  0  0  0  0  0  0  0  0  0  0
   29.2420  -32.2646  -15.3120 C   0  0  0  0  0  0  0  0  0  0  0  0
   29.6573  -33.4332  -14.7097 C   0  0  0  0  0  0  0  0  0  0  0  0
   30.9824  -33.8096  -14.7088 C   0  0  0  0  0  0  0  0  0  0  0  0
   31.8888  -32.9799  -15.3311 C   0  0  0  0  0  0  0  0  0  0  0  0
   31.4639  -31.8035  -15.9363 C   0  0  0  0  0  0  0  0  0  0  0  0
   28.6059  -31.5389  -18.3962 C   0  0  0  0  0  0  0  0  0  0  0  0
   27.3327  -31.4509  -18.3162 O   0  0  0  0  0  0  0  0  0  0  0  0
   25.6861  -35.0802  -21.0186 N   0  0  0  0  0  0  0  0  0  0  0  0
   27.0960  -35.1246  -20.8691 C   0  0  0  0  0  0  0  0  0  0  0  0
   27.6458  -36.2295  -21.0197 O   0  0  0  0  0  0  0  0  0  0  0  0
   27.9036  -33.9255  -20.5481 C   0  0  0  0  0  0  0  0  0  0  0  0
   28.3935  -33.9554  -19.1146 C   0  0  2  0  0  0  0  0  0  0  0  0
   29.1505  -32.7615  -18.8006 N   0  0  0  0  0  0  0  0  0  0  0  0
   29.1834  -35.2023  -18.9903 C   0  0  0  0  0  0  0  0  0  0  0  0
   28.6286  -36.2345  -18.5863 O   0  0  0  0  0  0  0  0  0  0  0  0
   30.5173  -35.2144  -19.3195 O   0  0  0  0  0  0  0  0  0  0  0  0
  2  3  2  0
  2  1  1  0
  4  3  1  0
  5  4  2  0
  6  5  1  0
  7  8  1  1
  7  6  1  0
  9  7  1  0
 10  9  2  0
 11  5  1  0
 11 12  2  0
 12  2  1  0
 13  9  1  0
 14 15  1  1
 14 13  1  0
 16 17  2  0
 16 15  1  0
 18 17  1  0
 19 18  2  0
 20 19  1  0
 20 21  2  0
 21 16  1  0
 22 14  1  0
 23 22  2  0
 25 24  1  0
 26 25  2  0
 27 25  1  0
 28 27  1  6
 28 29  1  0
 29 22  1  0
 30 28  1  0
 30 32  1  0
 31 30  2  0
M  END
$$$$
