YFN.pdb
     RDKit          3D

 32 33  0  0  1  0  0  0  0  0999 V2000
   28.5872  -14.9327  -17.8343 O   0  0  0  0  0  0  0  0  0  0  0  0
   27.9793  -15.9523  -17.1363 C   0  0  0  0  0  0  0  0  0  0  0  0
   27.7345  -17.2004  -17.6681 C   0  0  0  0  0  0  0  0  0  0  0  0
   27.1222  -18.1789  -16.9180 C   0  0  0  0  0  0  0  0  0  0  0  0
   26.7386  -17.9367  -15.6180 C   0  0  0  0  0  0  0  0  0  0  0  0
   26.0672  -19.0166  -14.8022 C   0  0  0  0  0  0  0  0  0  0  0  0
   27.1248  -19.5882  -13.8849 C   0  0  2  0  0  0  0  0  0  0  0  0
   28.1130  -20.2997  -14.6714 N   0  0  0  0  0  0  0  0  0  0  0  0
   26.5687  -20.5101  -12.8834 C   0  0  0  0  0  0  0  0  0  0  0  0
   26.4421  -21.7383  -13.1340 O   0  0  0  0  0  0  0  0  0  0  0  0
   26.9794  -16.6957  -15.0820 C   0  0  0  0  0  0  0  0  0  0  0  0
   27.5911  -15.7190  -15.8324 C   0  0  0  0  0  0  0  0  0  0  0  0
   26.1421  -20.0971  -11.5889 N   0  0  0  0  0  0  0  0  0  0  0  0
   25.2844  -20.9258  -10.7453 C   0  0  1  0  0  0  0  0  0  0  0  0
   25.6389  -20.7411   -9.2861 C   0  0  0  0  0  0  0  0  0  0  0  0
   27.0924  -20.7492   -9.0217 C   0  0  0  0  0  0  0  0  0  0  0  0
   27.6001  -20.0005   -7.9629 C   0  0  0  0  0  0  0  0  0  0  0  0
   28.9506  -19.9787   -7.6857 C   0  0  0  0  0  0  0  0  0  0  0  0
   29.8512  -20.6949   -8.4429 C   0  0  0  0  0  0  0  0  0  0  0  0
   29.3620  -21.4397   -9.4933 C   0  0  0  0  0  0  0  0  0  0  0  0
   27.9999  -21.4574   -9.7675 C   0  0  0  0  0  0  0  0  0  0  0  0
   23.8501  -20.7499  -11.0469 C   0  0  0  0  0  0  0  0  0  0  0  0
   23.2718  -19.7818  -10.4440 O   0  0  0  0  0  0  0  0  0  0  0  0
   19.2441  -19.4455  -12.6248 N   0  0  0  0  0  0  0  0  0  0  0  0
   20.3496  -19.5067  -13.5115 C   0  0  0  0  0  0  0  0  0  0  0  0
   20.1292  -19.2513  -14.7081 O   0  0  0  0  0  0  0  0  0  0  0  0
   21.7165  -19.8562  -13.0613 C   0  0  0  0  0  0  0  0  0  0  0  0
   21.7447  -21.2060  -12.3734 C   0  0  2  0  0  0  0  0  0  0  0  0
   23.0810  -21.5277  -11.9177 N   0  0  0  0  0  0  0  0  0  0  0  0
   21.2139  -22.1692  -13.3659 C   0  0  0  0  0  0  0  0  0  0  0  0
   21.9992  -22.9180  -13.9649 O   0  0  0  0  0  0  0  0  0  0  0  0
   19.8650  -22.2317  -13.6196 O   0  0  0  0  0  0  0  0  0  0  0  0
  2  3  2  0
  2  1  1  0
  4  3  1  0
  5  4  2  0
  6  5  1  0
  7  8  1  6
  7  6  1  0
  9  7  1  0
 10  9  2  0
 11  5  1  0
 11 12  2  0
 12  2  1  0
 13  9  1  0
 14 15  1  1
 14 13  1  0
 16 17  2  0
 16 15  1  0
 18 17  1  0
 19 18  2  0
 20 19  1  0
 20 21  2  0
 21 16  1  0
 22 14  1  0
 23 22  2  0
 25 24  1  0
 26 25  2  0
 27 25  1  0
 28 27  1  6
 28 29  1  0
 29 22  1  0
 30 28  1  0
 30 32  1  0
 31 30  2  0
M  END
$$$$
