YFN.pdb
     RDKit          3D

 32 33  0  0  1  0  0  0  0  0999 V2000
   26.3942  -31.6958  -15.6228 O   0  0  0  0  0  0  0  0  0  0  0  0
   27.6120  -32.1635  -16.0640 C   0  0  0  0  0  0  0  0  0  0  0  0
   28.6437  -31.3425  -16.4670 C   0  0  0  0  0  0  0  0  0  0  0  0
   29.8389  -31.8720  -16.8983 C   0  0  0  0  0  0  0  0  0  0  0  0
   30.0350  -33.2343  -16.9386 C   0  0  0  0  0  0  0  0  0  0  0  0
   31.3501  -33.8065  -17.4134 C   0  0  0  0  0  0  0  0  0  0  0  0
   32.2716  -33.8289  -16.2148 C   0  0  2  0  0  0  0  0  0  0  0  0
   31.4834  -33.9137  -15.0011 N   0  0  0  0  0  0  0  0  0  0  0  0
   33.1288  -32.6367  -16.1361 C   0  0  0  0  0  0  0  0  0  0  0  0
   32.7542  -31.6104  -15.5087 O   0  0  0  0  0  0  0  0  0  0  0  0
   29.0116  -34.0577  -16.5387 C   0  0  0  0  0  0  0  0  0  0  0  0
   27.8181  -33.5276  -16.1079 C   0  0  0  0  0  0  0  0  0  0  0  0
   34.4129  -32.5526  -16.7463 N   0  0  0  0  0  0  0  0  0  0  0  0
   35.2106  -31.3290  -16.7274 C   0  0  1  0  0  0  0  0  0  0  0  0
   36.4101  -31.4924  -15.8198 C   0  0  0  0  0  0  0  0  0  0  0  0
   36.0992  -32.1570  -14.5374 C   0  0  0  0  0  0  0  0  0  0  0  0
   35.8639  -31.3827  -13.4041 C   0  0  0  0  0  0  0  0  0  0  0  0
   35.5745  -31.9647  -12.1882 C   0  0  0  0  0  0  0  0  0  0  0  0
   35.5061  -33.3330  -12.0445 C   0  0  0  0  0  0  0  0  0  0  0  0
   35.7369  -34.1105  -13.1579 C   0  0  0  0  0  0  0  0  0  0  0  0
   36.0282  -33.5178  -14.3805 C   0  0  0  0  0  0  0  0  0  0  0  0
   35.5383  -30.8433  -18.0823 C   0  0  0  0  0  0  0  0  0  0  0  0
   36.7154  -31.1180  -18.4997 O   0  0  0  0  0  0  0  0  0  0  0  0
   36.8210  -30.8395  -23.1807 N   0  0  0  0  0  0  0  0  0  0  0  0
   35.6061  -30.4458  -22.5632 C   0  0  0  0  0  0  0  0  0  0  0  0
   34.8514  -29.7079  -23.2202 O   0  0  0  0  0  0  0  0  0  0  0  0
   35.2267  -30.8783  -21.1987 C   0  0  0  0  0  0  0  0  0  0  0  0
   35.0289  -29.6922  -20.2768 C   0  0  2  0  0  0  0  0  0  0  0  0
   34.6945  -30.1273  -18.9367 N   0  0  0  0  0  0  0  0  0  0  0  0
   33.9718  -28.8692  -20.9090 C   0  0  0  0  0  0  0  0  0  0  0  0
   34.2898  -27.8422  -21.5258 O   0  0  0  0  0  0  0  0  0  0  0  0
   32.6526  -29.2407  -20.8125 O   0  0  0  0  0  0  0  0  0  0  0  0
  2  3  2  0
  2  1  1  0
  4  3  1  0
  5  4  2  0
  6  5  1  0
  7  8  1  1
  7  6  1  0
  9  7  1  0
 10  9  2  0
 11  5  1  0
 11 12  2  0
 12  2  1  0
 13  9  1  0
 14 15  1  1
 14 13  1  0
 16 17  2  0
 16 15  1  0
 18 17  1  0
 19 18  2  0
 20 19  1  0
 20 21  2  0
 21 16  1  0
 22 14  1  0
 23 22  2  0
 25 24  1  0
 26 25  2  0
 27 25  1  0
 28 27  1  6
 28 29  1  0
 29 22  1  0
 30 28  1  0
 30 32  1  0
 31 30  2  0
M  END
$$$$
