YFN.pdb
     RDKit          3D

 32 33  0  0  1  0  0  0  0  0999 V2000
   26.9187  -16.5602  -17.7947 O   0  0  0  0  0  0  0  0  0  0  0  0
   26.4871  -17.2774  -16.7012 C   0  0  0  0  0  0  0  0  0  0  0  0
   25.6145  -18.3416  -16.7832 C   0  0  0  0  0  0  0  0  0  0  0  0
   25.2202  -19.0191  -15.6516 C   0  0  0  0  0  0  0  0  0  0  0  0
   25.6867  -18.6518  -14.4093 C   0  0  0  0  0  0  0  0  0  0  0  0
   25.2485  -19.4011  -13.1728 C   0  0  0  0  0  0  0  0  0  0  0  0
   26.4069  -20.2845  -12.7676 C   0  0  2  0  0  0  0  0  0  0  0  0
   26.4405  -21.4575  -13.6187 N   0  0  0  0  0  0  0  0  0  0  0  0
   26.3227  -20.7228  -11.3665 C   0  0  0  0  0  0  0  0  0  0  0  0
   25.7935  -21.8254  -11.0639 O   0  0  0  0  0  0  0  0  0  0  0  0
   26.5560  -17.5927  -14.3204 C   0  0  0  0  0  0  0  0  0  0  0  0
   26.9492  -16.9167  -15.4516 C   0  0  0  0  0  0  0  0  0  0  0  0
   26.8192  -19.9560  -10.2739 N   0  0  0  0  0  0  0  0  0  0  0  0
   26.7141  -20.4070   -8.8884 C   0  0  1  0  0  0  0  0  0  0  0  0
   27.8951  -19.9159   -8.0803 C   0  0  0  0  0  0  0  0  0  0  0  0
   27.7321  -20.0909   -6.6224 C   0  0  0  0  0  0  0  0  0  0  0  0
   27.0428  -19.1278   -5.8898 C   0  0  0  0  0  0  0  0  0  0  0  0
   26.8724  -19.2525   -4.5273 C   0  0  0  0  0  0  0  0  0  0  0  0
   27.3758  -20.3324   -3.8361 C   0  0  0  0  0  0  0  0  0  0  0  0
   28.0598  -21.2923   -4.5488 C   0  0  0  0  0  0  0  0  0  0  0  0
   28.2282  -21.1608   -5.9219 C   0  0  0  0  0  0  0  0  0  0  0  0
   25.4006  -20.0999   -8.2889 C   0  0  0  0  0  0  0  0  0  0  0  0
   24.8587  -19.0068   -8.6720 O   0  0  0  0  0  0  0  0  0  0  0  0
   20.6105  -23.0120   -8.4442 N   0  0  0  0  0  0  0  0  0  0  0  0
   21.2772  -21.7698   -8.6009 C   0  0  0  0  0  0  0  0  0  0  0  0
   20.5654  -20.7591   -8.7336 O   0  0  0  0  0  0  0  0  0  0  0  0
   22.7533  -21.6508   -8.6099 C   0  0  0  0  0  0  0  0  0  0  0  0
   23.2685  -21.0533   -7.3163 C   0  0  2  0  0  0  0  0  0  0  0  0
   24.7057  -20.8814   -7.3609 N   0  0  0  0  0  0  0  0  0  0  0  0
   22.8192  -21.9740   -6.2463 C   0  0  0  0  0  0  0  0  0  0  0  0
   23.5581  -22.9064   -5.8983 O   0  0  0  0  0  0  0  0  0  0  0  0
   21.5962  -21.7961   -5.6461 O   0  0  0  0  0  0  0  0  0  0  0  0
  2  3  2  0
  2  1  1  0
  4  3  1  0
  5  4  2  0
  6  5  1  0
  7  8  1  6
  7  6  1  0
  9  7  1  0
 10  9  2  0
 11  5  1  0
 11 12  2  0
 12  2  1  0
 13  9  1  0
 14 15  1  1
 14 13  1  0
 16 17  2  0
 16 15  1  0
 18 17  1  0
 19 18  2  0
 20 19  1  0
 20 21  2  0
 21 16  1  0
 22 14  1  0
 23 22  2  0
 25 24  1  0
 26 25  2  0
 27 25  1  0
 28 27  1  6
 28 29  1  0
 29 22  1  0
 30 28  1  0
 30 32  1  0
 31 30  2  0
M  END
$$$$
