YFN.pdb
     RDKit          3D

 32 33  0  0  1  0  0  0  0  0999 V2000
   28.1912  -19.8212  -22.3390 O   0  0  0  0  0  0  0  0  0  0  0  0
   27.5204  -20.0450  -21.1574 C   0  0  0  0  0  0  0  0  0  0  0  0
   27.5099  -19.1536  -20.1057 C   0  0  0  0  0  0  0  0  0  0  0  0
   26.8191  -19.4359  -18.9489 C   0  0  0  0  0  0  0  0  0  0  0  0
   26.1213  -20.6150  -18.8122 C   0  0  0  0  0  0  0  0  0  0  0  0
   25.3659  -20.9163  -17.5390 C   0  0  0  0  0  0  0  0  0  0  0  0
   26.3471  -21.5803  -16.5992 C   0  0  2  0  0  0  0  0  0  0  0  0
   26.6679  -22.9050  -17.0929 N   0  0  0  0  0  0  0  0  0  0  0  0
   25.8264  -21.7026  -15.2295 C   0  0  0  0  0  0  0  0  0  0  0  0
   24.8593  -22.4675  -14.9706 O   0  0  0  0  0  0  0  0  0  0  0  0
   26.1275  -21.5073  -19.8558 C   0  0  0  0  0  0  0  0  0  0  0  0
   26.8179  -21.2242  -21.0109 C   0  0  0  0  0  0  0  0  0  0  0  0
   26.3602  -20.9856  -14.1208 N   0  0  0  0  0  0  0  0  0  0  0  0
   25.7669  -21.0495  -12.7874 C   0  0  1  0  0  0  0  0  0  0  0  0
   26.7712  -20.6223  -11.7396 C   0  0  0  0  0  0  0  0  0  0  0  0
   26.1940  -20.4760  -10.3875 C   0  0  0  0  0  0  0  0  0  0  0  0
   26.2844  -21.5336   -9.4860 C   0  0  0  0  0  0  0  0  0  0  0  0
   25.7553  -21.4379   -8.2164 C   0  0  0  0  0  0  0  0  0  0  0  0
   25.1169  -20.2948   -7.7883 C   0  0  0  0  0  0  0  0  0  0  0  0
   25.0206  -19.2412   -8.6703 C   0  0  0  0  0  0  0  0  0  0  0  0
   25.5559  -19.3439   -9.9485 C   0  0  0  0  0  0  0  0  0  0  0  0
   24.4719  -20.3457  -12.7074 C   0  0  0  0  0  0  0  0  0  0  0  0
   24.3528  -19.3173  -13.4582 O   0  0  0  0  0  0  0  0  0  0  0  0
   19.3197  -19.7013  -12.6684 N   0  0  0  0  0  0  0  0  0  0  0  0
   20.0453  -20.4792  -13.6068 C   0  0  0  0  0  0  0  0  0  0  0  0
   19.4370  -20.8466  -14.6270 O   0  0  0  0  0  0  0  0  0  0  0  0
   21.4644  -20.8526  -13.4076 C   0  0  0  0  0  0  0  0  0  0  0  0
   22.0126  -20.2771  -12.1176 C   0  0  2  0  0  0  0  0  0  0  0  0
   23.3824  -20.6956  -11.9040 N   0  0  0  0  0  0  0  0  0  0  0  0
   21.0863  -20.7312  -11.0544 C   0  0  0  0  0  0  0  0  0  0  0  0
   19.8959  -20.3887  -11.0997 O   0  0  0  0  0  0  0  0  0  0  0  0
   21.5422  -21.5238  -10.0290 O   0  0  0  0  0  0  0  0  0  0  0  0
  2  3  2  0
  2  1  1  0
  4  3  1  0
  5  4  2  0
  6  5  1  0
  7  8  1  6
  7  6  1  0
  9  7  1  0
 10  9  2  0
 11  5  1  0
 11 12  2  0
 12  2  1  0
 13  9  1  0
 14 15  1  1
 14 13  1  0
 16 17  2  0
 16 15  1  0
 18 17  1  0
 19 18  2  0
 20 19  1  0
 20 21  2  0
 21 16  1  0
 22 14  1  0
 23 22  2  0
 25 24  1  0
 26 25  2  0
 27 25  1  0
 28 27  1  6
 28 29  1  0
 29 22  1  0
 30 28  1  0
 30 32  1  0
 31 30  2  0
M  END
$$$$
