AGY.pdb
     RDKit          3D

 22 22  0  0  1  0  0  0  0  0999 V2000
    7.2381  -12.9228   18.6899 C   0  0  0  0  0  0  0  0  0  0  0  0
    8.3881  -13.0692   19.6497 C   0  0  2  0  0  0  0  0  0  0  0  0
    9.5351  -13.5567   18.9076 N   0  0  0  0  0  0  0  0  0  0  0  0
    7.9984  -14.0863   20.6878 C   0  0  0  0  0  0  0  0  0  0  0  0
    6.9927  -13.8977   21.4181 O   0  0  0  0  0  0  0  0  0  0  0  0
    8.7486  -15.2734   20.8678 N   0  0  0  0  0  0  0  0  0  0  0  0
    8.3408  -16.2882   21.8329 C   0  0  0  0  0  0  0  0  0  0  0  0
    9.1260  -16.0917   23.0818 C   0  0  0  0  0  0  0  0  0  0  0  0
   10.3281  -15.7084   23.0408 O   0  0  0  0  0  0  0  0  0  0  0  0
    5.9471  -10.7492   26.3858 O   0  0  0  0  0  0  0  0  0  0  0  0
    6.5256  -12.0311   26.4527 C   0  0  0  0  0  0  0  0  0  0  0  0
    5.7438  -13.1621   26.2920 C   0  0  0  0  0  0  0  0  0  0  0  0
    6.2959  -14.4474   26.3543 C   0  0  0  0  0  0  0  0  0  0  0  0
    7.6471  -14.5735   26.5810 C   0  0  0  0  0  0  0  0  0  0  0  0
    8.2440  -15.9214   26.6508 C   0  0  0  0  0  0  0  0  0  0  0  0
    9.2694  -16.1866   25.5709 C   0  0  2  0  0  0  0  0  0  0  0  0
    8.5184  -16.3373   24.3356 N   0  0  0  0  0  0  0  0  0  0  0  0
   10.0531  -17.4032   25.7801 C   0  0  0  0  0  0  0  0  0  0  0  0
    9.8419  -18.4079   25.0625 O   0  0  0  0  0  0  0  0  0  0  0  0
    8.4059  -13.4366   26.7379 C   0  0  0  0  0  0  0  0  0  0  0  0
    7.8666  -12.1644   26.6774 C   0  0  0  0  0  0  0  0  0  0  0  0
   11.0326  -17.4928   26.7515 O   0  0  0  0  0  0  0  0  0  0  0  0
  2  1  1  6
  2  4  1  0
  2  3  1  0
  4  6  1  0
  5  4  2  0
  6  7  1  0
  7  8  1  0
  8 17  1  0
  9  8  2  0
 10 11  1  0
 11 12  2  0
 11 21  1  0
 12 13  1  0
 13 14  2  0
 14 15  1  0
 16 15  1  1
 16 18  1  0
 17 16  1  0
 18 19  2  0
 18 22  1  0
 20 14  1  0
 21 20  2  0
M  END
$$$$
