AGY.pdb
     RDKit          3D

 22 22  0  0  1  0  0  0  0  0999 V2000
    5.1168  -18.2137   20.5288 C   0  0  0  0  0  0  0  0  0  0  0  0
    6.5331  -18.7229   20.5433 C   0  0  2  0  0  0  0  0  0  0  0  0
    6.7791  -19.3336   21.8358 N   0  0  0  0  0  0  0  0  0  0  0  0
    7.4511  -17.5438   20.3673 C   0  0  0  0  0  0  0  0  0  0  0  0
    7.5345  -16.9619   19.2561 O   0  0  0  0  0  0  0  0  0  0  0  0
    8.2390  -17.0626   21.4406 N   0  0  0  0  0  0  0  0  0  0  0  0
    9.1505  -15.9373   21.2661 C   0  0  0  0  0  0  0  0  0  0  0  0
    9.8365  -15.6827   22.5622 C   0  0  0  0  0  0  0  0  0  0  0  0
   10.9500  -15.0895   22.6031 O   0  0  0  0  0  0  0  0  0  0  0  0
    5.8796  -11.0660   26.2255 O   0  0  0  0  0  0  0  0  0  0  0  0
    6.6162  -12.2655   26.1925 C   0  0  0  0  0  0  0  0  0  0  0  0
    5.9704  -13.4806   26.0419 C   0  0  0  0  0  0  0  0  0  0  0  0
    6.6809  -14.6868   26.0062 C   0  0  0  0  0  0  0  0  0  0  0  0
    8.0511  -14.6477   26.1247 C   0  0  0  0  0  0  0  0  0  0  0  0
    8.8143  -15.9104   26.0904 C   0  0  0  0  0  0  0  0  0  0  0  0
    9.9063  -15.9300   25.0439 C   0  0  2  0  0  0  0  0  0  0  0  0
    9.2337  -16.1111   23.7682 N   0  0  0  0  0  0  0  0  0  0  0  0
   10.8704  -17.0166   25.2100 C   0  0  0  0  0  0  0  0  0  0  0  0
   10.7173  -18.0842   24.5731 O   0  0  0  0  0  0  0  0  0  0  0  0
    8.6731  -13.4295   26.2735 C   0  0  0  0  0  0  0  0  0  0  0  0
    7.9771  -12.2348   26.3096 C   0  0  0  0  0  0  0  0  0  0  0  0
   11.9609  -16.9140   26.0535 O   0  0  0  0  0  0  0  0  0  0  0  0
  2  1  1  1
  2  4  1  0
  2  3  1  0
  4  6  1  0
  5  4  2  0
  6  7  1  0
  7  8  1  0
  8 17  1  0
  9  8  2  0
 10 11  1  0
 11 12  2  0
 11 21  1  0
 12 13  1  0
 13 14  2  0
 14 15  1  0
 16 15  1  1
 16 18  1  0
 17 16  1  0
 18 19  2  0
 18 22  1  0
 20 14  1  0
 21 20  2  0
M  END
$$$$
