AGY.pdb
     RDKit          3D

 22 22  0  0  1  0  0  0  0  0999 V2000
    6.4078  -19.1828   19.5506 C   0  0  0  0  0  0  0  0  0  0  0  0
    7.7432  -18.6757   20.0250 C   0  0  2  0  0  0  0  0  0  0  0  0
    8.3285  -19.6856   20.8862 N   0  0  0  0  0  0  0  0  0  0  0  0
    7.5062  -17.4205   20.8201 C   0  0  0  0  0  0  0  0  0  0  0  0
    6.5049  -17.3237   21.5740 O   0  0  0  0  0  0  0  0  0  0  0  0
    8.3981  -16.3239   20.7404 N   0  0  0  0  0  0  0  0  0  0  0  0
    8.2030  -15.1283   21.5529 C   0  0  0  0  0  0  0  0  0  0  0  0
    8.8140  -15.3635   22.8895 C   0  0  0  0  0  0  0  0  0  0  0  0
    9.9164  -14.8343   23.2028 O   0  0  0  0  0  0  0  0  0  0  0  0
    6.0968  -10.4871   26.5783 O   0  0  0  0  0  0  0  0  0  0  0  0
    6.4165  -11.8522   26.4490 C   0  0  0  0  0  0  0  0  0  0  0  0
    5.5169  -12.7309   25.8702 C   0  0  0  0  0  0  0  0  0  0  0  0
    5.8118  -14.0927   25.7306 C   0  0  0  0  0  0  0  0  0  0  0  0
    7.0267  -14.5532   26.1834 C   0  0  0  0  0  0  0  0  0  0  0  0
    7.3520  -15.9861   26.0448 C   0  0  0  0  0  0  0  0  0  0  0  0
    8.5862  -16.2492   25.2108 C   0  0  2  0  0  0  0  0  0  0  0  0
    8.1514  -16.1923   23.8251 N   0  0  0  0  0  0  0  0  0  0  0  0
    9.1950  -17.5578   25.4450 C   0  0  0  0  0  0  0  0  0  0  0  0
    8.9681  -18.4985   24.6498 O   0  0  0  0  0  0  0  0  0  0  0  0
    7.9061  -13.6632   26.7554 C   0  0  0  0  0  0  0  0  0  0  0  0
    7.6209  -12.3171   26.8962 C   0  0  0  0  0  0  0  0  0  0  0  0
   10.0233  -17.8046   26.5239 O   0  0  0  0  0  0  0  0  0  0  0  0
  2  1  1  1
  2  4  1  0
  2  3  1  0
  4  6  1  0
  5  4  2  0
  6  7  1  0
  7  8  1  0
  8 17  1  0
  9  8  2  0
 10 11  1  0
 11 12  2  0
 11 21  1  0
 12 13  1  0
 13 14  2  0
 14 15  1  0
 16 15  1  1
 16 18  1  0
 17 16  1  0
 18 19  2  0
 18 22  1  0
 20 14  1  0
 21 20  2  0
M  END
$$$$
