AGY.pdb
     RDKit          3D

 22 22  0  0  1  0  0  0  0  0999 V2000
    5.9972  -14.9214   20.1461 C   0  0  0  0  0  0  0  0  0  0  0  0
    6.8357  -16.1492   20.3801 C   0  0  2  0  0  0  0  0  0  0  0  0
    6.3216  -16.8288   21.5540 N   0  0  0  0  0  0  0  0  0  0  0  0
    8.2483  -15.7023   20.6428 C   0  0  0  0  0  0  0  0  0  0  0  0
    8.9556  -15.2457   19.7093 O   0  0  0  0  0  0  0  0  0  0  0  0
    8.8132  -15.7838   21.9383 N   0  0  0  0  0  0  0  0  0  0  0  0
   10.2189  -15.4728   22.1726 C   0  0  0  0  0  0  0  0  0  0  0  0
   10.5048  -15.6523   23.6222 C   0  0  0  0  0  0  0  0  0  0  0  0
   11.6684  -15.4833   24.0814 O   0  0  0  0  0  0  0  0  0  0  0  0
    6.1663  -10.8810   26.3887 O   0  0  0  0  0  0  0  0  0  0  0  0
    6.7205  -12.1742   26.4431 C   0  0  0  0  0  0  0  0  0  0  0  0
    5.9370  -13.2842   26.1778 C   0  0  0  0  0  0  0  0  0  0  0  0
    6.4651  -14.5802   26.2256 C   0  0  0  0  0  0  0  0  0  0  0  0
    7.7941  -14.7385   26.5447 C   0  0  0  0  0  0  0  0  0  0  0  0
    8.3655  -16.0981   26.6006 C   0  0  0  0  0  0  0  0  0  0  0  0
    9.7101  -16.2186   25.9184 C   0  0  2  0  0  0  0  0  0  0  0  0
    9.4583  -16.0179   24.5011 N   0  0  0  0  0  0  0  0  0  0  0  0
   10.3491  -17.5227   26.0884 C   0  0  0  0  0  0  0  0  0  0  0  0
   10.4004  -18.3187   25.1227 O   0  0  0  0  0  0  0  0  0  0  0  0
    8.5550  -13.6221   26.8048 C   0  0  0  0  0  0  0  0  0  0  0  0
    8.0394  -12.3394   26.7593 C   0  0  0  0  0  0  0  0  0  0  0  0
   10.9075  -17.9207   27.2888 O   0  0  0  0  0  0  0  0  0  0  0  0
  2  1  1  1
  2  4  1  0
  2  3  1  0
  4  6  1  0
  5  4  2  0
  6  7  1  0
  7  8  1  0
  8 17  1  0
  9  8  2  0
 10 11  1  0
 11 12  2  0
 11 21  1  0
 12 13  1  0
 13 14  2  0
 14 15  1  0
 16 15  1  1
 16 18  1  0
 17 16  1  0
 18 19  2  0
 18 22  1  0
 20 14  1  0
 21 20  2  0
M  END
$$$$
