AGY.pdb
     RDKit          3D

 22 22  0  0  1  0  0  0  0  0999 V2000
    5.8169  -15.5987   20.5003 C   0  0  0  0  0  0  0  0  0  0  0  0
    7.0045  -16.4959   20.2767 C   0  0  2  0  0  0  0  0  0  0  0  0
    6.8399  -17.6757   21.1044 N   0  0  0  0  0  0  0  0  0  0  0  0
    8.2367  -15.7505   20.7124 C   0  0  0  0  0  0  0  0  0  0  0  0
    8.6284  -14.7402   20.0751 O   0  0  0  0  0  0  0  0  0  0  0  0
    8.9815  -16.1644   21.8430 N   0  0  0  0  0  0  0  0  0  0  0  0
   10.2270  -15.5017   22.2137 C   0  0  0  0  0  0  0  0  0  0  0  0
   10.4601  -15.7184   23.6675 C   0  0  0  0  0  0  0  0  0  0  0  0
   11.4756  -15.2369   24.2422 O   0  0  0  0  0  0  0  0  0  0  0  0
    6.5480  -10.9951   26.6317 O   0  0  0  0  0  0  0  0  0  0  0  0
    6.9767  -12.3352   26.5770 C   0  0  0  0  0  0  0  0  0  0  0  0
    6.0930  -13.3398   26.2221 C   0  0  0  0  0  0  0  0  0  0  0  0
    6.4954  -14.6796   26.1606 C   0  0  0  0  0  0  0  0  0  0  0  0
    7.8015  -14.9894   26.4626 C   0  0  0  0  0  0  0  0  0  0  0  0
    8.2410  -16.3971   26.4039 C   0  0  0  0  0  0  0  0  0  0  0  0
    9.6436  -16.5719   25.8652 C   0  0  2  0  0  0  0  0  0  0  0  0
    9.5310  -16.4753   24.4194 N   0  0  0  0  0  0  0  0  0  0  0  0
   10.2498  -17.8620   26.1909 C   0  0  0  0  0  0  0  0  0  0  0  0
   10.3921  -18.7244   25.2937 O   0  0  0  0  0  0  0  0  0  0  0  0
    8.6634  -13.9758   26.8130 C   0  0  0  0  0  0  0  0  0  0  0  0
    8.2721  -12.6507   26.8755 C   0  0  0  0  0  0  0  0  0  0  0  0
   10.6792  -18.1752   27.4670 O   0  0  0  0  0  0  0  0  0  0  0  0
  2  1  1  1
  2  4  1  0
  2  3  1  0
  4  6  1  0
  5  4  2  0
  6  7  1  0
  7  8  1  0
  8 17  1  0
  9  8  2  0
 10 11  1  0
 11 12  2  0
 11 21  1  0
 12 13  1  0
 13 14  2  0
 14 15  1  0
 16 15  1  1
 16 18  1  0
 17 16  1  0
 18 19  2  0
 18 22  1  0
 20 14  1  0
 21 20  2  0
M  END
$$$$
