AGY.pdb
     RDKit          3D

 22 22  0  0  1  0  0  0  0  0999 V2000
    7.3527  -12.7348   18.7277 C   0  0  0  0  0  0  0  0  0  0  0  0
    8.5900  -13.1461   19.4794 C   0  0  2  0  0  0  0  0  0  0  0  0
    9.4311  -13.9109   18.5785 N   0  0  0  0  0  0  0  0  0  0  0  0
    8.1652  -14.0216   20.6271 C   0  0  0  0  0  0  0  0  0  0  0  0
    7.3502  -13.5965   21.4846 O   0  0  0  0  0  0  0  0  0  0  0  0
    8.6686  -15.3370   20.7700 N   0  0  0  0  0  0  0  0  0  0  0  0
    8.1879  -16.2215   21.8256 C   0  0  0  0  0  0  0  0  0  0  0  0
    8.9816  -15.9586   23.0569 C   0  0  0  0  0  0  0  0  0  0  0  0
   10.0967  -15.3700   22.9984 O   0  0  0  0  0  0  0  0  0  0  0  0
    5.8743  -10.7888   26.5362 O   0  0  0  0  0  0  0  0  0  0  0  0
    6.4529  -12.0723   26.5558 C   0  0  0  0  0  0  0  0  0  0  0  0
    7.7267  -12.2591   27.0644 C   0  0  0  0  0  0  0  0  0  0  0  0
    8.3234  -13.5256   27.0947 C   0  0  0  0  0  0  0  0  0  0  0  0
    7.6157  -14.5989   26.6045 C   0  0  0  0  0  0  0  0  0  0  0  0
    8.2312  -15.9400   26.6280 C   0  0  0  0  0  0  0  0  0  0  0  0
    9.2475  -16.1596   25.5295 C   0  0  2  0  0  0  0  0  0  0  0  0
    8.4810  -16.3736   24.3132 N   0  0  0  0  0  0  0  0  0  0  0  0
   10.1073  -17.3237   25.7380 C   0  0  0  0  0  0  0  0  0  0  0  0
    9.8830  -18.3815   25.1058 O   0  0  0  0  0  0  0  0  0  0  0  0
    6.3513  -14.3912   26.1035 C   0  0  0  0  0  0  0  0  0  0  0  0
    5.7564  -13.1430   26.0708 C   0  0  0  0  0  0  0  0  0  0  0  0
   11.1740  -17.3061   26.6172 O   0  0  0  0  0  0  0  0  0  0  0  0
  2  1  1  6
  2  4  1  0
  2  3  1  0
  4  6  1  0
  5  4  2  0
  6  7  1  0
  7  8  1  0
  8 17  1  0
  9  8  2  0
 10 11  1  0
 11 12  2  0
 11 21  1  0
 12 13  1  0
 13 14  2  0
 14 15  1  0
 16 15  1  1
 16 18  1  0
 17 16  1  0
 18 19  2  0
 18 22  1  0
 20 14  1  0
 21 20  2  0
M  END
$$$$
