AGY.pdb
     RDKit          3D

 22 22  0  0  1  0  0  0  0  0999 V2000
    7.5188  -12.6060   17.8949 C   0  0  0  0  0  0  0  0  0  0  0  0
    8.5791  -13.4379   18.5649 C   0  0  2  0  0  0  0  0  0  0  0  0
    8.8931  -14.5545   17.6937 N   0  0  0  0  0  0  0  0  0  0  0  0
    8.0111  -13.9594   19.8569 C   0  0  0  0  0  0  0  0  0  0  0  0
    7.6128  -13.1634   20.7446 O   0  0  0  0  0  0  0  0  0  0  0  0
    7.9112  -15.3497   20.1046 N   0  0  0  0  0  0  0  0  0  0  0  0
    7.4095  -15.8584   21.3764 C   0  0  0  0  0  0  0  0  0  0  0  0
    8.4296  -15.5880   22.4260 C   0  0  0  0  0  0  0  0  0  0  0  0
    9.5744  -15.1509   22.1230 O   0  0  0  0  0  0  0  0  0  0  0  0
   11.4712  -14.6718   30.7291 O   0  0  0  0  0  0  0  0  0  0  0  0
   10.6785  -14.8226   29.5752 C   0  0  0  0  0  0  0  0  0  0  0  0
   10.2239  -16.0738   29.1959 C   0  0  0  0  0  0  0  0  0  0  0  0
    9.4343  -16.2493   28.0527 C   0  0  0  0  0  0  0  0  0  0  0  0
    9.1112  -15.1441   27.2996 C   0  0  0  0  0  0  0  0  0  0  0  0
    8.2810  -15.3124   26.0911 C   0  0  0  0  0  0  0  0  0  0  0  0
    9.0846  -15.5569   24.8332 C   0  0  2  0  0  0  0  0  0  0  0  0
    8.1140  -15.8236   23.7847 N   0  0  0  0  0  0  0  0  0  0  0  0
    9.9904  -16.7015   24.9187 C   0  0  0  0  0  0  0  0  0  0  0  0
    9.5518  -17.8563   24.7114 O   0  0  0  0  0  0  0  0  0  0  0  0
    9.5733  -13.9098   27.6944 C   0  0  0  0  0  0  0  0  0  0  0  0
   10.3534  -13.7299   28.8222 C   0  0  0  0  0  0  0  0  0  0  0  0
   11.3315  -16.5610   25.2234 O   0  0  0  0  0  0  0  0  0  0  0  0
  2  1  1  6
  2  4  1  0
  2  3  1  0
  4  6  1  0
  5  4  2  0
  6  7  1  0
  7  8  1  0
  8 17  1  0
  9  8  2  0
 10 11  1  0
 11 12  2  0
 11 21  1  0
 12 13  1  0
 13 14  2  0
 14 15  1  0
 16 15  1  1
 16 18  1  0
 17 16  1  0
 18 19  2  0
 18 22  1  0
 20 14  1  0
 21 20  2  0
M  END
$$$$
