NIW.pdb
     RDKit          3D

 31 32  0  0  1  0  0  0  0  0999 V2000
   14.0883  -18.6393   22.2216 N   0  0  0  0  0  0  0  0  0  0  0  0
   14.5741  -18.9695   23.5063 C   0  0  0  0  0  0  0  0  0  0  0  0
   15.6710  -19.6060   23.5678 O   0  0  0  0  0  0  0  0  0  0  0  0
   13.8399  -18.5915   24.7164 C   0  0  0  0  0  0  0  0  0  0  0  0
   12.5611  -17.8712   24.3337 C   0  0  2  0  0  0  0  0  0  0  0  0
   12.8261  -16.5971   23.7441 N   0  0  0  0  0  0  0  0  0  0  0  0
   11.6323  -17.7743   25.5010 C   0  0  0  0  0  0  0  0  0  0  0  0
   11.3063  -18.8053   26.1541 O   0  0  0  0  0  0  0  0  0  0  0  0
   11.3873  -13.3750   28.6748 C   0  0  0  0  0  0  0  0  0  0  0  0
   11.3709  -14.7857   28.0990 C   0  0  0  0  0  0  0  0  0  0  0  0
   10.0157  -15.1645   27.6130 C   0  0  2  0  0  0  0  0  0  0  0  0
    8.9378  -14.9431   28.6396 C   0  0  0  0  0  0  0  0  0  0  0  0
   10.0196  -16.5073   26.9766 C   0  0  2  0  0  0  0  0  0  0  0  0
   11.0692  -16.5461   25.9414 N   0  0  0  0  0  0  0  0  0  0  0  0
    8.7244  -16.9498   26.4151 C   0  0  0  0  0  0  0  0  0  0  0  0
    7.7537  -17.1668   27.1835 O   0  0  0  0  0  0  0  0  0  0  0  0
    8.5224  -17.1431   25.0378 N   0  0  0  0  0  0  0  0  0  0  0  0
    7.1921  -17.4495   24.4826 C   0  0  1  0  0  0  0  0  0  0  0  0
    6.8927  -16.5505   23.3465 C   0  0  0  0  0  0  0  0  0  0  0  0
    7.2227  -15.1413   23.4538 C   0  0  0  0  0  0  0  0  0  0  0  0
    8.1017  -14.4246   22.6460 C   0  0  0  0  0  0  0  0  0  0  0  0
    8.1240  -13.1761   23.1167 N   0  0  0  0  0  0  0  0  0  0  0  0
    7.3048  -13.0571   24.1828 C   0  0  0  0  0  0  0  0  0  0  0  0
    7.0046  -11.9562   24.9743 C   0  0  0  0  0  0  0  0  0  0  0  0
    6.1038  -12.1410   25.9976 C   0  0  0  0  0  0  0  0  0  0  0  0
    5.5117  -13.3503   26.2486 C   0  0  0  0  0  0  0  0  0  0  0  0
    5.8139  -14.4329   25.4628 C   0  0  0  0  0  0  0  0  0  0  0  0
    6.7216  -14.2783   24.4204 C   0  0  0  0  0  0  0  0  0  0  0  0
    7.0242  -18.8794   24.3029 C   0  0  0  0  0  0  0  0  0  0  0  0
    5.8413  -19.4965   23.9237 O   0  0  0  0  0  0  0  0  0  0  0  0
    7.9931  -19.6988   24.4941 O   0  0  0  0  0  0  0  0  0  0  0  0
  2  3  2  0
  2  1  1  0
  4  2  1  0
  5  6  1  1
  5  4  1  0
  7  8  2  0
  7  5  1  0
  9 10  1  0
 10 11  1  0
 11 12  1  1
 13 11  1  0
 13 14  1  6
 14  7  1  0
 15 13  1  0
 16 15  2  0
 17 15  1  0
 18 29  1  0
 18 17  1  0
 18 19  1  6
 20 19  1  0
 21 20  2  0
 22 21  1  0
 23 22  1  0
 23 28  2  0
 24 23  1  0
 25 24  2  0
 25 26  1  0
 26 27  2  0
 27 28  1  0
 28 20  1  0
 29 30  1  0
 31 29  2  0
M  END
$$$$
