NIW.pdb
     RDKit          3D

 31 32  0  0  1  0  0  0  0  0999 V2000
   14.0179  -16.5294   16.6801 N   0  0  0  0  0  0  0  0  0  0  0  0
   14.0281  -17.1656   17.9413 C   0  0  0  0  0  0  0  0  0  0  0  0
   14.5541  -18.3194   18.0068 O   0  0  0  0  0  0  0  0  0  0  0  0
   13.4544  -16.5180   19.1235 C   0  0  0  0  0  0  0  0  0  0  0  0
   12.7531  -15.2370   18.7141 C   0  0  2  0  0  0  0  0  0  0  0  0
   13.6804  -14.2383   18.2852 N   0  0  0  0  0  0  0  0  0  0  0  0
   11.8554  -14.7471   19.8045 C   0  0  0  0  0  0  0  0  0  0  0  0
   12.3082  -14.0290   20.7399 O   0  0  0  0  0  0  0  0  0  0  0  0
    7.1718  -12.6573   18.7828 C   0  0  0  0  0  0  0  0  0  0  0  0
    8.4930  -13.0354   19.4411 C   0  0  0  0  0  0  0  0  0  0  0  0
    8.3171  -14.1272   20.4378 C   0  0  2  0  0  0  0  0  0  0  0  0
    7.2686  -13.8182   21.4721 C   0  0  0  0  0  0  0  0  0  0  0  0
    9.6223  -14.5904   20.9760 C   0  0  2  0  0  0  0  0  0  0  0  0
   10.4679  -15.0499   19.8586 N   0  0  0  0  0  0  0  0  0  0  0  0
    9.5455  -15.6297   22.0262 C   0  0  0  0  0  0  0  0  0  0  0  0
    9.6291  -16.8431   21.7092 O   0  0  0  0  0  0  0  0  0  0  0  0
    9.3804  -15.3206   23.3872 N   0  0  0  0  0  0  0  0  0  0  0  0
    9.3643  -16.3661   24.4255 C   0  0  1  0  0  0  0  0  0  0  0  0
    9.2104  -15.7552   25.7641 C   0  0  0  0  0  0  0  0  0  0  0  0
    7.9369  -15.1624   26.1287 C   0  0  0  0  0  0  0  0  0  0  0  0
    6.6990  -15.7987   26.1677 C   0  0  0  0  0  0  0  0  0  0  0  0
    5.8041  -14.8753   26.5245 N   0  0  0  0  0  0  0  0  0  0  0  0
    6.4053  -13.6821   26.7163 C   0  0  0  0  0  0  0  0  0  0  0  0
    5.8794  -12.4561   27.1020 C   0  0  0  0  0  0  0  0  0  0  0  0
    6.7577  -11.4052   27.2321 C   0  0  0  0  0  0  0  0  0  0  0  0
    8.1009  -11.5340   26.9971 C   0  0  0  0  0  0  0  0  0  0  0  0
    8.6124  -12.7480   26.6158 C   0  0  0  0  0  0  0  0  0  0  0  0
    7.7498  -13.8300   26.4751 C   0  0  0  0  0  0  0  0  0  0  0  0
    8.4803  -17.4536   24.0500 C   0  0  0  0  0  0  0  0  0  0  0  0
    8.6430  -18.7759   24.4357 O   0  0  0  0  0  0  0  0  0  0  0  0
    7.4539  -17.2581   23.3049 O   0  0  0  0  0  0  0  0  0  0  0  0
  2  3  2  0
  2  1  1  0
  4  2  1  0
  5  6  1  1
  5  4  1  0
  7  8  2  0
  7  5  1  0
  9 10  1  0
 10 11  1  0
 11 12  1  1
 13 11  1  0
 13 14  1  6
 14  7  1  0
 15 13  1  0
 16 15  2  0
 17 15  1  0
 18 29  1  0
 18 17  1  0
 18 19  1  1
 20 19  1  0
 21 20  2  0
 22 21  1  0
 23 22  1  0
 23 28  2  0
 24 23  1  0
 25 24  2  0
 25 26  1  0
 26 27  2  0
 27 28  1  0
 28 20  1  0
 29 30  1  0
 31 29  2  0
M  END
$$$$
