NIW.pdb
     RDKit          3D

 31 32  0  0  1  0  0  0  0  0999 V2000
   10.9295  -20.3963   17.9128 N   0  0  0  0  0  0  0  0  0  0  0  0
    9.7407  -19.6740   17.6665 C   0  0  0  0  0  0  0  0  0  0  0  0
    8.8922  -20.2001   16.8819 O   0  0  0  0  0  0  0  0  0  0  0  0
    9.4996  -18.3715   18.2922 C   0  0  0  0  0  0  0  0  0  0  0  0
    9.7506  -18.4680   19.7849 C   0  0  2  0  0  0  0  0  0  0  0  0
    8.7611  -19.2645   20.4388 N   0  0  0  0  0  0  0  0  0  0  0  0
    9.8789  -17.1089   20.3943 C   0  0  0  0  0  0  0  0  0  0  0  0
   10.9253  -16.4217   20.2254 O   0  0  0  0  0  0  0  0  0  0  0  0
    6.2699  -13.4753   19.7897 C   0  0  0  0  0  0  0  0  0  0  0  0
    7.5582  -14.2406   20.0658 C   0  0  0  0  0  0  0  0  0  0  0  0
    7.8199  -14.3664   21.5260 C   0  0  2  0  0  0  0  0  0  0  0  0
    7.7605  -13.0492   22.2514 C   0  0  0  0  0  0  0  0  0  0  0  0
    9.0305  -15.1850   21.7951 C   0  0  2  0  0  0  0  0  0  0  0  0
    8.8570  -16.5159   21.1841 N   0  0  0  0  0  0  0  0  0  0  0  0
    9.4068  -15.3163   23.2199 C   0  0  0  0  0  0  0  0  0  0  0  0
    9.8788  -14.3261   23.8334 O   0  0  0  0  0  0  0  0  0  0  0  0
    9.2595  -16.5173   23.9346 N   0  0  0  0  0  0  0  0  0  0  0  0
    9.7393  -16.6612   25.3205 C   0  0  1  0  0  0  0  0  0  0  0  0
    8.5932  -16.7641   26.2503 C   0  0  0  0  0  0  0  0  0  0  0  0
    7.5704  -15.7348   26.2288 C   0  0  0  0  0  0  0  0  0  0  0  0
    6.2502  -15.8766   25.8098 C   0  0  0  0  0  0  0  0  0  0  0  0
    5.6781  -14.6772   25.9315 N   0  0  0  0  0  0  0  0  0  0  0  0
    6.5634  -13.7761   26.4071 C   0  0  0  0  0  0  0  0  0  0  0  0
    6.4116  -12.4275   26.7014 C   0  0  0  0  0  0  0  0  0  0  0  0
    7.5089  -11.7620   27.1971 C   0  0  0  0  0  0  0  0  0  0  0  0
    8.7143  -12.3790   27.4021 C   0  0  0  0  0  0  0  0  0  0  0  0
    8.8564  -13.7111   27.1084 C   0  0  0  0  0  0  0  0  0  0  0  0
    7.7654  -14.4117   26.6051 C   0  0  0  0  0  0  0  0  0  0  0  0
   10.7939  -17.6542   25.4016 C   0  0  0  0  0  0  0  0  0  0  0  0
   11.2054  -18.4603   24.3505 O   0  0  0  0  0  0  0  0  0  0  0  0
   11.4368  -17.8637   26.4923 O   0  0  0  0  0  0  0  0  0  0  0  0
  2  3  2  0
  2  1  1  0
  4  2  1  0
  5  6  1  1
  5  4  1  0
  7  8  2  0
  7  5  1  0
  9 10  1  0
 10 11  1  0
 11 12  1  6
 13 11  1  0
 13 14  1  1
 14  7  1  0
 15 13  1  0
 16 15  2  0
 17 15  1  0
 18 29  1  0
 18 17  1  0
 18 19  1  1
 20 19  1  0
 21 20  2  0
 22 21  1  0
 23 22  1  0
 23 28  2  0
 24 23  1  0
 25 24  2  0
 25 26  1  0
 26 27  2  0
 27 28  1  0
 28 20  1  0
 29 30  1  0
 31 29  2  0
M  END
$$$$
