NIW.pdb
     RDKit          3D

 31 32  0  0  1  0  0  0  0  0999 V2000
    6.6998  -21.4974   20.9524 N   0  0  0  0  0  0  0  0  0  0  0  0
    7.4498  -21.0964   19.8245 C   0  0  0  0  0  0  0  0  0  0  0  0
    7.1858  -21.6623   18.7189 O   0  0  0  0  0  0  0  0  0  0  0  0
    8.4890  -20.0691   19.9293 C   0  0  0  0  0  0  0  0  0  0  0  0
    7.9568  -18.7491   19.4050 C   0  0  2  0  0  0  0  0  0  0  0  0
    7.8678  -18.7419   17.9791 N   0  0  0  0  0  0  0  0  0  0  0  0
    8.7603  -17.6027   19.9293 C   0  0  0  0  0  0  0  0  0  0  0  0
   10.0165  -17.5810   19.7977 O   0  0  0  0  0  0  0  0  0  0  0  0
    6.8418  -12.2899   20.4979 C   0  0  0  0  0  0  0  0  0  0  0  0
    7.2489  -13.6523   21.0455 C   0  0  0  0  0  0  0  0  0  0  0  0
    8.5441  -14.1099   20.4715 C   0  0  2  0  0  0  0  0  0  0  0  0
    8.5602  -14.0959   18.9668 C   0  0  0  0  0  0  0  0  0  0  0  0
    9.0022  -15.3765   21.0993 C   0  0  2  0  0  0  0  0  0  0  0  0
    8.1777  -16.4898   20.5938 N   0  0  0  0  0  0  0  0  0  0  0  0
    9.0258  -15.3820   22.5786 C   0  0  0  0  0  0  0  0  0  0  0  0
    8.0085  -15.0156   23.2193 O   0  0  0  0  0  0  0  0  0  0  0  0
   10.1519  -15.7847   23.3167 N   0  0  0  0  0  0  0  0  0  0  0  0
   10.1855  -15.7075   24.7879 C   0  0  1  0  0  0  0  0  0  0  0  0
    9.0062  -16.3910   25.3630 C   0  0  0  0  0  0  0  0  0  0  0  0
    7.7772  -15.6426   25.5516 C   0  0  0  0  0  0  0  0  0  0  0  0
    6.4946  -16.0328   25.1757 C   0  0  0  0  0  0  0  0  0  0  0  0
    5.6757  -15.0343   25.5123 N   0  0  0  0  0  0  0  0  0  0  0  0
    6.3678  -14.0264   26.0842 C   0  0  0  0  0  0  0  0  0  0  0  0
    5.9367  -12.8093   26.5955 C   0  0  0  0  0  0  0  0  0  0  0  0
    6.8898  -11.9801   27.1402 C   0  0  0  0  0  0  0  0  0  0  0  0
    8.2168  -12.3154   27.1897 C   0  0  0  0  0  0  0  0  0  0  0  0
    8.6347  -13.5190   26.6820 C   0  0  0  0  0  0  0  0  0  0  0  0
    7.6951  -14.3793   26.1239 C   0  0  0  0  0  0  0  0  0  0  0  0
   11.5026  -16.0465   25.2931 C   0  0  0  0  0  0  0  0  0  0  0  0
   11.8722  -16.0092   26.6294 O   0  0  0  0  0  0  0  0  0  0  0  0
   12.4494  -16.4125   24.5080 O   0  0  0  0  0  0  0  0  0  0  0  0
  2  3  2  0
  2  1  1  0
  4  2  1  0
  5  6  1  6
  5  4  1  0
  7  8  2  0
  7  5  1  0
  9 10  1  0
 10 11  1  0
 11 12  1  6
 13 11  1  0
 13 14  1  1
 14  7  1  0
 15 13  1  0
 16 15  2  0
 17 15  1  0
 18 29  1  0
 18 17  1  0
 18 19  1  1
 20 19  1  0
 21 20  2  0
 22 21  1  0
 23 22  1  0
 23 28  2  0
 24 23  1  0
 25 24  2  0
 25 26  1  0
 26 27  2  0
 27 28  1  0
 28 20  1  0
 29 30  1  0
 31 29  2  0
M  END
$$$$
