NIW.pdb
     RDKit          3D

 31 32  0  0  1  0  0  0  0  0999 V2000
   14.0168  -13.2910   18.7681 N   0  0  0  0  0  0  0  0  0  0  0  0
   13.5786  -14.5801   19.1445 C   0  0  0  0  0  0  0  0  0  0  0  0
   14.1129  -15.5709   18.5571 O   0  0  0  0  0  0  0  0  0  0  0  0
   12.5496  -14.7630   20.1711 C   0  0  0  0  0  0  0  0  0  0  0  0
   11.4338  -15.6340   19.6262 C   0  0  2  0  0  0  0  0  0  0  0  0
   10.7900  -15.0300   18.5028 N   0  0  0  0  0  0  0  0  0  0  0  0
   10.4665  -16.0008   20.7052 C   0  0  0  0  0  0  0  0  0  0  0  0
    9.5982  -15.1738   21.1026 O   0  0  0  0  0  0  0  0  0  0  0  0
    7.9555  -20.5621   20.5448 C   0  0  0  0  0  0  0  0  0  0  0  0
    8.3765  -19.1238   20.8202 C   0  0  0  0  0  0  0  0  0  0  0  0
    8.9742  -18.9767   22.1757 C   0  0  2  0  0  0  0  0  0  0  0  0
    8.0950  -19.5193   23.2699 C   0  0  0  0  0  0  0  0  0  0  0  0
    9.4890  -17.6008   22.3989 C   0  0  2  0  0  0  0  0  0  0  0  0
   10.4607  -17.2728   21.3391 N   0  0  0  0  0  0  0  0  0  0  0  0
   10.0763  -17.3491   23.7333 C   0  0  0  0  0  0  0  0  0  0  0  0
   11.2495  -17.7272   23.9790 O   0  0  0  0  0  0  0  0  0  0  0  0
    9.3729  -16.6954   24.7593 N   0  0  0  0  0  0  0  0  0  0  0  0
   10.0016  -16.3800   26.0543 C   0  0  1  0  0  0  0  0  0  0  0  0
    9.5441  -15.0584   26.5366 C   0  0  0  0  0  0  0  0  0  0  0  0
    8.1653  -14.6634   26.3154 C   0  0  0  0  0  0  0  0  0  0  0  0
    7.0624  -15.5055   26.2007 C   0  0  0  0  0  0  0  0  0  0  0  0
    6.0046  -14.7239   25.9751 N   0  0  0  0  0  0  0  0  0  0  0  0
    6.3735  -13.4259   25.9403 C   0  0  0  0  0  0  0  0  0  0  0  0
    5.6187  -12.2759   25.7496 C   0  0  0  0  0  0  0  0  0  0  0  0
    6.2833  -11.0718   25.7830 C   0  0  0  0  0  0  0  0  0  0  0  0
    7.6336  -10.9810   25.9938 C   0  0  0  0  0  0  0  0  0  0  0  0
    8.3721  -12.1214   26.1805 C   0  0  0  0  0  0  0  0  0  0  0  0
    7.7293  -13.3544   26.1518 C   0  0  0  0  0  0  0  0  0  0  0  0
    9.9263  -17.5149   26.9551 C   0  0  0  0  0  0  0  0  0  0  0  0
   10.7430  -17.7047   28.0600 O   0  0  0  0  0  0  0  0  0  0  0  0
    9.0708  -18.4553   26.7807 O   0  0  0  0  0  0  0  0  0  0  0  0
  2  3  2  0
  2  1  1  0
  4  2  1  0
  5  6  1  6
  5  4  1  0
  7  8  2  0
  7  5  1  0
  9 10  1  0
 10 11  1  0
 11 12  1  1
 13 11  1  0
 13 14  1  6
 14  7  1  0
 15 13  1  0
 16 15  2  0
 17 15  1  0
 18 29  1  0
 18 17  1  0
 18 19  1  1
 20 19  1  0
 21 20  2  0
 22 21  1  0
 23 22  1  0
 23 28  2  0
 24 23  1  0
 25 24  2  0
 25 26  1  0
 26 27  2  0
 27 28  1  0
 28 20  1  0
 29 30  1  0
 31 29  2  0
M  END
$$$$
