NIW.pdb
     RDKit          3D

 31 32  0  0  1  0  0  0  0  0999 V2000
   10.2232  -20.3746   18.0143 N   0  0  0  0  0  0  0  0  0  0  0  0
    9.8672  -19.2098   17.2988 C   0  0  0  0  0  0  0  0  0  0  0  0
    9.9321  -19.2626   16.0318 O   0  0  0  0  0  0  0  0  0  0  0  0
    9.4408  -17.9923   17.9931 C   0  0  0  0  0  0  0  0  0  0  0  0
    9.5848  -18.1817   19.4910 C   0  0  2  0  0  0  0  0  0  0  0  0
    8.4617  -18.8658   20.0495 N   0  0  0  0  0  0  0  0  0  0  0  0
    9.8509  -16.8776   20.1716 C   0  0  0  0  0  0  0  0  0  0  0  0
   10.9600  -16.2897   20.0298 O   0  0  0  0  0  0  0  0  0  0  0  0
    6.6205  -12.8639   19.7607 C   0  0  0  0  0  0  0  0  0  0  0  0
    7.8526  -13.7293   19.9947 C   0  0  0  0  0  0  0  0  0  0  0  0
    8.0576  -14.0129   21.4417 C   0  0  2  0  0  0  0  0  0  0  0  0
    8.0730  -12.7699   22.2899 C   0  0  0  0  0  0  0  0  0  0  0  0
    9.1951  -14.9439   21.6596 C   0  0  2  0  0  0  0  0  0  0  0  0
    8.8970  -16.2300   21.0024 N   0  0  0  0  0  0  0  0  0  0  0  0
    9.5775  -15.1626   23.0720 C   0  0  0  0  0  0  0  0  0  0  0  0
   10.1418  -14.2415   23.7145 O   0  0  0  0  0  0  0  0  0  0  0  0
    9.3360  -16.3734   23.7433 N   0  0  0  0  0  0  0  0  0  0  0  0
    9.8285  -16.6159   25.1109 C   0  0  1  0  0  0  0  0  0  0  0  0
    8.6911  -16.7765   26.0432 C   0  0  0  0  0  0  0  0  0  0  0  0
    7.6220  -15.7952   26.0301 C   0  0  0  0  0  0  0  0  0  0  0  0
    6.2960  -16.0082   25.6625 C   0  0  0  0  0  0  0  0  0  0  0  0
    5.6740  -14.8327   25.7719 N   0  0  0  0  0  0  0  0  0  0  0  0
    6.5329  -13.8794   26.1908 C   0  0  0  0  0  0  0  0  0  0  0  0
    6.3295  -12.5310   26.4534 C   0  0  0  0  0  0  0  0  0  0  0  0
    7.4116  -11.8028   26.8912 C   0  0  0  0  0  0  0  0  0  0  0  0
    8.6504  -12.3589   27.0698 C   0  0  0  0  0  0  0  0  0  0  0  0
    8.8433  -13.6912   26.8076 C   0  0  0  0  0  0  0  0  0  0  0  0
    7.7689  -14.4543   26.3629 C   0  0  0  0  0  0  0  0  0  0  0  0
   10.8775  -17.6181   25.1121 C   0  0  0  0  0  0  0  0  0  0  0  0
   11.3316  -18.2908   23.9873 O   0  0  0  0  0  0  0  0  0  0  0  0
   11.4740  -17.9650   26.1941 O   0  0  0  0  0  0  0  0  0  0  0  0
  2  3  2  0
  2  1  1  0
  4  2  1  0
  5  6  1  1
  5  4  1  0
  7  8  2  0
  7  5  1  0
  9 10  1  0
 10 11  1  0
 11 12  1  1
 13 11  1  0
 13 14  1  1
 14  7  1  0
 15 13  1  0
 16 15  2  0
 17 15  1  0
 18 29  1  0
 18 17  1  0
 18 19  1  1
 20 19  1  0
 21 20  2  0
 22 21  1  0
 23 22  1  0
 23 28  2  0
 24 23  1  0
 25 24  2  0
 25 26  1  0
 26 27  2  0
 27 28  1  0
 28 20  1  0
 29 30  1  0
 31 29  2  0
M  END
$$$$
