NIW.pdb
     RDKit          3D

 31 32  0  0  1  0  0  0  0  0999 V2000
    8.8073  -21.3638   18.1075 N   0  0  0  0  0  0  0  0  0  0  0  0
    8.1479  -20.3125   17.4326 C   0  0  0  0  0  0  0  0  0  0  0  0
    7.9659  -20.4469   16.1832 O   0  0  0  0  0  0  0  0  0  0  0  0
    7.6938  -19.1173   18.1479 C   0  0  0  0  0  0  0  0  0  0  0  0
    8.2367  -19.1328   19.5640 C   0  0  2  0  0  0  0  0  0  0  0  0
    7.2144  -19.4166   20.5209 N   0  0  0  0  0  0  0  0  0  0  0  0
    8.9651  -17.8639   19.8711 C   0  0  0  0  0  0  0  0  0  0  0  0
   10.1801  -17.7242   19.5551 O   0  0  0  0  0  0  0  0  0  0  0  0
    7.9463  -11.8907   20.2478 C   0  0  0  0  0  0  0  0  0  0  0  0
    8.8668  -13.0517   20.6038 C   0  0  0  0  0  0  0  0  0  0  0  0
    8.1526  -14.3566   20.5448 C   0  0  2  0  0  0  0  0  0  0  0  0
    6.9061  -14.3853   21.3874 C   0  0  0  0  0  0  0  0  0  0  0  0
    9.0826  -15.4975   20.7485 C   0  0  2  0  0  0  0  0  0  0  0  0
    8.3531  -16.7592   20.5227 N   0  0  0  0  0  0  0  0  0  0  0  0
    9.7757  -15.5289   22.0552 C   0  0  0  0  0  0  0  0  0  0  0  0
   10.6169  -14.6382   22.3358 O   0  0  0  0  0  0  0  0  0  0  0  0
    9.5347  -16.5252   23.0166 N   0  0  0  0  0  0  0  0  0  0  0  0
   10.0134  -16.3983   24.4046 C   0  0  1  0  0  0  0  0  0  0  0  0
    9.6309  -15.0811   24.9591 C   0  0  0  0  0  0  0  0  0  0  0  0
    8.2572  -14.8593   25.3711 C   0  0  0  0  0  0  0  0  0  0  0  0
    7.2146  -15.7815   25.3366 C   0  0  0  0  0  0  0  0  0  0  0  0
    6.1264  -15.1469   25.7769 N   0  0  0  0  0  0  0  0  0  0  0  0
    6.4189  -13.8674   26.0917 C   0  0  0  0  0  0  0  0  0  0  0  0
    5.6145  -12.8529   26.5939 C   0  0  0  0  0  0  0  0  0  0  0  0
    6.2095  -11.6362   26.8352 C   0  0  0  0  0  0  0  0  0  0  0  0
    7.5389  -11.4063   26.5991 C   0  0  0  0  0  0  0  0  0  0  0  0
    8.3266  -12.4132   26.1024 C   0  0  0  0  0  0  0  0  0  0  0  0
    7.7543  -13.6549   25.8474 C   0  0  0  0  0  0  0  0  0  0  0  0
    9.7049  -17.5923   25.1687 C   0  0  0  0  0  0  0  0  0  0  0  0
   10.1305  -17.8343   26.4664 O   0  0  0  0  0  0  0  0  0  0  0  0
    8.9953  -18.5409   24.6752 O   0  0  0  0  0  0  0  0  0  0  0  0
  2  3  2  0
  2  1  1  0
  4  2  1  0
  5  6  1  1
  5  4  1  0
  7  8  2  0
  7  5  1  0
  9 10  1  0
 10 11  1  0
 11 12  1  1
 13 11  1  0
 13 14  1  1
 14  7  1  0
 15 13  1  0
 16 15  2  0
 17 15  1  0
 18 29  1  0
 18 17  1  0
 18 19  1  1
 20 19  1  0
 21 20  2  0
 22 21  1  0
 23 22  1  0
 23 28  2  0
 24 23  1  0
 25 24  2  0
 25 26  1  0
 26 27  2  0
 27 28  1  0
 28 20  1  0
 29 30  1  0
 31 29  2  0
M  END
$$$$
