NIW.pdb
     RDKit          3D

 31 32  0  0  1  0  0  0  0  0999 V2000
    6.3345  -20.4148   16.7170 N   0  0  0  0  0  0  0  0  0  0  0  0
    7.4936  -20.2885   17.5145 C   0  0  0  0  0  0  0  0  0  0  0  0
    7.9038  -21.3300   18.1139 O   0  0  0  0  0  0  0  0  0  0  0  0
    8.1917  -19.0069   17.6426 C   0  0  0  0  0  0  0  0  0  0  0  0
    8.4854  -18.7294   19.1045 C   0  0  2  0  0  0  0  0  0  0  0  0
    7.3155  -18.8590   19.9144 N   0  0  0  0  0  0  0  0  0  0  0  0
    9.1483  -17.4002   19.2736 C   0  0  0  0  0  0  0  0  0  0  0  0
    9.9296  -16.9510   18.3884 O   0  0  0  0  0  0  0  0  0  0  0  0
    6.5515  -12.9292   20.9343 C   0  0  0  0  0  0  0  0  0  0  0  0
    7.5252  -14.0613   21.2374 C   0  0  0  0  0  0  0  0  0  0  0  0
    8.5442  -14.2117   20.1625 C   0  0  2  0  0  0  0  0  0  0  0  0
    7.9391  -14.3490   18.7914 C   0  0  0  0  0  0  0  0  0  0  0  0
    9.5603  -15.2376   20.5133 C   0  0  2  0  0  0  0  0  0  0  0  0
    8.9479  -16.5754   20.4134 N   0  0  0  0  0  0  0  0  0  0  0  0
   10.2111  -15.0650   21.8307 C   0  0  0  0  0  0  0  0  0  0  0  0
   11.3999  -14.6613   21.8903 O   0  0  0  0  0  0  0  0  0  0  0  0
    9.5524  -15.3358   23.0422 N   0  0  0  0  0  0  0  0  0  0  0  0
   10.2833  -15.7795   24.2424 C   0  0  1  0  0  0  0  0  0  0  0  0
    9.3334  -16.2422   25.2778 C   0  0  0  0  0  0  0  0  0  0  0  0
    9.7537  -16.2580   26.6668 C   0  0  0  0  0  0  0  0  0  0  0  0
    9.9193  -17.3778   27.4776 C   0  0  0  0  0  0  0  0  0  0  0  0
   10.2851  -16.9299   28.6803 N   0  0  0  0  0  0  0  0  0  0  0  0
   10.3627  -15.5823   28.6805 C   0  0  0  0  0  0  0  0  0  0  0  0
   10.7129  -14.6967   29.6912 C   0  0  0  0  0  0  0  0  0  0  0  0
   10.7173  -13.3560   29.3825 C   0  0  0  0  0  0  0  0  0  0  0  0
   10.3938  -12.8855   28.1375 C   0  0  0  0  0  0  0  0  0  0  0  0
   10.0484  -13.7665   27.1449 C   0  0  0  0  0  0  0  0  0  0  0  0
   10.0340  -15.1286   27.4259 C   0  0  0  0  0  0  0  0  0  0  0  0
   11.3947  -16.6396   23.8818 C   0  0  0  0  0  0  0  0  0  0  0  0
   11.2719  -17.8764   23.2661 O   0  0  0  0  0  0  0  0  0  0  0  0
   12.6098  -16.3031   24.1213 O   0  0  0  0  0  0  0  0  0  0  0  0
  2  3  2  0
  2  1  1  0
  4  2  1  0
  5  6  1  1
  5  4  1  0
  7  8  2  0
  7  5  1  0
  9 10  1  0
 10 11  1  0
 11 12  1  6
 13 11  1  0
 13 14  1  1
 14  7  1  0
 15 13  1  0
 16 15  2  0
 17 15  1  0
 18 29  1  0
 18 17  1  0
 18 19  1  1
 20 19  1  0
 21 20  2  0
 22 21  1  0
 23 22  1  0
 23 28  2  0
 24 23  1  0
 25 24  2  0
 25 26  1  0
 26 27  2  0
 27 28  1  0
 28 20  1  0
 29 30  1  0
 31 29  2  0
M  END
$$$$
