EYS.pdb
     RDKit          3D

 28 28  0  0  1  0  0  0  0  0999 V2000
   21.0591  -13.4986  -16.6195 N   0  0  0  0  0  0  0  0  0  0  0  0
   19.9001  -12.6051  -16.7661 C   0  0  1  0  0  0  0  0  0  0  0  0
   18.7134  -13.3890  -16.2670 C   0  0  0  0  0  0  0  0  0  0  0  0
   18.3961  -14.6054  -17.1032 C   0  0  0  0  0  0  0  0  0  0  0  0
   17.6349  -15.6364  -16.3675 C   0  0  0  0  0  0  0  0  0  0  0  0
   17.3777  -15.4769  -15.1376 O   0  0  0  0  0  0  0  0  0  0  0  0
   20.1448  -11.3698  -15.9713 C   0  0  0  0  0  0  0  0  0  0  0  0
   20.8199  -11.4963  -14.9093 O   0  0  0  0  0  0  0  0  0  0  0  0
   17.1759  -16.8018  -16.9657 O   0  0  0  0  0  0  0  0  0  0  0  0
   21.6408   -2.7395  -14.4146 O   0  0  0  0  0  0  0  0  0  0  0  0
   21.4402   -4.0265  -14.8993 C   0  0  0  0  0  0  0  0  0  0  0  0
   20.5828   -4.3256  -15.9310 C   0  0  0  0  0  0  0  0  0  0  0  0
   20.3954   -5.6076  -16.3990 C   0  0  0  0  0  0  0  0  0  0  0  0
   21.0838   -6.6849  -15.8332 C   0  0  0  0  0  0  0  0  0  0  0  0
   20.9653   -8.0679  -16.3067 C   0  0  0  0  0  0  0  0  0  0  0  0
   19.9531   -8.9296  -15.6594 C   0  0  2  0  0  0  0  0  0  0  0  0
   19.6330  -10.1190  -16.4099 N   0  0  0  0  0  0  0  0  0  0  0  0
   18.7236   -8.2653  -15.2112 C   0  0  0  0  0  0  0  0  0  0  0  0
   17.8150   -8.0482  -16.0894 O   0  0  0  0  0  0  0  0  0  0  0  0
   21.9411   -6.3663  -14.7986 C   0  0  0  0  0  0  0  0  0  0  0  0
   22.1295   -5.0830  -14.3294 C   0  0  0  0  0  0  0  0  0  0  0  0
   17.5841   -7.7489  -11.3439 O   0  0  0  0  0  0  0  0  0  0  0  0
   16.6232   -7.6070  -12.3567 C   0  0  0  0  0  0  0  0  0  0  0  0
   17.2525   -7.0908  -13.6229 C   0  0  2  0  0  0  0  0  0  0  0  0
   18.4509   -7.8445  -13.8813 N   0  0  0  0  0  0  0  0  0  0  0  0
   17.6064   -5.6577  -13.4231 C   0  0  0  0  0  0  0  0  0  0  0  0
   18.8136   -5.3232  -13.3475 O   0  0  0  0  0  0  0  0  0  0  0  0
   16.6534   -4.6406  -13.3127 O   0  0  0  0  0  0  0  0  0  0  0  0
  2  1  1  1
  2  3  1  0
  3  4  1  0
  5  6  2  0
  5  4  1  0
  7  8  2  0
  7  2  1  0
  9  5  1  0
 10 11  1  0
 11 12  2  0
 12 13  1  0
 14 13  2  0
 14 15  1  0
 16 15  1  6
 16 17  1  0
 17  7  1  0
 18 19  2  0
 18 16  1  0
 20 14  1  0
 21 11  1  0
 21 20  2  0
 23 22  1  0
 24 25  1  0
 24 23  1  1
 25 18  1  0
 26 24  1  0
 27 26  2  0
 28 26  1  0
M  END
$$$$
