EYS.pdb
     RDKit          3D

 28 28  0  0  1  0  0  0  0  0999 V2000
   23.3435  -11.0305  -14.9656 N   0  0  0  0  0  0  0  0  0  0  0  0
   24.0303   -9.7563  -15.2260 C   0  0  1  0  0  0  0  0  0  0  0  0
   25.0780  -10.0612  -16.2659 C   0  0  0  0  0  0  0  0  0  0  0  0
   26.2170  -10.9065  -15.7482 C   0  0  0  0  0  0  0  0  0  0  0  0
   26.0263  -12.3520  -15.9884 C   0  0  0  0  0  0  0  0  0  0  0  0
   25.0223  -12.7581  -16.6451 O   0  0  0  0  0  0  0  0  0  0  0  0
   23.0287   -8.7606  -15.6981 C   0  0  0  0  0  0  0  0  0  0  0  0
   22.0963   -9.1918  -16.4360 O   0  0  0  0  0  0  0  0  0  0  0  0
   26.9094  -13.3148  -15.5196 O   0  0  0  0  0  0  0  0  0  0  0  0
   16.4149   -3.5400  -16.9763 O   0  0  0  0  0  0  0  0  0  0  0  0
   17.4750   -4.3321  -16.5518 C   0  0  0  0  0  0  0  0  0  0  0  0
   17.9580   -4.3303  -15.2650 C   0  0  0  0  0  0  0  0  0  0  0  0
   19.0107   -5.1218  -14.8610 C   0  0  0  0  0  0  0  0  0  0  0  0
   19.6485   -5.9806  -15.7612 C   0  0  0  0  0  0  0  0  0  0  0  0
   20.7462   -6.8804  -15.3919 C   0  0  0  0  0  0  0  0  0  0  0  0
   22.1204   -6.4669  -15.7475 C   0  0  2  0  0  0  0  0  0  0  0  0
   23.1383   -7.3953  -15.3204 N   0  0  0  0  0  0  0  0  0  0  0  0
   22.5007   -5.0954  -15.3890 C   0  0  0  0  0  0  0  0  0  0  0  0
   22.8777   -4.8829  -14.1821 O   0  0  0  0  0  0  0  0  0  0  0  0
   19.1501   -5.9700  -17.0490 C   0  0  0  0  0  0  0  0  0  0  0  0
   18.0962   -5.1780  -17.4545 C   0  0  0  0  0  0  0  0  0  0  0  0
   23.9022   -0.6361  -16.4949 O   0  0  0  0  0  0  0  0  0  0  0  0
   23.3982   -1.8692  -16.9358 C   0  0  0  0  0  0  0  0  0  0  0  0
   22.9236   -2.6998  -15.7737 C   0  0  2  0  0  0  0  0  0  0  0  0
   22.4912   -3.9797  -16.2694 N   0  0  0  0  0  0  0  0  0  0  0  0
   21.7706   -2.0041  -15.1368 C   0  0  0  0  0  0  0  0  0  0  0  0
   20.6427   -2.0462  -15.6854 O   0  0  0  0  0  0  0  0  0  0  0  0
   21.8718   -1.2917  -13.9380 O   0  0  0  0  0  0  0  0  0  0  0  0
  2  1  1  6
  2  3  1  0
  3  4  1  0
  5  6  2  0
  5  4  1  0
  7  8  2  0
  7  2  1  0
  9  5  1  0
 10 11  1  0
 11 12  2  0
 12 13  1  0
 14 13  2  0
 14 15  1  0
 16 15  1  1
 16 17  1  0
 17  7  1  0
 18 19  2  0
 18 16  1  0
 20 14  1  0
 21 11  1  0
 21 20  2  0
 23 22  1  0
 24 25  1  0
 24 23  1  6
 25 18  1  0
 26 24  1  0
 27 26  2  0
 28 26  1  0
M  END
$$$$
