EYS.pdb
     RDKit          3D

 28 28  0  0  1  0  0  0  0  0999 V2000
   23.9828   -7.9940  -19.1640 N   0  0  0  0  0  0  0  0  0  0  0  0
   24.2327   -6.8009  -18.3411 C   0  0  1  0  0  0  0  0  0  0  0  0
   24.4370   -5.6681  -19.3144 C   0  0  0  0  0  0  0  0  0  0  0  0
   25.7410   -5.7477  -20.0712 C   0  0  0  0  0  0  0  0  0  0  0  0
   26.9245   -5.5009  -19.2214 C   0  0  0  0  0  0  0  0  0  0  0  0
   28.0871   -5.5691  -19.7191 O   0  0  0  0  0  0  0  0  0  0  0  0
   23.0622   -6.5825  -17.4469 C   0  0  0  0  0  0  0  0  0  0  0  0
   21.9582   -7.0759  -17.8177 O   0  0  0  0  0  0  0  0  0  0  0  0
   26.8294   -5.1924  -17.8714 O   0  0  0  0  0  0  0  0  0  0  0  0
   21.0627  -12.1880  -14.7854 O   0  0  0  0  0  0  0  0  0  0  0  0
   21.2901  -10.8236  -14.6507 C   0  0  0  0  0  0  0  0  0  0  0  0
   20.3010   -9.8744  -14.7487 C   0  0  0  0  0  0  0  0  0  0  0  0
   20.5440   -8.5252  -14.6131 C   0  0  0  0  0  0  0  0  0  0  0  0
   21.8355   -8.0510  -14.3644 C   0  0  0  0  0  0  0  0  0  0  0  0
   22.1606   -6.6345  -14.1680 C   0  0  0  0  0  0  0  0  0  0  0  0
   22.0795   -5.7432  -15.3448 C   0  0  2  0  0  0  0  0  0  0  0  0
   23.2074   -5.8510  -16.2375 N   0  0  0  0  0  0  0  0  0  0  0  0
   21.7793   -4.3324  -15.0734 C   0  0  0  0  0  0  0  0  0  0  0  0
   22.6600   -3.6527  -14.4361 O   0  0  0  0  0  0  0  0  0  0  0  0
   22.8165   -9.0182  -14.2684 C   0  0  0  0  0  0  0  0  0  0  0  0
   22.5742  -10.3692  -14.4039 C   0  0  0  0  0  0  0  0  0  0  0  0
   21.1639   -1.6327  -17.3438 O   0  0  0  0  0  0  0  0  0  0  0  0
   20.1310   -1.5019  -16.4031 C   0  0  0  0  0  0  0  0  0  0  0  0
   20.4576   -2.2553  -15.1415 C   0  0  2  0  0  0  0  0  0  0  0  0
   20.5938   -3.6516  -15.4619 N   0  0  0  0  0  0  0  0  0  0  0  0
   19.3320   -2.0785  -14.1820 C   0  0  0  0  0  0  0  0  0  0  0  0
   19.0848   -0.9375  -13.7216 O   0  0  0  0  0  0  0  0  0  0  0  0
   18.5164   -3.1305  -13.7543 O   0  0  0  0  0  0  0  0  0  0  0  0
  2  1  1  6
  2  3  1  0
  3  4  1  0
  5  6  2  0
  5  4  1  0
  7  8  2  0
  7  2  1  0
  9  5  1  0
 10 11  1  0
 11 12  2  0
 12 13  1  0
 14 13  2  0
 14 15  1  0
 16 15  1  1
 16 17  1  0
 17  7  1  0
 18 19  2  0
 18 16  1  0
 20 14  1  0
 21 11  1  0
 21 20  2  0
 23 22  1  0
 24 25  1  0
 24 23  1  6
 25 18  1  0
 26 24  1  0
 27 26  2  0
 28 26  1  0
M  END
$$$$
