EYS.pdb
     RDKit          3D

 28 28  0  0  1  0  0  0  0  0999 V2000
   20.0679   -9.3175  -17.7952 N   0  0  0  0  0  0  0  0  0  0  0  0
   18.9560   -9.2620  -16.8341 C   0  0  1  0  0  0  0  0  0  0  0  0
   18.8315  -10.6549  -16.2715 C   0  0  0  0  0  0  0  0  0  0  0  0
   19.8623  -11.6189  -16.8078 C   0  0  0  0  0  0  0  0  0  0  0  0
   19.7503  -12.9739  -16.2291 C   0  0  0  0  0  0  0  0  0  0  0  0
   18.9003  -13.2059  -15.3191 O   0  0  0  0  0  0  0  0  0  0  0  0
   19.2761   -8.2499  -15.7898 C   0  0  0  0  0  0  0  0  0  0  0  0
   18.4599   -8.1394  -14.8299 O   0  0  0  0  0  0  0  0  0  0  0  0
   20.5480  -14.0340  -16.6373 O   0  0  0  0  0  0  0  0  0  0  0  0
   26.7245   -6.4618  -17.5428 O   0  0  0  0  0  0  0  0  0  0  0  0
   25.5897   -6.5829  -16.7498 C   0  0  0  0  0  0  0  0  0  0  0  0
   24.8844   -7.7537  -16.6050 C   0  0  0  0  0  0  0  0  0  0  0  0
   23.7606   -7.8562  -15.8149 C   0  0  0  0  0  0  0  0  0  0  0  0
   23.2768   -6.7501  -15.1099 C   0  0  0  0  0  0  0  0  0  0  0  0
   22.1127   -6.7961  -14.2190 C   0  0  0  0  0  0  0  0  0  0  0  0
   20.7822   -6.5546  -14.8169 C   0  0  2  0  0  0  0  0  0  0  0  0
   20.4521   -7.4590  -15.8910 N   0  0  0  0  0  0  0  0  0  0  0  0
   20.4857   -5.1714  -15.2081 C   0  0  0  0  0  0  0  0  0  0  0  0
   20.6390   -4.8603  -16.4424 O   0  0  0  0  0  0  0  0  0  0  0  0
   23.9976   -5.5827  -15.2664 C   0  0  0  0  0  0  0  0  0  0  0  0
   25.1229   -5.4790  -16.0571 C   0  0  0  0  0  0  0  0  0  0  0  0
   18.2733   -1.0101  -14.8583 O   0  0  0  0  0  0  0  0  0  0  0  0
   18.4691   -2.3438  -14.4686 C   0  0  0  0  0  0  0  0  0  0  0  0
   19.8426   -2.8196  -14.8597 C   0  0  2  0  0  0  0  0  0  0  0  0
   20.0373   -4.1448  -14.3335 N   0  0  0  0  0  0  0  0  0  0  0  0
   20.8487   -1.8995  -14.2598 C   0  0  0  0  0  0  0  0  0  0  0  0
   21.3760   -2.1919  -13.1592 O   0  0  0  0  0  0  0  0  0  0  0  0
   21.2499   -0.7035  -14.8627 O   0  0  0  0  0  0  0  0  0  0  0  0
  2  1  1  6
  2  3  1  0
  3  4  1  0
  5  6  2  0
  5  4  1  0
  7  8  2  0
  7  2  1  0
  9  5  1  0
 10 11  1  0
 11 12  2  0
 12 13  1  0
 14 13  2  0
 14 15  1  0
 16 15  1  6
 16 17  1  0
 17  7  1  0
 18 19  2  0
 18 16  1  0
 20 14  1  0
 21 11  1  0
 21 20  2  0
 23 22  1  0
 24 25  1  0
 24 23  1  1
 25 18  1  0
 26 24  1  0
 27 26  2  0
 28 26  1  0
M  END
$$$$
