EYS.pdb
     RDKit          3D

 28 28  0  0  1  0  0  0  0  0999 V2000
   18.7824  -14.5535  -16.5891 N   0  0  0  0  0  0  0  0  0  0  0  0
   19.0863  -13.3437  -17.3684 C   0  0  1  0  0  0  0  0  0  0  0  0
   17.8824  -12.4487  -17.2207 C   0  0  0  0  0  0  0  0  0  0  0  0
   16.6327  -13.0043  -17.8603 C   0  0  0  0  0  0  0  0  0  0  0  0
   16.6301  -12.8875  -19.3333 C   0  0  0  0  0  0  0  0  0  0  0  0
   17.6398  -12.4130  -19.9330 O   0  0  0  0  0  0  0  0  0  0  0  0
   20.3284  -12.7256  -16.8276 C   0  0  0  0  0  0  0  0  0  0  0  0
   20.4964  -12.7793  -15.5751 O   0  0  0  0  0  0  0  0  0  0  0  0
   15.5524  -13.2775  -20.1165 O   0  0  0  0  0  0  0  0  0  0  0  0
   28.7227   -9.9121  -16.1422 O   0  0  0  0  0  0  0  0  0  0  0  0
   27.4931  -10.4274  -16.5345 C   0  0  0  0  0  0  0  0  0  0  0  0
   26.7753   -9.9504  -17.6051 C   0  0  0  0  0  0  0  0  0  0  0  0
   25.5569  -10.4726  -17.9802 C   0  0  0  0  0  0  0  0  0  0  0  0
   24.9839  -11.5340  -17.2732 C   0  0  0  0  0  0  0  0  0  0  0  0
   23.7123  -12.1661  -17.6398 C   0  0  0  0  0  0  0  0  0  0  0  0
   22.4677  -11.5382  -17.1471 C   0  0  2  0  0  0  0  0  0  0  0  0
   21.2657  -12.1115  -17.7011 N   0  0  0  0  0  0  0  0  0  0  0  0
   22.4083  -10.0732  -17.2112 C   0  0  0  0  0  0  0  0  0  0  0  0
   22.1929   -9.5399  -18.3571 O   0  0  0  0  0  0  0  0  0  0  0  0
   25.7187  -12.0010  -16.2014 C   0  0  0  0  0  0  0  0  0  0  0  0
   26.9386  -11.4788  -15.8251 C   0  0  0  0  0  0  0  0  0  0  0  0
   20.6178   -6.2323  -16.9208 O   0  0  0  0  0  0  0  0  0  0  0  0
   20.9336   -7.5960  -16.8228 C   0  0  0  0  0  0  0  0  0  0  0  0
   22.3334   -7.7852  -16.3026 C   0  0  2  0  0  0  0  0  0  0  0  0
   22.5652   -9.1920  -16.1072 N   0  0  0  0  0  0  0  0  0  0  0  0
   22.4495   -7.0814  -14.9949 C   0  0  0  0  0  0  0  0  0  0  0  0
   22.3766   -7.7400  -13.9291 O   0  0  0  0  0  0  0  0  0  0  0  0
   22.6392   -5.7008  -14.8812 O   0  0  0  0  0  0  0  0  0  0  0  0
  2  1  1  1
  2  3  1  0
  3  4  1  0
  5  6  2  0
  5  4  1  0
  7  8  2  0
  7  2  1  0
  9  5  1  0
 10 11  1  0
 11 12  2  0
 12 13  1  0
 14 13  2  0
 14 15  1  0
 16 15  1  6
 16 17  1  0
 17  7  1  0
 18 19  2  0
 18 16  1  0
 20 14  1  0
 21 11  1  0
 21 20  2  0
 23 22  1  0
 24 25  1  0
 24 23  1  1
 25 18  1  0
 26 24  1  0
 27 26  2  0
 28 26  1  0
M  END
$$$$
