SSS.pdb
     RDKit          3D

 19 18  0  0  1  0  0  0  0  0999 V2000
   13.1290   -9.5740  -14.9423 O   0  0  0  0  0  0  0  0  0  0  0  0
   14.3246   -9.4576  -14.2358 C   0  0  0  0  0  0  0  0  0  0  0  0
   15.4331  -10.1544  -14.9806 C   0  0  2  0  0  0  0  0  0  0  0  0
   15.2045  -11.5657  -15.0586 N   0  0  0  0  0  0  0  0  0  0  0  0
   16.7569   -9.9421  -14.3380 C   0  0  0  0  0  0  0  0  0  0  0  0
   17.1063  -10.7317  -13.4475 O   0  0  0  0  0  0  0  0  0  0  0  0
   20.0624  -10.2068  -15.6506 O   0  0  0  0  0  0  0  0  0  0  0  0
   19.8443   -9.9079  -14.3070 C   0  0  0  0  0  0  0  0  0  0  0  0
   18.9548   -8.7018  -14.1925 C   0  0  2  0  0  0  0  0  0  0  0  0
   17.6359   -8.8820  -14.6951 N   0  0  0  0  0  0  0  0  0  0  0  0
   19.6080   -7.4652  -14.6973 C   0  0  0  0  0  0  0  0  0  0  0  0
   19.4409   -7.0987  -15.8895 O   0  0  0  0  0  0  0  0  0  0  0  0
   21.7447   -3.2368  -13.7450 O   0  0  0  0  0  0  0  0  0  0  0  0
   21.2422   -4.4315  -13.2376 C   0  0  0  0  0  0  0  0  0  0  0  0
   20.9947   -5.3920  -14.3795 C   0  0  2  0  0  0  0  0  0  0  0  0
   20.4407   -6.6431  -13.8810 N   0  0  0  0  0  0  0  0  0  0  0  0
   22.2513   -5.6597  -15.1322 C   0  0  0  0  0  0  0  0  0  0  0  0
   22.5287   -4.9196  -16.2825 O   0  0  0  0  0  0  0  0  0  0  0  0
   23.0778   -6.5277  -14.7750 O   0  0  0  0  0  0  0  0  0  0  0  0
  2  3  1  0
  2  1  1  0
  3  4  1  1
  5  6  2  0
  5  3  1  0
  7  8  1  0
  9  8  1  6
  9 10  1  0
 10  5  1  0
 11 12  2  0
 11  9  1  0
 13 14  1  0
 15 16  1  0
 15 14  1  1
 16 11  1  0
 17 15  1  0
 18 17  1  0
 19 17  2  0
M  END
$$$$
