SSS.pdb
     RDKit          3D

 19 18  0  0  1  0  0  0  0  0999 V2000
   19.0104  -13.4323  -17.0163 O   0  0  0  0  0  0  0  0  0  0  0  0
   19.8282  -12.4991  -16.3820 C   0  0  0  0  0  0  0  0  0  0  0  0
   19.8818  -11.2282  -17.1888 C   0  0  2  0  0  0  0  0  0  0  0  0
   20.5216  -11.4374  -18.4525 N   0  0  0  0  0  0  0  0  0  0  0  0
   20.6160  -10.1472  -16.4797 C   0  0  0  0  0  0  0  0  0  0  0  0
   20.1803   -9.7696  -15.3815 O   0  0  0  0  0  0  0  0  0  0  0  0
   24.5816   -7.3535  -16.0790 O   0  0  0  0  0  0  0  0  0  0  0  0
   23.9723   -8.4147  -16.7460 C   0  0  0  0  0  0  0  0  0  0  0  0
   22.5209   -8.4895  -16.3632 C   0  0  2  0  0  0  0  0  0  0  0  0
   21.7878   -9.5300  -16.9993 N   0  0  0  0  0  0  0  0  0  0  0  0
   21.8448   -7.1675  -16.4408 C   0  0  0  0  0  0  0  0  0  0  0  0
   21.6105   -6.6373  -17.5577 O   0  0  0  0  0  0  0  0  0  0  0  0
   19.3389   -5.6564  -13.6167 O   0  0  0  0  0  0  0  0  0  0  0  0
   19.3774   -5.1794  -14.9237 C   0  0  0  0  0  0  0  0  0  0  0  0
   20.8146   -5.1275  -15.3923 C   0  0  2  0  0  0  0  0  0  0  0  0
   21.4328   -6.4415  -15.2836 N   0  0  0  0  0  0  0  0  0  0  0  0
   21.5961   -4.1342  -14.6049 C   0  0  0  0  0  0  0  0  0  0  0  0
   21.2281   -2.7886  -14.6464 O   0  0  0  0  0  0  0  0  0  0  0  0
   22.5780   -4.4564  -13.9005 O   0  0  0  0  0  0  0  0  0  0  0  0
  2  3  1  0
  2  1  1  0
  3  4  1  6
  5  6  2  0
  5  3  1  0
  7  8  1  0
  9  8  1  6
  9 10  1  0
 10  5  1  0
 11 12  2  0
 11  9  1  0
 13 14  1  0
 15 16  1  0
 15 14  1  1
 16 11  1  0
 17 15  1  0
 18 17  1  0
 19 17  2  0
M  END
$$$$
