SSS.pdb
     RDKit          3D

 19 18  0  0  1  0  0  0  0  0999 V2000
   19.9648   -9.8399  -18.4553 O   0  0  0  0  0  0  0  0  0  0  0  0
   19.6889   -8.7517  -17.6296 C   0  0  0  0  0  0  0  0  0  0  0  0
   19.7980   -9.1611  -16.1841 C   0  0  2  0  0  0  0  0  0  0  0  0
   18.7411  -10.0522  -15.8115 N   0  0  0  0  0  0  0  0  0  0  0  0
   19.7521   -7.9914  -15.2676 C   0  0  0  0  0  0  0  0  0  0  0  0
   18.6400   -7.5566  -14.9321 O   0  0  0  0  0  0  0  0  0  0  0  0
   22.0371   -6.8842  -12.0692 O   0  0  0  0  0  0  0  0  0  0  0  0
   22.1134   -5.9624  -13.1116 C   0  0  0  0  0  0  0  0  0  0  0  0
   20.9341   -6.1324  -14.0276 C   0  0  2  0  0  0  0  0  0  0  0  0
   20.9175   -7.3517  -14.7608 N   0  0  0  0  0  0  0  0  0  0  0  0
   20.7000   -4.9361  -14.8791 C   0  0  0  0  0  0  0  0  0  0  0  0
   21.2587   -4.8353  -16.0020 O   0  0  0  0  0  0  0  0  0  0  0  0
   17.9747   -1.0500  -15.8595 O   0  0  0  0  0  0  0  0  0  0  0  0
   18.3084   -2.0226  -14.9213 C   0  0  0  0  0  0  0  0  0  0  0  0
   19.5400   -2.7648  -15.3907 C   0  0  2  0  0  0  0  0  0  0  0  0
   19.8503   -3.8605  -14.4831 N   0  0  0  0  0  0  0  0  0  0  0  0
   20.7081   -1.8470  -15.4934 C   0  0  0  0  0  0  0  0  0  0  0  0
   21.0869   -1.3620  -16.7461 O   0  0  0  0  0  0  0  0  0  0  0  0
   21.3715   -1.4879  -14.4959 O   0  0  0  0  0  0  0  0  0  0  0  0
  2  3  1  0
  2  1  1  0
  3  4  1  1
  5  6  2  0
  5  3  1  0
  7  8  1  0
  9  8  1  6
  9 10  1  0
 10  5  1  0
 11 12  2  0
 11  9  1  0
 13 14  1  0
 15 16  1  0
 15 14  1  1
 16 11  1  0
 17 15  1  0
 18 17  1  0
 19 17  2  0
M  END
$$$$
