SSS.pdb
     RDKit          3D

 19 18  0  0  1  0  0  0  0  0999 V2000
   16.8251   -9.3800  -18.2294 O   0  0  0  0  0  0  0  0  0  0  0  0
   17.2974   -8.4634  -17.2920 C   0  0  0  0  0  0  0  0  0  0  0  0
   17.8349   -9.1896  -16.0867 C   0  0  2  0  0  0  0  0  0  0  0  0
   16.7921   -9.8647  -15.3746 N   0  0  0  0  0  0  0  0  0  0  0  0
   18.5133   -8.2690  -15.1367 C   0  0  0  0  0  0  0  0  0  0  0  0
   17.8230   -7.4176  -14.5561 O   0  0  0  0  0  0  0  0  0  0  0  0
   21.8827   -8.7840  -12.6789 O   0  0  0  0  0  0  0  0  0  0  0  0
   22.0003   -7.8051  -13.6639 C   0  0  0  0  0  0  0  0  0  0  0  0
   20.6339   -7.3599  -14.1036 C   0  0  2  0  0  0  0  0  0  0  0  0
   19.9088   -8.3191  -14.8646 N   0  0  0  0  0  0  0  0  0  0  0  0
   20.6504   -6.0108  -14.7285 C   0  0  0  0  0  0  0  0  0  0  0  0
   20.8429   -5.8850  -15.9657 O   0  0  0  0  0  0  0  0  0  0  0  0
   18.0783   -3.4179  -14.7731 O   0  0  0  0  0  0  0  0  0  0  0  0
   19.1858   -2.7472  -14.2622 C   0  0  0  0  0  0  0  0  0  0  0  0
   20.4409   -3.5072  -14.6297 C   0  0  2  0  0  0  0  0  0  0  0  0
   20.4542   -4.8111  -13.9816 N   0  0  0  0  0  0  0  0  0  0  0  0
   21.6589   -2.7402  -14.2480 C   0  0  0  0  0  0  0  0  0  0  0  0
   21.9441   -1.5417  -14.9038 O   0  0  0  0  0  0  0  0  0  0  0  0
   22.4457   -3.1271  -13.3562 O   0  0  0  0  0  0  0  0  0  0  0  0
  2  3  1  0
  2  1  1  0
  3  4  1  1
  5  6  2  0
  5  3  1  0
  7  8  1  0
  9  8  1  6
  9 10  1  0
 10  5  1  0
 11 12  2  0
 11  9  1  0
 13 14  1  0
 15 16  1  0
 15 14  1  1
 16 11  1  0
 17 15  1  0
 18 17  1  0
 19 17  2  0
M  END
$$$$
