SSS.pdb
     RDKit          3D

 19 18  0  0  1  0  0  0  0  0999 V2000
   15.1889  -12.0129  -10.0983 O   0  0  0  0  0  0  0  0  0  0  0  0
   15.7277  -10.8784  -10.7021 C   0  0  0  0  0  0  0  0  0  0  0  0
   15.0934   -9.6386  -10.1280 C   0  0  2  0  0  0  0  0  0  0  0  0
   13.6889   -9.5944  -10.4028 N   0  0  0  0  0  0  0  0  0  0  0  0
   15.7034   -8.3964  -10.6714 C   0  0  0  0  0  0  0  0  0  0  0  0
   15.4563   -8.0919  -11.8481 O   0  0  0  0  0  0  0  0  0  0  0  0
   17.6467   -5.5720   -8.2287 O   0  0  0  0  0  0  0  0  0  0  0  0
   17.2161   -5.2067   -9.5029 C   0  0  0  0  0  0  0  0  0  0  0  0
   17.2382   -6.4049  -10.4098 C   0  0  2  0  0  0  0  0  0  0  0  0
   16.5519   -7.5464   -9.9090 N   0  0  0  0  0  0  0  0  0  0  0  0
   18.6051   -6.7165  -10.9051 C   0  0  0  0  0  0  0  0  0  0  0  0
   19.3881   -7.4175  -10.2131 O   0  0  0  0  0  0  0  0  0  0  0  0
   19.8003   -8.6205  -13.5908 O   0  0  0  0  0  0  0  0  0  0  0  0
   20.4025   -7.3975  -13.8719 C   0  0  0  0  0  0  0  0  0  0  0  0
   20.4456   -6.5628  -12.6112 C   0  0  2  0  0  0  0  0  0  0  0  0
   19.0962   -6.2509  -12.1612 N   0  0  0  0  0  0  0  0  0  0  0  0
   21.2088   -5.3034  -12.8322 C   0  0  0  0  0  0  0  0  0  0  0  0
   22.5949   -5.3630  -12.9835 O   0  0  0  0  0  0  0  0  0  0  0  0
   20.6563   -4.1829  -12.8886 O   0  0  0  0  0  0  0  0  0  0  0  0
  2  3  1  0
  2  1  1  0
  3  4  1  6
  5  6  2  0
  5  3  1  0
  7  8  1  0
  9  8  1  1
  9 10  1  0
 10  5  1  0
 11 12  2  0
 11  9  1  0
 13 14  1  0
 15 16  1  0
 15 14  1  6
 16 11  1  0
 17 15  1  0
 18 17  1  0
 19 17  2  0
M  END
$$$$
