SSS.pdb
     RDKit          3D

 19 18  0  0  1  0  0  0  0  0999 V2000
   23.5586  -12.2866  -18.6212 O   0  0  0  0  0  0  0  0  0  0  0  0
   22.9593  -11.0466  -18.4083 C   0  0  0  0  0  0  0  0  0  0  0  0
   21.4828  -11.2225  -18.1672 C   0  0  2  0  0  0  0  0  0  0  0  0
   20.7958  -11.5840  -19.3702 N   0  0  0  0  0  0  0  0  0  0  0  0
   20.8524   -9.9849  -17.6368 C   0  0  0  0  0  0  0  0  0  0  0  0
   20.6420   -9.0527  -18.4274 O   0  0  0  0  0  0  0  0  0  0  0  0
   19.8270   -9.4251  -13.4744 O   0  0  0  0  0  0  0  0  0  0  0  0
   19.0465   -8.8901  -14.4975 C   0  0  0  0  0  0  0  0  0  0  0  0
   19.8966   -8.6514  -15.7137 C   0  0  2  0  0  0  0  0  0  0  0  0
   20.4818   -9.8216  -16.2730 N   0  0  0  0  0  0  0  0  0  0  0  0
   20.8733   -7.5479  -15.5154 C   0  0  0  0  0  0  0  0  0  0  0  0
   22.0850   -7.8034  -15.2922 O   0  0  0  0  0  0  0  0  0  0  0  0
   21.8797   -2.7943  -15.6320 O   0  0  0  0  0  0  0  0  0  0  0  0
   20.8843   -3.7654  -15.6926 C   0  0  0  0  0  0  0  0  0  0  0  0
   21.4840   -5.1138  -15.3607 C   0  0  2  0  0  0  0  0  0  0  0  0
   20.5035   -6.1708  -15.5654 N   0  0  0  0  0  0  0  0  0  0  0  0
   21.9768   -5.1463  -13.9559 C   0  0  0  0  0  0  0  0  0  0  0  0
   23.3027   -4.8012  -13.6896 O   0  0  0  0  0  0  0  0  0  0  0  0
   21.2471   -5.4728  -12.9942 O   0  0  0  0  0  0  0  0  0  0  0  0
  2  3  1  0
  2  1  1  0
  3  4  1  6
  5  6  2  0
  5  3  1  0
  7  8  1  0
  9  8  1  1
  9 10  1  0
 10  5  1  0
 11 12  2  0
 11  9  1  0
 13 14  1  0
 15 16  1  0
 15 14  1  1
 16 11  1  0
 17 15  1  0
 18 17  1  0
 19 17  2  0
M  END
$$$$
