SSS.pdb
     RDKit          3D

 19 18  0  0  1  0  0  0  0  0999 V2000
   18.9605  -10.3120  -20.7758 O   0  0  0  0  0  0  0  0  0  0  0  0
   19.3727   -9.7386  -19.5744 C   0  0  0  0  0  0  0  0  0  0  0  0
   20.4349  -10.5929  -18.9333 C   0  0  2  0  0  0  0  0  0  0  0  0
   19.8766  -11.7820  -18.3638 N   0  0  0  0  0  0  0  0  0  0  0  0
   21.1593   -9.8684  -17.8561 C   0  0  0  0  0  0  0  0  0  0  0  0
   20.6039   -9.7568  -16.7527 O   0  0  0  0  0  0  0  0  0  0  0  0
   25.1477   -7.5184  -16.3166 O   0  0  0  0  0  0  0  0  0  0  0  0
   24.5896   -8.2864  -17.3369 C   0  0  0  0  0  0  0  0  0  0  0  0
   23.1173   -8.4635  -17.0925 C   0  0  2  0  0  0  0  0  0  0  0  0
   22.4521   -9.3007  -18.0313 N   0  0  0  0  0  0  0  0  0  0  0  0
   22.4199   -7.1698  -16.8673 C   0  0  0  0  0  0  0  0  0  0  0  0
   22.0994   -6.4417  -17.8423 O   0  0  0  0  0  0  0  0  0  0  0  0
   19.2710   -6.4007  -14.9139 O   0  0  0  0  0  0  0  0  0  0  0  0
   20.2633   -5.5880  -14.3734 C   0  0  0  0  0  0  0  0  0  0  0  0
   21.3796   -5.4285  -15.3815 C   0  0  2  0  0  0  0  0  0  0  0  0
   22.0821   -6.6906  -15.5666 N   0  0  0  0  0  0  0  0  0  0  0  0
   22.3391   -4.3740  -14.9514 C   0  0  0  0  0  0  0  0  0  0  0  0
   23.6796   -4.7098  -14.7558 O   0  0  0  0  0  0  0  0  0  0  0  0
   21.9927   -3.1884  -14.7557 O   0  0  0  0  0  0  0  0  0  0  0  0
  2  3  1  0
  2  1  1  0
  3  4  1  1
  5  6  2  0
  5  3  1  0
  7  8  1  0
  9  8  1  6
  9 10  1  0
 10  5  1  0
 11 12  2  0
 11  9  1  0
 13 14  1  0
 15 16  1  0
 15 14  1  1
 16 11  1  0
 17 15  1  0
 18 17  1  0
 19 17  2  0
M  END
$$$$
