SSS.pdb
     RDKit          3D

 19 18  0  0  1  0  0  0  0  0999 V2000
   20.9954  -13.6890  -17.1238 O   0  0  0  0  0  0  0  0  0  0  0  0
   20.6897  -12.3389  -17.2851 C   0  0  0  0  0  0  0  0  0  0  0  0
   19.6261  -11.9301  -16.2998 C   0  0  2  0  0  0  0  0  0  0  0  0
   18.3846  -12.5920  -16.5655 N   0  0  0  0  0  0  0  0  0  0  0  0
   19.3758  -10.4649  -16.3243 C   0  0  0  0  0  0  0  0  0  0  0  0
   18.5165  -10.0331  -17.1076 O   0  0  0  0  0  0  0  0  0  0  0  0
   18.4316   -8.2697  -13.4738 O   0  0  0  0  0  0  0  0  0  0  0  0
   18.4730   -7.8032  -14.7863 C   0  0  0  0  0  0  0  0  0  0  0  0
   19.7979   -8.1475  -15.4066 C   0  0  2  0  0  0  0  0  0  0  0  0
   20.0718   -9.5410  -15.4961 N   0  0  0  0  0  0  0  0  0  0  0  0
   20.9195   -7.3688  -14.8181 C   0  0  0  0  0  0  0  0  0  0  0  0
   21.6031   -7.8497  -13.8775 O   0  0  0  0  0  0  0  0  0  0  0  0
   23.2840   -4.9180  -16.8547 O   0  0  0  0  0  0  0  0  0  0  0  0
   22.9105   -4.2971  -15.6663 C   0  0  0  0  0  0  0  0  0  0  0  0
   22.4022   -5.3418  -14.6976 C   0  0  2  0  0  0  0  0  0  0  0  0
   21.2769   -6.0647  -15.2734 N   0  0  0  0  0  0  0  0  0  0  0  0
   21.9964   -4.7191  -13.4073 C   0  0  0  0  0  0  0  0  0  0  0  0
   22.9178   -4.6546  -12.3610 O   0  0  0  0  0  0  0  0  0  0  0  0
   20.8541   -4.2464  -13.2182 O   0  0  0  0  0  0  0  0  0  0  0  0
  2  3  1  0
  2  1  1  0
  3  4  1  6
  5  6  2  0
  5  3  1  0
  7  8  1  0
  9  8  1  1
  9 10  1  0
 10  5  1  0
 11 12  2  0
 11  9  1  0
 13 14  1  0
 15 16  1  0
 15 14  1  6
 16 11  1  0
 17 15  1  0
 18 17  1  0
 19 17  2  0
M  END
$$$$
