PCQ.pdb
     RDKit          3D

 23 23  0  0  1  0  0  0  0  0999 V2000
    7.3160  -17.8864   19.2899 N   0  0  0  0  0  0  0  0  0  0  0  0
    6.1676  -17.6284   18.4799 C   0  0  0  0  0  0  0  0  0  0  0  0
    6.7283  -16.9524   17.2481 C   0  0  0  0  0  0  0  0  0  0  0  0
    7.7899  -16.0428   17.8815 C   0  0  0  0  0  0  0  0  0  0  0  0
    8.3528  -16.9627   18.9371 C   0  0  1  0  0  0  0  0  0  0  0  0
    8.7923  -16.2428   20.1506 C   0  0  0  0  0  0  0  0  0  0  0  0
   10.0023  -15.9329   20.2854 O   0  0  0  0  0  0  0  0  0  0  0  0
    7.8878  -15.8824   21.1850 N   0  0  0  0  0  0  0  0  0  0  0  0
    8.3055  -15.3128   22.4385 C   0  0  1  0  0  0  0  0  0  0  0  0
    7.2272  -14.5065   23.1103 C   0  0  0  0  0  0  0  0  0  0  0  0
    7.6791  -13.9140   24.7374 S   0  0  0  0  0  0  0  0  0  0  0  0
    8.8623  -16.3703   23.3411 C   0  0  0  0  0  0  0  0  0  0  0  0
    8.3506  -17.5229   23.4011 O   0  0  0  0  0  0  0  0  0  0  0  0
   12.6075  -19.6488   21.7757 N   0  0  0  0  0  0  0  0  0  0  0  0
   11.6707  -20.1992   22.6753 C   0  0  0  0  0  0  0  0  0  0  0  0
   11.3283  -21.4164   22.4894 O   0  0  0  0  0  0  0  0  0  0  0  0
   11.1046  -19.4426   23.7829 C   0  0  0  0  0  0  0  0  0  0  0  0
   11.4162  -18.0110   23.8826 C   0  0  0  0  0  0  0  0  0  0  0  0
   10.6928  -17.1778   24.8986 C   0  0  2  0  0  0  0  0  0  0  0  0
    9.9780  -16.0985   24.1486 N   0  0  0  0  0  0  0  0  0  0  0  0
   11.5740  -16.5336   25.8507 C   0  0  0  0  0  0  0  0  0  0  0  0
   11.9246  -15.1981   25.7255 O   0  0  0  0  0  0  0  0  0  0  0  0
   12.0657  -17.1565   26.8255 O   0  0  0  0  0  0  0  0  0  0  0  0
  1  2  1  0
  1  5  1  0
  3  4  1  0
  3  2  1  0
  4  5  1  0
  6  7  2  0
  5  6  1  1
  8  6  1  0
  9 12  1  0
  9  8  1  0
  9 10  1  1
 11 10  1  0
 12 20  1  0
 13 12  2  0
 15 14  1  0
 15 16  2  0
 17 15  1  0
 18 17  1  0
 19 18  1  6
 20 19  1  0
 21 22  1  0
 21 19  1  0
 23 21  2  0
M  END
$$$$
