PCQ.pdb
     RDKit          3D

 23 23  0  0  1  0  0  0  0  0999 V2000
    7.1049  -14.8502   20.3345 N   0  0  0  0  0  0  0  0  0  0  0  0
    6.3672  -13.8313   19.6569 C   0  0  0  0  0  0  0  0  0  0  0  0
    7.4261  -13.0234   18.9395 C   0  0  0  0  0  0  0  0  0  0  0  0
    8.5270  -12.9853   20.0081 C   0  0  0  0  0  0  0  0  0  0  0  0
    8.4471  -14.3943   20.5425 C   0  0  1  0  0  0  0  0  0  0  0  0
    8.7694  -14.4812   21.9822 C   0  0  0  0  0  0  0  0  0  0  0  0
    9.9697  -14.4582   22.3529 O   0  0  0  0  0  0  0  0  0  0  0  0
    7.7616  -14.5913   22.9772 N   0  0  0  0  0  0  0  0  0  0  0  0
    8.0470  -14.7420   24.3794 C   0  0  1  0  0  0  0  0  0  0  0  0
    6.9572  -14.2033   25.2661 C   0  0  0  0  0  0  0  0  0  0  0  0
    6.7909  -12.4227   25.2019 S   0  0  0  0  0  0  0  0  0  0  0  0
    8.3822  -16.1658   24.7013 C   0  0  0  0  0  0  0  0  0  0  0  0
    7.7981  -17.1270   24.1276 O   0  0  0  0  0  0  0  0  0  0  0  0
   12.3277  -18.3133   21.9307 N   0  0  0  0  0  0  0  0  0  0  0  0
   12.6238  -19.0749   23.0806 C   0  0  0  0  0  0  0  0  0  0  0  0
   13.6287  -19.8621   23.0165 O   0  0  0  0  0  0  0  0  0  0  0  0
   11.8430  -18.9862   24.3061 C   0  0  0  0  0  0  0  0  0  0  0  0
   10.8798  -17.8861   24.4427 C   0  0  0  0  0  0  0  0  0  0  0  0
   10.0575  -17.7899   25.6934 C   0  0  2  0  0  0  0  0  0  0  0  0
    9.3643  -16.4645   25.6589 N   0  0  0  0  0  0  0  0  0  0  0  0
   10.8455  -17.8355   26.9079 C   0  0  0  0  0  0  0  0  0  0  0  0
   11.3479  -19.0297   27.4017 O   0  0  0  0  0  0  0  0  0  0  0  0
   11.1016  -16.7989   27.5712 O   0  0  0  0  0  0  0  0  0  0  0  0
  1  2  1  0
  1  5  1  0
  3  4  1  0
  3  2  1  0
  4  5  1  0
  6  7  2  0
  5  6  1  1
  8  6  1  0
  9 12  1  0
  9  8  1  0
  9 10  1  1
 11 10  1  0
 12 20  1  0
 13 12  2  0
 15 14  1  0
 15 16  2  0
 17 15  1  0
 18 17  1  0
 19 18  1  6
 20 19  1  0
 21 22  1  0
 21 19  1  0
 23 21  2  0
M  END
$$$$
