PCQ.pdb
     RDKit          3D

 23 23  0  0  1  0  0  0  0  0999 V2000
    7.1903  -14.7581   20.5349 N   0  0  0  0  0  0  0  0  0  0  0  0
    6.3538  -13.9882   19.6695 C   0  0  0  0  0  0  0  0  0  0  0  0
    7.3204  -13.1094   18.9067 C   0  0  0  0  0  0  0  0  0  0  0  0
    8.3029  -12.7315   20.0236 C   0  0  0  0  0  0  0  0  0  0  0  0
    8.4142  -14.0467   20.7551 C   0  0  1  0  0  0  0  0  0  0  0  0
    8.6209  -13.8790   22.2089 C   0  0  0  0  0  0  0  0  0  0  0  0
    9.7752  -13.6532   22.6505 O   0  0  0  0  0  0  0  0  0  0  0  0
    7.5510  -13.9643   23.1394 N   0  0  0  0  0  0  0  0  0  0  0  0
    7.7176  -13.7765   24.5562 C   0  0  1  0  0  0  0  0  0  0  0  0
    6.5513  -13.0781   25.2014 C   0  0  0  0  0  0  0  0  0  0  0  0
    6.6871  -12.9439   26.9808 S   0  0  0  0  0  0  0  0  0  0  0  0
    8.0374  -15.0760   25.2284 C   0  0  0  0  0  0  0  0  0  0  0  0
    7.2684  -16.0732   25.1366 O   0  0  0  0  0  0  0  0  0  0  0  0
   13.0481  -17.6253   23.6243 N   0  0  0  0  0  0  0  0  0  0  0  0
   12.8910  -18.2704   24.8689 C   0  0  0  0  0  0  0  0  0  0  0  0
   13.7835  -19.1226   25.2016 O   0  0  0  0  0  0  0  0  0  0  0  0
   11.7757  -17.9946   25.7631 C   0  0  0  0  0  0  0  0  0  0  0  0
   10.9304  -16.8262   25.4860 C   0  0  0  0  0  0  0  0  0  0  0  0
    9.7505  -16.5551   26.3715 C   0  0  2  0  0  0  0  0  0  0  0  0
    9.2128  -15.2139   25.9835 N   0  0  0  0  0  0  0  0  0  0  0  0
   10.0859  -16.4970   27.7793 C   0  0  0  0  0  0  0  0  0  0  0  0
   10.1405  -17.6419   28.5594 O   0  0  0  0  0  0  0  0  0  0  0  0
   10.3336  -15.4086   28.3574 O   0  0  0  0  0  0  0  0  0  0  0  0
  1  2  1  0
  1  5  1  0
  3  4  1  0
  3  2  1  0
  4  5  1  0
  6  7  2  0
  5  6  1  1
  8  6  1  0
  9 12  1  0
  9  8  1  0
  9 10  1  1
 11 10  1  0
 12 20  1  0
 13 12  2  0
 15 14  1  0
 15 16  2  0
 17 15  1  0
 18 17  1  0
 19 18  1  6
 20 19  1  0
 21 22  1  0
 21 19  1  0
 23 21  2  0
M  END
$$$$
