PCQ.pdb
     RDKit          3D

 23 23  0  0  1  0  0  0  0  0999 V2000
    6.9789  -14.5361   20.6584 N   0  0  0  0  0  0  0  0  0  0  0  0
    6.4249  -13.4969   19.8492 C   0  0  0  0  0  0  0  0  0  0  0  0
    7.6184  -12.9202   19.1200 C   0  0  0  0  0  0  0  0  0  0  0  0
    8.6676  -12.9298   20.2401 C   0  0  0  0  0  0  0  0  0  0  0  0
    8.3629  -14.2535   20.8976 C   0  0  1  0  0  0  0  0  0  0  0  0
    8.6088  -14.2406   22.3548 C   0  0  0  0  0  0  0  0  0  0  0  0
    9.7863  -14.1605   22.7857 O   0  0  0  0  0  0  0  0  0  0  0  0
    7.5516  -14.3161   23.3006 N   0  0  0  0  0  0  0  0  0  0  0  0
    7.7650  -14.4556   24.7166 C   0  0  1  0  0  0  0  0  0  0  0  0
    6.5764  -14.0356   25.5382 C   0  0  0  0  0  0  0  0  0  0  0  0
    6.2839  -12.2701   25.5312 S   0  0  0  0  0  0  0  0  0  0  0  0
    8.2170  -15.8441   25.0496 C   0  0  0  0  0  0  0  0  0  0  0  0
    7.7826  -16.8483   24.4193 O   0  0  0  0  0  0  0  0  0  0  0  0
   12.0576  -20.5894   23.8275 N   0  0  0  0  0  0  0  0  0  0  0  0
   12.1004  -19.1800   23.8681 C   0  0  0  0  0  0  0  0  0  0  0  0
   12.2817  -18.5693   22.7601 O   0  0  0  0  0  0  0  0  0  0  0  0
   11.9409  -18.4228   25.1013 C   0  0  0  0  0  0  0  0  0  0  0  0
   10.9491  -17.3402   25.1332 C   0  0  0  0  0  0  0  0  0  0  0  0
    9.9020  -17.3440   26.2071 C   0  0  2  0  0  0  0  0  0  0  0  0
    9.1438  -16.0604   26.0816 N   0  0  0  0  0  0  0  0  0  0  0  0
   10.4490  -17.3952   27.5473 C   0  0  0  0  0  0  0  0  0  0  0  0
   10.9212  -18.5792   28.0928 O   0  0  0  0  0  0  0  0  0  0  0  0
   10.5124  -16.3736   28.2769 O   0  0  0  0  0  0  0  0  0  0  0  0
  1  2  1  0
  1  5  1  0
  3  4  1  0
  3  2  1  0
  4  5  1  0
  6  7  2  0
  5  6  1  1
  8  6  1  0
  9 12  1  0
  9  8  1  0
  9 10  1  1
 11 10  1  0
 12 20  1  0
 13 12  2  0
 15 14  1  0
 15 16  2  0
 17 15  1  0
 18 17  1  0
 19 18  1  6
 20 19  1  0
 21 22  1  0
 21 19  1  0
 23 21  2  0
M  END
$$$$
