PCQ.pdb
     RDKit          3D

 23 23  0  0  1  0  0  0  0  0999 V2000
    7.0487  -14.6712   20.7009 N   0  0  0  0  0  0  0  0  0  0  0  0
    6.1869  -13.7673   20.0067 C   0  0  0  0  0  0  0  0  0  0  0  0
    7.1216  -12.9699   19.1240 C   0  0  0  0  0  0  0  0  0  0  0  0
    8.3067  -12.7645   20.0773 C   0  0  0  0  0  0  0  0  0  0  0  0
    8.3699  -14.1184   20.7408 C   0  0  1  0  0  0  0  0  0  0  0  0
    8.8222  -14.0483   22.1461 C   0  0  0  0  0  0  0  0  0  0  0  0
    9.9750  -13.6225   22.4074 O   0  0  0  0  0  0  0  0  0  0  0  0
    7.9934  -14.4489   23.2279 N   0  0  0  0  0  0  0  0  0  0  0  0
    8.4313  -14.4598   24.5985 C   0  0  1  0  0  0  0  0  0  0  0  0
    7.4785  -13.7600   25.5294 C   0  0  0  0  0  0  0  0  0  0  0  0
    5.8263  -14.4475   25.5191 S   0  0  0  0  0  0  0  0  0  0  0  0
    8.7322  -15.8567   25.0469 C   0  0  0  0  0  0  0  0  0  0  0  0
    7.9751  -16.8225   24.7500 O   0  0  0  0  0  0  0  0  0  0  0  0
   12.9634  -18.9228   23.2669 N   0  0  0  0  0  0  0  0  0  0  0  0
   13.2341  -19.3288   24.5904 C   0  0  0  0  0  0  0  0  0  0  0  0
   13.9576  -20.3710   24.7449 O   0  0  0  0  0  0  0  0  0  0  0  0
   12.7326  -18.6096   25.7526 C   0  0  0  0  0  0  0  0  0  0  0  0
   11.8722  -17.4399   25.5327 C   0  0  0  0  0  0  0  0  0  0  0  0
   10.4330  -17.5062   25.9497 C   0  0  2  0  0  0  0  0  0  0  0  0
    9.8759  -16.1242   25.8159 N   0  0  0  0  0  0  0  0  0  0  0  0
   10.2488  -17.9165   27.3266 C   0  0  0  0  0  0  0  0  0  0  0  0
   10.2592  -19.2539   27.6921 O   0  0  0  0  0  0  0  0  0  0  0  0
   10.0636  -17.0817   28.2479 O   0  0  0  0  0  0  0  0  0  0  0  0
  1  2  1  0
  1  5  1  0
  3  4  1  0
  3  2  1  0
  4  5  1  0
  6  7  2  0
  5  6  1  1
  8  6  1  0
  9 12  1  0
  9  8  1  0
  9 10  1  1
 11 10  1  0
 12 20  1  0
 13 12  2  0
 15 14  1  0
 15 16  2  0
 17 15  1  0
 18 17  1  0
 19 18  1  1
 20 19  1  0
 21 22  1  0
 21 19  1  0
 23 21  2  0
M  END
$$$$
