EQV.pdb
     RDKit          3D

 26 25  0  0  1  0  0  0  0  0999 V2000
   15.9609  -12.9656  -14.0593 N   0  0  0  0  0  0  0  0  0  0  0  0
   15.3771  -11.6665  -13.7563 C   0  0  1  0  0  0  0  0  0  0  0  0
   13.9734  -11.8908  -13.2898 C   0  0  0  0  0  0  0  0  0  0  0  0
   13.0680  -12.5586  -14.2696 C   0  0  0  0  0  0  0  0  0  0  0  0
   13.2364  -14.0400  -14.1189 C   0  0  0  0  0  0  0  0  0  0  0  0
   13.5264  -14.7531  -15.1079 O   0  0  0  0  0  0  0  0  0  0  0  0
   16.2287  -10.9366  -12.7667 C   0  0  0  0  0  0  0  0  0  0  0  0
   16.9106  -11.5857  -11.9532 O   0  0  0  0  0  0  0  0  0  0  0  0
   13.0778  -14.6668  -12.8881 O   0  0  0  0  0  0  0  0  0  0  0  0
   20.4972   -6.3932  -12.8420 N   0  0  0  0  0  0  0  0  0  0  0  0
   20.6161   -7.4075  -11.8591 C   0  0  0  0  0  0  0  0  0  0  0  0
   21.6343   -7.4056  -11.1304 O   0  0  0  0  0  0  0  0  0  0  0  0
   19.5964   -8.4666  -11.6534 C   0  0  0  0  0  0  0  0  0  0  0  0
   18.4548   -8.2858  -12.6049 C   0  0  0  0  0  0  0  0  0  0  0  0
   17.1351   -8.6706  -11.9961 C   0  0  2  0  0  0  0  0  0  0  0  0
   16.2933   -9.5401  -12.7147 N   0  0  0  0  0  0  0  0  0  0  0  0
   16.3984   -7.5338  -11.4311 C   0  0  0  0  0  0  0  0  0  0  0  0
   15.7962   -6.7389  -12.2412 O   0  0  0  0  0  0  0  0  0  0  0  0
   13.6368   -7.4567   -9.0717 C   0  0  0  0  0  0  0  0  0  0  0  0
   14.5774   -6.4341   -8.4809 C   0  0  1  0  0  0  0  0  0  0  0  0
   15.1686   -7.0804   -7.2229 C   0  0  0  0  0  0  0  0  0  0  0  0
   15.6247   -6.0937   -9.4732 C   0  0  2  0  0  0  0  0  0  0  0  0
   16.2858   -7.2258  -10.0574 N   0  0  0  0  0  0  0  0  0  0  0  0
   16.5244   -5.0391   -8.9662 C   0  0  0  0  0  0  0  0  0  0  0  0
   16.0405   -3.7762   -8.7090 O   0  0  0  0  0  0  0  0  0  0  0  0
   17.7284   -5.2679   -8.7629 O   0  0  0  0  0  0  0  0  0  0  0  0
  2  1  1  1
  2  3  1  0
  3  4  1  0
  4  5  1  0
  5  9  1  0
  5  6  2  0
  7  8  2  0
  7  2  1  0
 10 11  1  0
 11 12  2  0
 13 11  1  0
 13 14  1  0
 15 14  1  6
 15 16  1  0
 15 17  1  0
 16  7  1  0
 17 23  1  0
 17 18  2  0
 20 19  1  6
 20 22  1  0
 21 20  1  0
 22 24  1  0
 22 23  1  1
 24 26  2  0
 24 25  1  0
M  END
$$$$
