EQV.pdb
     RDKit          3D

 26 25  0  0  1  0  0  0  0  0999 V2000
   22.5651  -15.3194  -19.0579 N   0  0  0  0  0  0  0  0  0  0  0  0
   22.1757  -14.0537  -19.6633 C   0  0  1  0  0  0  0  0  0  0  0  0
   20.6962  -14.0852  -19.8834 C   0  0  0  0  0  0  0  0  0  0  0  0
   20.0508  -15.4215  -19.7312 C   0  0  0  0  0  0  0  0  0  0  0  0
   18.8305  -15.4468  -20.6006 C   0  0  0  0  0  0  0  0  0  0  0  0
   17.8784  -14.6601  -20.3868 O   0  0  0  0  0  0  0  0  0  0  0  0
   22.6311  -12.9125  -18.8104 C   0  0  0  0  0  0  0  0  0  0  0  0
   22.6512  -13.0457  -17.5735 O   0  0  0  0  0  0  0  0  0  0  0  0
   18.7149  -16.3356  -21.6634 O   0  0  0  0  0  0  0  0  0  0  0  0
   25.4756   -7.4830  -21.0560 N   0  0  0  0  0  0  0  0  0  0  0  0
   25.3293   -7.3120  -19.6566 C   0  0  0  0  0  0  0  0  0  0  0  0
   25.8334   -6.2933  -19.1313 O   0  0  0  0  0  0  0  0  0  0  0  0
   24.6107   -8.2781  -18.7881 C   0  0  0  0  0  0  0  0  0  0  0  0
   24.1632   -9.4646  -19.5839 C   0  0  0  0  0  0  0  0  0  0  0  0
   23.4762  -10.4978  -18.7349 C   0  0  2  0  0  0  0  0  0  0  0  0
   23.0404  -11.6874  -19.3479 N   0  0  0  0  0  0  0  0  0  0  0  0
   22.4582   -9.9355  -17.8394 C   0  0  0  0  0  0  0  0  0  0  0  0
   21.2991   -9.6738  -18.3280 O   0  0  0  0  0  0  0  0  0  0  0  0
   22.8308   -9.7638  -13.5145 C   0  0  0  0  0  0  0  0  0  0  0  0
   21.5342   -9.8601  -14.2819 C   0  0  1  0  0  0  0  0  0  0  0  0
   20.4583   -9.2567  -13.3719 C   0  0  0  0  0  0  0  0  0  0  0  0
   21.6590   -9.1182  -15.5593 C   0  0  2  0  0  0  0  0  0  0  0  0
   22.6346   -9.6508  -16.4674 N   0  0  0  0  0  0  0  0  0  0  0  0
   21.7492   -7.6629  -15.3301 C   0  0  0  0  0  0  0  0  0  0  0  0
   20.6300   -6.9437  -14.9756 O   0  0  0  0  0  0  0  0  0  0  0  0
   22.8292   -7.0612  -15.4518 O   0  0  0  0  0  0  0  0  0  0  0  0
  2  1  1  1
  2  3  1  0
  3  4  1  0
  4  5  1  0
  5  9  1  0
  5  6  2  0
  7  8  2  0
  7  2  1  0
 10 11  1  0
 11 12  2  0
 13 11  1  0
 13 14  1  0
 15 14  1  6
 15 16  1  0
 15 17  1  0
 16  7  1  0
 17 23  1  0
 17 18  2  0
 20 19  1  1
 20 22  1  0
 21 20  1  0
 22 24  1  0
 22 23  1  1
 24 26  2  0
 24 25  1  0
M  END
$$$$
