EQV.pdb
     RDKit          3D

 26 25  0  0  1  0  0  0  0  0999 V2000
   20.0337  -13.7083  -16.2711 N   0  0  0  0  0  0  0  0  0  0  0  0
   19.0718  -12.6200  -16.3747 C   0  0  1  0  0  0  0  0  0  0  0  0
   17.7534  -13.1229  -15.8775 C   0  0  0  0  0  0  0  0  0  0  0  0
   17.1694  -14.2634  -16.6416 C   0  0  0  0  0  0  0  0  0  0  0  0
   15.8803  -14.6494  -15.9821 C   0  0  0  0  0  0  0  0  0  0  0  0
   15.7073  -15.8139  -15.5521 O   0  0  0  0  0  0  0  0  0  0  0  0
   19.5718  -11.4180  -15.6383 C   0  0  0  0  0  0  0  0  0  0  0  0
   19.7952  -11.5004  -14.4171 O   0  0  0  0  0  0  0  0  0  0  0  0
   14.8430  -13.7369  -15.8268 O   0  0  0  0  0  0  0  0  0  0  0  0
   24.6573   -9.1401  -15.9848 N   0  0  0  0  0  0  0  0  0  0  0  0
   23.9808   -9.8258  -14.9451 C   0  0  0  0  0  0  0  0  0  0  0  0
   24.6672  -10.4730  -14.1218 O   0  0  0  0  0  0  0  0  0  0  0  0
   22.5048   -9.8134  -14.7862 C   0  0  0  0  0  0  0  0  0  0  0  0
   21.8793   -8.8854  -15.7806 C   0  0  0  0  0  0  0  0  0  0  0  0
   20.3800   -8.9952  -15.8025 C   0  0  2  0  0  0  0  0  0  0  0  0
   19.8021  -10.1907  -16.2691 N   0  0  0  0  0  0  0  0  0  0  0  0
   19.7151   -7.8098  -16.3568 C   0  0  0  0  0  0  0  0  0  0  0  0
   19.7147   -7.6561  -17.6324 O   0  0  0  0  0  0  0  0  0  0  0  0
   16.3575   -6.8444  -16.6425 C   0  0  0  0  0  0  0  0  0  0  0  0
   16.9371   -5.6284  -15.9609 C   0  0  1  0  0  0  0  0  0  0  0  0
   16.5141   -5.7257  -14.4908 C   0  0  0  0  0  0  0  0  0  0  0  0
   18.4116   -5.6309  -16.1144 C   0  0  2  0  0  0  0  0  0  0  0  0
   19.0636   -6.8051  -15.6081 N   0  0  0  0  0  0  0  0  0  0  0  0
   19.0010   -4.3513  -15.6741 C   0  0  0  0  0  0  0  0  0  0  0  0
   18.7062   -3.1836  -16.3410 O   0  0  0  0  0  0  0  0  0  0  0  0
   19.7701   -4.3023  -14.6998 O   0  0  0  0  0  0  0  0  0  0  0  0
  2  1  1  1
  2  3  1  0
  3  4  1  0
  4  5  1  0
  5  9  1  0
  5  6  2  0
  7  8  2  0
  7  2  1  0
 10 11  1  0
 11 12  2  0
 13 11  1  0
 13 14  1  0
 15 14  1  6
 15 16  1  0
 15 17  1  0
 16  7  1  0
 17 23  1  0
 17 18  2  0
 20 19  1  6
 20 22  1  0
 21 20  1  0
 22 24  1  0
 22 23  1  1
 24 26  2  0
 24 25  1  0
M  END
$$$$
