EQV.pdb
     RDKit          3D

 26 25  0  0  1  0  0  0  0  0999 V2000
   18.4947  -11.5335  -14.2351 N   0  0  0  0  0  0  0  0  0  0  0  0
   17.7891  -10.6718  -15.1731 C   0  0  1  0  0  0  0  0  0  0  0  0
   16.4910  -11.3314  -15.5164 C   0  0  0  0  0  0  0  0  0  0  0  0
   15.6983  -11.8354  -14.3574 C   0  0  0  0  0  0  0  0  0  0  0  0
   14.3668  -12.2915  -14.8717 C   0  0  0  0  0  0  0  0  0  0  0  0
   14.1483  -13.5067  -15.0876 O   0  0  0  0  0  0  0  0  0  0  0  0
   17.6312   -9.3011  -14.5955 C   0  0  0  0  0  0  0  0  0  0  0  0
   17.2142   -8.3789  -15.3191 O   0  0  0  0  0  0  0  0  0  0  0  0
   13.3390  -11.3901  -15.1243 O   0  0  0  0  0  0  0  0  0  0  0  0
   15.6496   -7.5116   -8.8974 N   0  0  0  0  0  0  0  0  0  0  0  0
   16.3842   -6.3905   -9.3584 C   0  0  0  0  0  0  0  0  0  0  0  0
   16.3476   -5.3409   -8.6766 O   0  0  0  0  0  0  0  0  0  0  0  0
   17.1908   -6.4010  -10.6047 C   0  0  0  0  0  0  0  0  0  0  0  0
   17.1266   -7.7464  -11.2582 C   0  0  0  0  0  0  0  0  0  0  0  0
   17.9057   -7.7971  -12.5430 C   0  0  2  0  0  0  0  0  0  0  0  0
   17.9351   -9.0066  -13.2620 N   0  0  0  0  0  0  0  0  0  0  0  0
   19.2352   -7.1829  -12.4449 C   0  0  0  0  0  0  0  0  0  0  0  0
   20.0265   -7.5952  -11.5205 O   0  0  0  0  0  0  0  0  0  0  0  0
   22.0533   -7.5521  -14.3721 C   0  0  0  0  0  0  0  0  0  0  0  0
   21.9216   -6.0484  -14.4001 C   0  0  1  0  0  0  0  0  0  0  0  0
   21.3115   -5.7026  -15.7632 C   0  0  0  0  0  0  0  0  0  0  0  0
   21.0585   -5.6063  -13.2788 C   0  0  2  0  0  0  0  0  0  0  0  0
   19.7363   -6.1647  -13.2856 N   0  0  0  0  0  0  0  0  0  0  0  0
   21.1164   -4.1423  -13.0996 C   0  0  0  0  0  0  0  0  0  0  0  0
   19.9804   -3.3783  -13.2444 O   0  0  0  0  0  0  0  0  0  0  0  0
   22.1840   -3.5736  -12.8167 O   0  0  0  0  0  0  0  0  0  0  0  0
  2  1  1  1
  2  3  1  0
  3  4  1  0
  4  5  1  0
  5  9  1  0
  5  6  2  0
  7  8  2  0
  7  2  1  0
 10 11  1  0
 11 12  2  0
 13 11  1  0
 13 14  1  0
 15 14  1  1
 15 16  1  0
 15 17  1  0
 16  7  1  0
 17 23  1  0
 17 18  2  0
 20 19  1  6
 20 22  1  0
 21 20  1  0
 22 24  1  0
 22 23  1  6
 24 26  2  0
 24 25  1  0
M  END
$$$$
