EQV.pdb
     RDKit          3D

 26 25  0  0  1  0  0  0  0  0999 V2000
   20.6351  -12.0584  -16.4496 N   0  0  0  0  0  0  0  0  0  0  0  0
   19.9439  -11.1390  -17.3426 C   0  0  1  0  0  0  0  0  0  0  0  0
   18.8211  -11.8851  -17.9913 C   0  0  0  0  0  0  0  0  0  0  0  0
   18.7537  -13.3432  -17.6830 C   0  0  0  0  0  0  0  0  0  0  0  0
   17.5555  -13.9085  -18.3832 C   0  0  0  0  0  0  0  0  0  0  0  0
   16.4969  -14.1376  -17.7524 O   0  0  0  0  0  0  0  0  0  0  0  0
   19.5014   -9.9243  -16.5902 C   0  0  0  0  0  0  0  0  0  0  0  0
   18.8412   -9.0494  -17.1789 O   0  0  0  0  0  0  0  0  0  0  0  0
   17.5781  -14.1950  -19.7434 O   0  0  0  0  0  0  0  0  0  0  0  0
   16.9885   -9.6729  -10.9861 N   0  0  0  0  0  0  0  0  0  0  0  0
   16.4531   -9.7327  -12.2971 C   0  0  0  0  0  0  0  0  0  0  0  0
   15.2709  -10.1219  -12.4339 O   0  0  0  0  0  0  0  0  0  0  0  0
   17.2232   -9.3580  -13.5098 C   0  0  0  0  0  0  0  0  0  0  0  0
   18.6322   -9.0056  -13.1468 C   0  0  0  0  0  0  0  0  0  0  0  0
   19.4708   -8.6832  -14.3522 C   0  0  2  0  0  0  0  0  0  0  0  0
   19.8005   -9.7260  -15.2380 N   0  0  0  0  0  0  0  0  0  0  0  0
   20.6281   -7.8328  -14.0486 C   0  0  0  0  0  0  0  0  0  0  0  0
   21.5400   -8.3037  -13.2757 O   0  0  0  0  0  0  0  0  0  0  0  0
   23.0915   -6.3278  -16.3442 C   0  0  0  0  0  0  0  0  0  0  0  0
   22.6460   -5.1643  -15.4916 C   0  0  1  0  0  0  0  0  0  0  0  0
   21.7045   -4.3325  -16.3699 C   0  0  0  0  0  0  0  0  0  0  0  0
   21.9653   -5.6729  -14.2769 C   0  0  2  0  0  0  0  0  0  0  0  0
   20.8384   -6.5236  -14.5347 N   0  0  0  0  0  0  0  0  0  0  0  0
   21.7200   -4.5904  -13.3040 C   0  0  0  0  0  0  0  0  0  0  0  0
   20.4381   -4.3011  -12.8937 O   0  0  0  0  0  0  0  0  0  0  0  0
   22.6586   -3.9227  -12.8389 O   0  0  0  0  0  0  0  0  0  0  0  0
  2  1  1  1
  2  3  1  0
  3  4  1  0
  4  5  1  0
  5  9  1  0
  5  6  2  0
  7  8  2  0
  7  2  1  0
 10 11  1  0
 11 12  2  0
 13 11  1  0
 13 14  1  0
 15 14  1  1
 15 16  1  0
 15 17  1  0
 16  7  1  0
 17 23  1  0
 17 18  2  0
 20 19  1  6
 20 22  1  0
 21 20  1  0
 22 24  1  0
 22 23  1  6
 24 26  2  0
 24 25  1  0
M  END
$$$$
