EQV.pdb
     RDKit          3D

 26 25  0  0  1  0  0  0  0  0999 V2000
   19.1381  -23.7889   -9.6078 N   0  0  0  0  0  0  0  0  0  0  0  0
   18.6880  -23.5687  -10.9750 C   0  0  1  0  0  0  0  0  0  0  0  0
   17.1975  -23.6958  -10.9944 C   0  0  0  0  0  0  0  0  0  0  0  0
   16.6624  -25.0510  -10.6734 C   0  0  0  0  0  0  0  0  0  0  0  0
   16.9319  -25.9438  -11.8463 C   0  0  0  0  0  0  0  0  0  0  0  0
   16.9813  -25.4745  -13.0074 O   0  0  0  0  0  0  0  0  0  0  0  0
   19.1840  -22.2491  -11.4749 C   0  0  0  0  0  0  0  0  0  0  0  0
   18.9655  -21.2226  -10.8067 O   0  0  0  0  0  0  0  0  0  0  0  0
   17.1343  -27.3100  -11.6868 O   0  0  0  0  0  0  0  0  0  0  0  0
   24.6698  -18.8597  -15.0854 N   0  0  0  0  0  0  0  0  0  0  0  0
   23.8776  -19.9427  -14.6288 C   0  0  0  0  0  0  0  0  0  0  0  0
   24.4217  -21.0647  -14.5163 O   0  0  0  0  0  0  0  0  0  0  0  0
   22.4408  -19.8109  -14.2794 C   0  0  0  0  0  0  0  0  0  0  0  0
   21.9065  -21.1105  -13.7628 C   0  0  0  0  0  0  0  0  0  0  0  0
   20.4838  -20.9978  -13.2902 C   0  0  2  0  0  0  0  0  0  0  0  0
   19.8912  -22.1163  -12.6747 N   0  0  0  0  0  0  0  0  0  0  0  0
   19.5897  -20.3719  -14.2716 C   0  0  0  0  0  0  0  0  0  0  0  0
   19.0416  -21.1234  -15.1579 O   0  0  0  0  0  0  0  0  0  0  0  0
   17.5976  -16.0841  -14.7694 C   0  0  0  0  0  0  0  0  0  0  0  0
   17.2986  -17.5509  -14.5734 C   0  0  1  0  0  0  0  0  0  0  0  0
   15.9167  -17.7873  -15.1930 C   0  0  0  0  0  0  0  0  0  0  0  0
   18.3483  -18.3626  -15.2345 C   0  0  2  0  0  0  0  0  0  0  0  0
   19.2684  -18.9981  -14.3347 N   0  0  0  0  0  0  0  0  0  0  0  0
   18.9747  -17.6270  -16.3503 C   0  0  0  0  0  0  0  0  0  0  0  0
   18.2791  -17.4107  -17.5185 O   0  0  0  0  0  0  0  0  0  0  0  0
   20.1345  -17.1913  -16.2590 O   0  0  0  0  0  0  0  0  0  0  0  0
  2  1  1  1
  2  3  1  0
  3  4  1  0
  4  5  1  0
  5  9  1  0
  5  6  2  0
  7  8  2  0
  7  2  1  0
 10 11  1  0
 11 12  2  0
 13 11  1  0
 13 14  1  0
 15 14  1  6
 15 16  1  0
 15 17  1  0
 16  7  1  0
 17 23  1  0
 17 18  2  0
 20 19  1  6
 20 22  1  0
 21 20  1  0
 22 24  1  0
 22 23  1  1
 24 26  2  0
 24 25  1  0
M  END
$$$$
