EQV.pdb
     RDKit          3D

 26 25  0  0  1  0  0  0  0  0999 V2000
   17.8982  -10.7705  -15.1379 N   0  0  0  0  0  0  0  0  0  0  0  0
   18.1565  -10.0190  -13.9178 C   0  0  1  0  0  0  0  0  0  0  0  0
   19.0510   -8.8713  -14.2653 C   0  0  0  0  0  0  0  0  0  0  0  0
   20.4163   -9.2397  -14.7406 C   0  0  0  0  0  0  0  0  0  0  0  0
   21.1254   -7.9787  -15.1313 C   0  0  0  0  0  0  0  0  0  0  0  0
   22.3083   -8.0136  -15.5443 O   0  0  0  0  0  0  0  0  0  0  0  0
   16.8664   -9.6038  -13.2850 C   0  0  0  0  0  0  0  0  0  0  0  0
   15.8968   -9.3156  -14.0096 O   0  0  0  0  0  0  0  0  0  0  0  0
   20.5003   -6.7396  -15.0495 O   0  0  0  0  0  0  0  0  0  0  0  0
   13.0507  -12.2697   -9.5182 N   0  0  0  0  0  0  0  0  0  0  0  0
   13.1618  -12.1085  -10.9220 C   0  0  0  0  0  0  0  0  0  0  0  0
   12.4995  -12.8753  -11.6576 O   0  0  0  0  0  0  0  0  0  0  0  0
   14.0216  -11.0793  -11.5587 C   0  0  0  0  0  0  0  0  0  0  0  0
   14.7632  -10.2999  -10.5175 C   0  0  0  0  0  0  0  0  0  0  0  0
   15.5829   -9.1877  -11.1102 C   0  0  2  0  0  0  0  0  0  0  0  0
   16.6994   -9.5242  -11.8983 N   0  0  0  0  0  0  0  0  0  0  0  0
   15.8860   -8.1132  -10.1572 C   0  0  0  0  0  0  0  0  0  0  0  0
   16.8738   -8.2779   -9.3522 O   0  0  0  0  0  0  0  0  0  0  0  0
   13.9501   -4.2121  -10.1943 C   0  0  0  0  0  0  0  0  0  0  0  0
   15.3703   -4.4627   -9.7477 C   0  0  1  0  0  0  0  0  0  0  0  0
   15.6980   -3.3558   -8.7392 C   0  0  0  0  0  0  0  0  0  0  0  0
   15.4675   -5.8116   -9.1408 C   0  0  2  0  0  0  0  0  0  0  0  0
   15.1832   -6.8939  -10.0397 N   0  0  0  0  0  0  0  0  0  0  0  0
   14.7587   -5.8725   -7.8475 C   0  0  0  0  0  0  0  0  0  0  0  0
   15.3247   -5.3264   -6.7176 O   0  0  0  0  0  0  0  0  0  0  0  0
   13.6448   -6.4143   -7.7527 O   0  0  0  0  0  0  0  0  0  0  0  0
  2  1  1  6
  2  3  1  0
  3  4  1  0
  4  5  1  0
  5  9  1  0
  5  6  2  0
  7  8  2  0
  7  2  1  0
 10 11  1  0
 11 12  2  0
 13 11  1  0
 13 14  1  0
 15 14  1  1
 15 16  1  0
 15 17  1  0
 16  7  1  0
 17 23  1  0
 17 18  2  0
 20 19  1  1
 20 22  1  0
 21 20  1  0
 22 24  1  0
 22 23  1  6
 24 26  2  0
 24 25  1  0
M  END
$$$$
