EQV.pdb
     RDKit          3D

 26 25  0  0  1  0  0  0  0  0999 V2000
   22.3332  -22.3201  -15.4114 N   0  0  0  0  0  0  0  0  0  0  0  0
   22.2774  -20.8653  -15.4366 C   0  0  1  0  0  0  0  0  0  0  0  0
   21.3676  -20.4209  -14.3353 C   0  0  0  0  0  0  0  0  0  0  0  0
   19.9328  -20.7980  -14.4935 C   0  0  0  0  0  0  0  0  0  0  0  0
   19.3504  -20.9834  -13.1254 C   0  0  0  0  0  0  0  0  0  0  0  0
   19.5335  -20.1236  -12.2320 O   0  0  0  0  0  0  0  0  0  0  0  0
   23.6568  -20.2947  -15.3422 C   0  0  0  0  0  0  0  0  0  0  0  0
   24.4960  -20.8465  -14.6079 O   0  0  0  0  0  0  0  0  0  0  0  0
   18.5944  -22.1052  -12.8045 O   0  0  0  0  0  0  0  0  0  0  0  0
   25.9381  -22.3405  -17.1017 N   0  0  0  0  0  0  0  0  0  0  0  0
   26.9851  -21.7667  -16.3378 C   0  0  0  0  0  0  0  0  0  0  0  0
   27.7759  -22.5380  -15.7486 O   0  0  0  0  0  0  0  0  0  0  0  0
   27.1878  -20.3021  -16.2037 C   0  0  0  0  0  0  0  0  0  0  0  0
   26.2717  -19.5603  -17.1266 C   0  0  0  0  0  0  0  0  0  0  0  0
   25.3228  -18.6575  -16.3884 C   0  0  2  0  0  0  0  0  0  0  0  0
   24.0499  -19.1546  -16.0514 N   0  0  0  0  0  0  0  0  0  0  0  0
   25.2540  -17.3012  -16.9452 C   0  0  0  0  0  0  0  0  0  0  0  0
   24.4643  -17.0925  -17.9370 O   0  0  0  0  0  0  0  0  0  0  0  0
   25.5741  -14.0297  -14.6698 C   0  0  0  0  0  0  0  0  0  0  0  0
   26.3053  -13.8040  -15.9712 C   0  0  1  0  0  0  0  0  0  0  0  0
   27.7988  -13.8987  -15.6391 C   0  0  0  0  0  0  0  0  0  0  0  0
   25.8907  -14.8313  -16.9563 C   0  0  2  0  0  0  0  0  0  0  0  0
   25.9856  -16.1840  -16.4857 N   0  0  0  0  0  0  0  0  0  0  0  0
   26.5001  -14.5867  -18.2782 C   0  0  0  0  0  0  0  0  0  0  0  0
   26.0690  -13.5385  -19.0597 O   0  0  0  0  0  0  0  0  0  0  0  0
   27.4078  -15.3168  -18.7098 O   0  0  0  0  0  0  0  0  0  0  0  0
  2  1  1  1
  2  3  1  0
  3  4  1  0
  4  5  1  0
  5  9  1  0
  5  6  2  0
  7  8  2  0
  7  2  1  0
 10 11  1  0
 11 12  2  0
 13 11  1  0
 13 14  1  0
 15 14  1  6
 15 16  1  0
 15 17  1  0
 16  7  1  0
 17 23  1  0
 17 18  2  0
 20 19  1  1
 20 22  1  0
 21 20  1  0
 22 24  1  0
 22 23  1  1
 24 26  2  0
 24 25  1  0
M  END
$$$$
