TPY.pdb
     RDKit          3D

 27 28  0  0  1  0  0  0  0  0999 V2000
   26.2544  -16.8692  -15.2431 C   0  0  0  0  0  0  0  0  0  0  0  0
   25.5053  -17.6815  -16.2602 C   0  0  1  0  0  0  0  0  0  0  0  0
   25.5456  -16.9890  -17.4692 O   0  0  0  0  0  0  0  0  0  0  0  0
   26.1926  -19.0206  -16.5181 C   0  0  2  0  0  0  0  0  0  0  0  0
   25.5805  -19.6297  -17.6488 N   0  0  0  0  0  0  0  0  0  0  0  0
   26.2542  -19.8488  -15.3290 C   0  0  0  0  0  0  0  0  0  0  0  0
   25.1873  -20.3541  -14.8971 O   0  0  0  0  0  0  0  0  0  0  0  0
   27.4528  -20.1265  -14.6201 N   0  0  0  0  0  0  0  0  0  0  0  0
   28.7742  -19.8092  -15.0555 C   0  0  0  0  0  0  0  0  0  0  0  0
   29.5817  -19.6705  -13.7712 C   0  0  0  0  0  0  0  0  0  0  0  0
   28.9953  -20.8565  -12.9931 C   0  0  0  0  0  0  0  0  0  0  0  0
   27.5394  -20.8178  -13.3419 C   0  0  1  0  0  0  0  0  0  0  0  0
   26.7294  -20.1280  -12.3015 C   0  0  0  0  0  0  0  0  0  0  0  0
   26.7163  -18.8693  -12.1710 O   0  0  0  0  0  0  0  0  0  0  0  0
   20.4282  -22.1548  -14.1449 O   0  0  0  0  0  0  0  0  0  0  0  0
   21.3222  -21.4087  -13.3664 C   0  0  0  0  0  0  0  0  0  0  0  0
   22.4203  -22.0534  -12.8316 C   0  0  0  0  0  0  0  0  0  0  0  0
   23.3323  -21.3721  -12.0589 C   0  0  0  0  0  0  0  0  0  0  0  0
   23.1688  -20.0316  -11.8028 C   0  0  0  0  0  0  0  0  0  0  0  0
   24.1715  -19.3356  -10.9618 C   0  0  0  0  0  0  0  0  0  0  0  0
   25.1655  -20.2814  -10.3173 C   0  0  2  0  0  0  0  0  0  0  0  0
   25.9346  -20.8731  -11.4101 N   0  0  0  0  0  0  0  0  0  0  0  0
   24.5311  -21.3129   -9.4814 C   0  0  0  0  0  0  0  0  0  0  0  0
   23.7524  -20.9705   -8.3877 O   0  0  0  0  0  0  0  0  0  0  0  0
   22.0744  -19.3946  -12.3370 C   0  0  0  0  0  0  0  0  0  0  0  0
   21.1708  -20.0753  -13.1042 C   0  0  0  0  0  0  0  0  0  0  0  0
   24.6564  -22.5535   -9.7064 O   0  0  0  0  0  0  0  0  0  0  0  0
  2  1  1  1
  2  3  1  0
  4  2  1  0
  4  5  1  6
  6  7  2  0
  6  4  1  0
  8  6  1  0
  9  8  1  0
 10  9  1  0
 11 10  1  0
 11 12  1  0
 12  8  1  0
 13 22  1  0
 12 13  1  1
 14 13  2  0
 16 15  1  0
 17 16  2  0
 18 17  1  0
 19 25  1  0
 19 18  2  0
 21 20  1  6
 20 19  1  0
 21 22  1  0
 23 21  1  0
 24 23  1  0
 25 26  2  0
 26 16  1  0
 27 23  2  0
M  END
$$$$
