TPY.pdb
     RDKit          3D

 27 28  0  0  1  0  0  0  0  0999 V2000
   26.9835  -18.3160  -14.6960 C   0  0  0  0  0  0  0  0  0  0  0  0
   27.1386  -19.4237  -15.6982 C   0  0  1  0  0  0  0  0  0  0  0  0
   28.3712  -19.2568  -16.3275 O   0  0  0  0  0  0  0  0  0  0  0  0
   27.1956  -20.7881  -15.0146 C   0  0  2  0  0  0  0  0  0  0  0  0
   27.6713  -21.7430  -15.9559 N   0  0  0  0  0  0  0  0  0  0  0  0
   25.9464  -21.1331  -14.3635 C   0  0  0  0  0  0  0  0  0  0  0  0
   24.9642  -21.4459  -15.0829 O   0  0  0  0  0  0  0  0  0  0  0  0
   25.7646  -21.1408  -12.9551 N   0  0  0  0  0  0  0  0  0  0  0  0
   26.7939  -20.9887  -11.9786 C   0  0  0  0  0  0  0  0  0  0  0  0
   26.0880  -20.4076  -10.7600 C   0  0  0  0  0  0  0  0  0  0  0  0
   24.8066  -21.2512  -10.8036 C   0  0  0  0  0  0  0  0  0  0  0  0
   24.4983  -21.3434  -12.2662 C   0  0  1  0  0  0  0  0  0  0  0  0
   23.4873  -20.3384  -12.6930 C   0  0  0  0  0  0  0  0  0  0  0  0
   23.7611  -19.1101  -12.8266 O   0  0  0  0  0  0  0  0  0  0  0  0
   21.7245  -23.3517  -18.7495 O   0  0  0  0  0  0  0  0  0  0  0  0
   21.6282  -22.3481  -17.7771 C   0  0  0  0  0  0  0  0  0  0  0  0
   22.7849  -21.9348  -17.1459 C   0  0  0  0  0  0  0  0  0  0  0  0
   22.7517  -20.9529  -16.1827 C   0  0  0  0  0  0  0  0  0  0  0  0
   21.5629  -20.3614  -15.8279 C   0  0  0  0  0  0  0  0  0  0  0  0
   21.5698  -19.3107  -14.7822 C   0  0  0  0  0  0  0  0  0  0  0  0
   21.1211  -19.8191  -13.4265 C   0  0  2  0  0  0  0  0  0  0  0  0
   22.1643  -20.7336  -12.9671 N   0  0  0  0  0  0  0  0  0  0  0  0
   19.8030  -20.4724  -13.4558 C   0  0  0  0  0  0  0  0  0  0  0  0
   18.6476  -19.7456  -13.6938 O   0  0  0  0  0  0  0  0  0  0  0  0
   20.4145  -20.7763  -16.4586 C   0  0  0  0  0  0  0  0  0  0  0  0
   20.4520  -21.7520  -17.4151 C   0  0  0  0  0  0  0  0  0  0  0  0
   19.6473  -21.7159  -13.2685 O   0  0  0  0  0  0  0  0  0  0  0  0
  2  1  1  1
  2  3  1  0
  4  2  1  0
  4  5  1  6
  6  7  2  0
  6  4  1  0
  8  6  1  0
  9  8  1  0
 10  9  1  0
 11 10  1  0
 11 12  1  0
 12  8  1  0
 13 22  1  0
 12 13  1  6
 14 13  2  0
 16 15  1  0
 17 16  2  0
 18 17  1  0
 19 25  1  0
 19 18  2  0
 21 20  1  6
 20 19  1  0
 21 22  1  0
 23 21  1  0
 24 23  1  0
 25 26  2  0
 26 16  1  0
 27 23  2  0
M  END
$$$$
