TPY.pdb
     RDKit          3D

 27 28  0  0  1  0  0  0  0  0999 V2000
   23.7867  -22.0851  -17.0156 C   0  0  0  0  0  0  0  0  0  0  0  0
   24.6080  -23.2482  -17.4932 C   0  0  1  0  0  0  0  0  0  0  0  0
   24.0511  -23.6977  -18.6894 O   0  0  0  0  0  0  0  0  0  0  0  0
   26.0356  -22.8211  -17.8270 C   0  0  2  0  0  0  0  0  0  0  0  0
   26.6931  -23.9098  -18.4646 N   0  0  0  0  0  0  0  0  0  0  0  0
   26.7298  -22.2674  -16.6802 C   0  0  0  0  0  0  0  0  0  0  0  0
   27.1135  -23.0535  -15.7774 O   0  0  0  0  0  0  0  0  0  0  0  0
   27.0053  -20.8842  -16.5148 N   0  0  0  0  0  0  0  0  0  0  0  0
   26.8033  -19.8684  -17.4965 C   0  0  0  0  0  0  0  0  0  0  0  0
   26.5894  -18.5916  -16.6934 C   0  0  0  0  0  0  0  0  0  0  0  0
   27.6631  -18.8054  -15.6177 C   0  0  0  0  0  0  0  0  0  0  0  0
   27.5774  -20.2715  -15.3246 C   0  0  1  0  0  0  0  0  0  0  0  0
   26.7495  -20.5577  -14.1217 C   0  0  0  0  0  0  0  0  0  0  0  0
   25.4893  -20.6631  -14.1705 O   0  0  0  0  0  0  0  0  0  0  0  0
   25.3675  -19.9783   -5.3833 O   0  0  0  0  0  0  0  0  0  0  0  0
   25.9017  -20.2451   -6.6504 C   0  0  0  0  0  0  0  0  0  0  0  0
   26.7370  -19.3043   -7.2202 C   0  0  0  0  0  0  0  0  0  0  0  0
   27.2910  -19.5116   -8.4624 C   0  0  0  0  0  0  0  0  0  0  0  0
   27.0238  -20.6630   -9.1638 C   0  0  0  0  0  0  0  0  0  0  0  0
   27.6368  -20.8456  -10.5010 C   0  0  0  0  0  0  0  0  0  0  0  0
   26.6152  -20.9111  -11.6190 C   0  0  2  0  0  0  0  0  0  0  0  0
   27.3582  -20.7235  -12.8633 N   0  0  0  0  0  0  0  0  0  0  0  0
   25.5343  -19.9225  -11.4796 C   0  0  0  0  0  0  0  0  0  0  0  0
   25.7001  -18.6142  -11.9044 O   0  0  0  0  0  0  0  0  0  0  0  0
   26.1917  -21.5960   -8.5928 C   0  0  0  0  0  0  0  0  0  0  0  0
   25.6435  -21.3861   -7.3584 C   0  0  0  0  0  0  0  0  0  0  0  0
   24.4076  -20.2022  -10.9717 O   0  0  0  0  0  0  0  0  0  0  0  0
  2  1  1  6
  2  3  1  0
  4  2  1  0
  4  5  1  1
  6  7  2  0
  6  4  1  0
  8  6  1  0
  9  8  1  0
 10  9  1  0
 11 10  1  0
 11 12  1  0
 12  8  1  0
 13 22  1  0
 12 13  1  1
 14 13  2  0
 16 15  1  0
 17 16  2  0
 18 17  1  0
 19 25  1  0
 19 18  2  0
 21 20  1  1
 20 19  1  0
 21 22  1  0
 23 21  1  0
 24 23  1  0
 25 26  2  0
 26 16  1  0
 27 23  2  0
M  END
$$$$
