TPY.pdb
     RDKit          3D

 27 28  0  0  1  0  0  0  0  0999 V2000
   26.1315  -15.6424  -15.6568 C   0  0  0  0  0  0  0  0  0  0  0  0
   25.9560  -16.9654  -14.9682 C   0  0  1  0  0  0  0  0  0  0  0  0
   24.6180  -17.0739  -14.5926 O   0  0  0  0  0  0  0  0  0  0  0  0
   26.2218  -18.1283  -15.9216 C   0  0  2  0  0  0  0  0  0  0  0  0
   25.3183  -18.0280  -17.0160 N   0  0  0  0  0  0  0  0  0  0  0  0
   26.2286  -19.4099  -15.2427 C   0  0  0  0  0  0  0  0  0  0  0  0
   25.1358  -20.0133  -15.0948 O   0  0  0  0  0  0  0  0  0  0  0  0
   27.4008  -20.0287  -14.7333 N   0  0  0  0  0  0  0  0  0  0  0  0
   28.7415  -19.5995  -14.9669 C   0  0  0  0  0  0  0  0  0  0  0  0
   29.5231  -20.0970  -13.7576 C   0  0  0  0  0  0  0  0  0  0  0  0
   28.8806  -21.4835  -13.6141 C   0  0  0  0  0  0  0  0  0  0  0  0
   27.4353  -21.2319  -13.9146 C   0  0  1  0  0  0  0  0  0  0  0  0
   26.6240  -21.0644  -12.6783 C   0  0  0  0  0  0  0  0  0  0  0  0
   27.1431  -20.8223  -11.5498 O   0  0  0  0  0  0  0  0  0  0  0  0
   27.4865  -20.3765   -6.0581 O   0  0  0  0  0  0  0  0  0  0  0  0
   26.8088  -20.1402   -7.2609 C   0  0  0  0  0  0  0  0  0  0  0  0
   26.4105  -21.2280   -8.0127 C   0  0  0  0  0  0  0  0  0  0  0  0
   25.7414  -21.0573   -9.2027 C   0  0  0  0  0  0  0  0  0  0  0  0
   25.4546  -19.7965   -9.6690 C   0  0  0  0  0  0  0  0  0  0  0  0
   24.7362  -19.6559  -10.9580 C   0  0  0  0  0  0  0  0  0  0  0  0
   24.3494  -20.9873  -11.5708 C   0  0  2  0  0  0  0  0  0  0  0  0
   25.2215  -21.1731  -12.7287 N   0  0  0  0  0  0  0  0  0  0  0  0
   22.9286  -21.0660  -11.9450 C   0  0  0  0  0  0  0  0  0  0  0  0
   22.5424  -21.2098  -13.2678 O   0  0  0  0  0  0  0  0  0  0  0  0
   25.8533  -18.7172   -8.9175 C   0  0  0  0  0  0  0  0  0  0  0  0
   26.5178  -18.8913   -7.7358 C   0  0  0  0  0  0  0  0  0  0  0  0
   21.9895  -21.0078  -11.0962 O   0  0  0  0  0  0  0  0  0  0  0  0
  2  1  1  6
  2  3  1  0
  4  2  1  0
  4  5  1  6
  6  7  2  0
  6  4  1  0
  8  6  1  0
  9  8  1  0
 10  9  1  0
 11 10  1  0
 11 12  1  0
 12  8  1  0
 13 22  1  0
 12 13  1  1
 14 13  2  0
 16 15  1  0
 17 16  2  0
 18 17  1  0
 19 25  1  0
 19 18  2  0
 21 20  1  6
 20 19  1  0
 21 22  1  0
 23 21  1  0
 24 23  1  0
 25 26  2  0
 26 16  1  0
 27 23  2  0
M  END
$$$$
