TPY.pdb
     RDKit          3D

 27 28  0  0  1  0  0  0  0  0999 V2000
   23.3161  -19.8364  -14.9380 C   0  0  0  0  0  0  0  0  0  0  0  0
   23.5461  -21.0021  -15.8565 C   0  0  1  0  0  0  0  0  0  0  0  0
   22.8853  -20.7349  -17.0544 O   0  0  0  0  0  0  0  0  0  0  0  0
   25.0240  -21.1459  -16.2132 C   0  0  2  0  0  0  0  0  0  0  0  0
   25.1465  -22.1294  -17.2339 N   0  0  0  0  0  0  0  0  0  0  0  0
   25.8564  -21.3619  -15.0453 C   0  0  0  0  0  0  0  0  0  0  0  0
   25.7265  -22.4388  -14.4101 O   0  0  0  0  0  0  0  0  0  0  0  0
   26.8155  -20.4267  -14.5740 N   0  0  0  0  0  0  0  0  0  0  0  0
   27.2837  -19.2802  -15.2830 C   0  0  0  0  0  0  0  0  0  0  0  0
   27.7161  -18.3037  -14.1966 C   0  0  0  0  0  0  0  0  0  0  0  0
   28.4010  -19.2950  -13.2457 C   0  0  0  0  0  0  0  0  0  0  0  0
   27.5137  -20.5002  -13.2988 C   0  0  1  0  0  0  0  0  0  0  0  0
   26.5542  -20.5433  -12.1622 C   0  0  0  0  0  0  0  0  0  0  0  0
   25.3892  -20.0543  -12.2344 O   0  0  0  0  0  0  0  0  0  0  0  0
   29.0172  -18.2398   -5.0886 O   0  0  0  0  0  0  0  0  0  0  0  0
   28.4190  -19.1494   -5.9700 C   0  0  0  0  0  0  0  0  0  0  0  0
   29.2384  -19.9717   -6.7181 C   0  0  0  0  0  0  0  0  0  0  0  0
   28.7075  -20.8844   -7.6002 C   0  0  0  0  0  0  0  0  0  0  0  0
   27.3464  -20.9969   -7.7553 C   0  0  0  0  0  0  0  0  0  0  0  0
   26.8151  -21.9895   -8.7195 C   0  0  0  0  0  0  0  0  0  0  0  0
   25.9996  -21.3599   -9.8315 C   0  0  2  0  0  0  0  0  0  0  0  0
   26.9228  -21.1437  -10.9435 N   0  0  0  0  0  0  0  0  0  0  0  0
   25.3334  -20.1107   -9.4303 C   0  0  0  0  0  0  0  0  0  0  0  0
   24.0345  -20.1137   -8.9479 O   0  0  0  0  0  0  0  0  0  0  0  0
   26.5352  -20.1762   -7.0089 C   0  0  0  0  0  0  0  0  0  0  0  0
   27.0668  -19.2708   -6.1337 C   0  0  0  0  0  0  0  0  0  0  0  0
   25.8963  -18.9777   -9.5006 O   0  0  0  0  0  0  0  0  0  0  0  0
  2  1  1  1
  2  3  1  0
  4  2  1  0
  4  5  1  6
  6  7  2  0
  6  4  1  0
  8  6  1  0
  9  8  1  0
 10  9  1  0
 11 10  1  0
 11 12  1  0
 12  8  1  0
 13 22  1  0
 12 13  1  1
 14 13  2  0
 16 15  1  0
 17 16  2  0
 18 17  1  0
 19 25  1  0
 19 18  2  0
 21 20  1  1
 20 19  1  0
 21 22  1  0
 23 21  1  0
 24 23  1  0
 25 26  2  0
 26 16  1  0
 27 23  2  0
M  END
$$$$
