TPY.pdb
     RDKit          3D

 27 28  0  0  1  0  0  0  0  0999 V2000
   25.6817  -16.5150  -15.2647 C   0  0  0  0  0  0  0  0  0  0  0  0
   24.7062  -17.2469  -16.1411 C   0  0  1  0  0  0  0  0  0  0  0  0
   24.4687  -16.4560  -17.2641 O   0  0  0  0  0  0  0  0  0  0  0  0
   25.2996  -18.5534  -16.6635 C   0  0  2  0  0  0  0  0  0  0  0  0
   24.4494  -19.0557  -17.6876 N   0  0  0  0  0  0  0  0  0  0  0  0
   25.6006  -19.4895  -15.5973 C   0  0  0  0  0  0  0  0  0  0  0  0
   24.6426  -20.0294  -14.9883 O   0  0  0  0  0  0  0  0  0  0  0  0
   26.9185  -19.8365  -15.1983 N   0  0  0  0  0  0  0  0  0  0  0  0
   28.1192  -19.4887  -15.8867 C   0  0  0  0  0  0  0  0  0  0  0  0
   29.1930  -19.4705  -14.8062 C   0  0  0  0  0  0  0  0  0  0  0  0
   28.7625  -20.7183  -14.0230 C   0  0  0  0  0  0  0  0  0  0  0  0
   27.2670  -20.6404  -14.0358 C   0  0  1  0  0  0  0  0  0  0  0  0
   26.7237  -20.0424  -12.7862 C   0  0  0  0  0  0  0  0  0  0  0  0
   26.8763  -18.8209  -12.4924 O   0  0  0  0  0  0  0  0  0  0  0  0
   19.8786  -21.0071  -13.4003 O   0  0  0  0  0  0  0  0  0  0  0  0
   21.0669  -20.5641  -12.8056 C   0  0  0  0  0  0  0  0  0  0  0  0
   21.1677  -20.6119  -11.4291 C   0  0  0  0  0  0  0  0  0  0  0  0
   22.3105  -20.1902  -10.7895 C   0  0  0  0  0  0  0  0  0  0  0  0
   23.3787  -19.7114  -11.5097 C   0  0  0  0  0  0  0  0  0  0  0  0
   24.5897  -19.2627  -10.7821 C   0  0  0  0  0  0  0  0  0  0  0  0
   25.5896  -20.3778  -10.5484 C   0  0  2  0  0  0  0  0  0  0  0  0
   26.0068  -20.8368  -11.8716 N   0  0  0  0  0  0  0  0  0  0  0  0
   25.0527  -21.4816   -9.7369 C   0  0  0  0  0  0  0  0  0  0  0  0
   25.0063  -22.7762  -10.2283 O   0  0  0  0  0  0  0  0  0  0  0  0
   23.2736  -19.6656  -12.8793 C   0  0  0  0  0  0  0  0  0  0  0  0
   22.1364  -20.0856  -13.5107 C   0  0  0  0  0  0  0  0  0  0  0  0
   24.6081  -21.3182   -8.5616 O   0  0  0  0  0  0  0  0  0  0  0  0
  2  1  1  1
  2  3  1  0
  4  2  1  0
  4  5  1  6
  6  7  2  0
  6  4  1  0
  8  6  1  0
  9  8  1  0
 10  9  1  0
 11 10  1  0
 11 12  1  0
 12  8  1  0
 13 22  1  0
 12 13  1  1
 14 13  2  0
 16 15  1  0
 17 16  2  0
 18 17  1  0
 19 25  1  0
 19 18  2  0
 21 20  1  6
 20 19  1  0
 21 22  1  0
 23 21  1  0
 24 23  1  0
 25 26  2  0
 26 16  1  0
 27 23  2  0
M  END
$$$$
