TPY.pdb
     RDKit          3D

 27 28  0  0  1  0  0  0  0  0999 V2000
   27.6022  -16.8928  -15.5512 C   0  0  0  0  0  0  0  0  0  0  0  0
   26.5062  -17.7987  -15.0678 C   0  0  1  0  0  0  0  0  0  0  0  0
   25.3456  -17.4706  -15.7665 O   0  0  0  0  0  0  0  0  0  0  0  0
   26.8025  -19.2585  -15.4042 C   0  0  2  0  0  0  0  0  0  0  0  0
   26.9269  -19.3782  -16.8164 N   0  0  0  0  0  0  0  0  0  0  0  0
   25.8577  -20.1708  -14.7887 C   0  0  0  0  0  0  0  0  0  0  0  0
   24.7691  -20.3904  -15.3776 O   0  0  0  0  0  0  0  0  0  0  0  0
   26.0893  -20.8357  -13.5555 N   0  0  0  0  0  0  0  0  0  0  0  0
   27.3222  -20.8596  -12.8373 C   0  0  0  0  0  0  0  0  0  0  0  0
   26.9188  -21.0711  -11.3836 C   0  0  0  0  0  0  0  0  0  0  0  0
   25.8126  -22.1140  -11.5938 C   0  0  0  0  0  0  0  0  0  0  0  0
   25.1154  -21.6395  -12.8313 C   0  0  1  0  0  0  0  0  0  0  0  0
   23.8919  -20.8514  -12.5212 C   0  0  0  0  0  0  0  0  0  0  0  0
   23.9157  -19.8095  -11.8032 O   0  0  0  0  0  0  0  0  0  0  0  0
   21.1035  -18.9091  -18.9633 O   0  0  0  0  0  0  0  0  0  0  0  0
   21.2807  -18.9662  -17.5750 C   0  0  0  0  0  0  0  0  0  0  0  0
   20.1574  -19.0063  -16.7726 C   0  0  0  0  0  0  0  0  0  0  0  0
   20.2697  -19.0629  -15.4025 C   0  0  0  0  0  0  0  0  0  0  0  0
   21.5061  -19.0810  -14.8024 C   0  0  0  0  0  0  0  0  0  0  0  0
   21.5835  -19.1376  -13.3232 C   0  0  0  0  0  0  0  0  0  0  0  0
   21.3929  -20.5366  -12.7716 C   0  0  2  0  0  0  0  0  0  0  0  0
   22.6414  -21.2512  -13.0292 N   0  0  0  0  0  0  0  0  0  0  0  0
   20.2374  -21.2394  -13.3512 C   0  0  0  0  0  0  0  0  0  0  0  0
   20.4070  -22.3428  -14.1718 O   0  0  0  0  0  0  0  0  0  0  0  0
   22.6209  -19.0406  -15.6051 C   0  0  0  0  0  0  0  0  0  0  0  0
   22.5049  -18.9844  -16.9659 C   0  0  0  0  0  0  0  0  0  0  0  0
   19.0395  -20.8846  -13.1393 O   0  0  0  0  0  0  0  0  0  0  0  0
  2  1  1  6
  2  3  1  0
  4  2  1  0
  4  5  1  6
  6  7  2  0
  6  4  1  0
  8  6  1  0
  9  8  1  0
 10  9  1  0
 11 10  1  0
 11 12  1  0
 12  8  1  0
 13 22  1  0
 12 13  1  1
 14 13  2  0
 16 15  1  0
 17 16  2  0
 18 17  1  0
 19 25  1  0
 19 18  2  0
 21 20  1  6
 20 19  1  0
 21 22  1  0
 23 21  1  0
 24 23  1  0
 25 26  2  0
 26 16  1  0
 27 23  2  0
M  END
$$$$
