TPY.pdb
     RDKit          3D

 27 28  0  0  1  0  0  0  0  0999 V2000
   28.2831  -30.6448  -19.5564 C   0  0  0  0  0  0  0  0  0  0  0  0
   28.3444  -31.6096  -18.4071 C   0  0  1  0  0  0  0  0  0  0  0  0
   29.2277  -32.6297  -18.7564 O   0  0  0  0  0  0  0  0  0  0  0  0
   28.9314  -30.9522  -17.1600 C   0  0  2  0  0  0  0  0  0  0  0  0
   29.0889  -31.9497  -16.1578 N   0  0  0  0  0  0  0  0  0  0  0  0
   28.1847  -29.7784  -16.7499 C   0  0  0  0  0  0  0  0  0  0  0  0
   27.0708  -29.9440  -16.1913 O   0  0  0  0  0  0  0  0  0  0  0  0
   28.6382  -28.4463  -16.9406 N   0  0  0  0  0  0  0  0  0  0  0  0
   29.9241  -28.0624  -17.4259 C   0  0  0  0  0  0  0  0  0  0  0  0
   29.7041  -26.6980  -18.0668 C   0  0  0  0  0  0  0  0  0  0  0  0
   28.7604  -26.0930  -17.0184 C   0  0  0  0  0  0  0  0  0  0  0  0
   27.8789  -27.2420  -16.6370 C   0  0  1  0  0  0  0  0  0  0  0  0
   26.5832  -27.2245  -17.3684 C   0  0  0  0  0  0  0  0  0  0  0  0
   26.4489  -27.7104  -18.5293 O   0  0  0  0  0  0  0  0  0  0  0  0
   17.7966  -26.4173  -18.3417 O   0  0  0  0  0  0  0  0  0  0  0  0
   19.1045  -26.4433  -17.8408 C   0  0  0  0  0  0  0  0  0  0  0  0
   19.8014  -27.6345  -17.8914 C   0  0  0  0  0  0  0  0  0  0  0  0
   21.0891  -27.7203  -17.4144 C   0  0  0  0  0  0  0  0  0  0  0  0
   21.7102  -26.6186  -16.8762 C   0  0  0  0  0  0  0  0  0  0  0  0
   23.0964  -26.7543  -16.3691 C   0  0  0  0  0  0  0  0  0  0  0  0
   24.1450  -26.5492  -17.4444 C   0  0  2  0  0  0  0  0  0  0  0  0
   25.4408  -26.6530  -16.7768 N   0  0  0  0  0  0  0  0  0  0  0  0
   24.0050  -25.2705  -18.1588 C   0  0  0  0  0  0  0  0  0  0  0  0
   23.2161  -25.1655  -19.2930 O   0  0  0  0  0  0  0  0  0  0  0  0
   21.0124  -25.4356  -16.8277 C   0  0  0  0  0  0  0  0  0  0  0  0
   19.7333  -25.3548  -17.3028 C   0  0  0  0  0  0  0  0  0  0  0  0
   24.5867  -24.2078  -17.7874 O   0  0  0  0  0  0  0  0  0  0  0  0
  2  1  1  6
  2  3  1  0
  4  2  1  0
  4  5  1  1
  6  7  2  0
  6  4  1  0
  8  6  1  0
  9  8  1  0
 10  9  1  0
 11 10  1  0
 11 12  1  0
 12  8  1  0
 13 22  1  0
 12 13  1  6
 14 13  2  0
 16 15  1  0
 17 16  2  0
 18 17  1  0
 19 25  1  0
 19 18  2  0
 21 20  1  1
 20 19  1  0
 21 22  1  0
 23 21  1  0
 24 23  1  0
 25 26  2  0
 26 16  1  0
 27 23  2  0
M  END
$$$$
