TPY.pdb
     RDKit          3D

 27 28  0  0  1  0  0  0  0  0999 V2000
   19.0527  -11.9358  -19.4592 C   0  0  0  0  0  0  0  0  0  0  0  0
   19.5013  -11.0723  -18.3152 C   0  0  1  0  0  0  0  0  0  0  0  0
   18.4589  -10.1990  -18.0089 O   0  0  0  0  0  0  0  0  0  0  0  0
   19.7421  -11.9000  -17.0547 C   0  0  2  0  0  0  0  0  0  0  0  0
   18.6105  -12.7359  -16.8428 N   0  0  0  0  0  0  0  0  0  0  0  0
   20.1256  -11.0816  -15.9204 C   0  0  0  0  0  0  0  0  0  0  0  0
   19.2255  -10.4612  -15.2999 O   0  0  0  0  0  0  0  0  0  0  0  0
   21.4629  -10.9389  -15.4645 N   0  0  0  0  0  0  0  0  0  0  0  0
   22.5862  -11.6918  -15.9202 C   0  0  0  0  0  0  0  0  0  0  0  0
   23.7841  -10.7810  -15.6831 C   0  0  0  0  0  0  0  0  0  0  0  0
   23.3892  -10.2227  -14.3090 C   0  0  0  0  0  0  0  0  0  0  0  0
   21.9095  -10.0232  -14.4248 C   0  0  1  0  0  0  0  0  0  0  0  0
   21.5554   -8.6169  -14.7584 C   0  0  0  0  0  0  0  0  0  0  0  0
   21.1278   -8.2737  -15.8990 O   0  0  0  0  0  0  0  0  0  0  0  0
   17.1228   -7.1320   -9.2288 O   0  0  0  0  0  0  0  0  0  0  0  0
   17.7929   -6.8480  -10.4255 C   0  0  0  0  0  0  0  0  0  0  0  0
   17.8797   -7.8430  -11.3794 C   0  0  0  0  0  0  0  0  0  0  0  0
   18.5258   -7.6219  -12.5738 C   0  0  0  0  0  0  0  0  0  0  0  0
   19.0997   -6.4024  -12.8431 C   0  0  0  0  0  0  0  0  0  0  0  0
   19.7905   -6.2067  -14.1399 C   0  0  0  0  0  0  0  0  0  0  0  0
   21.3012   -6.2109  -14.0148 C   0  0  2  0  0  0  0  0  0  0  0  0
   21.6890   -7.6021  -13.7920 N   0  0  0  0  0  0  0  0  0  0  0  0
   21.8000   -5.3319  -12.9455 C   0  0  0  0  0  0  0  0  0  0  0  0
   21.7063   -3.9534  -13.0483 O   0  0  0  0  0  0  0  0  0  0  0  0
   19.0110   -5.4156  -11.8907 C   0  0  0  0  0  0  0  0  0  0  0  0
   18.3681   -5.6394  -10.7054 C   0  0  0  0  0  0  0  0  0  0  0  0
   22.3359   -5.7739  -11.8857 O   0  0  0  0  0  0  0  0  0  0  0  0
  2  1  1  6
  2  3  1  0
  4  2  1  0
  4  5  1  1
  6  7  2  0
  6  4  1  0
  8  6  1  0
  9  8  1  0
 10  9  1  0
 11 10  1  0
 11 12  1  0
 12  8  1  0
 13 22  1  0
 12 13  1  6
 14 13  2  0
 16 15  1  0
 17 16  2  0
 18 17  1  0
 19 25  1  0
 19 18  2  0
 21 20  1  1
 20 19  1  0
 21 22  1  0
 23 21  1  0
 24 23  1  0
 25 26  2  0
 26 16  1  0
 27 23  2  0
M  END
$$$$
