YCA.pdb
     RDKit          3D

 24 24  0  0  1  0  0  0  0  0999 V2000
   15.9383  -13.4268  -19.4205 O   0  0  0  0  0  0  0  0  0  0  0  0
   16.4547  -12.5027  -18.4942 C   0  0  0  0  0  0  0  0  0  0  0  0
   16.6845  -11.2032  -18.8948 C   0  0  0  0  0  0  0  0  0  0  0  0
   17.1924  -10.2846  -17.9923 C   0  0  0  0  0  0  0  0  0  0  0  0
   17.4816  -10.6357  -16.6790 C   0  0  0  0  0  0  0  0  0  0  0  0
   18.0295   -9.6248  -15.7244 C   0  0  0  0  0  0  0  0  0  0  0  0
   19.5003   -9.4630  -16.0317 C   0  0  2  0  0  0  0  0  0  0  0  0
   20.1640  -10.6765  -15.6506 N   0  0  0  0  0  0  0  0  0  0  0  0
   20.0775   -8.2585  -15.3929 C   0  0  0  0  0  0  0  0  0  0  0  0
   20.3156   -8.2893  -14.1587 O   0  0  0  0  0  0  0  0  0  0  0  0
   17.2385  -11.9445  -16.3155 C   0  0  0  0  0  0  0  0  0  0  0  0
   16.7301  -12.8803  -17.2037 C   0  0  0  0  0  0  0  0  0  0  0  0
   20.3855   -7.0617  -16.0715 N   0  0  0  0  0  0  0  0  0  0  0  0
   20.9506   -5.8876  -15.5000 C   0  0  1  0  0  0  0  0  0  0  0  0
   22.4433   -5.7884  -15.6262 C   0  0  0  0  0  0  0  0  0  0  0  0
   23.3225   -7.1435  -14.8647 S   0  0  0  0  0  0  0  0  0  0  0  0
   20.2697   -4.6615  -15.9851 C   0  0  0  0  0  0  0  0  0  0  0  0
   20.2478   -4.4578  -17.2251 O   0  0  0  0  0  0  0  0  0  0  0  0
   17.8187   -2.1466  -14.6477 C   0  0  0  0  0  0  0  0  0  0  0  0
   18.9116   -2.5817  -15.5845 C   0  0  2  0  0  0  0  0  0  0  0  0
   19.6507   -3.7231  -15.1153 N   0  0  0  0  0  0  0  0  0  0  0  0
   19.7989   -1.4558  -15.9713 C   0  0  0  0  0  0  0  0  0  0  0  0
   20.9492   -1.4205  -15.4689 O   0  0  0  0  0  0  0  0  0  0  0  0
   19.4181   -0.4694  -16.8410 O   0  0  0  0  0  0  0  0  0  0  0  0
  1  2  1  0
  2  3  2  0
  3  4  1  0
  5  4  2  0
  5  6  1  0
  6  7  1  0
  7  8  1  1
  9  7  1  0
  9 13  1  0
 10  9  2  0
 11  5  1  0
 12  2  1  0
 12 11  2  0
 14 13  1  0
 14 17  1  0
 14 15  1  6
 16 15  1  0
 17 18  2  0
 20 19  1  1
 21 17  1  0
 21 20  1  0
 22 20  1  0
 22 24  1  0
 23 22  2  0
M  END
$$$$
