YCA.pdb
     RDKit          3D

 24 24  0  0  1  0  0  0  0  0999 V2000
   22.0542  -15.5280  -20.3421 O   0  0  0  0  0  0  0  0  0  0  0  0
   21.9346  -16.4662  -19.3008 C   0  0  0  0  0  0  0  0  0  0  0  0
   21.5992  -16.0306  -18.0359 C   0  0  0  0  0  0  0  0  0  0  0  0
   21.4785  -16.9443  -17.0031 C   0  0  0  0  0  0  0  0  0  0  0  0
   21.6874  -18.3037  -17.2037 C   0  0  0  0  0  0  0  0  0  0  0  0
   21.5509  -19.2695  -16.0715 C   0  0  0  0  0  0  0  0  0  0  0  0
   22.8905  -19.3435  -15.3760 C   0  0  2  0  0  0  0  0  0  0  0  0
   23.8583  -19.7932  -16.3349 N   0  0  0  0  0  0  0  0  0  0  0  0
   22.8443  -20.1837  -14.1578 C   0  0  0  0  0  0  0  0  0  0  0  0
   23.9230  -20.4426  -13.5658 O   0  0  0  0  0  0  0  0  0  0  0  0
   22.0212  -18.7012  -18.4823 C   0  0  0  0  0  0  0  0  0  0  0  0
   22.1473  -17.8025  -19.5309 C   0  0  0  0  0  0  0  0  0  0  0  0
   21.6668  -20.7241  -13.6017 N   0  0  0  0  0  0  0  0  0  0  0  0
   21.2632  -20.6476  -12.2395 C   0  0  1  0  0  0  0  0  0  0  0  0
   21.2526  -19.2590  -11.6689 C   0  0  0  0  0  0  0  0  0  0  0  0
   21.0937  -19.2118   -9.8908 S   0  0  0  0  0  0  0  0  0  0  0  0
   19.9773  -21.3520  -12.0102 C   0  0  0  0  0  0  0  0  0  0  0  0
   19.5188  -21.3639  -10.8400 O   0  0  0  0  0  0  0  0  0  0  0  0
   18.2926  -23.9337  -11.8593 C   0  0  0  0  0  0  0  0  0  0  0  0
   18.0736  -22.7895  -12.8102 C   0  0  2  0  0  0  0  0  0  0  0  0
   19.2552  -22.0038  -13.0465 N   0  0  0  0  0  0  0  0  0  0  0  0
   16.9093  -21.9538  -12.4222 C   0  0  0  0  0  0  0  0  0  0  0  0
   17.1075  -20.7280  -12.2353 O   0  0  0  0  0  0  0  0  0  0  0  0
   15.6470  -22.4594  -12.2625 O   0  0  0  0  0  0  0  0  0  0  0  0
  1  2  1  0
  2  3  2  0
  3  4  1  0
  5  4  2  0
  5  6  1  0
  6  7  1  0
  7  8  1  6
  9  7  1  0
  9 13  1  0
 10  9  2  0
 11  5  1  0
 12  2  1  0
 12 11  2  0
 14 13  1  0
 14 17  1  0
 14 15  1  6
 16 15  1  0
 17 18  2  0
 20 19  1  1
 21 17  1  0
 21 20  1  0
 22 20  1  0
 22 24  1  0
 23 22  2  0
M  END
$$$$
