YCA.pdb
     RDKit          3D

 24 24  0  0  1  0  0  0  0  0999 V2000
   28.8711  -19.0926   -3.5296 O   0  0  0  0  0  0  0  0  0  0  0  0
   28.3148  -19.5946   -4.7201 C   0  0  0  0  0  0  0  0  0  0  0  0
   29.0488  -19.5323   -5.8861 C   0  0  0  0  0  0  0  0  0  0  0  0
   28.5120  -20.0231   -7.0639 C   0  0  0  0  0  0  0  0  0  0  0  0
   27.2408  -20.5834   -7.1084 C   0  0  0  0  0  0  0  0  0  0  0  0
   26.6845  -21.1059   -8.3932 C   0  0  0  0  0  0  0  0  0  0  0  0
   25.9093  -19.9819   -9.0409 C   0  0  2  0  0  0  0  0  0  0  0  0
   24.6258  -19.9103   -8.4037 N   0  0  0  0  0  0  0  0  0  0  0  0
   25.8215  -20.1354  -10.5109 C   0  0  0  0  0  0  0  0  0  0  0  0
   24.7240  -20.4878  -11.0132 O   0  0  0  0  0  0  0  0  0  0  0  0
   26.5372  -20.6280   -5.9222 C   0  0  0  0  0  0  0  0  0  0  0  0
   27.0562  -20.1421   -4.7315 C   0  0  0  0  0  0  0  0  0  0  0  0
   26.8892  -19.9138  -11.4045 N   0  0  0  0  0  0  0  0  0  0  0  0
   26.8101  -19.8835  -12.8248 C   0  0  1  0  0  0  0  0  0  0  0  0
   28.0773  -19.4636  -13.5116 C   0  0  0  0  0  0  0  0  0  0  0  0
   28.0222  -19.6276  -15.2889 S   0  0  0  0  0  0  0  0  0  0  0  0
   26.2791  -21.1576  -13.3697 C   0  0  0  0  0  0  0  0  0  0  0  0
   26.8552  -22.2222  -13.0315 O   0  0  0  0  0  0  0  0  0  0  0  0
   23.2564  -22.3232  -15.3473 C   0  0  0  0  0  0  0  0  0  0  0  0
   24.6392  -22.4531  -14.7708 C   0  0  2  0  0  0  0  0  0  0  0  0
   25.1616  -21.2199  -14.2458 N   0  0  0  0  0  0  0  0  0  0  0  0
   25.5803  -23.1073  -15.7147 C   0  0  0  0  0  0  0  0  0  0  0  0
   26.3467  -22.3683  -16.3804 O   0  0  0  0  0  0  0  0  0  0  0  0
   25.6444  -24.4643  -15.8852 O   0  0  0  0  0  0  0  0  0  0  0  0
  1  2  1  0
  2  3  2  0
  3  4  1  0
  5  4  2  0
  5  6  1  0
  6  7  1  0
  7  8  1  1
  9  7  1  0
  9 13  1  0
 10  9  2  0
 11  5  1  0
 12  2  1  0
 12 11  2  0
 14 13  1  0
 14 17  1  0
 14 15  1  6
 16 15  1  0
 17 18  2  0
 20 19  1  6
 21 17  1  0
 21 20  1  0
 22 20  1  0
 22 24  1  0
 23 22  2  0
M  END
$$$$
