YCA.pdb
     RDKit          3D

 24 24  0  0  1  0  0  0  0  0999 V2000
   18.3798  -13.5703  -22.4122 O   0  0  0  0  0  0  0  0  0  0  0  0
   18.2443  -12.7403  -21.2846 C   0  0  0  0  0  0  0  0  0  0  0  0
   18.9220  -11.5398  -21.2456 C   0  0  0  0  0  0  0  0  0  0  0  0
   18.7965  -10.7145  -20.1413 C   0  0  0  0  0  0  0  0  0  0  0  0
   17.9989  -11.0624  -19.0576 C   0  0  0  0  0  0  0  0  0  0  0  0
   17.8807  -10.1534  -17.8773 C   0  0  0  0  0  0  0  0  0  0  0  0
   19.1436  -10.3050  -17.0612 C   0  0  2  0  0  0  0  0  0  0  0  0
   19.1038  -11.5909  -16.4263 N   0  0  0  0  0  0  0  0  0  0  0  0
   19.3310   -9.1896  -16.1057 C   0  0  0  0  0  0  0  0  0  0  0  0
   18.6848   -9.2080  -15.0272 O   0  0  0  0  0  0  0  0  0  0  0  0
   17.3368  -12.2707  -19.1332 C   0  0  0  0  0  0  0  0  0  0  0  0
   17.4487  -13.1122  -20.2298 C   0  0  0  0  0  0  0  0  0  0  0  0
   20.1909   -8.0920  -16.3145 N   0  0  0  0  0  0  0  0  0  0  0  0
   20.4451   -7.0318  -15.4004 C   0  0  1  0  0  0  0  0  0  0  0  0
   21.7830   -7.0996  -14.7226 C   0  0  0  0  0  0  0  0  0  0  0  0
   21.9652   -8.4972  -13.6260 S   0  0  0  0  0  0  0  0  0  0  0  0
   20.2036   -5.7055  -16.0209 C   0  0  0  0  0  0  0  0  0  0  0  0
   20.8097   -5.4423  -17.0900 O   0  0  0  0  0  0  0  0  0  0  0  0
   17.8429   -2.7757  -15.5782 C   0  0  0  0  0  0  0  0  0  0  0  0
   19.1071   -3.4412  -16.0478 C   0  0  2  0  0  0  0  0  0  0  0  0
   19.3270   -4.7364  -15.4619 N   0  0  0  0  0  0  0  0  0  0  0  0
   20.2900   -2.5539  -15.9142 C   0  0  0  0  0  0  0  0  0  0  0  0
   21.1022   -2.7999  -14.9887 O   0  0  0  0  0  0  0  0  0  0  0  0
   20.5267   -1.4939  -16.7479 O   0  0  0  0  0  0  0  0  0  0  0  0
  1  2  1  0
  2  3  2  0
  3  4  1  0
  5  4  2  0
  5  6  1  0
  6  7  1  0
  7  8  1  1
  9  7  1  0
  9 13  1  0
 10  9  2  0
 11  5  1  0
 12  2  1  0
 12 11  2  0
 14 13  1  0
 14 17  1  0
 14 15  1  6
 16 15  1  0
 17 18  2  0
 20 19  1  1
 21 17  1  0
 21 20  1  0
 22 20  1  0
 22 24  1  0
 23 22  2  0
M  END
$$$$
