YCA.pdb
     RDKit          3D

 24 24  0  0  1  0  0  0  0  0999 V2000
   18.8956  -15.3938  -22.3202 O   0  0  0  0  0  0  0  0  0  0  0  0
   18.9912  -14.7934  -21.0516 C   0  0  0  0  0  0  0  0  0  0  0  0
   18.5348  -13.5033  -20.8801 C   0  0  0  0  0  0  0  0  0  0  0  0
   18.6235  -12.9019  -19.6365 C   0  0  0  0  0  0  0  0  0  0  0  0
   19.1648  -13.5659  -18.5421 C   0  0  0  0  0  0  0  0  0  0  0  0
   19.2491  -12.8937  -17.2100 C   0  0  0  0  0  0  0  0  0  0  0  0
   20.6558  -12.3622  -17.0597 C   0  0  2  0  0  0  0  0  0  0  0  0
   21.4902  -13.4460  -16.6266 N   0  0  0  0  0  0  0  0  0  0  0  0
   20.7179  -11.1856  -16.1631 C   0  0  0  0  0  0  0  0  0  0  0  0
   20.5284  -11.3582  -14.9321 O   0  0  0  0  0  0  0  0  0  0  0  0
   19.6106  -14.8547  -18.7526 C   0  0  0  0  0  0  0  0  0  0  0  0
   19.5310  -15.4757  -19.9901 C   0  0  0  0  0  0  0  0  0  0  0  0
   20.9770   -9.8668  -16.5891 N   0  0  0  0  0  0  0  0  0  0  0  0
   21.0457   -8.7101  -15.7633 C   0  0  1  0  0  0  0  0  0  0  0  0
   22.3835   -8.0291  -15.7533 C   0  0  0  0  0  0  0  0  0  0  0  0
   23.6890   -9.0154  -15.0377 S   0  0  0  0  0  0  0  0  0  0  0  0
   19.9423   -7.7624  -16.0576 C   0  0  0  0  0  0  0  0  0  0  0  0
   19.8162   -7.3633  -17.2427 O   0  0  0  0  0  0  0  0  0  0  0  0
   16.6775   -6.7884  -14.5788 C   0  0  0  0  0  0  0  0  0  0  0  0
   17.9145   -6.4453  -15.3620 C   0  0  2  0  0  0  0  0  0  0  0  0
   19.0365   -7.2957  -15.0667 N   0  0  0  0  0  0  0  0  0  0  0  0
   18.2582   -5.0042  -15.2632 C   0  0  0  0  0  0  0  0  0  0  0  0
   17.3844   -4.1712  -15.6087 O   0  0  0  0  0  0  0  0  0  0  0  0
   19.4719   -4.5546  -14.8170 O   0  0  0  0  0  0  0  0  0  0  0  0
  1  2  1  0
  2  3  2  0
  3  4  1  0
  5  4  2  0
  5  6  1  0
  6  7  1  0
  7  8  1  1
  9  7  1  0
  9 13  1  0
 10  9  2  0
 11  5  1  0
 12  2  1  0
 12 11  2  0
 14 13  1  0
 14 17  1  0
 14 15  1  6
 16 15  1  0
 17 18  2  0
 20 19  1  1
 21 17  1  0
 21 20  1  0
 22 20  1  0
 22 24  1  0
 23 22  2  0
M  END
$$$$
