YCA.pdb
     RDKit          3D

 24 24  0  0  1  0  0  0  0  0999 V2000
   20.1676  -22.9411   -7.3982 O   0  0  0  0  0  0  0  0  0  0  0  0
   21.0821  -22.2120   -8.1798 C   0  0  0  0  0  0  0  0  0  0  0  0
   22.0880  -21.5042   -7.5561 C   0  0  0  0  0  0  0  0  0  0  0  0
   22.9939  -20.7830   -8.3146 C   0  0  0  0  0  0  0  0  0  0  0  0
   22.9203  -20.7497   -9.7021 C   0  0  0  0  0  0  0  0  0  0  0  0
   23.9109  -19.9630  -10.4978 C   0  0  0  0  0  0  0  0  0  0  0  0
   24.8635  -20.9479  -11.1353 C   0  0  2  0  0  0  0  0  0  0  0  0
   25.7561  -21.4180  -10.1151 N   0  0  0  0  0  0  0  0  0  0  0  0
   25.5669  -20.3718  -12.3038 C   0  0  0  0  0  0  0  0  0  0  0  0
   26.4095  -19.4594  -12.1073 O   0  0  0  0  0  0  0  0  0  0  0  0
   21.9006  -21.4701  -10.2898 C   0  0  0  0  0  0  0  0  0  0  0  0
   20.9827  -22.1991   -9.5487 C   0  0  0  0  0  0  0  0  0  0  0  0
   25.3621  -20.7729  -13.6398 N   0  0  0  0  0  0  0  0  0  0  0  0
   26.0728  -20.3062  -14.7806 C   0  0  1  0  0  0  0  0  0  0  0  0
   27.0735  -21.2793  -15.3335 C   0  0  0  0  0  0  0  0  0  0  0  0
   28.0357  -22.1132  -14.0814 S   0  0  0  0  0  0  0  0  0  0  0  0
   25.1520  -19.8008  -15.8289 C   0  0  0  0  0  0  0  0  0  0  0  0
   24.0312  -20.3586  -15.9397 O   0  0  0  0  0  0  0  0  0  0  0  0
   25.0128  -16.9079  -18.2899 C   0  0  0  0  0  0  0  0  0  0  0  0
   24.5936  -18.2332  -17.7161 C   0  0  2  0  0  0  0  0  0  0  0  0
   25.4832  -18.7269  -16.6991 N   0  0  0  0  0  0  0  0  0  0  0  0
   24.3296  -19.2426  -18.7725 C   0  0  0  0  0  0  0  0  0  0  0  0
   25.2391  -20.0693  -19.0297 O   0  0  0  0  0  0  0  0  0  0  0  0
   23.1513  -19.3065  -19.4668 O   0  0  0  0  0  0  0  0  0  0  0  0
  1  2  1  0
  2  3  2  0
  3  4  1  0
  5  4  2  0
  5  6  1  0
  6  7  1  0
  7  8  1  1
  9  7  1  0
  9 13  1  0
 10  9  2  0
 11  5  1  0
 12  2  1  0
 12 11  2  0
 14 13  1  0
 14 17  1  0
 14 15  1  6
 16 15  1  0
 17 18  2  0
 20 19  1  6
 21 17  1  0
 21 20  1  0
 22 20  1  0
 22 24  1  0
 23 22  2  0
M  END
$$$$
