YCA.pdb
     RDKit          3D

 24 24  0  0  1  0  0  0  0  0999 V2000
   20.3233  -24.6606  -13.5984 O   0  0  0  0  0  0  0  0  0  0  0  0
   21.2630  -23.6156  -13.5361 C   0  0  0  0  0  0  0  0  0  0  0  0
   20.8307  -22.3359  -13.2579 C   0  0  0  0  0  0  0  0  0  0  0  0
   21.7459  -21.2993  -13.1939 C   0  0  0  0  0  0  0  0  0  0  0  0
   23.1035  -21.5108  -13.4039 C   0  0  0  0  0  0  0  0  0  0  0  0
   24.0709  -20.3742  -13.3294 C   0  0  0  0  0  0  0  0  0  0  0  0
   24.1366  -19.7453  -14.7019 C   0  0  2  0  0  0  0  0  0  0  0  0
   22.7913  -19.5642  -15.1663 N   0  0  0  0  0  0  0  0  0  0  0  0
   24.9750  -20.5282  -15.6380 C   0  0  0  0  0  0  0  0  0  0  0  0
   24.4115  -21.1370  -16.5830 O   0  0  0  0  0  0  0  0  0  0  0  0
   23.4976  -22.8042  -13.6797 C   0  0  0  0  0  0  0  0  0  0  0  0
   22.5974  -23.8568  -13.7484 C   0  0  0  0  0  0  0  0  0  0  0  0
   26.3772  -20.6458  -15.5506 N   0  0  0  0  0  0  0  0  0  0  0  0
   27.2318  -21.2857  -16.4912 C   0  0  1  0  0  0  0  0  0  0  0  0
   28.4790  -20.5190  -16.8235 C   0  0  0  0  0  0  0  0  0  0  0  0
   28.1707  -18.8612  -17.4113 S   0  0  0  0  0  0  0  0  0  0  0  0
   27.5289  -22.6849  -16.0959 C   0  0  0  0  0  0  0  0  0  0  0  0
   28.2466  -22.8646  -15.0798 O   0  0  0  0  0  0  0  0  0  0  0  0
   26.1718  -26.1107  -16.6586 C   0  0  0  0  0  0  0  0  0  0  0  0
   27.3225  -25.1703  -16.4284 C   0  0  2  0  0  0  0  0  0  0  0  0
   27.0409  -23.8124  -16.8105 N   0  0  0  0  0  0  0  0  0  0  0  0
   28.5852  -25.6737  -17.0258 C   0  0  0  0  0  0  0  0  0  0  0  0
   29.0095  -26.7901  -16.6381 O   0  0  0  0  0  0  0  0  0  0  0  0
   29.2945  -24.9789  -17.9685 O   0  0  0  0  0  0  0  0  0  0  0  0
  1  2  1  0
  2  3  2  0
  3  4  1  0
  5  4  2  0
  5  6  1  0
  6  7  1  0
  7  8  1  6
  9  7  1  0
  9 13  1  0
 10  9  2  0
 11  5  1  0
 12  2  1  0
 12 11  2  0
 14 13  1  0
 14 17  1  0
 14 15  1  1
 16 15  1  0
 17 18  2  0
 20 19  1  6
 21 17  1  0
 21 20  1  0
 22 20  1  0
 22 24  1  0
 23 22  2  0
M  END
$$$$
