YCA.pdb
     RDKit          3D

 24 24  0  0  1  0  0  0  0  0999 V2000
   28.1368  -19.6468   -6.0079 O   0  0  0  0  0  0  0  0  0  0  0  0
   27.8313  -19.9095   -7.3557 C   0  0  0  0  0  0  0  0  0  0  0  0
   26.6249  -19.4817   -7.8693 C   0  0  0  0  0  0  0  0  0  0  0  0
   26.3130  -19.7343   -9.1941 C   0  0  0  0  0  0  0  0  0  0  0  0
   27.1885  -20.4139  -10.0329 C   0  0  0  0  0  0  0  0  0  0  0  0
   26.8274  -20.6739  -11.4595 C   0  0  0  0  0  0  0  0  0  0  0  0
   25.5930  -21.5458  -11.4621 C   0  0  2  0  0  0  0  0  0  0  0  0
   25.9783  -22.8528  -11.0133 N   0  0  0  0  0  0  0  0  0  0  0  0
   24.9181  -21.5584  -12.7799 C   0  0  0  0  0  0  0  0  0  0  0  0
   25.1817  -22.4915  -13.5804 O   0  0  0  0  0  0  0  0  0  0  0  0
   28.3852  -20.8260   -9.4831 C   0  0  0  0  0  0  0  0  0  0  0  0
   28.7173  -20.5833   -8.1587 C   0  0  0  0  0  0  0  0  0  0  0  0
   23.9889  -20.5907  -13.2132 N   0  0  0  0  0  0  0  0  0  0  0  0
   23.1746  -20.6628  -14.3777 C   0  0  1  0  0  0  0  0  0  0  0  0
   22.0521  -21.6561  -14.2937 C   0  0  0  0  0  0  0  0  0  0  0  0
   21.5446  -22.0305  -12.6230 S   0  0  0  0  0  0  0  0  0  0  0  0
   22.6984  -19.3208  -14.7955 C   0  0  0  0  0  0  0  0  0  0  0  0
   22.2927  -18.5399  -13.8981 O   0  0  0  0  0  0  0  0  0  0  0  0
   23.0298  -17.0464  -17.7435 C   0  0  0  0  0  0  0  0  0  0  0  0
   22.2745  -17.5722  -16.5542 C   0  0  2  0  0  0  0  0  0  0  0  0
   22.6836  -18.8907  -16.1501 N   0  0  0  0  0  0  0  0  0  0  0  0
   20.8043  -17.4685  -16.7339 C   0  0  0  0  0  0  0  0  0  0  0  0
   20.1632  -18.5317  -16.9222 O   0  0  0  0  0  0  0  0  0  0  0  0
   20.1301  -16.2773  -16.7029 O   0  0  0  0  0  0  0  0  0  0  0  0
  1  2  1  0
  2  3  2  0
  3  4  1  0
  5  4  2  0
  5  6  1  0
  6  7  1  0
  7  8  1  6
  9  7  1  0
  9 13  1  0
 10  9  2  0
 11  5  1  0
 12  2  1  0
 12 11  2  0
 14 13  1  0
 14 17  1  0
 14 15  1  1
 16 15  1  0
 17 18  2  0
 20 19  1  6
 21 17  1  0
 21 20  1  0
 22 20  1  0
 22 24  1  0
 23 22  2  0
M  END
$$$$
