GCY.pdb
     RDKit          3D

 23 23  0  0  1  0  0  0  0  0999 V2000
   26.5414  -20.8292  -17.0535 N   0  0  0  0  0  0  0  0  0  0  0  0
   27.1808  -20.0363  -16.0303 C   0  0  0  0  0  0  0  0  0  0  0  0
   27.3891  -20.7976  -14.7764 C   0  0  0  0  0  0  0  0  0  0  0  0
   26.6958  -21.7722  -14.4552 O   0  0  0  0  0  0  0  0  0  0  0  0
   28.4356  -20.3770  -13.9157 N   0  0  0  0  0  0  0  0  0  0  0  0
   28.5703  -20.9333  -12.5877 C   0  0  1  0  0  0  0  0  0  0  0  0
   29.9650  -20.5992  -12.0720 C   0  0  0  0  0  0  0  0  0  0  0  0
   30.1793  -21.5149  -10.5175 S   0  0  0  0  0  0  0  0  0  0  0  0
   27.5427  -20.3516  -11.6818 C   0  0  0  0  0  0  0  0  0  0  0  0
   27.1947  -19.1560  -11.7889 O   0  0  0  0  0  0  0  0  0  0  0  0
   21.2960  -20.0766  -14.0941 O   0  0  0  0  0  0  0  0  0  0  0  0
   22.1471  -20.4044  -13.0428 C   0  0  0  0  0  0  0  0  0  0  0  0
   21.9554  -19.7922  -11.8329 C   0  0  0  0  0  0  0  0  0  0  0  0
   22.7747  -20.0863  -10.7628 C   0  0  0  0  0  0  0  0  0  0  0  0
   23.8175  -21.0084  -10.8725 C   0  0  0  0  0  0  0  0  0  0  0  0
   24.7009  -21.3124   -9.7297 C   0  0  0  0  0  0  0  0  0  0  0  0
   26.0106  -20.5517   -9.7588 C   0  0  2  0  0  0  0  0  0  0  0  0
   26.9387  -21.1434  -10.6795 N   0  0  0  0  0  0  0  0  0  0  0  0
   26.6632  -20.5025   -8.4299 C   0  0  0  0  0  0  0  0  0  0  0  0
   26.2248  -19.7626   -7.5044 O   0  0  0  0  0  0  0  0  0  0  0  0
   23.9841  -21.6061  -12.1009 C   0  0  0  0  0  0  0  0  0  0  0  0
   23.1645  -21.3172  -13.1852 C   0  0  0  0  0  0  0  0  0  0  0  0
   27.7744  -21.2581   -8.1374 O   0  0  0  0  0  0  0  0  0  0  0  0
  2  1  1  0
  3  2  1  0
  3  5  1  0
  4  3  2  0
  6  5  1  0
  6  7  1  1
  7  8  1  0
  9  6  1  0
  9 18  1  0
 10  9  2  0
 11 12  1  0
 12 22  2  0
 13 14  2  0
 13 12  1  0
 14 15  1  0
 15 16  1  0
 15 21  2  0
 17 18  1  0
 17 16  1  1
 19 17  1  0
 20 19  2  0
 22 21  1  0
 23 19  1  0
M  END
$$$$
