GCY.pdb
     RDKit          3D

 23 23  0  0  1  0  0  0  0  0999 V2000
   29.3923  -23.0653  -16.0691 N   0  0  0  0  0  0  0  0  0  0  0  0
   27.9540  -23.0475  -15.9447 C   0  0  0  0  0  0  0  0  0  0  0  0
   27.4773  -21.9403  -15.0831 C   0  0  0  0  0  0  0  0  0  0  0  0
   28.0225  -20.8290  -15.0486 O   0  0  0  0  0  0  0  0  0  0  0  0
   26.3425  -22.1820  -14.2665 N   0  0  0  0  0  0  0  0  0  0  0  0
   25.7650  -21.1223  -13.4698 C   0  0  1  0  0  0  0  0  0  0  0  0
   24.2645  -21.0923  -13.7353 C   0  0  0  0  0  0  0  0  0  0  0  0
   23.5675  -19.8174  -12.6447 S   0  0  0  0  0  0  0  0  0  0  0  0
   26.0185  -21.3713  -12.0246 C   0  0  0  0  0  0  0  0  0  0  0  0
   25.6331  -22.4268  -11.4773 O   0  0  0  0  0  0  0  0  0  0  0  0
   28.6180  -20.2554   -3.6506 O   0  0  0  0  0  0  0  0  0  0  0  0
   28.3917  -20.0721   -5.0116 C   0  0  0  0  0  0  0  0  0  0  0  0
   29.1108  -20.8264   -5.9000 C   0  0  0  0  0  0  0  0  0  0  0  0
   28.9196  -20.6786   -7.2581 C   0  0  0  0  0  0  0  0  0  0  0  0
   27.9966  -19.7652   -7.7711 C   0  0  0  0  0  0  0  0  0  0  0  0
   27.8025  -19.5996   -9.2250 C   0  0  0  0  0  0  0  0  0  0  0  0
   26.8736  -20.6307   -9.8324 C   0  0  2  0  0  0  0  0  0  0  0  0
   26.7026  -20.4153  -11.2408 N   0  0  0  0  0  0  0  0  0  0  0  0
   25.5306  -20.6165   -9.2078 C   0  0  0  0  0  0  0  0  0  0  0  0
   25.2080  -21.4483   -8.3132 O   0  0  0  0  0  0  0  0  0  0  0  0
   27.2901  -19.0224   -6.8529 C   0  0  0  0  0  0  0  0  0  0  0  0
   27.4748  -19.1634   -5.4829 C   0  0  0  0  0  0  0  0  0  0  0  0
   24.5711  -19.6996   -9.5680 O   0  0  0  0  0  0  0  0  0  0  0  0
  2  1  1  0
  3  2  1  0
  3  5  1  0
  4  3  2  0
  6  5  1  0
  6  7  1  1
  7  8  1  0
  9  6  1  0
  9 18  1  0
 10  9  2  0
 11 12  1  0
 12 22  2  0
 13 14  2  0
 13 12  1  0
 14 15  1  0
 15 16  1  0
 15 21  2  0
 17 18  1  0
 17 16  1  1
 19 17  1  0
 20 19  2  0
 22 21  1  0
 23 19  1  0
M  END
$$$$
