GCY.pdb
     RDKit          3D

 23 23  0  0  1  0  0  0  0  0999 V2000
   21.7098   -9.4236  -15.9194 N   0  0  0  0  0  0  0  0  0  0  0  0
   20.3453   -9.0795  -15.5964 C   0  0  0  0  0  0  0  0  0  0  0  0
   20.2140   -8.5216  -14.2301 C   0  0  0  0  0  0  0  0  0  0  0  0
   20.1279   -9.2290  -13.2173 O   0  0  0  0  0  0  0  0  0  0  0  0
   20.1873   -7.1096  -14.0943 N   0  0  0  0  0  0  0  0  0  0  0  0
   20.0067   -6.4941  -12.7982 C   0  0  1  0  0  0  0  0  0  0  0  0
   20.4109   -5.0287  -12.9078 C   0  0  0  0  0  0  0  0  0  0  0  0
   22.2055   -5.0025  -13.1892 S   0  0  0  0  0  0  0  0  0  0  0  0
   18.5832   -6.5964  -12.3763 C   0  0  0  0  0  0  0  0  0  0  0  0
   17.6582   -6.5285  -13.2142 O   0  0  0  0  0  0  0  0  0  0  0  0
   11.3724   -7.6074   -7.3890 O   0  0  0  0  0  0  0  0  0  0  0  0
   12.6771   -7.6230   -7.8733 C   0  0  0  0  0  0  0  0  0  0  0  0
   13.5610   -6.6916   -7.3974 C   0  0  0  0  0  0  0  0  0  0  0  0
   14.8643   -6.6695   -7.8488 C   0  0  0  0  0  0  0  0  0  0  0  0
   15.3250   -7.5854   -8.7966 C   0  0  0  0  0  0  0  0  0  0  0  0
   16.7166   -7.5522   -9.2877 C   0  0  0  0  0  0  0  0  0  0  0  0
   16.8723   -6.8405  -10.6159 C   0  0  2  0  0  0  0  0  0  0  0  0
   18.2491   -6.7730  -11.0148 N   0  0  0  0  0  0  0  0  0  0  0  0
   16.3453   -5.4567  -10.5788 C   0  0  0  0  0  0  0  0  0  0  0  0
   15.1486   -5.1957  -10.8885 O   0  0  0  0  0  0  0  0  0  0  0  0
   14.4128   -8.5082   -9.2552 C   0  0  0  0  0  0  0  0  0  0  0  0
   13.0978   -8.5393   -8.8071 C   0  0  0  0  0  0  0  0  0  0  0  0
   17.1292   -4.3902  -10.2052 O   0  0  0  0  0  0  0  0  0  0  0  0
  2  1  1  0
  3  2  1  0
  3  5  1  0
  4  3  2  0
  6  5  1  0
  6  7  1  6
  7  8  1  0
  9  6  1  0
  9 18  1  0
 10  9  2  0
 11 12  1  0
 12 22  2  0
 13 14  2  0
 13 12  1  0
 14 15  1  0
 15 16  1  0
 15 21  2  0
 17 18  1  0
 17 16  1  1
 19 17  1  0
 20 19  2  0
 22 21  1  0
 23 19  1  0
M  END
$$$$
