GCY.pdb
     RDKit          3D

 23 23  0  0  1  0  0  0  0  0999 V2000
   28.2967  -24.1141  -16.5187 N   0  0  0  0  0  0  0  0  0  0  0  0
   26.9397  -24.0638  -16.0283 C   0  0  0  0  0  0  0  0  0  0  0  0
   26.6924  -22.8762  -15.1775 C   0  0  0  0  0  0  0  0  0  0  0  0
   27.4671  -21.9115  -15.1232 O   0  0  0  0  0  0  0  0  0  0  0  0
   25.5087  -22.8602  -14.3955 N   0  0  0  0  0  0  0  0  0  0  0  0
   25.1410  -21.6874  -13.6336 C   0  0  1  0  0  0  0  0  0  0  0  0
   23.6289  -21.5182  -13.7223 C   0  0  0  0  0  0  0  0  0  0  0  0
   23.2034  -20.0837  -12.6918 S   0  0  0  0  0  0  0  0  0  0  0  0
   25.5495  -21.8511  -12.2119 C   0  0  0  0  0  0  0  0  0  0  0  0
   25.2309  -22.8723  -11.5654 O   0  0  0  0  0  0  0  0  0  0  0  0
   28.6437  -20.0747   -4.1398 O   0  0  0  0  0  0  0  0  0  0  0  0
   28.3988  -20.0515   -5.5096 C   0  0  0  0  0  0  0  0  0  0  0  0
   27.5034  -19.1372   -5.9970 C   0  0  0  0  0  0  0  0  0  0  0  0
   27.2296  -19.0779   -7.3477 C   0  0  0  0  0  0  0  0  0  0  0  0
   27.8482  -19.9379   -8.2573 C   0  0  0  0  0  0  0  0  0  0  0  0
   27.5445  -19.8813   -9.7006 C   0  0  0  0  0  0  0  0  0  0  0  0
   26.5668  -20.9455  -10.1550 C   0  0  2  0  0  0  0  0  0  0  0  0
   26.3083  -20.8511  -11.5634 N   0  0  0  0  0  0  0  0  0  0  0  0
   25.2668  -20.8538   -9.4510 C   0  0  0  0  0  0  0  0  0  0  0  0
   24.3928  -20.0041   -9.7832 O   0  0  0  0  0  0  0  0  0  0  0  0
   28.7425  -20.8451   -7.7363 C   0  0  0  0  0  0  0  0  0  0  0  0
   29.0256  -20.9132   -6.3776 C   0  0  0  0  0  0  0  0  0  0  0  0
   24.9464  -21.6868   -8.4047 O   0  0  0  0  0  0  0  0  0  0  0  0
  2  1  1  0
  3  2  1  0
  3  5  1  0
  4  3  2  0
  6  5  1  0
  6  7  1  1
  7  8  1  0
  9  6  1  0
  9 18  1  0
 10  9  2  0
 11 12  1  0
 12 22  2  0
 13 14  2  0
 13 12  1  0
 14 15  1  0
 15 16  1  0
 15 21  2  0
 17 18  1  0
 17 16  1  1
 19 17  1  0
 20 19  2  0
 22 21  1  0
 23 19  1  0
M  END
$$$$
