GCY.pdb
     RDKit          3D

 23 23  0  0  1  0  0  0  0  0999 V2000
   25.8444  -27.0811  -17.2409 N   0  0  0  0  0  0  0  0  0  0  0  0
   24.9179  -26.0203  -16.9232 C   0  0  0  0  0  0  0  0  0  0  0  0
   25.5916  -24.8467  -16.3198 C   0  0  0  0  0  0  0  0  0  0  0  0
   26.5961  -24.9403  -15.6015 O   0  0  0  0  0  0  0  0  0  0  0  0
   25.0475  -23.5641  -16.5878 N   0  0  0  0  0  0  0  0  0  0  0  0
   25.6867  -22.3690  -16.0835 C   0  0  1  0  0  0  0  0  0  0  0  0
   25.2605  -21.1968  -16.9593 C   0  0  0  0  0  0  0  0  0  0  0  0
   26.4881  -21.0688  -18.2925 S   0  0  0  0  0  0  0  0  0  0  0  0
   25.2756  -22.1238  -14.6743 C   0  0  0  0  0  0  0  0  0  0  0  0
   24.1127  -22.3751  -14.2913 O   0  0  0  0  0  0  0  0  0  0  0  0
   25.4784  -19.7190   -6.1780 O   0  0  0  0  0  0  0  0  0  0  0  0
   25.8311  -20.0518   -7.4825 C   0  0  0  0  0  0  0  0  0  0  0  0
   26.3860  -19.0832   -8.2757 C   0  0  0  0  0  0  0  0  0  0  0  0
   26.7510  -19.3677   -9.5752 C   0  0  0  0  0  0  0  0  0  0  0  0
   26.5702  -20.6391  -10.1234 C   0  0  0  0  0  0  0  0  0  0  0  0
   26.9498  -20.9382  -11.5181 C   0  0  0  0  0  0  0  0  0  0  0  0
   25.7766  -21.3270  -12.3940 C   0  0  2  0  0  0  0  0  0  0  0  0
   26.1960  -21.6000  -13.7390 N   0  0  0  0  0  0  0  0  0  0  0  0
   24.7410  -20.2695  -12.4506 C   0  0  0  0  0  0  0  0  0  0  0  0
   23.7532  -20.2677  -11.6629 O   0  0  0  0  0  0  0  0  0  0  0  0
   26.0101  -21.5901   -9.3012 C   0  0  0  0  0  0  0  0  0  0  0  0
   25.6390  -21.3141   -7.9909 C   0  0  0  0  0  0  0  0  0  0  0  0
   24.8030  -19.2392  -13.3594 O   0  0  0  0  0  0  0  0  0  0  0  0
  2  1  1  0
  3  2  1  0
  3  5  1  0
  4  3  2  0
  6  5  1  0
  6  7  1  6
  7  8  1  0
  9  6  1  0
  9 18  1  0
 10  9  2  0
 11 12  1  0
 12 22  2  0
 13 14  2  0
 13 12  1  0
 14 15  1  0
 15 16  1  0
 15 21  2  0
 17 18  1  0
 17 16  1  1
 19 17  1  0
 20 19  2  0
 22 21  1  0
 23 19  1  0
M  END
$$$$
