GCY.pdb
     RDKit          3D

 23 23  0  0  1  0  0  0  0  0999 V2000
   23.7019  -20.1267  -15.7262 N   0  0  0  0  0  0  0  0  0  0  0  0
   23.6913  -18.8687  -16.4347 C   0  0  0  0  0  0  0  0  0  0  0  0
   22.9888  -17.8041  -15.6806 C   0  0  0  0  0  0  0  0  0  0  0  0
   22.3728  -18.0168  -14.6276 O   0  0  0  0  0  0  0  0  0  0  0  0
   23.0344  -16.4860  -16.2036 N   0  0  0  0  0  0  0  0  0  0  0  0
   22.2787  -15.4186  -15.5865 C   0  0  1  0  0  0  0  0  0  0  0  0
   23.0077  -14.1065  -15.8504 C   0  0  0  0  0  0  0  0  0  0  0  0
   23.3383  -14.0436  -17.6357 S   0  0  0  0  0  0  0  0  0  0  0  0
   20.9081  -15.3612  -16.1636 C   0  0  0  0  0  0  0  0  0  0  0  0
   20.6999  -15.6693  -17.3569 O   0  0  0  0  0  0  0  0  0  0  0  0
   12.1604  -15.1066  -17.0204 O   0  0  0  0  0  0  0  0  0  0  0  0
   13.4503  -15.1292  -16.4985 C   0  0  0  0  0  0  0  0  0  0  0  0
   14.2840  -16.1525  -16.8634 C   0  0  0  0  0  0  0  0  0  0  0  0
   15.5710  -16.2154  -16.3709 C   0  0  0  0  0  0  0  0  0  0  0  0
   16.0654  -15.2493  -15.4923 C   0  0  0  0  0  0  0  0  0  0  0  0
   17.4387  -15.3253  -14.9566 C   0  0  0  0  0  0  0  0  0  0  0  0
   18.4984  -14.8809  -15.9437 C   0  0  2  0  0  0  0  0  0  0  0  0
   19.8117  -14.9556  -15.3701 N   0  0  0  0  0  0  0  0  0  0  0  0
   18.2878  -13.4902  -16.4082 C   0  0  0  0  0  0  0  0  0  0  0  0
   17.5594  -13.2293  -17.4070 O   0  0  0  0  0  0  0  0  0  0  0  0
   15.2033  -14.2344  -15.1448 C   0  0  0  0  0  0  0  0  0  0  0  0
   13.9051  -14.1615  -15.6351 C   0  0  0  0  0  0  0  0  0  0  0  0
   18.8714  -12.4168  -15.7770 O   0  0  0  0  0  0  0  0  0  0  0  0
  2  1  1  0
  3  2  1  0
  3  5  1  0
  4  3  2  0
  6  5  1  0
  6  7  1  6
  7  8  1  0
  9  6  1  0
  9 18  1  0
 10  9  2  0
 11 12  1  0
 12 22  2  0
 13 14  2  0
 13 12  1  0
 14 15  1  0
 15 16  1  0
 15 21  2  0
 17 18  1  0
 17 16  1  1
 19 17  1  0
 20 19  2  0
 22 21  1  0
 23 19  1  0
M  END
$$$$
