GCY.pdb
     RDKit          3D

 23 23  0  0  1  0  0  0  0  0999 V2000
   29.0860  -21.3071  -16.5438 N   0  0  0  0  0  0  0  0  0  0  0  0
   28.1285  -21.9466  -15.6725 C   0  0  0  0  0  0  0  0  0  0  0  0
   27.1384  -20.9895  -15.1256 C   0  0  0  0  0  0  0  0  0  0  0  0
   27.4443  -19.8607  -14.7182 O   0  0  0  0  0  0  0  0  0  0  0  0
   25.7819  -21.4018  -15.0735 N   0  0  0  0  0  0  0  0  0  0  0  0
   24.7505  -20.4971  -14.6164 C   0  0  1  0  0  0  0  0  0  0  0  0
   23.8078  -20.2235  -15.7823 C   0  0  0  0  0  0  0  0  0  0  0  0
   24.2932  -18.6176  -16.4795 S   0  0  0  0  0  0  0  0  0  0  0  0
   23.9963  -21.1079  -13.4881 C   0  0  0  0  0  0  0  0  0  0  0  0
   23.7901  -22.3399  -13.4454 O   0  0  0  0  0  0  0  0  0  0  0  0
   28.2831  -20.2511   -8.0317 O   0  0  0  0  0  0  0  0  0  0  0  0
   26.9860  -20.1767   -8.5306 C   0  0  0  0  0  0  0  0  0  0  0  0
   26.2756  -21.3383   -8.6771 C   0  0  0  0  0  0  0  0  0  0  0  0
   24.9866  -21.3126   -9.1676 C   0  0  0  0  0  0  0  0  0  0  0  0
   24.3657  -20.1152   -9.5287 C   0  0  0  0  0  0  0  0  0  0  0  0
   22.9909  -20.0911  -10.0652 C   0  0  0  0  0  0  0  0  0  0  0  0
   22.8203  -20.9093  -11.3287 C   0  0  2  0  0  0  0  0  0  0  0  0
   23.4971  -20.3032  -12.4395 N   0  0  0  0  0  0  0  0  0  0  0  0
   21.3972  -21.0758  -11.7042 C   0  0  0  0  0  0  0  0  0  0  0  0
   20.8997  -20.4727  -12.6967 O   0  0  0  0  0  0  0  0  0  0  0  0
   25.1058  -18.9658   -9.3699 C   0  0  0  0  0  0  0  0  0  0  0  0
   26.4048  -18.9804   -8.8766 C   0  0  0  0  0  0  0  0  0  0  0  0
   20.5491  -21.8936  -10.9948 O   0  0  0  0  0  0  0  0  0  0  0  0
  2  1  1  0
  3  2  1  0
  3  5  1  0
  4  3  2  0
  6  5  1  0
  6  7  1  6
  7  8  1  0
  9  6  1  0
  9 18  1  0
 10  9  2  0
 11 12  1  0
 12 22  2  0
 13 14  2  0
 13 12  1  0
 14 15  1  0
 15 16  1  0
 15 21  2  0
 17 18  1  0
 17 16  1  1
 19 17  1  0
 20 19  2  0
 22 21  1  0
 23 19  1  0
M  END
$$$$
