GCY.pdb
     RDKit          3D

 23 23  0  0  1  0  0  0  0  0999 V2000
   27.9806  -20.2511  -16.1620 N   0  0  0  0  0  0  0  0  0  0  0  0
   27.8919  -20.0889  -14.7301 C   0  0  0  0  0  0  0  0  0  0  0  0
   26.7227  -20.7944  -14.1552 C   0  0  0  0  0  0  0  0  0  0  0  0
   25.8343  -21.3061  -14.8499 O   0  0  0  0  0  0  0  0  0  0  0  0
   26.6328  -20.8783  -12.7418 N   0  0  0  0  0  0  0  0  0  0  0  0
   25.4580  -21.4331  -12.1066 C   0  0  1  0  0  0  0  0  0  0  0  0
   25.7721  -21.6466  -10.6307 C   0  0  0  0  0  0  0  0  0  0  0  0
   25.9866  -19.9975   -9.8994 S   0  0  0  0  0  0  0  0  0  0  0  0
   24.3086  -20.4985  -12.2496 C   0  0  0  0  0  0  0  0  0  0  0  0
   24.4359  -19.2806  -11.9994 O   0  0  0  0  0  0  0  0  0  0  0  0
   22.3085  -22.9807  -18.5923 O   0  0  0  0  0  0  0  0  0  0  0  0
   22.2188  -22.0973  -17.5206 C   0  0  0  0  0  0  0  0  0  0  0  0
   23.3540  -21.4491  -17.1126 C   0  0  0  0  0  0  0  0  0  0  0  0
   23.3124  -20.5646  -16.0549 C   0  0  0  0  0  0  0  0  0  0  0  0
   22.1251  -20.3005  -15.3692 C   0  0  0  0  0  0  0  0  0  0  0  0
   22.0852  -19.3632  -14.2297 C   0  0  0  0  0  0  0  0  0  0  0  0
   21.9674  -20.0508  -12.8850 C   0  0  2  0  0  0  0  0  0  0  0  0
   23.0466  -20.9725  -12.6726 N   0  0  0  0  0  0  0  0  0  0  0  0
   20.6986  -20.8024  -12.7458 C   0  0  0  0  0  0  0  0  0  0  0  0
   19.5780  -20.2194  -12.7697 O   0  0  0  0  0  0  0  0  0  0  0  0
   21.0022  -20.9676  -15.8032 C   0  0  0  0  0  0  0  0  0  0  0  0
   21.0331  -21.8604  -16.8675 C   0  0  0  0  0  0  0  0  0  0  0  0
   20.6766  -22.1681  -12.5854 O   0  0  0  0  0  0  0  0  0  0  0  0
  2  1  1  0
  3  2  1  0
  3  5  1  0
  4  3  2  0
  6  5  1  0
  6  7  1  1
  7  8  1  0
  9  6  1  0
  9 18  1  0
 10  9  2  0
 11 12  1  0
 12 22  2  0
 13 14  2  0
 13 12  1  0
 14 15  1  0
 15 16  1  0
 15 21  2  0
 17 18  1  0
 17 16  1  6
 19 17  1  0
 20 19  2  0
 22 21  1  0
 23 19  1  0
M  END
$$$$
