WEH.pdb
     RDKit          3D

 34 36  0  0  1  0  0  0  0  0999 V2000
   20.0953  -13.2517  -19.9104 N   0  0  0  0  0  0  0  0  0  0  0  0
   20.8972  -12.4630  -19.0224 C   0  0  1  0  0  0  0  0  0  0  0  0
   22.3060  -12.3002  -19.5584 C   0  0  0  0  0  0  0  0  0  0  0  0
   22.7614  -13.6887  -19.9171 C   0  0  0  0  0  0  0  0  0  0  0  0
   22.2791  -14.8820  -19.3913 C   0  0  0  0  0  0  0  0  0  0  0  0
   22.9146  -15.9149  -19.9379 N   0  0  0  0  0  0  0  0  0  0  0  0
   23.8045  -15.4338  -20.8117 C   0  0  0  0  0  0  0  0  0  0  0  0
   24.7074  -16.0601  -21.6353 C   0  0  0  0  0  0  0  0  0  0  0  0
   25.5456  -15.3539  -22.4719 C   0  0  0  0  0  0  0  0  0  0  0  0
   25.4726  -13.9823  -22.4794 C   0  0  0  0  0  0  0  0  0  0  0  0
   24.5592  -13.3349  -21.6471 C   0  0  0  0  0  0  0  0  0  0  0  0
   23.7346  -14.0516  -20.8228 C   0  0  0  0  0  0  0  0  0  0  0  0
   20.2328  -11.1923  -18.7213 C   0  0  0  0  0  0  0  0  0  0  0  0
   19.9205  -10.4282  -19.6710 O   0  0  0  0  0  0  0  0  0  0  0  0
   19.9039  -10.7397  -17.4226 N   0  0  0  0  0  0  0  0  0  0  0  0
   19.2522   -9.4416  -17.2038 C   0  0  1  0  0  0  0  0  0  0  0  0
   17.9626   -9.6853  -16.5097 C   0  0  0  0  0  0  0  0  0  0  0  0
   17.2386   -8.3878  -16.2933 C   0  0  0  0  0  0  0  0  0  0  0  0
   15.9590   -8.5098  -15.5965 C   0  0  0  0  0  0  0  0  0  0  0  0
   15.5177   -9.5787  -15.1373 O   0  0  0  0  0  0  0  0  0  0  0  0
   20.1552   -8.5310  -16.4462 C   0  0  0  0  0  0  0  0  0  0  0  0
   20.8541   -9.0361  -15.5412 O   0  0  0  0  0  0  0  0  0  0  0  0
   15.1564   -7.3858  -15.4155 O   0  0  0  0  0  0  0  0  0  0  0  0
   20.2594   -7.1574  -16.6933 N   0  0  0  0  0  0  0  0  0  0  0  0
   21.1839   -6.3170  -15.8786 C   0  0  1  0  0  0  0  0  0  0  0  0
   21.2401   -4.9974  -16.5461 C   0  0  0  0  0  0  0  0  0  0  0  0
   22.0333   -3.9476  -15.8859 C   0  0  0  0  0  0  0  0  0  0  0  0
   23.2953   -3.9825  -15.3492 C   0  0  0  0  0  0  0  0  0  0  0  0
   23.6564   -2.7639  -14.8899 N   0  0  0  0  0  0  0  0  0  0  0  0
   22.6114   -1.9665  -15.1445 C   0  0  0  0  0  0  0  0  0  0  0  0
   21.6398   -2.6420  -15.7325 N   0  0  0  0  0  0  0  0  0  0  0  0
   20.5326   -6.2719  -14.5401 C   0  0  0  0  0  0  0  0  0  0  0  0
   21.3293   -6.0920  -13.4031 O   0  0  0  0  0  0  0  0  0  0  0  0
   19.3121   -6.3829  -14.3422 O   0  0  0  0  0  0  0  0  0  0  0  0
  2  1  1  6
  2  3  1  0
  4  3  1  0
  5  4  2  0
  6  5  1  0
  7  6  1  0
  7 12  2  0
  8  7  1  0
  9  8  2  0
  9 10  1  0
 10 11  2  0
 11 12  1  0
 12  4  1  0
 13 14  2  0
 13  2  1  0
 15 13  1  0
 16 15  1  0
 17 18  1  0
 16 17  1  1
 19 18  1  0
 20 19  2  0
 21 16  1  0
 21 24  1  0
 22 21  2  0
 23 19  1  0
 25 24  1  0
 25 32  1  0
 26 27  1  0
 25 26  1  6
 27 31  1  0
 28 27  2  0
 28 29  1  0
 29 30  1  0
 31 30  2  0
 32 34  2  0
 32 33  1  0
M  END
$$$$
