WEH.pdb
     RDKit          3D

 34 36  0  0  1  0  0  0  0  0999 V2000
   21.0914  -18.8234  -16.4383 N   0  0  0  0  0  0  0  0  0  0  0  0
   21.9201  -18.4074  -15.3456 C   0  0  1  0  0  0  0  0  0  0  0  0
   21.8776  -19.4154  -14.2139 C   0  0  0  0  0  0  0  0  0  0  0  0
   20.4336  -19.4904  -13.7979 C   0  0  0  0  0  0  0  0  0  0  0  0
   19.6161  -20.6143  -13.8370 C   0  0  0  0  0  0  0  0  0  0  0  0
   18.3981  -20.3119  -13.3960 N   0  0  0  0  0  0  0  0  0  0  0  0
   18.3906  -19.0164  -13.0664 C   0  0  0  0  0  0  0  0  0  0  0  0
   17.4012  -18.2064  -12.5658 C   0  0  0  0  0  0  0  0  0  0  0  0
   17.6171  -16.8720  -12.2938 C   0  0  0  0  0  0  0  0  0  0  0  0
   18.8609  -16.3399  -12.5318 C   0  0  0  0  0  0  0  0  0  0  0  0
   19.8740  -17.1531  -13.0402 C   0  0  0  0  0  0  0  0  0  0  0  0
   19.6422  -18.4758  -13.3046 C   0  0  0  0  0  0  0  0  0  0  0  0
   23.2755  -18.1065  -15.8139 C   0  0  0  0  0  0  0  0  0  0  0  0
   23.7246  -18.7219  -16.8153 O   0  0  0  0  0  0  0  0  0  0  0  0
   24.1438  -17.1602  -15.2222 N   0  0  0  0  0  0  0  0  0  0  0  0
   25.4410  -16.8258  -15.8252 C   0  0  1  0  0  0  0  0  0  0  0  0
   25.9547  -15.6011  -15.1616 C   0  0  0  0  0  0  0  0  0  0  0  0
   27.2071  -15.1304  -15.8433 C   0  0  0  0  0  0  0  0  0  0  0  0
   26.9980  -14.1152  -16.8744 C   0  0  0  0  0  0  0  0  0  0  0  0
   26.1712  -13.1902  -16.7805 O   0  0  0  0  0  0  0  0  0  0  0  0
   26.3754  -17.9804  -15.7147 C   0  0  0  0  0  0  0  0  0  0  0  0
   26.3010  -18.6840  -14.6841 O   0  0  0  0  0  0  0  0  0  0  0  0
   27.7493  -14.1505  -18.0469 O   0  0  0  0  0  0  0  0  0  0  0  0
   27.3192  -18.3128  -16.6931 N   0  0  0  0  0  0  0  0  0  0  0  0
   28.1730  -19.5251  -16.5303 C   0  0  1  0  0  0  0  0  0  0  0  0
   27.2475  -20.6785  -16.4756 C   0  0  0  0  0  0  0  0  0  0  0  0
   27.8389  -22.0178  -16.6292 C   0  0  0  0  0  0  0  0  0  0  0  0
   28.8145  -22.6546  -15.9049 C   0  0  0  0  0  0  0  0  0  0  0  0
   29.0124  -23.9101  -16.3643 N   0  0  0  0  0  0  0  0  0  0  0  0
   28.1526  -24.0540  -17.3805 C   0  0  0  0  0  0  0  0  0  0  0  0
   27.4478  -22.9502  -17.5570 N   0  0  0  0  0  0  0  0  0  0  0  0
   29.0323  -19.5174  -17.7465 C   0  0  0  0  0  0  0  0  0  0  0  0
   29.9910  -20.5249  -17.9068 O   0  0  0  0  0  0  0  0  0  0  0  0
   28.9688  -18.6719  -18.6533 O   0  0  0  0  0  0  0  0  0  0  0  0
  2  1  1  6
  2  3  1  0
  4  3  1  0
  5  4  2  0
  6  5  1  0
  7  6  1  0
  7 12  2  0
  8  7  1  0
  9  8  2  0
  9 10  1  0
 10 11  2  0
 11 12  1  0
 12  4  1  0
 13 14  2  0
 13  2  1  0
 15 13  1  0
 16 15  1  0
 17 18  1  0
 16 17  1  1
 19 18  1  0
 20 19  2  0
 21 16  1  0
 21 24  1  0
 22 21  2  0
 23 19  1  0
 25 24  1  0
 25 32  1  0
 26 27  1  0
 25 26  1  6
 27 31  1  0
 28 27  2  0
 28 29  1  0
 29 30  1  0
 31 30  2  0
 32 34  2  0
 32 33  1  0
M  END
$$$$
