WEH.pdb
     RDKit          3D

 34 36  0  0  1  0  0  0  0  0999 V2000
   26.4175  -21.8916  -14.8629 N   0  0  0  0  0  0  0  0  0  0  0  0
   25.4162  -21.5402  -13.8998 C   0  0  1  0  0  0  0  0  0  0  0  0
   25.6800  -20.1666  -13.3147 C   0  0  0  0  0  0  0  0  0  0  0  0
   26.7066  -20.3808  -12.2358 C   0  0  0  0  0  0  0  0  0  0  0  0
   28.0883  -20.3621  -12.3895 C   0  0  0  0  0  0  0  0  0  0  0  0
   28.6834  -20.5923  -11.2223 N   0  0  0  0  0  0  0  0  0  0  0  0
   27.7295  -20.7625  -10.3014 C   0  0  0  0  0  0  0  0  0  0  0  0
   27.7951  -21.0234   -8.9549 C   0  0  0  0  0  0  0  0  0  0  0  0
   26.6621  -21.1642   -8.1817 C   0  0  0  0  0  0  0  0  0  0  0  0
   25.4320  -21.0388   -8.7797 C   0  0  0  0  0  0  0  0  0  0  0  0
   25.3527  -20.7737  -10.1471 C   0  0  0  0  0  0  0  0  0  0  0  0
   26.4877  -20.6371  -10.8996 C   0  0  0  0  0  0  0  0  0  0  0  0
   24.0764  -21.6867  -14.4742 C   0  0  0  0  0  0  0  0  0  0  0  0
   23.8111  -21.1041  -15.5575 O   0  0  0  0  0  0  0  0  0  0  0  0
   23.0297  -22.4457  -13.9016 N   0  0  0  0  0  0  0  0  0  0  0  0
   21.7624  -22.6647  -14.6115 C   0  0  1  0  0  0  0  0  0  0  0  0
   21.5275  -24.1284  -14.6928 C   0  0  0  0  0  0  0  0  0  0  0  0
   22.4403  -24.7425  -15.7147 C   0  0  0  0  0  0  0  0  0  0  0  0
   23.6268  -25.3944  -15.1625 C   0  0  0  0  0  0  0  0  0  0  0  0
   23.6103  -26.5024  -14.5967 O   0  0  0  0  0  0  0  0  0  0  0  0
   20.6558  -21.9369  -13.9303 C   0  0  0  0  0  0  0  0  0  0  0  0
   20.8939  -21.4536  -12.8023 O   0  0  0  0  0  0  0  0  0  0  0  0
   24.8688  -24.7705  -15.2548 O   0  0  0  0  0  0  0  0  0  0  0  0
   19.3806  -21.7688  -14.4819 N   0  0  0  0  0  0  0  0  0  0  0  0
   18.3706  -20.9167  -13.7900 C   0  0  1  0  0  0  0  0  0  0  0  0
   18.3394  -19.6327  -14.5251 C   0  0  0  0  0  0  0  0  0  0  0  0
   19.3212  -18.6106  -14.1270 C   0  0  0  0  0  0  0  0  0  0  0  0
   20.5453  -18.2901  -14.6568 C   0  0  0  0  0  0  0  0  0  0  0  0
   21.0900  -17.2378  -14.0069 N   0  0  0  0  0  0  0  0  0  0  0  0
   20.1968  -16.9019  -13.0677 C   0  0  0  0  0  0  0  0  0  0  0  0
   19.1432  -17.6978  -13.1180 N   0  0  0  0  0  0  0  0  0  0  0  0
   17.1076  -21.6961  -13.9132 C   0  0  0  0  0  0  0  0  0  0  0  0
   17.1384  -22.9427  -14.5495 O   0  0  0  0  0  0  0  0  0  0  0  0
   16.0018  -21.3246  -13.4885 O   0  0  0  0  0  0  0  0  0  0  0  0
  2  1  1  6
  2  3  1  0
  4  3  1  0
  5  4  2  0
  6  5  1  0
  7  6  1  0
  7 12  2  0
  8  7  1  0
  9  8  2  0
  9 10  1  0
 10 11  2  0
 11 12  1  0
 12  4  1  0
 13 14  2  0
 13  2  1  0
 15 13  1  0
 16 15  1  0
 17 18  1  0
 16 17  1  1
 19 18  1  0
 20 19  2  0
 21 16  1  0
 21 24  1  0
 22 21  2  0
 23 19  1  0
 25 24  1  0
 25 32  1  0
 26 27  1  0
 25 26  1  6
 27 31  1  0
 28 27  2  0
 28 29  1  0
 29 30  1  0
 31 30  2  0
 32 34  2  0
 32 33  1  0
M  END
$$$$
