WEH.pdb
     RDKit          3D

 34 36  0  0  1  0  0  0  0  0999 V2000
   22.3405  -15.0316  -18.5916 N   0  0  0  0  0  0  0  0  0  0  0  0
   22.7791  -14.0086  -17.6890 C   0  0  1  0  0  0  0  0  0  0  0  0
   24.1266  -13.4533  -18.1067 C   0  0  0  0  0  0  0  0  0  0  0  0
   25.0983  -14.5896  -17.9376 C   0  0  0  0  0  0  0  0  0  0  0  0
   25.5286  -15.4677  -18.9260 C   0  0  0  0  0  0  0  0  0  0  0  0
   26.3863  -16.3477  -18.4168 N   0  0  0  0  0  0  0  0  0  0  0  0
   26.5335  -16.0730  -17.1168 C   0  0  0  0  0  0  0  0  0  0  0  0
   27.2919  -16.6658  -16.1375 C   0  0  0  0  0  0  0  0  0  0  0  0
   27.2916  -16.2094  -14.8364 C   0  0  0  0  0  0  0  0  0  0  0  0
   26.5079  -15.1286  -14.5134 C   0  0  0  0  0  0  0  0  0  0  0  0
   25.7331  -14.5180  -15.4999 C   0  0  0  0  0  0  0  0  0  0  0  0
   25.7454  -14.9842  -16.7866 C   0  0  0  0  0  0  0  0  0  0  0  0
   21.7443  -12.9833  -17.5319 C   0  0  0  0  0  0  0  0  0  0  0  0
   21.0983  -12.6097  -18.5450 O   0  0  0  0  0  0  0  0  0  0  0  0
   21.4005  -12.3623  -16.3089 N   0  0  0  0  0  0  0  0  0  0  0  0
   20.3670  -11.3206  -16.2404 C   0  0  1  0  0  0  0  0  0  0  0  0
   19.2437  -11.8401  -15.4203 C   0  0  0  0  0  0  0  0  0  0  0  0
   18.1080  -10.8579  -15.4177 C   0  0  0  0  0  0  0  0  0  0  0  0
   17.1404  -11.0385  -16.4988 C   0  0  0  0  0  0  0  0  0  0  0  0
   16.7520  -12.1486  -16.9047 O   0  0  0  0  0  0  0  0  0  0  0  0
   20.9420  -10.0566  -15.7016 C   0  0  0  0  0  0  0  0  0  0  0  0
   21.6937  -10.1448  -14.7067 O   0  0  0  0  0  0  0  0  0  0  0  0
   16.5973   -9.9264  -17.1382 O   0  0  0  0  0  0  0  0  0  0  0  0
   20.6868   -8.7927  -16.2457 N   0  0  0  0  0  0  0  0  0  0  0  0
   21.2764   -7.5739  -15.6198 C   0  0  1  0  0  0  0  0  0  0  0  0
   20.9361   -6.4442  -16.5131 C   0  0  0  0  0  0  0  0  0  0  0  0
   21.2949   -5.0939  -16.0495 C   0  0  0  0  0  0  0  0  0  0  0  0
   20.9141   -4.4011  -14.9284 C   0  0  0  0  0  0  0  0  0  0  0  0
   21.5330   -3.2010  -14.8712 N   0  0  0  0  0  0  0  0  0  0  0  0
   22.3046   -3.1491  -15.9642 C   0  0  0  0  0  0  0  0  0  0  0  0
   22.1818   -4.2553  -16.6766 N   0  0  0  0  0  0  0  0  0  0  0  0
   20.6041   -7.4981  -14.2932 C   0  0  0  0  0  0  0  0  0  0  0  0
   21.2957   -6.9379  -13.2125 O   0  0  0  0  0  0  0  0  0  0  0  0
   19.4531   -7.8996  -14.0585 O   0  0  0  0  0  0  0  0  0  0  0  0
  2  1  1  6
  2  3  1  0
  4  3  1  0
  5  4  2  0
  6  5  1  0
  7  6  1  0
  7 12  2  0
  8  7  1  0
  9  8  2  0
  9 10  1  0
 10 11  2  0
 11 12  1  0
 12  4  1  0
 13 14  2  0
 13  2  1  0
 15 13  1  0
 16 15  1  0
 17 18  1  0
 16 17  1  1
 19 18  1  0
 20 19  2  0
 21 16  1  0
 21 24  1  0
 22 21  2  0
 23 19  1  0
 25 24  1  0
 25 32  1  0
 26 27  1  0
 25 26  1  6
 27 31  1  0
 28 27  2  0
 28 29  1  0
 29 30  1  0
 31 30  2  0
 32 34  2  0
 32 33  1  0
M  END
$$$$
