WEH.pdb
     RDKit          3D

 34 36  0  0  1  0  0  0  0  0999 V2000
   28.5929  -20.8053   -9.2494 N   0  0  0  0  0  0  0  0  0  0  0  0
   27.1674  -20.9219   -9.1589 C   0  0  1  0  0  0  0  0  0  0  0  0
   26.5955  -19.8945   -8.2019 C   0  0  0  0  0  0  0  0  0  0  0  0
   27.7060  -19.5854   -7.2349 C   0  0  0  0  0  0  0  0  0  0  0  0
   28.8715  -18.8784   -7.5081 C   0  0  0  0  0  0  0  0  0  0  0  0
   29.6275  -18.7997   -6.4164 N   0  0  0  0  0  0  0  0  0  0  0  0
   28.9906  -19.4370   -5.4289 C   0  0  0  0  0  0  0  0  0  0  0  0
   29.3249  -19.6515   -4.1144 C   0  0  0  0  0  0  0  0  0  0  0  0
   28.5027  -20.3501   -3.2560 C   0  0  0  0  0  0  0  0  0  0  0  0
   27.3136  -20.8451   -3.7332 C   0  0  0  0  0  0  0  0  0  0  0  0
   26.9632  -20.6334   -5.0669 C   0  0  0  0  0  0  0  0  0  0  0  0
   27.7914  -19.9376   -5.9053 C   0  0  0  0  0  0  0  0  0  0  0  0
   26.5626  -20.8830  -10.4929 C   0  0  0  0  0  0  0  0  0  0  0  0
   26.9718  -20.0301  -11.3225 O   0  0  0  0  0  0  0  0  0  0  0  0
   25.5330  -21.7434  -10.9392 N   0  0  0  0  0  0  0  0  0  0  0  0
   25.0056  -21.6645  -12.3080 C   0  0  1  0  0  0  0  0  0  0  0  0
   25.1581  -23.0004  -12.9376 C   0  0  0  0  0  0  0  0  0  0  0  0
   24.6363  -22.9710  -14.3453 C   0  0  0  0  0  0  0  0  0  0  0  0
   23.5946  -23.9560  -14.6324 C   0  0  0  0  0  0  0  0  0  0  0  0
   23.6445  -25.1451  -14.2696 O   0  0  0  0  0  0  0  0  0  0  0  0
   23.5942  -21.1891  -12.2914 C   0  0  0  0  0  0  0  0  0  0  0  0
   22.9216  -21.4196  -11.2632 O   0  0  0  0  0  0  0  0  0  0  0  0
   22.4629  -23.5806  -15.3526 O   0  0  0  0  0  0  0  0  0  0  0  0
   22.9913  -20.5067  -13.3542 N   0  0  0  0  0  0  0  0  0  0  0  0
   21.6478  -19.8828  -13.1790 C   0  0  1  0  0  0  0  0  0  0  0  0
   21.7990  -18.4609  -13.5605 C   0  0  0  0  0  0  0  0  0  0  0  0
   20.5660  -17.6650  -13.6758 C   0  0  0  0  0  0  0  0  0  0  0  0
   19.2577  -18.0004  -13.4355 C   0  0  0  0  0  0  0  0  0  0  0  0
   18.4468  -16.9348  -13.6179 N   0  0  0  0  0  0  0  0  0  0  0  0
   19.2578  -15.9303  -13.9729 C   0  0  0  0  0  0  0  0  0  0  0  0
   20.5147  -16.3362  -14.0142 N   0  0  0  0  0  0  0  0  0  0  0  0
   20.7772  -20.6524  -14.1104 C   0  0  0  0  0  0  0  0  0  0  0  0
   19.3880  -20.5913  -13.9480 O   0  0  0  0  0  0  0  0  0  0  0  0
   21.1895  -21.3614  -15.0423 O   0  0  0  0  0  0  0  0  0  0  0  0
  2  1  1  6
  2  3  1  0
  4  3  1  0
  5  4  2  0
  6  5  1  0
  7  6  1  0
  7 12  2  0
  8  7  1  0
  9  8  2  0
  9 10  1  0
 10 11  2  0
 11 12  1  0
 12  4  1  0
 13 14  2  0
 13  2  1  0
 15 13  1  0
 16 15  1  0
 17 18  1  0
 16 17  1  1
 19 18  1  0
 20 19  2  0
 21 16  1  0
 21 24  1  0
 22 21  2  0
 23 19  1  0
 25 24  1  0
 25 32  1  0
 26 27  1  0
 25 26  1  6
 27 31  1  0
 28 27  2  0
 28 29  1  0
 29 30  1  0
 31 30  2  0
 32 34  2  0
 32 33  1  0
M  END
$$$$
