WEH.pdb
     RDKit          3D

 34 36  0  0  1  0  0  0  0  0999 V2000
   27.9729  -22.0174  -14.7422 N   0  0  0  0  0  0  0  0  0  0  0  0
   27.0040  -21.5577  -13.7917 C   0  0  1  0  0  0  0  0  0  0  0  0
   27.3255  -20.1530  -13.3206 C   0  0  0  0  0  0  0  0  0  0  0  0
   28.0315  -20.3237  -12.0029 C   0  0  0  0  0  0  0  0  0  0  0  0
   29.3743  -20.6308  -11.8145 C   0  0  0  0  0  0  0  0  0  0  0  0
   29.6504  -20.7061  -10.5155 N   0  0  0  0  0  0  0  0  0  0  0  0
   28.5236  -20.4565   -9.8409 C   0  0  0  0  0  0  0  0  0  0  0  0
   28.2555  -20.4088   -8.4950 C   0  0  0  0  0  0  0  0  0  0  0  0
   26.9956  -20.1275   -8.0104 C   0  0  0  0  0  0  0  0  0  0  0  0
   25.9801  -19.8880   -8.9037 C   0  0  0  0  0  0  0  0  0  0  0  0
   26.2405  -19.9336  -10.2736 C   0  0  0  0  0  0  0  0  0  0  0  0
   27.4971  -20.2145  -10.7373 C   0  0  0  0  0  0  0  0  0  0  0  0
   25.6484  -21.7014  -14.3288 C   0  0  0  0  0  0  0  0  0  0  0  0
   25.3955  -21.2457  -15.4740 O   0  0  0  0  0  0  0  0  0  0  0  0
   24.5731  -22.3241  -13.6538 N   0  0  0  0  0  0  0  0  0  0  0  0
   23.2513  -22.4636  -14.2793 C   0  0  1  0  0  0  0  0  0  0  0  0
   22.7893  -23.8593  -14.0723 C   0  0  0  0  0  0  0  0  0  0  0  0
   21.4437  -24.0582  -14.7081 C   0  0  0  0  0  0  0  0  0  0  0  0
   21.0141  -25.4522  -14.8081 C   0  0  0  0  0  0  0  0  0  0  0  0
   21.1510  -26.2879  -13.8967 O   0  0  0  0  0  0  0  0  0  0  0  0
   22.3081  -21.4526  -13.7255 C   0  0  0  0  0  0  0  0  0  0  0  0
   22.6955  -20.7809  -12.7451 O   0  0  0  0  0  0  0  0  0  0  0  0
   20.4113  -25.9114  -15.9769 O   0  0  0  0  0  0  0  0  0  0  0  0
   21.0278  -21.2199  -14.2407 N   0  0  0  0  0  0  0  0  0  0  0  0
   20.2050  -20.0890  -13.7219 C   0  0  1  0  0  0  0  0  0  0  0  0
   20.9219  -18.8498  -14.0968 C   0  0  0  0  0  0  0  0  0  0  0  0
   20.2062  -17.5783  -13.9011 C   0  0  0  0  0  0  0  0  0  0  0  0
   18.9587  -17.3220  -13.3912 C   0  0  0  0  0  0  0  0  0  0  0  0
   18.7229  -15.9921  -13.3431 N   0  0  0  0  0  0  0  0  0  0  0  0
   19.8326  -15.4188  -13.8255 C   0  0  0  0  0  0  0  0  0  0  0  0
   20.7238  -16.3346  -14.1621 N   0  0  0  0  0  0  0  0  0  0  0  0
   18.9015  -20.2499  -14.4240 C   0  0  0  0  0  0  0  0  0  0  0  0
   17.7489  -19.7004  -13.8502 O   0  0  0  0  0  0  0  0  0  0  0  0
   18.7467  -20.8450  -15.5025 O   0  0  0  0  0  0  0  0  0  0  0  0
  2  1  1  6
  2  3  1  0
  4  3  1  0
  5  4  2  0
  6  5  1  0
  7  6  1  0
  7 12  2  0
  8  7  1  0
  9  8  2  0
  9 10  1  0
 10 11  2  0
 11 12  1  0
 12  4  1  0
 13 14  2  0
 13  2  1  0
 15 13  1  0
 16 15  1  0
 17 18  1  0
 16 17  1  1
 19 18  1  0
 20 19  2  0
 21 16  1  0
 21 24  1  0
 22 21  2  0
 23 19  1  0
 25 24  1  0
 25 32  1  0
 26 27  1  0
 25 26  1  6
 27 31  1  0
 28 27  2  0
 28 29  1  0
 29 30  1  0
 31 30  2  0
 32 34  2  0
 32 33  1  0
M  END
$$$$
