WEH.pdb
     RDKit          3D

 34 36  0  0  1  0  0  0  0  0999 V2000
   26.7755  -22.4768  -12.1053 N   0  0  0  0  0  0  0  0  0  0  0  0
   26.1225  -21.3057  -11.5997 C   0  0  1  0  0  0  0  0  0  0  0  0
   27.0651  -20.1183  -11.5858 C   0  0  0  0  0  0  0  0  0  0  0  0
   28.0777  -20.4228  -10.5154 C   0  0  0  0  0  0  0  0  0  0  0  0
   29.3948  -20.8237  -10.7089 C   0  0  0  0  0  0  0  0  0  0  0  0
   29.9965  -21.0056   -9.5366 N   0  0  0  0  0  0  0  0  0  0  0  0
   29.1099  -20.7348   -8.5735 C   0  0  0  0  0  0  0  0  0  0  0  0
   29.2102  -20.7642   -7.2043 C   0  0  0  0  0  0  0  0  0  0  0  0
   28.1481  -20.4407   -6.3867 C   0  0  0  0  0  0  0  0  0  0  0  0
   26.9549  -20.0783   -6.9624 C   0  0  0  0  0  0  0  0  0  0  0  0
   26.8410  -20.0447   -8.3525 C   0  0  0  0  0  0  0  0  0  0  0  0
   27.9056  -20.3690   -9.1491 C   0  0  0  0  0  0  0  0  0  0  0  0
   24.8756  -21.0575  -12.3279 C   0  0  0  0  0  0  0  0  0  0  0  0
   24.7972  -21.4003  -13.5360 O   0  0  0  0  0  0  0  0  0  0  0  0
   23.7238  -20.4507  -11.7758 N   0  0  0  0  0  0  0  0  0  0  0  0
   22.5047  -20.2516  -12.5708 C   0  0  1  0  0  0  0  0  0  0  0  0
   21.4047  -19.8871  -11.6427 C   0  0  0  0  0  0  0  0  0  0  0  0
   20.0995  -19.8342  -12.3833 C   0  0  0  0  0  0  0  0  0  0  0  0
   19.5747  -21.1363  -12.7919 C   0  0  0  0  0  0  0  0  0  0  0  0
   19.4368  -22.1025  -12.0203 O   0  0  0  0  0  0  0  0  0  0  0  0
   22.7371  -19.2259  -13.6255 C   0  0  0  0  0  0  0  0  0  0  0  0
   23.7699  -18.5280  -13.5315 O   0  0  0  0  0  0  0  0  0  0  0  0
   19.1952  -21.3482  -14.1154 O   0  0  0  0  0  0  0  0  0  0  0  0
   21.8696  -19.0074  -14.7018 N   0  0  0  0  0  0  0  0  0  0  0  0
   22.3721  -18.3679  -15.9521 C   0  0  1  0  0  0  0  0  0  0  0  0
   23.4534  -19.2423  -16.4583 C   0  0  0  0  0  0  0  0  0  0  0  0
   24.8352  -18.7650  -16.2851 C   0  0  0  0  0  0  0  0  0  0  0  0
   25.3263  -17.6577  -15.6412 C   0  0  0  0  0  0  0  0  0  0  0  0
   26.6770  -17.6373  -15.6817 N   0  0  0  0  0  0  0  0  0  0  0  0
   27.0269  -18.7407  -16.3547 C   0  0  0  0  0  0  0  0  0  0  0  0
   25.9569  -19.4238  -16.7218 N   0  0  0  0  0  0  0  0  0  0  0  0
   21.1759  -18.3382  -16.8387 C   0  0  0  0  0  0  0  0  0  0  0  0
   20.8675  -17.1567  -17.5235 O   0  0  0  0  0  0  0  0  0  0  0  0
   20.4098  -19.2968  -17.0268 O   0  0  0  0  0  0  0  0  0  0  0  0
  2  1  1  6
  2  3  1  0
  4  3  1  0
  5  4  2  0
  6  5  1  0
  7  6  1  0
  7 12  2  0
  8  7  1  0
  9  8  2  0
  9 10  1  0
 10 11  2  0
 11 12  1  0
 12  4  1  0
 13 14  2  0
 13  2  1  0
 15 13  1  0
 16 15  1  0
 17 18  1  0
 16 17  1  1
 19 18  1  0
 20 19  2  0
 21 16  1  0
 21 24  1  0
 22 21  2  0
 23 19  1  0
 25 24  1  0
 25 32  1  0
 26 27  1  0
 25 26  1  6
 27 31  1  0
 28 27  2  0
 28 29  1  0
 29 30  1  0
 31 30  2  0
 32 34  2  0
 32 33  1  0
M  END
$$$$
