WEH.pdb
     RDKit          3D

 34 36  0  0  1  0  0  0  0  0999 V2000
   27.6309  -22.0880  -14.5883 N   0  0  0  0  0  0  0  0  0  0  0  0
   26.5850  -21.5868  -13.7464 C   0  0  1  0  0  0  0  0  0  0  0  0
   26.8457  -20.1466  -13.3509 C   0  0  0  0  0  0  0  0  0  0  0  0
   27.6791  -20.2188  -12.1003 C   0  0  0  0  0  0  0  0  0  0  0  0
   29.0649  -20.3062  -12.0304 C   0  0  0  0  0  0  0  0  0  0  0  0
   29.4587  -20.3539  -10.7608 N   0  0  0  0  0  0  0  0  0  0  0  0
   28.3678  -20.3000   -9.9901 C   0  0  0  0  0  0  0  0  0  0  0  0
   28.2107  -20.3153   -8.6260 C   0  0  0  0  0  0  0  0  0  0  0  0
   26.9677  -20.2493   -8.0328 C   0  0  0  0  0  0  0  0  0  0  0  0
   25.8548  -20.1655   -8.8335 C   0  0  0  0  0  0  0  0  0  0  0  0
   26.0020  -20.1491  -10.2208 C   0  0  0  0  0  0  0  0  0  0  0  0
   27.2435  -20.2155  -10.7929 C   0  0  0  0  0  0  0  0  0  0  0  0
   25.2767  -21.7968  -14.3716 C   0  0  0  0  0  0  0  0  0  0  0  0
   25.0943  -21.3986  -15.5511 O   0  0  0  0  0  0  0  0  0  0  0  0
   24.1739  -22.4246  -13.7476 N   0  0  0  0  0  0  0  0  0  0  0  0
   22.9214  -22.6753  -14.4730 C   0  0  1  0  0  0  0  0  0  0  0  0
   22.3950  -23.9944  -14.0401 C   0  0  0  0  0  0  0  0  0  0  0  0
   22.4441  -24.9701  -15.1803 C   0  0  0  0  0  0  0  0  0  0  0  0
   23.7905  -25.3047  -15.6418 C   0  0  0  0  0  0  0  0  0  0  0  0
   24.7582  -25.4920  -14.8825 O   0  0  0  0  0  0  0  0  0  0  0  0
   21.9585  -21.5627  -14.2418 C   0  0  0  0  0  0  0  0  0  0  0  0
   21.9828  -21.0040  -13.1239 O   0  0  0  0  0  0  0  0  0  0  0  0
   24.0464  -25.4305  -17.0053 O   0  0  0  0  0  0  0  0  0  0  0  0
   21.0408  -21.1173  -15.2000 N   0  0  0  0  0  0  0  0  0  0  0  0
   20.1824  -19.9297  -14.9211 C   0  0  1  0  0  0  0  0  0  0  0  0
   20.3583  -19.0133  -16.0698 C   0  0  0  0  0  0  0  0  0  0  0  0
   21.5593  -18.1620  -16.0678 C   0  0  0  0  0  0  0  0  0  0  0  0
   22.5561  -18.0215  -15.1359 C   0  0  0  0  0  0  0  0  0  0  0  0
   23.5038  -17.1620  -15.5713 N   0  0  0  0  0  0  0  0  0  0  0  0
   23.0927  -16.7669  -16.7827 C   0  0  0  0  0  0  0  0  0  0  0  0
   21.9465  -17.3435  -17.0989 N   0  0  0  0  0  0  0  0  0  0  0  0
   18.8100  -20.5003  -14.8285 C   0  0  0  0  0  0  0  0  0  0  0  0
   17.7884  -19.7241  -14.2684 O   0  0  0  0  0  0  0  0  0  0  0  0
   18.4869  -21.6347  -15.2158 O   0  0  0  0  0  0  0  0  0  0  0  0
  2  1  1  6
  2  3  1  0
  4  3  1  0
  5  4  2  0
  6  5  1  0
  7  6  1  0
  7 12  2  0
  8  7  1  0
  9  8  2  0
  9 10  1  0
 10 11  2  0
 11 12  1  0
 12  4  1  0
 13 14  2  0
 13  2  1  0
 15 13  1  0
 16 15  1  0
 17 18  1  0
 16 17  1  1
 19 18  1  0
 20 19  2  0
 21 16  1  0
 21 24  1  0
 22 21  2  0
 23 19  1  0
 25 24  1  0
 25 32  1  0
 26 27  1  0
 25 26  1  6
 27 31  1  0
 28 27  2  0
 28 29  1  0
 29 30  1  0
 31 30  2  0
 32 34  2  0
 32 33  1  0
M  END
$$$$
