WEH.pdb
     RDKit          3D

 34 36  0  0  1  0  0  0  0  0999 V2000
   25.8877  -17.2608  -19.1304 N   0  0  0  0  0  0  0  0  0  0  0  0
   25.6551  -17.0628  -17.7303 C   0  0  1  0  0  0  0  0  0  0  0  0
   26.0483  -15.6619  -17.3045 C   0  0  0  0  0  0  0  0  0  0  0  0
   27.5212  -15.5540  -17.5922 C   0  0  0  0  0  0  0  0  0  0  0  0
   28.1583  -14.5329  -18.2882 C   0  0  0  0  0  0  0  0  0  0  0  0
   29.4660  -14.7674  -18.3528 N   0  0  0  0  0  0  0  0  0  0  0  0
   29.7089  -15.9179  -17.7169 C   0  0  0  0  0  0  0  0  0  0  0  0
   30.8736  -16.6097  -17.4920 C   0  0  0  0  0  0  0  0  0  0  0  0
   30.8934  -17.8012  -16.7982 C   0  0  0  0  0  0  0  0  0  0  0  0
   29.7105  -18.3086  -16.3186 C   0  0  0  0  0  0  0  0  0  0  0  0
   28.5209  -17.6145  -16.5409 C   0  0  0  0  0  0  0  0  0  0  0  0
   28.5195  -16.4331  -17.2317 C   0  0  0  0  0  0  0  0  0  0  0  0
   24.2765  -17.4172  -17.3830 C   0  0  0  0  0  0  0  0  0  0  0  0
   23.3747  -17.2763  -18.2491 O   0  0  0  0  0  0  0  0  0  0  0  0
   23.8621  -17.9167  -16.1267 N   0  0  0  0  0  0  0  0  0  0  0  0
   22.4693  -18.3127  -15.8791 C   0  0  1  0  0  0  0  0  0  0  0  0
   22.4441  -19.1756  -14.6712 C   0  0  0  0  0  0  0  0  0  0  0  0
   21.0601  -19.7139  -14.4492 C   0  0  0  0  0  0  0  0  0  0  0  0
   20.9216  -20.5832  -13.2818 C   0  0  0  0  0  0  0  0  0  0  0  0
   20.6803  -20.1701  -12.1332 O   0  0  0  0  0  0  0  0  0  0  0  0
   21.6045  -17.1071  -15.7484 C   0  0  0  0  0  0  0  0  0  0  0  0
   21.9935  -16.2008  -14.9803 O   0  0  0  0  0  0  0  0  0  0  0  0
   21.0611  -21.9621  -13.4217 O   0  0  0  0  0  0  0  0  0  0  0  0
   20.3953  -16.9400  -16.4328 N   0  0  0  0  0  0  0  0  0  0  0  0
   19.6137  -15.6791  -16.2776 C   0  0  1  0  0  0  0  0  0  0  0  0
   19.2356  -15.2558  -17.6443 C   0  0  0  0  0  0  0  0  0  0  0  0
   18.4374  -14.0249  -17.7660 C   0  0  0  0  0  0  0  0  0  0  0  0
   18.5860  -12.9388  -18.5908 C   0  0  0  0  0  0  0  0  0  0  0  0
   17.5841  -12.0515  -18.4028 N   0  0  0  0  0  0  0  0  0  0  0  0
   16.8072  -12.5914  -17.4553 C   0  0  0  0  0  0  0  0  0  0  0  0
   17.2899  -13.7572  -17.0627 N   0  0  0  0  0  0  0  0  0  0  0  0
   18.4486  -16.0864  -15.4444 C   0  0  0  0  0  0  0  0  0  0  0  0
   18.0365  -17.4243  -15.4613 O   0  0  0  0  0  0  0  0  0  0  0  0
   17.7954  -15.3208  -14.7175 O   0  0  0  0  0  0  0  0  0  0  0  0
  2  1  1  6
  2  3  1  0
  4  3  1  0
  5  4  2  0
  6  5  1  0
  7  6  1  0
  7 12  2  0
  8  7  1  0
  9  8  2  0
  9 10  1  0
 10 11  2  0
 11 12  1  0
 12  4  1  0
 13 14  2  0
 13  2  1  0
 15 13  1  0
 16 15  1  0
 17 18  1  0
 16 17  1  1
 19 18  1  0
 20 19  2  0
 21 16  1  0
 21 24  1  0
 22 21  2  0
 23 19  1  0
 25 24  1  0
 25 32  1  0
 26 27  1  0
 25 26  1  6
 27 31  1  0
 28 27  2  0
 28 29  1  0
 29 30  1  0
 31 30  2  0
 32 34  2  0
 32 33  1  0
M  END
$$$$
