WEH.pdb
     RDKit          3D

 34 36  0  0  1  0  0  0  0  0999 V2000
   22.0191  -23.0982  -14.4857 N   0  0  0  0  0  0  0  0  0  0  0  0
   21.1854  -22.2214  -13.7176 C   0  0  1  0  0  0  0  0  0  0  0  0
   20.6296  -21.1040  -14.5783 C   0  0  0  0  0  0  0  0  0  0  0  0
   21.8230  -20.4916  -15.2601 C   0  0  0  0  0  0  0  0  0  0  0  0
   23.1064  -21.0226  -15.3220 C   0  0  0  0  0  0  0  0  0  0  0  0
   23.9077  -20.2090  -16.0041 N   0  0  0  0  0  0  0  0  0  0  0  0
   23.1858  -19.1538  -16.3945 C   0  0  0  0  0  0  0  0  0  0  0  0
   23.5196  -18.0346  -17.1168 C   0  0  0  0  0  0  0  0  0  0  0  0
   22.5977  -17.0521  -17.4097 C   0  0  0  0  0  0  0  0  0  0  0  0
   21.3069  -17.2003  -16.9641 C   0  0  0  0  0  0  0  0  0  0  0  0
   20.9559  -18.3332  -16.2294 C   0  0  0  0  0  0  0  0  0  0  0  0
   21.8839  -19.2988  -15.9476 C   0  0  0  0  0  0  0  0  0  0  0  0
   20.1554  -22.9833  -13.0068 C   0  0  0  0  0  0  0  0  0  0  0  0
   19.4886  -23.8430  -13.6389 O   0  0  0  0  0  0  0  0  0  0  0  0
   19.8385  -22.8318  -11.6370 N   0  0  0  0  0  0  0  0  0  0  0  0
   18.5298  -23.2314  -11.1026 C   0  0  1  0  0  0  0  0  0  0  0  0
   18.6228  -23.2458   -9.6210 C   0  0  0  0  0  0  0  0  0  0  0  0
   19.1749  -24.5605   -9.1504 C   0  0  0  0  0  0  0  0  0  0  0  0
   19.2841  -24.6938   -7.6985 C   0  0  0  0  0  0  0  0  0  0  0  0
   19.0284  -23.7780   -6.8960 O   0  0  0  0  0  0  0  0  0  0  0  0
   17.4652  -22.3206  -11.6079 C   0  0  0  0  0  0  0  0  0  0  0  0
   17.8288  -21.2443  -12.1295 O   0  0  0  0  0  0  0  0  0  0  0  0
   19.6957  -25.9020   -7.1406 O   0  0  0  0  0  0  0  0  0  0  0  0
   16.0971  -22.6052  -11.5295 N   0  0  0  0  0  0  0  0  0  0  0  0
   15.2020  -22.3084  -12.6852 C   0  0  1  0  0  0  0  0  0  0  0  0
   15.9417  -22.7224  -13.8983 C   0  0  0  0  0  0  0  0  0  0  0  0
   16.1892  -21.6878  -14.9159 C   0  0  0  0  0  0  0  0  0  0  0  0
   15.8131  -20.3693  -14.9626 C   0  0  0  0  0  0  0  0  0  0  0  0
   16.3077  -19.7670  -16.0668 N   0  0  0  0  0  0  0  0  0  0  0  0
   16.9967  -20.7184  -16.7095 C   0  0  0  0  0  0  0  0  0  0  0  0
   16.9420  -21.8620  -16.0498 N   0  0  0  0  0  0  0  0  0  0  0  0
   13.9953  -23.1397  -12.4195 C   0  0  0  0  0  0  0  0  0  0  0  0
   14.1596  -24.4245  -11.8884 O   0  0  0  0  0  0  0  0  0  0  0  0
   12.8265  -22.7806  -12.6344 O   0  0  0  0  0  0  0  0  0  0  0  0
  2  1  1  6
  2  3  1  0
  4  3  1  0
  5  4  2  0
  6  5  1  0
  7  6  1  0
  7 12  2  0
  8  7  1  0
  9  8  2  0
  9 10  1  0
 10 11  2  0
 11 12  1  0
 12  4  1  0
 13 14  2  0
 13  2  1  0
 15 13  1  0
 16 15  1  0
 17 18  1  0
 16 17  1  1
 19 18  1  0
 20 19  2  0
 21 16  1  0
 21 24  1  0
 22 21  2  0
 23 19  1  0
 25 24  1  0
 25 32  1  0
 26 27  1  0
 25 26  1  6
 27 31  1  0
 28 27  2  0
 28 29  1  0
 29 30  1  0
 31 30  2  0
 32 34  2  0
 32 33  1  0
M  END
$$$$
