DNH.pdb
     RDKit          3D

 27 27  0  0  1  0  0  0  0  0999 V2000
   17.5016  -14.3214  -15.3662 N   0  0  0  0  0  0  0  0  0  0  0  0
   17.4177  -12.9710  -15.8262 C   0  0  1  0  0  0  0  0  0  0  0  0
   16.2157  -12.2451  -15.2002 C   0  0  0  0  0  0  0  0  0  0  0  0
   14.9558  -12.9061  -15.6002 C   0  0  0  0  0  0  0  0  0  0  0  0
   14.9738  -13.7198  -16.5594 O   0  0  0  0  0  0  0  0  0  0  0  0
   18.6043  -12.1567  -15.4211 C   0  0  0  0  0  0  0  0  0  0  0  0
   18.9129  -12.0795  -14.2014 O   0  0  0  0  0  0  0  0  0  0  0  0
   13.7496  -12.6846  -14.9816 O   0  0  0  0  0  0  0  0  0  0  0  0
   22.2238  -12.7265  -14.9134 N   0  0  0  0  0  0  0  0  0  0  0  0
   22.4810  -12.3903  -16.3124 C   0  0  0  0  0  0  0  0  0  0  0  0
   23.3627  -13.0810  -16.8577 O   0  0  0  0  0  0  0  0  0  0  0  0
   21.6766  -11.3133  -16.8439 C   0  0  0  0  0  0  0  0  0  0  0  0
   20.6164  -10.7026  -15.9866 C   0  0  2  0  0  0  0  0  0  0  0  0
   19.3928  -11.4712  -16.3485 N   0  0  0  0  0  0  0  0  0  0  0  0
   20.3039   -9.2955  -16.3144 C   0  0  0  0  0  0  0  0  0  0  0  0
   19.7602   -9.0746  -17.4600 O   0  0  0  0  0  0  0  0  0  0  0  0
   20.5258   -8.1687  -15.5205 N   0  0  0  0  0  0  0  0  0  0  0  0
   20.1830   -6.8081  -15.9799 C   0  0  1  0  0  0  0  0  0  0  0  0
   20.3852   -5.8382  -14.8632 C   0  0  0  0  0  0  0  0  0  0  0  0
   20.0701   -4.4486  -15.2375 C   0  0  0  0  0  0  0  0  0  0  0  0
   20.7661   -3.5835  -16.0808 C   0  0  0  0  0  0  0  0  0  0  0  0
   20.1314   -2.4010  -16.1470 N   0  0  0  0  0  0  0  0  0  0  0  0
   19.0437   -2.4977  -15.3607 C   0  0  0  0  0  0  0  0  0  0  0  0
   19.0127   -3.7303  -14.8173 N   0  0  0  0  0  0  0  0  0  0  0  0
   20.9895   -6.4302  -17.1486 C   0  0  0  0  0  0  0  0  0  0  0  0
   22.2008   -6.7371  -17.2542 O   0  0  0  0  0  0  0  0  0  0  0  0
   20.3882   -5.7098  -18.1681 O   0  0  0  0  0  0  0  0  0  0  0  0
  2  1  1  1
  2  3  1  0
  4  3  1  0
  4  5  2  0
  6  2  1  0
  7  6  2  0
  8  4  1  0
 10  9  1  0
 11 10  2  0
 12 10  1  0
 13 12  1  6
 13 14  1  0
 14  6  1  0
 15 13  1  0
 15 16  2  0
 17 15  1  0
 18 17  1  0
 18 19  1  1
 19 20  1  0
 20 21  2  0
 21 22  1  0
 23 22  1  0
 24 20  1  0
 24 23  2  0
 25 18  1  0
 26 25  2  0
 27 25  1  0
M  END
$$$$
