DNH.pdb
     RDKit          3D

 27 27  0  0  1  0  0  0  0  0999 V2000
   16.4781  -10.2084  -14.0565 N   0  0  0  0  0  0  0  0  0  0  0  0
   17.8756  -10.1745  -14.3532 C   0  0  1  0  0  0  0  0  0  0  0  0
   18.1625  -10.7662  -15.7429 C   0  0  0  0  0  0  0  0  0  0  0  0
   17.8710  -12.2151  -15.7504 C   0  0  0  0  0  0  0  0  0  0  0  0
   18.1017  -12.8872  -14.7125 O   0  0  0  0  0  0  0  0  0  0  0  0
   18.4102   -8.7797  -14.4182 C   0  0  0  0  0  0  0  0  0  0  0  0
   17.6205   -7.8262  -14.6549 O   0  0  0  0  0  0  0  0  0  0  0  0
   17.3568  -12.8831  -16.8349 O   0  0  0  0  0  0  0  0  0  0  0  0
   21.7591   -4.7682  -13.7168 N   0  0  0  0  0  0  0  0  0  0  0  0
   21.9239   -5.8484  -12.7460 C   0  0  0  0  0  0  0  0  0  0  0  0
   22.7081   -5.5914  -11.8129 O   0  0  0  0  0  0  0  0  0  0  0  0
   21.1552   -7.0420  -13.0180 C   0  0  0  0  0  0  0  0  0  0  0  0
   20.3238   -7.1080  -14.2575 C   0  0  2  0  0  0  0  0  0  0  0  0
   19.7626   -8.4874  -14.2252 N   0  0  0  0  0  0  0  0  0  0  0  0
   21.0978   -7.0316  -15.5145 C   0  0  0  0  0  0  0  0  0  0  0  0
   22.0229   -7.9113  -15.6796 O   0  0  0  0  0  0  0  0  0  0  0  0
   20.9402   -6.1139  -16.5549 N   0  0  0  0  0  0  0  0  0  0  0  0
   21.7867   -6.1490  -17.7640 C   0  0  1  0  0  0  0  0  0  0  0  0
   20.9264   -6.0408  -18.9792 C   0  0  0  0  0  0  0  0  0  0  0  0
   20.1634   -7.2691  -19.2611 C   0  0  0  0  0  0  0  0  0  0  0  0
   20.2312   -8.5124  -18.6336 C   0  0  0  0  0  0  0  0  0  0  0  0
   19.3595   -9.3607  -19.2048 N   0  0  0  0  0  0  0  0  0  0  0  0
   18.7379   -8.6796  -20.1848 C   0  0  0  0  0  0  0  0  0  0  0  0
   19.2254   -7.4238  -20.2134 N   0  0  0  0  0  0  0  0  0  0  0  0
   22.7853   -5.0714  -17.7368 C   0  0  0  0  0  0  0  0  0  0  0  0
   22.5719   -3.9746  -17.1677 O   0  0  0  0  0  0  0  0  0  0  0  0
   24.0044   -5.2771  -18.3625 O   0  0  0  0  0  0  0  0  0  0  0  0
  2  1  1  6
  2  3  1  0
  4  3  1  0
  4  5  2  0
  6  2  1  0
  7  6  2  0
  8  4  1  0
 10  9  1  0
 11 10  2  0
 12 10  1  0
 13 12  1  1
 13 14  1  0
 14  6  1  0
 15 13  1  0
 15 16  2  0
 17 15  1  0
 18 17  1  0
 18 19  1  6
 19 20  1  0
 20 21  2  0
 21 22  1  0
 23 22  1  0
 24 20  1  0
 24 23  2  0
 25 18  1  0
 26 25  2  0
 27 25  1  0
M  END
$$$$
