DNH.pdb
     RDKit          3D

 27 27  0  0  1  0  0  0  0  0999 V2000
   22.1069  -13.8776  -18.0518 N   0  0  0  0  0  0  0  0  0  0  0  0
   21.2540  -12.9518  -17.3754 C   0  0  1  0  0  0  0  0  0  0  0  0
   20.3280  -13.6735  -16.3827 C   0  0  0  0  0  0  0  0  0  0  0  0
   19.3253  -14.4774  -17.1124 C   0  0  0  0  0  0  0  0  0  0  0  0
   18.4257  -15.0661  -16.4594 O   0  0  0  0  0  0  0  0  0  0  0  0
   22.0204  -11.9782  -16.5387 C   0  0  0  0  0  0  0  0  0  0  0  0
   21.5026  -11.5330  -15.4792 O   0  0  0  0  0  0  0  0  0  0  0  0
   19.3140  -14.6240  -18.4782 O   0  0  0  0  0  0  0  0  0  0  0  0
   26.2359   -9.2944  -14.7864 N   0  0  0  0  0  0  0  0  0  0  0  0
   26.6058  -10.1370  -15.9221 C   0  0  0  0  0  0  0  0  0  0  0  0
   27.8240  -10.1510  -16.1819 O   0  0  0  0  0  0  0  0  0  0  0  0
   25.5058  -10.8199  -16.5649 C   0  0  0  0  0  0  0  0  0  0  0  0
   24.1205  -10.6281  -16.0395 C   0  0  2  0  0  0  0  0  0  0  0  0
   23.2997  -11.5377  -16.8867 N   0  0  0  0  0  0  0  0  0  0  0  0
   23.5649   -9.2773  -16.2664 C   0  0  0  0  0  0  0  0  0  0  0  0
   23.4908   -8.8791  -17.4882 O   0  0  0  0  0  0  0  0  0  0  0  0
   23.1026   -8.3763  -15.3053 N   0  0  0  0  0  0  0  0  0  0  0  0
   22.6025   -7.0350  -15.6667 C   0  0  1  0  0  0  0  0  0  0  0  0
   21.4568   -6.6737  -14.7803 C   0  0  0  0  0  0  0  0  0  0  0  0
   20.8744   -5.3570  -15.0926 C   0  0  0  0  0  0  0  0  0  0  0  0
   20.8419   -4.6733  -16.3073 C   0  0  0  0  0  0  0  0  0  0  0  0
   20.2116   -3.4967  -16.1526 N   0  0  0  0  0  0  0  0  0  0  0  0
   19.8422   -3.4191  -14.8610 C   0  0  0  0  0  0  0  0  0  0  0  0
   20.2434   -4.5398  -14.2297 N   0  0  0  0  0  0  0  0  0  0  0  0
   23.6719   -6.0322  -15.5683 C   0  0  0  0  0  0  0  0  0  0  0  0
   24.5054   -6.0315  -14.6314 O   0  0  0  0  0  0  0  0  0  0  0  0
   23.7602   -5.0543  -16.5460 O   0  0  0  0  0  0  0  0  0  0  0  0
  2  1  1  1
  2  3  1  0
  4  3  1  0
  4  5  2  0
  6  2  1  0
  7  6  2  0
  8  4  1  0
 10  9  1  0
 11 10  2  0
 12 10  1  0
 13 12  1  6
 13 14  1  0
 14  6  1  0
 15 13  1  0
 15 16  2  0
 17 15  1  0
 18 17  1  0
 18 19  1  1
 19 20  1  0
 20 21  2  0
 21 22  1  0
 23 22  1  0
 24 20  1  0
 24 23  2  0
 25 18  1  0
 26 25  2  0
 27 25  1  0
M  END
$$$$
