DNH.pdb
     RDKit          3D

 27 27  0  0  1  0  0  0  0  0999 V2000
   18.7682  -11.9948  -15.5546 N   0  0  0  0  0  0  0  0  0  0  0  0
   18.5748  -10.8301  -16.3597 C   0  0  1  0  0  0  0  0  0  0  0  0
   17.0794  -10.5224  -16.5406 C   0  0  0  0  0  0  0  0  0  0  0  0
   16.3880  -11.6847  -17.1367 C   0  0  0  0  0  0  0  0  0  0  0  0
   16.9218  -12.2763  -18.1100 O   0  0  0  0  0  0  0  0  0  0  0  0
   19.1402   -9.5996  -15.7260 C   0  0  0  0  0  0  0  0  0  0  0  0
   18.6572   -9.1884  -14.6368 O   0  0  0  0  0  0  0  0  0  0  0  0
   15.1821  -12.1661  -16.6883 O   0  0  0  0  0  0  0  0  0  0  0  0
   21.0914   -8.7488  -12.9785 N   0  0  0  0  0  0  0  0  0  0  0  0
   22.2712   -8.9728  -13.8118 C   0  0  0  0  0  0  0  0  0  0  0  0
   23.1918   -9.5960  -13.2498 O   0  0  0  0  0  0  0  0  0  0  0  0
   22.1874   -8.4387  -15.1524 C   0  0  0  0  0  0  0  0  0  0  0  0
   20.9210   -7.7843  -15.5995 C   0  0  2  0  0  0  0  0  0  0  0  0
   20.1926   -8.8802  -16.2976 N   0  0  0  0  0  0  0  0  0  0  0  0
   21.1074   -6.7296  -16.6182 C   0  0  0  0  0  0  0  0  0  0  0  0
   21.7338   -5.6685  -16.2457 O   0  0  0  0  0  0  0  0  0  0  0  0
   20.6855   -6.7497  -17.9489 N   0  0  0  0  0  0  0  0  0  0  0  0
   20.0621   -5.5747  -18.5899 C   0  0  1  0  0  0  0  0  0  0  0  0
   18.8666   -5.1519  -17.8020 C   0  0  0  0  0  0  0  0  0  0  0  0
   18.1128   -4.0557  -18.4349 C   0  0  0  0  0  0  0  0  0  0  0  0
   18.2984   -3.4646  -19.6840 C   0  0  0  0  0  0  0  0  0  0  0  0
   17.3882   -2.4938  -19.8699 N   0  0  0  0  0  0  0  0  0  0  0  0
   16.6263   -2.4562  -18.7614 C   0  0  0  0  0  0  0  0  0  0  0  0
   17.0667   -3.3970  -17.9033 N   0  0  0  0  0  0  0  0  0  0  0  0
   21.0235   -4.4700  -18.7085 C   0  0  0  0  0  0  0  0  0  0  0  0
   21.2677   -3.9092  -19.8032 O   0  0  0  0  0  0  0  0  0  0  0  0
   21.6818   -4.0346  -17.5696 O   0  0  0  0  0  0  0  0  0  0  0  0
  2  1  1  1
  2  3  1  0
  4  3  1  0
  4  5  2  0
  6  2  1  0
  7  6  2  0
  8  4  1  0
 10  9  1  0
 11 10  2  0
 12 10  1  0
 13 12  1  6
 13 14  1  0
 14  6  1  0
 15 13  1  0
 15 16  2  0
 17 15  1  0
 18 17  1  0
 18 19  1  1
 19 20  1  0
 20 21  2  0
 21 22  1  0
 23 22  1  0
 24 20  1  0
 24 23  2  0
 25 18  1  0
 26 25  2  0
 27 25  1  0
M  END
$$$$
