DNH.pdb
     RDKit          3D

 27 27  0  0  1  0  0  0  0  0999 V2000
   19.1361  -15.5623  -18.4886 N   0  0  0  0  0  0  0  0  0  0  0  0
   20.0598  -14.7777  -17.7315 C   0  0  1  0  0  0  0  0  0  0  0  0
   21.4992  -15.2864  -17.9128 C   0  0  0  0  0  0  0  0  0  0  0  0
   21.5982  -16.6988  -17.4890 C   0  0  0  0  0  0  0  0  0  0  0  0
   20.5723  -17.2728  -17.0414 O   0  0  0  0  0  0  0  0  0  0  0  0
   20.1021  -13.3534  -18.1843 C   0  0  0  0  0  0  0  0  0  0  0  0
   19.6705  -13.0570  -19.3309 O   0  0  0  0  0  0  0  0  0  0  0  0
   22.7565  -17.4343  -17.5541 O   0  0  0  0  0  0  0  0  0  0  0  0
   17.4570   -8.8592  -17.4320 N   0  0  0  0  0  0  0  0  0  0  0  0
   18.6733   -9.2474  -18.1437 C   0  0  0  0  0  0  0  0  0  0  0  0
   19.1688   -8.3496  -18.8509 O   0  0  0  0  0  0  0  0  0  0  0  0
   19.1104  -10.6067  -17.9179 C   0  0  0  0  0  0  0  0  0  0  0  0
   20.5690  -10.8871  -17.7576 C   0  0  2  0  0  0  0  0  0  0  0  0
   20.6053  -12.3277  -17.3803 N   0  0  0  0  0  0  0  0  0  0  0  0
   21.2060  -10.1731  -16.6310 C   0  0  0  0  0  0  0  0  0  0  0  0
   20.8205  -10.4984  -15.4468 O   0  0  0  0  0  0  0  0  0  0  0  0
   22.1879   -9.1828  -16.6991 N   0  0  0  0  0  0  0  0  0  0  0  0
   22.7089   -8.5133  -15.4908 C   0  0  1  0  0  0  0  0  0  0  0  0
   24.1574   -8.2036  -15.6768 C   0  0  0  0  0  0  0  0  0  0  0  0
   25.0008   -9.4079  -15.7706 C   0  0  0  0  0  0  0  0  0  0  0  0
   24.6229  -10.7500  -15.7803 C   0  0  0  0  0  0  0  0  0  0  0  0
   25.7122  -11.5306  -15.8789 N   0  0  0  0  0  0  0  0  0  0  0  0
   26.7769  -10.7095  -15.9321 C   0  0  0  0  0  0  0  0  0  0  0  0
   26.3427   -9.4356  -15.8666 N   0  0  0  0  0  0  0  0  0  0  0  0
   21.9492   -7.2896  -15.2001 C   0  0  0  0  0  0  0  0  0  0  0  0
   21.1806   -6.7631  -16.0395 O   0  0  0  0  0  0  0  0  0  0  0  0
   22.0886   -6.6991  -13.9544 O   0  0  0  0  0  0  0  0  0  0  0  0
  2  1  1  6
  2  3  1  0
  4  3  1  0
  4  5  2  0
  6  2  1  0
  7  6  2  0
  8  4  1  0
 10  9  1  0
 11 10  2  0
 12 10  1  0
 13 12  1  1
 13 14  1  0
 14  6  1  0
 15 13  1  0
 15 16  2  0
 17 15  1  0
 18 17  1  0
 18 19  1  6
 19 20  1  0
 20 21  2  0
 21 22  1  0
 23 22  1  0
 24 20  1  0
 24 23  2  0
 25 18  1  0
 26 25  2  0
 27 25  1  0
M  END
$$$$
