DNH.pdb
     RDKit          3D

 27 27  0  0  1  0  0  0  0  0999 V2000
   17.6311  -11.6091  -14.8213 N   0  0  0  0  0  0  0  0  0  0  0  0
   17.4065  -10.2148  -14.6031 C   0  0  1  0  0  0  0  0  0  0  0  0
   15.9489   -9.9445  -14.1956 C   0  0  0  0  0  0  0  0  0  0  0  0
   15.0277  -10.4305  -15.2441 C   0  0  0  0  0  0  0  0  0  0  0  0
   14.1238  -11.2465  -14.9289 O   0  0  0  0  0  0  0  0  0  0  0  0
   18.2217   -9.6771  -13.4710 C   0  0  0  0  0  0  0  0  0  0  0  0
   19.2868  -10.2660  -13.1428 O   0  0  0  0  0  0  0  0  0  0  0  0
   15.0976  -10.0415  -16.5596 O   0  0  0  0  0  0  0  0  0  0  0  0
   20.8862   -6.2295  -10.8794 N   0  0  0  0  0  0  0  0  0  0  0  0
   20.9275   -6.5005  -12.3151 C   0  0  0  0  0  0  0  0  0  0  0  0
   21.8961   -5.9919  -12.9109 O   0  0  0  0  0  0  0  0  0  0  0  0
   19.8429   -7.3126  -12.8189 C   0  0  0  0  0  0  0  0  0  0  0  0
   18.7751   -7.7687  -11.8789 C   0  0  2  0  0  0  0  0  0  0  0  0
   17.8474   -8.5373  -12.7551 N   0  0  0  0  0  0  0  0  0  0  0  0
   17.9580   -6.6765  -11.3095 C   0  0  0  0  0  0  0  0  0  0  0  0
   17.3975   -5.8753  -12.1467 O   0  0  0  0  0  0  0  0  0  0  0  0
   17.7159   -6.4111   -9.9604 N   0  0  0  0  0  0  0  0  0  0  0  0
   16.8678   -5.2839   -9.5246 C   0  0  1  0  0  0  0  0  0  0  0  0
   16.2051   -5.6282   -8.2319 C   0  0  0  0  0  0  0  0  0  0  0  0
   15.1534   -6.6501   -8.3733 C   0  0  0  0  0  0  0  0  0  0  0  0
   14.6844   -7.2787   -9.5262 C   0  0  0  0  0  0  0  0  0  0  0  0
   13.7124   -8.1503   -9.2082 N   0  0  0  0  0  0  0  0  0  0  0  0
   13.5541   -8.0878   -7.8734 C   0  0  0  0  0  0  0  0  0  0  0  0
   14.4227   -7.1847   -7.3779 N   0  0  0  0  0  0  0  0  0  0  0  0
   17.6590   -4.0529   -9.3911 C   0  0  0  0  0  0  0  0  0  0  0  0
   18.9090   -4.0460   -9.4904 O   0  0  0  0  0  0  0  0  0  0  0  0
   16.9984   -2.8596   -9.1470 O   0  0  0  0  0  0  0  0  0  0  0  0
  2  1  1  1
  2  3  1  0
  4  3  1  0
  4  5  2  0
  6  2  1  0
  7  6  2  0
  8  4  1  0
 10  9  1  0
 11 10  2  0
 12 10  1  0
 13 12  1  6
 13 14  1  0
 14  6  1  0
 15 13  1  0
 15 16  2  0
 17 15  1  0
 18 17  1  0
 18 19  1  1
 19 20  1  0
 20 21  2  0
 21 22  1  0
 23 22  1  0
 24 20  1  0
 24 23  2  0
 25 18  1  0
 26 25  2  0
 27 25  1  0
M  END
$$$$
