MCS.pdb
     RDKit          3D

 21 20  0  0  1  0  0  0  0  0999 V2000
   24.2460  -22.0697  -19.8195 C   0  0  0  0  0  0  0  0  0  0  0  0
   23.3401  -20.5252  -19.6972 S   0  0  0  0  0  0  0  0  0  0  0  0
   21.9399  -20.6307  -18.5557 C   0  0  0  0  0  0  0  0  0  0  0  0
   22.2991  -21.4323  -17.3086 C   0  0  0  0  0  0  0  0  0  0  0  0
   22.3780  -20.4439  -16.1699 C   0  0  2  0  0  0  0  0  0  0  0  0
   23.7474  -19.9766  -16.1059 N   0  0  0  0  0  0  0  0  0  0  0  0
   21.9143  -21.0093  -14.8872 C   0  0  0  0  0  0  0  0  0  0  0  0
   22.6997  -21.7704  -14.2641 O   0  0  0  0  0  0  0  0  0  0  0  0
   20.6651  -20.7715  -14.2965 N   0  0  0  0  0  0  0  0  0  0  0  0
   20.2064  -21.3259  -13.0458 C   0  0  1  0  0  0  0  0  0  0  0  0
   19.7820  -20.2939  -12.0500 C   0  0  0  0  0  0  0  0  0  0  0  0
   21.1016  -19.0380  -11.8873 S   0  0  0  0  0  0  0  0  0  0  0  0
   19.0921  -22.2866  -13.2407 C   0  0  0  0  0  0  0  0  0  0  0  0
   18.1636  -22.0789  -14.0755 O   0  0  0  0  0  0  0  0  0  0  0  0
   17.2751  -26.5764  -11.7295 O   0  0  0  0  0  0  0  0  0  0  0  0
   18.2262  -25.5720  -11.6288 C   0  0  0  0  0  0  0  0  0  0  0  0
   17.9582  -24.4358  -12.5880 C   0  0  2  0  0  0  0  0  0  0  0  0
   19.0525  -23.4814  -12.4739 N   0  0  0  0  0  0  0  0  0  0  0  0
   16.6625  -23.8101  -12.2155 C   0  0  0  0  0  0  0  0  0  0  0  0
   15.4751  -24.2509  -12.7809 O   0  0  0  0  0  0  0  0  0  0  0  0
   16.5806  -22.8706  -11.3871 O   0  0  0  0  0  0  0  0  0  0  0  0
  2  1  1  0
  3  4  1  0
  3  2  1  0
  4  5  1  0
  5  7  1  0
  5  6  1  1
  7  8  2  0
  9 10  1  0
  9  7  1  0
 10 13  1  0
 10 11  1  1
 12 11  1  0
 13 14  2  0
 13 18  1  0
 16 15  1  0
 17 16  1  1
 18 17  1  0
 19 20  1  0
 19 17  1  0
 21 19  2  0
M  END
$$$$
