MCS.pdb
     RDKit          3D

 21 20  0  0  1  0  0  0  0  0999 V2000
   24.9359  -11.0471  -22.6168 C   0  0  0  0  0  0  0  0  0  0  0  0
   23.7548  -12.3907  -22.4716 S   0  0  0  0  0  0  0  0  0  0  0  0
   23.2503  -12.6891  -20.7596 C   0  0  0  0  0  0  0  0  0  0  0  0
   22.3664  -11.5614  -20.2365 C   0  0  0  0  0  0  0  0  0  0  0  0
   22.2277  -11.7784  -18.7487 C   0  0  2  0  0  0  0  0  0  0  0  0
   21.6275  -13.0833  -18.5629 N   0  0  0  0  0  0  0  0  0  0  0  0
   21.4632  -10.7056  -18.0819 C   0  0  0  0  0  0  0  0  0  0  0  0
   20.2232  -10.6527  -18.2912 O   0  0  0  0  0  0  0  0  0  0  0  0
   22.0011   -9.7317  -17.2285 N   0  0  0  0  0  0  0  0  0  0  0  0
   21.2574   -8.6826  -16.5743 C   0  0  1  0  0  0  0  0  0  0  0  0
   20.2456   -9.1839  -15.5938 C   0  0  0  0  0  0  0  0  0  0  0  0
   21.0843  -10.2221  -14.3433 S   0  0  0  0  0  0  0  0  0  0  0  0
   22.1497   -7.7165  -15.8863 C   0  0  0  0  0  0  0  0  0  0  0  0
   23.3090   -8.0359  -15.4912 O   0  0  0  0  0  0  0  0  0  0  0  0
   23.4530   -4.6191  -17.0833 O   0  0  0  0  0  0  0  0  0  0  0  0
   22.7411   -4.2430  -15.9540 C   0  0  0  0  0  0  0  0  0  0  0  0
   22.5402   -5.3952  -14.9976 C   0  0  2  0  0  0  0  0  0  0  0  0
   21.7029   -6.3881  -15.6570 N   0  0  0  0  0  0  0  0  0  0  0  0
   21.8830   -4.8713  -13.7718 C   0  0  0  0  0  0  0  0  0  0  0  0
   22.5977   -4.1174  -12.8527 O   0  0  0  0  0  0  0  0  0  0  0  0
   20.6728   -5.0810  -13.5131 O   0  0  0  0  0  0  0  0  0  0  0  0
  2  1  1  0
  3  4  1  0
  3  2  1  0
  4  5  1  0
  5  7  1  0
  5  6  1  6
  7  8  2  0
  9 10  1  0
  9  7  1  0
 10 13  1  0
 10 11  1  1
 12 11  1  0
 13 14  2  0
 13 18  1  0
 16 15  1  0
 17 16  1  6
 18 17  1  0
 19 20  1  0
 19 17  1  0
 21 19  2  0
M  END
$$$$
