MCS.pdb
     RDKit          3D

 21 20  0  0  1  0  0  0  0  0999 V2000
   28.2946  -10.9020  -15.7935 C   0  0  0  0  0  0  0  0  0  0  0  0
   26.5193  -11.1642  -15.8223 S   0  0  0  0  0  0  0  0  0  0  0  0
   25.8346  -11.0935  -17.4959 C   0  0  0  0  0  0  0  0  0  0  0  0
   24.8890   -9.9078  -17.6595 C   0  0  0  0  0  0  0  0  0  0  0  0
   23.7257  -10.1538  -16.7289 C   0  0  2  0  0  0  0  0  0  0  0  0
   23.1118  -11.4010  -17.1352 N   0  0  0  0  0  0  0  0  0  0  0  0
   22.7643   -9.0334  -16.7049 C   0  0  0  0  0  0  0  0  0  0  0  0
   22.6022   -8.3773  -17.7668 O   0  0  0  0  0  0  0  0  0  0  0  0
   22.0092   -8.6318  -15.5937 N   0  0  0  0  0  0  0  0  0  0  0  0
   21.0184   -7.5829  -15.5842 C   0  0  1  0  0  0  0  0  0  0  0  0
   19.6846   -8.0200  -15.0679 C   0  0  0  0  0  0  0  0  0  0  0  0
   19.0193   -9.3304  -16.1567 S   0  0  0  0  0  0  0  0  0  0  0  0
   21.4678   -6.4029  -14.8044 C   0  0  0  0  0  0  0  0  0  0  0  0
   22.3174   -6.4978  -13.8708 O   0  0  0  0  0  0  0  0  0  0  0  0
   23.6370   -2.7134  -14.6334 O   0  0  0  0  0  0  0  0  0  0  0  0
   22.9725   -3.8450  -15.0822 C   0  0  0  0  0  0  0  0  0  0  0  0
   21.5431   -3.8966  -14.5952 C   0  0  2  0  0  0  0  0  0  0  0  0
   20.9373   -5.1199  -15.1032 N   0  0  0  0  0  0  0  0  0  0  0  0
   20.8343   -2.6957  -15.1096 C   0  0  0  0  0  0  0  0  0  0  0  0
   20.7849   -1.5286  -14.3619 O   0  0  0  0  0  0  0  0  0  0  0  0
   20.2570   -2.6790  -16.2240 O   0  0  0  0  0  0  0  0  0  0  0  0
  2  1  1  0
  3  4  1  0
  3  2  1  0
  4  5  1  0
  5  7  1  0
  5  6  1  6
  7  8  2  0
  9 10  1  0
  9  7  1  0
 10 13  1  0
 10 11  1  1
 12 11  1  0
 13 14  2  0
 13 18  1  0
 16 15  1  0
 17 16  1  6
 18 17  1  0
 19 20  1  0
 19 17  1  0
 21 19  2  0
M  END
$$$$
