MCS.pdb
     RDKit          3D

 21 20  0  0  1  0  0  0  0  0999 V2000
   21.4547  -18.9312  -14.0216 C   0  0  0  0  0  0  0  0  0  0  0  0
   21.0499  -19.1148  -15.7604 S   0  0  0  0  0  0  0  0  0  0  0  0
   21.7547  -17.7963  -16.7799 C   0  0  0  0  0  0  0  0  0  0  0  0
   22.0695  -16.5579  -15.9466 C   0  0  0  0  0  0  0  0  0  0  0  0
   22.8284  -15.6142  -16.8484 C   0  0  2  0  0  0  0  0  0  0  0  0
   24.0225  -16.3088  -17.2832 N   0  0  0  0  0  0  0  0  0  0  0  0
   23.1313  -14.3223  -16.2008 C   0  0  0  0  0  0  0  0  0  0  0  0
   22.1999  -13.7439  -15.5826 O   0  0  0  0  0  0  0  0  0  0  0  0
   24.3761  -13.6770  -16.2136 N   0  0  0  0  0  0  0  0  0  0  0  0
   24.6671  -12.3978  -15.6126 C   0  0  1  0  0  0  0  0  0  0  0  0
   26.1260  -12.0720  -15.5683 C   0  0  0  0  0  0  0  0  0  0  0  0
   27.0181  -13.4253  -14.7210 S   0  0  0  0  0  0  0  0  0  0  0  0
   23.9518  -11.2899  -16.2935 C   0  0  0  0  0  0  0  0  0  0  0  0
   23.8005  -11.2590  -17.5498 O   0  0  0  0  0  0  0  0  0  0  0  0
   20.4859  -10.1864  -15.4358 O   0  0  0  0  0  0  0  0  0  0  0  0
   21.2667   -9.8400  -16.5285 C   0  0  0  0  0  0  0  0  0  0  0  0
   22.5693   -9.1952  -16.1161 C   0  0  2  0  0  0  0  0  0  0  0  0
   23.4144  -10.2235  -15.5247 N   0  0  0  0  0  0  0  0  0  0  0  0
   22.2651   -8.1229  -15.1328 C   0  0  0  0  0  0  0  0  0  0  0  0
   21.5630   -6.9897  -15.5159 O   0  0  0  0  0  0  0  0  0  0  0  0
   22.6215   -8.1888  -13.9311 O   0  0  0  0  0  0  0  0  0  0  0  0
  2  1  1  0
  3  4  1  0
  3  2  1  0
  4  5  1  0
  5  7  1  0
  5  6  1  1
  7  8  2  0
  9 10  1  0
  9  7  1  0
 10 13  1  0
 10 11  1  6
 12 11  1  0
 13 14  2  0
 13 18  1  0
 16 15  1  0
 17 16  1  1
 18 17  1  0
 19 20  1  0
 19 17  1  0
 21 19  2  0
M  END
$$$$
