MCS.pdb
     RDKit          3D

 21 20  0  0  1  0  0  0  0  0999 V2000
   11.9457   -9.2450   -9.5803 C   0  0  0  0  0  0  0  0  0  0  0  0
   12.1922  -11.0156   -9.7395 S   0  0  0  0  0  0  0  0  0  0  0  0
   12.6688  -11.5018  -11.4161 C   0  0  0  0  0  0  0  0  0  0  0  0
   14.0625  -10.9910  -11.7676 C   0  0  0  0  0  0  0  0  0  0  0  0
   14.3635  -11.4869  -13.1616 C   0  0  2  0  0  0  0  0  0  0  0  0
   14.5807  -12.9157  -13.0677 N   0  0  0  0  0  0  0  0  0  0  0  0
   15.5010  -10.7832  -13.7869 C   0  0  0  0  0  0  0  0  0  0  0  0
   16.5630  -11.4335  -13.9706 O   0  0  0  0  0  0  0  0  0  0  0  0
   15.5031   -9.4426  -14.1978 N   0  0  0  0  0  0  0  0  0  0  0  0
   16.5156   -8.8130  -15.0104 C   0  0  1  0  0  0  0  0  0  0  0  0
   15.9984   -7.6919  -15.8544 C   0  0  0  0  0  0  0  0  0  0  0  0
   17.3757   -6.9930  -16.8340 S   0  0  0  0  0  0  0  0  0  0  0  0
   17.6489   -8.3113  -14.1940 C   0  0  0  0  0  0  0  0  0  0  0  0
   17.4699   -7.6479  -13.1310 O   0  0  0  0  0  0  0  0  0  0  0  0
   21.3224  -10.0509  -14.6096 O   0  0  0  0  0  0  0  0  0  0  0  0
   20.9820   -9.3034  -13.4920 C   0  0  0  0  0  0  0  0  0  0  0  0
   20.1322   -8.1052  -13.8455 C   0  0  2  0  0  0  0  0  0  0  0  0
   18.9822   -8.5760  -14.6053 N   0  0  0  0  0  0  0  0  0  0  0  0
   20.9601   -7.1715  -14.6529 C   0  0  0  0  0  0  0  0  0  0  0  0
   20.6486   -6.9164  -15.9802 O   0  0  0  0  0  0  0  0  0  0  0  0
   21.9621   -6.5796  -14.1827 O   0  0  0  0  0  0  0  0  0  0  0  0
  2  1  1  0
  3  4  1  0
  3  2  1  0
  4  5  1  0
  5  7  1  0
  5  6  1  1
  7  8  2  0
  9 10  1  0
  9  7  1  0
 10 13  1  0
 10 11  1  1
 12 11  1  0
 13 14  2  0
 13 18  1  0
 16 15  1  0
 17 16  1  6
 18 17  1  0
 19 20  1  0
 19 17  1  0
 21 19  2  0
M  END
$$$$
