MCS.pdb
     RDKit          3D

 21 20  0  0  1  0  0  0  0  0999 V2000
   24.0753  -13.6049  -20.1811 C   0  0  0  0  0  0  0  0  0  0  0  0
   23.2415  -12.0648  -19.7887 S   0  0  0  0  0  0  0  0  0  0  0  0
   21.9995  -12.2602  -18.4873 C   0  0  0  0  0  0  0  0  0  0  0  0
   21.3876  -10.9183  -18.0975 C   0  0  0  0  0  0  0  0  0  0  0  0
   20.4854  -11.1839  -16.9163 C   0  0  2  0  0  0  0  0  0  0  0  0
   19.3326  -11.9053  -17.4147 N   0  0  0  0  0  0  0  0  0  0  0  0
   20.1109   -9.9524  -16.1931 C   0  0  0  0  0  0  0  0  0  0  0  0
   19.2288   -9.2161  -16.7070 O   0  0  0  0  0  0  0  0  0  0  0  0
   20.6558   -9.5265  -14.9733 N   0  0  0  0  0  0  0  0  0  0  0  0
   20.3190   -8.3059  -14.2816 C   0  0  1  0  0  0  0  0  0  0  0  0
   20.3150   -8.4400  -12.7921 C   0  0  0  0  0  0  0  0  0  0  0  0
   18.8955   -9.4766  -12.2864 S   0  0  0  0  0  0  0  0  0  0  0  0
   21.2213   -7.1889  -14.6570 C   0  0  0  0  0  0  0  0  0  0  0  0
   22.4709   -7.3470  -14.7821 O   0  0  0  0  0  0  0  0  0  0  0  0
   21.7240   -3.1664  -17.0685 O   0  0  0  0  0  0  0  0  0  0  0  0
   21.0015   -4.2602  -16.6155 C   0  0  0  0  0  0  0  0  0  0  0  0
   21.5137   -4.7711  -15.2890 C   0  0  2  0  0  0  0  0  0  0  0  0
   20.6805   -5.8959  -14.8866 N   0  0  0  0  0  0  0  0  0  0  0  0
   21.4293   -3.6634  -14.3016 C   0  0  0  0  0  0  0  0  0  0  0  0
   20.5317   -3.7233  -13.2458 O   0  0  0  0  0  0  0  0  0  0  0  0
   22.1517   -2.6395  -14.3731 O   0  0  0  0  0  0  0  0  0  0  0  0
  2  1  1  0
  3  4  1  0
  3  2  1  0
  4  5  1  0
  5  7  1  0
  5  6  1  6
  7  8  2  0
  9 10  1  0
  9  7  1  0
 10 13  1  0
 10 11  1  1
 12 11  1  0
 13 14  2  0
 13 18  1  0
 16 15  1  0
 17 16  1  6
 18 17  1  0
 19 20  1  0
 19 17  1  0
 21 19  2  0
M  END
$$$$
