MCS.pdb
     RDKit          3D

 21 20  0  0  1  0  0  0  0  0999 V2000
   18.0650  -14.3462  -18.4412 C   0  0  0  0  0  0  0  0  0  0  0  0
   18.2334  -13.4115  -19.9641 S   0  0  0  0  0  0  0  0  0  0  0  0
   19.5773  -12.2019  -19.8908 C   0  0  0  0  0  0  0  0  0  0  0  0
   19.7313  -11.6271  -18.4861 C   0  0  0  0  0  0  0  0  0  0  0  0
   20.8226  -10.5866  -18.5644 C   0  0  2  0  0  0  0  0  0  0  0  0
   22.0246  -11.2627  -19.0067 N   0  0  0  0  0  0  0  0  0  0  0  0
   21.0176   -9.8640  -17.2917 C   0  0  0  0  0  0  0  0  0  0  0  0
   19.9942   -9.4287  -16.7022 O   0  0  0  0  0  0  0  0  0  0  0  0
   22.2531   -9.6174  -16.6761 N   0  0  0  0  0  0  0  0  0  0  0  0
   22.4545   -8.8505  -15.4706 C   0  0  1  0  0  0  0  0  0  0  0  0
   23.7470   -9.1458  -14.7787 C   0  0  0  0  0  0  0  0  0  0  0  0
   23.7824  -10.9107  -14.3001 S   0  0  0  0  0  0  0  0  0  0  0  0
   22.3714   -7.3902  -15.7222 C   0  0  0  0  0  0  0  0  0  0  0  0
   22.9833   -6.8376  -16.6825 O   0  0  0  0  0  0  0  0  0  0  0  0
   19.3648   -5.2805  -13.8459 O   0  0  0  0  0  0  0  0  0  0  0  0
   19.9304   -4.8405  -15.0333 C   0  0  0  0  0  0  0  0  0  0  0  0
   21.4077   -5.1484  -15.1088 C   0  0  2  0  0  0  0  0  0  0  0  0
   21.5844   -6.5738  -14.8671 N   0  0  0  0  0  0  0  0  0  0  0  0
   22.1033   -4.3406  -14.0731 C   0  0  0  0  0  0  0  0  0  0  0  0
   22.1185   -2.9556  -14.1478 O   0  0  0  0  0  0  0  0  0  0  0  0
   22.6994   -4.8616  -13.0991 O   0  0  0  0  0  0  0  0  0  0  0  0
  2  1  1  0
  3  4  1  0
  3  2  1  0
  4  5  1  0
  5  7  1  0
  5  6  1  1
  7  8  2  0
  9 10  1  0
  9  7  1  0
 10 13  1  0
 10 11  1  6
 12 11  1  0
 13 14  2  0
 13 18  1  0
 16 15  1  0
 17 16  1  1
 18 17  1  0
 19 20  1  0
 19 17  1  0
 21 19  2  0
M  END
$$$$
