MCS.pdb
     RDKit          3D

 21 20  0  0  1  0  0  0  0  0999 V2000
   17.6137  -12.4704  -15.6441 C   0  0  0  0  0  0  0  0  0  0  0  0
   19.2256  -12.5712  -16.4269 S   0  0  0  0  0  0  0  0  0  0  0  0
   20.1117  -10.9937  -16.3961 C   0  0  0  0  0  0  0  0  0  0  0  0
   20.2994  -10.4899  -14.9685 C   0  0  0  0  0  0  0  0  0  0  0  0
   21.0450   -9.1807  -15.0690 C   0  0  2  0  0  0  0  0  0  0  0  0
   22.4143   -9.4964  -15.4196 N   0  0  0  0  0  0  0  0  0  0  0  0
   20.9500   -8.3714  -13.8378 C   0  0  0  0  0  0  0  0  0  0  0  0
   21.5919   -8.7626  -12.8283 O   0  0  0  0  0  0  0  0  0  0  0  0
   20.2012   -7.1948  -13.6923 N   0  0  0  0  0  0  0  0  0  0  0  0
   20.1559   -6.3667  -12.5115 C   0  0  1  0  0  0  0  0  0  0  0  0
   20.9841   -5.1257  -12.6150 C   0  0  0  0  0  0  0  0  0  0  0  0
   20.8471   -4.4520  -14.3099 S   0  0  0  0  0  0  0  0  0  0  0  0
   18.7668   -5.9842  -12.1555 C   0  0  0  0  0  0  0  0  0  0  0  0
   17.9042   -5.6908  -13.0341 O   0  0  0  0  0  0  0  0  0  0  0  0
   15.6524   -5.4107   -8.4259 O   0  0  0  0  0  0  0  0  0  0  0  0
   16.8884   -5.8118   -8.9109 C   0  0  0  0  0  0  0  0  0  0  0  0
   17.0554   -5.4918  -10.3781 C   0  0  2  0  0  0  0  0  0  0  0  0
   18.3780   -5.9416  -10.7903 N   0  0  0  0  0  0  0  0  0  0  0  0
   16.9126   -4.0226  -10.5516 C   0  0  0  0  0  0  0  0  0  0  0  0
   15.6912   -3.4667  -10.9023 O   0  0  0  0  0  0  0  0  0  0  0  0
   17.8713   -3.2283  -10.3924 O   0  0  0  0  0  0  0  0  0  0  0  0
  2  1  1  0
  3  4  1  0
  3  2  1  0
  4  5  1  0
  5  7  1  0
  5  6  1  1
  7  8  2  0
  9 10  1  0
  9  7  1  0
 10 13  1  0
 10 11  1  6
 12 11  1  0
 13 14  2  0
 13 18  1  0
 16 15  1  0
 17 16  1  1
 18 17  1  0
 19 20  1  0
 19 17  1  0
 21 19  2  0
M  END
$$$$
