LNV.pdb
     RDKit          3D

 24 23  0  0  1  0  0  0  0  0999 V2000
   22.3767  -14.3083  -14.7553 C   0  0  0  0  0  0  0  0  0  0  0  0
   23.4366  -13.8273  -15.7569 C   0  0  2  0  0  0  0  0  0  0  0  0
   24.7321  -13.8027  -15.0185 C   0  0  0  0  0  0  0  0  0  0  0  0
   22.9537  -12.5292  -16.2959 C   0  0  0  0  0  0  0  0  0  0  0  0
   21.6435  -12.5048  -16.9763 C   0  0  2  0  0  0  0  0  0  0  0  0
   21.5197  -13.3203  -18.1428 N   0  0  0  0  0  0  0  0  0  0  0  0
   21.3215  -11.1018  -17.3576 C   0  0  0  0  0  0  0  0  0  0  0  0
   21.8857  -10.5467  -18.3241 O   0  0  0  0  0  0  0  0  0  0  0  0
   16.3588   -8.6027  -17.1674 N   0  0  0  0  0  0  0  0  0  0  0  0
   17.5481   -9.3699  -17.1908 C   0  0  0  0  0  0  0  0  0  0  0  0
   17.5273  -10.4848  -16.6269 O   0  0  0  0  0  0  0  0  0  0  0  0
   18.7501   -8.8781  -17.8462 C   0  0  0  0  0  0  0  0  0  0  0  0
   19.9977   -8.9673  -17.0344 C   0  0  2  0  0  0  0  0  0  0  0  0
   20.3563  -10.3002  -16.6544 N   0  0  0  0  0  0  0  0  0  0  0  0
   20.0378   -8.0117  -15.8946 C   0  0  0  0  0  0  0  0  0  0  0  0
   19.8311   -8.4860  -14.7543 O   0  0  0  0  0  0  0  0  0  0  0  0
   22.0463   -4.2811  -13.7056 C   0  0  0  0  0  0  0  0  0  0  0  0
   21.9143   -5.2379  -14.8768 C   0  0  1  0  0  0  0  0  0  0  0  0
   22.9124   -6.3389  -14.6574 C   0  0  0  0  0  0  0  0  0  0  0  0
   20.4871   -5.7160  -14.9337 C   0  0  2  0  0  0  0  0  0  0  0  0
   20.2884   -6.6510  -16.0432 N   0  0  0  0  0  0  0  0  0  0  0  0
   19.5677   -4.5801  -15.0040 C   0  0  0  0  0  0  0  0  0  0  0  0
   19.0616   -3.9566  -13.8777 O   0  0  0  0  0  0  0  0  0  0  0  0
   19.2094   -4.1386  -16.1180 O   0  0  0  0  0  0  0  0  0  0  0  0
  2  1  1  1
  2  3  1  0
  4  2  1  0
  4  5  1  0
  5  7  1  0
  5  6  1  6
  7  8  2  0
  9 10  1  0
 10 11  2  0
 13 12  1  1
 12 10  1  0
 14 13  1  0
 14  7  1  0
 15 13  1  0
 16 15  2  0
 18 17  1  1
 19 18  1  0
 20 18  1  0
 20 21  1  6
 21 15  1  0
 22 23  1  0
 22 20  1  0
 24 22  2  0
M  END
$$$$
