LNV.pdb
     RDKit          3D

 24 23  0  0  1  0  0  0  0  0999 V2000
   18.7189  -23.4870  -14.8699 C   0  0  0  0  0  0  0  0  0  0  0  0
   18.3862  -22.1013  -14.2978 C   0  0  2  0  0  0  0  0  0  0  0  0
   17.2438  -21.5782  -15.1013 C   0  0  0  0  0  0  0  0  0  0  0  0
   19.6445  -21.3114  -14.3386 C   0  0  0  0  0  0  0  0  0  0  0  0
   20.8661  -21.9233  -13.7787 C   0  0  2  0  0  0  0  0  0  0  0  0
   20.8078  -22.3127  -12.4054 N   0  0  0  0  0  0  0  0  0  0  0  0
   22.0018  -20.9741  -13.9415 C   0  0  0  0  0  0  0  0  0  0  0  0
   21.8060  -19.7558  -14.1363 O   0  0  0  0  0  0  0  0  0  0  0  0
   25.5483  -22.3537  -11.1620 N   0  0  0  0  0  0  0  0  0  0  0  0
   25.3349  -21.0813  -11.7442 C   0  0  0  0  0  0  0  0  0  0  0  0
   24.8642  -20.1835  -11.0137 O   0  0  0  0  0  0  0  0  0  0  0  0
   25.6510  -20.8288  -13.1416 C   0  0  0  0  0  0  0  0  0  0  0  0
   24.4850  -20.4813  -14.0037 C   0  0  2  0  0  0  0  0  0  0  0  0
   23.3795  -21.3834  -13.8871 N   0  0  0  0  0  0  0  0  0  0  0  0
   24.8517  -20.1976  -15.4176 C   0  0  0  0  0  0  0  0  0  0  0  0
   25.2043  -21.1760  -16.1152 O   0  0  0  0  0  0  0  0  0  0  0  0
   24.3671  -17.7552  -19.5270 C   0  0  0  0  0  0  0  0  0  0  0  0
   23.9457  -18.0824  -18.1057 C   0  0  1  0  0  0  0  0  0  0  0  0
   22.8074  -19.0581  -18.2000 C   0  0  0  0  0  0  0  0  0  0  0  0
   25.1463  -18.6204  -17.3723 C   0  0  2  0  0  0  0  0  0  0  0  0
   24.8192  -18.9242  -15.9775 N   0  0  0  0  0  0  0  0  0  0  0  0
   26.2723  -17.6927  -17.4808 C   0  0  0  0  0  0  0  0  0  0  0  0
   27.2032  -17.7625  -18.5015 O   0  0  0  0  0  0  0  0  0  0  0  0
   26.4202  -16.7922  -16.6256 O   0  0  0  0  0  0  0  0  0  0  0  0
  2  1  1  6
  2  3  1  0
  4  2  1  0
  4  5  1  0
  5  7  1  0
  5  6  1  1
  7  8  2  0
  9 10  1  0
 10 11  2  0
 13 12  1  1
 12 10  1  0
 14 13  1  0
 14  7  1  0
 15 13  1  0
 16 15  2  0
 18 17  1  6
 19 18  1  0
 20 18  1  0
 20 21  1  1
 21 15  1  0
 22 23  1  0
 22 20  1  0
 24 22  2  0
M  END
$$$$
