LNV.pdb
     RDKit          3D

 24 23  0  0  1  0  0  0  0  0999 V2000
   21.7673  -17.5777   12.8826 C   0  0  0  0  0  0  0  0  0  0  0  0
   21.7021  -18.0259   11.4153 C   0  0  2  0  0  0  0  0  0  0  0  0
   21.1080  -19.3939   11.4198 C   0  0  0  0  0  0  0  0  0  0  0  0
   23.0794  -17.9010   10.8712 C   0  0  0  0  0  0  0  0  0  0  0  0
   23.6805  -16.5539   10.8071 C   0  0  2  0  0  0  0  0  0  0  0  0
   23.0169  -15.6027    9.9728 N   0  0  0  0  0  0  0  0  0  0  0  0
   25.0895  -16.6736   10.3403 C   0  0  0  0  0  0  0  0  0  0  0  0
   25.3716  -16.6745    9.1233 O   0  0  0  0  0  0  0  0  0  0  0  0
   30.2673  -16.7913    9.9674 N   0  0  0  0  0  0  0  0  0  0  0  0
   29.7256  -15.6398   10.5871 C   0  0  0  0  0  0  0  0  0  0  0  0
   30.4742  -14.6478   10.7175 O   0  0  0  0  0  0  0  0  0  0  0  0
   28.3487  -15.6127   11.0557 C   0  0  0  0  0  0  0  0  0  0  0  0
   27.5704  -16.8611   10.8123 C   0  0  2  0  0  0  0  0  0  0  0  0
   26.2056  -16.7943   11.2394 N   0  0  0  0  0  0  0  0  0  0  0  0
   28.2606  -18.0949   11.2766 C   0  0  0  0  0  0  0  0  0  0  0  0
   27.9274  -18.5381   12.3994 O   0  0  0  0  0  0  0  0  0  0  0  0
   28.6372  -21.4100    9.4514 C   0  0  0  0  0  0  0  0  0  0  0  0
   30.0370  -20.9595    9.8283 C   0  0  1  0  0  0  0  0  0  0  0  0
   30.6612  -20.3859    8.5881 C   0  0  0  0  0  0  0  0  0  0  0  0
   29.9237  -19.9738   10.9615 C   0  0  2  0  0  0  0  0  0  0  0  0
   29.2339  -18.7550   10.5329 N   0  0  0  0  0  0  0  0  0  0  0  0
   31.2426  -19.6865   11.5257 C   0  0  0  0  0  0  0  0  0  0  0  0
   32.0015  -20.6418   12.1776 O   0  0  0  0  0  0  0  0  0  0  0  0
   31.7232  -18.5360   11.4280 O   0  0  0  0  0  0  0  0  0  0  0  0
  2  1  1  1
  2  3  1  0
  4  2  1  0
  4  5  1  0
  5  7  1  0
  5  6  1  6
  7  8  2  0
  9 10  1  0
 10 11  2  0
 13 12  1  1
 12 10  1  0
 14 13  1  0
 14  7  1  0
 15 13  1  0
 16 15  2  0
 18 17  1  6
 19 18  1  0
 20 18  1  0
 20 21  1  6
 21 15  1  0
 22 23  1  0
 22 20  1  0
 24 22  2  0
M  END
$$$$
