LNV.pdb
     RDKit          3D

 24 23  0  0  1  0  0  0  0  0999 V2000
   18.4716  -16.5241  -15.1056 C   0  0  0  0  0  0  0  0  0  0  0  0
   17.9484  -16.3195  -16.5347 C   0  0  2  0  0  0  0  0  0  0  0  0
   18.8177  -17.1443  -17.4226 C   0  0  0  0  0  0  0  0  0  0  0  0
   17.9470  -14.8538  -16.7810 C   0  0  0  0  0  0  0  0  0  0  0  0
   16.6950  -14.1104  -16.5361 C   0  0  2  0  0  0  0  0  0  0  0  0
   15.5539  -14.5250  -17.2893 N   0  0  0  0  0  0  0  0  0  0  0  0
   16.9282  -12.6653  -16.8091 C   0  0  0  0  0  0  0  0  0  0  0  0
   16.3547  -12.0829  -17.7538 O   0  0  0  0  0  0  0  0  0  0  0  0
   16.6169   -7.5681  -17.6952 N   0  0  0  0  0  0  0  0  0  0  0  0
   16.9038   -8.2307  -16.4777 C   0  0  0  0  0  0  0  0  0  0  0  0
   17.3065   -7.5339  -15.5219 O   0  0  0  0  0  0  0  0  0  0  0  0
   16.7371   -9.6697  -16.3448 C   0  0  0  0  0  0  0  0  0  0  0  0
   18.0038  -10.4477  -16.2275 C   0  0  2  0  0  0  0  0  0  0  0  0
   17.8132  -11.8513  -16.0198 N   0  0  0  0  0  0  0  0  0  0  0  0
   18.9844   -9.8521  -15.2800 C   0  0  0  0  0  0  0  0  0  0  0  0
   18.7367   -9.9791  -14.0591 O   0  0  0  0  0  0  0  0  0  0  0  0
   23.6294   -9.1739  -14.2943 C   0  0  0  0  0  0  0  0  0  0  0  0
   22.5178   -9.5376  -15.2621 C   0  0  1  0  0  0  0  0  0  0  0  0
   22.4174  -11.0365  -15.2705 C   0  0  0  0  0  0  0  0  0  0  0  0
   21.2574   -8.8481  -14.8099 C   0  0  2  0  0  0  0  0  0  0  0  0
   20.1321   -9.1787  -15.6870 N   0  0  0  0  0  0  0  0  0  0  0  0
   21.4692   -7.4038  -14.7123 C   0  0  0  0  0  0  0  0  0  0  0  0
   22.0419   -6.8050  -13.6047 O   0  0  0  0  0  0  0  0  0  0  0  0
   21.1243   -6.6599  -15.6566 O   0  0  0  0  0  0  0  0  0  0  0  0
  2  1  1  1
  2  3  1  0
  4  2  1  0
  4  5  1  0
  5  7  1  0
  5  6  1  6
  7  8  2  0
  9 10  1  0
 10 11  2  0
 13 12  1  1
 12 10  1  0
 14 13  1  0
 14  7  1  0
 15 13  1  0
 16 15  2  0
 18 17  1  1
 19 18  1  0
 20 18  1  0
 20 21  1  6
 21 15  1  0
 22 23  1  0
 22 20  1  0
 24 22  2  0
M  END
$$$$
