LNV.pdb
     RDKit          3D

 24 23  0  0  1  0  0  0  0  0999 V2000
   19.4646  -15.4540  -22.4579 C   0  0  0  0  0  0  0  0  0  0  0  0
   17.9917  -15.1455  -22.7637 C   0  0  2  0  0  0  0  0  0  0  0  0
   17.9841  -14.3254  -24.0094 C   0  0  0  0  0  0  0  0  0  0  0  0
   17.4291  -14.5081  -21.5447 C   0  0  0  0  0  0  0  0  0  0  0  0
   17.4277  -15.2888  -20.2914 C   0  0  2  0  0  0  0  0  0  0  0  0
   16.5842  -16.4416  -20.2637 N   0  0  0  0  0  0  0  0  0  0  0  0
   17.0294  -14.3983  -19.1663 C   0  0  0  0  0  0  0  0  0  0  0  0
   15.8276  -14.1650  -18.9180 O   0  0  0  0  0  0  0  0  0  0  0  0
   16.1699  -12.6690  -14.1274 N   0  0  0  0  0  0  0  0  0  0  0  0
   17.4354  -12.6119  -14.7590 C   0  0  0  0  0  0  0  0  0  0  0  0
   18.2595  -11.7779  -14.3268 O   0  0  0  0  0  0  0  0  0  0  0  0
   17.7638  -13.4908  -15.8707 C   0  0  0  0  0  0  0  0  0  0  0  0
   17.6193  -12.8832  -17.2248 C   0  0  2  0  0  0  0  0  0  0  0  0
   17.9814  -13.7553  -18.3008 N   0  0  0  0  0  0  0  0  0  0  0  0
   18.2362  -11.5343  -17.3426 C   0  0  0  0  0  0  0  0  0  0  0  0
   19.4561  -11.4954  -17.6229 O   0  0  0  0  0  0  0  0  0  0  0  0
   17.3867   -8.6809  -19.5478 C   0  0  0  0  0  0  0  0  0  0  0  0
   17.3147   -8.1159  -18.1406 C   0  0  1  0  0  0  0  0  0  0  0  0
   15.8598   -8.0347  -17.7752 C   0  0  0  0  0  0  0  0  0  0  0  0
   18.1185   -9.0105  -17.2339 C   0  0  2  0  0  0  0  0  0  0  0  0
   17.5302  -10.3495  -17.1581 N   0  0  0  0  0  0  0  0  0  0  0  0
   18.2662   -8.4019  -15.9118 C   0  0  0  0  0  0  0  0  0  0  0  0
   19.0463   -7.2820  -15.6867 O   0  0  0  0  0  0  0  0  0  0  0  0
   17.6731   -8.8988  -14.9292 O   0  0  0  0  0  0  0  0  0  0  0  0
  2  1  1  1
  2  3  1  0
  4  2  1  0
  4  5  1  0
  5  7  1  0
  5  6  1  6
  7  8  2  0
  9 10  1  0
 10 11  2  0
 13 12  1  1
 12 10  1  0
 14 13  1  0
 14  7  1  0
 15 13  1  0
 16 15  2  0
 18 17  1  6
 19 18  1  0
 20 18  1  0
 20 21  1  1
 21 15  1  0
 22 23  1  0
 22 20  1  0
 24 22  2  0
M  END
$$$$
