LNV.pdb
     RDKit          3D

 24 23  0  0  1  0  0  0  0  0999 V2000
   27.2483  -18.5738   -6.4313 C   0  0  0  0  0  0  0  0  0  0  0  0
   27.5075  -20.0827   -6.3115 C   0  0  2  0  0  0  0  0  0  0  0  0
   28.8508  -20.2294   -5.6802 C   0  0  0  0  0  0  0  0  0  0  0  0
   27.3483  -20.6508   -7.6755 C   0  0  0  0  0  0  0  0  0  0  0  0
   26.0312  -20.5235   -8.3307 C   0  0  2  0  0  0  0  0  0  0  0  0
   24.9597  -21.2691   -7.7502 N   0  0  0  0  0  0  0  0  0  0  0  0
   26.1581  -20.9318   -9.7571 C   0  0  0  0  0  0  0  0  0  0  0  0
   26.8093  -21.9458  -10.0860 O   0  0  0  0  0  0  0  0  0  0  0  0
   25.4345  -23.5254  -14.1033 N   0  0  0  0  0  0  0  0  0  0  0  0
   24.5223  -22.5923  -13.5547 C   0  0  0  0  0  0  0  0  0  0  0  0
   23.5496  -22.2517  -14.2613 O   0  0  0  0  0  0  0  0  0  0  0  0
   24.7111  -22.0494  -12.2184 C   0  0  0  0  0  0  0  0  0  0  0  0
   25.3919  -20.7239  -12.1618 C   0  0  2  0  0  0  0  0  0  0  0  0
   25.5514  -20.2024  -10.8381 N   0  0  0  0  0  0  0  0  0  0  0  0
   24.8329  -19.7247  -13.1122 C   0  0  0  0  0  0  0  0  0  0  0  0
   23.7480  -19.1877  -12.7915 O   0  0  0  0  0  0  0  0  0  0  0  0
   25.6641  -16.6369  -16.8783 C   0  0  0  0  0  0  0  0  0  0  0  0
   26.1176  -17.8766  -16.1284 C   0  0  1  0  0  0  0  0  0  0  0  0
   27.4103  -17.5278  -15.4472 C   0  0  0  0  0  0  0  0  0  0  0  0
   25.0203  -18.2779  -15.1779 C   0  0  2  0  0  0  0  0  0  0  0  0
   25.4511  -19.3751  -14.3088 N   0  0  0  0  0  0  0  0  0  0  0  0
   23.7999  -18.6092  -15.9134 C   0  0  0  0  0  0  0  0  0  0  0  0
   22.7128  -17.7565  -15.9814 O   0  0  0  0  0  0  0  0  0  0  0  0
   23.7126  -19.7040  -16.5116 O   0  0  0  0  0  0  0  0  0  0  0  0
  2  1  1  6
  2  3  1  0
  4  2  1  0
  4  5  1  0
  5  7  1  0
  5  6  1  1
  7  8  2  0
  9 10  1  0
 10 11  2  0
 13 12  1  1
 12 10  1  0
 14 13  1  0
 14  7  1  0
 15 13  1  0
 16 15  2  0
 18 17  1  1
 19 18  1  0
 20 18  1  0
 20 21  1  6
 21 15  1  0
 22 23  1  0
 22 20  1  0
 24 22  2  0
M  END
$$$$
