LNV.pdb
     RDKit          3D

 24 23  0  0  1  0  0  0  0  0999 V2000
   29.0318  -21.3327  -10.3898 C   0  0  0  0  0  0  0  0  0  0  0  0
   28.7462  -21.0368  -11.8693 C   0  0  2  0  0  0  0  0  0  0  0  0
   29.9386  -20.3079  -12.3899 C   0  0  0  0  0  0  0  0  0  0  0  0
   27.4505  -20.3102  -11.9150 C   0  0  0  0  0  0  0  0  0  0  0  0
   26.2642  -20.9702  -11.3341 C   0  0  2  0  0  0  0  0  0  0  0  0
   26.3396  -22.3886  -11.1804 N   0  0  0  0  0  0  0  0  0  0  0  0
   25.0760  -20.6596  -12.1761 C   0  0  0  0  0  0  0  0  0  0  0  0
   24.7497  -19.4803  -12.4276 O   0  0  0  0  0  0  0  0  0  0  0  0
   22.9842  -24.3005  -15.5653 N   0  0  0  0  0  0  0  0  0  0  0  0
   23.7901  -23.2225  -15.1270 C   0  0  0  0  0  0  0  0  0  0  0  0
   24.9875  -23.4657  -14.8653 O   0  0  0  0  0  0  0  0  0  0  0  0
   23.2441  -21.8816  -14.9856 C   0  0  0  0  0  0  0  0  0  0  0  0
   23.1035  -21.3978  -13.5822 C   0  0  2  0  0  0  0  0  0  0  0  0
   24.2347  -21.6754  -12.7498 N   0  0  0  0  0  0  0  0  0  0  0  0
   21.8125  -21.7770  -12.9467 C   0  0  0  0  0  0  0  0  0  0  0  0
   21.7718  -22.8903  -12.3748 O   0  0  0  0  0  0  0  0  0  0  0  0
   20.0070  -20.0888  -10.3028 C   0  0  0  0  0  0  0  0  0  0  0  0
   18.9561  -20.2281  -11.3895 C   0  0  1  0  0  0  0  0  0  0  0  0
   18.8115  -18.8790  -12.0343 C   0  0  0  0  0  0  0  0  0  0  0  0
   19.4028  -21.3090  -12.3387 C   0  0  2  0  0  0  0  0  0  0  0  0
   20.6821  -20.9658  -12.9637 N   0  0  0  0  0  0  0  0  0  0  0  0
   18.3640  -21.5812  -13.3321 C   0  0  0  0  0  0  0  0  0  0  0  0
   17.1577  -22.1762  -13.0091 O   0  0  0  0  0  0  0  0  0  0  0  0
   18.5530  -21.2732  -14.5294 O   0  0  0  0  0  0  0  0  0  0  0  0
  2  1  1  1
  2  3  1  0
  4  2  1  0
  4  5  1  0
  5  7  1  0
  5  6  1  6
  7  8  2  0
  9 10  1  0
 10 11  2  0
 13 12  1  6
 12 10  1  0
 14 13  1  0
 14  7  1  0
 15 13  1  0
 16 15  2  0
 18 17  1  1
 19 18  1  0
 20 18  1  0
 20 21  1  6
 21 15  1  0
 22 23  1  0
 22 20  1  0
 24 22  2  0
M  END
$$$$
