LNV.pdb
     RDKit          3D

 24 23  0  0  1  0  0  0  0  0999 V2000
   17.5937  -15.7508    3.1825 C   0  0  0  0  0  0  0  0  0  0  0  0
   18.4371  -14.5812    2.6545 C   0  0  2  0  0  0  0  0  0  0  0  0
   19.6652  -15.1834    2.0600 C   0  0  0  0  0  0  0  0  0  0  0  0
   18.6383  -13.6526    3.7973 C   0  0  0  0  0  0  0  0  0  0  0  0
   17.4984  -13.4116    4.7044 C   0  0  2  0  0  0  0  0  0  0  0  0
   17.0963  -12.0506    4.8694 N   0  0  0  0  0  0  0  0  0  0  0  0
   17.8239  -13.9631    6.0487 C   0  0  0  0  0  0  0  0  0  0  0  0
   18.4938  -13.3069    6.8741 O   0  0  0  0  0  0  0  0  0  0  0  0
   17.7407  -16.2724   10.6122 N   0  0  0  0  0  0  0  0  0  0  0  0
   16.8342  -16.9754    9.7829 C   0  0  0  0  0  0  0  0  0  0  0  0
   16.2441  -17.9600   10.2767 O   0  0  0  0  0  0  0  0  0  0  0  0
   16.5990  -16.5671    8.4066 C   0  0  0  0  0  0  0  0  0  0  0  0
   17.7202  -15.8225    7.7647 C   0  0  2  0  0  0  0  0  0  0  0  0
   17.3985  -15.2657    6.4857 N   0  0  0  0  0  0  0  0  0  0  0  0
   19.0078  -16.5685    7.7619 C   0  0  0  0  0  0  0  0  0  0  0  0
   19.2159  -17.3293    6.7894 O   0  0  0  0  0  0  0  0  0  0  0  0
   23.6300  -17.0647    9.3525 C   0  0  0  0  0  0  0  0  0  0  0  0
   22.3248  -16.2903    9.3906 C   0  0  1  0  0  0  0  0  0  0  0  0
   22.5603  -14.9988    8.6604 C   0  0  0  0  0  0  0  0  0  0  0  0
   21.2516  -17.1486    8.7739 C   0  0  2  0  0  0  0  0  0  0  0  0
   19.9610  -16.4564    8.7694 N   0  0  0  0  0  0  0  0  0  0  0  0
   21.1763  -18.4426    9.4522 C   0  0  0  0  0  0  0  0  0  0  0  0
   21.7042  -19.6017    8.9127 O   0  0  0  0  0  0  0  0  0  0  0  0
   20.6144  -18.5285   10.5662 O   0  0  0  0  0  0  0  0  0  0  0  0
  2  1  1  1
  2  3  1  0
  4  2  1  0
  4  5  1  0
  5  7  1  0
  5  6  1  1
  7  8  2  0
  9 10  1  0
 10 11  2  0
 13 12  1  6
 12 10  1  0
 14 13  1  0
 14  7  1  0
 15 13  1  0
 16 15  2  0
 18 17  1  6
 19 18  1  0
 20 18  1  0
 20 21  1  1
 21 15  1  0
 22 23  1  0
 22 20  1  0
 24 22  2  0
M  END
$$$$
