LNV.pdb
     RDKit          3D

 24 23  0  0  1  0  0  0  0  0999 V2000
   16.6188  -16.6922  -18.6550 C   0  0  0  0  0  0  0  0  0  0  0  0
   16.6296  -15.5710  -19.7042 C   0  0  2  0  0  0  0  0  0  0  0  0
   16.6026  -16.2416  -21.0361 C   0  0  0  0  0  0  0  0  0  0  0  0
   17.8154  -14.7250  -19.4098 C   0  0  0  0  0  0  0  0  0  0  0  0
   17.8697  -14.0366  -18.1046 C   0  0  2  0  0  0  0  0  0  0  0  0
   16.6270  -13.5554  -17.5896 N   0  0  0  0  0  0  0  0  0  0  0  0
   18.8060  -12.8829  -18.2038 C   0  0  0  0  0  0  0  0  0  0  0  0
   19.9812  -13.0336  -18.5997 O   0  0  0  0  0  0  0  0  0  0  0  0
   21.0517   -8.2155  -18.3054 N   0  0  0  0  0  0  0  0  0  0  0  0
   19.8221   -8.2375  -19.0061 C   0  0  0  0  0  0  0  0  0  0  0  0
   19.5679   -7.2716  -19.7571 O   0  0  0  0  0  0  0  0  0  0  0  0
   18.8885   -9.3431  -18.8566 C   0  0  0  0  0  0  0  0  0  0  0  0
   19.3243  -10.4202  -17.9221 C   0  0  2  0  0  0  0  0  0  0  0  0
   18.4319  -11.5378  -17.8580 N   0  0  0  0  0  0  0  0  0  0  0  0
   19.7201   -9.9200  -16.5777 C   0  0  0  0  0  0  0  0  0  0  0  0
   18.8467   -9.9622  -15.6814 O   0  0  0  0  0  0  0  0  0  0  0  0
   23.1374   -9.7373  -13.2143 C   0  0  0  0  0  0  0  0  0  0  0  0
   22.6557  -10.0682  -14.6154 C   0  0  1  0  0  0  0  0  0  0  0  0
   22.3114  -11.5304  -14.6262 C   0  0  0  0  0  0  0  0  0  0  0  0
   21.4909   -9.1687  -14.9359 C   0  0  2  0  0  0  0  0  0  0  0  0
   20.9863   -9.4212  -16.2874 N   0  0  0  0  0  0  0  0  0  0  0  0
   21.8572   -7.7657  -14.7418 C   0  0  0  0  0  0  0  0  0  0  0  0
   21.8020   -7.1421  -13.5084 O   0  0  0  0  0  0  0  0  0  0  0  0
   22.2371   -7.0819  -15.7176 O   0  0  0  0  0  0  0  0  0  0  0  0
  2  1  1  1
  2  3  1  0
  4  2  1  0
  4  5  1  0
  5  7  1  0
  5  6  1  6
  7  8  2  0
  9 10  1  0
 10 11  2  0
 13 12  1  6
 12 10  1  0
 14 13  1  0
 14  7  1  0
 15 13  1  0
 16 15  2  0
 18 17  1  1
 19 18  1  0
 20 18  1  0
 20 21  1  6
 21 15  1  0
 22 23  1  0
 22 20  1  0
 24 22  2  0
M  END
$$$$
