APC.pdb
     RDKit          3D

 19 19  0  0  1  0  0  0  0  0999 V2000
    8.7907  -18.2078   18.8255 C   0  0  0  0  0  0  0  0  0  0  0  0
    9.5192  -16.9338   18.5588 C   0  0  2  0  0  0  0  0  0  0  0  0
   10.8402  -17.2307   18.0734 N   0  0  0  0  0  0  0  0  0  0  0  0
    9.5934  -16.0465   19.7503 C   0  0  0  0  0  0  0  0  0  0  0  0
   10.5781  -16.1502   20.5262 O   0  0  0  0  0  0  0  0  0  0  0  0
    8.6072  -15.0826   20.0619 N   0  0  0  0  0  0  0  0  0  0  0  0
    7.5826  -14.6942   19.0893 C   0  0  0  0  0  0  0  0  0  0  0  0
    7.0957  -13.3401   19.6154 C   0  0  0  0  0  0  0  0  0  0  0  0
    7.0942  -13.6504   21.0936 C   0  0  0  0  0  0  0  0  0  0  0  0
    8.4208  -14.3529   21.2560 C   0  0  1  0  0  0  0  0  0  0  0  0
    8.4643  -15.1485   22.5032 C   0  0  0  0  0  0  0  0  0  0  0  0
    8.2316  -16.3607   22.4734 O   0  0  0  0  0  0  0  0  0  0  0  0
    8.7792  -14.4688   23.7113 N   0  0  0  0  0  0  0  0  0  0  0  0
    8.8868  -15.1551   24.9845 C   0  0  1  0  0  0  0  0  0  0  0  0
    9.2916  -14.0868   26.0078 C   0  0  0  0  0  0  0  0  0  0  0  0
    7.9337  -12.9078   26.1089 S   0  0  0  0  0  0  0  0  0  0  0  0
    7.6573  -15.8257   25.3838 C   0  0  0  0  0  0  0  0  0  0  0  0
    7.6616  -16.8013   26.3575 O   0  0  0  0  0  0  0  0  0  0  0  0
    6.5722  -15.5228   24.8441 O   0  0  0  0  0  0  0  0  0  0  0  0
  2  1  1  1
  2  3  1  0
  4  5  2  0
  4  2  1  0
  6  4  1  0
  7  6  1  0
  8  7  1  0
  9  8  1  0
  9 10  1  0
 10  6  1  0
 10 11  1  1
 11 12  2  0
 13 11  1  0
 13 14  1  0
 14 15  1  1
 16 15  1  0
 17 14  1  0
 17 18  1  0
 19 17  2  0
M  END
$$$$
