APC.pdb
     RDKit          3D

 19 19  0  0  1  0  0  0  0  0999 V2000
    8.2387  -16.8461   16.0038 C   0  0  0  0  0  0  0  0  0  0  0  0
    8.8754  -15.4990   15.9332 C   0  0  2  0  0  0  0  0  0  0  0  0
    9.8256  -15.4749   14.8537 N   0  0  0  0  0  0  0  0  0  0  0  0
    9.5301  -15.0983   17.2073 C   0  0  0  0  0  0  0  0  0  0  0  0
   10.7138  -15.4640   17.4248 O   0  0  0  0  0  0  0  0  0  0  0  0
    8.8878  -14.3205   18.1980 N   0  0  0  0  0  0  0  0  0  0  0  0
    7.5793  -13.7061   17.9592 C   0  0  0  0  0  0  0  0  0  0  0  0
    7.5150  -12.5977   19.0151 C   0  0  0  0  0  0  0  0  0  0  0  0
    8.1462  -13.3385   20.1703 C   0  0  0  0  0  0  0  0  0  0  0  0
    9.3290  -13.9939   19.4986 C   0  0  1  0  0  0  0  0  0  0  0  0
    9.8490  -15.1251   20.2988 C   0  0  0  0  0  0  0  0  0  0  0  0
    9.3763  -16.2564   20.1529 O   0  0  0  0  0  0  0  0  0  0  0  0
   10.8949  -14.8564   21.2233 N   0  0  0  0  0  0  0  0  0  0  0  0
   11.4533  -15.8805   22.0851 C   0  0  1  0  0  0  0  0  0  0  0  0
   12.7099  -15.2654   22.7135 C   0  0  0  0  0  0  0  0  0  0  0  0
   13.5095  -16.5605   23.6765 S   0  0  0  0  0  0  0  0  0  0  0  0
   10.5258  -16.3413   23.1090 C   0  0  0  0  0  0  0  0  0  0  0  0
   10.5182  -17.6556   23.5242 O   0  0  0  0  0  0  0  0  0  0  0  0
    9.7172  -15.5440   23.6294 O   0  0  0  0  0  0  0  0  0  0  0  0
  2  1  1  1
  2  3  1  0
  4  5  2  0
  4  2  1  0
  6  4  1  0
  7  6  1  0
  8  7  1  0
  9  8  1  0
  9 10  1  0
 10  6  1  0
 10 11  1  1
 11 12  2  0
 13 11  1  0
 13 14  1  0
 14 15  1  1
 16 15  1  0
 17 14  1  0
 17 18  1  0
 19 17  2  0
M  END
$$$$
