APC.pdb
     RDKit          3D

 19 19  0  0  1  0  0  0  0  0999 V2000
    6.6369  -17.4953   17.6487 C   0  0  0  0  0  0  0  0  0  0  0  0
    7.6784  -16.5415   17.1688 C   0  0  2  0  0  0  0  0  0  0  0  0
    8.4471  -17.1595   16.1218 N   0  0  0  0  0  0  0  0  0  0  0  0
    8.5749  -16.0648   18.2559 C   0  0  0  0  0  0  0  0  0  0  0  0
    9.5902  -16.7463   18.5505 O   0  0  0  0  0  0  0  0  0  0  0  0
    8.3457  -14.8746   18.9839 N   0  0  0  0  0  0  0  0  0  0  0  0
    7.3520  -13.8902   18.5477 C   0  0  0  0  0  0  0  0  0  0  0  0
    7.7858  -12.6108   19.2706 C   0  0  0  0  0  0  0  0  0  0  0  0
    8.1718  -13.2134   20.6009 C   0  0  0  0  0  0  0  0  0  0  0  0
    8.9690  -14.4197   20.1660 C   0  0  1  0  0  0  0  0  0  0  0  0
    9.0798  -15.4175   21.2535 C   0  0  0  0  0  0  0  0  0  0  0  0
    8.0615  -15.9105   21.7482 O   0  0  0  0  0  0  0  0  0  0  0  0
   10.3833  -15.7750   21.6936 N   0  0  0  0  0  0  0  0  0  0  0  0
   10.6082  -16.6632   22.8178 C   0  0  1  0  0  0  0  0  0  0  0  0
   11.2044  -17.9478   22.2291 C   0  0  0  0  0  0  0  0  0  0  0  0
   11.5489  -19.0532   23.6088 S   0  0  0  0  0  0  0  0  0  0  0  0
   11.4830  -16.0962   23.8347 C   0  0  0  0  0  0  0  0  0  0  0  0
   11.3245  -16.4112   25.1673 O   0  0  0  0  0  0  0  0  0  0  0  0
   12.3972  -15.3095   23.5098 O   0  0  0  0  0  0  0  0  0  0  0  0
  2  1  1  1
  2  3  1  0
  4  5  2  0
  4  2  1  0
  6  4  1  0
  7  6  1  0
  8  7  1  0
  9  8  1  0
  9 10  1  0
 10  6  1  0
 10 11  1  1
 11 12  2  0
 13 11  1  0
 13 14  1  0
 14 15  1  6
 16 15  1  0
 17 14  1  0
 17 18  1  0
 19 17  2  0
M  END
$$$$
