APC.pdb
     RDKit          3D

 19 19  0  0  1  0  0  0  0  0999 V2000
    9.5162  -17.5038   16.0204 C   0  0  0  0  0  0  0  0  0  0  0  0
    8.4640  -17.1044   16.9992 C   0  0  2  0  0  0  0  0  0  0  0  0
    7.4818  -16.2869   16.3389 N   0  0  0  0  0  0  0  0  0  0  0  0
    9.0133  -16.3955   18.1859 C   0  0  0  0  0  0  0  0  0  0  0  0
    9.9615  -16.9209   18.8240 O   0  0  0  0  0  0  0  0  0  0  0  0
    8.5227  -15.1499   18.6409 N   0  0  0  0  0  0  0  0  0  0  0  0
    7.5347  -14.3895   17.8713 C   0  0  0  0  0  0  0  0  0  0  0  0
    7.6823  -12.9669   18.4208 C   0  0  0  0  0  0  0  0  0  0  0  0
    7.8636  -13.2988   19.8832 C   0  0  0  0  0  0  0  0  0  0  0  0
    8.8528  -14.4374   19.8140 C   0  0  1  0  0  0  0  0  0  0  0  0
    8.8545  -15.2311   21.0633 C   0  0  0  0  0  0  0  0  0  0  0  0
    7.8184  -15.7801   21.4500 O   0  0  0  0  0  0  0  0  0  0  0  0
   10.0766  -15.3307   21.7825 N   0  0  0  0  0  0  0  0  0  0  0  0
   10.2156  -16.1524   22.9695 C   0  0  1  0  0  0  0  0  0  0  0  0
   10.0548  -17.6037   22.5003 C   0  0  0  0  0  0  0  0  0  0  0  0
   10.2223  -18.6528   23.9548 S   0  0  0  0  0  0  0  0  0  0  0  0
   11.4843  -15.9606   23.6583 C   0  0  0  0  0  0  0  0  0  0  0  0
   11.5916  -16.1480   25.0197 O   0  0  0  0  0  0  0  0  0  0  0  0
   12.5019  -15.6206   23.0184 O   0  0  0  0  0  0  0  0  0  0  0  0
  2  1  1  6
  2  3  1  0
  4  5  2  0
  4  2  1  0
  6  4  1  0
  7  6  1  0
  8  7  1  0
  9  8  1  0
  9 10  1  0
 10  6  1  0
 10 11  1  1
 11 12  2  0
 13 11  1  0
 13 14  1  0
 14 15  1  6
 16 15  1  0
 17 14  1  0
 17 18  1  0
 19 17  2  0
M  END
$$$$
