APC.pdb
     RDKit          3D

 19 19  0  0  1  0  0  0  0  0999 V2000
    9.8214  -18.5066   20.5732 C   0  0  0  0  0  0  0  0  0  0  0  0
   10.0807  -17.0670   20.2807 C   0  0  2  0  0  0  0  0  0  0  0  0
   11.3750  -16.9288   19.6687 N   0  0  0  0  0  0  0  0  0  0  0  0
    9.9842  -16.2025   21.4873 C   0  0  0  0  0  0  0  0  0  0  0  0
   11.0199  -15.9910   22.1691 O   0  0  0  0  0  0  0  0  0  0  0  0
    8.7791  -15.5989   21.9143 N   0  0  0  0  0  0  0  0  0  0  0  0
    7.5884  -15.5802   21.0608 C   0  0  0  0  0  0  0  0  0  0  0  0
    6.7505  -14.4425   21.6535 C   0  0  0  0  0  0  0  0  0  0  0  0
    7.0033  -14.7052   23.1194 C   0  0  0  0  0  0  0  0  0  0  0  0
    8.4944  -14.9420   23.1310 C   0  0  1  0  0  0  0  0  0  0  0  0
    8.9209  -15.6548   24.3560 C   0  0  0  0  0  0  0  0  0  0  0  0
    9.1338  -16.8706   24.3230 O   0  0  0  0  0  0  0  0  0  0  0  0
    9.0711  -14.8931   25.5467 N   0  0  0  0  0  0  0  0  0  0  0  0
    9.4476  -15.4939   26.8119 C   0  0  1  0  0  0  0  0  0  0  0  0
    9.3417  -14.3776   27.8583 C   0  0  0  0  0  0  0  0  0  0  0  0
   10.2211  -12.9497   27.2011 S   0  0  0  0  0  0  0  0  0  0  0  0
    8.6209  -16.6359   27.1768 C   0  0  0  0  0  0  0  0  0  0  0  0
    9.1146  -17.6483   27.9714 O   0  0  0  0  0  0  0  0  0  0  0  0
    7.4422  -16.7139   26.7707 O   0  0  0  0  0  0  0  0  0  0  0  0
  2  1  1  1
  2  3  1  0
  4  5  2  0
  4  2  1  0
  6  4  1  0
  7  6  1  0
  8  7  1  0
  9  8  1  0
  9 10  1  0
 10  6  1  0
 10 11  1  1
 11 12  2  0
 13 11  1  0
 13 14  1  0
 14 15  1  1
 16 15  1  0
 17 14  1  0
 17 18  1  0
 19 17  2  0
M  END
$$$$
