APC.pdb
     RDKit          3D

 19 19  0  0  1  0  0  0  0  0999 V2000
    6.4784  -17.8614   18.4754 C   0  0  0  0  0  0  0  0  0  0  0  0
    7.5873  -17.0247   17.9320 C   0  0  2  0  0  0  0  0  0  0  0  0
    8.4533  -17.8431   17.1262 N   0  0  0  0  0  0  0  0  0  0  0  0
    8.3683  -16.3348   18.9934 C   0  0  0  0  0  0  0  0  0  0  0  0
    9.2818  -16.9658   19.5847 O   0  0  0  0  0  0  0  0  0  0  0  0
    8.1376  -14.9939   19.3782 N   0  0  0  0  0  0  0  0  0  0  0  0
    7.1814  -14.1461   18.6616 C   0  0  0  0  0  0  0  0  0  0  0  0
    7.6152  -12.7275   19.0454 C   0  0  0  0  0  0  0  0  0  0  0  0
    7.9395  -12.9680   20.5009 C   0  0  0  0  0  0  0  0  0  0  0  0
    8.7267  -14.2542   20.4264 C   0  0  1  0  0  0  0  0  0  0  0  0
    8.7766  -14.9364   21.7389 C   0  0  0  0  0  0  0  0  0  0  0  0
    7.7374  -15.1280   22.3776 O   0  0  0  0  0  0  0  0  0  0  0  0
   10.0476  -15.3522   22.2208 N   0  0  0  0  0  0  0  0  0  0  0  0
   10.2198  -15.9857   23.5141 C   0  0  1  0  0  0  0  0  0  0  0  0
    9.5974  -17.3817   23.3873 C   0  0  0  0  0  0  0  0  0  0  0  0
    9.9330  -18.2537   24.9271 S   0  0  0  0  0  0  0  0  0  0  0  0
   11.6114  -16.0674   23.9356 C   0  0  0  0  0  0  0  0  0  0  0  0
   12.6402  -15.8918   23.0353 O   0  0  0  0  0  0  0  0  0  0  0  0
   11.8937  -16.2999   25.1300 O   0  0  0  0  0  0  0  0  0  0  0  0
  2  1  1  1
  2  3  1  0
  4  5  2  0
  4  2  1  0
  6  4  1  0
  7  6  1  0
  8  7  1  0
  9  8  1  0
  9 10  1  0
 10  6  1  0
 10 11  1  1
 11 12  2  0
 13 11  1  0
 13 14  1  0
 14 15  1  6
 16 15  1  0
 17 14  1  0
 17 18  1  0
 19 17  2  0
M  END
$$$$
