APC.pdb
     RDKit          3D

 19 19  0  0  1  0  0  0  0  0999 V2000
   -3.9656  -23.5133   20.9192 C   0  0  0  0  0  0  0  0  0  0  0  0
   -2.8953  -22.8640   21.7302 C   0  0  2  0  0  0  0  0  0  0  0  0
   -1.6794  -23.6235   21.6137 N   0  0  0  0  0  0  0  0  0  0  0  0
   -3.2683  -22.7016   23.1610 C   0  0  0  0  0  0  0  0  0  0  0  0
   -3.1099  -23.6721   23.9454 O   0  0  0  0  0  0  0  0  0  0  0  0
   -3.7969  -21.5031   23.6932 N   0  0  0  0  0  0  0  0  0  0  0  0
   -3.8723  -20.2782   22.8928 C   0  0  0  0  0  0  0  0  0  0  0  0
   -3.9974  -19.1762   23.9500 C   0  0  0  0  0  0  0  0  0  0  0  0
   -4.9296  -19.8776   24.9095 C   0  0  0  0  0  0  0  0  0  0  0  0
   -4.3076  -21.2513   24.9851 C   0  0  1  0  0  0  0  0  0  0  0  0
   -5.2676  -22.2540   25.4982 C   0  0  0  0  0  0  0  0  0  0  0  0
   -6.1987  -22.6416   24.7859 O   0  0  0  0  0  0  0  0  0  0  0  0
   -5.0737  -22.7404   26.8197 N   0  0  0  0  0  0  0  0  0  0  0  0
   -5.9615  -23.7121   27.4289 C   0  0  1  0  0  0  0  0  0  0  0  0
   -5.0681  -24.6320   28.2703 C   0  0  0  0  0  0  0  0  0  0  0  0
   -6.1422  -25.8576   29.0373 S   0  0  0  0  0  0  0  0  0  0  0  0
   -7.0069  -23.1075   28.2427 C   0  0  0  0  0  0  0  0  0  0  0  0
   -8.3102  -23.5511   28.1735 O   0  0  0  0  0  0  0  0  0  0  0  0
   -6.7339  -22.1699   29.0218 O   0  0  0  0  0  0  0  0  0  0  0  0
  2  1  1  6
  2  3  1  0
  4  5  2  0
  4  2  1  0
  6  4  1  0
  7  6  1  0
  8  7  1  0
  9  8  1  0
  9 10  1  0
 10  6  1  0
 10 11  1  6
 11 12  2  0
 13 11  1  0
 13 14  1  0
 14 15  1  1
 16 15  1  0
 17 14  1  0
 17 18  1  0
 19 17  2  0
M  END
$$$$
