CEA.pdb
     RDKit          3D

 21 20  0  0  1  0  0  0  0  0999 V2000
   17.7984  -12.9617  -16.3006 N   0  0  0  0  0  0  0  0  0  0  0  0
   17.3050  -11.6194  -16.2324 C   0  0  1  0  0  0  0  0  0  0  0  0
   16.5873  -11.3320  -14.9203 C   0  0  0  0  0  0  0  0  0  0  0  0
   15.0749  -12.3034  -14.7885 S   0  0  0  0  0  0  0  0  0  0  0  0
   18.4073  -10.6104  -16.3535 C   0  0  0  0  0  0  0  0  0  0  0  0
   19.5345  -10.9367  -15.9071 O   0  0  0  0  0  0  0  0  0  0  0  0
   18.0986   -9.3680  -16.9597 N   0  0  0  0  0  0  0  0  0  0  0  0
   19.2257   -8.4350  -17.1699 C   0  0  1  0  0  0  0  0  0  0  0  0
   18.8774   -7.5788  -18.3132 C   0  0  0  0  0  0  0  0  0  0  0  0
   19.8075   -6.4795  -18.6848 C   0  0  0  0  0  0  0  0  0  0  0  0
   19.3647   -5.6407  -19.8153 C   0  0  0  0  0  0  0  0  0  0  0  0
   18.5096   -4.7498  -19.6633 O   0  0  0  0  0  0  0  0  0  0  0  0
   19.5390   -7.8178  -15.8963 C   0  0  0  0  0  0  0  0  0  0  0  0
   18.5678   -7.4019  -15.1735 O   0  0  0  0  0  0  0  0  0  0  0  0
   19.9121   -5.8516  -21.0636 O   0  0  0  0  0  0  0  0  0  0  0  0
   22.2594   -7.6261  -13.4091 C   0  0  0  0  0  0  0  0  0  0  0  0
   20.9947   -7.0410  -13.9946 C   0  0  2  0  0  0  0  0  0  0  0  0
   20.8171   -7.6068  -15.3235 N   0  0  0  0  0  0  0  0  0  0  0  0
   21.2167   -5.5757  -14.1765 C   0  0  0  0  0  0  0  0  0  0  0  0
   21.2796   -4.7587  -13.0644 O   0  0  0  0  0  0  0  0  0  0  0  0
   21.3512   -5.0402  -15.3048 O   0  0  0  0  0  0  0  0  0  0  0  0
  2  1  1  1
  3  2  1  0
  4  3  1  0
  5  7  1  0
  5  2  1  0
  6  5  2  0
  8  9  1  6
  8  7  1  0
 10  9  1  0
 11 10  1  0
 11 15  1  0
 12 11  2  0
 13  8  1  0
 13 18  1  0
 14 13  2  0
 17 18  1  0
 17 16  1  6
 19 17  1  0
 20 19  1  0
 21 19  2  0
M  END
$$$$
