CEA.pdb
     RDKit          3D

 21 20  0  0  1  0  0  0  0  0999 V2000
   17.3968  -11.8288  -15.5414 N   0  0  0  0  0  0  0  0  0  0  0  0
   17.2570  -10.4044  -15.5059 C   0  0  1  0  0  0  0  0  0  0  0  0
   16.6030   -9.9184  -14.2193 C   0  0  0  0  0  0  0  0  0  0  0  0
   16.3340   -8.1369  -14.2678 S   0  0  0  0  0  0  0  0  0  0  0  0
   18.5811   -9.7087  -15.6087 C   0  0  0  0  0  0  0  0  0  0  0  0
   19.5253  -10.1690  -14.9210 O   0  0  0  0  0  0  0  0  0  0  0  0
   18.6705   -8.5878  -16.4700 N   0  0  0  0  0  0  0  0  0  0  0  0
   19.9802   -7.9056  -16.5361 C   0  0  1  0  0  0  0  0  0  0  0  0
   20.2297   -7.5735  -17.9464 C   0  0  0  0  0  0  0  0  0  0  0  0
   21.4793   -6.8454  -18.2928 C   0  0  0  0  0  0  0  0  0  0  0  0
   21.6180   -6.4828  -19.7165 C   0  0  0  0  0  0  0  0  0  0  0  0
   21.6742   -5.2938  -20.0783 O   0  0  0  0  0  0  0  0  0  0  0  0
   19.9813   -6.8427  -15.5505 C   0  0  0  0  0  0  0  0  0  0  0  0
   18.9353   -6.1112  -15.4524 O   0  0  0  0  0  0  0  0  0  0  0  0
   21.6862   -7.4849  -20.6618 O   0  0  0  0  0  0  0  0  0  0  0  0
   21.9208   -5.6237  -12.6072 C   0  0  0  0  0  0  0  0  0  0  0  0
   20.8830   -5.4119  -13.6854 C   0  0  2  0  0  0  0  0  0  0  0  0
   21.0172   -6.4932  -14.6500 N   0  0  0  0  0  0  0  0  0  0  0  0
   21.2286   -4.1491  -14.4034 C   0  0  0  0  0  0  0  0  0  0  0  0
   21.7888   -4.2203  -15.6640 O   0  0  0  0  0  0  0  0  0  0  0  0
   21.0333   -3.0092  -13.9129 O   0  0  0  0  0  0  0  0  0  0  0  0
  2  1  1  1
  3  2  1  0
  4  3  1  0
  5  7  1  0
  5  2  1  0
  6  5  2  0
  8  9  1  6
  8  7  1  0
 10  9  1  0
 11 10  1  0
 11 15  1  0
 12 11  2  0
 13  8  1  0
 13 18  1  0
 14 13  2  0
 17 18  1  0
 17 16  1  1
 19 17  1  0
 20 19  1  0
 21 19  2  0
M  END
$$$$
