CEA.pdb
     RDKit          3D

 21 20  0  0  1  0  0  0  0  0999 V2000
   26.9000  -14.9480  -17.6544 N   0  0  0  0  0  0  0  0  0  0  0  0
   26.2488  -15.4882  -16.4995 C   0  0  1  0  0  0  0  0  0  0  0  0
   25.5853  -14.4111  -15.6516 C   0  0  0  0  0  0  0  0  0  0  0  0
   26.8180  -13.4434  -14.7615 S   0  0  0  0  0  0  0  0  0  0  0  0
   25.1777  -16.4704  -16.8682 C   0  0  0  0  0  0  0  0  0  0  0  0
   24.2973  -16.0824  -17.6748 O   0  0  0  0  0  0  0  0  0  0  0  0
   25.2364  -17.7588  -16.2827 N   0  0  0  0  0  0  0  0  0  0  0  0
   24.1864  -18.7182  -16.6853 C   0  0  1  0  0  0  0  0  0  0  0  0
   24.8557  -19.9828  -17.0233 C   0  0  0  0  0  0  0  0  0  0  0  0
   25.9269  -20.4814  -16.1202 C   0  0  0  0  0  0  0  0  0  0  0  0
   26.5298  -21.7689  -16.5158 C   0  0  0  0  0  0  0  0  0  0  0  0
   26.1773  -22.3557  -17.5548 O   0  0  0  0  0  0  0  0  0  0  0  0
   23.1607  -18.7149  -15.6610 C   0  0  0  0  0  0  0  0  0  0  0  0
   23.5111  -18.4490  -14.4588 O   0  0  0  0  0  0  0  0  0  0  0  0
   27.5030  -22.3297  -15.7152 O   0  0  0  0  0  0  0  0  0  0  0  0
   19.8506  -17.8187  -14.9777 C   0  0  0  0  0  0  0  0  0  0  0  0
   20.8428  -18.9247  -14.7008 C   0  0  2  0  0  0  0  0  0  0  0  0
   21.7767  -18.9733  -15.8157 N   0  0  0  0  0  0  0  0  0  0  0  0
   20.0938  -20.2164  -14.7099 C   0  0  0  0  0  0  0  0  0  0  0  0
   19.1516  -20.4580  -13.7290 O   0  0  0  0  0  0  0  0  0  0  0  0
   20.2792  -21.1073  -15.5759 O   0  0  0  0  0  0  0  0  0  0  0  0
  2  1  1  6
  3  2  1  0
  4  3  1  0
  5  7  1  0
  5  2  1  0
  6  5  2  0
  8  9  1  1
  8  7  1  0
 10  9  1  0
 11 10  1  0
 11 15  1  0
 12 11  2  0
 13  8  1  0
 13 18  1  0
 14 13  2  0
 17 18  1  0
 17 16  1  6
 19 17  1  0
 20 19  1  0
 21 19  2  0
M  END
$$$$
