CEA.pdb
     RDKit          3D

 21 20  0  0  1  0  0  0  0  0999 V2000
   22.8355  -12.0890  -16.3580 N   0  0  0  0  0  0  0  0  0  0  0  0
   21.6769  -11.4519  -16.9074 C   0  0  1  0  0  0  0  0  0  0  0  0
   20.6278  -12.4551  -17.3679 C   0  0  0  0  0  0  0  0  0  0  0  0
   21.0870  -13.1849  -18.9506 S   0  0  0  0  0  0  0  0  0  0  0  0
   21.0081  -10.5512  -15.9128 C   0  0  0  0  0  0  0  0  0  0  0  0
   20.6520  -11.0643  -14.8236 O   0  0  0  0  0  0  0  0  0  0  0  0
   20.8273   -9.1931  -16.2722 N   0  0  0  0  0  0  0  0  0  0  0  0
   20.1842   -8.3214  -15.2664 C   0  0  1  0  0  0  0  0  0  0  0  0
   21.1495   -7.2683  -14.9190 C   0  0  0  0  0  0  0  0  0  0  0  0
   20.7200   -6.1926  -13.9863 C   0  0  0  0  0  0  0  0  0  0  0  0
   21.7337   -5.1538  -13.7199 C   0  0  0  0  0  0  0  0  0  0  0  0
   21.6414   -4.0176  -14.2184 O   0  0  0  0  0  0  0  0  0  0  0  0
   18.8791   -7.9431  -15.7712 C   0  0  0  0  0  0  0  0  0  0  0  0
   18.8054   -7.4789  -16.9620 O   0  0  0  0  0  0  0  0  0  0  0  0
   22.8031   -5.4524  -12.9016 O   0  0  0  0  0  0  0  0  0  0  0  0
   15.2485   -8.0411  -14.8557 C   0  0  0  0  0  0  0  0  0  0  0  0
   16.3971   -7.5279  -15.6933 C   0  0  2  0  0  0  0  0  0  0  0  0
   17.6325   -8.0215  -15.1035 N   0  0  0  0  0  0  0  0  0  0  0  0
   16.4220   -6.0406  -15.5633 C   0  0  0  0  0  0  0  0  0  0  0  0
   15.5938   -5.2785  -16.3642 O   0  0  0  0  0  0  0  0  0  0  0  0
   17.1679   -5.4384  -14.7516 O   0  0  0  0  0  0  0  0  0  0  0  0
  2  1  1  1
  3  2  1  0
  4  3  1  0
  5  7  1  0
  5  2  1  0
  6  5  2  0
  8  9  1  6
  8  7  1  0
 10  9  1  0
 11 10  1  0
 11 15  1  0
 12 11  2  0
 13  8  1  0
 13 18  1  0
 14 13  2  0
 17 18  1  0
 17 16  1  1
 19 17  1  0
 20 19  1  0
 21 19  2  0
M  END
$$$$
