CEA.pdb
     RDKit          3D

 21 20  0  0  1  0  0  0  0  0999 V2000
   19.1568  -11.1546  -16.8283 N   0  0  0  0  0  0  0  0  0  0  0  0
   18.6953   -9.8903  -17.3164 C   0  0  1  0  0  0  0  0  0  0  0  0
   17.2974   -9.9755  -17.9144 C   0  0  0  0  0  0  0  0  0  0  0  0
   17.3201  -10.8735  -19.4769 S   0  0  0  0  0  0  0  0  0  0  0  0
   18.6402   -8.8571  -16.2313 C   0  0  0  0  0  0  0  0  0  0  0  0
   18.2382   -9.2322  -15.1026 O   0  0  0  0  0  0  0  0  0  0  0  0
   19.0438   -7.5389  -16.5567 N   0  0  0  0  0  0  0  0  0  0  0  0
   19.0184   -6.5483  -15.4598 C   0  0  1  0  0  0  0  0  0  0  0  0
   20.4051   -6.3586  -15.0096 C   0  0  0  0  0  0  0  0  0  0  0  0
   20.6893   -5.2824  -14.0234 C   0  0  0  0  0  0  0  0  0  0  0  0
   22.1067   -5.1475  -13.6356 C   0  0  0  0  0  0  0  0  0  0  0  0
   22.4809   -4.2549  -12.8539 O   0  0  0  0  0  0  0  0  0  0  0  0
   18.2605   -5.3987  -15.9126 C   0  0  0  0  0  0  0  0  0  0  0  0
   18.5297   -4.9167  -17.0676 O   0  0  0  0  0  0  0  0  0  0  0  0
   23.0319   -6.0304  -14.1522 O   0  0  0  0  0  0  0  0  0  0  0  0
   15.2731   -3.3429  -15.0091 C   0  0  0  0  0  0  0  0  0  0  0  0
   16.5489   -3.5562  -15.7908 C   0  0  2  0  0  0  0  0  0  0  0  0
   17.2267   -4.7143  -15.2277 N   0  0  0  0  0  0  0  0  0  0  0  0
   17.4324   -2.3781  -15.5441 C   0  0  0  0  0  0  0  0  0  0  0  0
   17.1131   -1.1624  -16.1172 O   0  0  0  0  0  0  0  0  0  0  0  0
   18.4658   -2.4365  -14.8323 O   0  0  0  0  0  0  0  0  0  0  0  0
  2  1  1  1
  3  2  1  0
  4  3  1  0
  5  7  1  0
  5  2  1  0
  6  5  2  0
  8  9  1  6
  8  7  1  0
 10  9  1  0
 11 10  1  0
 11 15  1  0
 12 11  2  0
 13  8  1  0
 13 18  1  0
 14 13  2  0
 17 18  1  0
 17 16  1  1
 19 17  1  0
 20 19  1  0
 21 19  2  0
M  END
$$$$
