CEA.pdb
     RDKit          3D

 21 20  0  0  1  0  0  0  0  0999 V2000
   25.4839  -11.9709  -18.1135 N   0  0  0  0  0  0  0  0  0  0  0  0
   25.2616  -11.2662  -16.8872 C   0  0  1  0  0  0  0  0  0  0  0  0
   26.5076  -10.5351  -16.4052 C   0  0  0  0  0  0  0  0  0  0  0  0
   27.7601  -11.7020  -15.8415 S   0  0  0  0  0  0  0  0  0  0  0  0
   24.1796  -10.2370  -17.0206 C   0  0  0  0  0  0  0  0  0  0  0  0
   24.1029   -9.6244  -18.1139 O   0  0  0  0  0  0  0  0  0  0  0  0
   23.3263  -10.0312  -15.9089 N   0  0  0  0  0  0  0  0  0  0  0  0
   22.2304   -9.0553  -16.0863 C   0  0  1  0  0  0  0  0  0  0  0  0
   20.9865   -9.7116  -15.6582 C   0  0  0  0  0  0  0  0  0  0  0  0
   20.3062  -10.6305  -16.6092 C   0  0  0  0  0  0  0  0  0  0  0  0
   19.0440  -11.2166  -16.1183 C   0  0  0  0  0  0  0  0  0  0  0  0
   19.0369  -12.2534  -15.4307 O   0  0  0  0  0  0  0  0  0  0  0  0
   22.6284   -7.8150  -15.4501 C   0  0  0  0  0  0  0  0  0  0  0  0
   23.0719   -7.8689  -14.2504 O   0  0  0  0  0  0  0  0  0  0  0  0
   17.8504  -10.5996  -16.4301 O   0  0  0  0  0  0  0  0  0  0  0  0
   23.0356   -4.1601  -16.1860 C   0  0  0  0  0  0  0  0  0  0  0  0
   22.9882   -5.3326  -15.2334 C   0  0  2  0  0  0  0  0  0  0  0  0
   22.5933   -6.5081  -15.9949 N   0  0  0  0  0  0  0  0  0  0  0  0
   21.8968   -5.0708  -14.2486 C   0  0  0  0  0  0  0  0  0  0  0  0
   22.1508   -4.2622  -13.1578 O   0  0  0  0  0  0  0  0  0  0  0  0
   20.7434   -5.5551  -14.3627 O   0  0  0  0  0  0  0  0  0  0  0  0
  2  1  1  6
  3  2  1  0
  4  3  1  0
  5  7  1  0
  5  2  1  0
  6  5  2  0
  8  9  1  1
  8  7  1  0
 10  9  1  0
 11 10  1  0
 11 15  1  0
 12 11  2  0
 13  8  1  0
 13 18  1  0
 14 13  2  0
 17 18  1  0
 17 16  1  6
 19 17  1  0
 20 19  1  0
 21 19  2  0
M  END
$$$$
