CEA.pdb
     RDKit          3D

 21 20  0  0  1  0  0  0  0  0999 V2000
   18.4257  -11.0233  -14.6841 N   0  0  0  0  0  0  0  0  0  0  0  0
   18.1706   -9.8787  -15.5055 C   0  0  1  0  0  0  0  0  0  0  0  0
   16.6837   -9.6658  -15.7566 C   0  0  0  0  0  0  0  0  0  0  0  0
   16.0314  -10.9290  -16.8645 S   0  0  0  0  0  0  0  0  0  0  0  0
   18.6903   -8.6168  -14.8850 C   0  0  0  0  0  0  0  0  0  0  0  0
   18.5591   -8.4928  -13.6425 O   0  0  0  0  0  0  0  0  0  0  0  0
   19.2888   -7.6603  -15.7413 N   0  0  0  0  0  0  0  0  0  0  0  0
   19.8265   -6.4416  -15.1005 C   0  0  1  0  0  0  0  0  0  0  0  0
   21.2681   -6.3971  -15.3857 C   0  0  0  0  0  0  0  0  0  0  0  0
   22.2195   -6.5114  -14.2484 C   0  0  0  0  0  0  0  0  0  0  0  0
   22.1389   -5.4246  -13.2535 C   0  0  0  0  0  0  0  0  0  0  0  0
   21.9098   -5.6619  -12.0539 O   0  0  0  0  0  0  0  0  0  0  0  0
   18.9943   -5.3231  -15.4975 C   0  0  0  0  0  0  0  0  0  0  0  0
   18.8226   -5.1144  -16.7488 O   0  0  0  0  0  0  0  0  0  0  0  0
   22.3217   -4.1210  -13.6657 O   0  0  0  0  0  0  0  0  0  0  0  0
   16.4014   -3.0712  -14.1190 C   0  0  0  0  0  0  0  0  0  0  0  0
   17.4306   -3.3750  -15.1833 C   0  0  2  0  0  0  0  0  0  0  0  0
   18.3216   -4.3997  -14.6602 N   0  0  0  0  0  0  0  0  0  0  0  0
   18.2555   -2.1457  -15.3782 C   0  0  0  0  0  0  0  0  0  0  0  0
   17.6789   -1.0291  -15.9518 O   0  0  0  0  0  0  0  0  0  0  0  0
   19.4639   -2.0738  -15.0426 O   0  0  0  0  0  0  0  0  0  0  0  0
  2  1  1  1
  3  2  1  0
  4  3  1  0
  5  7  1  0
  5  2  1  0
  6  5  2  0
  8  9  1  6
  8  7  1  0
 10  9  1  0
 11 10  1  0
 11 15  1  0
 12 11  2  0
 13  8  1  0
 13 18  1  0
 14 13  2  0
 17 18  1  0
 17 16  1  1
 19 17  1  0
 20 19  1  0
 21 19  2  0
M  END
$$$$
