CEA.pdb
     RDKit          3D

 21 20  0  0  1  0  0  0  0  0999 V2000
   13.5426  -10.9746  -15.4416 N   0  0  0  0  0  0  0  0  0  0  0  0
   14.6180  -10.7301  -14.5285 C   0  0  1  0  0  0  0  0  0  0  0  0
   15.4008  -11.9954  -14.2034 C   0  0  0  0  0  0  0  0  0  0  0  0
   14.4354  -13.0966  -13.1529 S   0  0  0  0  0  0  0  0  0  0  0  0
   15.6023   -9.7398  -15.0745 C   0  0  0  0  0  0  0  0  0  0  0  0
   15.8724   -9.8152  -16.2983 O   0  0  0  0  0  0  0  0  0  0  0  0
   16.1537   -8.7952  -14.1744 N   0  0  0  0  0  0  0  0  0  0  0  0
   17.0269   -7.7550  -14.7579 C   0  0  1  0  0  0  0  0  0  0  0  0
   16.3982   -6.4539  -14.4874 C   0  0  0  0  0  0  0  0  0  0  0  0
   17.1061   -5.2204  -14.9221 C   0  0  0  0  0  0  0  0  0  0  0  0
   16.4329   -3.9554  -14.5697 C   0  0  0  0  0  0  0  0  0  0  0  0
   15.3443   -3.9485  -13.9673 O   0  0  0  0  0  0  0  0  0  0  0  0
   18.3793   -7.9947  -14.2946 C   0  0  0  0  0  0  0  0  0  0  0  0
   18.5766   -8.0855  -13.0330 O   0  0  0  0  0  0  0  0  0  0  0  0
   17.0254   -2.7592  -14.9166 O   0  0  0  0  0  0  0  0  0  0  0  0
   21.8230   -8.7124  -15.5912 C   0  0  0  0  0  0  0  0  0  0  0  0
   20.8662   -8.3400  -14.4820 C   0  0  2  0  0  0  0  0  0  0  0  0
   19.5512   -8.1486  -15.0751 N   0  0  0  0  0  0  0  0  0  0  0  0
   21.2928   -7.0144  -13.9433 C   0  0  0  0  0  0  0  0  0  0  0  0
   20.6470   -5.8712  -14.3726 O   0  0  0  0  0  0  0  0  0  0  0  0
   22.2218   -6.8835  -13.1080 O   0  0  0  0  0  0  0  0  0  0  0  0
  2  1  1  6
  3  2  1  0
  4  3  1  0
  5  7  1  0
  5  2  1  0
  6  5  2  0
  8  9  1  1
  8  7  1  0
 10  9  1  0
 11 10  1  0
 11 15  1  0
 12 11  2  0
 13  8  1  0
 13 18  1  0
 14 13  2  0
 17 18  1  0
 17 16  1  6
 19 17  1  0
 20 19  1  0
 21 19  2  0
M  END
$$$$
