CEA.pdb
     RDKit          3D

 21 20  0  0  1  0  0  0  0  0999 V2000
   22.3358  -12.7520  -16.6689 N   0  0  0  0  0  0  0  0  0  0  0  0
   22.9725  -11.6185  -16.0691 C   0  0  1  0  0  0  0  0  0  0  0  0
   24.4890  -11.6707  -16.1977 C   0  0  0  0  0  0  0  0  0  0  0  0
   25.2508  -10.2406  -15.4085 S   0  0  0  0  0  0  0  0  0  0  0  0
   22.5285  -10.3304  -16.6946 C   0  0  0  0  0  0  0  0  0  0  0  0
   22.3625  -10.3248  -17.9391 O   0  0  0  0  0  0  0  0  0  0  0  0
   22.3294   -9.2182  -15.8404 N   0  0  0  0  0  0  0  0  0  0  0  0
   21.8097   -7.9850  -16.4682 C   0  0  1  0  0  0  0  0  0  0  0  0
   20.4084   -8.2375  -16.8341 C   0  0  0  0  0  0  0  0  0  0  0  0
   19.5844   -7.0964  -17.3143 C   0  0  0  0  0  0  0  0  0  0  0  0
   18.1838   -7.4289  -17.6388 C   0  0  0  0  0  0  0  0  0  0  0  0
   17.2357   -6.8764  -17.0526 O   0  0  0  0  0  0  0  0  0  0  0  0
   22.1204   -6.8721  -15.5928 C   0  0  0  0  0  0  0  0  0  0  0  0
   22.0165   -7.0522  -14.3297 O   0  0  0  0  0  0  0  0  0  0  0  0
   17.9248   -8.3715  -18.6119 O   0  0  0  0  0  0  0  0  0  0  0  0
   23.4592   -3.3679  -15.7289 C   0  0  0  0  0  0  0  0  0  0  0  0
   22.9500   -4.5761  -14.9771 C   0  0  2  0  0  0  0  0  0  0  0  0
   22.5390   -5.5692  -15.9582 N   0  0  0  0  0  0  0  0  0  0  0  0
   21.7188   -4.1638  -14.2399 C   0  0  0  0  0  0  0  0  0  0  0  0
   21.8431   -3.4722  -13.0506 O   0  0  0  0  0  0  0  0  0  0  0  0
   20.5593   -4.4172  -14.6515 O   0  0  0  0  0  0  0  0  0  0  0  0
  2  1  1  6
  3  2  1  0
  4  3  1  0
  5  7  1  0
  5  2  1  0
  6  5  2  0
  8  9  1  1
  8  7  1  0
 10  9  1  0
 11 10  1  0
 11 15  1  0
 12 11  2  0
 13  8  1  0
 13 18  1  0
 14 13  2  0
 17 18  1  0
 17 16  1  6
 19 17  1  0
 20 19  1  0
 21 19  2  0
M  END
$$$$
