CEA.pdb
     RDKit          3D

 21 20  0  0  1  0  0  0  0  0999 V2000
   16.6327  -11.3594  -16.0304 N   0  0  0  0  0  0  0  0  0  0  0  0
   17.7204  -11.1290  -15.1284 C   0  0  1  0  0  0  0  0  0  0  0  0
   19.0637  -11.5222  -15.7285 C   0  0  0  0  0  0  0  0  0  0  0  0
   19.2688  -13.3128  -15.7279 S   0  0  0  0  0  0  0  0  0  0  0  0
   17.8268   -9.6860  -14.7359 C   0  0  0  0  0  0  0  0  0  0  0  0
   17.6099   -8.8314  -15.6298 O   0  0  0  0  0  0  0  0  0  0  0  0
   18.1627   -9.3926  -13.3915 N   0  0  0  0  0  0  0  0  0  0  0  0
   18.2275   -7.9630  -13.0214 C   0  0  1  0  0  0  0  0  0  0  0  0
   17.6531   -7.8334  -11.6743 C   0  0  0  0  0  0  0  0  0  0  0  0
   17.6803   -6.4995  -11.0174 C   0  0  0  0  0  0  0  0  0  0  0  0
   17.0836   -6.4541   -9.6685 C   0  0  0  0  0  0  0  0  0  0  0  0
   17.1185   -5.4180   -8.9807 O   0  0  0  0  0  0  0  0  0  0  0  0
   19.5806   -7.5004  -13.2586 C   0  0  0  0  0  0  0  0  0  0  0  0
   20.5452   -8.1796  -12.7614 O   0  0  0  0  0  0  0  0  0  0  0  0
   16.4760   -7.5849   -9.1639 O   0  0  0  0  0  0  0  0  0  0  0  0
   21.5291   -5.0960  -15.3289 C   0  0  0  0  0  0  0  0  0  0  0  0
   21.3901   -5.9654  -14.1004 C   0  0  2  0  0  0  0  0  0  0  0  0
   19.9939   -6.3613  -13.9919 N   0  0  0  0  0  0  0  0  0  0  0  0
   21.6907   -5.1164  -12.9095 C   0  0  0  0  0  0  0  0  0  0  0  0
   20.6564   -4.7193  -12.0844 O   0  0  0  0  0  0  0  0  0  0  0  0
   22.8523   -4.7394  -12.6152 O   0  0  0  0  0  0  0  0  0  0  0  0
  2  1  1  6
  3  2  1  0
  4  3  1  0
  5  7  1  0
  5  2  1  0
  6  5  2  0
  8  9  1  1
  8  7  1  0
 10  9  1  0
 11 10  1  0
 11 15  1  0
 12 11  2  0
 13  8  1  0
 13 18  1  0
 14 13  2  0
 17 18  1  0
 17 16  1  6
 19 17  1  0
 20 19  1  0
 21 19  2  0
M  END
$$$$
