CEA.pdb
     RDKit          3D

 21 20  0  0  1  0  0  0  0  0999 V2000
   23.4991  -12.2589  -18.0335 N   0  0  0  0  0  0  0  0  0  0  0  0
   23.3005  -11.4803  -16.8486 C   0  0  1  0  0  0  0  0  0  0  0  0
   24.5594  -11.3915  -15.9962 C   0  0  0  0  0  0  0  0  0  0  0  0
   24.9471  -12.9873  -15.2537 S   0  0  0  0  0  0  0  0  0  0  0  0
   22.8911  -10.0731  -17.1649 C   0  0  0  0  0  0  0  0  0  0  0  0
   23.4364   -9.5264  -18.1549 O   0  0  0  0  0  0  0  0  0  0  0  0
   21.9235   -9.4653  -16.3279 N   0  0  0  0  0  0  0  0  0  0  0  0
   21.4226   -8.1396  -16.7481 C   0  0  1  0  0  0  0  0  0  0  0  0
   19.9575   -8.2311  -16.8292 C   0  0  0  0  0  0  0  0  0  0  0  0
   19.1847   -6.9932  -17.1156 C   0  0  0  0  0  0  0  0  0  0  0  0
   17.7182   -7.1572  -17.1159 C   0  0  0  0  0  0  0  0  0  0  0  0
   17.1071   -7.5080  -18.1413 O   0  0  0  0  0  0  0  0  0  0  0  0
   22.0200   -7.1410  -15.8838 C   0  0  0  0  0  0  0  0  0  0  0  0
   22.0882   -7.3925  -14.6304 O   0  0  0  0  0  0  0  0  0  0  0  0
   17.0146   -6.9159  -15.9544 O   0  0  0  0  0  0  0  0  0  0  0  0
   23.7125   -3.7938  -16.0354 C   0  0  0  0  0  0  0  0  0  0  0  0
   23.1179   -4.9581  -15.2769 C   0  0  2  0  0  0  0  0  0  0  0  0
   22.5579   -5.8832  -16.2507 N   0  0  0  0  0  0  0  0  0  0  0  0
   21.9741   -4.4360  -14.4716 C   0  0  0  0  0  0  0  0  0  0  0  0
   20.6938   -4.5193  -14.9835 O   0  0  0  0  0  0  0  0  0  0  0  0
   22.1184   -3.9177  -13.3365 O   0  0  0  0  0  0  0  0  0  0  0  0
  2  1  1  6
  3  2  1  0
  4  3  1  0
  5  7  1  0
  5  2  1  0
  6  5  2  0
  8  9  1  1
  8  7  1  0
 10  9  1  0
 11 10  1  0
 11 15  1  0
 12 11  2  0
 13  8  1  0
 13 18  1  0
 14 13  2  0
 17 18  1  0
 17 16  1  6
 19 17  1  0
 20 19  1  0
 21 19  2  0
M  END
$$$$
