NRM.pdb
     RDKit          3D

 28 27  0  0  1  0  0  0  0  0999 V2000
   20.2276  -22.1606  -12.5013 N   0  0  0  0  0  0  0  0  0  0  0  0
   19.4706  -21.6763  -11.4077 C   0  0  0  0  0  0  0  0  0  0  0  0
   19.5198  -20.4460  -11.1733 O   0  0  0  0  0  0  0  0  0  0  0  0
   18.6490  -22.5457  -10.5585 C   0  0  0  0  0  0  0  0  0  0  0  0
   18.7735  -23.9670  -11.0319 C   0  0  2  0  0  0  0  0  0  0  0  0
   18.0236  -24.1161  -12.2690 N   0  0  0  0  0  0  0  0  0  0  0  0
   18.2188  -24.9395  -10.0581 C   0  0  0  0  0  0  0  0  0  0  0  0
   17.0041  -24.9116   -9.7373 O   0  0  0  0  0  0  0  0  0  0  0  0
   21.3712  -28.9830  -12.3726 N   0  0  0  0  0  0  0  0  0  0  0  0
   20.6170  -30.2116  -12.3626 C   0  0  0  0  0  0  0  0  0  0  0  0
   20.3668  -30.8335  -13.4682 N   0  0  0  0  0  0  0  0  0  0  0  0
   20.1409  -30.7549  -11.1517 N   0  0  0  0  0  0  0  0  0  0  0  0
   20.5157  -30.0194   -9.9072 C   0  0  0  0  0  0  0  0  0  0  0  0
   19.4870  -28.9744   -9.7521 C   0  0  0  0  0  0  0  0  0  0  0  0
   19.4874  -28.0280   -8.6446 C   0  0  0  0  0  0  0  0  0  0  0  0
   18.5154  -26.9262   -8.4991 C   0  0  2  0  0  0  0  0  0  0  0  0
   19.0474  -25.9010   -9.4855 N   0  0  0  0  0  0  0  0  0  0  0  0
   18.4409  -26.1983   -7.2364 C   0  0  0  0  0  0  0  0  0  0  0  0
   19.3644  -25.4893   -6.8055 O   0  0  0  0  0  0  0  0  0  0  0  0
   19.8265  -31.7217  -13.4591 C   0  0  0  0  0  0  0  0  0  0  0  0
   12.9818  -25.2121   -4.1060 S   0  0  0  0  0  0  0  0  0  0  0  0
   14.0256  -24.3581   -2.9230 C   0  0  0  0  0  0  0  0  0  0  0  0
   15.7735  -24.6304   -3.3451 C   0  0  0  0  0  0  0  0  0  0  0  0
   15.8868  -25.3050   -4.6825 C   0  0  2  0  0  0  0  0  0  0  0  0
   17.3020  -25.5863   -5.0583 N   0  0  0  0  0  0  0  0  0  0  0  0
   17.2840  -26.2439   -6.3830 C   0  0  0  0  0  0  0  0  0  0  0  0
   17.9080  -26.5451   -4.1228 O   0  0  0  0  0  0  0  0  0  0  0  0
   18.6142  -26.1753   -2.9954 O   0  0  0  0  0  0  0  0  0  0  0  0
  1  2  1  0
  2  3  2  0
  4  2  1  0
  5  4  1  0
  5  6  1  6
  7  8  2  0
  7  5  1  0
  9 10  1  0
 10 12  1  0
 11 10  2  0
 12 13  1  0
 14 13  1  0
 15 14  1  0
 16 15  1  1
 16 17  1  0
 17  7  1  0
 18 19  2  0
 18 16  1  0
 20 21  1  0
 22 21  1  0
 24 23  1  6
 23 22  1  0
 24 25  1  0
 25 18  1  0
 26 24  1  0
 27 26  1  0
 28 26  2  0
M  END
$$$$
