NRM.pdb
     RDKit          3D

 28 27  0  0  1  0  0  0  0  0999 V2000
   26.2744  -16.7101  -18.7497 N   0  0  0  0  0  0  0  0  0  0  0  0
   25.9671  -18.0590  -19.0485 C   0  0  0  0  0  0  0  0  0  0  0  0
   25.7079  -18.3396  -20.2423 O   0  0  0  0  0  0  0  0  0  0  0  0
   25.9421  -19.1159  -18.0315 C   0  0  0  0  0  0  0  0  0  0  0  0
   26.2090  -18.5140  -16.6802 C   0  0  2  0  0  0  0  0  0  0  0  0
   27.4673  -17.7867  -16.7316 N   0  0  0  0  0  0  0  0  0  0  0  0
   26.3345  -19.5412  -15.6168 C   0  0  0  0  0  0  0  0  0  0  0  0
   25.4224  -20.3830  -15.4204 O   0  0  0  0  0  0  0  0  0  0  0  0
   32.0311  -20.5674   -9.6033 N   0  0  0  0  0  0  0  0  0  0  0  0
   32.1230  -21.9457  -10.0160 C   0  0  0  0  0  0  0  0  0  0  0  0
   32.8627  -22.7768   -9.3574 N   0  0  0  0  0  0  0  0  0  0  0  0
   31.4103  -22.4100  -11.1405 N   0  0  0  0  0  0  0  0  0  0  0  0
   31.1702  -21.4131  -12.2262 C   0  0  0  0  0  0  0  0  0  0  0  0
   29.7059  -21.3719  -12.3953 C   0  0  0  0  0  0  0  0  0  0  0  0
   29.0536  -20.5563  -13.4107 C   0  0  0  0  0  0  0  0  0  0  0  0
   27.5969  -20.5449  -13.6509 C   0  0  2  0  0  0  0  0  0  0  0  0
   27.4752  -19.5819  -14.8192 N   0  0  0  0  0  0  0  0  0  0  0  0
   26.7077  -19.9868  -12.6372 C   0  0  0  0  0  0  0  0  0  0  0  0
   26.2723  -18.8251  -12.6806 O   0  0  0  0  0  0  0  0  0  0  0  0
   32.9191  -23.7731   -9.6494 C   0  0  0  0  0  0  0  0  0  0  0  0
   21.7132  -19.3702  -13.8515 S   0  0  0  0  0  0  0  0  0  0  0  0
   21.2460  -20.1989  -12.3306 C   0  0  0  0  0  0  0  0  0  0  0  0
   22.5899  -20.0445  -11.1152 C   0  0  0  0  0  0  0  0  0  0  0  0
   23.8941  -20.4746  -11.7242 C   0  0  2  0  0  0  0  0  0  0  0  0
   25.0339  -20.3503  -10.7711 N   0  0  0  0  0  0  0  0  0  0  0  0
   26.2610  -20.7426  -11.4978 C   0  0  0  0  0  0  0  0  0  0  0  0
   24.8860  -21.2980   -9.6566 O   0  0  0  0  0  0  0  0  0  0  0  0
   24.2773  -20.9835   -8.4578 O   0  0  0  0  0  0  0  0  0  0  0  0
  1  2  1  0
  2  3  2  0
  4  2  1  0
  5  4  1  0
  5  6  1  6
  7  8  2  0
  7  5  1  0
  9 10  1  0
 10 12  1  0
 11 10  2  0
 12 13  1  0
 14 13  1  0
 15 14  1  0
 16 15  1  1
 16 17  1  0
 17  7  1  0
 18 19  2  0
 18 16  1  0
 20 21  1  0
 22 21  1  0
 24 23  1  6
 23 22  1  0
 24 25  1  0
 25 18  1  0
 26 24  1  0
 27 26  1  0
 28 26  2  0
M  END
$$$$
