NRM.pdb
     RDKit          3D

 28 27  0  0  1  0  0  0  0  0999 V2000
   18.6761  -17.9937  -13.0927 N   0  0  0  0  0  0  0  0  0  0  0  0
   19.5405  -18.8102  -13.8605 C   0  0  0  0  0  0  0  0  0  0  0  0
   19.5447  -18.6366  -15.1018 O   0  0  0  0  0  0  0  0  0  0  0  0
   20.4122  -19.8296  -13.2661 C   0  0  0  0  0  0  0  0  0  0  0  0
   21.7583  -19.2269  -12.9761 C   0  0  2  0  0  0  0  0  0  0  0  0
   22.4303  -18.9528  -14.2364 N   0  0  0  0  0  0  0  0  0  0  0  0
   22.6322  -20.1392  -12.1978 C   0  0  0  0  0  0  0  0  0  0  0  0
   22.2343  -20.6544  -11.1228 O   0  0  0  0  0  0  0  0  0  0  0  0
   24.1227  -26.7271  -15.1960 N   0  0  0  0  0  0  0  0  0  0  0  0
   23.7439  -25.3903  -15.5809 C   0  0  0  0  0  0  0  0  0  0  0  0
   22.6704  -25.1893  -16.2730 N   0  0  0  0  0  0  0  0  0  0  0  0
   24.5341  -24.2829  -15.2108 N   0  0  0  0  0  0  0  0  0  0  0  0
   25.5998  -24.5432  -14.1974 C   0  0  0  0  0  0  0  0  0  0  0  0
   25.2280  -23.7256  -13.0279 C   0  0  0  0  0  0  0  0  0  0  0  0
   25.2978  -22.2706  -13.0305 C   0  0  0  0  0  0  0  0  0  0  0  0
   24.8131  -21.4182  -11.9268 C   0  0  2  0  0  0  0  0  0  0  0  0
   23.9133  -20.4356  -12.6560 N   0  0  0  0  0  0  0  0  0  0  0  0
   25.7581  -20.5686  -11.2092 C   0  0  0  0  0  0  0  0  0  0  0  0
   26.3080  -19.5805  -11.7215 O   0  0  0  0  0  0  0  0  0  0  0  0
   22.3922  -24.2237  -16.5397 C   0  0  0  0  0  0  0  0  0  0  0  0
   26.6282  -20.2422   -4.9217 S   0  0  0  0  0  0  0  0  0  0  0  0
   28.3347  -19.8615   -5.3231 C   0  0  0  0  0  0  0  0  0  0  0  0
   28.5718  -19.9529   -7.1238 C   0  0  0  0  0  0  0  0  0  0  0  0
   27.2886  -20.3469   -7.7982 C   0  0  1  0  0  0  0  0  0  0  0  0
   27.3589  -20.2027   -9.2806 N   0  0  0  0  0  0  0  0  0  0  0  0
   26.1318  -20.8090   -9.8412 C   0  0  0  0  0  0  0  0  0  0  0  0
   28.4905  -20.9678   -9.8247 O   0  0  0  0  0  0  0  0  0  0  0  0
   28.3747  -22.2390  -10.3512 O   0  0  0  0  0  0  0  0  0  0  0  0
  1  2  1  0
  2  3  2  0
  4  2  1  0
  5  4  1  0
  5  6  1  6
  7  8  2  0
  7  5  1  0
  9 10  1  0
 10 12  1  0
 11 10  2  0
 12 13  1  0
 14 13  1  0
 15 14  1  0
 16 15  1  6
 16 17  1  0
 17  7  1  0
 18 19  2  0
 18 16  1  0
 20 21  1  0
 22 21  1  0
 24 23  1  1
 23 22  1  0
 24 25  1  0
 25 18  1  0
 26 24  1  0
 27 26  1  0
 28 26  2  0
M  END
$$$$
