NRM.pdb
     RDKit          3D

 28 27  0  0  1  0  0  0  0  0999 V2000
   14.8590  -20.6565  -11.3972 N   0  0  0  0  0  0  0  0  0  0  0  0
   14.1144  -20.8808  -10.2147 C   0  0  0  0  0  0  0  0  0  0  0  0
   13.4694  -19.9126   -9.7480 O   0  0  0  0  0  0  0  0  0  0  0  0
   14.0725  -22.1786   -9.5320 C   0  0  0  0  0  0  0  0  0  0  0  0
   14.9401  -23.1588  -10.2709 C   0  0  2  0  0  0  0  0  0  0  0  0
   14.2431  -23.5879  -11.4730 N   0  0  0  0  0  0  0  0  0  0  0  0
   15.2313  -24.3738   -9.4706 C   0  0  0  0  0  0  0  0  0  0  0  0
   14.3267  -25.2045   -9.2042 O   0  0  0  0  0  0  0  0  0  0  0  0
   21.4925  -28.8594  -11.7849 N   0  0  0  0  0  0  0  0  0  0  0  0
   20.2099  -28.2662  -12.0703 C   0  0  0  0  0  0  0  0  0  0  0  0
   19.7924  -28.1681  -13.2900 N   0  0  0  0  0  0  0  0  0  0  0  0
   19.3911  -27.7845  -11.0283 N   0  0  0  0  0  0  0  0  0  0  0  0
   19.8129  -28.1406   -9.6407 C   0  0  0  0  0  0  0  0  0  0  0  0
   18.7480  -27.6145   -8.7668 C   0  0  0  0  0  0  0  0  0  0  0  0
   18.0348  -26.3770   -9.0531 C   0  0  0  0  0  0  0  0  0  0  0  0
   16.8849  -25.8856   -8.2682 C   0  0  2  0  0  0  0  0  0  0  0  0
   16.5221  -24.6067   -9.0029 N   0  0  0  0  0  0  0  0  0  0  0  0
   17.0899  -25.4561   -6.8886 C   0  0  0  0  0  0  0  0  0  0  0  0
   17.6488  -24.3901   -6.5848 O   0  0  0  0  0  0  0  0  0  0  0  0
   18.8829  -27.7089  -13.4972 C   0  0  0  0  0  0  0  0  0  0  0  0
   14.7080  -25.8241    0.5751 S   0  0  0  0  0  0  0  0  0  0  0  0
   14.4699  -26.2962   -1.1392 C   0  0  0  0  0  0  0  0  0  0  0  0
   15.9862  -25.9512   -2.0822 C   0  0  0  0  0  0  0  0  0  0  0  0
   15.7527  -26.1872   -3.5473 C   0  0  1  0  0  0  0  0  0  0  0  0
   16.9172  -25.7733   -4.3815 N   0  0  0  0  0  0  0  0  0  0  0  0
   16.6585  -26.2387   -5.7614 C   0  0  0  0  0  0  0  0  0  0  0  0
   18.1440  -26.4494   -3.9344 O   0  0  0  0  0  0  0  0  0  0  0  0
   19.0387  -25.9011   -3.0371 O   0  0  0  0  0  0  0  0  0  0  0  0
  1  2  1  0
  2  3  2  0
  4  2  1  0
  5  4  1  0
  5  6  1  6
  7  8  2  0
  7  5  1  0
  9 10  1  0
 10 12  1  0
 11 10  2  0
 12 13  1  0
 14 13  1  0
 15 14  1  0
 16 15  1  6
 16 17  1  0
 17  7  1  0
 18 19  2  0
 18 16  1  0
 20 21  1  0
 22 21  1  0
 24 23  1  6
 23 22  1  0
 24 25  1  0
 25 18  1  0
 26 24  1  0
 27 26  1  0
 28 26  2  0
M  END
$$$$
