NRM.pdb
     RDKit          3D

 28 27  0  0  1  0  0  0  0  0999 V2000
   26.9378  -26.4988  -16.5386 N   0  0  0  0  0  0  0  0  0  0  0  0
   25.6128  -26.4705  -17.0354 C   0  0  0  0  0  0  0  0  0  0  0  0
   25.2601  -27.4083  -17.7886 O   0  0  0  0  0  0  0  0  0  0  0  0
   24.6596  -25.4051  -16.7062 C   0  0  0  0  0  0  0  0  0  0  0  0
   25.2540  -24.5122  -15.6531 C   0  0  2  0  0  0  0  0  0  0  0  0
   25.2512  -25.2201  -14.3827 N   0  0  0  0  0  0  0  0  0  0  0  0
   24.4770  -23.2622  -15.4650 C   0  0  0  0  0  0  0  0  0  0  0  0
   23.2675  -23.2979  -15.1256 O   0  0  0  0  0  0  0  0  0  0  0  0
   27.2382  -21.0949   -9.6181 N   0  0  0  0  0  0  0  0  0  0  0  0
   25.8158  -20.9412   -9.7963 C   0  0  0  0  0  0  0  0  0  0  0  0
   25.0743  -20.5398   -8.8162 N   0  0  0  0  0  0  0  0  0  0  0  0
   25.2106  -21.2246  -11.0379 N   0  0  0  0  0  0  0  0  0  0  0  0
   26.1152  -21.7366  -12.1102 C   0  0  0  0  0  0  0  0  0  0  0  0
   25.9214  -20.8195  -13.2487 C   0  0  0  0  0  0  0  0  0  0  0  0
   24.6242  -20.6078  -13.8767 C   0  0  0  0  0  0  0  0  0  0  0  0
   24.3800  -20.7250  -15.3281 C   0  0  2  0  0  0  0  0  0  0  0  0
   25.0869  -22.0265  -15.6650 N   0  0  0  0  0  0  0  0  0  0  0  0
   24.9776  -19.7514  -16.2363 C   0  0  0  0  0  0  0  0  0  0  0  0
   26.0136  -19.1211  -15.9707 O   0  0  0  0  0  0  0  0  0  0  0  0
   24.0441  -20.4653   -8.9350 C   0  0  0  0  0  0  0  0  0  0  0  0
   20.7851  -14.1643  -15.7264 S   0  0  0  0  0  0  0  0  0  0  0  0
   21.4630  -15.8043  -15.4635 C   0  0  0  0  0  0  0  0  0  0  0  0
   22.5025  -16.2682  -16.8818 C   0  0  0  0  0  0  0  0  0  0  0  0
   23.0518  -17.6536  -16.6931 C   0  0  1  0  0  0  0  0  0  0  0  0
   23.9334  -18.0730  -17.8202 N   0  0  0  0  0  0  0  0  0  0  0  0
   24.4105  -19.4407  -17.5211 C   0  0  0  0  0  0  0  0  0  0  0  0
   25.1280  -17.2189  -17.8919 O   0  0  0  0  0  0  0  0  0  0  0  0
   25.2609  -16.1574  -18.7649 O   0  0  0  0  0  0  0  0  0  0  0  0
  1  2  1  0
  2  3  2  0
  4  2  1  0
  5  4  1  0
  5  6  1  1
  7  8  2  0
  7  5  1  0
  9 10  1  0
 10 12  1  0
 11 10  2  0
 12 13  1  0
 14 13  1  0
 15 14  1  0
 16 15  1  1
 16 17  1  0
 17  7  1  0
 18 19  2  0
 18 16  1  0
 20 21  1  0
 22 21  1  0
 24 23  1  6
 23 22  1  0
 24 25  1  0
 25 18  1  0
 26 24  1  0
 27 26  1  0
 28 26  2  0
M  END
$$$$
