NRM.pdb
     RDKit          3D

 28 27  0  0  1  0  0  0  0  0999 V2000
   14.4982  -14.4448  -14.9412 N   0  0  0  0  0  0  0  0  0  0  0  0
   14.1620  -13.9900  -13.6437 C   0  0  0  0  0  0  0  0  0  0  0  0
   13.1765  -14.5248  -13.0835 O   0  0  0  0  0  0  0  0  0  0  0  0
   14.9110  -12.9378  -12.9480 C   0  0  0  0  0  0  0  0  0  0  0  0
   16.0222  -12.4479  -13.8339 C   0  0  2  0  0  0  0  0  0  0  0  0
   17.1027  -13.4211  -13.8117 N   0  0  0  0  0  0  0  0  0  0  0  0
   16.5833  -11.1530  -13.3758 C   0  0  0  0  0  0  0  0  0  0  0  0
   17.1173  -11.0443  -12.2434 O   0  0  0  0  0  0  0  0  0  0  0  0
   19.0634   -4.6895  -18.0823 N   0  0  0  0  0  0  0  0  0  0  0  0
   18.7050   -3.9256  -16.9133 C   0  0  0  0  0  0  0  0  0  0  0  0
   18.4779   -2.6563  -17.0068 N   0  0  0  0  0  0  0  0  0  0  0  0
   18.5961   -4.5470  -15.6523 N   0  0  0  0  0  0  0  0  0  0  0  0
   18.8595   -6.0166  -15.6170 C   0  0  0  0  0  0  0  0  0  0  0  0
   17.5627   -6.6329  -15.2810 C   0  0  0  0  0  0  0  0  0  0  0  0
   17.3993   -8.0677  -15.0897 C   0  0  0  0  0  0  0  0  0  0  0  0
   17.1134   -8.7002  -13.7867 C   0  0  2  0  0  0  0  0  0  0  0  0
   16.5227  -10.0357  -14.2047 N   0  0  0  0  0  0  0  0  0  0  0  0
   16.0964   -8.1195  -12.9159 C   0  0  0  0  0  0  0  0  0  0  0  0
   14.8792   -8.1957  -13.1480 O   0  0  0  0  0  0  0  0  0  0  0  0
   18.1964   -2.1112  -16.1673 C   0  0  0  0  0  0  0  0  0  0  0  0
   13.4241   -6.7205   -5.8205 S   0  0  0  0  0  0  0  0  0  0  0  0
   14.5605   -7.5240   -6.9524 C   0  0  0  0  0  0  0  0  0  0  0  0
   14.4745   -6.7148   -8.5787 C   0  0  0  0  0  0  0  0  0  0  0  0
   15.4024   -7.3921   -9.5466 C   0  0  1  0  0  0  0  0  0  0  0  0
   15.3610   -6.7712  -10.9016 N   0  0  0  0  0  0  0  0  0  0  0  0
   16.4240   -7.4067  -11.7103 C   0  0  0  0  0  0  0  0  0  0  0  0
   15.6895   -5.3399  -10.8284 O   0  0  0  0  0  0  0  0  0  0  0  0
   14.8183   -4.3757  -10.3617 O   0  0  0  0  0  0  0  0  0  0  0  0
  1  2  1  0
  2  3  2  0
  4  2  1  0
  5  4  1  0
  5  6  1  1
  7  8  2  0
  7  5  1  0
  9 10  1  0
 10 12  1  0
 11 10  2  0
 12 13  1  0
 14 13  1  0
 15 14  1  0
 16 15  1  6
 16 17  1  0
 17  7  1  0
 18 19  2  0
 18 16  1  0
 20 21  1  0
 22 21  1  0
 24 23  1  6
 23 22  1  0
 24 25  1  0
 25 18  1  0
 26 24  1  0
 27 26  1  0
 28 26  2  0
M  END
$$$$
