NRM.pdb
     RDKit          3D

 28 27  0  0  1  0  0  0  0  0999 V2000
   26.1887  -22.0058  -15.7446 N   0  0  0  0  0  0  0  0  0  0  0  0
   26.4125  -21.8853  -14.3522 C   0  0  0  0  0  0  0  0  0  0  0  0
   27.5529  -22.1816  -13.9246 O   0  0  0  0  0  0  0  0  0  0  0  0
   25.3785  -21.4356  -13.4137 C   0  0  0  0  0  0  0  0  0  0  0  0
   24.0849  -21.2392  -14.1536 C   0  0  2  0  0  0  0  0  0  0  0  0
   24.2616  -20.1784  -15.1325 N   0  0  0  0  0  0  0  0  0  0  0  0
   22.9747  -20.8335  -13.2567 C   0  0  0  0  0  0  0  0  0  0  0  0
   23.0990  -19.8571  -12.4753 O   0  0  0  0  0  0  0  0  0  0  0  0
   17.8068  -21.8209  -17.1413 N   0  0  0  0  0  0  0  0  0  0  0  0
   16.9533  -21.1803  -16.1719 C   0  0  0  0  0  0  0  0  0  0  0  0
   15.7189  -21.5442  -16.0468 N   0  0  0  0  0  0  0  0  0  0  0  0
   17.4476  -20.1499  -15.3462 N   0  0  0  0  0  0  0  0  0  0  0  0
   18.8529  -19.7154  -15.6047 C   0  0  0  0  0  0  0  0  0  0  0  0
   19.6846  -20.5548  -14.7226 C   0  0  0  0  0  0  0  0  0  0  0  0
   19.7806  -20.3328  -13.2862 C   0  0  0  0  0  0  0  0  0  0  0  0
   20.6098  -21.1493  -12.3775 C   0  0  2  0  0  0  0  0  0  0  0  0
   21.7736  -21.5378  -13.2728 N   0  0  0  0  0  0  0  0  0  0  0  0
   20.0956  -22.4253  -11.8904 C   0  0  0  0  0  0  0  0  0  0  0  0
   19.9905  -23.4335  -12.6070 O   0  0  0  0  0  0  0  0  0  0  0  0
   15.1040  -21.0798  -15.3489 C   0  0  0  0  0  0  0  0  0  0  0  0
   16.7083  -24.4942   -5.6937 S   0  0  0  0  0  0  0  0  0  0  0  0
   18.3274  -25.0452   -6.2353 C   0  0  0  0  0  0  0  0  0  0  0  0
   18.3685  -25.1223   -8.0518 C   0  0  0  0  0  0  0  0  0  0  0  0
   19.0387  -23.8989   -8.6094 C   0  0  1  0  0  0  0  0  0  0  0  0
   19.1092  -23.9195  -10.0986 N   0  0  0  0  0  0  0  0  0  0  0  0
   19.6657  -22.6192  -10.5315 C   0  0  0  0  0  0  0  0  0  0  0  0
   17.7629  -24.0141  -10.6821 O   0  0  0  0  0  0  0  0  0  0  0  0
   16.8838  -22.9522  -10.7593 O   0  0  0  0  0  0  0  0  0  0  0  0
  1  2  1  0
  2  3  2  0
  4  2  1  0
  5  4  1  0
  5  6  1  6
  7  8  2  0
  7  5  1  0
  9 10  1  0
 10 12  1  0
 11 10  2  0
 12 13  1  0
 14 13  1  0
 15 14  1  0
 16 15  1  6
 16 17  1  0
 17  7  1  0
 18 19  2  0
 18 16  1  0
 20 21  1  0
 22 21  1  0
 24 23  1  1
 23 22  1  0
 24 25  1  0
 25 18  1  0
 26 24  1  0
 27 26  1  0
 28 26  2  0
M  END
$$$$
