NRM.pdb
     RDKit          3D

 28 27  0  0  1  0  0  0  0  0999 V2000
   18.7375  -18.8960  -11.6645 N   0  0  0  0  0  0  0  0  0  0  0  0
   20.0780  -18.7935  -12.1071 C   0  0  0  0  0  0  0  0  0  0  0  0
   20.2961  -18.0981  -13.1269 O   0  0  0  0  0  0  0  0  0  0  0  0
   21.1957  -19.4583  -11.4282 C   0  0  0  0  0  0  0  0  0  0  0  0
   21.8704  -20.4011  -12.3850 C   0  0  2  0  0  0  0  0  0  0  0  0
   20.9907  -21.5340  -12.6251 N   0  0  0  0  0  0  0  0  0  0  0  0
   23.1458  -20.9369  -11.8482 C   0  0  0  0  0  0  0  0  0  0  0  0
   23.1531  -21.7459  -10.8866 O   0  0  0  0  0  0  0  0  0  0  0  0
   30.4953  -22.9377  -14.4338 N   0  0  0  0  0  0  0  0  0  0  0  0
   29.3246  -22.7512  -15.2544 C   0  0  0  0  0  0  0  0  0  0  0  0
   28.9725  -23.6584  -16.1057 N   0  0  0  0  0  0  0  0  0  0  0  0
   28.5460  -21.5810  -15.1434 N   0  0  0  0  0  0  0  0  0  0  0  0
   28.9354  -20.6309  -14.0589 C   0  0  0  0  0  0  0  0  0  0  0  0
   28.0448  -20.9505  -12.9279 C   0  0  0  0  0  0  0  0  0  0  0  0
   26.5985  -20.7907  -12.9956 C   0  0  0  0  0  0  0  0  0  0  0  0
   25.6868  -21.0302  -11.8592 C   0  0  2  0  0  0  0  0  0  0  0  0
   24.3576  -20.5443  -12.4107 N   0  0  0  0  0  0  0  0  0  0  0  0
   25.8604  -20.2664  -10.6278 C   0  0  0  0  0  0  0  0  0  0  0  0
   25.5364  -19.0732  -10.5170 O   0  0  0  0  0  0  0  0  0  0  0  0
   28.1500  -23.5062  -16.7233 C   0  0  0  0  0  0  0  0  0  0  0  0
   29.1666  -21.7505   -4.3308 S   0  0  0  0  0  0  0  0  0  0  0  0
   27.4671  -21.1878   -4.4473 C   0  0  0  0  0  0  0  0  0  0  0  0
   27.2944  -20.0610   -5.8642 C   0  0  0  0  0  0  0  0  0  0  0  0
   26.8317  -20.8172   -7.0769 C   0  0  1  0  0  0  0  0  0  0  0  0
   26.8276  -19.9720   -8.3054 N   0  0  0  0  0  0  0  0  0  0  0  0
   26.4251  -20.8381   -9.4348 C   0  0  0  0  0  0  0  0  0  0  0  0
   28.1828  -19.4897   -8.6096 O   0  0  0  0  0  0  0  0  0  0  0  0
   28.7360  -18.3539   -8.0523 O   0  0  0  0  0  0  0  0  0  0  0  0
  1  2  1  0
  2  3  2  0
  4  2  1  0
  5  4  1  0
  5  6  1  1
  7  8  2  0
  7  5  1  0
  9 10  1  0
 10 12  1  0
 11 10  2  0
 12 13  1  0
 14 13  1  0
 15 14  1  0
 16 15  1  6
 16 17  1  0
 17  7  1  0
 18 19  2  0
 18 16  1  0
 20 21  1  0
 22 21  1  0
 24 23  1  1
 23 22  1  0
 24 25  1  0
 25 18  1  0
 26 24  1  0
 27 26  1  0
 28 26  2  0
M  END
$$$$
