NRM.pdb
     RDKit          3D

 28 27  0  0  1  0  0  0  0  0999 V2000
   16.4896  -24.8477  -12.9098 N   0  0  0  0  0  0  0  0  0  0  0  0
   16.9519  -23.7310  -13.6464 C   0  0  0  0  0  0  0  0  0  0  0  0
   16.1490  -22.7846  -13.8218 O   0  0  0  0  0  0  0  0  0  0  0  0
   18.3081  -23.6455  -14.1991 C   0  0  0  0  0  0  0  0  0  0  0  0
   18.8836  -22.2894  -13.9004 C   0  0  2  0  0  0  0  0  0  0  0  0
   18.1634  -21.2933  -14.6777 N   0  0  0  0  0  0  0  0  0  0  0  0
   20.3170  -22.1878  -14.2701 C   0  0  0  0  0  0  0  0  0  0  0  0
   21.1537  -23.0265  -13.8507 O   0  0  0  0  0  0  0  0  0  0  0  0
   22.1268  -21.5923  -20.1837 N   0  0  0  0  0  0  0  0  0  0  0  0
   23.3689  -20.9550  -20.5436 C   0  0  0  0  0  0  0  0  0  0  0  0
   24.1431  -21.4878  -21.4316 N   0  0  0  0  0  0  0  0  0  0  0  0
   23.7598  -19.7441  -19.9361 N   0  0  0  0  0  0  0  0  0  0  0  0
   22.7728  -19.1280  -18.9999 C   0  0  0  0  0  0  0  0  0  0  0  0
   23.0130  -19.7827  -17.7006 C   0  0  0  0  0  0  0  0  0  0  0  0
   21.9650  -20.4745  -16.9623 C   0  0  0  0  0  0  0  0  0  0  0  0
   22.1658  -21.1150  -15.6473 C   0  0  2  0  0  0  0  0  0  0  0  0
   20.7522  -21.1521  -15.0930 N   0  0  0  0  0  0  0  0  0  0  0  0
   22.9316  -20.4170  -14.6196 C   0  0  0  0  0  0  0  0  0  0  0  0
   22.5999  -19.3138  -14.1569 O   0  0  0  0  0  0  0  0  0  0  0  0
   25.0390  -21.0275  -21.6894 C   0  0  0  0  0  0  0  0  0  0  0  0
   26.7587  -22.3216   -9.0742 S   0  0  0  0  0  0  0  0  0  0  0  0
   25.6271  -20.9325   -9.1641 C   0  0  0  0  0  0  0  0  0  0  0  0
   25.7853  -20.1219  -10.7844 C   0  0  0  0  0  0  0  0  0  0  0  0
   24.8900  -20.7891  -11.7894 C   0  0  1  0  0  0  0  0  0  0  0  0
   24.9630  -20.1433  -13.1315 N   0  0  0  0  0  0  0  0  0  0  0  0
   24.1411  -20.9541  -14.0560 C   0  0  0  0  0  0  0  0  0  0  0  0
   26.3376  -20.1791  -13.6520 O   0  0  0  0  0  0  0  0  0  0  0  0
   26.7312  -20.9512  -14.7269 O   0  0  0  0  0  0  0  0  0  0  0  0
  1  2  1  0
  2  3  2  0
  4  2  1  0
  5  4  1  0
  5  6  1  6
  7  8  2  0
  7  5  1  0
  9 10  1  0
 10 12  1  0
 11 10  2  0
 12 13  1  0
 14 13  1  0
 15 14  1  0
 16 15  1  6
 16 17  1  0
 17  7  1  0
 18 19  2  0
 18 16  1  0
 20 21  1  0
 22 21  1  0
 24 23  1  1
 23 22  1  0
 24 25  1  0
 25 18  1  0
 26 24  1  0
 27 26  1  0
 28 26  2  0
M  END
$$$$
