CCR.pdb
     RDKit          3D

 24 23  0  0  1  0  0  0  0  0999 V2000
    5.4937  -22.0707   16.8095 N   0  0  0  0  0  0  0  0  0  0  0  0
    4.7792  -22.1052   18.0474 C   0  0  1  0  0  0  0  0  0  0  0  0
    5.3542  -23.2049   18.9362 C   0  0  0  0  0  0  0  0  0  0  0  0
    7.1183  -22.9544   19.2267 S   0  0  0  0  0  0  0  0  0  0  0  0
    4.8889  -20.8504   18.8356 C   0  0  0  0  0  0  0  0  0  0  0  0
    5.6278  -19.9461   18.3891 O   0  0  0  0  0  0  0  0  0  0  0  0
    4.2078  -20.6114   20.0645 N   0  0  0  0  0  0  0  0  0  0  0  0
    4.2781  -19.3528   20.7657 C   0  0  1  0  0  0  0  0  0  0  0  0
    2.9302  -19.1111   21.4145 C   0  0  0  0  0  0  0  0  0  0  0  0
    3.1450  -18.2544   22.9834 S   0  0  0  0  0  0  0  0  0  0  0  0
    5.3701  -19.2506   21.7330 C   0  0  0  0  0  0  0  0  0  0  0  0
    5.5744  -20.2707   22.4632 O   0  0  0  0  0  0  0  0  0  0  0  0
   13.2371  -16.4555   21.3030 N   0  0  0  0  0  0  0  0  0  0  0  0
   13.1601  -16.2840   22.7025 C   0  0  0  0  0  0  0  0  0  0  0  0
   14.1870  -15.9126   23.3797 N   0  0  0  0  0  0  0  0  0  0  0  0
   11.9187  -16.5345   23.3314 N   0  0  0  0  0  0  0  0  0  0  0  0
   10.7366  -16.5951   22.4075 C   0  0  0  0  0  0  0  0  0  0  0  0
    9.5221  -16.8390   23.2100 C   0  0  0  0  0  0  0  0  0  0  0  0
    8.2045  -17.0248   22.6146 C   0  0  0  0  0  0  0  0  0  0  0  0
    7.2850  -18.1187   22.9639 C   0  0  2  0  0  0  0  0  0  0  0  0
    6.2006  -18.1296   21.9175 N   0  0  0  0  0  0  0  0  0  0  0  0
    6.5420  -18.0225   24.2123 C   0  0  0  0  0  0  0  0  0  0  0  0
    6.8635  -18.5903   25.4219 O   0  0  0  0  0  0  0  0  0  0  0  0
    5.4475  -17.3379   24.2112 O   0  0  0  0  0  0  0  0  0  0  0  0
  2  3  1  0
  2  1  1  6
  4  3  1  0
  5  2  1  0
  5  6  2  0
  7  5  1  0
  8 11  1  0
  8  7  1  0
  8  9  1  1
 10  9  1  0
 11 21  1  0
 12 11  2  0
 14 13  1  0
 15 14  2  0
 16 14  1  0
 17 16  1  0
 18 17  1  0
 19 18  1  0
 20 19  1  6
 21 20  1  0
 22 23  1  0
 22 20  1  0
 24 22  2  0
M  END
$$$$
