CCR.pdb
     RDKit          3D

 24 23  0  0  1  0  0  0  0  0999 V2000
    7.5336  -18.9850   18.2264 N   0  0  0  0  0  0  0  0  0  0  0  0
    6.6640  -18.1365   18.9800 C   0  0  1  0  0  0  0  0  0  0  0  0
    5.8249  -18.9848   19.9320 C   0  0  0  0  0  0  0  0  0  0  0  0
    4.7611  -17.9521   20.9619 S   0  0  0  0  0  0  0  0  0  0  0  0
    7.3805  -17.1568   19.8372 C   0  0  0  0  0  0  0  0  0  0  0  0
    8.1987  -17.6028   20.6708 O   0  0  0  0  0  0  0  0  0  0  0  0
    7.1962  -15.7452   19.7706 N   0  0  0  0  0  0  0  0  0  0  0  0
    7.8976  -14.8235   20.6303 C   0  0  1  0  0  0  0  0  0  0  0  0
    7.5660  -13.4191   20.1680 C   0  0  0  0  0  0  0  0  0  0  0  0
    8.3477  -12.2119   21.2511 S   0  0  0  0  0  0  0  0  0  0  0  0
    7.6370  -14.9985   22.0586 C   0  0  0  0  0  0  0  0  0  0  0  0
    6.4447  -14.7861   22.4448 O   0  0  0  0  0  0  0  0  0  0  0  0
    6.7073  -21.2400   23.0238 N   0  0  0  0  0  0  0  0  0  0  0  0
    7.5457  -20.9314   24.1172 C   0  0  0  0  0  0  0  0  0  0  0  0
    8.4937  -21.7251   24.4671 N   0  0  0  0  0  0  0  0  0  0  0  0
    7.3070  -19.7233   24.8122 N   0  0  0  0  0  0  0  0  0  0  0  0
    6.1044  -18.9504   24.3528 C   0  0  0  0  0  0  0  0  0  0  0  0
    6.4509  -17.5161   24.3158 C   0  0  0  0  0  0  0  0  0  0  0  0
    7.7972  -17.0204   24.5747 C   0  0  0  0  0  0  0  0  0  0  0  0
    8.1954  -15.6087   24.4625 C   0  0  2  0  0  0  0  0  0  0  0  0
    8.5864  -15.3775   23.0256 N   0  0  0  0  0  0  0  0  0  0  0  0
    9.3671  -15.1621   25.2024 C   0  0  0  0  0  0  0  0  0  0  0  0
    9.4360  -14.8223   26.5323 O   0  0  0  0  0  0  0  0  0  0  0  0
   10.4817  -15.0564   24.5597 O   0  0  0  0  0  0  0  0  0  0  0  0
  2  3  1  0
  2  1  1  1
  4  3  1  0
  5  2  1  0
  5  6  2  0
  7  5  1  0
  8 11  1  0
  8  7  1  0
  8  9  1  6
 10  9  1  0
 11 21  1  0
 12 11  2  0
 14 13  1  0
 15 14  2  0
 16 14  1  0
 17 16  1  0
 18 17  1  0
 19 18  1  0
 20 19  1  6
 21 20  1  0
 22 23  1  0
 22 20  1  0
 24 22  2  0
M  END
$$$$
