CCR.pdb
     RDKit          3D

 24 23  0  0  1  0  0  0  0  0999 V2000
    9.5473  -15.4530   16.0582 N   0  0  0  0  0  0  0  0  0  0  0  0
    8.7149  -16.0933   17.0284 C   0  0  1  0  0  0  0  0  0  0  0  0
    8.8923  -17.6063   16.9316 C   0  0  0  0  0  0  0  0  0  0  0  0
    7.8802  -18.2991   15.6069 S   0  0  0  0  0  0  0  0  0  0  0  0
    9.0496  -15.7365   18.4314 C   0  0  0  0  0  0  0  0  0  0  0  0
   10.2590  -15.6625   18.7399 O   0  0  0  0  0  0  0  0  0  0  0  0
    8.0837  -15.4734   19.4458 N   0  0  0  0  0  0  0  0  0  0  0  0
    8.4444  -15.1580   20.8063 C   0  0  1  0  0  0  0  0  0  0  0  0
    7.2130  -14.6022   21.4924 C   0  0  0  0  0  0  0  0  0  0  0  0
    6.1788  -15.9489   22.0907 S   0  0  0  0  0  0  0  0  0  0  0  0
    9.0280  -16.2681   21.5586 C   0  0  0  0  0  0  0  0  0  0  0  0
    8.7920  -17.4358   21.1154 O   0  0  0  0  0  0  0  0  0  0  0  0
   12.3197  -16.6351   29.4162 N   0  0  0  0  0  0  0  0  0  0  0  0
   11.0519  -16.5829   28.7968 C   0  0  0  0  0  0  0  0  0  0  0  0
   10.0206  -16.1629   29.4379 N   0  0  0  0  0  0  0  0  0  0  0  0
   10.9560  -17.0076   27.4515 N   0  0  0  0  0  0  0  0  0  0  0  0
   12.2593  -17.3821   26.8067 C   0  0  0  0  0  0  0  0  0  0  0  0
   12.0049  -17.7299   25.3950 C   0  0  0  0  0  0  0  0  0  0  0  0
   11.2514  -16.8690   24.4915 C   0  0  0  0  0  0  0  0  0  0  0  0
   10.3816  -17.3614   23.4121 C   0  0  2  0  0  0  0  0  0  0  0  0
    9.8182  -16.1488   22.7169 N   0  0  0  0  0  0  0  0  0  0  0  0
    9.1927  -18.1188   23.7762 C   0  0  0  0  0  0  0  0  0  0  0  0
    9.0740  -19.4832   23.8913 O   0  0  0  0  0  0  0  0  0  0  0  0
    8.1086  -17.4604   24.0168 O   0  0  0  0  0  0  0  0  0  0  0  0
  2  3  1  0
  2  1  1  6
  4  3  1  0
  5  2  1  0
  5  6  2  0
  7  5  1  0
  8 11  1  0
  8  7  1  0
  8  9  1  1
 10  9  1  0
 11 21  1  0
 12 11  2  0
 14 13  1  0
 15 14  2  0
 16 14  1  0
 17 16  1  0
 18 17  1  0
 19 18  1  0
 20 19  1  1
 21 20  1  0
 22 23  1  0
 22 20  1  0
 24 22  2  0
M  END
$$$$
