CCR.pdb
     RDKit          3D

 24 23  0  0  1  0  0  0  0  0999 V2000
    7.6502  -12.1076   19.9321 N   0  0  0  0  0  0  0  0  0  0  0  0
    6.9790  -13.0893   20.7259 C   0  0  1  0  0  0  0  0  0  0  0  0
    7.1095  -14.4570   20.0608 C   0  0  0  0  0  0  0  0  0  0  0  0
    6.4332  -15.7608   21.1105 S   0  0  0  0  0  0  0  0  0  0  0  0
    7.5492  -13.2471   22.0889 C   0  0  0  0  0  0  0  0  0  0  0  0
    8.7895  -13.3688   22.1897 O   0  0  0  0  0  0  0  0  0  0  0  0
    6.7759  -13.2682   23.2858 N   0  0  0  0  0  0  0  0  0  0  0  0
    7.3567  -13.4831   24.5885 C   0  0  1  0  0  0  0  0  0  0  0  0
    6.3245  -13.0860   25.6243 C   0  0  0  0  0  0  0  0  0  0  0  0
    6.9685  -13.3758   27.2804 S   0  0  0  0  0  0  0  0  0  0  0  0
    7.8612  -14.8362   24.8188 C   0  0  0  0  0  0  0  0  0  0  0  0
    7.0293  -15.7837   24.6575 O   0  0  0  0  0  0  0  0  0  0  0  0
   13.8457  -19.7373   22.4126 N   0  0  0  0  0  0  0  0  0  0  0  0
   12.6555  -20.3638   21.9830 C   0  0  0  0  0  0  0  0  0  0  0  0
   12.6615  -21.1871   20.9966 N   0  0  0  0  0  0  0  0  0  0  0  0
   11.4603  -20.0548   22.6726 N   0  0  0  0  0  0  0  0  0  0  0  0
   11.1435  -18.5906   22.7749 C   0  0  0  0  0  0  0  0  0  0  0  0
   11.1412  -18.2065   24.2001 C   0  0  0  0  0  0  0  0  0  0  0  0
   10.7603  -16.8768   24.6605 C   0  0  0  0  0  0  0  0  0  0  0  0
    9.5737  -16.5939   25.4829 C   0  0  2  0  0  0  0  0  0  0  0  0
    9.1747  -15.1687   25.1992 N   0  0  0  0  0  0  0  0  0  0  0  0
    9.7176  -16.6173   26.9315 C   0  0  0  0  0  0  0  0  0  0  0  0
    9.6420  -17.7104   27.7611 O   0  0  0  0  0  0  0  0  0  0  0  0
    9.9341  -15.4963   27.5340 O   0  0  0  0  0  0  0  0  0  0  0  0
  2  3  1  0
  2  1  1  6
  4  3  1  0
  5  2  1  0
  5  6  2  0
  7  5  1  0
  8 11  1  0
  8  7  1  0
  8  9  1  1
 10  9  1  0
 11 21  1  0
 12 11  2  0
 14 13  1  0
 15 14  2  0
 16 14  1  0
 17 16  1  0
 18 17  1  0
 19 18  1  0
 20 19  1  6
 21 20  1  0
 22 23  1  0
 22 20  1  0
 24 22  2  0
M  END
$$$$
