CCR.pdb
     RDKit          3D

 24 23  0  0  1  0  0  0  0  0999 V2000
    3.0038  -21.4849   21.2516 N   0  0  0  0  0  0  0  0  0  0  0  0
    3.1883  -22.6231   22.0969 C   0  0  1  0  0  0  0  0  0  0  0  0
    3.3066  -23.8800   21.2390 C   0  0  0  0  0  0  0  0  0  0  0  0
    4.7555  -23.8035   20.1647 S   0  0  0  0  0  0  0  0  0  0  0  0
    4.4319  -22.5695   22.9082 C   0  0  0  0  0  0  0  0  0  0  0  0
    4.7406  -23.5863   23.5671 O   0  0  0  0  0  0  0  0  0  0  0  0
    5.2938  -21.4370   22.9836 N   0  0  0  0  0  0  0  0  0  0  0  0
    6.4868  -21.4146   23.7941 C   0  0  1  0  0  0  0  0  0  0  0  0
    7.3964  -20.3341   23.2452 C   0  0  0  0  0  0  0  0  0  0  0  0
    8.8865  -20.2132   24.2484 S   0  0  0  0  0  0  0  0  0  0  0  0
    6.2508  -21.2464   25.2274 C   0  0  0  0  0  0  0  0  0  0  0  0
    5.5051  -20.2744   25.5662 O   0  0  0  0  0  0  0  0  0  0  0  0
    1.7280  -25.6762   26.7811 N   0  0  0  0  0  0  0  0  0  0  0  0
    1.5283  -24.8028   27.8725 C   0  0  0  0  0  0  0  0  0  0  0  0
    0.6992  -25.0955   28.8094 N   0  0  0  0  0  0  0  0  0  0  0  0
    2.2691  -23.5987   27.8990 N   0  0  0  0  0  0  0  0  0  0  0  0
    3.7050  -23.7241   27.4782 C   0  0  0  0  0  0  0  0  0  0  0  0
    4.5564  -23.1093   28.5155 C   0  0  0  0  0  0  0  0  0  0  0  0
    5.9894  -22.9040   28.3434 C   0  0  0  0  0  0  0  0  0  0  0  0
    6.5852  -21.7216   27.7024 C   0  0  2  0  0  0  0  0  0  0  0  0
    6.7754  -22.0624   26.2468 N   0  0  0  0  0  0  0  0  0  0  0  0
    7.9155  -21.3059   28.1236 C   0  0  0  0  0  0  0  0  0  0  0  0
    8.2513  -20.5986   29.2531 O   0  0  0  0  0  0  0  0  0  0  0  0
    8.9126  -21.6169   27.3650 O   0  0  0  0  0  0  0  0  0  0  0  0
  2  3  1  0
  2  1  1  6
  4  3  1  0
  5  2  1  0
  5  6  2  0
  7  5  1  0
  8 11  1  0
  8  7  1  0
  8  9  1  6
 10  9  1  0
 11 21  1  0
 12 11  2  0
 14 13  1  0
 15 14  2  0
 16 14  1  0
 17 16  1  0
 18 17  1  0
 19 18  1  0
 20 19  1  1
 21 20  1  0
 22 23  1  0
 22 20  1  0
 24 22  2  0
M  END
$$$$
