CCR.pdb
     RDKit          3D

 24 23  0  0  1  0  0  0  0  0999 V2000
    7.8698  -12.6665   19.5425 N   0  0  0  0  0  0  0  0  0  0  0  0
    7.2038  -13.4370   20.5460 C   0  0  1  0  0  0  0  0  0  0  0  0
    6.9276  -14.8395   20.0106 C   0  0  0  0  0  0  0  0  0  0  0  0
    6.1510  -15.8772   21.2672 S   0  0  0  0  0  0  0  0  0  0  0  0
    8.0051  -13.6276   21.7827 C   0  0  0  0  0  0  0  0  0  0  0  0
    9.2348  -13.8148   21.6556 O   0  0  0  0  0  0  0  0  0  0  0  0
    7.4643  -13.6104   23.1011 N   0  0  0  0  0  0  0  0  0  0  0  0
    8.2560  -13.8860   24.2750 C   0  0  1  0  0  0  0  0  0  0  0  0
    7.6748  -13.0835   25.4214 C   0  0  0  0  0  0  0  0  0  0  0  0
    5.9051  -13.3871   25.5528 S   0  0  0  0  0  0  0  0  0  0  0  0
    8.3768  -15.3035   24.6135 C   0  0  0  0  0  0  0  0  0  0  0  0
    7.5907  -16.0974   24.0074 O   0  0  0  0  0  0  0  0  0  0  0  0
   10.1261  -21.2845   21.0725 N   0  0  0  0  0  0  0  0  0  0  0  0
   11.5175  -21.1317   21.2582 C   0  0  0  0  0  0  0  0  0  0  0  0
   12.3510  -21.9253   20.6868 N   0  0  0  0  0  0  0  0  0  0  0  0
   11.9609  -20.0794   22.0920 N   0  0  0  0  0  0  0  0  0  0  0  0
   10.9100  -19.0725   22.4614 C   0  0  0  0  0  0  0  0  0  0  0  0
   11.4821  -18.1319   23.4446 C   0  0  0  0  0  0  0  0  0  0  0  0
   10.7106  -17.0525   24.0487 C   0  0  0  0  0  0  0  0  0  0  0  0
    9.9485  -17.1799   25.3006 C   0  0  2  0  0  0  0  0  0  0  0  0
    9.2804  -15.8510   25.5430 N   0  0  0  0  0  0  0  0  0  0  0  0
   10.6845  -17.4127   26.5350 C   0  0  0  0  0  0  0  0  0  0  0  0
   11.4592  -16.5137   27.2281 O   0  0  0  0  0  0  0  0  0  0  0  0
   10.6277  -18.5918   27.0575 O   0  0  0  0  0  0  0  0  0  0  0  0
  2  3  1  0
  2  1  1  6
  4  3  1  0
  5  2  1  0
  5  6  2  0
  7  5  1  0
  8 11  1  0
  8  7  1  0
  8  9  1  1
 10  9  1  0
 11 21  1  0
 12 11  2  0
 14 13  1  0
 15 14  2  0
 16 14  1  0
 17 16  1  0
 18 17  1  0
 19 18  1  0
 20 19  1  6
 21 20  1  0
 22 23  1  0
 22 20  1  0
 24 22  2  0
M  END
$$$$
