CCR.pdb
     RDKit          3D

 24 23  0  0  1  0  0  0  0  0999 V2000
    4.8738  -21.1681   24.5030 N   0  0  0  0  0  0  0  0  0  0  0  0
    6.1213  -20.6108   24.9240 C   0  0  1  0  0  0  0  0  0  0  0  0
    7.2671  -21.3640   24.2533 C   0  0  0  0  0  0  0  0  0  0  0  0
    8.8693  -20.7292   24.7911 S   0  0  0  0  0  0  0  0  0  0  0  0
    6.2976  -19.1854   24.5432 C   0  0  0  0  0  0  0  0  0  0  0  0
    5.8261  -18.8140   23.4464 O   0  0  0  0  0  0  0  0  0  0  0  0
    6.9673  -18.2163   25.3454 N   0  0  0  0  0  0  0  0  0  0  0  0
    7.1112  -16.8370   24.9487 C   0  0  1  0  0  0  0  0  0  0  0  0
    7.4633  -16.0362   26.1859 C   0  0  0  0  0  0  0  0  0  0  0  0
    9.0138  -16.6280   26.8839 S   0  0  0  0  0  0  0  0  0  0  0  0
    8.0667  -16.6074   23.8657 C   0  0  0  0  0  0  0  0  0  0  0  0
    8.9587  -17.4981   23.7019 O   0  0  0  0  0  0  0  0  0  0  0  0
    6.7477  -13.2651   16.2055 N   0  0  0  0  0  0  0  0  0  0  0  0
    8.0945  -13.6579   16.0455 C   0  0  0  0  0  0  0  0  0  0  0  0
    8.5985  -13.8271   14.8757 N   0  0  0  0  0  0  0  0  0  0  0  0
    8.8671  -13.8587   17.2126 N   0  0  0  0  0  0  0  0  0  0  0  0
    8.0868  -13.8975   18.4950 C   0  0  0  0  0  0  0  0  0  0  0  0
    9.0260  -14.1142   19.6128 C   0  0  0  0  0  0  0  0  0  0  0  0
    8.5864  -14.3096   20.9889 C   0  0  0  0  0  0  0  0  0  0  0  0
    9.0570  -15.3962   21.8619 C   0  0  2  0  0  0  0  0  0  0  0  0
    8.0777  -15.4957   23.0030 N   0  0  0  0  0  0  0  0  0  0  0  0
   10.3376  -15.2336   22.5354 C   0  0  0  0  0  0  0  0  0  0  0  0
   11.5832  -15.5531   22.0504 O   0  0  0  0  0  0  0  0  0  0  0  0
   10.3327  -14.7424   23.7293 O   0  0  0  0  0  0  0  0  0  0  0  0
  2  3  1  0
  2  1  1  6
  4  3  1  0
  5  2  1  0
  5  6  2  0
  7  5  1  0
  8 11  1  0
  8  7  1  0
  8  9  1  1
 10  9  1  0
 11 21  1  0
 12 11  2  0
 14 13  1  0
 15 14  2  0
 16 14  1  0
 17 16  1  0
 18 17  1  0
 19 18  1  0
 20 19  1  6
 21 20  1  0
 22 23  1  0
 22 20  1  0
 24 22  2  0
M  END
$$$$
