CCR.pdb
     RDKit          3D

 24 23  0  0  1  0  0  0  0  0999 V2000
    5.4486  -13.1873   26.4586 N   0  0  0  0  0  0  0  0  0  0  0  0
    6.2878  -12.5698   25.4795 C   0  0  1  0  0  0  0  0  0  0  0  0
    7.4924  -11.9352   26.1695 C   0  0  0  0  0  0  0  0  0  0  0  0
    7.0107  -10.4700   27.1077 S   0  0  0  0  0  0  0  0  0  0  0  0
    6.8472  -13.5225   24.4858 C   0  0  0  0  0  0  0  0  0  0  0  0
    7.2448  -14.6318   24.9038 O   0  0  0  0  0  0  0  0  0  0  0  0
    6.9594  -13.2545   23.0906 N   0  0  0  0  0  0  0  0  0  0  0  0
    7.5297  -14.1945   22.1570 C   0  0  1  0  0  0  0  0  0  0  0  0
    7.5818  -13.5221   20.8001 C   0  0  0  0  0  0  0  0  0  0  0  0
    8.2674  -14.6518   19.5773 S   0  0  0  0  0  0  0  0  0  0  0  0
    8.8340  -14.7296   22.5459 C   0  0  0  0  0  0  0  0  0  0  0  0
    9.6243  -13.9222   23.1283 O   0  0  0  0  0  0  0  0  0  0  0  0
    7.2354  -19.7480   26.0794 N   0  0  0  0  0  0  0  0  0  0  0  0
    7.9700  -20.7646   25.4308 C   0  0  0  0  0  0  0  0  0  0  0  0
    7.3786  -21.7885   24.9281 N   0  0  0  0  0  0  0  0  0  0  0  0
    9.3743  -20.6183   25.3542 N   0  0  0  0  0  0  0  0  0  0  0  0
    9.8822  -19.2210   25.5645 C   0  0  0  0  0  0  0  0  0  0  0  0
    9.9892  -18.5548   24.2517 C   0  0  0  0  0  0  0  0  0  0  0  0
   10.4290  -17.1733   24.0990 C   0  0  0  0  0  0  0  0  0  0  0  0
   10.6325  -16.5079   22.8029 C   0  0  2  0  0  0  0  0  0  0  0  0
    9.2777  -16.0475   22.3301 N   0  0  0  0  0  0  0  0  0  0  0  0
   11.1209  -17.3060   21.6875 C   0  0  0  0  0  0  0  0  0  0  0  0
   12.4053  -17.7461   21.4742 O   0  0  0  0  0  0  0  0  0  0  0  0
   10.2745  -17.6480   20.7747 O   0  0  0  0  0  0  0  0  0  0  0  0
  2  3  1  0
  2  1  1  1
  4  3  1  0
  5  2  1  0
  5  6  2  0
  7  5  1  0
  8 11  1  0
  8  7  1  0
  8  9  1  6
 10  9  1  0
 11 21  1  0
 12 11  2  0
 14 13  1  0
 15 14  2  0
 16 14  1  0
 17 16  1  0
 18 17  1  0
 19 18  1  0
 20 19  1  1
 21 20  1  0
 22 23  1  0
 22 20  1  0
 24 22  2  0
M  END
$$$$
