CCR.pdb
     RDKit          3D

 24 23  0  0  1  0  0  0  0  0999 V2000
    7.8474  -12.6359   16.7914 N   0  0  0  0  0  0  0  0  0  0  0  0
    7.6656  -13.8611   17.5056 C   0  0  1  0  0  0  0  0  0  0  0  0
    8.4087  -14.9840   16.7868 C   0  0  0  0  0  0  0  0  0  0  0  0
    8.3375  -16.5222   17.7291 S   0  0  0  0  0  0  0  0  0  0  0  0
    8.2127  -13.8343   18.8868 C   0  0  0  0  0  0  0  0  0  0  0  0
    9.3631  -13.3717   19.0475 O   0  0  0  0  0  0  0  0  0  0  0  0
    7.5127  -14.3002   20.0374 N   0  0  0  0  0  0  0  0  0  0  0  0
    8.1028  -14.3295   21.3533 C   0  0  1  0  0  0  0  0  0  0  0  0
    6.9742  -14.3359   22.3643 C   0  0  0  0  0  0  0  0  0  0  0  0
    7.6347  -14.5485   24.0256 S   0  0  0  0  0  0  0  0  0  0  0  0
    9.0389  -15.4297   21.5807 C   0  0  0  0  0  0  0  0  0  0  0  0
    8.6398  -16.5888   21.2447 O   0  0  0  0  0  0  0  0  0  0  0  0
   16.0604  -14.0467   18.7106 N   0  0  0  0  0  0  0  0  0  0  0  0
   15.0589  -14.5732   17.8659 C   0  0  0  0  0  0  0  0  0  0  0  0
   15.1338  -14.4400   16.5901 N   0  0  0  0  0  0  0  0  0  0  0  0
   13.9738  -15.2495   18.4698 N   0  0  0  0  0  0  0  0  0  0  0  0
   14.0583  -15.3850   19.9628 C   0  0  0  0  0  0  0  0  0  0  0  0
   12.8332  -16.0511   20.4466 C   0  0  0  0  0  0  0  0  0  0  0  0
   12.5264  -16.2115   21.8627 C   0  0  0  0  0  0  0  0  0  0  0  0
   11.1882  -16.5200   22.3900 C   0  0  2  0  0  0  0  0  0  0  0  0
   10.3274  -15.3099   22.1336 N   0  0  0  0  0  0  0  0  0  0  0  0
   11.0443  -16.7333   23.8231 C   0  0  0  0  0  0  0  0  0  0  0  0
   10.3711  -15.9415   24.7223 O   0  0  0  0  0  0  0  0  0  0  0  0
   11.6100  -17.7735   24.3375 O   0  0  0  0  0  0  0  0  0  0  0  0
  2  3  1  0
  2  1  1  6
  4  3  1  0
  5  2  1  0
  5  6  2  0
  7  5  1  0
  8 11  1  0
  8  7  1  0
  8  9  1  1
 10  9  1  0
 11 21  1  0
 12 11  2  0
 14 13  1  0
 15 14  2  0
 16 14  1  0
 17 16  1  0
 18 17  1  0
 19 18  1  0
 20 19  1  1
 21 20  1  0
 22 23  1  0
 22 20  1  0
 24 22  2  0
M  END
$$$$
