NGR.pdb
     RDKit          3D

 24 23  0  0  1  0  0  0  0  0999 V2000
   19.8266  -24.6605   -7.3506 N   0  0  0  0  0  0  0  0  0  0  0  0
   19.1197  -24.1669   -8.4865 C   0  0  0  0  0  0  0  0  0  0  0  0
   19.6386  -23.1828   -9.0716 O   0  0  0  0  0  0  0  0  0  0  0  0
   17.8460  -24.7889   -8.9400 C   0  0  0  0  0  0  0  0  0  0  0  0
   18.0571  -25.2724  -10.3548 C   0  0  2  0  0  0  0  0  0  0  0  0
   19.3458  -25.9340  -10.3961 N   0  0  0  0  0  0  0  0  0  0  0  0
   17.9866  -24.2255  -11.3725 C   0  0  0  0  0  0  0  0  0  0  0  0
   16.8959  -23.5840  -11.4897 O   0  0  0  0  0  0  0  0  0  0  0  0
   19.0589  -23.8798  -12.2381 N   0  0  0  0  0  0  0  0  0  0  0  0
   18.9130  -22.8047  -13.1519 C   0  0  0  0  0  0  0  0  0  0  0  0
   19.9376  -21.7656  -13.1260 C   0  0  0  0  0  0  0  0  0  0  0  0
   19.9742  -21.0580  -12.0590 O   0  0  0  0  0  0  0  0  0  0  0  0
   27.7669  -20.6446  -16.8268 N   0  0  0  0  0  0  0  0  0  0  0  0
   27.0021  -21.4895  -15.9550 C   0  0  0  0  0  0  0  0  0  0  0  0
   27.4500  -22.6918  -15.6860 N   0  0  0  0  0  0  0  0  0  0  0  0
   25.7778  -21.0720  -15.3718 N   0  0  0  0  0  0  0  0  0  0  0  0
   25.3018  -19.7177  -15.5656 C   0  0  0  0  0  0  0  0  0  0  0  0
   24.0655  -19.5051  -14.7315 C   0  0  0  0  0  0  0  0  0  0  0  0
   23.0483  -20.5966  -14.9180 C   0  0  0  0  0  0  0  0  0  0  0  0
   21.8632  -20.3937  -14.0302 C   0  0  2  0  0  0  0  0  0  0  0  0
   20.8814  -21.4441  -14.1137 N   0  0  0  0  0  0  0  0  0  0  0  0
   21.1638  -19.1177  -14.4169 C   0  0  0  0  0  0  0  0  0  0  0  0
   20.4079  -19.0662  -15.4170 O   0  0  0  0  0  0  0  0  0  0  0  0
   21.3429  -17.9653  -13.6688 O   0  0  0  0  0  0  0  0  0  0  0  0
  1  2  1  0
  2  4  1  0
  3  2  2  0
  5  4  1  0
  5  7  1  0
  5  6  1  1
  7  8  2  0
  9 10  1  0
  9  7  1  0
 10 11  1  0
 11 12  2  0
 11 21  1  0
 13 14  1  0
 14 15  2  0
 16 17  1  0
 16 14  1  0
 17 18  1  0
 19 18  1  0
 20 19  1  6
 21 20  1  0
 22 20  1  0
 22 24  1  0
 23 22  2  0
M  END
$$$$
