NGR.pdb
     RDKit          3D

 24 23  0  0  1  0  0  0  0  0999 V2000
   19.6027  -11.1503  -19.3637 N   0  0  0  0  0  0  0  0  0  0  0  0
   18.8548  -11.3222  -18.1617 C   0  0  0  0  0  0  0  0  0  0  0  0
   18.2271  -12.4061  -18.0555 O   0  0  0  0  0  0  0  0  0  0  0  0
   18.8282  -10.2736  -17.1061 C   0  0  0  0  0  0  0  0  0  0  0  0
   19.3285  -10.9047  -15.8287 C   0  0  2  0  0  0  0  0  0  0  0  0
   18.3736  -11.9270  -15.4505 N   0  0  0  0  0  0  0  0  0  0  0  0
   19.5367   -9.9663  -14.7274 C   0  0  0  0  0  0  0  0  0  0  0  0
   20.5008   -9.1439  -14.8224 O   0  0  0  0  0  0  0  0  0  0  0  0
   18.7304   -9.9153  -13.5586 N   0  0  0  0  0  0  0  0  0  0  0  0
   18.9302   -8.8845  -12.6049 C   0  0  0  0  0  0  0  0  0  0  0  0
   17.7768   -8.0552  -12.2699 C   0  0  0  0  0  0  0  0  0  0  0  0
   16.7457   -8.2250  -13.0106 O   0  0  0  0  0  0  0  0  0  0  0  0
   11.9044   -6.5210   -7.0966 N   0  0  0  0  0  0  0  0  0  0  0  0
   12.3412   -7.8685   -7.3252 C   0  0  0  0  0  0  0  0  0  0  0  0
   11.4401   -8.8067   -7.4877 N   0  0  0  0  0  0  0  0  0  0  0  0
   13.7136   -8.2243   -7.3827 N   0  0  0  0  0  0  0  0  0  0  0  0
   14.7173   -7.2173   -7.6596 C   0  0  0  0  0  0  0  0  0  0  0  0
   15.0775   -7.2686   -9.1214 C   0  0  0  0  0  0  0  0  0  0  0  0
   16.1429   -6.2733   -9.4890 C   0  0  0  0  0  0  0  0  0  0  0  0
   16.4697   -6.3388  -10.9459 C   0  0  2  0  0  0  0  0  0  0  0  0
   17.6535   -7.1016  -11.2477 N   0  0  0  0  0  0  0  0  0  0  0  0
   16.7096   -4.9462  -11.4657 C   0  0  0  0  0  0  0  0  0  0  0  0
   17.8716   -4.4935  -11.6041 O   0  0  0  0  0  0  0  0  0  0  0  0
   15.6421   -4.1304  -11.8044 O   0  0  0  0  0  0  0  0  0  0  0  0
  1  2  1  0
  2  4  1  0
  3  2  2  0
  5  4  1  0
  5  7  1  0
  5  6  1  1
  7  8  2  0
  9 10  1  0
  9  7  1  0
 10 11  1  0
 11 12  2  0
 11 21  1  0
 13 14  1  0
 14 15  2  0
 16 17  1  0
 16 14  1  0
 17 18  1  0
 19 18  1  0
 20 19  1  1
 21 20  1  0
 22 20  1  0
 22 24  1  0
 23 22  2  0
M  END
$$$$
