NGR.pdb
     RDKit          3D

 24 23  0  0  1  0  0  0  0  0999 V2000
   17.2854  -24.3366   -6.2713 N   0  0  0  0  0  0  0  0  0  0  0  0
   18.6574  -24.7032   -6.4012 C   0  0  0  0  0  0  0  0  0  0  0  0
   19.2706  -24.9258   -5.3267 O   0  0  0  0  0  0  0  0  0  0  0  0
   19.3103  -24.8114   -7.7341 C   0  0  0  0  0  0  0  0  0  0  0  0
   18.2758  -24.4554   -8.7749 C   0  0  2  0  0  0  0  0  0  0  0  0
   17.3812  -25.5888   -8.8984 N   0  0  0  0  0  0  0  0  0  0  0  0
   18.8254  -24.0927  -10.0799 C   0  0  0  0  0  0  0  0  0  0  0  0
   19.2715  -25.0270  -10.8167 O   0  0  0  0  0  0  0  0  0  0  0  0
   18.8926  -22.7632  -10.5765 N   0  0  0  0  0  0  0  0  0  0  0  0
   19.5062  -22.5053  -11.8291 C   0  0  0  0  0  0  0  0  0  0  0  0
   19.4795  -21.1282  -12.3122 C   0  0  0  0  0  0  0  0  0  0  0  0
   18.7428  -20.3252  -11.6392 O   0  0  0  0  0  0  0  0  0  0  0  0
   25.5921  -20.0130  -16.4170 N   0  0  0  0  0  0  0  0  0  0  0  0
   24.3265  -20.2868  -17.0351 C   0  0  0  0  0  0  0  0  0  0  0  0
   24.2396  -21.2804  -17.8859 N   0  0  0  0  0  0  0  0  0  0  0  0
   23.1635  -19.5220  -16.7593 N   0  0  0  0  0  0  0  0  0  0  0  0
   23.2173  -18.4288  -15.8105 C   0  0  0  0  0  0  0  0  0  0  0  0
   22.3059  -18.7365  -14.6512 C   0  0  0  0  0  0  0  0  0  0  0  0
   20.8725  -18.9057  -15.0725 C   0  0  0  0  0  0  0  0  0  0  0  0
   19.9969  -19.2308  -13.9058 C   0  0  2  0  0  0  0  0  0  0  0  0
   20.1526  -20.5749  -13.4124 N   0  0  0  0  0  0  0  0  0  0  0  0
   18.5539  -19.0838  -14.3097 C   0  0  0  0  0  0  0  0  0  0  0  0
   17.9408  -20.0140  -14.8868 O   0  0  0  0  0  0  0  0  0  0  0  0
   17.8690  -17.9079  -14.0493 O   0  0  0  0  0  0  0  0  0  0  0  0
  1  2  1  0
  2  4  1  0
  3  2  2  0
  5  4  1  0
  5  7  1  0
  5  6  1  6
  7  8  2  0
  9 10  1  0
  9  7  1  0
 10 11  1  0
 11 12  2  0
 11 21  1  0
 13 14  1  0
 14 15  2  0
 16 17  1  0
 16 14  1  0
 17 18  1  0
 19 18  1  0
 20 19  1  6
 21 20  1  0
 22 20  1  0
 22 24  1  0
 23 22  2  0
M  END
$$$$
