NGR.pdb
     RDKit          3D

 24 23  0  0  1  0  0  0  0  0999 V2000
   28.2174  -19.3470  -15.5994 N   0  0  0  0  0  0  0  0  0  0  0  0
   27.7647  -18.1217  -15.0273 C   0  0  0  0  0  0  0  0  0  0  0  0
   28.3717  -17.0851  -15.3976 O   0  0  0  0  0  0  0  0  0  0  0  0
   26.6410  -18.0874  -14.0521 C   0  0  0  0  0  0  0  0  0  0  0  0
   26.2445  -19.5166  -13.7683 C   0  0  2  0  0  0  0  0  0  0  0  0
   25.7898  -20.0936  -15.0174 N   0  0  0  0  0  0  0  0  0  0  0  0
   25.2251  -19.6708  -12.7321 C   0  0  0  0  0  0  0  0  0  0  0  0
   24.1095  -19.0875  -12.9054 O   0  0  0  0  0  0  0  0  0  0  0  0
   25.4019  -20.4307  -11.5448 N   0  0  0  0  0  0  0  0  0  0  0  0
   24.4135  -20.3960  -10.5279 C   0  0  0  0  0  0  0  0  0  0  0  0
   23.1515  -21.0756  -10.8032 C   0  0  0  0  0  0  0  0  0  0  0  0
   23.0512  -21.5944  -11.9699 O   0  0  0  0  0  0  0  0  0  0  0  0
   17.9937  -24.8086   -5.3258 N   0  0  0  0  0  0  0  0  0  0  0  0
   16.9884  -24.4067   -6.2675 C   0  0  0  0  0  0  0  0  0  0  0  0
   15.7271  -24.4879   -5.9197 N   0  0  0  0  0  0  0  0  0  0  0  0
   17.3085  -23.9236   -7.5627 N   0  0  0  0  0  0  0  0  0  0  0  0
   18.6117  -24.1865   -8.1380 C   0  0  0  0  0  0  0  0  0  0  0  0
   19.2290  -22.8843   -8.5769 C   0  0  0  0  0  0  0  0  0  0  0  0
   20.6188  -23.0592   -9.1233 C   0  0  0  0  0  0  0  0  0  0  0  0
   20.9028  -22.0771  -10.2134 C   0  0  2  0  0  0  0  0  0  0  0  0
   22.0410  -21.2320   -9.9594 N   0  0  0  0  0  0  0  0  0  0  0  0
   19.7172  -21.1646  -10.3830 C   0  0  0  0  0  0  0  0  0  0  0  0
   19.6769  -20.0390   -9.8301 O   0  0  0  0  0  0  0  0  0  0  0  0
   18.6381  -21.5538  -11.1601 O   0  0  0  0  0  0  0  0  0  0  0  0
  1  2  1  0
  2  4  1  0
  3  2  2  0
  5  4  1  0
  5  7  1  0
  5  6  1  6
  7  8  2  0
  9 10  1  0
  9  7  1  0
 10 11  1  0
 11 12  2  0
 11 21  1  0
 13 14  1  0
 14 15  2  0
 16 17  1  0
 16 14  1  0
 17 18  1  0
 19 18  1  0
 20 19  1  1
 21 20  1  0
 22 20  1  0
 22 24  1  0
 23 22  2  0
M  END
$$$$
