NGR.pdb
     RDKit          3D

 24 23  0  0  1  0  0  0  0  0999 V2000
   18.9724  -20.6511  -19.9040 N   0  0  0  0  0  0  0  0  0  0  0  0
   18.9168  -20.5281  -18.4843 C   0  0  0  0  0  0  0  0  0  0  0  0
   17.7757  -20.3342  -17.9940 O   0  0  0  0  0  0  0  0  0  0  0  0
   20.1432  -20.6253  -17.6470 C   0  0  0  0  0  0  0  0  0  0  0  0
   19.9521  -19.7152  -16.4573 C   0  0  2  0  0  0  0  0  0  0  0  0
   20.2626  -18.3678  -16.8914 N   0  0  0  0  0  0  0  0  0  0  0  0
   20.7488  -20.0713  -15.2846 C   0  0  0  0  0  0  0  0  0  0  0  0
   20.7913  -21.2952  -14.9452 O   0  0  0  0  0  0  0  0  0  0  0  0
   21.4779  -19.1371  -14.5009 N   0  0  0  0  0  0  0  0  0  0  0  0
   22.1370  -19.5651  -13.3200 C   0  0  0  0  0  0  0  0  0  0  0  0
   23.5126  -20.0332  -13.4580 C   0  0  0  0  0  0  0  0  0  0  0  0
   24.0160  -19.9179  -14.6301 O   0  0  0  0  0  0  0  0  0  0  0  0
   28.1149  -19.5951   -7.8417 N   0  0  0  0  0  0  0  0  0  0  0  0
   26.8536  -19.9757   -7.2733 C   0  0  0  0  0  0  0  0  0  0  0  0
   26.4046  -19.3177   -6.2321 N   0  0  0  0  0  0  0  0  0  0  0  0
   26.0726  -21.0385   -7.7967 N   0  0  0  0  0  0  0  0  0  0  0  0
   26.4957  -21.7332   -8.9952 C   0  0  0  0  0  0  0  0  0  0  0  0
   25.9760  -20.9965  -10.2020 C   0  0  0  0  0  0  0  0  0  0  0  0
   26.3201  -21.6868  -11.4926 C   0  0  0  0  0  0  0  0  0  0  0  0
   25.7230  -20.9782  -12.6651 C   0  0  2  0  0  0  0  0  0  0  0  0
   24.3487  -20.5901  -12.4780 N   0  0  0  0  0  0  0  0  0  0  0  0
   25.7551  -21.8866  -13.8655 C   0  0  0  0  0  0  0  0  0  0  0  0
   26.6664  -21.8006  -14.7236 O   0  0  0  0  0  0  0  0  0  0  0  0
   24.7700  -22.8439  -14.0471 O   0  0  0  0  0  0  0  0  0  0  0  0
  1  2  1  0
  2  4  1  0
  3  2  2  0
  5  4  1  0
  5  7  1  0
  5  6  1  6
  7  8  2  0
  9 10  1  0
  9  7  1  0
 10 11  1  0
 11 12  2  0
 11 21  1  0
 13 14  1  0
 14 15  2  0
 16 17  1  0
 16 14  1  0
 17 18  1  0
 19 18  1  0
 20 19  1  1
 21 20  1  0
 22 20  1  0
 22 24  1  0
 23 22  2  0
M  END
$$$$
