NGR.pdb
     RDKit          3D

 24 23  0  0  1  0  0  0  0  0999 V2000
   16.6675  -16.6558  -16.5965 N   0  0  0  0  0  0  0  0  0  0  0  0
   16.6526  -16.5532  -18.0188 C   0  0  0  0  0  0  0  0  0  0  0  0
   16.5036  -17.6324  -18.6459 O   0  0  0  0  0  0  0  0  0  0  0  0
   16.8055  -15.2417  -18.7052 C   0  0  0  0  0  0  0  0  0  0  0  0
   16.9141  -14.1812  -17.6358 C   0  0  2  0  0  0  0  0  0  0  0  0
   15.6697  -13.4386  -17.6376 N   0  0  0  0  0  0  0  0  0  0  0  0
   18.0509  -13.2753  -17.7905 C   0  0  0  0  0  0  0  0  0  0  0  0
   19.2002  -13.7891  -17.9631 O   0  0  0  0  0  0  0  0  0  0  0  0
   17.9525  -11.8583  -17.7601 N   0  0  0  0  0  0  0  0  0  0  0  0
   19.0916  -11.0630  -18.0468 C   0  0  0  0  0  0  0  0  0  0  0  0
   18.9053   -9.6155  -18.0643 C   0  0  0  0  0  0  0  0  0  0  0  0
   18.0581   -9.1820  -18.9216 O   0  0  0  0  0  0  0  0  0  0  0  0
   22.9803   -9.0438  -12.6318 N   0  0  0  0  0  0  0  0  0  0  0  0
   23.6159   -8.9153  -13.9118 C   0  0  0  0  0  0  0  0  0  0  0  0
   24.6900   -9.6251  -14.1589 N   0  0  0  0  0  0  0  0  0  0  0  0
   23.1246   -8.0483  -14.9219 N   0  0  0  0  0  0  0  0  0  0  0  0
   21.7142   -7.7234  -14.9819 C   0  0  0  0  0  0  0  0  0  0  0  0
   21.4673   -6.8126  -16.1561 C   0  0  0  0  0  0  0  0  0  0  0  0
   20.0191   -6.4342  -16.2990 C   0  0  0  0  0  0  0  0  0  0  0  0
   19.3559   -7.2193  -17.3841 C   0  0  2  0  0  0  0  0  0  0  0  0
   19.5314   -8.6441  -17.2681 N   0  0  0  0  0  0  0  0  0  0  0  0
   19.9371   -6.8199  -18.7144 C   0  0  0  0  0  0  0  0  0  0  0  0
   20.7846   -7.5383  -19.2974 O   0  0  0  0  0  0  0  0  0  0  0  0
   19.5434   -5.6406  -19.3261 O   0  0  0  0  0  0  0  0  0  0  0  0
  1  2  1  0
  2  4  1  0
  3  2  2  0
  5  4  1  0
  5  7  1  0
  5  6  1  6
  7  8  2  0
  9 10  1  0
  9  7  1  0
 10 11  1  0
 11 12  2  0
 11 21  1  0
 13 14  1  0
 14 15  2  0
 16 17  1  0
 16 14  1  0
 17 18  1  0
 19 18  1  0
 20 19  1  1
 21 20  1  0
 22 20  1  0
 22 24  1  0
 23 22  2  0
M  END
$$$$
