NGR.pdb
     RDKit          3D

 24 23  0  0  1  0  0  0  0  0999 V2000
   27.0235  -15.5462  -20.4514 N   0  0  0  0  0  0  0  0  0  0  0  0
   27.5996  -16.2733  -19.3683 C   0  0  0  0  0  0  0  0  0  0  0  0
   28.8507  -16.3937  -19.3913 O   0  0  0  0  0  0  0  0  0  0  0  0
   26.7586  -16.8490  -18.2839 C   0  0  0  0  0  0  0  0  0  0  0  0
   27.4526  -18.0942  -17.7858 C   0  0  2  0  0  0  0  0  0  0  0  0
   27.0188  -19.1937  -18.6243 N   0  0  0  0  0  0  0  0  0  0  0  0
   27.2150  -18.4008  -16.3765 C   0  0  0  0  0  0  0  0  0  0  0  0
   26.0325  -18.2664  -15.9309 O   0  0  0  0  0  0  0  0  0  0  0  0
   28.2210  -18.8390  -15.4740 N   0  0  0  0  0  0  0  0  0  0  0  0
   27.9109  -19.0213  -14.1019 C   0  0  0  0  0  0  0  0  0  0  0  0
   26.9840  -20.0978  -13.7666 C   0  0  0  0  0  0  0  0  0  0  0  0
   27.2133  -21.2183  -14.3431 O   0  0  0  0  0  0  0  0  0  0  0  0
   27.7266  -19.4724   -6.8888 N   0  0  0  0  0  0  0  0  0  0  0  0
   26.5158  -20.2192   -6.7013 C   0  0  0  0  0  0  0  0  0  0  0  0
   26.0028  -20.3009   -5.4977 N   0  0  0  0  0  0  0  0  0  0  0  0
   25.8515  -20.8731   -7.7711 N   0  0  0  0  0  0  0  0  0  0  0  0
   26.4500  -20.9067   -9.0898 C   0  0  0  0  0  0  0  0  0  0  0  0
   25.3754  -20.6983  -10.1247 C   0  0  0  0  0  0  0  0  0  0  0  0
   25.3838  -21.7612  -11.1882 C   0  0  0  0  0  0  0  0  0  0  0  0
   25.0632  -21.1898  -12.5315 C   0  0  2  0  0  0  0  0  0  0  0  0
   25.8808  -20.0629  -12.8997 N   0  0  0  0  0  0  0  0  0  0  0  0
   23.6364  -20.7089  -12.5406 C   0  0  0  0  0  0  0  0  0  0  0  0
   23.3609  -19.4854  -12.5063 O   0  0  0  0  0  0  0  0  0  0  0  0
   22.5906  -21.6167  -12.5875 O   0  0  0  0  0  0  0  0  0  0  0  0
  1  2  1  0
  2  4  1  0
  3  2  2  0
  5  4  1  0
  5  7  1  0
  5  6  1  6
  7  8  2  0
  9 10  1  0
  9  7  1  0
 10 11  1  0
 11 12  2  0
 11 21  1  0
 13 14  1  0
 14 15  2  0
 16 17  1  0
 16 14  1  0
 17 18  1  0
 19 18  1  0
 20 19  1  1
 21 20  1  0
 22 20  1  0
 22 24  1  0
 23 22  2  0
M  END
$$$$
