NGR.pdb
     RDKit          3D

 24 23  0  0  1  0  0  0  0  0999 V2000
   29.9966   -7.8101  -17.2828 N   0  0  0  0  0  0  0  0  0  0  0  0
   30.8406   -8.1351  -18.3853 C   0  0  0  0  0  0  0  0  0  0  0  0
   30.2554   -8.3981  -19.4663 O   0  0  0  0  0  0  0  0  0  0  0  0
   32.3224   -8.1579  -18.2497 C   0  0  0  0  0  0  0  0  0  0  0  0
   32.6554   -7.7079  -16.8472 C   0  0  2  0  0  0  0  0  0  0  0  0
   32.9430   -6.2888  -16.9070 N   0  0  0  0  0  0  0  0  0  0  0  0
   33.7637   -8.4289  -16.2239 C   0  0  0  0  0  0  0  0  0  0  0  0
   33.5704   -9.6391  -15.8877 O   0  0  0  0  0  0  0  0  0  0  0  0
   35.0421   -7.8632  -15.9703 N   0  0  0  0  0  0  0  0  0  0  0  0
   36.0259   -8.6172  -15.2805 C   0  0  0  0  0  0  0  0  0  0  0  0
   36.6588   -7.9872  -14.1260 C   0  0  0  0  0  0  0  0  0  0  0  0
   36.1050   -6.9063  -13.7191 O   0  0  0  0  0  0  0  0  0  0  0  0
   41.9981  -10.2258   -7.2619 N   0  0  0  0  0  0  0  0  0  0  0  0
   40.7413   -9.5710   -7.0367 C   0  0  0  0  0  0  0  0  0  0  0  0
   40.1935   -9.6448   -5.8480 N   0  0  0  0  0  0  0  0  0  0  0  0
   40.0683   -8.8452   -8.0534 N   0  0  0  0  0  0  0  0  0  0  0  0
   40.6560   -8.7202   -9.3714 C   0  0  0  0  0  0  0  0  0  0  0  0
   39.7610   -7.8670  -10.2317 C   0  0  0  0  0  0  0  0  0  0  0  0
   39.1562   -8.6343  -11.3747 C   0  0  0  0  0  0  0  0  0  0  0  0
   38.3661   -7.7392  -12.2737 C   0  0  2  0  0  0  0  0  0  0  0  0
   37.7889   -8.4106  -13.4097 N   0  0  0  0  0  0  0  0  0  0  0  0
   39.2655   -6.6624  -12.8201 C   0  0  0  0  0  0  0  0  0  0  0  0
   39.6122   -6.6526  -14.0259 O   0  0  0  0  0  0  0  0  0  0  0  0
   39.7317   -5.6521  -11.9943 O   0  0  0  0  0  0  0  0  0  0  0  0
  1  2  1  0
  2  4  1  0
  3  2  2  0
  5  4  1  0
  5  7  1  0
  5  6  1  6
  7  8  2  0
  9 10  1  0
  9  7  1  0
 10 11  1  0
 11 12  2  0
 11 21  1  0
 13 14  1  0
 14 15  2  0
 16 17  1  0
 16 14  1  0
 17 18  1  0
 19 18  1  0
 20 19  1  6
 21 20  1  0
 22 20  1  0
 22 24  1  0
 23 22  2  0
M  END
$$$$
