NGR.pdb
     RDKit          3D

 24 23  0  0  1  0  0  0  0  0999 V2000
   31.7835  -20.9793   -9.8279 N   0  0  0  0  0  0  0  0  0  0  0  0
   30.5669  -21.7186   -9.9109 C   0  0  0  0  0  0  0  0  0  0  0  0
   30.6860  -22.9693   -9.9551 O   0  0  0  0  0  0  0  0  0  0  0  0
   29.2440  -21.0377   -9.9426 C   0  0  0  0  0  0  0  0  0  0  0  0
   28.3765  -21.7801  -10.9308 C   0  0  2  0  0  0  0  0  0  0  0  0
   29.0843  -21.8002  -12.1953 N   0  0  0  0  0  0  0  0  0  0  0  0
   27.0364  -21.2223  -11.1032 C   0  0  0  0  0  0  0  0  0  0  0  0
   26.5183  -20.6072  -10.1193 O   0  0  0  0  0  0  0  0  0  0  0  0
   26.2771  -21.3240  -12.2998 N   0  0  0  0  0  0  0  0  0  0  0  0
   24.9906  -20.7312  -12.3746 C   0  0  0  0  0  0  0  0  0  0  0  0
   24.3177  -20.7626  -13.6694 C   0  0  0  0  0  0  0  0  0  0  0  0
   25.0921  -20.7862  -14.6894 O   0  0  0  0  0  0  0  0  0  0  0  0
   15.9470  -21.7522  -13.8303 N   0  0  0  0  0  0  0  0  0  0  0  0
   17.0636  -22.0491  -12.9794 C   0  0  0  0  0  0  0  0  0  0  0  0
   16.8724  -22.8046  -11.9252 N   0  0  0  0  0  0  0  0  0  0  0  0
   18.3688  -21.5555  -13.2365 N   0  0  0  0  0  0  0  0  0  0  0  0
   18.6141  -20.7036  -14.3821 C   0  0  0  0  0  0  0  0  0  0  0  0
   20.0774  -20.3492  -14.4290 C   0  0  0  0  0  0  0  0  0  0  0  0
   20.8954  -21.3697  -15.1709 C   0  0  0  0  0  0  0  0  0  0  0  0
   22.3356  -20.9749  -15.2295 C   0  0  2  0  0  0  0  0  0  0  0  0
   22.9403  -20.7698  -13.9386 N   0  0  0  0  0  0  0  0  0  0  0  0
   22.4658  -19.6751  -15.9783 C   0  0  0  0  0  0  0  0  0  0  0  0
   22.5590  -18.5804  -15.3723 O   0  0  0  0  0  0  0  0  0  0  0  0
   22.4854  -19.6627  -17.3637 O   0  0  0  0  0  0  0  0  0  0  0  0
  1  2  1  0
  2  4  1  0
  3  2  2  0
  5  4  1  0
  5  7  1  0
  5  6  1  6
  7  8  2  0
  9 10  1  0
  9  7  1  0
 10 11  1  0
 11 12  2  0
 11 21  1  0
 13 14  1  0
 14 15  2  0
 16 17  1  0
 16 14  1  0
 17 18  1  0
 19 18  1  0
 20 19  1  1
 21 20  1  0
 22 20  1  0
 22 24  1  0
 23 22  2  0
M  END
$$$$
