TDG.pdb
     RDKit          3D

 20 19  0  0  1  0  0  0  0  0999 V2000
   13.3336   -7.1385   -7.4898 C   0  0  0  0  0  0  0  0  0  0  0  0
   14.2281   -6.2966   -8.3425 C   0  0  1  0  0  0  0  0  0  0  0  0
   14.2179   -4.9902   -7.8975 O   0  0  0  0  0  0  0  0  0  0  0  0
   15.6515   -6.8149   -8.3834 C   0  0  2  0  0  0  0  0  0  0  0  0
   16.4535   -5.8333   -9.1358 N   0  0  0  0  0  0  0  0  0  0  0  0
   15.7574   -8.1530   -9.0211 C   0  0  0  0  0  0  0  0  0  0  0  0
   15.4457   -9.1520   -8.3603 O   0  0  0  0  0  0  0  0  0  0  0  0
   16.2007   -8.3164  -10.3521 N   0  0  0  0  0  0  0  0  0  0  0  0
   16.0443   -9.5386  -11.0850 C   0  0  1  0  0  0  0  0  0  0  0  0
   14.6297   -9.9866  -11.2225 C   0  0  0  0  0  0  0  0  0  0  0  0
   14.4662  -11.2595  -11.9550 C   0  0  0  0  0  0  0  0  0  0  0  0
   13.9747  -11.2906  -13.1062 O   0  0  0  0  0  0  0  0  0  0  0  0
   16.6638   -9.4220  -12.4250 C   0  0  0  0  0  0  0  0  0  0  0  0
   16.6813  -10.3869  -13.2263 O   0  0  0  0  0  0  0  0  0  0  0  0
   14.8462  -12.4869  -11.4114 O   0  0  0  0  0  0  0  0  0  0  0  0
   17.2583   -8.2087  -12.8438 N   0  0  0  0  0  0  0  0  0  0  0  0
   17.8040   -8.0061  -14.1523 C   0  0  0  0  0  0  0  0  0  0  0  0
   18.2640   -6.6042  -14.3370 C   0  0  0  0  0  0  0  0  0  0  0  0
   18.8953   -6.1703  -15.4847 O   0  0  0  0  0  0  0  0  0  0  0  0
   18.0642   -5.7894  -13.4022 O   0  0  0  0  0  0  0  0  0  0  0  0
  2  1  1  1
  3  2  1  0
  4  5  1  6
  4  2  1  0
  6  4  1  0
  7  6  2  0
  8  6  1  0
  9 10  1  6
  9  8  1  0
 10 11  1  0
 11 12  2  0
 13 16  1  0
 13  9  1  0
 14 13  2  0
 15 11  1  0
 17 16  1  0
 18 17  1  0
 19 18  1  0
 20 18  2  0
M  END
$$$$
