TDG.pdb
     RDKit          3D

 20 19  0  0  1  0  0  0  0  0999 V2000
   21.7357  -10.8090  -15.2128 C   0  0  0  0  0  0  0  0  0  0  0  0
   20.8876  -11.5960  -16.1602 C   0  0  1  0  0  0  0  0  0  0  0  0
   20.8776  -12.9272  -15.7963 O   0  0  0  0  0  0  0  0  0  0  0  0
   19.4671  -11.0744  -16.2420 C   0  0  2  0  0  0  0  0  0  0  0  0
   18.7332  -11.9473  -17.1760 N   0  0  0  0  0  0  0  0  0  0  0  0
   19.3988   -9.6640  -16.7049 C   0  0  0  0  0  0  0  0  0  0  0  0
   19.4676   -9.4335  -17.9190 O   0  0  0  0  0  0  0  0  0  0  0  0
   19.2579   -8.5851  -15.8043 N   0  0  0  0  0  0  0  0  0  0  0  0
   19.1864   -7.2169  -16.2266 C   0  0  1  0  0  0  0  0  0  0  0  0
   17.8145   -6.6372  -16.1750 C   0  0  0  0  0  0  0  0  0  0  0  0
   17.7301   -5.2388  -16.6449 C   0  0  0  0  0  0  0  0  0  0  0  0
   18.4672   -4.8143  -17.5639 O   0  0  0  0  0  0  0  0  0  0  0  0
   20.1127   -6.3799  -15.4303 C   0  0  0  0  0  0  0  0  0  0  0  0
   19.7096   -5.6971  -14.4583 O   0  0  0  0  0  0  0  0  0  0  0  0
   16.8335   -4.3208  -16.0974 O   0  0  0  0  0  0  0  0  0  0  0  0
   21.4907   -6.3262  -15.7450 N   0  0  0  0  0  0  0  0  0  0  0  0
   22.4457   -5.5737  -14.9880 C   0  0  0  0  0  0  0  0  0  0  0  0
   22.3306   -5.8590  -13.5332 C   0  0  0  0  0  0  0  0  0  0  0  0
   22.0729   -7.1206  -13.0375 O   0  0  0  0  0  0  0  0  0  0  0  0
   22.4759   -4.9033  -12.7310 O   0  0  0  0  0  0  0  0  0  0  0  0
  2  1  1  1
  3  2  1  0
  4  5  1  6
  4  2  1  0
  6  4  1  0
  7  6  2  0
  8  6  1  0
  9 10  1  1
  9  8  1  0
 10 11  1  0
 11 12  2  0
 13 16  1  0
 13  9  1  0
 14 13  2  0
 15 11  1  0
 17 16  1  0
 18 17  1  0
 19 18  1  0
 20 18  2  0
M  END
$$$$
