TDG.pdb
     RDKit          3D

 20 19  0  0  1  0  0  0  0  0999 V2000
   23.9990  -10.7716  -15.5096 C   0  0  0  0  0  0  0  0  0  0  0  0
   23.5375  -11.8462  -16.4415 C   0  0  1  0  0  0  0  0  0  0  0  0
   24.0369  -13.0692  -16.0419 O   0  0  0  0  0  0  0  0  0  0  0  0
   22.0275  -11.9170  -16.5478 C   0  0  2  0  0  0  0  0  0  0  0  0
   21.7017  -13.0867  -17.3836 N   0  0  0  0  0  0  0  0  0  0  0  0
   21.4351  -10.6892  -17.1393 C   0  0  0  0  0  0  0  0  0  0  0  0
   21.4054  -10.5786  -18.3717 O   0  0  0  0  0  0  0  0  0  0  0  0
   20.9076   -9.6511  -16.3401 N   0  0  0  0  0  0  0  0  0  0  0  0
   20.3385   -8.4541  -16.8868 C   0  0  1  0  0  0  0  0  0  0  0  0
   18.8689   -8.3289  -16.6737 C   0  0  0  0  0  0  0  0  0  0  0  0
   18.2799   -7.0926  -17.2285 C   0  0  0  0  0  0  0  0  0  0  0  0
   18.2282   -6.8923  -18.4635 O   0  0  0  0  0  0  0  0  0  0  0  0
   21.0255   -7.2594  -16.3448 C   0  0  0  0  0  0  0  0  0  0  0  0
   20.7794   -6.1081  -16.7773 O   0  0  0  0  0  0  0  0  0  0  0  0
   17.7528   -6.0879  -16.4166 O   0  0  0  0  0  0  0  0  0  0  0  0
   21.9867   -7.3833  -15.3144 N   0  0  0  0  0  0  0  0  0  0  0  0
   22.7150   -6.2741  -14.7753 C   0  0  0  0  0  0  0  0  0  0  0  0
   21.9901   -5.6518  -13.6359 C   0  0  0  0  0  0  0  0  0  0  0  0
   22.5149   -4.6129  -12.8946 O   0  0  0  0  0  0  0  0  0  0  0  0
   20.8528   -6.0987  -13.3449 O   0  0  0  0  0  0  0  0  0  0  0  0
  2  1  1  1
  3  2  1  0
  4  5  1  6
  4  2  1  0
  6  4  1  0
  7  6  2  0
  8  6  1  0
  9 10  1  1
  9  8  1  0
 10 11  1  0
 11 12  2  0
 13 16  1  0
 13  9  1  0
 14 13  2  0
 15 11  1  0
 17 16  1  0
 18 17  1  0
 19 18  1  0
 20 18  2  0
M  END
$$$$
