TDG.pdb
     RDKit          3D

 20 19  0  0  1  0  0  0  0  0999 V2000
   33.2554  -35.3146   -4.6907 C   0  0  0  0  0  0  0  0  0  0  0  0
   32.2461  -34.4888   -5.4225 C   0  0  1  0  0  0  0  0  0  0  0  0
   32.4519  -34.5824   -6.7839 O   0  0  0  0  0  0  0  0  0  0  0  0
   30.8206  -34.8803   -5.0895 C   0  0  2  0  0  0  0  0  0  0  0  0
   29.9313  -33.9785   -5.8438 N   0  0  0  0  0  0  0  0  0  0  0  0
   30.5239  -34.7876   -3.6364 C   0  0  0  0  0  0  0  0  0  0  0  0
   30.1977  -33.6903   -3.1657 O   0  0  0  0  0  0  0  0  0  0  0  0
   30.6025  -35.9094   -2.7819 N   0  0  0  0  0  0  0  0  0  0  0  0
   30.3496  -35.8394   -1.3724 C   0  0  1  0  0  0  0  0  0  0  0  0
   29.3612  -36.8415   -0.8830 C   0  0  0  0  0  0  0  0  0  0  0  0
   28.8371  -36.5640    0.4704 C   0  0  0  0  0  0  0  0  0  0  0  0
   29.1998  -35.5539    1.1155 O   0  0  0  0  0  0  0  0  0  0  0  0
   31.6134  -35.9717   -0.6121 C   0  0  0  0  0  0  0  0  0  0  0  0
   32.4241  -36.9007   -0.8429 O   0  0  0  0  0  0  0  0  0  0  0  0
   27.9177  -37.4029    1.1006 O   0  0  0  0  0  0  0  0  0  0  0  0
   31.9460  -35.0462    0.4046 N   0  0  0  0  0  0  0  0  0  0  0  0
   33.1688  -35.0948    1.1487 C   0  0  0  0  0  0  0  0  0  0  0  0
   33.1377  -36.1722    2.1731 C   0  0  0  0  0  0  0  0  0  0  0  0
   34.1810  -36.4032    3.0461 O   0  0  0  0  0  0  0  0  0  0  0  0
   32.1134  -36.8964    2.2372 O   0  0  0  0  0  0  0  0  0  0  0  0
  2  1  1  1
  3  2  1  0
  4  5  1  6
  4  2  1  0
  6  4  1  0
  7  6  2  0
  8  6  1  0
  9 10  1  1
  9  8  1  0
 10 11  1  0
 11 12  2  0
 13 16  1  0
 13  9  1  0
 14 13  2  0
 15 11  1  0
 17 16  1  0
 18 17  1  0
 19 18  1  0
 20 18  2  0
M  END
$$$$
