TDG.pdb
     RDKit          3D

 20 19  0  0  1  0  0  0  0  0999 V2000
   26.8092   -9.7246  -15.5757 C   0  0  0  0  0  0  0  0  0  0  0  0
   27.0939  -10.7078  -16.6658 C   0  0  1  0  0  0  0  0  0  0  0  0
   28.1149  -11.5556  -16.2871 O   0  0  0  0  0  0  0  0  0  0  0  0
   25.8725  -11.5155  -17.0560 C   0  0  2  0  0  0  0  0  0  0  0  0
   26.3244  -12.5770  -17.9736 N   0  0  0  0  0  0  0  0  0  0  0  0
   24.8236  -10.6910  -17.7104 C   0  0  0  0  0  0  0  0  0  0  0  0
   24.9132  -10.4708  -18.9250 O   0  0  0  0  0  0  0  0  0  0  0  0
   23.7333  -10.1550  -16.9902 N   0  0  0  0  0  0  0  0  0  0  0  0
   22.7340   -9.3195  -17.5893 C   0  0  1  0  0  0  0  0  0  0  0  0
   21.3475   -9.8531  -17.4724 C   0  0  0  0  0  0  0  0  0  0  0  0
   21.1377  -11.1477  -18.1530 C   0  0  0  0  0  0  0  0  0  0  0  0
   21.4249  -12.2315  -17.5954 O   0  0  0  0  0  0  0  0  0  0  0  0
   22.7929   -7.9530  -17.0216 C   0  0  0  0  0  0  0  0  0  0  0  0
   22.1328   -7.0079  -17.5160 O   0  0  0  0  0  0  0  0  0  0  0  0
   20.6129  -11.2359  -19.4426 O   0  0  0  0  0  0  0  0  0  0  0  0
   23.6015   -7.6720  -15.8956 N   0  0  0  0  0  0  0  0  0  0  0  0
   23.7100   -6.3717  -15.3051 C   0  0  0  0  0  0  0  0  0  0  0  0
   22.6696   -6.1604  -14.2639 C   0  0  0  0  0  0  0  0  0  0  0  0
   22.6070   -5.0189  -13.4912 O   0  0  0  0  0  0  0  0  0  0  0  0
   21.8169   -7.0661  -14.0891 O   0  0  0  0  0  0  0  0  0  0  0  0
  2  1  1  1
  3  2  1  0
  4  5  1  6
  4  2  1  0
  6  4  1  0
  7  6  2  0
  8  6  1  0
  9 10  1  1
  9  8  1  0
 10 11  1  0
 11 12  2  0
 13 16  1  0
 13  9  1  0
 14 13  2  0
 15 11  1  0
 17 16  1  0
 18 17  1  0
 19 18  1  0
 20 18  2  0
M  END
$$$$
