TDG.pdb
     RDKit          3D

 20 19  0  0  1  0  0  0  0  0999 V2000
   22.7262  -11.6936  -19.1363 C   0  0  0  0  0  0  0  0  0  0  0  0
   21.8007  -10.5528  -18.8571 C   0  0  1  0  0  0  0  0  0  0  0  0
   21.3256  -10.0250  -20.0405 O   0  0  0  0  0  0  0  0  0  0  0  0
   20.6395  -10.9486  -17.9675 C   0  0  2  0  0  0  0  0  0  0  0  0
   19.8202  -11.9150  -18.7210 N   0  0  0  0  0  0  0  0  0  0  0  0
   19.8074   -9.7874  -17.5585 C   0  0  0  0  0  0  0  0  0  0  0  0
   19.0164   -9.3051  -18.3793 O   0  0  0  0  0  0  0  0  0  0  0  0
   19.8923   -9.2217  -16.2671 N   0  0  0  0  0  0  0  0  0  0  0  0
   19.0525   -8.1465  -15.8264 C   0  0  1  0  0  0  0  0  0  0  0  0
   18.0881   -8.5294  -14.7567 C   0  0  0  0  0  0  0  0  0  0  0  0
   17.1429   -9.5959  -15.1472 C   0  0  0  0  0  0  0  0  0  0  0  0
   17.2055  -10.7398  -14.6415 O   0  0  0  0  0  0  0  0  0  0  0  0
   19.8733   -7.0008  -15.3722 C   0  0  0  0  0  0  0  0  0  0  0  0
   19.3567   -5.8912  -15.0975 O   0  0  0  0  0  0  0  0  0  0  0  0
   16.1369   -9.3917  -16.0920 O   0  0  0  0  0  0  0  0  0  0  0  0
   21.2755   -7.1258  -15.2332 N   0  0  0  0  0  0  0  0  0  0  0  0
   22.1429   -6.0226  -14.9472 C   0  0  0  0  0  0  0  0  0  0  0  0
   22.0561   -5.6209  -13.5181 C   0  0  0  0  0  0  0  0  0  0  0  0
   21.2095   -6.2367  -12.6191 O   0  0  0  0  0  0  0  0  0  0  0  0
   22.7890   -4.6800  -13.1239 O   0  0  0  0  0  0  0  0  0  0  0  0
  2  1  1  6
  3  2  1  0
  4  5  1  6
  4  2  1  0
  6  4  1  0
  7  6  2  0
  8  6  1  0
  9 10  1  1
  9  8  1  0
 10 11  1  0
 11 12  2  0
 13 16  1  0
 13  9  1  0
 14 13  2  0
 15 11  1  0
 17 16  1  0
 18 17  1  0
 19 18  1  0
 20 18  2  0
M  END
$$$$
