TDG.pdb
     RDKit          3D

 20 19  0  0  1  0  0  0  0  0999 V2000
   18.3680   -8.3887  -15.5006 C   0  0  0  0  0  0  0  0  0  0  0  0
   18.5790   -9.8504  -15.2661 C   0  0  1  0  0  0  0  0  0  0  0  0
   17.3693  -10.5145  -15.2834 O   0  0  0  0  0  0  0  0  0  0  0  0
   19.5220  -10.4726  -16.2762 C   0  0  2  0  0  0  0  0  0  0  0  0
   19.5213  -11.9273  -16.0376 N   0  0  0  0  0  0  0  0  0  0  0  0
   20.9060   -9.9416  -16.1731 C   0  0  0  0  0  0  0  0  0  0  0  0
   21.6744  -10.4438  -15.3428 O   0  0  0  0  0  0  0  0  0  0  0  0
   21.3674   -8.8867  -16.9911 N   0  0  0  0  0  0  0  0  0  0  0  0
   22.7122   -8.3917  -16.9462 C   0  0  1  0  0  0  0  0  0  0  0  0
   23.3125   -8.1442  -18.2875 C   0  0  0  0  0  0  0  0  0  0  0  0
   23.4959   -9.3627  -19.1029 C   0  0  0  0  0  0  0  0  0  0  0  0
   23.4987   -9.3155  -20.3543 O   0  0  0  0  0  0  0  0  0  0  0  0
   22.7827   -7.1569  -16.1318 C   0  0  0  0  0  0  0  0  0  0  0  0
   23.8755   -6.5888  -15.8944 O   0  0  0  0  0  0  0  0  0  0  0  0
   23.6745  -10.6227  -18.5313 O   0  0  0  0  0  0  0  0  0  0  0  0
   21.6098   -6.5773  -15.5940 N   0  0  0  0  0  0  0  0  0  0  0  0
   21.5889   -5.3112  -14.9249 C   0  0  0  0  0  0  0  0  0  0  0  0
   22.1406   -5.4163  -13.5480 C   0  0  0  0  0  0  0  0  0  0  0  0
   22.6899   -6.5802  -13.0502 O   0  0  0  0  0  0  0  0  0  0  0  0
   22.0994   -4.3963  -12.8161 O   0  0  0  0  0  0  0  0  0  0  0  0
  2  1  1  6
  3  2  1  0
  4  5  1  1
  4  2  1  0
  6  4  1  0
  7  6  2  0
  8  6  1  0
  9 10  1  6
  9  8  1  0
 10 11  1  0
 11 12  2  0
 13 16  1  0
 13  9  1  0
 14 13  2  0
 15 11  1  0
 17 16  1  0
 18 17  1  0
 19 18  1  0
 20 18  2  0
M  END
$$$$
