TLK.pdb
     RDKit          3D

 25 24  0  0  1  0  0  0  0  0999 V2000
   19.2996  -13.1593  -16.3819 C   0  0  0  0  0  0  0  0  0  0  0  0
   20.6505  -13.4148  -16.9460 C   0  0  1  0  0  0  0  0  0  0  0  0
   20.5596  -14.4302  -17.9212 O   0  0  0  0  0  0  0  0  0  0  0  0
   21.3032  -12.2364  -17.5837 C   0  0  2  0  0  0  0  0  0  0  0  0
   22.3871  -12.7129  -18.4133 N   0  0  0  0  0  0  0  0  0  0  0  0
   21.8036  -11.2226  -16.6696 C   0  0  0  0  0  0  0  0  0  0  0  0
   21.1939  -10.8896  -15.5924 O   0  0  0  0  0  0  0  0  0  0  0  0
   27.2922  -10.5901  -16.2742 C   0  0  0  0  0  0  0  0  0  0  0  0
   25.8282  -10.6147  -16.0398 C   0  0  1  0  0  0  0  0  0  0  0  0
   25.6357  -10.9240  -14.5437 C   0  0  0  0  0  0  0  0  0  0  0  0
   25.0668   -9.3738  -16.3082 C   0  0  0  0  0  0  0  0  0  0  0  0
   23.5678   -9.4746  -16.1982 C   0  0  2  0  0  0  0  0  0  0  0  0
   23.0246  -10.5563  -16.9641 N   0  0  0  0  0  0  0  0  0  0  0  0
   22.9625   -8.1698  -16.4605 C   0  0  0  0  0  0  0  0  0  0  0  0
   22.9788   -7.6267  -17.5953 O   0  0  0  0  0  0  0  0  0  0  0  0
   22.3171   -7.4451  -15.4208 N   0  0  0  0  0  0  0  0  0  0  0  0
   21.7537   -6.0998  -15.6354 C   0  0  1  0  0  0  0  0  0  0  0  0
   20.2782   -6.1035  -15.4379 C   0  0  0  0  0  0  0  0  0  0  0  0
   19.5847   -4.8313  -15.8467 C   0  0  0  0  0  0  0  0  0  0  0  0
   18.4844   -5.1595  -16.8575 C   0  0  0  0  0  0  0  0  0  0  0  0
   17.7937   -3.8472  -17.1893 C   0  0  0  0  0  0  0  0  0  0  0  0
   16.7649   -4.0387  -18.1923 N   0  0  0  0  0  0  0  0  0  0  0  0
   22.4054   -5.1849  -14.6839 C   0  0  0  0  0  0  0  0  0  0  0  0
   22.7523   -5.5128  -13.3810 O   0  0  0  0  0  0  0  0  0  0  0  0
   22.6931   -3.9849  -15.0374 O   0  0  0  0  0  0  0  0  0  0  0  0
  2  1  1  6
  3  2  1  0
  4  6  1  0
  4  2  1  0
  4  5  1  1
  6  7  2  0
  9  8  1  1
  9 11  1  0
 10  9  1  0
 12 11  1  6
 13 12  1  0
 13  6  1  0
 14 15  2  0
 14 12  1  0
 16 14  1  0
 17 16  1  0
 17 18  1  1
 19 20  1  0
 19 18  1  0
 20 21  1  0
 21 22  1  0
 23 17  1  0
 23 24  1  0
 25 23  2  0
M  END
$$$$
