TLK.pdb
     RDKit          3D

 25 24  0  0  1  0  0  0  0  0999 V2000
   18.3445  -13.0575  -17.4977 C   0  0  0  0  0  0  0  0  0  0  0  0
   19.8158  -13.2313  -17.6136 C   0  0  1  0  0  0  0  0  0  0  0  0
   20.0868  -14.3117  -18.4794 O   0  0  0  0  0  0  0  0  0  0  0  0
   20.5544  -12.0447  -18.1309 C   0  0  2  0  0  0  0  0  0  0  0  0
   21.8436  -12.4881  -18.6120 N   0  0  0  0  0  0  0  0  0  0  0  0
   20.7397  -10.9566  -17.1846 C   0  0  0  0  0  0  0  0  0  0  0  0
   19.7940  -10.5002  -16.4494 O   0  0  0  0  0  0  0  0  0  0  0  0
   25.9829  -10.1819  -15.2384 C   0  0  0  0  0  0  0  0  0  0  0  0
   24.5173  -10.2913  -15.4356 C   0  0  1  0  0  0  0  0  0  0  0  0
   23.9186  -10.6131  -14.0540 C   0  0  0  0  0  0  0  0  0  0  0  0
   23.7981   -9.0959  -15.9311 C   0  0  0  0  0  0  0  0  0  0  0  0
   22.3211   -9.2612  -16.1773 C   0  0  2  0  0  0  0  0  0  0  0  0
   22.0212  -10.3555  -17.0516 N   0  0  0  0  0  0  0  0  0  0  0  0
   21.7378   -7.9801  -16.5723 C   0  0  0  0  0  0  0  0  0  0  0  0
   21.9460   -7.4540  -17.6961 O   0  0  0  0  0  0  0  0  0  0  0  0
   20.8934   -7.2600  -15.6827 N   0  0  0  0  0  0  0  0  0  0  0  0
   20.2304   -6.0033  -16.0753 C   0  0  1  0  0  0  0  0  0  0  0  0
   18.7650   -6.0738  -15.8228 C   0  0  0  0  0  0  0  0  0  0  0  0
   18.0262   -4.7793  -16.0351 C   0  0  0  0  0  0  0  0  0  0  0  0
   16.7290   -5.0584  -16.7963 C   0  0  0  0  0  0  0  0  0  0  0  0
   16.0360   -3.7185  -16.9797 C   0  0  0  0  0  0  0  0  0  0  0  0
   14.7969   -3.8691  -17.7167 N   0  0  0  0  0  0  0  0  0  0  0  0
   20.8422   -4.9130  -15.2980 C   0  0  0  0  0  0  0  0  0  0  0  0
   21.6654   -5.0918  -14.1955 O   0  0  0  0  0  0  0  0  0  0  0  0
   20.6274   -3.6901  -15.6235 O   0  0  0  0  0  0  0  0  0  0  0  0
  2  1  1  6
  3  2  1  0
  4  6  1  0
  4  2  1  0
  4  5  1  1
  6  7  2  0
  9  8  1  1
  9 11  1  0
 10  9  1  0
 12 11  1  6
 13 12  1  0
 13  6  1  0
 14 15  2  0
 14 12  1  0
 16 14  1  0
 17 16  1  0
 17 18  1  1
 19 20  1  0
 19 18  1  0
 20 21  1  0
 21 22  1  0
 23 17  1  0
 23 24  1  0
 25 23  2  0
M  END
$$$$
