WAW.pdb
     RDKit          3D

 34 37  0  0  1  0  0  0  0  0999 V2000
   27.2698  -19.4700  -11.3142 N   0  0  0  0  0  0  0  0  0  0  0  0
   26.7713  -20.8135  -11.0667 C   0  0  1  0  0  0  0  0  0  0  0  0
   26.0588  -20.8832   -9.7341 C   0  0  0  0  0  0  0  0  0  0  0  0
   26.8801  -20.4012   -8.6235 C   0  0  0  0  0  0  0  0  0  0  0  0
   26.5018  -19.4465   -7.6995 C   0  0  0  0  0  0  0  0  0  0  0  0
   27.4991  -19.2275   -6.8300 N   0  0  0  0  0  0  0  0  0  0  0  0
   28.5397  -20.0439   -7.1877 C   0  0  0  0  0  0  0  0  0  0  0  0
   29.7859  -20.2077   -6.6392 C   0  0  0  0  0  0  0  0  0  0  0  0
   30.6724  -21.1045   -7.1926 C   0  0  0  0  0  0  0  0  0  0  0  0
   30.3205  -21.8433   -8.2967 C   0  0  0  0  0  0  0  0  0  0  0  0
   29.0692  -21.6845   -8.8519 C   0  0  0  0  0  0  0  0  0  0  0  0
   28.1549  -20.7856   -8.3143 C   0  0  0  0  0  0  0  0  0  0  0  0
   25.7178  -21.0146  -12.1270 C   0  0  0  0  0  0  0  0  0  0  0  0
   25.0147  -20.0430  -12.5262 O   0  0  0  0  0  0  0  0  0  0  0  0
   24.4282  -24.0320  -14.0400 C   0  0  0  0  0  0  0  0  0  0  0  0
   24.5435  -22.5452  -13.7522 C   0  0  2  0  0  0  0  0  0  0  0  0
   25.4762  -22.2704  -12.7086 N   0  0  0  0  0  0  0  0  0  0  0  0
   23.1895  -22.1260  -13.2675 C   0  0  0  0  0  0  0  0  0  0  0  0
   22.7783  -22.5096  -12.1425 O   0  0  0  0  0  0  0  0  0  0  0  0
   22.3731  -21.2968  -14.0790 N   0  0  0  0  0  0  0  0  0  0  0  0
   21.0910  -20.8726  -13.6286 C   0  0  1  0  0  0  0  0  0  0  0  0
   20.8728  -19.4018  -13.5427 C   0  0  0  0  0  0  0  0  0  0  0  0
   21.1530  -18.7588  -14.8708 C   0  0  0  0  0  0  0  0  0  0  0  0
   20.2516  -18.5353  -15.8965 C   0  0  0  0  0  0  0  0  0  0  0  0
   20.8855  -17.9374  -16.9271 N   0  0  0  0  0  0  0  0  0  0  0  0
   22.1648  -17.7793  -16.5765 C   0  0  0  0  0  0  0  0  0  0  0  0
   23.1997  -17.2106  -17.3197 C   0  0  0  0  0  0  0  0  0  0  0  0
   24.4385  -17.1591  -16.7474 C   0  0  0  0  0  0  0  0  0  0  0  0
   24.6558  -17.6521  -15.4808 C   0  0  0  0  0  0  0  0  0  0  0  0
   23.6330  -18.2135  -14.7471 C   0  0  0  0  0  0  0  0  0  0  0  0
   22.3721  -18.2806  -15.2962 C   0  0  0  0  0  0  0  0  0  0  0  0
   19.9350  -21.5660  -14.2446 C   0  0  0  0  0  0  0  0  0  0  0  0
   18.7907  -21.5046  -13.8330 O   0  0  0  0  0  0  0  0  0  0  0  0
   20.2254  -22.3413  -15.3850 O   0  0  0  0  0  0  0  0  0  0  0  0
  2  1  1  6
  2  3  1  0
  4  3  1  0
  5  4  2  0
  6  5  1  0
  7  6  1  0
  7 12  2  0
  8  9  2  0
  8  7  1  0
  9 10  1  0
 10 11  2  0
 12 11  1  0
 12  4  1  0
 13  2  1  0
 13 14  2  0
 16 15  1  1
 16 17  1  0
 17 13  1  0
 18 16  1  0
 19 18  2  0
 20 18  1  0
 21 22  1  6
 21 20  1  0
 22 23  1  0
 23 31  1  0
 24 25  1  0
 24 23  2  0
 25 26  1  0
 26 31  2  0
 26 27  1  0
 27 28  2  0
 28 29  1  0
 30 29  2  0
 31 30  1  0
 32 34  1  0
 32 21  1  0
 33 32  2  0
M  END
$$$$
