WAW.pdb
     RDKit          3D

 34 37  0  0  1  0  0  0  0  0999 V2000
   25.9839  -22.2937  -13.6851 N   0  0  0  0  0  0  0  0  0  0  0  0
   25.4517  -21.0554  -13.1393 C   0  0  1  0  0  0  0  0  0  0  0  0
   26.5280  -19.9946  -13.0698 C   0  0  0  0  0  0  0  0  0  0  0  0
   27.6029  -20.3346  -12.1375 C   0  0  0  0  0  0  0  0  0  0  0  0
   28.9298  -20.5199  -12.4740 C   0  0  0  0  0  0  0  0  0  0  0  0
   29.6407  -20.8390  -11.3824 N   0  0  0  0  0  0  0  0  0  0  0  0
   28.7728  -20.8645  -10.3226 C   0  0  0  0  0  0  0  0  0  0  0  0
   28.9801  -21.1379   -8.9948 C   0  0  0  0  0  0  0  0  0  0  0  0
   27.9264  -21.1024   -8.1089 C   0  0  0  0  0  0  0  0  0  0  0  0
   26.6595  -20.7937   -8.5428 C   0  0  0  0  0  0  0  0  0  0  0  0
   26.4446  -20.5166   -9.8756 C   0  0  0  0  0  0  0  0  0  0  0  0
   27.4899  -20.5462  -10.7917 C   0  0  0  0  0  0  0  0  0  0  0  0
   24.4608  -20.5930  -14.1781 C   0  0  0  0  0  0  0  0  0  0  0  0
   23.9583  -19.4349  -14.1157 O   0  0  0  0  0  0  0  0  0  0  0  0
   23.1108  -21.8576  -17.4525 C   0  0  0  0  0  0  0  0  0  0  0  0
   22.9378  -21.1959  -16.0964 C   0  0  2  0  0  0  0  0  0  0  0  0
   24.0600  -21.4159  -15.2439 N   0  0  0  0  0  0  0  0  0  0  0  0
   21.7571  -21.8721  -15.4698 C   0  0  0  0  0  0  0  0  0  0  0  0
   21.8377  -23.0760  -15.1150 O   0  0  0  0  0  0  0  0  0  0  0  0
   20.5496  -21.1526  -15.2777 N   0  0  0  0  0  0  0  0  0  0  0  0
   19.4552  -21.7395  -14.5816 C   0  0  1  0  0  0  0  0  0  0  0  0
   19.7587  -22.3292  -13.2480 C   0  0  0  0  0  0  0  0  0  0  0  0
   20.4105  -21.3037  -12.3651 C   0  0  0  0  0  0  0  0  0  0  0  0
   20.8626  -20.0496  -12.7359 C   0  0  0  0  0  0  0  0  0  0  0  0
   21.3891  -19.4277  -11.6601 N   0  0  0  0  0  0  0  0  0  0  0  0
   21.2809  -20.2593  -10.6204 C   0  0  0  0  0  0  0  0  0  0  0  0
   21.6893  -20.0516   -9.3025 C   0  0  0  0  0  0  0  0  0  0  0  0
   21.4730  -21.0576   -8.4046 C   0  0  0  0  0  0  0  0  0  0  0  0
   20.8725  -22.2348   -8.7894 C   0  0  0  0  0  0  0  0  0  0  0  0
   20.4690  -22.4392  -10.0914 C   0  0  0  0  0  0  0  0  0  0  0  0
   20.6732  -21.4441  -11.0209 C   0  0  0  0  0  0  0  0  0  0  0  0
   18.2082  -20.9389  -14.5591 C   0  0  0  0  0  0  0  0  0  0  0  0
   18.0959  -19.8183  -15.0219 O   0  0  0  0  0  0  0  0  0  0  0  0
   17.0980  -21.5557  -13.9484 O   0  0  0  0  0  0  0  0  0  0  0  0
  2  1  1  6
  2  3  1  0
  4  3  1  0
  5  4  2  0
  6  5  1  0
  7  6  1  0
  7 12  2  0
  8  9  2  0
  8  7  1  0
  9 10  1  0
 10 11  2  0
 12 11  1  0
 12  4  1  0
 13  2  1  0
 13 14  2  0
 16 15  1  6
 16 17  1  0
 17 13  1  0
 18 16  1  0
 19 18  2  0
 20 18  1  0
 21 22  1  1
 21 20  1  0
 22 23  1  0
 23 31  1  0
 24 25  1  0
 24 23  2  0
 25 26  1  0
 26 31  2  0
 26 27  1  0
 27 28  2  0
 28 29  1  0
 30 29  2  0
 31 30  1  0
 32 34  1  0
 32 21  1  0
 33 32  2  0
M  END
$$$$
