WAW.pdb
     RDKit          3D

 34 37  0  0  1  0  0  0  0  0999 V2000
   23.2754  -16.6534  -15.4073 N   0  0  0  0  0  0  0  0  0  0  0  0
   24.5593  -17.2733  -15.1210 C   0  0  1  0  0  0  0  0  0  0  0  0
   25.5567  -16.2421  -14.6412 C   0  0  0  0  0  0  0  0  0  0  0  0
   26.1713  -15.4918  -15.7365 C   0  0  0  0  0  0  0  0  0  0  0  0
   25.9656  -14.1531  -16.0082 C   0  0  0  0  0  0  0  0  0  0  0  0
   26.6673  -13.7909  -17.0922 N   0  0  0  0  0  0  0  0  0  0  0  0
   27.3370  -14.9011  -17.5353 C   0  0  0  0  0  0  0  0  0  0  0  0
   28.1823  -15.0778  -18.6005 C   0  0  0  0  0  0  0  0  0  0  0  0
   28.7375  -16.3140  -18.8448 C   0  0  0  0  0  0  0  0  0  0  0  0
   28.4527  -17.3813  -18.0273 C   0  0  0  0  0  0  0  0  0  0  0  0
   27.6050  -17.2101  -16.9542 C   0  0  0  0  0  0  0  0  0  0  0  0
   27.0298  -15.9734  -16.6850 C   0  0  0  0  0  0  0  0  0  0  0  0
   24.2769  -18.1755  -13.9458 C   0  0  0  0  0  0  0  0  0  0  0  0
   23.7316  -17.7179  -12.9014 O   0  0  0  0  0  0  0  0  0  0  0  0
   24.5230  -21.8656  -13.2057 C   0  0  0  0  0  0  0  0  0  0  0  0
   24.6610  -20.4020  -12.8242 C   0  0  2  0  0  0  0  0  0  0  0  0
   24.6015  -19.5423  -13.9608 N   0  0  0  0  0  0  0  0  0  0  0  0
   26.0306  -20.2710  -12.2320 C   0  0  0  0  0  0  0  0  0  0  0  0
   26.9730  -19.8083  -12.9245 O   0  0  0  0  0  0  0  0  0  0  0  0
   26.2622  -20.6694  -10.8902 N   0  0  0  0  0  0  0  0  0  0  0  0
   27.5831  -20.7127  -10.3612 C   0  0  1  0  0  0  0  0  0  0  0  0
   27.9116  -19.7024   -9.3174 C   0  0  0  0  0  0  0  0  0  0  0  0
   27.2459  -20.0634   -8.0203 C   0  0  0  0  0  0  0  0  0  0  0  0
   26.0133  -20.6700   -7.8555 C   0  0  0  0  0  0  0  0  0  0  0  0
   25.7637  -20.8257   -6.5383 N   0  0  0  0  0  0  0  0  0  0  0  0
   26.8085  -20.3312   -5.8687 C   0  0  0  0  0  0  0  0  0  0  0  0
   26.9988  -20.2710   -4.4878 C   0  0  0  0  0  0  0  0  0  0  0  0
   28.1586  -19.7136   -4.0303 C   0  0  0  0  0  0  0  0  0  0  0  0
   29.1054  -19.2289   -4.9038 C   0  0  0  0  0  0  0  0  0  0  0  0
   28.9168  -19.2889   -6.2678 C   0  0  0  0  0  0  0  0  0  0  0  0
   27.7576  -19.8448   -6.7609 C   0  0  0  0  0  0  0  0  0  0  0  0
   28.0838  -22.0602  -10.0005 C   0  0  0  0  0  0  0  0  0  0  0  0
   27.3947  -23.0624   -9.9414 O   0  0  0  0  0  0  0  0  0  0  0  0
   29.4607  -22.1425   -9.7119 O   0  0  0  0  0  0  0  0  0  0  0  0
  2  1  1  1
  2  3  1  0
  4  3  1  0
  5  4  2  0
  6  5  1  0
  7  6  1  0
  7 12  2  0
  8  9  2  0
  8  7  1  0
  9 10  1  0
 10 11  2  0
 12 11  1  0
 12  4  1  0
 13  2  1  0
 13 14  2  0
 16 15  1  6
 16 17  1  0
 17 13  1  0
 18 16  1  0
 19 18  2  0
 20 18  1  0
 21 22  1  1
 21 20  1  0
 22 23  1  0
 23 31  1  0
 24 25  1  0
 24 23  2  0
 25 26  1  0
 26 31  2  0
 26 27  1  0
 27 28  2  0
 28 29  1  0
 30 29  2  0
 31 30  1  0
 32 34  1  0
 32 21  1  0
 33 32  2  0
M  END
$$$$
