WAW.pdb
     RDKit          3D

 34 37  0  0  1  0  0  0  0  0999 V2000
   14.5481  -18.8064    3.4834 N   0  0  0  0  0  0  0  0  0  0  0  0
   15.6473  -19.5175    4.1165 C   0  0  1  0  0  0  0  0  0  0  0  0
   16.8279  -19.6241    3.1769 C   0  0  0  0  0  0  0  0  0  0  0  0
   16.5836  -20.5327    2.0566 C   0  0  0  0  0  0  0  0  0  0  0  0
   16.2423  -20.1524    0.7731 C   0  0  0  0  0  0  0  0  0  0  0  0
   16.0743  -21.2366    0.0017 N   0  0  0  0  0  0  0  0  0  0  0  0
   16.3058  -22.3360    0.7859 C   0  0  0  0  0  0  0  0  0  0  0  0
   16.2629  -23.6753    0.4947 C   0  0  0  0  0  0  0  0  0  0  0  0
   16.5364  -24.6048    1.4733 C   0  0  0  0  0  0  0  0  0  0  0  0
   16.8547  -24.2030    2.7484 C   0  0  0  0  0  0  0  0  0  0  0  0
   16.9009  -22.8584    3.0473 C   0  0  0  0  0  0  0  0  0  0  0  0
   16.6283  -21.8988    2.0790 C   0  0  0  0  0  0  0  0  0  0  0  0
   16.0746  -18.6063    5.2399 C   0  0  0  0  0  0  0  0  0  0  0  0
   16.2253  -17.3674    5.0398 O   0  0  0  0  0  0  0  0  0  0  0  0
   16.4456  -19.0006    8.9766 C   0  0  0  0  0  0  0  0  0  0  0  0
   16.7308  -18.3051    7.6568 C   0  0  2  0  0  0  0  0  0  0  0  0
   16.3191  -19.0870    6.5372 N   0  0  0  0  0  0  0  0  0  0  0  0
   18.2213  -18.1722    7.5893 C   0  0  0  0  0  0  0  0  0  0  0  0
   18.8807  -18.8898    6.7942 O   0  0  0  0  0  0  0  0  0  0  0  0
   18.8866  -17.2368    8.4229 N   0  0  0  0  0  0  0  0  0  0  0  0
   20.3036  -17.1055    8.3838 C   0  0  1  0  0  0  0  0  0  0  0  0
   20.9167  -16.9478    7.0356 C   0  0  0  0  0  0  0  0  0  0  0  0
   20.8547  -15.5105    6.6040 C   0  0  0  0  0  0  0  0  0  0  0  0
   21.5614  -14.4476    7.1382 C   0  0  0  0  0  0  0  0  0  0  0  0
   21.2305  -13.3154    6.4822 N   0  0  0  0  0  0  0  0  0  0  0  0
   20.3319  -13.6386    5.5481 C   0  0  0  0  0  0  0  0  0  0  0  0
   19.7013  -12.7987    4.6295 C   0  0  0  0  0  0  0  0  0  0  0  0
   18.8083  -13.3616    3.7632 C   0  0  0  0  0  0  0  0  0  0  0  0
   18.5415  -14.7115    3.7974 C   0  0  0  0  0  0  0  0  0  0  0  0
   19.1649  -15.5407    4.7049 C   0  0  0  0  0  0  0  0  0  0  0  0
   20.0705  -15.0035    5.5922 C   0  0  0  0  0  0  0  0  0  0  0  0
   20.8859  -16.1623    9.3676 C   0  0  0  0  0  0  0  0  0  0  0  0
   20.2601  -15.2959    9.9510 O   0  0  0  0  0  0  0  0  0  0  0  0
   22.2650  -16.3131    9.6150 O   0  0  0  0  0  0  0  0  0  0  0  0
  2  1  1  6
  2  3  1  0
  4  3  1  0
  5  4  2  0
  6  5  1  0
  7  6  1  0
  7 12  2  0
  8  9  2  0
  8  7  1  0
  9 10  1  0
 10 11  2  0
 12 11  1  0
 12  4  1  0
 13  2  1  0
 13 14  2  0
 16 15  1  1
 16 17  1  0
 17 13  1  0
 18 16  1  0
 19 18  2  0
 20 18  1  0
 21 22  1  6
 21 20  1  0
 22 23  1  0
 23 31  1  0
 24 25  1  0
 24 23  2  0
 25 26  1  0
 26 31  2  0
 26 27  1  0
 27 28  2  0
 28 29  1  0
 30 29  2  0
 31 30  1  0
 32 34  1  0
 32 21  1  0
 33 32  2  0
M  END
$$$$
