WAW.pdb
     RDKit          3D

 34 37  0  0  1  0  0  0  0  0999 V2000
   27.3918  -20.0615  -11.7818 N   0  0  0  0  0  0  0  0  0  0  0  0
   26.8120  -21.3901  -11.6660 C   0  0  1  0  0  0  0  0  0  0  0  0
   25.9567  -21.4946  -10.4226 C   0  0  0  0  0  0  0  0  0  0  0  0
   26.4622  -20.6845   -9.3143 C   0  0  0  0  0  0  0  0  0  0  0  0
   25.8456  -19.5646   -8.7908 C   0  0  0  0  0  0  0  0  0  0  0  0
   26.5870  -19.0538   -7.7969 N   0  0  0  0  0  0  0  0  0  0  0  0
   27.6989  -19.8440   -7.6688 C   0  0  0  0  0  0  0  0  0  0  0  0
   28.7691  -19.7618   -6.8152 C   0  0  0  0  0  0  0  0  0  0  0  0
   29.7828  -20.6911   -6.8859 C   0  0  0  0  0  0  0  0  0  0  0  0
   29.7345  -21.7083   -7.8087 C   0  0  0  0  0  0  0  0  0  0  0  0
   28.6611  -21.7975   -8.6685 C   0  0  0  0  0  0  0  0  0  0  0  0
   27.6245  -20.8724   -8.6197 C   0  0  0  0  0  0  0  0  0  0  0  0
   25.8722  -21.4838  -12.8418 C   0  0  0  0  0  0  0  0  0  0  0  0
   25.2787  -20.4544  -13.2731 O   0  0  0  0  0  0  0  0  0  0  0  0
   25.0889  -24.1737  -15.3750 C   0  0  0  0  0  0  0  0  0  0  0  0
   24.7892  -22.8759  -14.6451 C   0  0  2  0  0  0  0  0  0  0  0  0
   25.6198  -22.6995  -13.4991 N   0  0  0  0  0  0  0  0  0  0  0  0
   23.3773  -23.0064  -14.1618 C   0  0  0  0  0  0  0  0  0  0  0  0
   23.1035  -23.8054  -13.2300 O   0  0  0  0  0  0  0  0  0  0  0  0
   22.3513  -22.2278  -14.7566 N   0  0  0  0  0  0  0  0  0  0  0  0
   20.9860  -22.4370  -14.4118 C   0  0  1  0  0  0  0  0  0  0  0  0
   20.3151  -21.3352  -13.6674 C   0  0  0  0  0  0  0  0  0  0  0  0
   21.0418  -21.0621  -12.3816 C   0  0  0  0  0  0  0  0  0  0  0  0
   22.0774  -20.1663  -12.1824 C   0  0  0  0  0  0  0  0  0  0  0  0
   22.4657  -20.2113  -10.8906 N   0  0  0  0  0  0  0  0  0  0  0  0
   21.7009  -21.1142  -10.2708 C   0  0  0  0  0  0  0  0  0  0  0  0
   21.7374  -21.5028   -8.9313 C   0  0  0  0  0  0  0  0  0  0  0  0
   20.8489  -22.4558   -8.5221 C   0  0  0  0  0  0  0  0  0  0  0  0
   19.9494  -23.0119   -9.4031 C   0  0  0  0  0  0  0  0  0  0  0  0
   19.9137  -22.6273  -10.7262 C   0  0  0  0  0  0  0  0  0  0  0  0
   20.7969  -21.6687  -11.1701 C   0  0  0  0  0  0  0  0  0  0  0  0
   20.1276  -22.9726  -15.4948 C   0  0  0  0  0  0  0  0  0  0  0  0
   20.4588  -23.0574  -16.6635 O   0  0  0  0  0  0  0  0  0  0  0  0
   18.8447  -23.4022  -15.1005 O   0  0  0  0  0  0  0  0  0  0  0  0
  2  1  1  1
  2  3  1  0
  4  3  1  0
  5  4  2  0
  6  5  1  0
  7  6  1  0
  7 12  2  0
  8  9  2  0
  8  7  1  0
  9 10  1  0
 10 11  2  0
 12 11  1  0
 12  4  1  0
 13  2  1  0
 13 14  2  0
 16 15  1  1
 16 17  1  0
 17 13  1  0
 18 16  1  0
 19 18  2  0
 20 18  1  0
 21 22  1  6
 21 20  1  0
 22 23  1  0
 23 31  1  0
 24 25  1  0
 24 23  2  0
 25 26  1  0
 26 31  2  0
 26 27  1  0
 27 28  2  0
 28 29  1  0
 30 29  2  0
 31 30  1  0
 32 34  1  0
 32 21  1  0
 33 32  2  0
M  END
$$$$
