WAW.pdb
     RDKit          3D

 34 37  0  0  1  0  0  0  0  0999 V2000
   28.1799  -20.5176   -9.8322 N   0  0  0  0  0  0  0  0  0  0  0  0
   26.9416  -21.2554   -9.6401 C   0  0  1  0  0  0  0  0  0  0  0  0
   26.1310  -20.6567   -8.5118 C   0  0  0  0  0  0  0  0  0  0  0  0
   26.9607  -20.0045   -7.4987 C   0  0  0  0  0  0  0  0  0  0  0  0
   27.3418  -18.6767   -7.5051 C   0  0  0  0  0  0  0  0  0  0  0  0
   28.1139  -18.4148   -6.4403 N   0  0  0  0  0  0  0  0  0  0  0  0
   28.2412  -19.5802   -5.7312 C   0  0  0  0  0  0  0  0  0  0  0  0
   28.9226  -19.8613   -4.5748 C   0  0  0  0  0  0  0  0  0  0  0  0
   28.9007  -21.1349   -4.0516 C   0  0  0  0  0  0  0  0  0  0  0  0
   28.1985  -22.1357   -4.6793 C   0  0  0  0  0  0  0  0  0  0  0  0
   27.5104  -21.8595   -5.8411 C   0  0  0  0  0  0  0  0  0  0  0  0
   27.5162  -20.5830   -6.3917 C   0  0  0  0  0  0  0  0  0  0  0  0
   26.1639  -21.0027  -10.9074 C   0  0  0  0  0  0  0  0  0  0  0  0
   26.0475  -19.8307  -11.3665 O   0  0  0  0  0  0  0  0  0  0  0  0
   24.6030  -23.2712  -13.5129 C   0  0  0  0  0  0  0  0  0  0  0  0
   24.8949  -21.9193  -12.8853 C   0  0  2  0  0  0  0  0  0  0  0  0
   25.5455  -22.0422  -11.6220 N   0  0  0  0  0  0  0  0  0  0  0  0
   23.5554  -21.2940  -12.6427 C   0  0  0  0  0  0  0  0  0  0  0  0
   22.8545  -21.6684  -11.6678 O   0  0  0  0  0  0  0  0  0  0  0  0
   23.0798  -20.2802  -13.5137 N   0  0  0  0  0  0  0  0  0  0  0  0
   21.8170  -19.6620  -13.2905 C   0  0  1  0  0  0  0  0  0  0  0  0
   21.6485  -18.2857  -13.8343 C   0  0  0  0  0  0  0  0  0  0  0  0
   21.9561  -18.2690  -15.3043 C   0  0  0  0  0  0  0  0  0  0  0  0
   23.1749  -18.5308  -15.9048 C   0  0  0  0  0  0  0  0  0  0  0  0
   23.0487  -18.4131  -17.2434 N   0  0  0  0  0  0  0  0  0  0  0  0
   21.7803  -18.0828  -17.5013 C   0  0  0  0  0  0  0  0  0  0  0  0
   21.1831  -17.8531  -18.7412 C   0  0  0  0  0  0  0  0  0  0  0  0
   19.8580  -17.5232  -18.7564 C   0  0  0  0  0  0  0  0  0  0  0  0
   19.1389  -17.4217  -17.5872 C   0  0  0  0  0  0  0  0  0  0  0  0
   19.7294  -17.6490  -16.3627 C   0  0  0  0  0  0  0  0  0  0  0  0
   21.0643  -17.9832  -16.3136 C   0  0  0  0  0  0  0  0  0  0  0  0
   20.6326  -20.5105  -13.5619 C   0  0  0  0  0  0  0  0  0  0  0  0
   20.6178  -21.4535  -14.3320 O   0  0  0  0  0  0  0  0  0  0  0  0
   19.4611  -20.1660  -12.8585 O   0  0  0  0  0  0  0  0  0  0  0  0
  2  1  1  6
  2  3  1  0
  4  3  1  0
  5  4  2  0
  6  5  1  0
  7  6  1  0
  7 12  2  0
  8  9  2  0
  8  7  1  0
  9 10  1  0
 10 11  2  0
 12 11  1  0
 12  4  1  0
 13  2  1  0
 13 14  2  0
 16 15  1  1
 16 17  1  0
 17 13  1  0
 18 16  1  0
 19 18  2  0
 20 18  1  0
 21 22  1  6
 21 20  1  0
 22 23  1  0
 23 31  1  0
 24 25  1  0
 24 23  2  0
 25 26  1  0
 26 31  2  0
 26 27  1  0
 27 28  2  0
 28 29  1  0
 30 29  2  0
 31 30  1  0
 32 34  1  0
 32 21  1  0
 33 32  2  0
M  END
$$$$
