WAW.pdb
     RDKit          3D

 34 37  0  0  1  0  0  0  0  0999 V2000
   24.6379  -15.1602  -16.0404 N   0  0  0  0  0  0  0  0  0  0  0  0
   25.7310  -16.1190  -16.0630 C   0  0  1  0  0  0  0  0  0  0  0  0
   26.7860  -15.7526  -15.0426 C   0  0  0  0  0  0  0  0  0  0  0  0
   27.5919  -14.6001  -15.4458 C   0  0  0  0  0  0  0  0  0  0  0  0
   27.5042  -13.3306  -14.9082 C   0  0  0  0  0  0  0  0  0  0  0  0
   28.3724  -12.5114  -15.5196 N   0  0  0  0  0  0  0  0  0  0  0  0
   29.0331  -13.2492  -16.4663 C   0  0  0  0  0  0  0  0  0  0  0  0
   30.0095  -12.8974  -17.3628 C   0  0  0  0  0  0  0  0  0  0  0  0
   30.5217  -13.8358  -18.2308 C   0  0  0  0  0  0  0  0  0  0  0  0
   30.0627  -15.1310  -18.2091 C   0  0  0  0  0  0  0  0  0  0  0  0
   29.0827  -15.4914  -17.3097 C   0  0  0  0  0  0  0  0  0  0  0  0
   28.5472  -14.5642  -16.4229 C   0  0  0  0  0  0  0  0  0  0  0  0
   25.1015  -17.4039  -15.5861 C   0  0  0  0  0  0  0  0  0  0  0  0
   24.3648  -17.4155  -14.5590 O   0  0  0  0  0  0  0  0  0  0  0  0
   24.6082  -20.8148  -17.0853 C   0  0  0  0  0  0  0  0  0  0  0  0
   24.7262  -19.8791  -15.8947 C   0  0  2  0  0  0  0  0  0  0  0  0
   25.3026  -18.6243  -16.2523 N   0  0  0  0  0  0  0  0  0  0  0  0
   25.6704  -20.5545  -14.9479 C   0  0  0  0  0  0  0  0  0  0  0  0
   26.9055  -20.5537  -15.1849 O   0  0  0  0  0  0  0  0  0  0  0  0
   25.1690  -21.1943  -13.7852 N   0  0  0  0  0  0  0  0  0  0  0  0
   25.9989  -22.0550  -13.0126 C   0  0  1  0  0  0  0  0  0  0  0  0
   26.9855  -21.3927  -12.1148 C   0  0  0  0  0  0  0  0  0  0  0  0
   26.2999  -20.8820  -10.8799 C   0  0  0  0  0  0  0  0  0  0  0  0
   24.9819  -20.4766  -10.7643 C   0  0  0  0  0  0  0  0  0  0  0  0
   24.7446  -20.0824   -9.4956 N   0  0  0  0  0  0  0  0  0  0  0  0
   25.8809  -20.2286   -8.8086 C   0  0  0  0  0  0  0  0  0  0  0  0
   26.1183  -19.9475   -7.4628 C   0  0  0  0  0  0  0  0  0  0  0  0
   27.3739  -20.1784   -6.9777 C   0  0  0  0  0  0  0  0  0  0  0  0
   28.3688  -20.6715   -7.7910 C   0  0  0  0  0  0  0  0  0  0  0  0
   28.1335  -20.9492   -9.1203 C   0  0  0  0  0  0  0  0  0  0  0  0
   26.8779  -20.7270   -9.6399 C   0  0  0  0  0  0  0  0  0  0  0  0
   25.3039  -23.1756  -12.3360 C   0  0  0  0  0  0  0  0  0  0  0  0
   24.0967  -23.3342  -12.3212 O   0  0  0  0  0  0  0  0  0  0  0  0
   26.1369  -24.0997  -11.6741 O   0  0  0  0  0  0  0  0  0  0  0  0
  2  1  1  1
  2  3  1  0
  4  3  1  0
  5  4  2  0
  6  5  1  0
  7  6  1  0
  7 12  2  0
  8  9  2  0
  8  7  1  0
  9 10  1  0
 10 11  2  0
 12 11  1  0
 12  4  1  0
 13  2  1  0
 13 14  2  0
 16 15  1  6
 16 17  1  0
 17 13  1  0
 18 16  1  0
 19 18  2  0
 20 18  1  0
 21 22  1  1
 21 20  1  0
 22 23  1  0
 23 31  1  0
 24 25  1  0
 24 23  2  0
 25 26  1  0
 26 31  2  0
 26 27  1  0
 27 28  2  0
 28 29  1  0
 30 29  2  0
 31 30  1  0
 32 34  1  0
 32 21  1  0
 33 32  2  0
M  END
$$$$
