WAW.pdb
     RDKit          3D

 34 37  0  0  1  0  0  0  0  0999 V2000
   27.9495  -18.0660  -17.9067 N   0  0  0  0  0  0  0  0  0  0  0  0
   28.4553  -17.2843  -16.7897 C   0  0  1  0  0  0  0  0  0  0  0  0
   28.5902  -15.8273  -17.1733 C   0  0  0  0  0  0  0  0  0  0  0  0
   29.4232  -15.6255  -18.3589 C   0  0  0  0  0  0  0  0  0  0  0  0
   29.0102  -15.0435  -19.5417 C   0  0  0  0  0  0  0  0  0  0  0  0
   30.0188  -15.0328  -20.4257 N   0  0  0  0  0  0  0  0  0  0  0  0
   31.1008  -15.6136  -19.8181 C   0  0  0  0  0  0  0  0  0  0  0  0
   32.3702  -15.8543  -20.2776 C   0  0  0  0  0  0  0  0  0  0  0  0
   33.2959  -16.4670  -19.4626 C   0  0  0  0  0  0  0  0  0  0  0  0
   32.9602  -16.8429  -18.1841 C   0  0  0  0  0  0  0  0  0  0  0  0
   31.6866  -16.6026  -17.7157 C   0  0  0  0  0  0  0  0  0  0  0  0
   30.7321  -15.9867  -18.5173 C   0  0  0  0  0  0  0  0  0  0  0  0
   27.3532  -17.3568  -15.7627 C   0  0  0  0  0  0  0  0  0  0  0  0
   26.8760  -16.3011  -15.2572 O   0  0  0  0  0  0  0  0  0  0  0  0
   24.3782  -18.6590  -15.1837 C   0  0  0  0  0  0  0  0  0  0  0  0
   25.7059  -18.7457  -14.4512 C   0  0  2  0  0  0  0  0  0  0  0  0
   26.8168  -18.5812  -15.3305 N   0  0  0  0  0  0  0  0  0  0  0  0
   25.7689  -20.1379  -13.9019 C   0  0  0  0  0  0  0  0  0  0  0  0
   25.9661  -21.1101  -14.6752 O   0  0  0  0  0  0  0  0  0  0  0  0
   25.6058  -20.3572  -12.5098 N   0  0  0  0  0  0  0  0  0  0  0  0
   25.7121  -21.6667  -11.9617 C   0  0  1  0  0  0  0  0  0  0  0  0
   26.8077  -21.8850  -10.9767 C   0  0  0  0  0  0  0  0  0  0  0  0
   26.6259  -20.9802   -9.7917 C   0  0  0  0  0  0  0  0  0  0  0  0
   25.5039  -20.2350   -9.4752 C   0  0  0  0  0  0  0  0  0  0  0  0
   25.7293  -19.5490   -8.3350 N   0  0  0  0  0  0  0  0  0  0  0  0
   26.9664  -19.8429   -7.9254 C   0  0  0  0  0  0  0  0  0  0  0  0
   27.6371  -19.3706   -6.7968 C   0  0  0  0  0  0  0  0  0  0  0  0
   28.9103  -19.8154   -6.5823 C   0  0  0  0  0  0  0  0  0  0  0  0
   29.5087  -20.6993   -7.4514 C   0  0  0  0  0  0  0  0  0  0  0  0
   28.8454  -21.1657   -8.5659 C   0  0  0  0  0  0  0  0  0  0  0  0
   27.5603  -20.7358   -8.8104 C   0  0  0  0  0  0  0  0  0  0  0  0
   24.4385  -22.2779  -11.5135 C   0  0  0  0  0  0  0  0  0  0  0  0
   23.4023  -21.6649  -11.3315 O   0  0  0  0  0  0  0  0  0  0  0  0
   24.4737  -23.6693  -11.2929 O   0  0  0  0  0  0  0  0  0  0  0  0
  2  1  1  6
  2  3  1  0
  4  3  1  0
  5  4  2  0
  6  5  1  0
  7  6  1  0
  7 12  2  0
  8  9  2  0
  8  7  1  0
  9 10  1  0
 10 11  2  0
 12 11  1  0
 12  4  1  0
 13  2  1  0
 13 14  2  0
 16 15  1  6
 16 17  1  0
 17 13  1  0
 18 16  1  0
 19 18  2  0
 20 18  1  0
 21 22  1  1
 21 20  1  0
 22 23  1  0
 23 31  1  0
 24 25  1  0
 24 23  2  0
 25 26  1  0
 26 31  2  0
 26 27  1  0
 27 28  2  0
 28 29  1  0
 30 29  2  0
 31 30  1  0
 32 34  1  0
 32 21  1  0
 33 32  2  0
M  END
$$$$
