ANT.pdb
     RDKit          3D

 21 20  0  0  1  0  0  0  0  0999 V2000
   26.9650  -21.6456  -17.0216 C   0  0  0  0  0  0  0  0  0  0  0  0
   27.1757  -21.2327  -15.5860 C   0  0  2  0  0  0  0  0  0  0  0  0
   28.1693  -22.0601  -14.9416 N   0  0  0  0  0  0  0  0  0  0  0  0
   25.8933  -21.4072  -14.8634 C   0  0  0  0  0  0  0  0  0  0  0  0
   25.0430  -22.1950  -15.3627 O   0  0  0  0  0  0  0  0  0  0  0  0
   26.1663  -22.4883  -11.2776 N   0  0  0  0  0  0  0  0  0  0  0  0
   25.5385  -21.3483  -10.7273 C   0  0  0  0  0  0  0  0  0  0  0  0
   25.8335  -21.1116   -9.5059 O   0  0  0  0  0  0  0  0  0  0  0  0
   24.6134  -20.4778  -11.4709 C   0  0  0  0  0  0  0  0  0  0  0  0
   24.4071  -20.8741  -12.9081 C   0  0  2  0  0  0  0  0  0  0  0  0
   25.6217  -20.7171  -13.6525 N   0  0  0  0  0  0  0  0  0  0  0  0
   23.2354  -20.1900  -13.5035 C   0  0  0  0  0  0  0  0  0  0  0  0
   23.2462  -18.9581  -13.6836 O   0  0  0  0  0  0  0  0  0  0  0  0
   22.0329  -20.0713  -16.7508 C   0  0  0  0  0  0  0  0  0  0  0  0
   20.8662  -20.6909  -15.9916 C   0  0  1  0  0  0  0  0  0  0  0  0
   20.9860  -22.0720  -16.1624 O   0  0  0  0  0  0  0  0  0  0  0  0
   20.9386  -20.4073  -14.5232 C   0  0  2  0  0  0  0  0  0  0  0  0
   22.1049  -20.9203  -13.8699 N   0  0  0  0  0  0  0  0  0  0  0  0
   19.7175  -20.9379  -13.8842 C   0  0  0  0  0  0  0  0  0  0  0  0
   19.7228  -22.0205  -13.0157 O   0  0  0  0  0  0  0  0  0  0  0  0
   18.5850  -20.4084  -14.1120 O   0  0  0  0  0  0  0  0  0  0  0  0
  2  1  1  6
  2  4  1  0
  3  2  1  0
  4 11  1  0
  4  5  2  0
  6  7  1  0
  7  8  2  0
 10  9  1  1
  9  7  1  0
 10 12  1  0
 11 10  1  0
 12 18  1  0
 13 12  2  0
 15 14  1  6
 16 15  1  0
 17 19  1  0
 17 15  1  0
 17 18  1  1
 19 21  2  0
 19 20  1  0
M  END
$$$$
