ANT.pdb
     RDKit          3D

 21 20  0  0  1  0  0  0  0  0999 V2000
   18.7350  -12.2718  -16.7600 C   0  0  0  0  0  0  0  0  0  0  0  0
   19.1060  -10.9329  -17.3478 C   0  0  2  0  0  0  0  0  0  0  0  0
   19.9251  -11.0859  -18.5280 N   0  0  0  0  0  0  0  0  0  0  0  0
   19.8920  -10.1874  -16.3361 C   0  0  0  0  0  0  0  0  0  0  0  0
   19.4055  -10.0857  -15.1760 O   0  0  0  0  0  0  0  0  0  0  0  0
   22.6076  -11.5363  -14.8453 N   0  0  0  0  0  0  0  0  0  0  0  0
   23.6186  -10.6681  -15.3150 C   0  0  0  0  0  0  0  0  0  0  0  0
   24.7949  -11.1694  -15.3208 O   0  0  0  0  0  0  0  0  0  0  0  0
   23.3748   -9.2899  -15.7706 C   0  0  0  0  0  0  0  0  0  0  0  0
   21.9333   -8.8614  -15.7104 C   0  0  2  0  0  0  0  0  0  0  0  0
   21.1480   -9.6047  -16.6512 N   0  0  0  0  0  0  0  0  0  0  0  0
   21.7921   -7.3911  -15.8270 C   0  0  0  0  0  0  0  0  0  0  0  0
   21.9352   -6.8270  -16.9276 O   0  0  0  0  0  0  0  0  0  0  0  0
   19.7304   -3.2878  -14.2038 C   0  0  0  0  0  0  0  0  0  0  0  0
   19.9033   -4.8015  -14.2119 C   0  0  1  0  0  0  0  0  0  0  0  0
   18.9769   -5.2897  -15.1363 O   0  0  0  0  0  0  0  0  0  0  0  0
   21.2669   -5.2078  -14.6783 C   0  0  2  0  0  0  0  0  0  0  0  0
   21.4964   -6.6209  -14.7022 N   0  0  0  0  0  0  0  0  0  0  0  0
   22.2705   -4.5395  -13.8255 C   0  0  0  0  0  0  0  0  0  0  0  0
   22.8255   -3.3043  -14.1299 O   0  0  0  0  0  0  0  0  0  0  0  0
   22.6747   -5.0855  -12.7516 O   0  0  0  0  0  0  0  0  0  0  0  0
  2  1  1  1
  2  4  1  0
  3  2  1  0
  4 11  1  0
  4  5  2  0
  6  7  1  0
  7  8  2  0
 10  9  1  6
  9  7  1  0
 10 12  1  0
 11 10  1  0
 12 18  1  0
 13 12  2  0
 15 14  1  6
 16 15  1  0
 17 19  1  0
 17 15  1  0
 17 18  1  1
 19 21  2  0
 19 20  1  0
M  END
$$$$
