ANT.pdb
     RDKit          3D

 21 20  0  0  1  0  0  0  0  0999 V2000
   19.3200  -11.2249  -15.6099 C   0  0  0  0  0  0  0  0  0  0  0  0
   19.4894  -10.0890  -16.5880 C   0  0  2  0  0  0  0  0  0  0  0  0
   20.6800  -10.2581  -17.3887 N   0  0  0  0  0  0  0  0  0  0  0  0
   19.6301   -8.8322  -15.8146 C   0  0  0  0  0  0  0  0  0  0  0  0
   18.6718   -8.4959  -15.0655 O   0  0  0  0  0  0  0  0  0  0  0  0
   22.0144   -5.3988  -12.2474 N   0  0  0  0  0  0  0  0  0  0  0  0
   22.4119   -5.5637  -13.5932 C   0  0  0  0  0  0  0  0  0  0  0  0
   22.9913   -4.5471  -14.1089 O   0  0  0  0  0  0  0  0  0  0  0  0
   22.1943   -6.7937  -14.3717 C   0  0  0  0  0  0  0  0  0  0  0  0
   20.9530   -6.7790  -15.2227 C   0  0  2  0  0  0  0  0  0  0  0  0
   20.7973   -8.0287  -15.9067 N   0  0  0  0  0  0  0  0  0  0  0  0
   20.9078   -5.5911  -16.1073 C   0  0  0  0  0  0  0  0  0  0  0  0
   21.6124   -5.5384  -17.1323 O   0  0  0  0  0  0  0  0  0  0  0  0
   18.1850   -4.3199  -18.1433 C   0  0  0  0  0  0  0  0  0  0  0  0
   18.5172   -3.1875  -17.1796 C   0  0  1  0  0  0  0  0  0  0  0  0
   17.5933   -3.2862  -16.1367 O   0  0  0  0  0  0  0  0  0  0  0  0
   19.8852   -3.3363  -16.5895 C   0  0  2  0  0  0  0  0  0  0  0  0
   20.0731   -4.5164  -15.8006 N   0  0  0  0  0  0  0  0  0  0  0  0
   20.1822   -2.1314  -15.7888 C   0  0  0  0  0  0  0  0  0  0  0  0
   20.3238   -0.8666  -16.3424 O   0  0  0  0  0  0  0  0  0  0  0  0
   20.3229   -2.2098  -14.5283 O   0  0  0  0  0  0  0  0  0  0  0  0
  2  1  1  1
  2  4  1  0
  3  2  1  0
  4 11  1  0
  4  5  2  0
  6  7  1  0
  7  8  2  0
 10  9  1  6
  9  7  1  0
 10 12  1  0
 11 10  1  0
 12 18  1  0
 13 12  2  0
 15 14  1  6
 16 15  1  0
 17 19  1  0
 17 15  1  0
 17 18  1  1
 19 21  2  0
 19 20  1  0
M  END
$$$$
