ANT.pdb
     RDKit          3D

 21 20  0  0  1  0  0  0  0  0999 V2000
   18.1613  -14.5159  -15.1162 C   0  0  0  0  0  0  0  0  0  0  0  0
   17.0971  -13.8216  -15.9294 C   0  0  2  0  0  0  0  0  0  0  0  0
   16.6314  -14.6596  -17.0102 N   0  0  0  0  0  0  0  0  0  0  0  0
   17.6924  -12.5990  -16.5192 C   0  0  0  0  0  0  0  0  0  0  0  0
   18.6333  -12.7473  -17.3472 O   0  0  0  0  0  0  0  0  0  0  0  0
   17.7362   -7.6794  -19.1118 N   0  0  0  0  0  0  0  0  0  0  0  0
   17.3535   -7.9180  -17.7727 C   0  0  0  0  0  0  0  0  0  0  0  0
   17.5049   -6.9209  -16.9866 O   0  0  0  0  0  0  0  0  0  0  0  0
   16.8179   -9.1992  -17.2847 C   0  0  0  0  0  0  0  0  0  0  0  0
   17.8400  -10.0927  -16.6349 C   0  0  2  0  0  0  0  0  0  0  0  0
   17.2279  -11.3029  -16.1715 N   0  0  0  0  0  0  0  0  0  0  0  0
   18.6223   -9.3724  -15.6032 C   0  0  0  0  0  0  0  0  0  0  0  0
   18.2223   -9.3237  -14.4252 O   0  0  0  0  0  0  0  0  0  0  0  0
   22.2895   -9.9561  -14.5369 C   0  0  0  0  0  0  0  0  0  0  0  0
   22.1311   -8.5499  -15.1017 C   0  0  1  0  0  0  0  0  0  0  0  0
   22.4906   -8.6336  -16.4488 O   0  0  0  0  0  0  0  0  0  0  0  0
   20.7118   -8.0770  -15.0394 C   0  0  2  0  0  0  0  0  0  0  0  0
   19.8186   -8.7395  -15.9411 N   0  0  0  0  0  0  0  0  0  0  0  0
   20.6942   -6.6197  -15.2781 C   0  0  0  0  0  0  0  0  0  0  0  0
   21.3390   -5.7066  -14.4555 O   0  0  0  0  0  0  0  0  0  0  0  0
   20.0708   -6.1339  -16.2732 O   0  0  0  0  0  0  0  0  0  0  0  0
  2  1  1  6
  2  4  1  0
  3  2  1  0
  4 11  1  0
  4  5  2  0
  6  7  1  0
  7  8  2  0
 10  9  1  1
  9  7  1  0
 10 12  1  0
 11 10  1  0
 12 18  1  0
 13 12  2  0
 15 14  1  6
 16 15  1  0
 17 19  1  0
 17 15  1  0
 17 18  1  6
 19 21  2  0
 19 20  1  0
M  END
$$$$
