ANT.pdb
     RDKit          3D

 21 20  0  0  1  0  0  0  0  0999 V2000
   18.2419   -8.1290  -20.7531 C   0  0  0  0  0  0  0  0  0  0  0  0
   19.2844   -9.1033  -20.2638 C   0  0  2  0  0  0  0  0  0  0  0  0
   18.7855  -10.4591  -20.2800 N   0  0  0  0  0  0  0  0  0  0  0  0
   19.6203   -8.7538  -18.8630 C   0  0  0  0  0  0  0  0  0  0  0  0
   18.6927   -8.3071  -18.1330 O   0  0  0  0  0  0  0  0  0  0  0  0
   22.1511   -8.5563  -14.2255 N   0  0  0  0  0  0  0  0  0  0  0  0
   22.5846   -9.6098  -15.0614 C   0  0  0  0  0  0  0  0  0  0  0  0
   23.3215  -10.4818  -14.4857 O   0  0  0  0  0  0  0  0  0  0  0  0
   22.2349   -9.7279  -16.4864 C   0  0  0  0  0  0  0  0  0  0  0  0
   21.2862   -8.6704  -16.9831 C   0  0  2  0  0  0  0  0  0  0  0  0
   20.9355   -8.9120  -18.3515 N   0  0  0  0  0  0  0  0  0  0  0  0
   21.7977   -7.3053  -16.7177 C   0  0  0  0  0  0  0  0  0  0  0  0
   22.6730   -6.8046  -17.4479 O   0  0  0  0  0  0  0  0  0  0  0  0
   19.2847   -4.6139  -14.6515 C   0  0  0  0  0  0  0  0  0  0  0  0
   20.4880   -4.2395  -15.5078 C   0  0  1  0  0  0  0  0  0  0  0  0
   20.9174   -2.9938  -15.0443 O   0  0  0  0  0  0  0  0  0  0  0  0
   21.6210   -5.2031  -15.3352 C   0  0  2  0  0  0  0  0  0  0  0  0
   21.3030   -6.5645  -15.6443 N   0  0  0  0  0  0  0  0  0  0  0  0
   22.1192   -5.0947  -13.9491 C   0  0  0  0  0  0  0  0  0  0  0  0
   22.8529   -4.0108  -13.4875 O   0  0  0  0  0  0  0  0  0  0  0  0
   21.8884   -6.0152  -13.1041 O   0  0  0  0  0  0  0  0  0  0  0  0
  2  1  1  1
  2  4  1  0
  3  2  1  0
  4 11  1  0
  4  5  2  0
  6  7  1  0
  7  8  2  0
 10  9  1  6
  9  7  1  0
 10 12  1  0
 11 10  1  0
 12 18  1  0
 13 12  2  0
 15 14  1  1
 16 15  1  0
 17 19  1  0
 17 15  1  0
 17 18  1  1
 19 21  2  0
 19 20  1  0
M  END
$$$$
