ANT.pdb
     RDKit          3D

 21 20  0  0  1  0  0  0  0  0999 V2000
   24.4075  -11.3054  -15.6588 C   0  0  0  0  0  0  0  0  0  0  0  0
   23.0355  -11.8353  -15.9940 C   0  0  2  0  0  0  0  0  0  0  0  0
   23.0233  -12.4830  -17.2854 N   0  0  0  0  0  0  0  0  0  0  0  0
   22.0985  -10.6878  -16.0464 C   0  0  0  0  0  0  0  0  0  0  0  0
   22.2302   -9.8680  -16.9970 O   0  0  0  0  0  0  0  0  0  0  0  0
   17.5149  -11.8990  -15.0765 N   0  0  0  0  0  0  0  0  0  0  0  0
   18.1155  -10.6827  -15.4719 C   0  0  0  0  0  0  0  0  0  0  0  0
   17.9869  -10.4002  -16.7124 O   0  0  0  0  0  0  0  0  0  0  0  0
   18.8390   -9.7853  -14.5566 C   0  0  0  0  0  0  0  0  0  0  0  0
   20.2058   -9.3780  -15.0373 C   0  0  2  0  0  0  0  0  0  0  0  0
   21.0862  -10.5085  -15.0670 N   0  0  0  0  0  0  0  0  0  0  0  0
   20.7308   -8.2174  -14.2804 C   0  0  0  0  0  0  0  0  0  0  0  0
   20.9990   -8.3210  -13.0691 O   0  0  0  0  0  0  0  0  0  0  0  0
   22.7162   -5.0427  -16.3589 C   0  0  0  0  0  0  0  0  0  0  0  0
   22.7940   -5.3759  -14.8743 C   0  0  1  0  0  0  0  0  0  0  0  0
   23.1532   -4.1889  -14.2317 O   0  0  0  0  0  0  0  0  0  0  0  0
   21.4688   -5.8059  -14.3257 C   0  0  2  0  0  0  0  0  0  0  0  0
   20.9309   -6.9931  -14.9183 N   0  0  0  0  0  0  0  0  0  0  0  0
   20.5181   -4.6849  -14.4690 C   0  0  0  0  0  0  0  0  0  0  0  0
   19.4097   -4.7299  -15.3030 O   0  0  0  0  0  0  0  0  0  0  0  0
   20.6839   -3.6075  -13.8159 O   0  0  0  0  0  0  0  0  0  0  0  0
  2  1  1  6
  2  4  1  0
  3  2  1  0
  4 11  1  0
  4  5  2  0
  6  7  1  0
  7  8  2  0
 10  9  1  1
  9  7  1  0
 10 12  1  0
 11 10  1  0
 12 18  1  0
 13 12  2  0
 15 14  1  6
 16 15  1  0
 17 19  1  0
 17 15  1  0
 17 18  1  6
 19 21  2  0
 19 20  1  0
M  END
$$$$
