ANT.pdb
     RDKit          3D

 21 20  0  0  1  0  0  0  0  0999 V2000
   20.5776  -12.7326  -19.3336 C   0  0  0  0  0  0  0  0  0  0  0  0
   21.5211  -12.1697  -18.2998 C   0  0  2  0  0  0  0  0  0  0  0  0
   21.6780  -13.0737  -17.1838 N   0  0  0  0  0  0  0  0  0  0  0  0
   20.9425  -10.9043  -17.7886 C   0  0  0  0  0  0  0  0  0  0  0  0
   20.7119   -9.9869  -18.6241 O   0  0  0  0  0  0  0  0  0  0  0  0
   17.3138  -11.7588  -15.3287 N   0  0  0  0  0  0  0  0  0  0  0  0
   17.7660  -10.4383  -15.5486 C   0  0  0  0  0  0  0  0  0  0  0  0
   17.0482   -9.7538  -16.3556 O   0  0  0  0  0  0  0  0  0  0  0  0
   18.9633   -9.8614  -14.9159 C   0  0  0  0  0  0  0  0  0  0  0  0
   20.0726   -9.5254  -15.8759 C   0  0  2  0  0  0  0  0  0  0  0  0
   20.6548  -10.7211  -16.4102 N   0  0  0  0  0  0  0  0  0  0  0  0
   21.0507   -8.5867  -15.2780 C   0  0  0  0  0  0  0  0  0  0  0  0
   22.0080   -9.0135  -14.6062 O   0  0  0  0  0  0  0  0  0  0  0  0
   22.6307   -3.8368  -15.1241 C   0  0  0  0  0  0  0  0  0  0  0  0
   21.5760   -4.8383  -15.5780 C   0  0  1  0  0  0  0  0  0  0  0  0
   21.7208   -4.9487  -16.9629 O   0  0  0  0  0  0  0  0  0  0  0  0
   21.8014   -6.1961  -14.9885 C   0  0  2  0  0  0  0  0  0  0  0  0
   20.9094   -7.2112  -15.4618 N   0  0  0  0  0  0  0  0  0  0  0  0
   21.7197   -6.0864  -13.5180 C   0  0  0  0  0  0  0  0  0  0  0  0
   22.8337   -5.9379  -12.7036 O   0  0  0  0  0  0  0  0  0  0  0  0
   20.5953   -6.1248  -12.9272 O   0  0  0  0  0  0  0  0  0  0  0  0
  2  1  1  6
  2  4  1  0
  3  2  1  0
  4 11  1  0
  4  5  2  0
  6  7  1  0
  7  8  2  0
 10  9  1  1
  9  7  1  0
 10 12  1  0
 11 10  1  0
 12 18  1  0
 13 12  2  0
 15 14  1  1
 16 15  1  0
 17 19  1  0
 17 15  1  0
 17 18  1  6
 19 21  2  0
 19 20  1  0
M  END
$$$$
