ANT.pdb
     RDKit          3D

 21 20  0  0  1  0  0  0  0  0999 V2000
   28.9569  -20.2614  -13.3022 C   0  0  0  0  0  0  0  0  0  0  0  0
   27.4794  -20.5214  -13.4607 C   0  0  2  0  0  0  0  0  0  0  0  0
   26.9297  -19.7727  -14.5673 N   0  0  0  0  0  0  0  0  0  0  0  0
   26.7979  -20.0773  -12.2215 C   0  0  0  0  0  0  0  0  0  0  0  0
   26.8582  -18.8513  -11.9279 O   0  0  0  0  0  0  0  0  0  0  0  0
   23.6633  -19.5336  -12.0373 N   0  0  0  0  0  0  0  0  0  0  0  0
   23.2326  -20.4952  -11.0959 C   0  0  0  0  0  0  0  0  0  0  0  0
   22.0110  -20.8533  -11.2168 O   0  0  0  0  0  0  0  0  0  0  0  0
   24.0934  -21.0633  -10.0458 C   0  0  0  0  0  0  0  0  0  0  0  0
   25.5332  -20.6315  -10.1216 C   0  0  2  0  0  0  0  0  0  0  0  0
   26.1000  -20.9908  -11.3879 N   0  0  0  0  0  0  0  0  0  0  0  0
   26.3101  -21.1028   -8.9512 C   0  0  0  0  0  0  0  0  0  0  0  0
   26.4839  -22.3200   -8.7557 O   0  0  0  0  0  0  0  0  0  0  0  0
   29.7967  -20.8808   -8.0979 C   0  0  0  0  0  0  0  0  0  0  0  0
   29.0815  -20.1202   -6.9882 C   0  0  1  0  0  0  0  0  0  0  0  0
   29.1457  -18.7709   -7.3433 O   0  0  0  0  0  0  0  0  0  0  0  0
   27.6352  -20.4960   -6.8926 C   0  0  2  0  0  0  0  0  0  0  0  0
   26.8568  -20.1857   -8.0536 N   0  0  0  0  0  0  0  0  0  0  0  0
   27.0606  -19.8418   -5.6998 C   0  0  0  0  0  0  0  0  0  0  0  0
   27.5038  -20.0908   -4.4083 O   0  0  0  0  0  0  0  0  0  0  0  0
   26.1126  -19.0033   -5.8145 O   0  0  0  0  0  0  0  0  0  0  0  0
  2  1  1  1
  2  4  1  0
  3  2  1  0
  4 11  1  0
  4  5  2  0
  6  7  1  0
  7  8  2  0
 10  9  1  1
  9  7  1  0
 10 12  1  0
 11 10  1  0
 12 18  1  0
 13 12  2  0
 15 14  1  6
 16 15  1  0
 17 19  1  0
 17 15  1  0
 17 18  1  6
 19 21  2  0
 19 20  1  0
M  END
$$$$
