ANT.pdb
     RDKit          3D

 21 20  0  0  1  0  0  0  0  0999 V2000
   17.2739   -9.7066  -16.0597 C   0  0  0  0  0  0  0  0  0  0  0  0
   18.0323   -9.8979  -14.7698 C   0  0  2  0  0  0  0  0  0  0  0  0
   17.3876  -10.8730  -13.9207 N   0  0  0  0  0  0  0  0  0  0  0  0
   18.0510   -8.6023  -14.0499 C   0  0  0  0  0  0  0  0  0  0  0  0
   17.3202   -7.6748  -14.4954 O   0  0  0  0  0  0  0  0  0  0  0  0
   19.3316   -4.9266  -10.3869 N   0  0  0  0  0  0  0  0  0  0  0  0
   18.7331   -6.1222   -9.9299 C   0  0  0  0  0  0  0  0  0  0  0  0
   18.3079   -6.0817   -8.7247 O   0  0  0  0  0  0  0  0  0  0  0  0
   18.5916   -7.3377  -10.7480 C   0  0  0  0  0  0  0  0  0  0  0  0
   18.9431   -7.1539  -12.1998 C   0  0  2  0  0  0  0  0  0  0  0  0
   18.8590   -8.4019  -12.8995 N   0  0  0  0  0  0  0  0  0  0  0  0
   20.2353   -6.4483  -12.3668 C   0  0  0  0  0  0  0  0  0  0  0  0
   21.3046   -7.0039  -12.0540 O   0  0  0  0  0  0  0  0  0  0  0  0
   20.9855   -5.0828  -15.7929 C   0  0  0  0  0  0  0  0  0  0  0  0
   21.9879   -5.0809  -14.6455 C   0  0  1  0  0  0  0  0  0  0  0  0
   23.0479   -4.2723  -15.0620 O   0  0  0  0  0  0  0  0  0  0  0  0
   21.4158   -4.4742  -13.4019 C   0  0  2  0  0  0  0  0  0  0  0  0
   20.2679   -5.1507  -12.8776 N   0  0  0  0  0  0  0  0  0  0  0  0
   21.0959   -3.0589  -13.6771 C   0  0  0  0  0  0  0  0  0  0  0  0
   22.0628   -2.0964  -13.9315 O   0  0  0  0  0  0  0  0  0  0  0  0
   19.8899   -2.6586  -13.6918 O   0  0  0  0  0  0  0  0  0  0  0  0
  2  1  1  6
  2  4  1  0
  3  2  1  0
  4 11  1  0
  4  5  2  0
  6  7  1  0
  7  8  2  0
 10  9  1  1
  9  7  1  0
 10 12  1  0
 11 10  1  0
 12 18  1  0
 13 12  2  0
 15 14  1  6
 16 15  1  0
 17 19  1  0
 17 15  1  0
 17 18  1  6
 19 21  2  0
 19 20  1  0
M  END
$$$$
