ANT.pdb
     RDKit          3D

 21 20  0  0  1  0  0  0  0  0999 V2000
   18.3835  -12.2815  -19.2510 C   0  0  0  0  0  0  0  0  0  0  0  0
   19.5373  -12.2378  -18.2803 C   0  0  2  0  0  0  0  0  0  0  0  0
   19.6006  -13.4419  -17.4844 N   0  0  0  0  0  0  0  0  0  0  0  0
   19.3255  -11.0919  -17.3641 C   0  0  0  0  0  0  0  0  0  0  0  0
   18.2124  -11.0123  -16.7746 O   0  0  0  0  0  0  0  0  0  0  0  0
   20.2525   -6.7696  -14.4198 N   0  0  0  0  0  0  0  0  0  0  0  0
   20.8591   -8.0049  -14.0993 C   0  0  0  0  0  0  0  0  0  0  0  0
   21.3348   -8.0765  -12.9146 O   0  0  0  0  0  0  0  0  0  0  0  0
   20.9536   -9.1421  -15.0290 C   0  0  0  0  0  0  0  0  0  0  0  0
   20.1610   -8.9751  -16.2975 C   0  0  2  0  0  0  0  0  0  0  0  0
   20.3324  -10.1135  -17.1511 N   0  0  0  0  0  0  0  0  0  0  0  0
   20.4401   -7.6757  -16.9524 C   0  0  0  0  0  0  0  0  0  0  0  0
   21.5546   -7.4489  -17.4588 O   0  0  0  0  0  0  0  0  0  0  0  0
   18.2826   -6.0769  -19.7525 C   0  0  0  0  0  0  0  0  0  0  0  0
   18.3876   -5.1123  -18.5778 C   0  0  1  0  0  0  0  0  0  0  0  0
   17.2216   -5.2890  -17.8293 O   0  0  0  0  0  0  0  0  0  0  0  0
   19.5498   -5.4340  -17.6900 C   0  0  2  0  0  0  0  0  0  0  0  0
   19.4549   -6.6899  -17.0090 N   0  0  0  0  0  0  0  0  0  0  0  0
   19.7133   -4.3343  -16.7179 C   0  0  0  0  0  0  0  0  0  0  0  0
   20.1186   -3.0563  -17.0766 O   0  0  0  0  0  0  0  0  0  0  0  0
   19.4827   -4.5224  -15.4825 O   0  0  0  0  0  0  0  0  0  0  0  0
  2  1  1  6
  2  4  1  0
  3  2  1  0
  4 11  1  0
  4  5  2  0
  6  7  1  0
  7  8  2  0
 10  9  1  1
  9  7  1  0
 10 12  1  0
 11 10  1  0
 12 18  1  0
 13 12  2  0
 15 14  1  6
 16 15  1  0
 17 19  1  0
 17 15  1  0
 17 18  1  1
 19 21  2  0
 19 20  1  0
M  END
$$$$
