ANT.pdb
     RDKit          3D

 21 20  0  0  1  0  0  0  0  0999 V2000
   18.9411  -12.9969  -18.4745 C   0  0  0  0  0  0  0  0  0  0  0  0
   20.0450  -13.6297  -17.6642 C   0  0  2  0  0  0  0  0  0  0  0  0
   19.6212  -14.8853  -17.0888 N   0  0  0  0  0  0  0  0  0  0  0  0
   20.3885  -12.7084  -16.5549 C   0  0  0  0  0  0  0  0  0  0  0  0
   19.5426  -12.5665  -15.6291 O   0  0  0  0  0  0  0  0  0  0  0  0
   24.2529  -11.5783  -17.1836 N   0  0  0  0  0  0  0  0  0  0  0  0
   24.3581  -11.5543  -15.7747 C   0  0  0  0  0  0  0  0  0  0  0  0
   25.5324  -11.7792  -15.3214 O   0  0  0  0  0  0  0  0  0  0  0  0
   23.2279  -11.2937  -14.8685 C   0  0  0  0  0  0  0  0  0  0  0  0
   21.9300  -10.9872  -15.5662 C   0  0  2  0  0  0  0  0  0  0  0  0
   21.6223  -12.0059  -16.5261 N   0  0  0  0  0  0  0  0  0  0  0  0
   21.9124   -9.6102  -16.1130 C   0  0  0  0  0  0  0  0  0  0  0  0
   22.2648   -9.3910  -17.2868 O   0  0  0  0  0  0  0  0  0  0  0  0
   18.6562   -7.8457  -16.0124 C   0  0  0  0  0  0  0  0  0  0  0  0
   19.8927   -7.2712  -16.6924 C   0  0  1  0  0  0  0  0  0  0  0  0
   19.5794   -5.9465  -17.0051 O   0  0  0  0  0  0  0  0  0  0  0  0
   21.0784   -7.2534  -15.7781 C   0  0  2  0  0  0  0  0  0  0  0  0
   21.4996   -8.5418  -15.3168 N   0  0  0  0  0  0  0  0  0  0  0  0
   20.7716   -6.3734  -14.6324 C   0  0  0  0  0  0  0  0  0  0  0  0
   20.6940   -4.9915  -14.7345 O   0  0  0  0  0  0  0  0  0  0  0  0
   20.5613   -6.8622  -13.4784 O   0  0  0  0  0  0  0  0  0  0  0  0
  2  1  1  1
  2  4  1  0
  3  2  1  0
  4 11  1  0
  4  5  2  0
  6  7  1  0
  7  8  2  0
 10  9  1  6
  9  7  1  0
 10 12  1  0
 11 10  1  0
 12 18  1  0
 13 12  2  0
 15 14  1  1
 16 15  1  0
 17 19  1  0
 17 15  1  0
 17 18  1  1
 19 21  2  0
 19 20  1  0
M  END
$$$$
