ANT.pdb
     RDKit          3D

 21 20  0  0  1  0  0  0  0  0999 V2000
   22.5174  -14.8080  -16.2722 C   0  0  0  0  0  0  0  0  0  0  0  0
   22.3073  -13.6175  -17.1747 C   0  0  2  0  0  0  0  0  0  0  0  0
   23.1093  -13.7178  -18.3722 N   0  0  0  0  0  0  0  0  0  0  0  0
   22.7293  -12.4017  -16.4392 C   0  0  0  0  0  0  0  0  0  0  0  0
   22.2854  -12.2426  -15.2685 O   0  0  0  0  0  0  0  0  0  0  0  0
   26.8265  -10.9169  -14.6393 N   0  0  0  0  0  0  0  0  0  0  0  0
   26.3310  -10.9808  -15.9610 C   0  0  0  0  0  0  0  0  0  0  0  0
   26.7034  -12.0092  -16.6235 O   0  0  0  0  0  0  0  0  0  0  0  0
   25.4528   -9.9638  -16.5617 C   0  0  0  0  0  0  0  0  0  0  0  0
   23.9822  -10.2240  -16.3747 C   0  0  2  0  0  0  0  0  0  0  0  0
   23.6011  -11.4444  -17.0223 N   0  0  0  0  0  0  0  0  0  0  0  0
   23.1637   -9.0500  -16.7584 C   0  0  0  0  0  0  0  0  0  0  0  0
   23.3745   -8.4553  -17.8317 O   0  0  0  0  0  0  0  0  0  0  0  0
   19.6098   -8.9878  -17.5096 C   0  0  0  0  0  0  0  0  0  0  0  0
   19.7860   -8.0167  -16.3487 C   0  0  1  0  0  0  0  0  0  0  0  0
   19.4593   -8.7329  -15.1950 O   0  0  0  0  0  0  0  0  0  0  0  0
   21.2048   -7.5581  -16.2116 C   0  0  2  0  0  0  0  0  0  0  0  0
   22.1455   -8.5972  -15.9193 N   0  0  0  0  0  0  0  0  0  0  0  0
   21.2585   -6.5102  -15.1723 C   0  0  0  0  0  0  0  0  0  0  0  0
   20.6265   -5.2810  -15.2985 O   0  0  0  0  0  0  0  0  0  0  0  0
   21.9032   -6.7002  -14.0938 O   0  0  0  0  0  0  0  0  0  0  0  0
  2  1  1  1
  2  4  1  0
  3  2  1  0
  4 11  1  0
  4  5  2  0
  6  7  1  0
  7  8  2  0
 10  9  1  6
  9  7  1  0
 10 12  1  0
 11 10  1  0
 12 18  1  0
 13 12  2  0
 15 14  1  6
 16 15  1  0
 17 19  1  0
 17 15  1  0
 17 18  1  1
 19 21  2  0
 19 20  1  0
M  END
$$$$
