RSG.pdb
     RDKit          3D

 22 21  0  0  1  0  0  0  0  0999 V2000
   19.6209  -22.3754  -12.0542 N   0  0  0  0  0  0  0  0  0  0  0  0
   19.3723  -21.8629  -10.7353 C   0  0  0  0  0  0  0  0  0  0  0  0
   18.4245  -22.3775  -10.0434 N   0  0  0  0  0  0  0  0  0  0  0  0
   20.1327  -20.8165  -10.1771 N   0  0  0  0  0  0  0  0  0  0  0  0
   21.1551  -20.1208  -10.9254 C   0  0  0  0  0  0  0  0  0  0  0  0
   22.3897  -20.9487  -10.9616 C   0  0  0  0  0  0  0  0  0  0  0  0
   23.5323  -20.3008  -11.6975 C   0  0  0  0  0  0  0  0  0  0  0  0
   24.7709  -21.1718  -11.7104 C   0  0  2  0  0  0  0  0  0  0  0  0
   25.3367  -21.1320  -10.3937 N   0  0  0  0  0  0  0  0  0  0  0  0
   25.7239  -20.5413  -12.6472 C   0  0  0  0  0  0  0  0  0  0  0  0
   26.4861  -19.5936  -12.3278 O   0  0  0  0  0  0  0  0  0  0  0  0
   18.1751  -22.0280   -9.0968 O   0  0  0  0  0  0  0  0  0  0  0  0
   28.3242  -22.1117  -14.4681 C   0  0  0  0  0  0  0  0  0  0  0  0
   27.4822  -21.6945  -15.5084 C   0  0  2  0  0  0  0  0  0  0  0  0
   26.6838  -20.4960  -14.9756 N   0  0  0  0  0  0  0  0  0  0  0  0
   25.7941  -21.0164  -13.9732 C   0  0  0  0  0  0  0  0  0  0  0  0
   25.8792  -19.9975  -16.1065 O   0  0  0  0  0  0  0  0  0  0  0  0
   24.8979  -20.6662  -16.5135 N   0  0  0  0  0  0  0  0  0  0  0  0
   26.1581  -18.7741  -16.7778 C   0  0  0  0  0  0  0  0  0  0  0  0
   25.3151  -18.3752  -17.8730 C   0  0  0  0  0  0  0  0  0  0  0  0
   26.1168  -18.1598  -19.1064 O   0  0  0  0  0  0  0  0  0  0  0  0
   26.7596  -19.1225  -19.5872 O   0  0  0  0  0  0  0  0  0  0  0  0
  1  2  1  0
  2  3  2  0
  4  5  1  0
  4  2  1  0
  5  6  1  0
  6  7  1  0
  7  8  1  0
  8  9  1  1
  8 10  1  0
 10 15  1  0
 10 11  2  0
 12 13  1  0
 14 13  1  1
 14 16  1  0
 15 14  1  0
 16 18  1  0
 17 16  2  0
 18 19  1  0
 20 22  1  0
 20 19  1  0
 21 20  2  0
M  END
$$$$
