RSG.pdb
     RDKit          3D

 22 21  0  0  1  0  0  0  0  0999 V2000
   27.8179  -18.2965   -7.1724 N   0  0  0  0  0  0  0  0  0  0  0  0
   27.5833  -19.5463   -6.5037 C   0  0  0  0  0  0  0  0  0  0  0  0
   28.1143  -19.7384   -5.3535 N   0  0  0  0  0  0  0  0  0  0  0  0
   26.7912  -20.5660   -7.0673 N   0  0  0  0  0  0  0  0  0  0  0  0
   26.0089  -20.3628   -8.2656 C   0  0  0  0  0  0  0  0  0  0  0  0
   26.9178  -20.0630   -9.4035 C   0  0  0  0  0  0  0  0  0  0  0  0
   26.2016  -19.8436  -10.7095 C   0  0  0  0  0  0  0  0  0  0  0  0
   25.1231  -20.8787  -10.9509 C   0  0  2  0  0  0  0  0  0  0  0  0
   25.7714  -22.0779  -11.3948 N   0  0  0  0  0  0  0  0  0  0  0  0
   24.2823  -20.3672  -12.0530 C   0  0  0  0  0  0  0  0  0  0  0  0
   23.9527  -19.1595  -12.1707 O   0  0  0  0  0  0  0  0  0  0  0  0
   27.9709  -20.6159   -4.8153 O   0  0  0  0  0  0  0  0  0  0  0  0
   24.1244  -22.0849  -15.5967 C   0  0  0  0  0  0  0  0  0  0  0  0
   22.8376  -22.0911  -15.0403 C   0  0  2  0  0  0  0  0  0  0  0  0
   22.8008  -20.9607  -14.0019 N   0  0  0  0  0  0  0  0  0  0  0  0
   23.8170  -21.2688  -13.0326 C   0  0  0  0  0  0  0  0  0  0  0  0
   21.4830  -21.0431  -13.3451 O   0  0  0  0  0  0  0  0  0  0  0  0
   21.3934  -21.5271  -12.1902 N   0  0  0  0  0  0  0  0  0  0  0  0
   20.2802  -20.5951  -13.9595 C   0  0  0  0  0  0  0  0  0  0  0  0
   19.0646  -20.5978  -13.1901 C   0  0  0  0  0  0  0  0  0  0  0  0
   17.9490  -19.9891  -13.9615 O   0  0  0  0  0  0  0  0  0  0  0  0
   18.1829  -19.5268  -15.1029 O   0  0  0  0  0  0  0  0  0  0  0  0
  1  2  1  0
  2  3  2  0
  4  5  1  0
  4  2  1  0
  5  6  1  0
  6  7  1  0
  7  8  1  0
  8  9  1  6
  8 10  1  0
 10 15  1  0
 10 11  2  0
 12 13  1  0
 14 13  1  6
 14 16  1  0
 15 14  1  0
 16 18  1  0
 17 16  2  0
 18 19  1  0
 20 22  1  0
 20 19  1  0
 21 20  2  0
M  END
$$$$
