RSG.pdb
     RDKit          3D

 22 21  0  0  1  0  0  0  0  0999 V2000
   18.7572  -25.0357   -5.6920 N   0  0  0  0  0  0  0  0  0  0  0  0
   17.6894  -25.9945   -5.6236 C   0  0  0  0  0  0  0  0  0  0  0  0
   16.8829  -25.9480   -4.6290 N   0  0  0  0  0  0  0  0  0  0  0  0
   17.4985  -26.9822   -6.6099 N   0  0  0  0  0  0  0  0  0  0  0  0
   18.3291  -27.0658   -7.7899 C   0  0  0  0  0  0  0  0  0  0  0  0
   17.9535  -25.9816   -8.7356 C   0  0  0  0  0  0  0  0  0  0  0  0
   18.7894  -25.9530   -9.9875 C   0  0  0  0  0  0  0  0  0  0  0  0
   18.3610  -24.8529  -10.9358 C   0  0  2  0  0  0  0  0  0  0  0  0
   16.9370  -24.9392  -11.0772 N   0  0  0  0  0  0  0  0  0  0  0  0
   18.9791  -25.1547  -12.2435 C   0  0  0  0  0  0  0  0  0  0  0  0
   18.7940  -26.2314  -12.8660 O   0  0  0  0  0  0  0  0  0  0  0  0
   16.0963  -26.6185   -4.5202 O   0  0  0  0  0  0  0  0  0  0  0  0
   20.5531  -21.9954  -14.0630 C   0  0  0  0  0  0  0  0  0  0  0  0
   20.1744  -23.0556  -14.8986 C   0  0  1  0  0  0  0  0  0  0  0  0
   20.4526  -24.3503  -14.1215 N   0  0  0  0  0  0  0  0  0  0  0  0
   19.8238  -24.1945  -12.8379 C   0  0  0  0  0  0  0  0  0  0  0  0
   21.9130  -24.4116  -13.9262 O   0  0  0  0  0  0  0  0  0  0  0  0
   22.4268  -23.8833  -12.9098 N   0  0  0  0  0  0  0  0  0  0  0  0
   22.7929  -25.0497  -14.8447 C   0  0  0  0  0  0  0  0  0  0  0  0
   24.2063  -25.0344  -14.5773 C   0  0  0  0  0  0  0  0  0  0  0  0
   24.9568  -25.7248  -15.6591 O   0  0  0  0  0  0  0  0  0  0  0  0
   24.3197  -26.2174  -16.6196 O   0  0  0  0  0  0  0  0  0  0  0  0
  1  2  1  0
  2  3  2  0
  4  5  1  0
  4  2  1  0
  5  6  1  0
  6  7  1  0
  7  8  1  0
  8  9  1  6
  8 10  1  0
 10 15  1  0
 10 11  2  0
 12 13  1  0
 14 13  1  6
 14 16  1  0
 15 14  1  0
 16 18  1  0
 17 16  2  0
 18 19  1  0
 20 22  1  0
 20 19  1  0
 21 20  2  0
M  END
$$$$
