RSG.pdb
     RDKit          3D

 22 21  0  0  1  0  0  0  0  0999 V2000
   31.4392  -22.5360  -11.1753 N   0  0  0  0  0  0  0  0  0  0  0  0
   30.6836  -21.9178  -10.1213 C   0  0  0  0  0  0  0  0  0  0  0  0
   31.2989  -21.5387   -9.0632 N   0  0  0  0  0  0  0  0  0  0  0  0
   29.2924  -21.7142  -10.2102 N   0  0  0  0  0  0  0  0  0  0  0  0
   28.5957  -21.6844  -11.4763 C   0  0  0  0  0  0  0  0  0  0  0  0
   28.8004  -20.3604  -12.1212 C   0  0  0  0  0  0  0  0  0  0  0  0
   28.0441  -20.1918  -13.4121 C   0  0  0  0  0  0  0  0  0  0  0  0
   27.5458  -21.5129  -13.9592 C   0  0  2  0  0  0  0  0  0  0  0  0
   28.5213  -21.9833  -14.8985 N   0  0  0  0  0  0  0  0  0  0  0  0
   26.2946  -21.2249  -14.6905 C   0  0  0  0  0  0  0  0  0  0  0  0
   26.2641  -20.8272  -15.8830 O   0  0  0  0  0  0  0  0  0  0  0  0
   30.8047  -21.1024   -8.2597 O   0  0  0  0  0  0  0  0  0  0  0  0
   23.0898  -22.5203  -12.7743 C   0  0  0  0  0  0  0  0  0  0  0  0
   22.9466  -22.4852  -14.1685 C   0  0  1  0  0  0  0  0  0  0  0  0
   23.7766  -21.2935  -14.6670 N   0  0  0  0  0  0  0  0  0  0  0  0
   25.0611  -21.4007  -14.0298 C   0  0  0  0  0  0  0  0  0  0  0  0
   23.1029  -20.0805  -14.1676 O   0  0  0  0  0  0  0  0  0  0  0  0
   23.3745  -19.6459  -13.0216 N   0  0  0  0  0  0  0  0  0  0  0  0
   22.1407  -19.3583  -14.9277 C   0  0  0  0  0  0  0  0  0  0  0  0
   21.5521  -18.1754  -14.3588 C   0  0  0  0  0  0  0  0  0  0  0  0
   20.2056  -18.4701  -13.8017 O   0  0  0  0  0  0  0  0  0  0  0  0
   19.7749  -19.6463  -13.8475 O   0  0  0  0  0  0  0  0  0  0  0  0
  1  2  1  0
  2  3  2  0
  4  5  1  0
  4  2  1  0
  5  6  1  0
  6  7  1  0
  7  8  1  0
  8  9  1  6
  8 10  1  0
 10 15  1  0
 10 11  2  0
 12 13  1  0
 14 13  1  6
 14 16  1  0
 15 14  1  0
 16 18  1  0
 17 16  2  0
 18 19  1  0
 20 22  1  0
 20 19  1  0
 21 20  2  0
M  END
$$$$
