RSG.pdb
     RDKit          3D

 22 21  0  0  1  0  0  0  0  0999 V2000
   31.6825  -20.4795  -10.0894 N   0  0  0  0  0  0  0  0  0  0  0  0
   31.5093  -21.9003  -10.2139 C   0  0  0  0  0  0  0  0  0  0  0  0
   32.2560  -22.6749   -9.5181 N   0  0  0  0  0  0  0  0  0  0  0  0
   30.5489  -22.4704  -11.0726 N   0  0  0  0  0  0  0  0  0  0  0  0
   29.7556  -21.6739  -11.9811 C   0  0  0  0  0  0  0  0  0  0  0  0
   28.7850  -20.8586  -11.2038 C   0  0  0  0  0  0  0  0  0  0  0  0
   27.4228  -20.7697  -11.8389 C   0  0  0  0  0  0  0  0  0  0  0  0
   27.5030  -20.5811  -13.3393 C   0  0  2  0  0  0  0  0  0  0  0  0
   28.3300  -19.4359  -13.5839 N   0  0  0  0  0  0  0  0  0  0  0  0
   26.1337  -20.2755  -13.8028 C   0  0  0  0  0  0  0  0  0  0  0  0
   25.7262  -19.1101  -14.0414 O   0  0  0  0  0  0  0  0  0  0  0  0
   32.2062  -23.7102   -9.5947 O   0  0  0  0  0  0  0  0  0  0  0  0
   23.5590  -23.4255  -13.9017 C   0  0  0  0  0  0  0  0  0  0  0  0
   23.4768  -22.5844  -15.0203 C   0  0  1  0  0  0  0  0  0  0  0  0
   23.9085  -21.1868  -14.5535 N   0  0  0  0  0  0  0  0  0  0  0  0
   25.2238  -21.3363  -13.9924 C   0  0  0  0  0  0  0  0  0  0  0  0
   22.9777  -20.8031  -13.4759 O   0  0  0  0  0  0  0  0  0  0  0  0
   23.3390  -20.9026  -12.2778 N   0  0  0  0  0  0  0  0  0  0  0  0
   21.6637  -20.3155  -13.7224 C   0  0  0  0  0  0  0  0  0  0  0  0
   20.8172  -20.0038  -12.6018 C   0  0  0  0  0  0  0  0  0  0  0  0
   19.4692  -19.5757  -13.0601 O   0  0  0  0  0  0  0  0  0  0  0  0
   19.1995  -18.3520  -13.0899 O   0  0  0  0  0  0  0  0  0  0  0  0
  1  2  1  0
  2  3  2  0
  4  5  1  0
  4  2  1  0
  5  6  1  0
  6  7  1  0
  7  8  1  0
  8  9  1  1
  8 10  1  0
 10 15  1  0
 10 11  2  0
 12 13  1  0
 14 13  1  6
 14 16  1  0
 15 14  1  0
 16 18  1  0
 17 16  2  0
 18 19  1  0
 20 22  1  0
 20 19  1  0
 21 20  2  0
M  END
$$$$
