RSG.pdb
     RDKit          3D

 22 21  0  0  1  0  0  0  0  0999 V2000
   20.0174  -22.2791  -10.3290 N   0  0  0  0  0  0  0  0  0  0  0  0
   19.1443  -22.6870  -11.3946 C   0  0  0  0  0  0  0  0  0  0  0  0
   18.2231  -23.5413  -11.1429 N   0  0  0  0  0  0  0  0  0  0  0  0
   19.2654  -22.1814  -12.7040 N   0  0  0  0  0  0  0  0  0  0  0  0
   20.5121  -21.6622  -13.2190 C   0  0  0  0  0  0  0  0  0  0  0  0
   21.0784  -20.6868  -12.2500 C   0  0  0  0  0  0  0  0  0  0  0  0
   22.3458  -20.0272  -12.7248 C   0  0  0  0  0  0  0  0  0  0  0  0
   23.2724  -21.0030  -13.4192 C   0  0  2  0  0  0  0  0  0  0  0  0
   23.8169  -21.8672  -12.4131 N   0  0  0  0  0  0  0  0  0  0  0  0
   24.3746  -20.2054  -13.9956 C   0  0  0  0  0  0  0  0  0  0  0  0
   24.2066  -19.0897  -14.5507 O   0  0  0  0  0  0  0  0  0  0  0  0
   17.5356  -23.8442  -11.8611 O   0  0  0  0  0  0  0  0  0  0  0  0
   27.9127  -22.0793  -13.9334 C   0  0  0  0  0  0  0  0  0  0  0  0
   28.0688  -20.6898  -13.8312 C   0  0  1  0  0  0  0  0  0  0  0  0
   26.8385  -20.0578  -14.4981 N   0  0  0  0  0  0  0  0  0  0  0  0
   25.6904  -20.7085  -13.9276 C   0  0  0  0  0  0  0  0  0  0  0  0
   26.9159  -20.4081  -15.9285 O   0  0  0  0  0  0  0  0  0  0  0  0
   26.3703  -21.4607  -16.3410 N   0  0  0  0  0  0  0  0  0  0  0  0
   27.5891  -19.6028  -16.8895 C   0  0  0  0  0  0  0  0  0  0  0  0
   27.5925  -20.0210  -18.2659 C   0  0  0  0  0  0  0  0  0  0  0  0
   26.8718  -19.0395  -19.1188 O   0  0  0  0  0  0  0  0  0  0  0  0
   27.5286  -18.1429  -19.6983 O   0  0  0  0  0  0  0  0  0  0  0  0
  1  2  1  0
  2  3  2  0
  4  5  1  0
  4  2  1  0
  5  6  1  0
  6  7  1  0
  7  8  1  0
  8  9  1  1
  8 10  1  0
 10 15  1  0
 10 11  2  0
 12 13  1  0
 14 13  1  1
 14 16  1  0
 15 14  1  0
 16 18  1  0
 17 16  2  0
 18 19  1  0
 20 22  1  0
 20 19  1  0
 21 20  2  0
M  END
$$$$
