ECH.pdb
     RDKit          3D

 26 26  0  0  1  0  0  0  0  0999 V2000
   27.5137  -19.5608  -14.6630 N   0  0  0  0  0  0  0  0  0  0  0  0
   26.4700  -20.2771  -15.4148 C   0  0  1  0  0  0  0  0  0  0  0  0
   27.1763  -21.3627  -16.1685 C   0  0  0  0  0  0  0  0  0  0  0  0
   28.4669  -21.8095  -15.5509 C   0  0  0  0  0  0  0  0  0  0  0  0
   29.0822  -22.8384  -16.4273 C   0  0  0  0  0  0  0  0  0  0  0  0
   29.6674  -22.4567  -17.4674 O   0  0  0  0  0  0  0  0  0  0  0  0
   25.4696  -20.7555  -14.4513 C   0  0  0  0  0  0  0  0  0  0  0  0
   24.5213  -21.4804  -14.8415 O   0  0  0  0  0  0  0  0  0  0  0  0
   29.0445  -24.1971  -16.1577 O   0  0  0  0  0  0  0  0  0  0  0  0
   25.5325  -20.4259  -13.0732 N   0  0  0  0  0  0  0  0  0  0  0  0
   24.4877  -20.9206  -12.2065 C   0  0  1  0  0  0  0  0  0  0  0  0
   25.0019  -20.7635  -10.7793 C   0  0  0  0  0  0  0  0  0  0  0  0
   26.5687  -21.6686  -10.6603 S   0  0  0  0  0  0  0  0  0  0  0  0
   23.2102  -20.1949  -12.3977 C   0  0  0  0  0  0  0  0  0  0  0  0
   23.2709  -18.9670  -12.6576 O   0  0  0  0  0  0  0  0  0  0  0  0
   21.9295  -20.7927  -12.3070 N   0  0  0  0  0  0  0  0  0  0  0  0
   20.7880  -20.4012  -13.1066 C   0  0  1  0  0  0  0  0  0  0  0  0
   21.1811  -20.6018  -14.5515 C   0  0  0  0  0  0  0  0  0  0  0  0
   20.1491  -20.2325  -15.5225 C   0  0  0  0  0  0  0  0  0  0  0  0
   18.8884  -19.7707  -15.2494 C   0  0  0  0  0  0  0  0  0  0  0  0
   18.2609  -19.5503  -16.4149 N   0  0  0  0  0  0  0  0  0  0  0  0
   19.1228  -19.8718  -17.3930 C   0  0  0  0  0  0  0  0  0  0  0  0
   20.2703  -20.2864  -16.8525 N   0  0  0  0  0  0  0  0  0  0  0  0
   19.5925  -21.2078  -12.8214 C   0  0  0  0  0  0  0  0  0  0  0  0
   18.3744  -20.6973  -12.3967 O   0  0  0  0  0  0  0  0  0  0  0  0
   19.6736  -22.4515  -12.9714 O   0  0  0  0  0  0  0  0  0  0  0  0
  2  1  1  1
  2  7  1  0
  3  4  1  0
  3  2  1  0
  4  5  1  0
  5  9  1  0
  5  6  2  0
  7  8  2  0
 10  7  1  0
 10 11  1  0
 11 14  1  0
 11 12  1  1
 13 12  1  0
 14 16  1  0
 15 14  2  0
 16 17  1  0
 17 18  1  6
 19 18  1  0
 19 23  1  0
 20 21  1  0
 20 19  2  0
 21 22  1  0
 22 23  2  0
 24 17  1  0
 25 24  1  0
 26 24  2  0
M  END
$$$$
