ECH.pdb
     RDKit          3D

 26 26  0  0  1  0  0  0  0  0999 V2000
   26.6252  -19.6173  -15.4029 N   0  0  0  0  0  0  0  0  0  0  0  0
   25.4941  -19.2007  -16.2481 C   0  0  1  0  0  0  0  0  0  0  0  0
   24.5505  -20.3645  -16.2772 C   0  0  0  0  0  0  0  0  0  0  0  0
   23.3460  -20.1663  -17.1470 C   0  0  0  0  0  0  0  0  0  0  0  0
   23.7704  -20.2304  -18.5686 C   0  0  0  0  0  0  0  0  0  0  0  0
   24.4737  -21.2011  -18.9331 O   0  0  0  0  0  0  0  0  0  0  0  0
   24.9300  -17.9728  -15.6717 C   0  0  0  0  0  0  0  0  0  0  0  0
   24.5149  -17.9711  -14.4865 O   0  0  0  0  0  0  0  0  0  0  0  0
   23.4310  -19.2756  -19.5138 O   0  0  0  0  0  0  0  0  0  0  0  0
   24.8335  -16.7675  -16.4130 N   0  0  0  0  0  0  0  0  0  0  0  0
   24.2152  -15.6259  -15.7789 C   0  0  1  0  0  0  0  0  0  0  0  0
   25.1891  -14.4636  -15.9410 C   0  0  0  0  0  0  0  0  0  0  0  0
   26.5394  -14.7129  -14.7566 S   0  0  0  0  0  0  0  0  0  0  0  0
   22.8949  -15.3038  -16.3690 C   0  0  0  0  0  0  0  0  0  0  0  0
   22.7538  -15.4691  -17.6066 O   0  0  0  0  0  0  0  0  0  0  0  0
   21.7852  -14.8232  -15.6318 N   0  0  0  0  0  0  0  0  0  0  0  0
   20.4921  -14.5210  -16.2081 C   0  0  1  0  0  0  0  0  0  0  0  0
   19.5473  -14.2830  -15.0534 C   0  0  0  0  0  0  0  0  0  0  0  0
   19.1772  -15.4881  -14.3082 C   0  0  0  0  0  0  0  0  0  0  0  0
   19.5115  -16.7810  -14.6143 C   0  0  0  0  0  0  0  0  0  0  0  0
   18.9767  -17.5844  -13.6819 N   0  0  0  0  0  0  0  0  0  0  0  0
   18.3218  -16.7975  -12.8131 C   0  0  0  0  0  0  0  0  0  0  0  0
   18.4427  -15.5238  -13.1922 N   0  0  0  0  0  0  0  0  0  0  0  0
   20.5166  -13.3221  -17.0588 C   0  0  0  0  0  0  0  0  0  0  0  0
   19.5416  -12.9892  -17.9878 O   0  0  0  0  0  0  0  0  0  0  0  0
   21.4894  -12.5377  -16.9402 O   0  0  0  0  0  0  0  0  0  0  0  0
  2  1  1  1
  2  7  1  0
  3  4  1  0
  3  2  1  0
  4  5  1  0
  5  9  1  0
  5  6  2  0
  7  8  2  0
 10  7  1  0
 10 11  1  0
 11 14  1  0
 11 12  1  6
 13 12  1  0
 14 16  1  0
 15 14  2  0
 16 17  1  0
 17 18  1  1
 19 18  1  0
 19 23  1  0
 20 21  1  0
 20 19  2  0
 21 22  1  0
 22 23  2  0
 24 17  1  0
 25 24  1  0
 26 24  2  0
M  END
$$$$
