ECH.pdb
     RDKit          3D

 26 26  0  0  1  0  0  0  0  0999 V2000
   19.0561  -12.7315  -17.6498 N   0  0  0  0  0  0  0  0  0  0  0  0
   18.3027  -12.2872  -16.4656 C   0  0  1  0  0  0  0  0  0  0  0  0
   18.0935  -13.5112  -15.6268 C   0  0  0  0  0  0  0  0  0  0  0  0
   18.1779  -14.8036  -16.3815 C   0  0  0  0  0  0  0  0  0  0  0  0
   18.1204  -15.9257  -15.4106 C   0  0  0  0  0  0  0  0  0  0  0  0
   18.1044  -15.6506  -14.1884 O   0  0  0  0  0  0  0  0  0  0  0  0
   19.0784  -11.2251  -15.8112 C   0  0  0  0  0  0  0  0  0  0  0  0
   18.6988  -10.7624  -14.7071 O   0  0  0  0  0  0  0  0  0  0  0  0
   18.0836  -17.2601  -15.7824 O   0  0  0  0  0  0  0  0  0  0  0  0
   20.2601  -10.6915  -16.3861 N   0  0  0  0  0  0  0  0  0  0  0  0
   20.9847   -9.6862  -15.6433 C   0  0  1  0  0  0  0  0  0  0  0  0
   22.4620  -10.0462  -15.7599 C   0  0  0  0  0  0  0  0  0  0  0  0
   22.9047   -9.9755  -17.5170 S   0  0  0  0  0  0  0  0  0  0  0  0
   20.7257   -8.3186  -16.1512 C   0  0  0  0  0  0  0  0  0  0  0  0
   20.5296   -8.1826  -17.3848 O   0  0  0  0  0  0  0  0  0  0  0  0
   20.6850   -7.1585  -15.3397 N   0  0  0  0  0  0  0  0  0  0  0  0
   20.4243   -5.8242  -15.8366 C   0  0  1  0  0  0  0  0  0  0  0  0
   19.2943   -5.2644  -15.0047 C   0  0  0  0  0  0  0  0  0  0  0  0
   17.9730   -5.8100  -15.3222 C   0  0  0  0  0  0  0  0  0  0  0  0
   17.5081   -6.1760  -16.5580 C   0  0  0  0  0  0  0  0  0  0  0  0
   16.2520   -6.6263  -16.4171 N   0  0  0  0  0  0  0  0  0  0  0  0
   15.9466   -6.5392  -15.1124 C   0  0  0  0  0  0  0  0  0  0  0  0
   16.9911   -6.0435  -14.4460 N   0  0  0  0  0  0  0  0  0  0  0  0
   21.5900   -4.9364  -15.7162 C   0  0  0  0  0  0  0  0  0  0  0  0
   21.6334   -3.6209  -16.1544 O   0  0  0  0  0  0  0  0  0  0  0  0
   22.6261   -5.3974  -15.1778 O   0  0  0  0  0  0  0  0  0  0  0  0
  2  1  1  6
  2  7  1  0
  3  4  1  0
  3  2  1  0
  4  5  1  0
  5  9  1  0
  5  6  2  0
  7  8  2  0
 10  7  1  0
 10 11  1  0
 11 14  1  0
 11 12  1  6
 13 12  1  0
 14 16  1  0
 15 14  2  0
 16 17  1  0
 17 18  1  1
 19 18  1  0
 19 23  1  0
 20 21  1  0
 20 19  2  0
 21 22  1  0
 22 23  2  0
 24 17  1  0
 25 24  1  0
 26 24  2  0
M  END
$$$$
