ECH.pdb
     RDKit          3D

 26 26  0  0  1  0  0  0  0  0999 V2000
   15.8827  -11.2401  -17.7595 N   0  0  0  0  0  0  0  0  0  0  0  0
   16.8841  -11.0710  -16.6936 C   0  0  1  0  0  0  0  0  0  0  0  0
   18.2177  -11.0732  -17.3767 C   0  0  0  0  0  0  0  0  0  0  0  0
   18.7351  -12.4361  -17.7255 C   0  0  0  0  0  0  0  0  0  0  0  0
   19.3026  -13.0567  -16.5016 C   0  0  0  0  0  0  0  0  0  0  0  0
   19.5980  -12.3084  -15.5411 O   0  0  0  0  0  0  0  0  0  0  0  0
   16.5698   -9.8295  -15.9739 C   0  0  0  0  0  0  0  0  0  0  0  0
   15.8931   -8.9338  -16.5369 O   0  0  0  0  0  0  0  0  0  0  0  0
   19.5231  -14.4178  -16.3639 O   0  0  0  0  0  0  0  0  0  0  0  0
   17.0076   -9.5972  -14.6450 N   0  0  0  0  0  0  0  0  0  0  0  0
   16.5213   -8.4195  -13.9639 C   0  0  1  0  0  0  0  0  0  0  0  0
   15.0074   -8.5741  -13.8644 C   0  0  0  0  0  0  0  0  0  0  0  0
   14.3787   -7.1803  -12.8894 S   0  0  0  0  0  0  0  0  0  0  0  0
   17.1314   -8.2547  -12.6239 C   0  0  0  0  0  0  0  0  0  0  0  0
   17.1054   -9.2415  -11.8465 O   0  0  0  0  0  0  0  0  0  0  0  0
   17.7400   -7.0616  -12.1634 N   0  0  0  0  0  0  0  0  0  0  0  0
   18.4739   -6.9471  -10.9209 C   0  0  1  0  0  0  0  0  0  0  0  0
   19.7194   -6.1478  -11.2247 C   0  0  0  0  0  0  0  0  0  0  0  0
   20.5794   -6.7259  -12.2594 C   0  0  0  0  0  0  0  0  0  0  0  0
   20.3388   -7.8579  -12.9928 C   0  0  0  0  0  0  0  0  0  0  0  0
   21.3704   -8.0417  -13.8310 N   0  0  0  0  0  0  0  0  0  0  0  0
   22.2351   -7.0369  -13.6172 C   0  0  0  0  0  0  0  0  0  0  0  0
   21.7560   -6.2368  -12.6628 N   0  0  0  0  0  0  0  0  0  0  0  0
   17.7089   -6.2573   -9.8719 C   0  0  0  0  0  0  0  0  0  0  0  0
   18.0262   -6.2694   -8.5215 O   0  0  0  0  0  0  0  0  0  0  0  0
   16.6920   -5.6075  -10.2178 O   0  0  0  0  0  0  0  0  0  0  0  0
  2  1  1  6
  2  7  1  0
  3  4  1  0
  3  2  1  0
  4  5  1  0
  5  9  1  0
  5  6  2  0
  7  8  2  0
 10  7  1  0
 10 11  1  0
 11 14  1  0
 11 12  1  1
 13 12  1  0
 14 16  1  0
 15 14  2  0
 16 17  1  0
 17 18  1  6
 19 18  1  0
 19 23  1  0
 20 21  1  0
 20 19  2  0
 21 22  1  0
 22 23  2  0
 24 17  1  0
 25 24  1  0
 26 24  2  0
M  END
$$$$
