ECH.pdb
     RDKit          3D

 26 26  0  0  1  0  0  0  0  0999 V2000
   28.7603  -13.5480  -18.1374 N   0  0  0  0  0  0  0  0  0  0  0  0
   27.4689  -12.9860  -18.5661 C   0  0  1  0  0  0  0  0  0  0  0  0
   26.5313  -14.1490  -18.6825 C   0  0  0  0  0  0  0  0  0  0  0  0
   26.4948  -14.7844  -20.0396 C   0  0  0  0  0  0  0  0  0  0  0  0
   25.9804  -16.1706  -19.9019 C   0  0  0  0  0  0  0  0  0  0  0  0
   25.0993  -16.3919  -19.0390 O   0  0  0  0  0  0  0  0  0  0  0  0
   27.0675  -11.9759  -17.5778 C   0  0  0  0  0  0  0  0  0  0  0  0
   27.7327  -11.8342  -16.5221 O   0  0  0  0  0  0  0  0  0  0  0  0
   26.4213  -17.2324  -20.6754 O   0  0  0  0  0  0  0  0  0  0  0  0
   25.9386  -11.1392  -17.7710 N   0  0  0  0  0  0  0  0  0  0  0  0
   25.6621  -10.1285  -16.7764 C   0  0  1  0  0  0  0  0  0  0  0  0
   26.9200   -9.2728  -16.6708 C   0  0  0  0  0  0  0  0  0  0  0  0
   28.3480  -10.3863  -16.7673 S   0  0  0  0  0  0  0  0  0  0  0  0
   24.4823   -9.3041  -17.1280 C   0  0  0  0  0  0  0  0  0  0  0  0
   24.4772   -8.7438  -18.2526 O   0  0  0  0  0  0  0  0  0  0  0  0
   23.3636   -9.1069  -16.2820 N   0  0  0  0  0  0  0  0  0  0  0  0
   22.2395   -8.2527  -16.6019 C   0  0  1  0  0  0  0  0  0  0  0  0
   21.0538   -8.7910  -15.8358 C   0  0  0  0  0  0  0  0  0  0  0  0
   19.8092   -8.0450  -16.0327 C   0  0  0  0  0  0  0  0  0  0  0  0
   19.6089   -6.9850  -16.8774 C   0  0  0  0  0  0  0  0  0  0  0  0
   18.3320   -6.5899  -16.7591 N   0  0  0  0  0  0  0  0  0  0  0  0
   17.7530   -7.3952  -15.8541 C   0  0  0  0  0  0  0  0  0  0  0  0
   18.6490   -8.2797  -15.4119 N   0  0  0  0  0  0  0  0  0  0  0  0
   22.4626   -6.8526  -16.2128 C   0  0  0  0  0  0  0  0  0  0  0  0
   22.0631   -5.7504  -16.9544 O   0  0  0  0  0  0  0  0  0  0  0  0
   23.0582   -6.6317  -15.1300 O   0  0  0  0  0  0  0  0  0  0  0  0
  2  1  1  1
  2  7  1  0
  3  4  1  0
  3  2  1  0
  4  5  1  0
  5  9  1  0
  5  6  2  0
  7  8  2  0
 10  7  1  0
 10 11  1  0
 11 14  1  0
 11 12  1  6
 13 12  1  0
 14 16  1  0
 15 14  2  0
 16 17  1  0
 17 18  1  1
 19 18  1  0
 19 23  1  0
 20 21  1  0
 20 19  2  0
 21 22  1  0
 22 23  2  0
 24 17  1  0
 25 24  1  0
 26 24  2  0
M  END
$$$$
