ECH.pdb
     RDKit          3D

 26 26  0  0  1  0  0  0  0  0999 V2000
   17.0949  -13.6178  -15.0609 N   0  0  0  0  0  0  0  0  0  0  0  0
   18.4288  -13.5608  -15.6812 C   0  0  1  0  0  0  0  0  0  0  0  0
   18.5335  -14.7797  -16.5465 C   0  0  0  0  0  0  0  0  0  0  0  0
   17.6020  -15.8917  -16.1691 C   0  0  0  0  0  0  0  0  0  0  0  0
   17.8607  -17.0515  -17.0597 C   0  0  0  0  0  0  0  0  0  0  0  0
   18.4154  -18.0622  -16.5692 O   0  0  0  0  0  0  0  0  0  0  0  0
   18.5339  -12.2875  -16.4063 C   0  0  0  0  0  0  0  0  0  0  0  0
   19.5423  -12.0534  -17.1171 O   0  0  0  0  0  0  0  0  0  0  0  0
   17.5222  -17.0769  -18.4032 O   0  0  0  0  0  0  0  0  0  0  0  0
   17.5242  -11.2940  -16.3348 N   0  0  0  0  0  0  0  0  0  0  0  0
   17.7331  -10.0581  -17.0534 C   0  0  1  0  0  0  0  0  0  0  0  0
   16.3683   -9.6332  -17.5850 C   0  0  0  0  0  0  0  0  0  0  0  0
   16.0447  -10.5929  -19.0892 S   0  0  0  0  0  0  0  0  0  0  0  0
   18.3250   -9.0044  -16.1963 C   0  0  0  0  0  0  0  0  0  0  0  0
   17.8939   -8.8992  -15.0208 O   0  0  0  0  0  0  0  0  0  0  0  0
   19.3414   -8.1110  -16.6141 N   0  0  0  0  0  0  0  0  0  0  0  0
   19.8712   -7.0390  -15.7982 C   0  0  1  0  0  0  0  0  0  0  0  0
   21.1511   -6.5828  -16.4588 C   0  0  0  0  0  0  0  0  0  0  0  0
   21.8519   -5.5064  -15.7555 C   0  0  0  0  0  0  0  0  0  0  0  0
   21.5567   -5.0036  -14.5157 C   0  0  0  0  0  0  0  0  0  0  0  0
   22.4365   -4.0292  -14.2380 N   0  0  0  0  0  0  0  0  0  0  0  0
   23.2626   -3.9327  -15.2921 C   0  0  0  0  0  0  0  0  0  0  0  0
   22.9088   -4.8294  -16.2148 N   0  0  0  0  0  0  0  0  0  0  0  0
   18.9526   -5.8955  -15.6982 C   0  0  0  0  0  0  0  0  0  0  0  0
   18.3035   -5.3037  -16.7719 O   0  0  0  0  0  0  0  0  0  0  0  0
   18.7355   -5.4145  -14.5591 O   0  0  0  0  0  0  0  0  0  0  0  0
  2  1  1  6
  2  7  1  0
  3  4  1  0
  3  2  1  0
  4  5  1  0
  5  9  1  0
  5  6  2  0
  7  8  2  0
 10  7  1  0
 10 11  1  0
 11 14  1  0
 11 12  1  1
 13 12  1  0
 14 16  1  0
 15 14  2  0
 16 17  1  0
 17 18  1  6
 19 18  1  0
 19 23  1  0
 20 21  1  0
 20 19  2  0
 21 22  1  0
 22 23  2  0
 24 17  1  0
 25 24  1  0
 26 24  2  0
M  END
$$$$
