ECH.pdb
     RDKit          3D

 26 26  0  0  1  0  0  0  0  0999 V2000
   23.6290  -13.6509  -18.0915 N   0  0  0  0  0  0  0  0  0  0  0  0
   23.5829  -12.2763  -18.6167 C   0  0  1  0  0  0  0  0  0  0  0  0
   22.2775  -12.1557  -19.3425 C   0  0  0  0  0  0  0  0  0  0  0  0
   22.3056  -12.6483  -20.7579 C   0  0  0  0  0  0  0  0  0  0  0  0
   22.9852  -11.6324  -21.6014 C   0  0  0  0  0  0  0  0  0  0  0  0
   24.2336  -11.6812  -21.6962 O   0  0  0  0  0  0  0  0  0  0  0  0
   23.7368  -11.3557  -17.4822 C   0  0  0  0  0  0  0  0  0  0  0  0
   23.1623  -11.6030  -16.3932 O   0  0  0  0  0  0  0  0  0  0  0  0
   22.3143  -10.6339  -22.2891 O   0  0  0  0  0  0  0  0  0  0  0  0
   24.5221  -10.1778  -17.5685 N   0  0  0  0  0  0  0  0  0  0  0  0
   24.6233   -9.3396  -16.3962 C   0  0  1  0  0  0  0  0  0  0  0  0
   26.1128   -9.1635  -16.1201 C   0  0  0  0  0  0  0  0  0  0  0  0
   26.6851  -10.6446  -15.2442 S   0  0  0  0  0  0  0  0  0  0  0  0
   23.9557   -8.0303  -16.5838 C   0  0  0  0  0  0  0  0  0  0  0  0
   24.2478   -7.3693  -17.6117 O   0  0  0  0  0  0  0  0  0  0  0  0
   23.0130   -7.4769  -15.6833 N   0  0  0  0  0  0  0  0  0  0  0  0
   22.3137   -6.2280  -15.8998 C   0  0  1  0  0  0  0  0  0  0  0  0
   20.8381   -6.5520  -15.9035 C   0  0  0  0  0  0  0  0  0  0  0  0
   20.3771   -7.2888  -17.0820 C   0  0  0  0  0  0  0  0  0  0  0  0
   20.4914   -6.9028  -18.3917 C   0  0  0  0  0  0  0  0  0  0  0  0
   19.9443   -7.8576  -19.1596 N   0  0  0  0  0  0  0  0  0  0  0  0
   19.4987   -8.8188  -18.3347 C   0  0  0  0  0  0  0  0  0  0  0  0
   19.7609   -8.4748  -17.0724 N   0  0  0  0  0  0  0  0  0  0  0  0
   22.5817   -5.2381  -14.8464 C   0  0  0  0  0  0  0  0  0  0  0  0
   22.1811   -3.9105  -14.8855 O   0  0  0  0  0  0  0  0  0  0  0  0
   23.2202   -5.6163  -13.8338 O   0  0  0  0  0  0  0  0  0  0  0  0
  2  1  1  1
  2  7  1  0
  3  4  1  0
  3  2  1  0
  4  5  1  0
  5  9  1  0
  5  6  2  0
  7  8  2  0
 10  7  1  0
 10 11  1  0
 11 14  1  0
 11 12  1  6
 13 12  1  0
 14 16  1  0
 15 14  2  0
 16 17  1  0
 17 18  1  1
 19 18  1  0
 19 23  1  0
 20 21  1  0
 20 19  2  0
 21 22  1  0
 22 23  2  0
 24 17  1  0
 25 24  1  0
 26 24  2  0
M  END
$$$$
