ECH.pdb
     RDKit          3D

 26 26  0  0  1  0  0  0  0  0999 V2000
   20.1848  -13.2742  -16.1035 N   0  0  0  0  0  0  0  0  0  0  0  0
   20.0636  -11.9378  -16.7092 C   0  0  1  0  0  0  0  0  0  0  0  0
   18.6127  -11.5743  -16.6192 C   0  0  0  0  0  0  0  0  0  0  0  0
   17.8417  -11.7754  -17.8888 C   0  0  0  0  0  0  0  0  0  0  0  0
   16.4249  -11.4008  -17.6490 C   0  0  0  0  0  0  0  0  0  0  0  0
   16.0339  -10.2789  -18.0467 O   0  0  0  0  0  0  0  0  0  0  0  0
   20.9650  -11.0320  -15.9846 C   0  0  0  0  0  0  0  0  0  0  0  0
   20.8610  -10.9096  -14.7391 O   0  0  0  0  0  0  0  0  0  0  0  0
   15.5119  -12.2242  -17.0097 O   0  0  0  0  0  0  0  0  0  0  0  0
   21.9662  -10.2763  -16.6468 N   0  0  0  0  0  0  0  0  0  0  0  0
   22.7996   -9.4051  -15.8507 C   0  0  1  0  0  0  0  0  0  0  0  0
   24.2329   -9.6350  -16.3183 C   0  0  0  0  0  0  0  0  0  0  0  0
   25.3013   -8.5111  -15.3782 S   0  0  0  0  0  0  0  0  0  0  0  0
   22.4141   -7.9811  -15.9882 C   0  0  0  0  0  0  0  0  0  0  0  0
   22.4318   -7.4813  -17.1409 O   0  0  0  0  0  0  0  0  0  0  0  0
   22.0283   -7.1492  -14.9088 N   0  0  0  0  0  0  0  0  0  0  0  0
   21.7408   -5.7357  -15.0306 C   0  0  1  0  0  0  0  0  0  0  0  0
   20.5139   -5.4685  -14.1904 C   0  0  0  0  0  0  0  0  0  0  0  0
   19.2428   -5.7727  -14.8508 C   0  0  0  0  0  0  0  0  0  0  0  0
   19.0706   -6.2917  -16.1070 C   0  0  0  0  0  0  0  0  0  0  0  0
   17.7537   -6.4187  -16.3315 N   0  0  0  0  0  0  0  0  0  0  0  0
   17.1228   -5.9839  -15.2288 C   0  0  0  0  0  0  0  0  0  0  0  0
   18.0260   -5.5911  -14.3285 N   0  0  0  0  0  0  0  0  0  0  0  0
   22.8421   -4.8895  -14.5486 C   0  0  0  0  0  0  0  0  0  0  0  0
   22.8557   -3.5031  -14.5954 O   0  0  0  0  0  0  0  0  0  0  0  0
   23.8478   -5.4579  -14.0572 O   0  0  0  0  0  0  0  0  0  0  0  0
  2  1  1  1
  2  7  1  0
  3  4  1  0
  3  2  1  0
  4  5  1  0
  5  9  1  0
  5  6  2  0
  7  8  2  0
 10  7  1  0
 10 11  1  0
 11 14  1  0
 11 12  1  6
 13 12  1  0
 14 16  1  0
 15 14  2  0
 16 17  1  0
 17 18  1  1
 19 18  1  0
 19 23  1  0
 20 21  1  0
 20 19  2  0
 21 22  1  0
 22 23  2  0
 24 17  1  0
 25 24  1  0
 26 24  2  0
M  END
$$$$
