ECH.pdb
     RDKit          3D

 26 26  0  0  1  0  0  0  0  0999 V2000
   29.9935  -22.2610  -17.1580 N   0  0  0  0  0  0  0  0  0  0  0  0
   28.9852  -21.7072  -18.0768 C   0  0  1  0  0  0  0  0  0  0  0  0
   28.2025  -22.8794  -18.5852 C   0  0  0  0  0  0  0  0  0  0  0  0
   27.4168  -23.6047  -17.5348 C   0  0  0  0  0  0  0  0  0  0  0  0
   25.9714  -23.4821  -17.8528 C   0  0  0  0  0  0  0  0  0  0  0  0
   25.5864  -23.8192  -18.9965 O   0  0  0  0  0  0  0  0  0  0  0  0
   28.1912  -20.7209  -17.3319 C   0  0  0  0  0  0  0  0  0  0  0  0
   28.1889  -20.7388  -16.0762 O   0  0  0  0  0  0  0  0  0  0  0  0
   25.0256  -23.0154  -16.9541 O   0  0  0  0  0  0  0  0  0  0  0  0
   27.4130  -19.7313  -17.9853 N   0  0  0  0  0  0  0  0  0  0  0  0
   26.7405  -18.7461  -17.1701 C   0  0  1  0  0  0  0  0  0  0  0  0
   27.1503  -17.3827  -17.7167 C   0  0  0  0  0  0  0  0  0  0  0  0
   28.6699  -16.8853  -16.8612 S   0  0  0  0  0  0  0  0  0  0  0  0
   25.2682  -18.9107  -17.1923 C   0  0  0  0  0  0  0  0  0  0  0  0
   24.7484  -19.3644  -18.2424 O   0  0  0  0  0  0  0  0  0  0  0  0
   24.4113  -18.5912  -16.1108 N   0  0  0  0  0  0  0  0  0  0  0  0
   22.9664  -18.6571  -16.1678 C   0  0  1  0  0  0  0  0  0  0  0  0
   22.4674  -18.4699  -14.7541 C   0  0  0  0  0  0  0  0  0  0  0  0
   21.0116  -18.5283  -14.6071 C   0  0  0  0  0  0  0  0  0  0  0  0
   20.0976  -18.8443  -15.5776 C   0  0  0  0  0  0  0  0  0  0  0  0
   18.8718  -18.7835  -15.0351 N   0  0  0  0  0  0  0  0  0  0  0  0
   19.0280  -18.4348  -13.7478 C   0  0  0  0  0  0  0  0  0  0  0  0
   20.3272  -18.2794  -13.4863 N   0  0  0  0  0  0  0  0  0  0  0  0
   22.3843  -17.6110  -17.0212 C   0  0  0  0  0  0  0  0  0  0  0  0
   21.2535  -17.7688  -17.8092 O   0  0  0  0  0  0  0  0  0  0  0  0
   22.9479  -16.4895  -17.0426 O   0  0  0  0  0  0  0  0  0  0  0  0
  2  1  1  1
  2  7  1  0
  3  4  1  0
  3  2  1  0
  4  5  1  0
  5  9  1  0
  5  6  2  0
  7  8  2  0
 10  7  1  0
 10 11  1  0
 11 14  1  0
 11 12  1  6
 13 12  1  0
 14 16  1  0
 15 14  2  0
 16 17  1  0
 17 18  1  1
 19 18  1  0
 19 23  1  0
 20 21  1  0
 20 19  2  0
 21 22  1  0
 22 23  2  0
 24 17  1  0
 25 24  1  0
 26 24  2  0
M  END
$$$$
