NNQ.pdb
     RDKit          3D

 26 25  0  0  1  0  0  0  0  0999 V2000
    7.1601  -13.6941   16.2293 N   0  0  0  0  0  0  0  0  0  0  0  0
    8.2044  -13.7159   17.1958 C   0  0  0  0  0  0  0  0  0  0  0  0
    9.3878  -13.6193   16.8066 O   0  0  0  0  0  0  0  0  0  0  0  0
    7.8346  -13.8509   18.6137 C   0  0  0  0  0  0  0  0  0  0  0  0
    8.9827  -14.4491   19.3698 C   0  0  2  0  0  0  0  0  0  0  0  0
    9.6898  -15.4201   18.5921 N   0  0  0  0  0  0  0  0  0  0  0  0
    8.5317  -15.0927   20.6469 C   0  0  0  0  0  0  0  0  0  0  0  0
    7.7094  -14.4669   21.3948 O   0  0  0  0  0  0  0  0  0  0  0  0
    7.2668  -19.0017   20.6251 N   0  0  0  0  0  0  0  0  0  0  0  0
    8.5743  -19.1647   21.1030 C   0  0  0  0  0  0  0  0  0  0  0  0
    9.3582  -19.9756   20.5167 O   0  0  0  0  0  0  0  0  0  0  0  0
    9.0846  -18.4305   22.2597 C   0  0  0  0  0  0  0  0  0  0  0  0
    8.5817  -17.0191   22.2628 C   0  0  2  0  0  0  0  0  0  0  0  0
    9.0101  -16.3705   21.0147 N   0  0  0  0  0  0  0  0  0  0  0  0
    9.2228  -16.1955   23.3417 C   0  0  0  0  0  0  0  0  0  0  0  0
   10.4529  -16.0891   23.3857 O   0  0  0  0  0  0  0  0  0  0  0  0
    5.6418  -11.9475   25.6765 N   0  0  0  0  0  0  0  0  0  0  0  0
    6.3648  -12.5654   26.7089 C   0  0  0  0  0  0  0  0  0  0  0  0
    6.3883  -12.0716   27.8603 O   0  0  0  0  0  0  0  0  0  0  0  0
    7.1171  -13.8228   26.4465 C   0  0  0  0  0  0  0  0  0  0  0  0
    8.3342  -13.5406   25.6387 C   0  0  0  0  0  0  0  0  0  0  0  0
    9.1540  -14.7788   25.3849 C   0  0  2  0  0  0  0  0  0  0  0  0
    8.4417  -15.5259   24.3280 N   0  0  0  0  0  0  0  0  0  0  0  0
    9.1687  -15.6083   26.6072 C   0  0  0  0  0  0  0  0  0  0  0  0
   10.0289  -15.1961   27.6493 O   0  0  0  0  0  0  0  0  0  0  0  0
    8.4622  -16.6377   26.7474 O   0  0  0  0  0  0  0  0  0  0  0  0
  2  1  1  0
  2  3  2  0
  4  2  1  0
  5  7  1  0
  5  4  1  0
  5  6  1  6
  7  8  2  0
 10 11  2  0
 10  9  1  0
 12 10  1  0
 13 12  1  6
 14  7  1  0
 14 13  1  0
 15 16  2  0
 15 13  1  0
 17 18  1  0
 18 20  1  0
 19 18  2  0
 20 21  1  0
 22 21  1  1
 22 23  1  0
 23 15  1  0
 24 22  1  0
 24 25  1  0
 26 24  2  0
M  END
$$$$
