NNQ.pdb
     RDKit          3D

 26 25  0  0  1  0  0  0  0  0999 V2000
    7.7375  -12.0328   17.7100 N   0  0  0  0  0  0  0  0  0  0  0  0
    7.2066  -13.3327   17.9417 C   0  0  0  0  0  0  0  0  0  0  0  0
    6.8975  -14.0412   16.9599 O   0  0  0  0  0  0  0  0  0  0  0  0
    7.0485  -13.7793   19.3348 C   0  0  0  0  0  0  0  0  0  0  0  0
    8.3049  -14.4652   19.7803 C   0  0  2  0  0  0  0  0  0  0  0  0
    8.5709  -15.6463   19.0174 N   0  0  0  0  0  0  0  0  0  0  0  0
    8.2517  -14.8336   21.2329 C   0  0  0  0  0  0  0  0  0  0  0  0
    8.1406  -13.9047   22.1000 O   0  0  0  0  0  0  0  0  0  0  0  0
    6.3128  -17.6225   25.4819 N   0  0  0  0  0  0  0  0  0  0  0  0
    7.2366  -18.1692   24.5807 C   0  0  0  0  0  0  0  0  0  0  0  0
    8.0291  -19.0819   24.9738 O   0  0  0  0  0  0  0  0  0  0  0  0
    7.3276  -17.7327   23.1884 C   0  0  0  0  0  0  0  0  0  0  0  0
    8.2636  -16.5708   23.0514 C   0  0  2  0  0  0  0  0  0  0  0  0
    8.3235  -16.1870   21.6333 N   0  0  0  0  0  0  0  0  0  0  0  0
    9.6777  -16.9443   23.3892 C   0  0  0  0  0  0  0  0  0  0  0  0
    9.9035  -17.7091   24.3329 O   0  0  0  0  0  0  0  0  0  0  0  0
   14.6692  -14.4477   20.6707 N   0  0  0  0  0  0  0  0  0  0  0  0
   13.7308  -15.2369   19.9874 C   0  0  0  0  0  0  0  0  0  0  0  0
   13.6669  -15.2188   18.7362 O   0  0  0  0  0  0  0  0  0  0  0  0
   12.7943  -16.1106   20.7461 C   0  0  0  0  0  0  0  0  0  0  0  0
   13.0869  -16.0431   22.2034 C   0  0  0  0  0  0  0  0  0  0  0  0
   12.1364  -16.8807   23.0186 C   0  0  2  0  0  0  0  0  0  0  0  0
   10.7793  -16.4341   22.6425 N   0  0  0  0  0  0  0  0  0  0  0  0
   12.3391  -16.5860   24.4519 C   0  0  0  0  0  0  0  0  0  0  0  0
   11.3187  -15.8604   25.1061 O   0  0  0  0  0  0  0  0  0  0  0  0
   13.3586  -16.9488   25.0904 O   0  0  0  0  0  0  0  0  0  0  0  0
  2  1  1  0
  2  3  2  0
  4  2  1  0
  5  7  1  0
  5  4  1  0
  5  6  1  6
  7  8  2  0
 10 11  2  0
 10  9  1  0
 12 10  1  0
 13 12  1  6
 14  7  1  0
 14 13  1  0
 15 16  2  0
 15 13  1  0
 17 18  1  0
 18 20  1  0
 19 18  2  0
 20 21  1  0
 22 21  1  6
 22 23  1  0
 23 15  1  0
 24 22  1  0
 24 25  1  0
 26 24  2  0
M  END
$$$$
