NNQ.pdb
     RDKit          3D

 26 25  0  0  1  0  0  0  0  0999 V2000
    8.5033  -15.0443   18.3407 N   0  0  0  0  0  0  0  0  0  0  0  0
    8.0040  -13.7291   18.5562 C   0  0  0  0  0  0  0  0  0  0  0  0
    7.6127  -13.0645   17.5731 O   0  0  0  0  0  0  0  0  0  0  0  0
    7.9728  -13.2163   19.9351 C   0  0  0  0  0  0  0  0  0  0  0  0
    8.4454  -14.2868   20.8721 C   0  0  2  0  0  0  0  0  0  0  0  0
    7.5606  -15.4113   20.8922 N   0  0  0  0  0  0  0  0  0  0  0  0
    8.5991  -13.7716   22.2720 C   0  0  0  0  0  0  0  0  0  0  0  0
    9.4045  -12.8063   22.4878 O   0  0  0  0  0  0  0  0  0  0  0  0
    7.9380  -12.6305   27.1874 N   0  0  0  0  0  0  0  0  0  0  0  0
    6.7470  -12.6635   26.4493 C   0  0  0  0  0  0  0  0  0  0  0  0
    5.6909  -12.1566   26.9428 O   0  0  0  0  0  0  0  0  0  0  0  0
    6.6654  -13.2599   25.1170 C   0  0  0  0  0  0  0  0  0  0  0  0
    7.9840  -13.8430   24.7094 C   0  0  2  0  0  0  0  0  0  0  0  0
    7.8640  -14.3464   23.3332 N   0  0  0  0  0  0  0  0  0  0  0  0
    8.3341  -15.0603   25.5149 C   0  0  0  0  0  0  0  0  0  0  0  0
    7.8489  -15.2139   26.6408 O   0  0  0  0  0  0  0  0  0  0  0  0
   10.6489  -20.2355   23.0859 N   0  0  0  0  0  0  0  0  0  0  0  0
   11.3876  -19.0419   23.0943 C   0  0  0  0  0  0  0  0  0  0  0  0
   12.3530  -18.8793   22.3124 O   0  0  0  0  0  0  0  0  0  0  0  0
   11.0303  -17.9478   24.0385 C   0  0  0  0  0  0  0  0  0  0  0  0
    9.8650  -18.3436   24.8745 C   0  0  0  0  0  0  0  0  0  0  0  0
    9.4532  -17.2585   25.8351 C   0  0  2  0  0  0  0  0  0  0  0  0
    9.2217  -16.0548   25.0103 N   0  0  0  0  0  0  0  0  0  0  0  0
   10.5726  -16.9784   26.7573 C   0  0  0  0  0  0  0  0  0  0  0  0
   10.8789  -17.9736   27.7121 O   0  0  0  0  0  0  0  0  0  0  0  0
   11.2426  -15.9160   26.7220 O   0  0  0  0  0  0  0  0  0  0  0  0
  2  1  1  0
  2  3  2  0
  4  2  1  0
  5  7  1  0
  5  4  1  0
  5  6  1  1
  7  8  2  0
 10 11  2  0
 10  9  1  0
 12 10  1  0
 13 12  1  1
 14  7  1  0
 14 13  1  0
 15 16  2  0
 15 13  1  0
 17 18  1  0
 18 20  1  0
 19 18  2  0
 20 21  1  0
 22 21  1  6
 22 23  1  0
 23 15  1  0
 24 22  1  0
 24 25  1  0
 26 24  2  0
M  END
$$$$
