NNQ.pdb
     RDKit          3D

 26 25  0  0  1  0  0  0  0  0999 V2000
    9.0162  -12.8129   17.2529 N   0  0  0  0  0  0  0  0  0  0  0  0
    7.8104  -13.5677   17.2119 C   0  0  0  0  0  0  0  0  0  0  0  0
    7.0854  -13.4907   16.1971 O   0  0  0  0  0  0  0  0  0  0  0  0
    7.4774  -14.4067   18.3740 C   0  0  0  0  0  0  0  0  0  0  0  0
    8.4359  -14.1118   19.4883 C   0  0  2  0  0  0  0  0  0  0  0  0
    9.7986  -14.2577   19.0768 N   0  0  0  0  0  0  0  0  0  0  0  0
    8.1957  -14.9951   20.6761 C   0  0  0  0  0  0  0  0  0  0  0  0
    7.0447  -14.9883   21.2258 O   0  0  0  0  0  0  0  0  0  0  0  0
    8.6333  -19.8054   21.3180 N   0  0  0  0  0  0  0  0  0  0  0  0
    9.5810  -18.7898   21.1312 C   0  0  0  0  0  0  0  0  0  0  0  0
   10.1306  -18.6485   19.9938 O   0  0  0  0  0  0  0  0  0  0  0  0
    9.9680  -17.8708   22.2004 C   0  0  0  0  0  0  0  0  0  0  0  0
    8.9983  -16.7336   22.3065 C   0  0  2  0  0  0  0  0  0  0  0  0
    9.2276  -15.8205   21.1771 N   0  0  0  0  0  0  0  0  0  0  0  0
    9.2543  -15.8868   23.5192 C   0  0  0  0  0  0  0  0  0  0  0  0
   10.3527  -15.3410   23.6679 O   0  0  0  0  0  0  0  0  0  0  0  0
    5.1802  -12.6954   26.7496 N   0  0  0  0  0  0  0  0  0  0  0  0
    6.3571  -11.9731   26.4973 C   0  0  0  0  0  0  0  0  0  0  0  0
    6.3728  -10.7229   26.5799 O   0  0  0  0  0  0  0  0  0  0  0  0
    7.6088  -12.6885   26.1264 C   0  0  0  0  0  0  0  0  0  0  0  0
    7.3820  -14.1589   26.1139 C   0  0  0  0  0  0  0  0  0  0  0  0
    8.6183  -14.9265   25.7237 C   0  0  2  0  0  0  0  0  0  0  0  0
    8.2532  -15.6939   24.5151 N   0  0  0  0  0  0  0  0  0  0  0  0
    8.9511  -15.8855   26.7969 C   0  0  0  0  0  0  0  0  0  0  0  0
    8.6997  -17.2508   26.5350 O   0  0  0  0  0  0  0  0  0  0  0  0
    9.4368  -15.5381   27.9024 O   0  0  0  0  0  0  0  0  0  0  0  0
  2  1  1  0
  2  3  2  0
  4  2  1  0
  5  7  1  0
  5  4  1  0
  5  6  1  6
  7  8  2  0
 10 11  2  0
 10  9  1  0
 12 10  1  0
 13 12  1  6
 14  7  1  0
 14 13  1  0
 15 16  2  0
 15 13  1  0
 17 18  1  0
 18 20  1  0
 19 18  2  0
 20 21  1  0
 22 21  1  1
 22 23  1  0
 23 15  1  0
 24 22  1  0
 24 25  1  0
 26 24  2  0
M  END
$$$$
