NNQ.pdb
     RDKit          3D

 26 25  0  0  1  0  0  0  0  0999 V2000
   10.6763  -17.6148   17.7205 N   0  0  0  0  0  0  0  0  0  0  0  0
   10.7390  -16.5965   18.7127 C   0  0  0  0  0  0  0  0  0  0  0  0
   11.4980  -15.6213   18.5284 O   0  0  0  0  0  0  0  0  0  0  0  0
    9.9003  -16.7448   19.9127 C   0  0  0  0  0  0  0  0  0  0  0  0
   10.6592  -16.2578   21.1103 C   0  0  2  0  0  0  0  0  0  0  0  0
   12.0692  -16.4577   20.9698 N   0  0  0  0  0  0  0  0  0  0  0  0
   10.2018  -16.9315   22.3695 C   0  0  0  0  0  0  0  0  0  0  0  0
    8.9540  -16.9643   22.6319 O   0  0  0  0  0  0  0  0  0  0  0  0
   10.9618  -21.0426   22.3149 N   0  0  0  0  0  0  0  0  0  0  0  0
   10.4206  -20.4464   23.4621 C   0  0  0  0  0  0  0  0  0  0  0  0
    9.1874  -20.6042   23.7267 O   0  0  0  0  0  0  0  0  0  0  0  0
   11.2236  -19.6429   24.3825 C   0  0  0  0  0  0  0  0  0  0  0  0
   10.7072  -18.2384   24.4579 C   0  0  2  0  0  0  0  0  0  0  0  0
   11.1380  -17.5194   23.2498 N   0  0  0  0  0  0  0  0  0  0  0  0
   11.3329  -17.4685   25.5844 C   0  0  0  0  0  0  0  0  0  0  0  0
   12.2174  -16.6393   25.3464 O   0  0  0  0  0  0  0  0  0  0  0  0
    9.9234  -13.0032   28.0585 N   0  0  0  0  0  0  0  0  0  0  0  0
    9.0297  -14.0785   27.9338 C   0  0  0  0  0  0  0  0  0  0  0  0
    7.7916  -13.8861   27.9245 O   0  0  0  0  0  0  0  0  0  0  0  0
    9.5457  -15.4694   27.8103 C   0  0  0  0  0  0  0  0  0  0  0  0
   11.0328  -15.4775   27.8580 C   0  0  0  0  0  0  0  0  0  0  0  0
   11.5950  -16.8695   27.9842 C   0  0  2  0  0  0  0  0  0  0  0  0
   10.9298  -17.6709   26.9364 N   0  0  0  0  0  0  0  0  0  0  0  0
   11.2188  -17.4258   29.2999 C   0  0  0  0  0  0  0  0  0  0  0  0
   10.3235  -18.5186   29.2999 O   0  0  0  0  0  0  0  0  0  0  0  0
   11.6560  -16.9734   30.3875 O   0  0  0  0  0  0  0  0  0  0  0  0
  2  1  1  0
  2  3  2  0
  4  2  1  0
  5  7  1  0
  5  4  1  0
  5  6  1  6
  7  8  2  0
 10 11  2  0
 10  9  1  0
 12 10  1  0
 13 12  1  6
 14  7  1  0
 14 13  1  0
 15 16  2  0
 15 13  1  0
 17 18  1  0
 18 20  1  0
 19 18  2  0
 20 21  1  0
 22 21  1  1
 22 23  1  0
 23 15  1  0
 24 22  1  0
 24 25  1  0
 26 24  2  0
M  END
$$$$
