NNQ.pdb
     RDKit          3D

 26 25  0  0  1  0  0  0  0  0999 V2000
    8.3525  -12.1815   17.5784 N   0  0  0  0  0  0  0  0  0  0  0  0
    7.8318  -13.5036   17.6569 C   0  0  0  0  0  0  0  0  0  0  0  0
    7.9174  -14.2455   16.6552 O   0  0  0  0  0  0  0  0  0  0  0  0
    7.2158  -13.9325   18.9226 C   0  0  0  0  0  0  0  0  0  0  0  0
    8.2847  -14.4242   19.8516 C   0  0  2  0  0  0  0  0  0  0  0  0
    9.0914  -15.4420   19.2507 N   0  0  0  0  0  0  0  0  0  0  0  0
    7.7081  -14.9596   21.1282 C   0  0  0  0  0  0  0  0  0  0  0  0
    6.9618  -14.2018   21.8321 O   0  0  0  0  0  0  0  0  0  0  0  0
    5.9807  -19.0051   20.6639 N   0  0  0  0  0  0  0  0  0  0  0  0
    5.9961  -18.4693   21.9589 C   0  0  0  0  0  0  0  0  0  0  0  0
    4.8989  -18.1587   22.5206 O   0  0  0  0  0  0  0  0  0  0  0  0
    7.2352  -18.2524   22.7040 C   0  0  0  0  0  0  0  0  0  0  0  0
    7.5271  -16.7895   22.8438 C   0  0  2  0  0  0  0  0  0  0  0  0
    7.9876  -16.2812   21.5433 N   0  0  0  0  0  0  0  0  0  0  0  0
    8.6822  -16.5317   23.7671 C   0  0  0  0  0  0  0  0  0  0  0  0
    9.6828  -15.9388   23.3503 O   0  0  0  0  0  0  0  0  0  0  0  0
    6.3180  -12.8390   26.2781 N   0  0  0  0  0  0  0  0  0  0  0  0
    7.4728  -12.7028   27.0645 C   0  0  0  0  0  0  0  0  0  0  0  0
    7.6777  -11.6600   27.7282 O   0  0  0  0  0  0  0  0  0  0  0  0
    8.4742  -13.8028   27.1194 C   0  0  0  0  0  0  0  0  0  0  0  0
    8.1202  -14.8759   26.1515 C   0  0  0  0  0  0  0  0  0  0  0  0
    9.1158  -16.0066   26.1593 C   0  0  2  0  0  0  0  0  0  0  0  0
    8.6556  -16.9579   25.1269 N   0  0  0  0  0  0  0  0  0  0  0  0
    9.0652  -16.6867   27.4697 C   0  0  0  0  0  0  0  0  0  0  0  0
    9.8871  -16.1647   28.4933 O   0  0  0  0  0  0  0  0  0  0  0  0
    8.3366  -17.6845   27.6982 O   0  0  0  0  0  0  0  0  0  0  0  0
  2  1  1  0
  2  3  2  0
  4  2  1  0
  5  7  1  0
  5  4  1  0
  5  6  1  6
  7  8  2  0
 10 11  2  0
 10  9  1  0
 12 10  1  0
 13 12  1  6
 14  7  1  0
 14 13  1  0
 15 16  2  0
 15 13  1  0
 17 18  1  0
 18 20  1  0
 19 18  2  0
 20 21  1  0
 22 21  1  1
 22 23  1  0
 23 15  1  0
 24 22  1  0
 24 25  1  0
 26 24  2  0
M  END
$$$$
