MQI.pdb
     RDKit          3D

 26 25  0  0  1  0  0  0  0  0999 V2000
    7.8844  -12.2588   20.0161 C   0  0  0  0  0  0  0  0  0  0  0  0
    7.3716  -13.1510   18.5101 S   0  0  0  0  0  0  0  0  0  0  0  0
    7.5183  -14.9472   18.7567 C   0  0  0  0  0  0  0  0  0  0  0  0
    6.9635  -15.2534   20.1291 C   0  0  0  0  0  0  0  0  0  0  0  0
    6.9370  -16.7617   20.3834 C   0  0  2  0  0  0  0  0  0  0  0  0
    5.8233  -17.2735   19.6113 N   0  0  0  0  0  0  0  0  0  0  0  0
    6.6841  -16.9312   21.8369 C   0  0  0  0  0  0  0  0  0  0  0  0
    5.5094  -16.8032   22.2621 O   0  0  0  0  0  0  0  0  0  0  0  0
    6.7601  -21.0196   25.5388 N   0  0  0  0  0  0  0  0  0  0  0  0
    7.0481  -20.0850   26.5705 C   0  0  0  0  0  0  0  0  0  0  0  0
    6.8132  -20.4229   27.7534 O   0  0  0  0  0  0  0  0  0  0  0  0
    7.6040  -18.7782   26.1883 C   0  0  0  0  0  0  0  0  0  0  0  0
    7.7521  -18.7132   24.6712 C   0  0  0  0  0  0  0  0  0  0  0  0
    7.4826  -17.2900   24.1813 C   0  0  2  0  0  0  0  0  0  0  0  0
    7.7180  -17.2323   22.7637 N   0  0  0  0  0  0  0  0  0  0  0  0
    8.3033  -16.3338   24.9436 C   0  0  0  0  0  0  0  0  0  0  0  0
    9.5441  -16.2876   24.7112 O   0  0  0  0  0  0  0  0  0  0  0  0
    6.6032  -11.3031   26.1686 C   0  0  0  0  0  0  0  0  0  0  0  0
    7.4483  -12.4940   25.8097 C   0  0  0  0  0  0  0  0  0  0  0  0
    7.9955  -13.2358   26.9743 C   0  0  2  0  0  0  0  0  0  0  0  0
    8.9286  -12.3695   27.8160 C   0  0  0  0  0  0  0  0  0  0  0  0
    8.6338  -14.5448   26.7067 C   0  0  2  0  0  0  0  0  0  0  0  0
    7.8027  -15.4498   25.9308 N   0  0  0  0  0  0  0  0  0  0  0  0
    9.1439  -15.2130   27.9073 C   0  0  0  0  0  0  0  0  0  0  0  0
    8.4927  -16.1268   28.4475 O   0  0  0  0  0  0  0  0  0  0  0  0
   10.3525  -14.8315   28.4499 O   0  0  0  0  0  0  0  0  0  0  0  0
  2  1  1  0
  3  2  1  0
  4  5  1  0
  4  3  1  0
  5  7  1  0
  5  6  1  6
  7  8  2  0
 10 12  1  0
 10  9  1  0
 11 10  2  0
 13 12  1  0
 14 13  1  1
 15 14  1  0
 15  7  1  0
 16 14  1  0
 16 17  2  0
 19 18  1  0
 19 20  1  0
 20 22  1  0
 20 21  1  6
 22 23  1  1
 22 24  1  0
 23 16  1  0
 24 25  2  0
 24 26  1  0
M  END
$$$$
