MQI.pdb
     RDKit          3D

 26 25  0  0  1  0  0  0  0  0999 V2000
    8.4668  -12.3182   19.7390 C   0  0  0  0  0  0  0  0  0  0  0  0
    7.8835  -13.1727   18.2369 S   0  0  0  0  0  0  0  0  0  0  0  0
    7.8056  -14.9680   18.5188 C   0  0  0  0  0  0  0  0  0  0  0  0
    7.1829  -15.1767   19.8803 C   0  0  0  0  0  0  0  0  0  0  0  0
    7.0973  -16.6660   20.2193 C   0  0  2  0  0  0  0  0  0  0  0  0
    6.0601  -17.2071   19.3648 N   0  0  0  0  0  0  0  0  0  0  0  0
    6.6893  -16.7424   21.6451 C   0  0  0  0  0  0  0  0  0  0  0  0
    5.6465  -16.1427   22.0055 O   0  0  0  0  0  0  0  0  0  0  0  0
    7.7745  -21.0320   25.9478 N   0  0  0  0  0  0  0  0  0  0  0  0
    7.2174  -20.0043   26.7568 C   0  0  0  0  0  0  0  0  0  0  0  0
    6.9591  -20.2714   27.9528 O   0  0  0  0  0  0  0  0  0  0  0  0
    6.9777  -18.6898   26.1422 C   0  0  0  0  0  0  0  0  0  0  0  0
    7.3272  -18.7515   24.6584 C   0  0  0  0  0  0  0  0  0  0  0  0
    7.1499  -17.3721   24.0229 C   0  0  2  0  0  0  0  0  0  0  0  0
    7.4318  -17.4669   22.6158 N   0  0  0  0  0  0  0  0  0  0  0  0
    7.9969  -16.3877   24.7176 C   0  0  0  0  0  0  0  0  0  0  0  0
    9.2299  -16.3567   24.4450 O   0  0  0  0  0  0  0  0  0  0  0  0
    5.8312  -11.5903   26.4894 C   0  0  0  0  0  0  0  0  0  0  0  0
    6.8000  -12.5593   25.8700 C   0  0  0  0  0  0  0  0  0  0  0  0
    7.6392  -13.3014   26.8453 C   0  0  2  0  0  0  0  0  0  0  0  0
    8.5940  -12.3774   27.5964 C   0  0  0  0  0  0  0  0  0  0  0  0
    8.3770  -14.4837   26.3452 C   0  0  2  0  0  0  0  0  0  0  0  0
    7.5300  -15.4602   25.6812 N   0  0  0  0  0  0  0  0  0  0  0  0
    9.2167  -15.1311   27.3570 C   0  0  0  0  0  0  0  0  0  0  0  0
    8.7701  -16.0694   28.0434 O   0  0  0  0  0  0  0  0  0  0  0  0
   10.5116  -14.7027   27.5577 O   0  0  0  0  0  0  0  0  0  0  0  0
  2  1  1  0
  3  2  1  0
  4  5  1  0
  4  3  1  0
  5  7  1  0
  5  6  1  6
  7  8  2  0
 10 12  1  0
 10  9  1  0
 11 10  2  0
 13 12  1  0
 14 13  1  1
 15 14  1  0
 15  7  1  0
 16 14  1  0
 16 17  2  0
 19 18  1  0
 19 20  1  0
 20 22  1  0
 20 21  1  6
 22 23  1  1
 22 24  1  0
 23 16  1  0
 24 25  2  0
 24 26  1  0
M  END
$$$$
