MQI.pdb
     RDKit          3D

 26 25  0  0  1  0  0  0  0  0999 V2000
    7.9266  -12.1521   19.7926 C   0  0  0  0  0  0  0  0  0  0  0  0
    8.7612  -13.3652   18.7162 S   0  0  0  0  0  0  0  0  0  0  0  0
    7.6492  -14.7570   18.3486 C   0  0  0  0  0  0  0  0  0  0  0  0
    6.9328  -15.1039   19.6336 C   0  0  0  0  0  0  0  0  0  0  0  0
    7.1295  -16.5791   19.9876 C   0  0  2  0  0  0  0  0  0  0  0  0
    6.2221  -17.3156   19.1315 N   0  0  0  0  0  0  0  0  0  0  0  0
    6.7308  -16.7191   21.4112 C   0  0  0  0  0  0  0  0  0  0  0  0
    5.5553  -16.4229   21.7388 O   0  0  0  0  0  0  0  0  0  0  0  0
    6.2892  -20.7288   26.8452 N   0  0  0  0  0  0  0  0  0  0  0  0
    7.3899  -19.9458   26.4022 C   0  0  0  0  0  0  0  0  0  0  0  0
    8.5385  -20.4348   26.5028 O   0  0  0  0  0  0  0  0  0  0  0  0
    7.1151  -18.6096   25.8528 C   0  0  0  0  0  0  0  0  0  0  0  0
    7.5492  -18.5623   24.3909 C   0  0  0  0  0  0  0  0  0  0  0  0
    7.2771  -17.1740   23.8106 C   0  0  2  0  0  0  0  0  0  0  0  0
    7.6265  -17.1749   22.4155 N   0  0  0  0  0  0  0  0  0  0  0  0
    8.0024  -16.1549   24.5881 C   0  0  0  0  0  0  0  0  0  0  0  0
    9.2252  -15.9637   24.3354 O   0  0  0  0  0  0  0  0  0  0  0  0
    5.1801  -11.8529   26.7408 C   0  0  0  0  0  0  0  0  0  0  0  0
    6.2174  -12.6723   26.0239 C   0  0  0  0  0  0  0  0  0  0  0  0
    7.2390  -13.2867   26.9099 C   0  0  2  0  0  0  0  0  0  0  0  0
    8.0684  -12.2342   27.6406 C   0  0  0  0  0  0  0  0  0  0  0  0
    8.1346  -14.3025   26.3113 C   0  0  2  0  0  0  0  0  0  0  0  0
    7.4276  -15.3618   25.6114 N   0  0  0  0  0  0  0  0  0  0  0  0
    9.1073  -14.8648   27.2524 C   0  0  0  0  0  0  0  0  0  0  0  0
   10.1139  -14.2123   27.5868 O   0  0  0  0  0  0  0  0  0  0  0  0
    8.9143  -16.1260   27.7747 O   0  0  0  0  0  0  0  0  0  0  0  0
  2  1  1  0
  3  2  1  0
  4  5  1  0
  4  3  1  0
  5  7  1  0
  5  6  1  6
  7  8  2  0
 10 12  1  0
 10  9  1  0
 11 10  2  0
 13 12  1  0
 14 13  1  1
 15 14  1  0
 15  7  1  0
 16 14  1  0
 16 17  2  0
 19 18  1  0
 19 20  1  0
 20 22  1  0
 20 21  1  6
 22 23  1  1
 22 24  1  0
 23 16  1  0
 24 25  2  0
 24 26  1  0
M  END
$$$$
