MQI.pdb
     RDKit          3D

 26 25  0  0  1  0  0  0  0  0999 V2000
    8.6459  -11.8546   19.8755 C   0  0  0  0  0  0  0  0  0  0  0  0
    8.0655  -12.5428   18.2892 S   0  0  0  0  0  0  0  0  0  0  0  0
    8.1203  -14.3605   18.3290 C   0  0  0  0  0  0  0  0  0  0  0  0
    7.9137  -14.7793   19.7667 C   0  0  0  0  0  0  0  0  0  0  0  0
    7.9838  -16.3009   19.9078 C   0  0  2  0  0  0  0  0  0  0  0  0
    6.8007  -16.8142   19.2479 N   0  0  0  0  0  0  0  0  0  0  0  0
    7.9309  -16.5836   21.3647 C   0  0  0  0  0  0  0  0  0  0  0  0
    6.8176  -16.5476   21.9446 O   0  0  0  0  0  0  0  0  0  0  0  0
   11.4245  -20.5130   24.4463 N   0  0  0  0  0  0  0  0  0  0  0  0
   10.6807  -19.9754   25.5319 C   0  0  0  0  0  0  0  0  0  0  0  0
   10.7633  -20.5478   26.6428 O   0  0  0  0  0  0  0  0  0  0  0  0
    9.8592  -18.7805   25.2867 C   0  0  0  0  0  0  0  0  0  0  0  0
    9.9166  -18.4197   23.8054 C   0  0  0  0  0  0  0  0  0  0  0  0
    9.0217  -17.2114   23.5277 C   0  0  2  0  0  0  0  0  0  0  0  0
    9.0893  -16.8929   22.1268 N   0  0  0  0  0  0  0  0  0  0  0  0
    9.4131  -16.0880   24.3960 C   0  0  0  0  0  0  0  0  0  0  0  0
   10.4876  -15.4754   24.1390 O   0  0  0  0  0  0  0  0  0  0  0  0
    5.7246  -12.6030   26.4493 C   0  0  0  0  0  0  0  0  0  0  0  0
    6.9675  -13.2131   25.8625 C   0  0  0  0  0  0  0  0  0  0  0  0
    7.9386  -13.7204   26.8654 C   0  0  2  0  0  0  0  0  0  0  0  0
    8.4590  -12.6069   27.7702 C   0  0  0  0  0  0  0  0  0  0  0  0
    9.0731  -14.5288   26.3637 C   0  0  2  0  0  0  0  0  0  0  0  0
    8.6681  -15.6347   25.5124 N   0  0  0  0  0  0  0  0  0  0  0  0
    9.9825  -14.9925   27.4154 C   0  0  0  0  0  0  0  0  0  0  0  0
    9.8295  -16.1140   27.9347 O   0  0  0  0  0  0  0  0  0  0  0  0
   11.0169  -14.1859   27.8398 O   0  0  0  0  0  0  0  0  0  0  0  0
  2  1  1  0
  3  2  1  0
  4  5  1  0
  4  3  1  0
  5  7  1  0
  5  6  1  6
  7  8  2  0
 10 12  1  0
 10  9  1  0
 11 10  2  0
 13 12  1  0
 14 13  1  6
 15 14  1  0
 15  7  1  0
 16 14  1  0
 16 17  2  0
 19 18  1  0
 19 20  1  0
 20 22  1  0
 20 21  1  6
 22 23  1  1
 22 24  1  0
 23 16  1  0
 24 25  2  0
 24 26  1  0
M  END
$$$$
