MQI.pdb
     RDKit          3D

 26 25  0  0  1  0  0  0  0  0999 V2000
    8.9098  -11.6541   19.7183 C   0  0  0  0  0  0  0  0  0  0  0  0
    7.7663  -12.3182   18.4621 S   0  0  0  0  0  0  0  0  0  0  0  0
    7.8927  -14.1312   18.3853 C   0  0  0  0  0  0  0  0  0  0  0  0
    7.7132  -14.6486   19.7941 C   0  0  0  0  0  0  0  0  0  0  0  0
    7.9533  -16.1581   19.8564 C   0  0  2  0  0  0  0  0  0  0  0  0
    6.7735  -16.7703   19.2801 N   0  0  0  0  0  0  0  0  0  0  0  0
    8.0655  -16.4996   21.2973 C   0  0  0  0  0  0  0  0  0  0  0  0
    7.0241  -16.4978   21.9990 O   0  0  0  0  0  0  0  0  0  0  0  0
   12.6087  -19.7598   25.8248 N   0  0  0  0  0  0  0  0  0  0  0  0
   11.3440  -19.6308   25.1886 C   0  0  0  0  0  0  0  0  0  0  0  0
   10.7836  -20.6721   24.7760 O   0  0  0  0  0  0  0  0  0  0  0  0
   10.7692  -18.2839   25.0528 C   0  0  0  0  0  0  0  0  0  0  0  0
   10.6743  -17.9188   23.5745 C   0  0  0  0  0  0  0  0  0  0  0  0
    9.4126  -17.0929   23.3211 C   0  0  2  0  0  0  0  0  0  0  0  0
    9.3038  -16.8279   21.9117 N   0  0  0  0  0  0  0  0  0  0  0  0
    9.4423  -15.8687   24.1394 C   0  0  0  0  0  0  0  0  0  0  0  0
   10.2328  -14.9416   23.8058 O   0  0  0  0  0  0  0  0  0  0  0  0
    6.5212  -11.3071   26.4276 C   0  0  0  0  0  0  0  0  0  0  0  0
    7.6102  -12.2861   26.7694 C   0  0  0  0  0  0  0  0  0  0  0  0
    7.5876  -13.5380   25.9705 C   0  0  2  0  0  0  0  0  0  0  0  0
    6.2796  -14.3046   26.1473 C   0  0  0  0  0  0  0  0  0  0  0  0
    8.7340  -14.4625   26.1241 C   0  0  2  0  0  0  0  0  0  0  0  0
    8.6426  -15.6471   25.2874 N   0  0  0  0  0  0  0  0  0  0  0  0
    9.0164  -14.8321   27.5140 C   0  0  0  0  0  0  0  0  0  0  0  0
    9.3041  -13.9594   28.3545 O   0  0  0  0  0  0  0  0  0  0  0  0
    8.9670  -16.1543   27.9013 O   0  0  0  0  0  0  0  0  0  0  0  0
  2  1  1  0
  3  2  1  0
  4  5  1  0
  4  3  1  0
  5  7  1  0
  5  6  1  1
  7  8  2  0
 10 12  1  0
 10  9  1  0
 11 10  2  0
 13 12  1  0
 14 13  1  6
 15 14  1  0
 15  7  1  0
 16 14  1  0
 16 17  2  0
 19 18  1  0
 19 20  1  0
 20 22  1  0
 20 21  1  1
 22 23  1  6
 22 24  1  0
 23 16  1  0
 24 25  2  0
 24 26  1  0
M  END
$$$$
