MQI.pdb
     RDKit          3D

 26 25  0  0  1  0  0  0  0  0999 V2000
    8.6336  -12.1440   19.8174 C   0  0  0  0  0  0  0  0  0  0  0  0
    7.9968  -13.0141   18.3462 S   0  0  0  0  0  0  0  0  0  0  0  0
    8.0572  -14.8144   18.5990 C   0  0  0  0  0  0  0  0  0  0  0  0
    7.0650  -15.1426   19.6911 C   0  0  0  0  0  0  0  0  0  0  0  0
    7.1360  -16.6239   20.0663 C   0  0  2  0  0  0  0  0  0  0  0  0
    6.1653  -17.2923   19.2238 N   0  0  0  0  0  0  0  0  0  0  0  0
    6.7325  -16.7086   21.4930 C   0  0  0  0  0  0  0  0  0  0  0  0
    5.6051  -16.2675   21.8266 O   0  0  0  0  0  0  0  0  0  0  0  0
    7.7906  -20.9742   25.6782 N   0  0  0  0  0  0  0  0  0  0  0  0
    7.2423  -19.9698   26.5217 C   0  0  0  0  0  0  0  0  0  0  0  0
    6.9647  -20.2800   27.7029 O   0  0  0  0  0  0  0  0  0  0  0  0
    7.0337  -18.6275   25.9581 C   0  0  0  0  0  0  0  0  0  0  0  0
    7.4430  -18.6244   24.4883 C   0  0  0  0  0  0  0  0  0  0  0  0
    7.2262  -17.2343   23.8893 C   0  0  2  0  0  0  0  0  0  0  0  0
    7.5713  -17.2688   22.4936 N   0  0  0  0  0  0  0  0  0  0  0  0
    7.9947  -16.2351   24.6509 C   0  0  0  0  0  0  0  0  0  0  0  0
    9.2479  -16.1956   24.4971 O   0  0  0  0  0  0  0  0  0  0  0  0
    5.5070  -11.5594   26.5727 C   0  0  0  0  0  0  0  0  0  0  0  0
    6.4890  -12.4847   25.9089 C   0  0  0  0  0  0  0  0  0  0  0  0
    7.3800  -13.2147   26.8466 C   0  0  2  0  0  0  0  0  0  0  0  0
    8.2651  -12.2651   27.6493 C   0  0  0  0  0  0  0  0  0  0  0  0
    8.2018  -14.3121   26.2872 C   0  0  2  0  0  0  0  0  0  0  0  0
    7.4301  -15.3020   25.5550 N   0  0  0  0  0  0  0  0  0  0  0  0
    9.0743  -14.9608   27.2701 C   0  0  0  0  0  0  0  0  0  0  0  0
   10.1959  -14.4865   27.5306 O   0  0  0  0  0  0  0  0  0  0  0  0
    8.6578  -16.1063   27.9144 O   0  0  0  0  0  0  0  0  0  0  0  0
  2  1  1  0
  3  2  1  0
  4  5  1  0
  4  3  1  0
  5  7  1  0
  5  6  1  6
  7  8  2  0
 10 12  1  0
 10  9  1  0
 11 10  2  0
 13 12  1  0
 14 13  1  1
 15 14  1  0
 15  7  1  0
 16 14  1  0
 16 17  2  0
 19 18  1  0
 19 20  1  0
 20 22  1  0
 20 21  1  6
 22 23  1  1
 22 24  1  0
 23 16  1  0
 24 25  2  0
 24 26  1  0
M  END
$$$$
