MQI.pdb
     RDKit          3D

 26 25  0  0  1  0  0  0  0  0999 V2000
    8.8537  -11.6830   20.1774 C   0  0  0  0  0  0  0  0  0  0  0  0
    7.9568  -12.4007   18.7606 S   0  0  0  0  0  0  0  0  0  0  0  0
    8.1048  -14.2137   18.7694 C   0  0  0  0  0  0  0  0  0  0  0  0
    7.5929  -14.6941   20.1081 C   0  0  0  0  0  0  0  0  0  0  0  0
    7.7322  -16.2124   20.2332 C   0  0  2  0  0  0  0  0  0  0  0  0
    6.7105  -16.7753   19.3742 N   0  0  0  0  0  0  0  0  0  0  0  0
    7.4533  -16.5371   21.6552 C   0  0  0  0  0  0  0  0  0  0  0  0
    6.2781  -16.4157   22.0808 O   0  0  0  0  0  0  0  0  0  0  0  0
    6.6605  -19.9940   26.1254 N   0  0  0  0  0  0  0  0  0  0  0  0
    6.4246  -19.5979   24.7806 C   0  0  0  0  0  0  0  0  0  0  0  0
    5.2645  -19.2470   24.4652 O   0  0  0  0  0  0  0  0  0  0  0  0
    7.5553  -19.6235   23.8406 C   0  0  0  0  0  0  0  0  0  0  0  0
    8.6223  -18.6355   24.3022 C   0  0  0  0  0  0  0  0  0  0  0  0
    8.2012  -17.2091   23.9468 C   0  0  2  0  0  0  0  0  0  0  0  0
    8.4630  -16.9794   22.5515 N   0  0  0  0  0  0  0  0  0  0  0  0
    8.8862  -16.2497   24.8297 C   0  0  0  0  0  0  0  0  0  0  0  0
   10.1212  -16.0490   24.6563 O   0  0  0  0  0  0  0  0  0  0  0  0
    6.4923  -11.6402   26.1408 C   0  0  0  0  0  0  0  0  0  0  0  0
    7.5233  -12.6786   25.7943 C   0  0  0  0  0  0  0  0  0  0  0  0
    8.1622  -13.3290   26.9669 C   0  0  2  0  0  0  0  0  0  0  0  0
    8.9965  -12.3444   27.7818 C   0  0  0  0  0  0  0  0  0  0  0  0
    8.9446  -14.5611   26.7174 C   0  0  2  0  0  0  0  0  0  0  0  0
    8.2592  -15.5247   25.8727 N   0  0  0  0  0  0  0  0  0  0  0  0
    9.4430  -15.2048   27.9361 C   0  0  0  0  0  0  0  0  0  0  0  0
   10.3065  -14.6462   28.6386 O   0  0  0  0  0  0  0  0  0  0  0  0
    8.9585  -16.4390   28.3137 O   0  0  0  0  0  0  0  0  0  0  0  0
  2  1  1  0
  3  2  1  0
  4  5  1  0
  4  3  1  0
  5  7  1  0
  5  6  1  6
  7  8  2  0
 10 12  1  0
 10  9  1  0
 11 10  2  0
 13 12  1  0
 14 13  1  1
 15 14  1  0
 15  7  1  0
 16 14  1  0
 16 17  2  0
 19 18  1  0
 19 20  1  0
 20 22  1  0
 20 21  1  6
 22 23  1  1
 22 24  1  0
 23 16  1  0
 24 25  2  0
 24 26  1  0
M  END
$$$$
