MQI.pdb
     RDKit          3D

 26 25  0  0  1  0  0  0  0  0999 V2000
    8.9336  -11.3005   19.7049 C   0  0  0  0  0  0  0  0  0  0  0  0
    8.0467  -12.0693   18.3087 S   0  0  0  0  0  0  0  0  0  0  0  0
    8.4029  -13.8516   18.2359 C   0  0  0  0  0  0  0  0  0  0  0  0
    7.9457  -14.4494   19.5468 C   0  0  0  0  0  0  0  0  0  0  0  0
    8.3634  -15.9171   19.6529 C   0  0  2  0  0  0  0  0  0  0  0  0
    7.3999  -16.6604   18.8669 N   0  0  0  0  0  0  0  0  0  0  0  0
    8.2506  -16.2760   21.0895 C   0  0  0  0  0  0  0  0  0  0  0  0
    7.1342  -16.1605   21.6527 O   0  0  0  0  0  0  0  0  0  0  0  0
   11.7030  -20.3729   24.1406 N   0  0  0  0  0  0  0  0  0  0  0  0
   10.9661  -19.8412   25.2337 C   0  0  0  0  0  0  0  0  0  0  0  0
   11.0841  -20.3975   26.3495 O   0  0  0  0  0  0  0  0  0  0  0  0
   10.1097  -18.6706   24.9900 C   0  0  0  0  0  0  0  0  0  0  0  0
   10.1816  -18.2868   23.5151 C   0  0  0  0  0  0  0  0  0  0  0  0
    9.2271  -17.1265   23.2309 C   0  0  2  0  0  0  0  0  0  0  0  0
    9.3552  -16.7445   21.8504 N   0  0  0  0  0  0  0  0  0  0  0  0
    9.4926  -16.0190   24.1648 C   0  0  0  0  0  0  0  0  0  0  0  0
   10.6131  -15.4387   24.1062 O   0  0  0  0  0  0  0  0  0  0  0  0
    5.5784  -12.9122   27.3125 C   0  0  0  0  0  0  0  0  0  0  0  0
    6.5519  -14.0010   26.9544 C   0  0  0  0  0  0  0  0  0  0  0  0
    7.7910  -13.5258   26.2874 C   0  0  2  0  0  0  0  0  0  0  0  0
    7.4952  -12.8316   24.9607 C   0  0  0  0  0  0  0  0  0  0  0  0
    8.8837  -14.5084   26.1053 C   0  0  2  0  0  0  0  0  0  0  0  0
    8.5765  -15.5476   25.1371 N   0  0  0  0  0  0  0  0  0  0  0  0
    9.3687  -15.0957   27.3574 C   0  0  0  0  0  0  0  0  0  0  0  0
    9.2323  -16.3135   27.5793 O   0  0  0  0  0  0  0  0  0  0  0  0
    9.9802  -14.3001   28.3028 O   0  0  0  0  0  0  0  0  0  0  0  0
  2  1  1  0
  3  2  1  0
  4  5  1  0
  4  3  1  0
  5  7  1  0
  5  6  1  6
  7  8  2  0
 10 12  1  0
 10  9  1  0
 11 10  2  0
 13 12  1  0
 14 13  1  1
 15 14  1  0
 15  7  1  0
 16 14  1  0
 16 17  2  0
 19 18  1  0
 19 20  1  0
 20 22  1  0
 20 21  1  6
 22 23  1  6
 22 24  1  0
 23 16  1  0
 24 25  2  0
 24 26  1  0
M  END
$$$$
