MQI.pdb
     RDKit          3D

 26 25  0  0  1  0  0  0  0  0999 V2000
    9.4952  -12.1632   19.0267 C   0  0  0  0  0  0  0  0  0  0  0  0
    7.8205  -12.2599   18.3105 S   0  0  0  0  0  0  0  0  0  0  0  0
    7.3431  -13.9952   18.0470 C   0  0  0  0  0  0  0  0  0  0  0  0
    7.2986  -14.6545   19.4065 C   0  0  0  0  0  0  0  0  0  0  0  0
    8.7021  -14.7689   20.0042 C   0  0  2  0  0  0  0  0  0  0  0  0
    9.4590  -15.5907   19.0819 N   0  0  0  0  0  0  0  0  0  0  0  0
    8.5410  -15.4626   21.3073 C   0  0  0  0  0  0  0  0  0  0  0  0
    7.5484  -15.1778   22.0219 O   0  0  0  0  0  0  0  0  0  0  0  0
   10.9034  -20.7219   23.2745 N   0  0  0  0  0  0  0  0  0  0  0  0
   10.6451  -20.1548   24.5522 C   0  0  0  0  0  0  0  0  0  0  0  0
   10.6676  -20.9134   25.5485 O   0  0  0  0  0  0  0  0  0  0  0  0
   10.3672  -18.7126   24.6285 C   0  0  0  0  0  0  0  0  0  0  0  0
   10.4239  -18.1095   23.2283 C   0  0  0  0  0  0  0  0  0  0  0  0
    9.3684  -17.0118   23.0899 C   0  0  2  0  0  0  0  0  0  0  0  0
    9.4648  -16.4349   21.7761 N   0  0  0  0  0  0  0  0  0  0  0  0
    9.5295  -16.0229   24.1694 C   0  0  0  0  0  0  0  0  0  0  0  0
   10.4518  -15.1659   24.0669 O   0  0  0  0  0  0  0  0  0  0  0  0
    6.6251  -11.6851   26.7476 C   0  0  0  0  0  0  0  0  0  0  0  0
    7.7114  -12.6890   27.0185 C   0  0  0  0  0  0  0  0  0  0  0  0
    7.6817  -13.8835   26.1362 C   0  0  2  0  0  0  0  0  0  0  0  0
    6.3309  -14.5927   26.1805 C   0  0  0  0  0  0  0  0  0  0  0  0
    8.7717  -14.8730   26.2958 C   0  0  2  0  0  0  0  0  0  0  0  0
    8.7195  -15.9572   25.3297 N   0  0  0  0  0  0  0  0  0  0  0  0
    8.9005  -15.3998   27.6574 C   0  0  0  0  0  0  0  0  0  0  0  0
    8.6649  -16.5991   27.8964 O   0  0  0  0  0  0  0  0  0  0  0  0
    9.2833  -14.5672   28.6874 O   0  0  0  0  0  0  0  0  0  0  0  0
  2  1  1  0
  3  2  1  0
  4  5  1  0
  4  3  1  0
  5  7  1  0
  5  6  1  6
  7  8  2  0
 10 12  1  0
 10  9  1  0
 11 10  2  0
 13 12  1  0
 14 13  1  1
 15 14  1  0
 15  7  1  0
 16 14  1  0
 16 17  2  0
 19 18  1  0
 19 20  1  0
 20 22  1  0
 20 21  1  1
 22 23  1  6
 22 24  1  0
 23 16  1  0
 24 25  2  0
 24 26  1  0
M  END
$$$$
