MNE.pdb
     RDKit          3D

 26 25  0  0  1  0  0  0  0  0999 V2000
    7.6594  -11.5302   27.9995 C   0  0  0  0  0  0  0  0  0  0  0  0
    6.5375  -12.0789   26.6792 S   0  0  0  0  0  0  0  0  0  0  0  0
    6.0539  -13.8177   26.8979 C   0  0  0  0  0  0  0  0  0  0  0  0
    6.1475  -14.5742   25.5926 C   0  0  0  0  0  0  0  0  0  0  0  0
    7.4699  -15.2928   25.4565 C   0  0  2  0  0  0  0  0  0  0  0  0
    8.5211  -14.2996   25.5564 N   0  0  0  0  0  0  0  0  0  0  0  0
    7.5534  -15.9147   24.1113 C   0  0  0  0  0  0  0  0  0  0  0  0
    6.4797  -16.3103   23.5531 O   0  0  0  0  0  0  0  0  0  0  0  0
    7.2363  -13.8251   19.5775 N   0  0  0  0  0  0  0  0  0  0  0  0
    8.3300  -13.9052   20.4730 C   0  0  0  0  0  0  0  0  0  0  0  0
    9.4688  -13.5017   20.0834 O   0  0  0  0  0  0  0  0  0  0  0  0
    8.1238  -14.4535   21.8432 C   0  0  0  0  0  0  0  0  0  0  0  0
    8.8949  -15.7161   22.0572 C   0  0  2  0  0  0  0  0  0  0  0  0
    8.8052  -16.0685   23.4526 N   0  0  0  0  0  0  0  0  0  0  0  0
   10.3143  -15.6353   21.6036 C   0  0  0  0  0  0  0  0  0  0  0  0
   10.6343  -15.7230   20.3904 O   0  0  0  0  0  0  0  0  0  0  0  0
   11.3776  -15.4550   22.5299 N   0  0  0  0  0  0  0  0  0  0  0  0
   12.1000  -16.6179   23.1057 C   0  0  1  0  0  0  0  0  0  0  0  0
   11.1640  -17.4436   23.9169 C   0  0  0  0  0  0  0  0  0  0  0  0
   11.8376  -17.9473   25.1659 C   0  0  0  0  0  0  0  0  0  0  0  0
   10.8294  -18.5254   26.1143 C   0  0  0  0  0  0  0  0  0  0  0  0
   10.1985  -19.5354   25.7746 O   0  0  0  0  0  0  0  0  0  0  0  0
   12.7430  -17.3054   21.9850 C   0  0  0  0  0  0  0  0  0  0  0  0
   14.1050  -17.3445   21.7867 O   0  0  0  0  0  0  0  0  0  0  0  0
   10.6312  -17.9219   27.3327 O   0  0  0  0  0  0  0  0  0  0  0  0
   12.0512  -17.9209   21.1064 O   0  0  0  0  0  0  0  0  0  0  0  0
  1  2  1  0
  2  3  1  0
  3  4  1  0
  4  5  1  0
  5  7  1  0
  5  6  1  6
  7 14  1  0
  7  8  2  0
  9 10  1  0
 10 11  2  0
 12 10  1  0
 13 12  1  1
 14 13  1  0
 15 16  2  0
 15 13  1  0
 17 15  1  0
 18 17  1  0
 18 19  1  6
 20 21  1  0
 20 19  1  0
 21 25  1  0
 22 21  2  0
 23 18  1  0
 24 23  1  0
 26 23  2  0
M  END
$$$$
