MNE.pdb
     RDKit          3D

 26 25  0  0  1  0  0  0  0  0999 V2000
    6.4128  -10.7888   27.2188 C   0  0  0  0  0  0  0  0  0  0  0  0
    7.0904  -11.8693   25.9241 S   0  0  0  0  0  0  0  0  0  0  0  0
    5.7891  -12.8747   25.1491 C   0  0  0  0  0  0  0  0  0  0  0  0
    6.3560  -13.7360   24.0439 C   0  0  0  0  0  0  0  0  0  0  0  0
    6.6131  -15.1494   24.5127 C   0  0  2  0  0  0  0  0  0  0  0  0
    7.5453  -15.0812   25.6207 N   0  0  0  0  0  0  0  0  0  0  0  0
    7.2571  -15.9189   23.4188 C   0  0  0  0  0  0  0  0  0  0  0  0
    6.6163  -16.0893   22.3319 O   0  0  0  0  0  0  0  0  0  0  0  0
    8.9845  -15.6341   19.5316 N   0  0  0  0  0  0  0  0  0  0  0  0
    8.6149  -14.8976   20.6829 C   0  0  0  0  0  0  0  0  0  0  0  0
    7.5759  -14.1698   20.6343 O   0  0  0  0  0  0  0  0  0  0  0  0
    9.4432  -14.9930   21.9180 C   0  0  0  0  0  0  0  0  0  0  0  0
    9.4746  -16.3864   22.4584 C   0  0  2  0  0  0  0  0  0  0  0  0
    8.5646  -16.4579   23.5748 N   0  0  0  0  0  0  0  0  0  0  0  0
   10.8413  -16.8517   22.8361 C   0  0  0  0  0  0  0  0  0  0  0  0
   11.8209  -16.7537   22.0533 O   0  0  0  0  0  0  0  0  0  0  0  0
   11.0997  -17.4322   24.1078 N   0  0  0  0  0  0  0  0  0  0  0  0
   12.4796  -17.7949   24.5204 C   0  0  1  0  0  0  0  0  0  0  0  0
   12.5382  -17.9611   25.9985 C   0  0  0  0  0  0  0  0  0  0  0  0
   11.6306  -19.0749   26.4495 C   0  0  0  0  0  0  0  0  0  0  0  0
   11.7853  -19.3205   27.9212 C   0  0  0  0  0  0  0  0  0  0  0  0
   12.8465  -19.8028   28.3392 O   0  0  0  0  0  0  0  0  0  0  0  0
   12.8533  -18.9720   23.7351 C   0  0  0  0  0  0  0  0  0  0  0  0
   14.1511  -19.3947   23.5539 O   0  0  0  0  0  0  0  0  0  0  0  0
   10.7489  -19.0055   28.7665 O   0  0  0  0  0  0  0  0  0  0  0  0
   11.9668  -19.6872   23.1589 O   0  0  0  0  0  0  0  0  0  0  0  0
  1  2  1  0
  2  3  1  0
  3  4  1  0
  4  5  1  0
  5  7  1  0
  5  6  1  1
  7 14  1  0
  7  8  2  0
  9 10  1  0
 10 11  2  0
 12 10  1  0
 13 12  1  1
 14 13  1  0
 15 16  2  0
 15 13  1  0
 17 15  1  0
 18 17  1  0
 18 19  1  1
 20 21  1  0
 20 19  1  0
 21 25  1  0
 22 21  2  0
 23 18  1  0
 24 23  1  0
 26 23  2  0
M  END
$$$$
