MNE.pdb
     RDKit          3D

 26 25  0  0  1  0  0  0  0  0999 V2000
    5.8128  -12.0744   28.0380 C   0  0  0  0  0  0  0  0  0  0  0  0
    7.1284  -12.4772   26.8507 S   0  0  0  0  0  0  0  0  0  0  0  0
    6.4854  -12.5724   25.1529 C   0  0  0  0  0  0  0  0  0  0  0  0
    6.3368  -14.0099   24.7098 C   0  0  0  0  0  0  0  0  0  0  0  0
    7.6635  -14.6106   24.3067 C   0  0  2  0  0  0  0  0  0  0  0  0
    8.6470  -13.5457   24.3126 N   0  0  0  0  0  0  0  0  0  0  0  0
    7.5635  -15.1343   22.9214 C   0  0  0  0  0  0  0  0  0  0  0  0
    6.8222  -16.1460   22.7024 O   0  0  0  0  0  0  0  0  0  0  0  0
    8.9228  -11.9864   19.6201 N   0  0  0  0  0  0  0  0  0  0  0  0
    9.0967  -13.3304   19.2104 C   0  0  0  0  0  0  0  0  0  0  0  0
   10.1667  -13.6512   18.6074 O   0  0  0  0  0  0  0  0  0  0  0  0
    8.0315  -14.3329   19.4953 C   0  0  0  0  0  0  0  0  0  0  0  0
    8.4148  -15.2465   20.6147 C   0  0  2  0  0  0  0  0  0  0  0  0
    8.2789  -14.5226   21.8544 N   0  0  0  0  0  0  0  0  0  0  0  0
    9.7799  -15.8316   20.4697 C   0  0  0  0  0  0  0  0  0  0  0  0
   10.1103  -16.5175   19.4685 O   0  0  0  0  0  0  0  0  0  0  0  0
   10.7765  -15.6393   21.4652 N   0  0  0  0  0  0  0  0  0  0  0  0
   12.1440  -16.1946   21.3003 C   0  0  1  0  0  0  0  0  0  0  0  0
   13.0381  -15.1670   20.6999 C   0  0  0  0  0  0  0  0  0  0  0  0
   13.3771  -15.5174   19.2751 C   0  0  0  0  0  0  0  0  0  0  0  0
   14.4417  -14.6036   18.7445 C   0  0  0  0  0  0  0  0  0  0  0  0
   15.4683  -14.4280   19.4145 O   0  0  0  0  0  0  0  0  0  0  0  0
   12.5499  -16.6988   22.6130 C   0  0  0  0  0  0  0  0  0  0  0  0
   13.7473  -17.3337   22.8558 O   0  0  0  0  0  0  0  0  0  0  0  0
   14.2522  -13.9854   17.5321 O   0  0  0  0  0  0  0  0  0  0  0  0
   11.7891  -16.5728   23.6302 O   0  0  0  0  0  0  0  0  0  0  0  0
  1  2  1  0
  2  3  1  0
  3  4  1  0
  4  5  1  0
  5  7  1  0
  5  6  1  6
  7 14  1  0
  7  8  2  0
  9 10  1  0
 10 11  2  0
 12 10  1  0
 13 12  1  6
 14 13  1  0
 15 16  2  0
 15 13  1  0
 17 15  1  0
 18 17  1  0
 18 19  1  1
 20 21  1  0
 20 19  1  0
 21 25  1  0
 22 21  2  0
 23 18  1  0
 24 23  1  0
 26 23  2  0
M  END
$$$$
