MNE.pdb
     RDKit          3D

 26 25  0  0  1  0  0  0  0  0999 V2000
    7.3509  -11.9099   21.2736 C   0  0  0  0  0  0  0  0  0  0  0  0
    7.9927  -11.5791   19.6058 S   0  0  0  0  0  0  0  0  0  0  0  0
    7.9129  -13.0617   18.5568 C   0  0  0  0  0  0  0  0  0  0  0  0
    8.1941  -14.3102   19.3611 C   0  0  0  0  0  0  0  0  0  0  0  0
    9.6250  -14.7686   19.1998 C   0  0  2  0  0  0  0  0  0  0  0  0
    9.7795  -15.2552   17.8431 N   0  0  0  0  0  0  0  0  0  0  0  0
    9.8842  -15.9002   20.1248 C   0  0  0  0  0  0  0  0  0  0  0  0
    9.6338  -15.7468   21.3637 O   0  0  0  0  0  0  0  0  0  0  0  0
    9.0932  -20.0533   18.1585 N   0  0  0  0  0  0  0  0  0  0  0  0
    9.3085  -19.6946   19.5110 C   0  0  0  0  0  0  0  0  0  0  0  0
    8.3042  -19.5759   20.2784 O   0  0  0  0  0  0  0  0  0  0  0  0
   10.6969  -19.4688   20.0031 C   0  0  0  0  0  0  0  0  0  0  0  0
   10.8583  -18.1094   20.6034 C   0  0  2  0  0  0  0  0  0  0  0  0
   10.4017  -17.1351   19.6434 N   0  0  0  0  0  0  0  0  0  0  0  0
   12.2487  -17.8174   21.0600 C   0  0  0  0  0  0  0  0  0  0  0  0
   12.9419  -18.6666   21.6768 O   0  0  0  0  0  0  0  0  0  0  0  0
   12.8572  -16.5557   20.8172 N   0  0  0  0  0  0  0  0  0  0  0  0
   14.3075  -16.3437   21.0570 C   0  0  1  0  0  0  0  0  0  0  0  0
   14.8740  -15.4718   19.9918 C   0  0  0  0  0  0  0  0  0  0  0  0
   16.3255  -15.1726   20.2588 C   0  0  0  0  0  0  0  0  0  0  0  0
   16.8875  -14.2822   19.1905 C   0  0  0  0  0  0  0  0  0  0  0  0
   16.2197  -13.3122   18.8073 O   0  0  0  0  0  0  0  0  0  0  0  0
   14.4339  -15.8371   22.4243 C   0  0  0  0  0  0  0  0  0  0  0  0
   15.6155  -15.8186   23.1310 O   0  0  0  0  0  0  0  0  0  0  0  0
   18.1253  -14.5639   18.6649 O   0  0  0  0  0  0  0  0  0  0  0  0
   13.4225  -15.3743   23.0506 O   0  0  0  0  0  0  0  0  0  0  0  0
  1  2  1  0
  2  3  1  0
  3  4  1  0
  4  5  1  0
  5  7  1  0
  5  6  1  6
  7 14  1  0
  7  8  2  0
  9 10  1  0
 10 11  2  0
 12 10  1  0
 13 12  1  6
 14 13  1  0
 15 16  2  0
 15 13  1  0
 17 15  1  0
 18 17  1  0
 18 19  1  6
 20 21  1  0
 20 19  1  0
 21 25  1  0
 22 21  2  0
 23 18  1  0
 24 23  1  0
 26 23  2  0
M  END
$$$$
