MNE.pdb
     RDKit          3D

 26 25  0  0  1  0  0  0  0  0999 V2000
    5.6885  -12.1899   27.1955 C   0  0  0  0  0  0  0  0  0  0  0  0
    6.5533  -12.6781   25.6735 S   0  0  0  0  0  0  0  0  0  0  0  0
    7.7236  -14.0352   25.9800 C   0  0  0  0  0  0  0  0  0  0  0  0
    6.9943  -15.3425   26.1892 C   0  0  0  0  0  0  0  0  0  0  0  0
    6.4389  -15.8864   24.8933 C   0  0  2  0  0  0  0  0  0  0  0  0
    5.8034  -17.1558   25.1869 N   0  0  0  0  0  0  0  0  0  0  0  0
    7.5563  -16.1408   23.9499 C   0  0  0  0  0  0  0  0  0  0  0  0
    8.3343  -17.1234   24.1745 O   0  0  0  0  0  0  0  0  0  0  0  0
    6.6642  -13.6666   20.0059 N   0  0  0  0  0  0  0  0  0  0  0  0
    7.5419  -14.7743   20.0898 C   0  0  0  0  0  0  0  0  0  0  0  0
    7.1974  -15.8686   19.5462 O   0  0  0  0  0  0  0  0  0  0  0  0
    8.8417  -14.6341   20.8050 C   0  0  0  0  0  0  0  0  0  0  0  0
    8.9217  -15.5386   21.9925 C   0  0  2  0  0  0  0  0  0  0  0  0
    7.7598  -15.3075   22.8147 N   0  0  0  0  0  0  0  0  0  0  0  0
   10.1837  -15.3898   22.7748 C   0  0  0  0  0  0  0  0  0  0  0  0
   10.3024  -14.5434   23.6976 O   0  0  0  0  0  0  0  0  0  0  0  0
   11.3185  -16.2041   22.5098 N   0  0  0  0  0  0  0  0  0  0  0  0
   12.3539  -16.4401   23.5481 C   0  0  1  0  0  0  0  0  0  0  0  0
   11.7296  -17.0448   24.7565 C   0  0  0  0  0  0  0  0  0  0  0  0
   12.7753  -17.3965   25.7815 C   0  0  0  0  0  0  0  0  0  0  0  0
   12.1598  -18.1339   26.9336 C   0  0  0  0  0  0  0  0  0  0  0  0
   10.9570  -18.4247   26.8843 O   0  0  0  0  0  0  0  0  0  0  0  0
   13.4065  -17.2348   22.9136 C   0  0  0  0  0  0  0  0  0  0  0  0
   14.6953  -17.3237   23.3900 O   0  0  0  0  0  0  0  0  0  0  0  0
   12.9432  -18.4674   28.0121 O   0  0  0  0  0  0  0  0  0  0  0  0
   13.1755  -17.9049   21.8520 O   0  0  0  0  0  0  0  0  0  0  0  0
  1  2  1  0
  2  3  1  0
  3  4  1  0
  4  5  1  0
  5  7  1  0
  5  6  1  1
  7 14  1  0
  7  8  2  0
  9 10  1  0
 10 11  2  0
 12 10  1  0
 13 12  1  6
 14 13  1  0
 15 16  2  0
 15 13  1  0
 17 15  1  0
 18 17  1  0
 18 19  1  1
 20 21  1  0
 20 19  1  0
 21 25  1  0
 22 21  2  0
 23 18  1  0
 24 23  1  0
 26 23  2  0
M  END
$$$$
