MNE.pdb
     RDKit          3D

 26 25  0  0  1  0  0  0  0  0999 V2000
    8.3452  -11.3780   20.1773 C   0  0  0  0  0  0  0  0  0  0  0  0
    7.5901  -12.3923   18.8720 S   0  0  0  0  0  0  0  0  0  0  0  0
    8.2398  -14.0901   18.8900 C   0  0  0  0  0  0  0  0  0  0  0  0
    8.4793  -14.5635   20.3054 C   0  0  0  0  0  0  0  0  0  0  0  0
    9.1891  -15.8972   20.3364 C   0  0  2  0  0  0  0  0  0  0  0  0
    8.4297  -16.8174   19.5130 N   0  0  0  0  0  0  0  0  0  0  0  0
    9.1902  -16.4195   21.7258 C   0  0  0  0  0  0  0  0  0  0  0  0
    9.7187  -15.7132   22.6439 O   0  0  0  0  0  0  0  0  0  0  0  0
    5.5407  -18.8677   22.3952 N   0  0  0  0  0  0  0  0  0  0  0  0
    6.3598  -18.5805   23.5138 C   0  0  0  0  0  0  0  0  0  0  0  0
    5.9198  -17.7921   24.4062 O   0  0  0  0  0  0  0  0  0  0  0  0
    7.7080  -19.2060   23.6218 C   0  0  0  0  0  0  0  0  0  0  0  0
    8.7998  -18.2195   23.3585 C   0  0  2  0  0  0  0  0  0  0  0  0
    8.6135  -17.6834   22.0329 N   0  0  0  0  0  0  0  0  0  0  0  0
   10.1708  -18.7824   23.5333 C   0  0  0  0  0  0  0  0  0  0  0  0
   10.5001  -19.8998   23.0588 O   0  0  0  0  0  0  0  0  0  0  0  0
   11.1745  -18.0758   24.2504 N   0  0  0  0  0  0  0  0  0  0  0  0
   12.5539  -18.6129   24.3714 C   0  0  1  0  0  0  0  0  0  0  0  0
   13.4686  -17.8663   23.4649 C   0  0  0  0  0  0  0  0  0  0  0  0
   13.6713  -16.4554   23.9506 C   0  0  0  0  0  0  0  0  0  0  0  0
   14.6114  -15.7145   23.0465 C   0  0  0  0  0  0  0  0  0  0  0  0
   15.7912  -15.5735   23.3957 O   0  0  0  0  0  0  0  0  0  0  0  0
   12.8953  -18.5674   25.7939 C   0  0  0  0  0  0  0  0  0  0  0  0
   13.9975  -19.1860   26.3400 O   0  0  0  0  0  0  0  0  0  0  0  0
   14.1419  -15.2118   21.8571 O   0  0  0  0  0  0  0  0  0  0  0  0
   12.1640  -17.9333   26.6261 O   0  0  0  0  0  0  0  0  0  0  0  0
  1  2  1  0
  2  3  1  0
  3  4  1  0
  4  5  1  0
  5  7  1  0
  5  6  1  6
  7 14  1  0
  7  8  2  0
  9 10  1  0
 10 11  2  0
 12 10  1  0
 13 12  1  6
 14 13  1  0
 15 16  2  0
 15 13  1  0
 17 15  1  0
 18 17  1  0
 18 19  1  6
 20 21  1  0
 20 19  1  0
 21 25  1  0
 22 21  2  0
 23 18  1  0
 24 23  1  0
 26 23  2  0
M  END
$$$$
