MNE.pdb
     RDKit          3D

 26 25  0  0  1  0  0  0  0  0999 V2000
    7.2263  -10.8910   26.8183 C   0  0  0  0  0  0  0  0  0  0  0  0
    5.7037  -11.8670   26.9975 S   0  0  0  0  0  0  0  0  0  0  0  0
    5.9267  -13.5646   26.3866 C   0  0  0  0  0  0  0  0  0  0  0  0
    6.4017  -13.5660   24.9516 C   0  0  0  0  0  0  0  0  0  0  0  0
    6.4467  -14.9637   24.3790 C   0  0  2  0  0  0  0  0  0  0  0  0
    7.2346  -15.7816   25.2799 N   0  0  0  0  0  0  0  0  0  0  0  0
    7.1376  -14.9330   23.0655 C   0  0  0  0  0  0  0  0  0  0  0  0
    6.5538  -14.3760   22.0806 O   0  0  0  0  0  0  0  0  0  0  0  0
    7.1827  -12.6594   20.2472 N   0  0  0  0  0  0  0  0  0  0  0  0
    8.1087  -13.7203   20.1014 C   0  0  0  0  0  0  0  0  0  0  0  0
    8.0827  -14.4113   19.0367 O   0  0  0  0  0  0  0  0  0  0  0  0
    9.0884  -14.0002   21.1888 C   0  0  0  0  0  0  0  0  0  0  0  0
    9.0568  -15.4346   21.6083 C   0  0  2  0  0  0  0  0  0  0  0  0
    8.4270  -15.5122   22.9032 N   0  0  0  0  0  0  0  0  0  0  0  0
   10.3988  -16.0872   21.6127 C   0  0  0  0  0  0  0  0  0  0  0  0
   11.2283  -15.9161   20.6828 O   0  0  0  0  0  0  0  0  0  0  0  0
   10.8033  -16.9393   22.6763 N   0  0  0  0  0  0  0  0  0  0  0  0
   12.2315  -17.2957   22.8741 C   0  0  1  0  0  0  0  0  0  0  0  0
   12.4974  -17.5350   24.3191 C   0  0  0  0  0  0  0  0  0  0  0  0
   11.2142  -17.7838   25.0667 C   0  0  0  0  0  0  0  0  0  0  0  0
   11.4904  -18.0578   26.5154 C   0  0  0  0  0  0  0  0  0  0  0  0
   10.5748  -18.4914   27.2277 O   0  0  0  0  0  0  0  0  0  0  0  0
   12.5062  -18.4244   21.9838 C   0  0  0  0  0  0  0  0  0  0  0  0
   11.5510  -19.0408   21.2071 O   0  0  0  0  0  0  0  0  0  0  0  0
   12.7484  -17.8214   27.0149 O   0  0  0  0  0  0  0  0  0  0  0  0
   13.6821  -18.9103   21.8812 O   0  0  0  0  0  0  0  0  0  0  0  0
  1  2  1  0
  2  3  1  0
  3  4  1  0
  4  5  1  0
  5  7  1  0
  5  6  1  1
  7 14  1  0
  7  8  2  0
  9 10  1  0
 10 11  2  0
 12 10  1  0
 13 12  1  1
 14 13  1  0
 15 16  2  0
 15 13  1  0
 17 15  1  0
 18 17  1  0
 18 19  1  1
 20 21  1  0
 20 19  1  0
 21 25  1  0
 22 21  2  0
 23 18  1  0
 24 23  1  0
 26 23  2  0
M  END
$$$$
