MNE.pdb
     RDKit          3D

 26 25  0  0  1  0  0  0  0  0999 V2000
    8.1811  -11.9744   27.5795 C   0  0  0  0  0  0  0  0  0  0  0  0
    6.5311  -11.5763   26.9298 S   0  0  0  0  0  0  0  0  0  0  0  0
    5.8514  -12.9513   25.9540 C   0  0  0  0  0  0  0  0  0  0  0  0
    6.9334  -13.6266   25.1427 C   0  0  0  0  0  0  0  0  0  0  0  0
    6.3884  -14.7829   24.3368 C   0  0  2  0  0  0  0  0  0  0  0  0
    5.9473  -15.7995   25.2713 N   0  0  0  0  0  0  0  0  0  0  0  0
    7.4780  -15.3613   23.5113 C   0  0  0  0  0  0  0  0  0  0  0  0
    7.9670  -16.4880   23.8470 O   0  0  0  0  0  0  0  0  0  0  0  0
    7.4828  -13.0454   19.2587 N   0  0  0  0  0  0  0  0  0  0  0  0
    7.9792  -14.3371   19.5580 C   0  0  0  0  0  0  0  0  0  0  0  0
    7.3422  -15.3495   19.1329 O   0  0  0  0  0  0  0  0  0  0  0  0
    9.2296  -14.4810   20.3559 C   0  0  0  0  0  0  0  0  0  0  0  0
    9.0110  -15.3008   21.5866 C   0  0  2  0  0  0  0  0  0  0  0  0
    7.9710  -14.6761   22.3660 N   0  0  0  0  0  0  0  0  0  0  0  0
   10.2482  -15.5110   22.3940 C   0  0  0  0  0  0  0  0  0  0  0  0
   11.1633  -14.6499   22.4513 O   0  0  0  0  0  0  0  0  0  0  0  0
   10.4506  -16.7039   23.1403 N   0  0  0  0  0  0  0  0  0  0  0  0
   11.6425  -16.8729   24.0100 C   0  0  1  0  0  0  0  0  0  0  0  0
   11.3902  -17.9455   25.0109 C   0  0  0  0  0  0  0  0  0  0  0  0
   12.6114  -18.1864   25.8585 C   0  0  0  0  0  0  0  0  0  0  0  0
   12.3749  -19.3143   26.8186 C   0  0  0  0  0  0  0  0  0  0  0  0
   11.5998  -19.1393   27.7685 O   0  0  0  0  0  0  0  0  0  0  0  0
   12.7813  -17.0941   23.1176 C   0  0  0  0  0  0  0  0  0  0  0  0
   14.0393  -16.5780   23.3345 O   0  0  0  0  0  0  0  0  0  0  0  0
   13.0223  -20.5101   26.6215 O   0  0  0  0  0  0  0  0  0  0  0  0
   12.6608  -17.7972   22.0591 O   0  0  0  0  0  0  0  0  0  0  0  0
  1  2  1  0
  2  3  1  0
  3  4  1  0
  4  5  1  0
  5  7  1  0
  5  6  1  1
  7 14  1  0
  7  8  2  0
  9 10  1  0
 10 11  2  0
 12 10  1  0
 13 12  1  6
 14 13  1  0
 15 16  2  0
 15 13  1  0
 17 15  1  0
 18 17  1  0
 18 19  1  1
 20 21  1  0
 20 19  1  0
 21 25  1  0
 22 21  2  0
 23 18  1  0
 24 23  1  0
 26 23  2  0
M  END
$$$$
