MNE.pdb
     RDKit          3D

 26 25  0  0  1  0  0  0  0  0999 V2000
    7.5787  -11.7922   26.6855 C   0  0  0  0  0  0  0  0  0  0  0  0
    7.0437  -13.2822   27.5781 S   0  0  0  0  0  0  0  0  0  0  0  0
    7.4468  -14.7931   26.6510 C   0  0  0  0  0  0  0  0  0  0  0  0
    6.8331  -14.7612   25.2700 C   0  0  0  0  0  0  0  0  0  0  0  0
    6.3544  -16.1282   24.8392 C   0  0  2  0  0  0  0  0  0  0  0  0
    6.5917  -17.0426   25.9388 N   0  0  0  0  0  0  0  0  0  0  0  0
    7.1601  -16.5867   23.6800 C   0  0  0  0  0  0  0  0  0  0  0  0
    7.4993  -17.8124   23.6178 O   0  0  0  0  0  0  0  0  0  0  0  0
    9.1162  -15.0236   18.2410 N   0  0  0  0  0  0  0  0  0  0  0  0
    8.2649  -15.8530   19.0101 C   0  0  0  0  0  0  0  0  0  0  0  0
    7.9876  -17.0132   18.5756 O   0  0  0  0  0  0  0  0  0  0  0  0
    7.7189  -15.3537   20.3036 C   0  0  0  0  0  0  0  0  0  0  0  0
    8.1370  -16.2151   21.4516 C   0  0  2  0  0  0  0  0  0  0  0  0
    7.5490  -15.6802   22.6547 N   0  0  0  0  0  0  0  0  0  0  0  0
    9.6162  -16.3607   21.5836 C   0  0  0  0  0  0  0  0  0  0  0  0
   10.3323  -16.7903   20.6430 O   0  0  0  0  0  0  0  0  0  0  0  0
   10.2884  -16.0184   22.7887 N   0  0  0  0  0  0  0  0  0  0  0  0
   11.7634  -16.1447   22.9079 C   0  0  1  0  0  0  0  0  0  0  0  0
   12.1075  -16.9134   24.1353 C   0  0  0  0  0  0  0  0  0  0  0  0
   11.0376  -16.7575   25.1835 C   0  0  0  0  0  0  0  0  0  0  0  0
   11.2873  -17.6841   26.3363 C   0  0  0  0  0  0  0  0  0  0  0  0
   12.4525  -18.0092   26.6016 O   0  0  0  0  0  0  0  0  0  0  0  0
   12.2355  -16.7191   21.6473 C   0  0  0  0  0  0  0  0  0  0  0  0
   13.4666  -16.4490   21.0929 O   0  0  0  0  0  0  0  0  0  0  0  0
   10.2204  -18.1483   27.0673 O   0  0  0  0  0  0  0  0  0  0  0  0
   11.5056  -17.5232   20.9764 O   0  0  0  0  0  0  0  0  0  0  0  0
  1  2  1  0
  2  3  1  0
  3  4  1  0
  4  5  1  0
  5  7  1  0
  5  6  1  1
  7 14  1  0
  7  8  2  0
  9 10  1  0
 10 11  2  0
 12 10  1  0
 13 12  1  6
 14 13  1  0
 15 16  2  0
 15 13  1  0
 17 15  1  0
 18 17  1  0
 18 19  1  1
 20 21  1  0
 20 19  1  0
 21 25  1  0
 22 21  2  0
 23 18  1  0
 24 23  1  0
 26 23  2  0
M  END
$$$$
