MNE.pdb
     RDKit          3D

 26 25  0  0  1  0  0  0  0  0999 V2000
    8.2846  -12.3720   27.9689 C   0  0  0  0  0  0  0  0  0  0  0  0
    6.6251  -12.2356   27.2407 S   0  0  0  0  0  0  0  0  0  0  0  0
    6.1194  -13.7890   26.4431 C   0  0  0  0  0  0  0  0  0  0  0  0
    7.1228  -14.2111   25.3944 C   0  0  0  0  0  0  0  0  0  0  0  0
    6.6078  -15.3596   24.5582 C   0  0  2  0  0  0  0  0  0  0  0  0
    6.3428  -16.4691   25.4527 N   0  0  0  0  0  0  0  0  0  0  0  0
    7.6631  -15.7826   23.6038 C   0  0  0  0  0  0  0  0  0  0  0  0
    7.9451  -17.0209   23.5137 O   0  0  0  0  0  0  0  0  0  0  0  0
    7.4850  -12.7561   20.0156 N   0  0  0  0  0  0  0  0  0  0  0  0
    8.0649  -14.0476   20.0310 C   0  0  0  0  0  0  0  0  0  0  0  0
    7.4580  -14.9962   19.4451 O   0  0  0  0  0  0  0  0  0  0  0  0
    9.3655  -14.2649   20.7253 C   0  0  0  0  0  0  0  0  0  0  0  0
    9.2581  -15.3084   21.7902 C   0  0  2  0  0  0  0  0  0  0  0  0
    8.3497  -14.8285   22.8021 N   0  0  0  0  0  0  0  0  0  0  0  0
   10.5722  -15.7025   22.3774 C   0  0  0  0  0  0  0  0  0  0  0  0
   11.5825  -15.9289   21.6631 O   0  0  0  0  0  0  0  0  0  0  0  0
   10.7428  -15.8418   23.7818 N   0  0  0  0  0  0  0  0  0  0  0  0
   12.0175  -16.3445   24.3546 C   0  0  1  0  0  0  0  0  0  0  0  0
   11.8515  -16.5988   25.8119 C   0  0  0  0  0  0  0  0  0  0  0  0
   11.2671  -15.3954   26.5033 C   0  0  0  0  0  0  0  0  0  0  0  0
   11.0722  -15.6679   27.9653 C   0  0  0  0  0  0  0  0  0  0  0  0
   10.2979  -14.9482   28.6104 O   0  0  0  0  0  0  0  0  0  0  0  0
   12.4076  -17.5029   23.5496 C   0  0  0  0  0  0  0  0  0  0  0  0
   13.6695  -17.6886   23.0309 O   0  0  0  0  0  0  0  0  0  0  0  0
   11.7555  -16.7060   28.5513 O   0  0  0  0  0  0  0  0  0  0  0  0
   11.5704  -18.4274   23.2780 O   0  0  0  0  0  0  0  0  0  0  0  0
  1  2  1  0
  2  3  1  0
  3  4  1  0
  4  5  1  0
  5  7  1  0
  5  6  1  1
  7 14  1  0
  7  8  2  0
  9 10  1  0
 10 11  2  0
 12 10  1  0
 13 12  1  6
 14 13  1  0
 15 16  2  0
 15 13  1  0
 17 15  1  0
 18 17  1  0
 18 19  1  1
 20 21  1  0
 20 19  1  0
 21 25  1  0
 22 21  2  0
 23 18  1  0
 24 23  1  0
 26 23  2  0
M  END
$$$$
