MNE.pdb
     RDKit          3D

 26 25  0  0  1  0  0  0  0  0999 V2000
    7.2696  -13.0330   22.0203 C   0  0  0  0  0  0  0  0  0  0  0  0
    7.2443  -12.1503   20.4318 S   0  0  0  0  0  0  0  0  0  0  0  0
    7.9105  -13.1791   19.0891 C   0  0  0  0  0  0  0  0  0  0  0  0
    9.3406  -13.5790   19.3716 C   0  0  0  0  0  0  0  0  0  0  0  0
    9.8709  -14.5334   18.3268 C   0  0  2  0  0  0  0  0  0  0  0  0
    8.9720  -15.6694   18.2738 N   0  0  0  0  0  0  0  0  0  0  0  0
   11.2071  -15.0256   18.7461 C   0  0  0  0  0  0  0  0  0  0  0  0
   11.3353  -16.2525   19.0613 O   0  0  0  0  0  0  0  0  0  0  0  0
   16.8490  -13.5993   17.5096 N   0  0  0  0  0  0  0  0  0  0  0  0
   15.7425  -14.4702   17.3625 C   0  0  0  0  0  0  0  0  0  0  0  0
   15.9566  -15.6818   17.0499 O   0  0  0  0  0  0  0  0  0  0  0  0
   14.3618  -13.9529   17.5788 C   0  0  0  0  0  0  0  0  0  0  0  0
   13.6465  -14.7120   18.6496 C   0  0  2  0  0  0  0  0  0  0  0  0
   12.3269  -14.1494   18.7968 N   0  0  0  0  0  0  0  0  0  0  0  0
   14.3761  -14.7434   19.9510 C   0  0  0  0  0  0  0  0  0  0  0  0
   15.5756  -15.1121   20.0361 O   0  0  0  0  0  0  0  0  0  0  0  0
   13.7429  -14.3556   21.1633 N   0  0  0  0  0  0  0  0  0  0  0  0
   14.0903  -15.0050   22.4531 C   0  0  1  0  0  0  0  0  0  0  0  0
   13.3195  -16.2692   22.6064 C   0  0  0  0  0  0  0  0  0  0  0  0
   11.9019  -15.9854   23.0279 C   0  0  0  0  0  0  0  0  0  0  0  0
   11.1564  -17.2640   23.2718 C   0  0  0  0  0  0  0  0  0  0  0  0
   11.0010  -18.0549   22.3317 O   0  0  0  0  0  0  0  0  0  0  0  0
   15.5471  -15.1450   22.4698 C   0  0  0  0  0  0  0  0  0  0  0  0
   16.3350  -15.1166   21.3410 O   0  0  0  0  0  0  0  0  0  0  0  0
   10.6656  -17.5252   24.5283 O   0  0  0  0  0  0  0  0  0  0  0  0
   16.1799  -15.3075   23.5664 O   0  0  0  0  0  0  0  0  0  0  0  0
  1  2  1  0
  2  3  1  0
  3  4  1  0
  4  5  1  0
  5  7  1  0
  5  6  1  1
  7 14  1  0
  7  8  2  0
  9 10  1  0
 10 11  2  0
 12 10  1  0
 13 12  1  6
 14 13  1  0
 15 16  2  0
 15 13  1  0
 17 15  1  0
 18 17  1  0
 18 19  1  6
 20 21  1  0
 20 19  1  0
 21 25  1  0
 22 21  2  0
 23 18  1  0
 24 23  1  0
 26 23  2  0
M  END
$$$$
