MNE.pdb
     RDKit          3D

 26 25  0  0  1  0  0  0  0  0999 V2000
    7.9300  -12.3796   21.8677 C   0  0  0  0  0  0  0  0  0  0  0  0
    7.4943  -13.0764   20.2468 S   0  0  0  0  0  0  0  0  0  0  0  0
    6.8661  -14.7754   20.4007 C   0  0  0  0  0  0  0  0  0  0  0  0
    6.7841  -15.1932   21.8511 C   0  0  0  0  0  0  0  0  0  0  0  0
    7.9418  -16.0819   22.2431 C   0  0  2  0  0  0  0  0  0  0  0  0
    7.9764  -17.1930   21.3127 N   0  0  0  0  0  0  0  0  0  0  0  0
    7.7010  -16.6293   23.6017 C   0  0  0  0  0  0  0  0  0  0  0  0
    6.6749  -16.2374   24.2456 O   0  0  0  0  0  0  0  0  0  0  0  0
    5.9548  -19.2801   27.3596 N   0  0  0  0  0  0  0  0  0  0  0  0
    6.4657  -19.8709   26.1788 C   0  0  0  0  0  0  0  0  0  0  0  0
    6.5367  -21.1366   26.1109 O   0  0  0  0  0  0  0  0  0  0  0  0
    6.9030  -19.0037   25.0486 C   0  0  0  0  0  0  0  0  0  0  0  0
    8.1745  -18.2830   25.3622 C   0  0  2  0  0  0  0  0  0  0  0  0
    8.5948  -17.5739   24.1790 N   0  0  0  0  0  0  0  0  0  0  0  0
    9.2552  -19.1724   25.8797 C   0  0  0  0  0  0  0  0  0  0  0  0
    9.0581  -20.3899   26.1265 O   0  0  0  0  0  0  0  0  0  0  0  0
   10.5669  -18.6796   26.1199 N   0  0  0  0  0  0  0  0  0  0  0  0
   11.7636  -19.5152   25.8450 C   0  0  1  0  0  0  0  0  0  0  0  0
   12.2130  -19.3083   24.4410 C   0  0  0  0  0  0  0  0  0  0  0  0
   12.3073  -17.8403   24.1188 C   0  0  0  0  0  0  0  0  0  0  0  0
   12.8065  -17.6369   22.7190 C   0  0  0  0  0  0  0  0  0  0  0  0
   13.7505  -18.3284   22.3138 O   0  0  0  0  0  0  0  0  0  0  0  0
   12.7461  -19.1888   26.8795 C   0  0  0  0  0  0  0  0  0  0  0  0
   12.5414  -18.2489   27.8647 O   0  0  0  0  0  0  0  0  0  0  0  0
   12.2062  -16.6910   21.9234 O   0  0  0  0  0  0  0  0  0  0  0  0
   13.8785  -19.7764   26.9202 O   0  0  0  0  0  0  0  0  0  0  0  0
  1  2  1  0
  2  3  1  0
  3  4  1  0
  4  5  1  0
  5  7  1  0
  5  6  1  6
  7 14  1  0
  7  8  2  0
  9 10  1  0
 10 11  2  0
 12 10  1  0
 13 12  1  6
 14 13  1  0
 15 16  2  0
 15 13  1  0
 17 15  1  0
 18 17  1  0
 18 19  1  6
 20 21  1  0
 20 19  1  0
 21 25  1  0
 22 21  2  0
 23 18  1  0
 24 23  1  0
 26 23  2  0
M  END
$$$$
