SMT.pdb
     RDKit          3D

 22 21  0  0  1  0  0  0  0  0999 V2000
   19.3507   -7.8996  -13.3846 O   0  0  0  0  0  0  0  0  0  0  0  0
   19.6415   -8.6680  -12.2623 C   0  0  0  0  0  0  0  0  0  0  0  0
   18.4358   -9.5140  -11.9569 C   0  0  2  0  0  0  0  0  0  0  0  0
   18.0680  -10.2619  -13.1416 N   0  0  0  0  0  0  0  0  0  0  0  0
   17.2616   -8.7148  -11.5475 C   0  0  0  0  0  0  0  0  0  0  0  0
   16.4520   -8.3319  -12.4203 O   0  0  0  0  0  0  0  0  0  0  0  0
   11.4444   -7.6846   -6.6312 C   0  0  0  0  0  0  0  0  0  0  0  0
   13.0302   -8.5195   -6.9511 S   0  0  0  0  0  0  0  0  0  0  0  0
   13.8792   -7.6049   -8.2471 C   0  0  0  0  0  0  0  0  0  0  0  0
   15.2134   -8.2586   -8.5946 C   0  0  0  0  0  0  0  0  0  0  0  0
   15.8596   -7.5837   -9.7735 C   0  0  2  0  0  0  0  0  0  0  0  0
   16.9976   -8.3517  -10.1983 N   0  0  0  0  0  0  0  0  0  0  0  0
   16.2117   -6.1955   -9.3865 C   0  0  0  0  0  0  0  0  0  0  0  0
   17.1713   -6.0633   -8.5821 O   0  0  0  0  0  0  0  0  0  0  0  0
   15.2411   -2.7385  -11.6206 C   0  0  0  0  0  0  0  0  0  0  0  0
   16.4175   -2.9225  -10.6864 C   0  0  1  0  0  0  0  0  0  0  0  0
   16.8089   -1.6442  -10.2951 O   0  0  0  0  0  0  0  0  0  0  0  0
   15.9539   -3.7549   -9.5190 C   0  0  2  0  0  0  0  0  0  0  0  0
   15.5159   -5.0618   -9.8848 N   0  0  0  0  0  0  0  0  0  0  0  0
   14.8747   -3.0104   -8.8077 C   0  0  0  0  0  0  0  0  0  0  0  0
   13.7174   -3.4928   -8.7274 O   0  0  0  0  0  0  0  0  0  0  0  0
   15.0838   -1.7783   -8.2120 O   0  0  0  0  0  0  0  0  0  0  0  0
  1  2  1  0
  2  3  1  0
  3  4  1  6
  5 12  1  0
  5  3  1  0
  6  5  2  0
  8  9  1  0
  8  7  1  0
  9 10  1  0
 11 10  1  1
 11 13  1  0
 11 12  1  0
 13 19  1  0
 14 13  2  0
 16 17  1  0
 16 15  1  6
 18 16  1  0
 18 19  1  6
 20 18  1  0
 20 22  1  0
 21 20  2  0
M  END
$$$$
