SMT.pdb
     RDKit          3D

 22 21  0  0  1  0  0  0  0  0999 V2000
   17.0948   -9.0711  -19.3968 O   0  0  0  0  0  0  0  0  0  0  0  0
   17.5321   -9.2666  -18.0911 C   0  0  0  0  0  0  0  0  0  0  0  0
   18.7652  -10.1266  -18.1411 C   0  0  2  0  0  0  0  0  0  0  0  0
   18.3717  -11.5206  -18.1556 N   0  0  0  0  0  0  0  0  0  0  0  0
   19.6554   -9.9231  -16.9787 C   0  0  0  0  0  0  0  0  0  0  0  0
   19.2761  -10.3004  -15.8484 O   0  0  0  0  0  0  0  0  0  0  0  0
   22.7481  -12.3196  -13.3467 C   0  0  0  0  0  0  0  0  0  0  0  0
   23.8324  -12.0763  -14.7886 S   0  0  0  0  0  0  0  0  0  0  0  0
   22.8548  -11.3004  -16.0844 C   0  0  0  0  0  0  0  0  0  0  0  0
   23.0843   -9.7923  -16.1149 C   0  0  0  0  0  0  0  0  0  0  0  0
   21.7911   -9.0414  -15.9521 C   0  0  2  0  0  0  0  0  0  0  0  0
   20.9366   -9.3138  -17.0750 N   0  0  0  0  0  0  0  0  0  0  0  0
   22.1004   -7.5987  -15.7984 C   0  0  0  0  0  0  0  0  0  0  0  0
   22.8796   -7.0978  -16.6512 O   0  0  0  0  0  0  0  0  0  0  0  0
   20.2730   -4.7481  -16.4039 C   0  0  0  0  0  0  0  0  0  0  0  0
   20.7021   -4.5148  -14.9715 C   0  0  1  0  0  0  0  0  0  0  0  0
   19.5996   -4.8247  -14.1784 O   0  0  0  0  0  0  0  0  0  0  0  0
   21.8749   -5.4175  -14.6883 C   0  0  2  0  0  0  0  0  0  0  0  0
   21.5576   -6.8064  -14.7517 N   0  0  0  0  0  0  0  0  0  0  0  0
   22.4348   -5.0589  -13.3531 C   0  0  0  0  0  0  0  0  0  0  0  0
   22.4547   -5.9054  -12.4249 O   0  0  0  0  0  0  0  0  0  0  0  0
   22.9503   -3.8055  -13.0706 O   0  0  0  0  0  0  0  0  0  0  0  0
  1  2  1  0
  2  3  1  0
  3  4  1  1
  5 12  1  0
  5  3  1  0
  6  5  2  0
  8  9  1  0
  8  7  1  0
  9 10  1  0
 11 10  1  6
 11 13  1  0
 11 12  1  0
 13 19  1  0
 14 13  2  0
 16 17  1  0
 16 15  1  6
 18 16  1  0
 18 19  1  1
 20 18  1  0
 20 22  1  0
 21 20  2  0
M  END
$$$$
