SMT.pdb
     RDKit          3D

 22 21  0  0  1  0  0  0  0  0999 V2000
   17.1034  -11.5824  -16.8935 O   0  0  0  0  0  0  0  0  0  0  0  0
   18.1049  -10.6873  -16.5327 C   0  0  0  0  0  0  0  0  0  0  0  0
   19.4215  -11.2646  -16.9750 C   0  0  2  0  0  0  0  0  0  0  0  0
   19.5999  -12.5649  -16.3620 N   0  0  0  0  0  0  0  0  0  0  0  0
   20.5756  -10.4246  -16.5909 C   0  0  0  0  0  0  0  0  0  0  0  0
   20.9839  -10.4552  -15.4093 O   0  0  0  0  0  0  0  0  0  0  0  0
   26.7888   -6.1336  -18.8427 C   0  0  0  0  0  0  0  0  0  0  0  0
   25.5073   -7.3300  -19.3333 S   0  0  0  0  0  0  0  0  0  0  0  0
   24.3658   -7.5062  -17.9539 C   0  0  0  0  0  0  0  0  0  0  0  0
   23.2196   -8.4488  -18.3087 C   0  0  0  0  0  0  0  0  0  0  0  0
   22.3077   -8.6641  -17.1319 C   0  0  2  0  0  0  0  0  0  0  0  0
   21.2569   -9.5719  -17.5023 N   0  0  0  0  0  0  0  0  0  0  0  0
   21.7993   -7.3449  -16.6827 C   0  0  0  0  0  0  0  0  0  0  0  0
   21.1160   -6.6933  -17.5157 O   0  0  0  0  0  0  0  0  0  0  0  0
   19.3654   -6.5650  -14.2945 C   0  0  0  0  0  0  0  0  0  0  0  0
   20.5152   -5.6855  -13.8530 C   0  0  1  0  0  0  0  0  0  0  0  0
   21.0845   -6.3133  -12.7474 O   0  0  0  0  0  0  0  0  0  0  0  0
   21.4823   -5.5783  -15.0035 C   0  0  2  0  0  0  0  0  0  0  0  0
   22.0584   -6.8254  -15.3862 N   0  0  0  0  0  0  0  0  0  0  0  0
   22.5400   -4.5913  -14.6403 C   0  0  0  0  0  0  0  0  0  0  0  0
   23.7495   -4.9314  -14.6312 O   0  0  0  0  0  0  0  0  0  0  0  0
   22.2545   -3.2796  -14.3021 O   0  0  0  0  0  0  0  0  0  0  0  0
  1  2  1  0
  2  3  1  0
  3  4  1  1
  5 12  1  0
  5  3  1  0
  6  5  2  0
  8  9  1  0
  8  7  1  0
  9 10  1  0
 11 10  1  6
 11 13  1  0
 11 12  1  0
 13 19  1  0
 14 13  2  0
 16 17  1  0
 16 15  1  6
 18 16  1  0
 18 19  1  1
 20 18  1  0
 20 22  1  0
 21 20  2  0
M  END
$$$$
