SMT.pdb
     RDKit          3D

 22 21  0  0  1  0  0  0  0  0999 V2000
   18.8470   -9.4153  -19.5812 O   0  0  0  0  0  0  0  0  0  0  0  0
   19.8877  -10.1333  -20.1608 C   0  0  0  0  0  0  0  0  0  0  0  0
   20.3900  -11.1209  -19.1434 C   0  0  2  0  0  0  0  0  0  0  0  0
   19.2908  -11.9608  -18.7138 N   0  0  0  0  0  0  0  0  0  0  0  0
   20.9554  -10.4712  -17.9421 C   0  0  0  0  0  0  0  0  0  0  0  0
   20.3292  -10.5398  -16.8617 O   0  0  0  0  0  0  0  0  0  0  0  0
   26.6107  -11.3688  -14.8256 C   0  0  0  0  0  0  0  0  0  0  0  0
   26.6790   -9.6580  -15.4443 S   0  0  0  0  0  0  0  0  0  0  0  0
   24.9909   -9.0442  -15.5451 C   0  0  0  0  0  0  0  0  0  0  0  0
   24.2736   -9.6122  -16.7661 C   0  0  0  0  0  0  0  0  0  0  0  0
   22.8193   -9.2277  -16.7709 C   0  0  2  0  0  0  0  0  0  0  0  0
   22.1882   -9.7627  -17.9460 N   0  0  0  0  0  0  0  0  0  0  0  0
   22.7227   -7.7499  -16.6857 C   0  0  0  0  0  0  0  0  0  0  0  0
   23.2485   -7.0978  -17.6258 O   0  0  0  0  0  0  0  0  0  0  0  0
   20.0511   -5.4780  -17.0621 C   0  0  0  0  0  0  0  0  0  0  0  0
   20.5968   -5.1271  -15.6948 C   0  0  1  0  0  0  0  0  0  0  0  0
   19.7493   -5.7319  -14.7693 O   0  0  0  0  0  0  0  0  0  0  0  0
   22.0031   -5.6613  -15.6082 C   0  0  2  0  0  0  0  0  0  0  0  0
   22.0763   -7.0855  -15.6093 N   0  0  0  0  0  0  0  0  0  0  0  0
   22.6487   -5.0950  -14.3887 C   0  0  0  0  0  0  0  0  0  0  0  0
   23.0821   -5.8564  -13.4881 O   0  0  0  0  0  0  0  0  0  0  0  0
   22.8022   -3.7340  -14.1874 O   0  0  0  0  0  0  0  0  0  0  0  0
  1  2  1  0
  2  3  1  0
  3  4  1  1
  5 12  1  0
  5  3  1  0
  6  5  2  0
  8  9  1  0
  8  7  1  0
  9 10  1  0
 11 10  1  6
 11 13  1  0
 11 12  1  0
 13 19  1  0
 14 13  2  0
 16 17  1  0
 16 15  1  6
 18 16  1  0
 18 19  1  1
 20 18  1  0
 20 22  1  0
 21 20  2  0
M  END
$$$$
