SMT.pdb
     RDKit          3D

 22 21  0  0  1  0  0  0  0  0999 V2000
   22.2891  -10.9384  -21.6580 O   0  0  0  0  0  0  0  0  0  0  0  0
   22.0735  -10.7722  -20.2940 C   0  0  0  0  0  0  0  0  0  0  0  0
   23.1986  -11.4515  -19.5625 C   0  0  2  0  0  0  0  0  0  0  0  0
   22.9344  -12.8744  -19.5010 N   0  0  0  0  0  0  0  0  0  0  0  0
   23.3601  -10.9641  -18.1764 C   0  0  0  0  0  0  0  0  0  0  0  0
   22.6290  -11.4339  -17.2772 O   0  0  0  0  0  0  0  0  0  0  0  0
   28.2063  -13.1866  -15.1063 C   0  0  0  0  0  0  0  0  0  0  0  0
   27.9445  -11.4030  -15.3599 S   0  0  0  0  0  0  0  0  0  0  0  0
   26.2314  -11.1659  -15.8560 C   0  0  0  0  0  0  0  0  0  0  0  0
   25.9139   -9.6846  -16.0376 C   0  0  0  0  0  0  0  0  0  0  0  0
   24.4858   -9.4824  -16.4648 C   0  0  2  0  0  0  0  0  0  0  0  0
   24.3133   -9.9773  -17.8030 N   0  0  0  0  0  0  0  0  0  0  0  0
   24.1549   -8.0421  -16.3347 C   0  0  0  0  0  0  0  0  0  0  0  0
   24.9304   -7.2339  -16.9097 O   0  0  0  0  0  0  0  0  0  0  0  0
   21.8524   -6.1200  -17.8252 C   0  0  0  0  0  0  0  0  0  0  0  0
   21.5599   -5.7696  -16.3823 C   0  0  1  0  0  0  0  0  0  0  0  0
   20.4127   -6.4785  -16.0333 O   0  0  0  0  0  0  0  0  0  0  0  0
   22.7520   -6.1800  -15.5570 C   0  0  2  0  0  0  0  0  0  0  0  0
   23.0281   -7.5782  -15.6046 N   0  0  0  0  0  0  0  0  0  0  0  0
   22.5322   -5.7273  -14.1528 C   0  0  0  0  0  0  0  0  0  0  0  0
   22.4923   -6.5628  -13.2154 O   0  0  0  0  0  0  0  0  0  0  0  0
   22.3644   -4.3955  -13.8141 O   0  0  0  0  0  0  0  0  0  0  0  0
  1  2  1  0
  2  3  1  0
  3  4  1  1
  5 12  1  0
  5  3  1  0
  6  5  2  0
  8  9  1  0
  8  7  1  0
  9 10  1  0
 11 10  1  6
 11 13  1  0
 11 12  1  0
 13 19  1  0
 14 13  2  0
 16 17  1  0
 16 15  1  6
 18 16  1  0
 18 19  1  1
 20 18  1  0
 20 22  1  0
 21 20  2  0
M  END
$$$$
