SMT.pdb
     RDKit          3D

 22 21  0  0  1  0  0  0  0  0999 V2000
   20.3585  -11.9906  -20.1742 O   0  0  0  0  0  0  0  0  0  0  0  0
   20.7114  -11.1608  -19.1152 C   0  0  0  0  0  0  0  0  0  0  0  0
   21.6708  -11.9160  -18.2367 C   0  0  2  0  0  0  0  0  0  0  0  0
   20.9940  -13.0660  -17.6730 N   0  0  0  0  0  0  0  0  0  0  0  0
   22.1848  -11.1026  -17.1146 C   0  0  0  0  0  0  0  0  0  0  0  0
   21.4119  -10.7979  -16.1799 O   0  0  0  0  0  0  0  0  0  0  0  0
   27.2685  -13.8729  -15.0522 C   0  0  0  0  0  0  0  0  0  0  0  0
   26.8428  -12.4490  -16.1038 S   0  0  0  0  0  0  0  0  0  0  0  0
   25.9448  -11.2667  -15.0876 C   0  0  0  0  0  0  0  0  0  0  0  0
   25.5521  -10.0351  -15.8982 C   0  0  0  0  0  0  0  0  0  0  0  0
   24.0577   -9.8693  -15.9470 C   0  0  2  0  0  0  0  0  0  0  0  0
   23.5274  -10.6407  -17.0374 N   0  0  0  0  0  0  0  0  0  0  0  0
   23.7479   -8.4229  -16.0585 C   0  0  0  0  0  0  0  0  0  0  0  0
   23.9435   -7.8920  -17.1832 O   0  0  0  0  0  0  0  0  0  0  0  0
   20.5297   -7.1230  -15.6372 C   0  0  0  0  0  0  0  0  0  0  0  0
   21.6441   -6.2445  -16.1634 C   0  0  1  0  0  0  0  0  0  0  0  0
   21.1206   -4.9560  -16.2436 O   0  0  0  0  0  0  0  0  0  0  0  0
   22.7948   -6.3287  -15.1942 C   0  0  2  0  0  0  0  0  0  0  0  0
   23.2563   -7.6587  -14.9666 N   0  0  0  0  0  0  0  0  0  0  0  0
   22.3830   -5.6808  -13.9154 C   0  0  0  0  0  0  0  0  0  0  0  0
   22.1839   -4.4413  -13.8671 O   0  0  0  0  0  0  0  0  0  0  0  0
   22.2021   -6.3918  -12.7413 O   0  0  0  0  0  0  0  0  0  0  0  0
  1  2  1  0
  2  3  1  0
  3  4  1  1
  5 12  1  0
  5  3  1  0
  6  5  2  0
  8  9  1  0
  8  7  1  0
  9 10  1  0
 11 10  1  6
 11 13  1  0
 11 12  1  0
 13 19  1  0
 14 13  2  0
 16 17  1  0
 16 15  1  1
 18 16  1  0
 18 19  1  1
 20 18  1  0
 20 22  1  0
 21 20  2  0
M  END
$$$$
