SMT.pdb
     RDKit          3D

 22 21  0  0  1  0  0  0  0  0999 V2000
   20.1375  -23.6285   -9.6463 O   0  0  0  0  0  0  0  0  0  0  0  0
   20.8364  -23.8047   -8.4568 C   0  0  0  0  0  0  0  0  0  0  0  0
   20.8559  -22.4862   -7.7331 C   0  0  2  0  0  0  0  0  0  0  0  0
   19.5269  -21.9106   -7.7590 N   0  0  0  0  0  0  0  0  0  0  0  0
   21.7810  -21.5087   -8.3441 C   0  0  0  0  0  0  0  0  0  0  0  0
   21.3161  -20.6015   -9.0686 O   0  0  0  0  0  0  0  0  0  0  0  0
   27.4796  -19.4464   -6.0425 C   0  0  0  0  0  0  0  0  0  0  0  0
   26.8508  -18.5641   -7.5055 S   0  0  0  0  0  0  0  0  0  0  0  0
   26.4549  -19.7933   -8.7582 C   0  0  0  0  0  0  0  0  0  0  0  0
   25.4833  -20.8365   -8.2140 C   0  0  0  0  0  0  0  0  0  0  0  0
   24.1216  -20.6889   -8.8360 C   0  0  2  0  0  0  0  0  0  0  0  0
   23.1895  -21.5425   -8.1519 N   0  0  0  0  0  0  0  0  0  0  0  0
   24.2296  -20.9948  -10.2836 C   0  0  0  0  0  0  0  0  0  0  0  0
   24.5272  -22.1802  -10.5862 O   0  0  0  0  0  0  0  0  0  0  0  0
   21.7222  -19.5576  -12.9815 C   0  0  0  0  0  0  0  0  0  0  0  0
   22.6073  -20.7725  -13.1578 C   0  0  1  0  0  0  0  0  0  0  0  0
   22.6027  -21.0644  -14.5199 O   0  0  0  0  0  0  0  0  0  0  0  0
   23.9842  -20.4164  -12.6598 C   0  0  2  0  0  0  0  0  0  0  0  0
   24.0132  -20.0170  -11.2911 N   0  0  0  0  0  0  0  0  0  0  0  0
   24.5424  -19.3486  -13.5389 C   0  0  0  0  0  0  0  0  0  0  0  0
   24.8475  -18.2275  -13.0606 O   0  0  0  0  0  0  0  0  0  0  0  0
   24.7499  -19.5295  -14.8957 O   0  0  0  0  0  0  0  0  0  0  0  0
  1  2  1  0
  2  3  1  0
  3  4  1  6
  5 12  1  0
  5  3  1  0
  6  5  2  0
  8  9  1  0
  8  7  1  0
  9 10  1  0
 11 10  1  1
 11 13  1  0
 11 12  1  0
 13 19  1  0
 14 13  2  0
 16 17  1  0
 16 15  1  6
 18 16  1  0
 18 19  1  1
 20 18  1  0
 20 22  1  0
 21 20  2  0
M  END
$$$$
