SMT.pdb
     RDKit          3D

 22 21  0  0  1  0  0  0  0  0999 V2000
   16.1756  -11.7482  -18.1803 O   0  0  0  0  0  0  0  0  0  0  0  0
   17.0154  -12.3704  -19.0980 C   0  0  0  0  0  0  0  0  0  0  0  0
   17.9330  -13.2873  -18.3365 C   0  0  2  0  0  0  0  0  0  0  0  0
   17.1438  -14.3035  -17.6711 N   0  0  0  0  0  0  0  0  0  0  0  0
   18.7218  -12.5831  -17.3037 C   0  0  0  0  0  0  0  0  0  0  0  0
   18.2862  -12.5359  -16.1324 O   0  0  0  0  0  0  0  0  0  0  0  0
   25.8153  -11.0474  -14.5459 C   0  0  0  0  0  0  0  0  0  0  0  0
   24.8262  -11.7356  -15.9106 S   0  0  0  0  0  0  0  0  0  0  0  0
   23.1169  -11.2365  -15.6541 C   0  0  0  0  0  0  0  0  0  0  0  0
   22.2242  -11.7386  -16.7850 C   0  0  0  0  0  0  0  0  0  0  0  0
   20.7922  -11.3311  -16.5701 C   0  0  2  0  0  0  0  0  0  0  0  0
   19.9654  -11.9474  -17.5710 N   0  0  0  0  0  0  0  0  0  0  0  0
   20.7162   -9.8497  -16.5905 C   0  0  0  0  0  0  0  0  0  0  0  0
   21.0620   -9.2845  -17.6612 O   0  0  0  0  0  0  0  0  0  0  0  0
   17.7343   -7.5795  -15.7502 C   0  0  0  0  0  0  0  0  0  0  0  0
   18.9273   -7.1084  -14.9471 C   0  0  1  0  0  0  0  0  0  0  0  0
   18.7419   -7.5906  -13.6534 O   0  0  0  0  0  0  0  0  0  0  0  0
   20.1680   -7.6730  -15.5893 C   0  0  2  0  0  0  0  0  0  0  0  0
   20.2798   -9.0899  -15.4724 N   0  0  0  0  0  0  0  0  0  0  0  0
   21.3566   -6.9936  -14.9975 C   0  0  0  0  0  0  0  0  0  0  0  0
   21.4705   -5.7440  -15.0609 O   0  0  0  0  0  0  0  0  0  0  0  0
   22.3738   -7.6850  -14.3619 O   0  0  0  0  0  0  0  0  0  0  0  0
  1  2  1  0
  2  3  1  0
  3  4  1  1
  5 12  1  0
  5  3  1  0
  6  5  2  0
  8  9  1  0
  8  7  1  0
  9 10  1  0
 11 10  1  6
 11 13  1  0
 11 12  1  0
 13 19  1  0
 14 13  2  0
 16 17  1  0
 16 15  1  6
 18 16  1  0
 18 19  1  1
 20 18  1  0
 20 22  1  0
 21 20  2  0
M  END
$$$$
