SMT.pdb
     RDKit          3D

 22 21  0  0  1  0  0  0  0  0999 V2000
   28.3670  -18.3532  -15.5281 O   0  0  0  0  0  0  0  0  0  0  0  0
   27.3056  -19.1031  -15.0327 C   0  0  0  0  0  0  0  0  0  0  0  0
   27.8783  -20.2735  -14.2811 C   0  0  2  0  0  0  0  0  0  0  0  0
   28.4126  -21.2305  -15.2281 N   0  0  0  0  0  0  0  0  0  0  0  0
   26.8726  -20.9733  -13.4541 C   0  0  0  0  0  0  0  0  0  0  0  0
   26.3403  -22.0152  -13.8956 O   0  0  0  0  0  0  0  0  0  0  0  0
   27.9379  -20.6683   -6.7728 C   0  0  0  0  0  0  0  0  0  0  0  0
   26.4221  -20.1395   -7.6313 S   0  0  0  0  0  0  0  0  0  0  0  0
   26.4833  -20.7960   -9.3052 C   0  0  0  0  0  0  0  0  0  0  0  0
   25.2526  -20.3762  -10.1034 C   0  0  0  0  0  0  0  0  0  0  0  0
   25.2796  -20.9567  -11.4909 C   0  0  2  0  0  0  0  0  0  0  0  0
   26.4708  -20.5218  -12.1670 N   0  0  0  0  0  0  0  0  0  0  0  0
   24.0370  -20.5539  -12.1940 C   0  0  0  0  0  0  0  0  0  0  0  0
   23.9474  -19.3428  -12.5264 O   0  0  0  0  0  0  0  0  0  0  0  0
   22.8134  -21.2540  -15.4080 C   0  0  0  0  0  0  0  0  0  0  0  0
   21.6471  -21.6595  -14.5329 C   0  0  1  0  0  0  0  0  0  0  0  0
   21.6819  -23.0500  -14.4558 O   0  0  0  0  0  0  0  0  0  0  0  0
   21.8350  -21.0129  -13.1848 C   0  0  2  0  0  0  0  0  0  0  0  0
   22.9912  -21.4699  -12.4861 N   0  0  0  0  0  0  0  0  0  0  0  0
   20.6008  -21.2372  -12.3778 C   0  0  0  0  0  0  0  0  0  0  0  0
   20.6667  -21.8163  -11.2647 O   0  0  0  0  0  0  0  0  0  0  0  0
   19.3469  -20.8297  -12.8000 O   0  0  0  0  0  0  0  0  0  0  0  0
  1  2  1  0
  2  3  1  0
  3  4  1  6
  5 12  1  0
  5  3  1  0
  6  5  2  0
  8  9  1  0
  8  7  1  0
  9 10  1  0
 11 10  1  1
 11 13  1  0
 11 12  1  0
 13 19  1  0
 14 13  2  0
 16 17  1  0
 16 15  1  6
 18 16  1  0
 18 19  1  1
 20 18  1  0
 20 22  1  0
 21 20  2  0
M  END
$$$$
