SMT.pdb
     RDKit          3D

 22 21  0  0  1  0  0  0  0  0999 V2000
   17.8757   -7.7358  -21.3152 O   0  0  0  0  0  0  0  0  0  0  0  0
   18.3866   -7.5114  -20.0412 C   0  0  0  0  0  0  0  0  0  0  0  0
   18.8733   -8.8279  -19.5004 C   0  0  2  0  0  0  0  0  0  0  0  0
   17.7322   -9.6507  -19.1555 N   0  0  0  0  0  0  0  0  0  0  0  0
   19.7034   -8.6790  -18.2864 C   0  0  0  0  0  0  0  0  0  0  0  0
   19.1612   -8.3167  -17.2193 O   0  0  0  0  0  0  0  0  0  0  0  0
   24.0953  -12.0331  -14.9546 C   0  0  0  0  0  0  0  0  0  0  0  0
   23.4558  -10.3406  -14.7530 S   0  0  0  0  0  0  0  0  0  0  0  0
   24.1351   -9.3364  -16.0823 C   0  0  0  0  0  0  0  0  0  0  0  0
   23.2606   -9.4156  -17.3301 C   0  0  0  0  0  0  0  0  0  0  0  0
   21.9453   -8.7172  -17.1182 C   0  0  2  0  0  0  0  0  0  0  0  0
   21.1031   -8.9281  -18.2635 N   0  0  0  0  0  0  0  0  0  0  0  0
   22.2115   -7.2820  -16.8538 C   0  0  0  0  0  0  0  0  0  0  0  0
   23.0071   -6.7044  -17.6403 O   0  0  0  0  0  0  0  0  0  0  0  0
   20.1362   -4.4219  -17.1149 C   0  0  0  0  0  0  0  0  0  0  0  0
   20.6738   -4.3091  -15.7047 C   0  0  1  0  0  0  0  0  0  0  0  0
   19.6494   -4.7333  -14.8613 O   0  0  0  0  0  0  0  0  0  0  0  0
   21.8919   -5.1903  -15.6033 C   0  0  2  0  0  0  0  0  0  0  0  0
   21.6116   -6.5779  -15.7757 N   0  0  0  0  0  0  0  0  0  0  0  0
   22.5485   -4.9382  -14.2879 C   0  0  0  0  0  0  0  0  0  0  0  0
   23.0220   -3.8054  -14.0215 O   0  0  0  0  0  0  0  0  0  0  0  0
   22.6690   -5.9139  -13.3132 O   0  0  0  0  0  0  0  0  0  0  0  0
  1  2  1  0
  2  3  1  0
  3  4  1  1
  5 12  1  0
  5  3  1  0
  6  5  2  0
  8  9  1  0
  8  7  1  0
  9 10  1  0
 11 10  1  6
 11 13  1  0
 11 12  1  0
 13 19  1  0
 14 13  2  0
 16 17  1  0
 16 15  1  6
 18 16  1  0
 18 19  1  1
 20 18  1  0
 20 22  1  0
 21 20  2  0
M  END
$$$$
