SMT.pdb
     RDKit          3D

 22 21  0  0  1  0  0  0  0  0999 V2000
   27.1398  -19.3746  -15.5521 O   0  0  0  0  0  0  0  0  0  0  0  0
   28.1617  -19.3148  -14.6105 C   0  0  0  0  0  0  0  0  0  0  0  0
   28.3405  -20.6931  -14.0350 C   0  0  2  0  0  0  0  0  0  0  0  0
   28.6361  -21.6208  -15.1074 N   0  0  0  0  0  0  0  0  0  0  0  0
   27.1348  -21.1846  -13.3352 C   0  0  0  0  0  0  0  0  0  0  0  0
   26.3869  -22.0032  -13.9136 O   0  0  0  0  0  0  0  0  0  0  0  0
   26.6086  -18.8519   -7.5359 C   0  0  0  0  0  0  0  0  0  0  0  0
   26.6017  -20.6694   -7.4309 S   0  0  0  0  0  0  0  0  0  0  0  0
   26.5904  -21.3151   -9.1102 C   0  0  0  0  0  0  0  0  0  0  0  0
   25.5489  -20.5992   -9.9651 C   0  0  0  0  0  0  0  0  0  0  0  0
   25.5419  -21.1300  -11.3726 C   0  0  2  0  0  0  0  0  0  0  0  0
   26.7726  -20.7731  -12.0232 N   0  0  0  0  0  0  0  0  0  0  0  0
   24.3450  -20.5992  -12.0700 C   0  0  0  0  0  0  0  0  0  0  0  0
   24.3648  -19.3758  -12.3668 O   0  0  0  0  0  0  0  0  0  0  0  0
   23.1498  -21.2821  -15.2969 C   0  0  0  0  0  0  0  0  0  0  0  0
   21.9034  -21.4860  -14.4631 C   0  0  1  0  0  0  0  0  0  0  0  0
   21.7236  -22.8636  -14.3603 O   0  0  0  0  0  0  0  0  0  0  0  0
   22.1363  -20.8436  -13.1202 C   0  0  2  0  0  0  0  0  0  0  0  0
   23.2253  -21.4108  -12.3946 N   0  0  0  0  0  0  0  0  0  0  0  0
   20.8719  -20.9236  -12.3331 C   0  0  0  0  0  0  0  0  0  0  0  0
   20.8634  -21.4633  -11.1985 O   0  0  0  0  0  0  0  0  0  0  0  0
   19.6687  -20.4204  -12.7977 O   0  0  0  0  0  0  0  0  0  0  0  0
  1  2  1  0
  2  3  1  0
  3  4  1  6
  5 12  1  0
  5  3  1  0
  6  5  2  0
  8  9  1  0
  8  7  1  0
  9 10  1  0
 11 10  1  1
 11 13  1  0
 11 12  1  0
 13 19  1  0
 14 13  2  0
 16 17  1  0
 16 15  1  6
 18 16  1  0
 18 19  1  1
 20 18  1  0
 20 22  1  0
 21 20  2  0
M  END
$$$$
