QSA.pdb
     RDKit          3D

 21 20  0  0  1  0  0  0  0  0999 V2000
    7.7993  -12.4964   17.9829 N   0  0  0  0  0  0  0  0  0  0  0  0
    7.6229  -13.8438   18.3527 C   0  0  0  0  0  0  0  0  0  0  0  0
    7.2334  -14.6802   17.4771 O   0  0  0  0  0  0  0  0  0  0  0  0
    7.8662  -14.3522   19.7096 C   0  0  0  0  0  0  0  0  0  0  0  0
    9.3010  -14.2965   20.1589 C   0  0  0  0  0  0  0  0  0  0  0  0
    9.6803  -15.3553   21.1339 C   0  0  2  0  0  0  0  0  0  0  0  0
    9.1485  -16.6156   20.6093 N   0  0  0  0  0  0  0  0  0  0  0  0
    9.1677  -15.0962   22.5053 C   0  0  0  0  0  0  0  0  0  0  0  0
    9.3441  -13.9345   22.9581 O   0  0  0  0  0  0  0  0  0  0  0  0
    7.4333  -18.1254   25.0944 O   0  0  0  0  0  0  0  0  0  0  0  0
    6.9091  -16.8431   24.9727 C   0  0  0  0  0  0  0  0  0  0  0  0
    7.9456  -15.8299   24.5673 C   0  0  2  0  0  0  0  0  0  0  0  0
    8.5133  -16.0995   23.2701 N   0  0  0  0  0  0  0  0  0  0  0  0
    9.0096  -15.6514   25.5525 C   0  0  0  0  0  0  0  0  0  0  0  0
   10.1136  -16.2154   25.3729 O   0  0  0  0  0  0  0  0  0  0  0  0
    9.7918  -13.4758   28.5043 C   0  0  0  0  0  0  0  0  0  0  0  0
    9.9626  -14.7199   27.6353 C   0  0  2  0  0  0  0  0  0  0  0  0
    8.8520  -14.8599   26.7186 N   0  0  0  0  0  0  0  0  0  0  0  0
   10.0374  -15.8661   28.5609 C   0  0  0  0  0  0  0  0  0  0  0  0
    9.1362  -16.7374   28.5820 O   0  0  0  0  0  0  0  0  0  0  0  0
   11.1142  -15.9782   29.4135 O   0  0  0  0  0  0  0  0  0  0  0  0
  2  3  2  0
  2  1  1  0
  4  2  1  0
  5  4  1  0
  6  7  1  6
  6  5  1  0
  8  6  1  0
  9  8  2  0
 10 11  1  0
 12 11  1  1
 12 13  1  0
 12 14  1  0
 13  8  1  0
 14 18  1  0
 15 14  2  0
 17 16  1  1
 17 19  1  0
 18 17  1  0
 19 20  2  0
 19 21  1  0
M  END
$$$$
