QSA.pdb
     RDKit          3D

 21 20  0  0  1  0  0  0  0  0999 V2000
    8.1485  -12.1834   18.7577 N   0  0  0  0  0  0  0  0  0  0  0  0
    8.5288  -13.4193   18.1997 C   0  0  0  0  0  0  0  0  0  0  0  0
    8.9719  -13.4503   17.0078 O   0  0  0  0  0  0  0  0  0  0  0  0
    8.4453  -14.6964   18.9213 C   0  0  0  0  0  0  0  0  0  0  0  0
    7.8895  -14.6005   20.3161 C   0  0  0  0  0  0  0  0  0  0  0  0
    7.6813  -15.9136   20.9853 C   0  0  2  0  0  0  0  0  0  0  0  0
    6.6717  -16.6272   20.1993 N   0  0  0  0  0  0  0  0  0  0  0  0
    7.2522  -15.7843   22.4030 C   0  0  0  0  0  0  0  0  0  0  0  0
    6.1204  -15.2685   22.5999 O   0  0  0  0  0  0  0  0  0  0  0  0
    7.8961  -18.4293   25.3435 O   0  0  0  0  0  0  0  0  0  0  0  0
    7.0403  -17.3353   25.4106 C   0  0  0  0  0  0  0  0  0  0  0  0
    7.6608  -16.0801   24.8585 C   0  0  2  0  0  0  0  0  0  0  0  0
    8.0688  -16.2168   23.4828 N   0  0  0  0  0  0  0  0  0  0  0  0
    8.7696  -15.5704   25.6617 C   0  0  0  0  0  0  0  0  0  0  0  0
    9.9417  -15.9051   25.3727 O   0  0  0  0  0  0  0  0  0  0  0  0
    9.4461  -13.1465   28.4464 C   0  0  0  0  0  0  0  0  0  0  0  0
    9.6981  -14.4215   27.6446 C   0  0  2  0  0  0  0  0  0  0  0  0
    8.5820  -14.7034   26.7680 N   0  0  0  0  0  0  0  0  0  0  0  0
    9.8871  -15.5020   28.6310 C   0  0  0  0  0  0  0  0  0  0  0  0
    9.0408  -16.4189   28.7528 O   0  0  0  0  0  0  0  0  0  0  0  0
   11.0109  -15.5010   29.4285 O   0  0  0  0  0  0  0  0  0  0  0  0
  2  3  2  0
  2  1  1  0
  4  2  1  0
  5  4  1  0
  6  7  1  6
  6  5  1  0
  8  6  1  0
  9  8  2  0
 10 11  1  0
 12 11  1  1
 12 13  1  0
 12 14  1  0
 13  8  1  0
 14 18  1  0
 15 14  2  0
 17 16  1  1
 17 19  1  0
 18 17  1  0
 19 20  2  0
 19 21  1  0
M  END
$$$$
