QSA.pdb
     RDKit          3D

 21 20  0  0  1  0  0  0  0  0999 V2000
   14.8358  -19.5299   21.8495 N   0  0  0  0  0  0  0  0  0  0  0  0
   14.1552  -18.5650   21.0820 C   0  0  0  0  0  0  0  0  0  0  0  0
   14.7962  -17.5571   20.6447 O   0  0  0  0  0  0  0  0  0  0  0  0
   12.7270  -18.6522   20.7484 C   0  0  0  0  0  0  0  0  0  0  0  0
   11.9179  -17.4349   21.1052 C   0  0  0  0  0  0  0  0  0  0  0  0
   10.4734  -17.5357   20.7608 C   0  0  2  0  0  0  0  0  0  0  0  0
   10.3837  -17.4298   19.3023 N   0  0  0  0  0  0  0  0  0  0  0  0
    9.6427  -16.4922   21.4178 C   0  0  0  0  0  0  0  0  0  0  0  0
    9.5812  -15.3775   20.8352 O   0  0  0  0  0  0  0  0  0  0  0  0
    6.5641  -17.3792   24.0880 O   0  0  0  0  0  0  0  0  0  0  0  0
    6.6857  -16.1779   23.3983 C   0  0  0  0  0  0  0  0  0  0  0  0
    8.1168  -15.7338   23.2563 C   0  0  2  0  0  0  0  0  0  0  0  0
    8.9527  -16.7315   22.6370 N   0  0  0  0  0  0  0  0  0  0  0  0
    8.7189  -15.2829   24.5088 C   0  0  0  0  0  0  0  0  0  0  0  0
    9.5722  -16.0048   25.0745 O   0  0  0  0  0  0  0  0  0  0  0  0
    8.3000  -12.4538   26.9763 C   0  0  0  0  0  0  0  0  0  0  0  0
    8.9108  -13.7446   26.4351 C   0  0  2  0  0  0  0  0  0  0  0  0
    8.3804  -14.0510   25.1242 N   0  0  0  0  0  0  0  0  0  0  0  0
    8.5747  -14.8026   27.4066 C   0  0  0  0  0  0  0  0  0  0  0  0
    7.6358  -15.6039   27.1878 O   0  0  0  0  0  0  0  0  0  0  0  0
    9.3048  -14.9091   28.5705 O   0  0  0  0  0  0  0  0  0  0  0  0
  2  3  2  0
  2  1  1  0
  4  2  1  0
  5  4  1  0
  6  7  1  6
  6  5  1  0
  8  6  1  0
  9  8  2  0
 10 11  1  0
 12 11  1  1
 12 13  1  0
 12 14  1  0
 13  8  1  0
 14 18  1  0
 15 14  2  0
 17 16  1  1
 17 19  1  0
 18 17  1  0
 19 20  2  0
 19 21  1  0
M  END
$$$$
