QSA.pdb
     RDKit          3D

 21 20  0  0  1  0  0  0  0  0999 V2000
   14.0195  -20.6446   17.2280 N   0  0  0  0  0  0  0  0  0  0  0  0
   13.7601  -19.8237   16.1135 C   0  0  0  0  0  0  0  0  0  0  0  0
   14.6530  -19.6974   15.2164 O   0  0  0  0  0  0  0  0  0  0  0  0
   12.5005  -19.0928   15.9186 C   0  0  0  0  0  0  0  0  0  0  0  0
   11.4108  -19.4368   16.8974 C   0  0  0  0  0  0  0  0  0  0  0  0
   10.2934  -18.4546   16.9417 C   0  0  2  0  0  0  0  0  0  0  0  0
   10.4735  -17.5653   15.7915 N   0  0  0  0  0  0  0  0  0  0  0  0
   10.2499  -17.6771   18.2083 C   0  0  0  0  0  0  0  0  0  0  0  0
   11.1110  -16.7671   18.3357 O   0  0  0  0  0  0  0  0  0  0  0  0
    7.3270  -18.3801   21.2990 O   0  0  0  0  0  0  0  0  0  0  0  0
    7.7689  -17.1060   20.9594 C   0  0  0  0  0  0  0  0  0  0  0  0
    9.1641  -17.1083   20.3949 C   0  0  2  0  0  0  0  0  0  0  0  0
    9.2922  -17.9402   19.2247 N   0  0  0  0  0  0  0  0  0  0  0  0
   10.1928  -17.4566   21.3722 C   0  0  0  0  0  0  0  0  0  0  0  0
   10.5972  -18.6401   21.4426 O   0  0  0  0  0  0  0  0  0  0  0  0
   12.6164  -15.7163   23.6470 C   0  0  0  0  0  0  0  0  0  0  0  0
   11.8187  -16.9228   23.1569 C   0  0  2  0  0  0  0  0  0  0  0  0
   10.7640  -16.5076   22.2576 N   0  0  0  0  0  0  0  0  0  0  0  0
   11.2674  -17.5731   24.3608 C   0  0  0  0  0  0  0  0  0  0  0  0
   12.0229  -18.0906   25.2170 O   0  0  0  0  0  0  0  0  0  0  0  0
    9.9022  -17.6109   24.5442 O   0  0  0  0  0  0  0  0  0  0  0  0
  2  3  2  0
  2  1  1  0
  4  2  1  0
  5  4  1  0
  6  7  1  6
  6  5  1  0
  8  6  1  0
  9  8  2  0
 10 11  1  0
 12 11  1  1
 12 13  1  0
 12 14  1  0
 13  8  1  0
 14 18  1  0
 15 14  2  0
 17 16  1  1
 17 19  1  0
 18 17  1  0
 19 20  2  0
 19 21  1  0
M  END
$$$$
