QSA.pdb
     RDKit          3D

 21 20  0  0  1  0  0  0  0  0999 V2000
   10.5733  -13.1648   19.0803 N   0  0  0  0  0  0  0  0  0  0  0  0
    9.5623  -13.4184   18.1332 C   0  0  0  0  0  0  0  0  0  0  0  0
    9.8784  -13.5355   16.9066 O   0  0  0  0  0  0  0  0  0  0  0  0
    8.1416  -13.5599   18.4798 C   0  0  0  0  0  0  0  0  0  0  0  0
    7.8463  -13.5566   19.9550 C   0  0  0  0  0  0  0  0  0  0  0  0
    8.5129  -14.6479   20.7167 C   0  0  2  0  0  0  0  0  0  0  0  0
    8.1834  -15.8987   20.0287 N   0  0  0  0  0  0  0  0  0  0  0  0
    8.0950  -14.7039   22.1425 C   0  0  0  0  0  0  0  0  0  0  0  0
    7.8232  -13.6025   22.6892 O   0  0  0  0  0  0  0  0  0  0  0  0
    8.2801  -18.2203   24.6859 O   0  0  0  0  0  0  0  0  0  0  0  0
    7.1518  -17.4102   24.6186 C   0  0  0  0  0  0  0  0  0  0  0  0
    7.4742  -16.0024   24.1948 C   0  0  2  0  0  0  0  0  0  0  0  0
    8.0048  -15.9293   22.8566 N   0  0  0  0  0  0  0  0  0  0  0  0
    8.3553  -15.2968   25.1223 C   0  0  0  0  0  0  0  0  0  0  0  0
    9.5964  -15.3838   24.9765 O   0  0  0  0  0  0  0  0  0  0  0  0
    8.1507  -12.5263   27.6031 C   0  0  0  0  0  0  0  0  0  0  0  0
    8.8056  -13.7763   27.0195 C   0  0  2  0  0  0  0  0  0  0  0  0
    7.8680  -14.5072   26.1947 N   0  0  0  0  0  0  0  0  0  0  0  0
    9.2497  -14.5877   28.1686 C   0  0  0  0  0  0  0  0  0  0  0  0
   10.1047  -14.1504   28.9745 O   0  0  0  0  0  0  0  0  0  0  0  0
    8.7154  -15.8440   28.3566 O   0  0  0  0  0  0  0  0  0  0  0  0
  2  3  2  0
  2  1  1  0
  4  2  1  0
  5  4  1  0
  6  7  1  6
  6  5  1  0
  8  6  1  0
  9  8  2  0
 10 11  1  0
 12 11  1  1
 12 13  1  0
 12 14  1  0
 13  8  1  0
 14 18  1  0
 15 14  2  0
 17 16  1  1
 17 19  1  0
 18 17  1  0
 19 20  2  0
 19 21  1  0
M  END
$$$$
