QSA.pdb
     RDKit          3D

 21 20  0  0  1  0  0  0  0  0999 V2000
   13.1001  -18.6854   23.2769 N   0  0  0  0  0  0  0  0  0  0  0  0
   13.4122  -18.9225   21.9242 C   0  0  0  0  0  0  0  0  0  0  0  0
   14.1200  -19.9348   21.6205 O   0  0  0  0  0  0  0  0  0  0  0  0
   12.9626  -18.0595   20.8235 C   0  0  0  0  0  0  0  0  0  0  0  0
   12.1814  -16.8460   21.2489 C   0  0  0  0  0  0  0  0  0  0  0  0
   10.7065  -17.0445   21.2770 C   0  0  2  0  0  0  0  0  0  0  0  0
   10.2051  -16.6346   19.9628 N   0  0  0  0  0  0  0  0  0  0  0  0
   10.0353  -16.2788   22.3604 C   0  0  0  0  0  0  0  0  0  0  0  0
    9.6883  -15.1011   22.0804 O   0  0  0  0  0  0  0  0  0  0  0  0
    7.9989  -18.2246   25.3982 O   0  0  0  0  0  0  0  0  0  0  0  0
    7.7421  -16.9209   24.9880 C   0  0  0  0  0  0  0  0  0  0  0  0
    8.9965  -16.1660   24.6389 C   0  0  2  0  0  0  0  0  0  0  0  0
    9.7948  -16.8381   23.6445 N   0  0  0  0  0  0  0  0  0  0  0  0
    9.8200  -15.8273   25.7973 C   0  0  0  0  0  0  0  0  0  0  0  0
   10.9018  -16.4320   25.9794 O   0  0  0  0  0  0  0  0  0  0  0  0
    9.7279  -13.4736   28.7539 C   0  0  0  0  0  0  0  0  0  0  0  0
   10.3061  -14.5827   27.8778 C   0  0  2  0  0  0  0  0  0  0  0  0
    9.4498  -14.8336   26.7388 N   0  0  0  0  0  0  0  0  0  0  0  0
   10.4140  -15.7771   28.7369 C   0  0  0  0  0  0  0  0  0  0  0  0
    9.6846  -16.7782   28.5434 O   0  0  0  0  0  0  0  0  0  0  0  0
   11.3305  -15.7897   29.7658 O   0  0  0  0  0  0  0  0  0  0  0  0
  2  3  2  0
  2  1  1  0
  4  2  1  0
  5  4  1  0
  6  7  1  6
  6  5  1  0
  8  6  1  0
  9  8  2  0
 10 11  1  0
 12 11  1  1
 12 13  1  0
 12 14  1  0
 13  8  1  0
 14 18  1  0
 15 14  2  0
 17 16  1  1
 17 19  1  0
 18 17  1  0
 19 20  2  0
 19 21  1  0
M  END
$$$$
