ACD.pdb
     RDKit          3D

 20 19  0  0  1  0  0  0  0  0999 V2000
    9.7200  -17.1165   16.2526 C   0  0  0  0  0  0  0  0  0  0  0  0
    8.9802  -17.6236   17.4774 C   0  0  2  0  0  0  0  0  0  0  0  0
    7.5740  -17.6009   17.2118 N   0  0  0  0  0  0  0  0  0  0  0  0
    9.3386  -16.7221   18.5934 C   0  0  0  0  0  0  0  0  0  0  0  0
   10.5556  -16.6591   18.9336 O   0  0  0  0  0  0  0  0  0  0  0  0
    8.3840  -15.9350   19.2892 N   0  0  0  0  0  0  0  0  0  0  0  0
    8.8401  -15.1135   20.3842 C   0  0  1  0  0  0  0  0  0  0  0  0
    7.6168  -14.3008   20.8282 C   0  0  0  0  0  0  0  0  0  0  0  0
    7.2359  -13.1340   19.5201 S   0  0  0  0  0  0  0  0  0  0  0  0
    9.2240  -15.9279   21.5655 C   0  0  0  0  0  0  0  0  0  0  0  0
    8.5800  -16.9461   21.9193 O   0  0  0  0  0  0  0  0  0  0  0  0
   10.3520  -15.5744   22.3463 N   0  0  0  0  0  0  0  0  0  0  0  0
   10.8042  -16.3995   23.4856 C   0  0  1  0  0  0  0  0  0  0  0  0
   12.2716  -16.1592   23.5694 C   0  0  0  0  0  0  0  0  0  0  0  0
   13.0710  -16.4545   22.3976 C   0  0  0  0  0  0  0  0  0  0  0  0
   12.9504  -17.6361   21.9204 O   0  0  0  0  0  0  0  0  0  0  0  0
   10.0731  -16.0252   24.7019 C   0  0  0  0  0  0  0  0  0  0  0  0
   10.1955  -16.7876   25.8410 O   0  0  0  0  0  0  0  0  0  0  0  0
   13.9474  -15.6440   21.7201 O   0  0  0  0  0  0  0  0  0  0  0  0
    9.3052  -15.0089   24.7811 O   0  0  0  0  0  0  0  0  0  0  0  0
  2  1  1  6
  3  2  1  0
  4  5  2  0
  4  2  1  0
  6  4  1  0
  7  6  1  0
  7  8  1  1
  9  8  1  0
 10 12  1  0
 10  7  1  0
 11 10  2  0
 13 12  1  0
 13 14  1  1
 15 16  2  0
 15 14  1  0
 17 13  1  0
 18 17  1  0
 19 15  1  0
 20 17  2  0
M  END
$$$$
