ACD.pdb
     RDKit          3D

 20 19  0  0  1  0  0  0  0  0999 V2000
    8.4204  -18.7911   17.1736 C   0  0  0  0  0  0  0  0  0  0  0  0
    8.2060  -17.3541   16.7335 C   0  0  2  0  0  0  0  0  0  0  0  0
    8.7799  -17.1768   15.4343 N   0  0  0  0  0  0  0  0  0  0  0  0
    8.8664  -16.4980   17.7423 C   0  0  0  0  0  0  0  0  0  0  0  0
   10.1261  -16.3905   17.6915 O   0  0  0  0  0  0  0  0  0  0  0  0
    8.1527  -15.8012   18.7522 N   0  0  0  0  0  0  0  0  0  0  0  0
    8.8986  -14.9873   19.6813 C   0  0  1  0  0  0  0  0  0  0  0  0
    7.8472  -14.2312   20.5042 C   0  0  0  0  0  0  0  0  0  0  0  0
    7.2055  -12.9062   19.4795 S   0  0  0  0  0  0  0  0  0  0  0  0
    9.6497  -15.8125   20.6617 C   0  0  0  0  0  0  0  0  0  0  0  0
    9.2451  -16.9378   21.0445 O   0  0  0  0  0  0  0  0  0  0  0  0
   10.8715  -15.3463   21.2068 N   0  0  0  0  0  0  0  0  0  0  0  0
   11.6661  -16.1577   22.1521 C   0  0  1  0  0  0  0  0  0  0  0  0
   13.0141  -15.5246   22.1553 C   0  0  0  0  0  0  0  0  0  0  0  0
   14.0433  -16.1345   22.9728 C   0  0  0  0  0  0  0  0  0  0  0  0
   13.8074  -17.3273   23.3729 O   0  0  0  0  0  0  0  0  0  0  0  0
   11.0186  -16.1773   23.4690 C   0  0  0  0  0  0  0  0  0  0  0  0
   11.1271  -17.2888   24.2732 O   0  0  0  0  0  0  0  0  0  0  0  0
   15.2445  -15.6134   23.3847 O   0  0  0  0  0  0  0  0  0  0  0  0
   10.3385  -15.2043   23.9374 O   0  0  0  0  0  0  0  0  0  0  0  0
  2  1  1  1
  3  2  1  0
  4  5  2  0
  4  2  1  0
  6  4  1  0
  7  6  1  0
  7  8  1  1
  9  8  1  0
 10 12  1  0
 10  7  1  0
 11 10  2  0
 13 12  1  0
 13 14  1  1
 15 16  2  0
 15 14  1  0
 17 13  1  0
 18 17  1  0
 19 15  1  0
 20 17  2  0
M  END
$$$$
