ACD.pdb
     RDKit          3D

 20 19  0  0  1  0  0  0  0  0999 V2000
    7.6206  -16.9356   21.4726 C   0  0  0  0  0  0  0  0  0  0  0  0
    8.0665  -15.4848   21.4396 C   0  0  2  0  0  0  0  0  0  0  0  0
    8.9611  -15.3000   20.3377 N   0  0  0  0  0  0  0  0  0  0  0  0
    8.7317  -15.2155   22.7325 C   0  0  0  0  0  0  0  0  0  0  0  0
    9.9509  -15.5338   22.8465 O   0  0  0  0  0  0  0  0  0  0  0  0
    8.0655  -14.6217   23.8363 N   0  0  0  0  0  0  0  0  0  0  0  0
    8.8076  -14.4197   25.0571 C   0  0  1  0  0  0  0  0  0  0  0  0
    7.8915  -13.5880   25.9644 C   0  0  0  0  0  0  0  0  0  0  0  0
    8.8410  -13.1199   27.4125 S   0  0  0  0  0  0  0  0  0  0  0  0
    9.0340  -15.6943   25.7853 C   0  0  0  0  0  0  0  0  0  0  0  0
    8.1376  -16.5638   25.9154 O   0  0  0  0  0  0  0  0  0  0  0  0
   10.2946  -15.9749   26.3679 N   0  0  0  0  0  0  0  0  0  0  0  0
   10.5515  -17.2260   27.1111 C   0  0  1  0  0  0  0  0  0  0  0  0
   11.8951  -17.6726   26.6493 C   0  0  0  0  0  0  0  0  0  0  0  0
   11.9762  -18.3603   25.3766 C   0  0  0  0  0  0  0  0  0  0  0  0
   11.0005  -19.1409   25.0984 O   0  0  0  0  0  0  0  0  0  0  0  0
   10.4742  -16.9801   28.5559 C   0  0  0  0  0  0  0  0  0  0  0  0
   10.4122  -15.6906   29.0327 O   0  0  0  0  0  0  0  0  0  0  0  0
   12.9568  -18.2964   24.4183 O   0  0  0  0  0  0  0  0  0  0  0  0
   10.4604  -17.9083   29.4317 O   0  0  0  0  0  0  0  0  0  0  0  0
  2  1  1  1
  3  2  1  0
  4  5  2  0
  4  2  1  0
  6  4  1  0
  7  6  1  0
  7  8  1  1
  9  8  1  0
 10 12  1  0
 10  7  1  0
 11 10  2  0
 13 12  1  0
 13 14  1  1
 15 16  2  0
 15 14  1  0
 17 13  1  0
 18 17  1  0
 19 15  1  0
 20 17  2  0
M  END
$$$$
