ACD.pdb
     RDKit          3D

 20 19  0  0  1  0  0  0  0  0999 V2000
    8.6388  -17.1819   15.6334 C   0  0  0  0  0  0  0  0  0  0  0  0
    8.3272  -15.6983   15.5531 C   0  0  2  0  0  0  0  0  0  0  0  0
    8.9653  -15.1528   14.3939 N   0  0  0  0  0  0  0  0  0  0  0  0
    8.8433  -15.0880   16.7972 C   0  0  0  0  0  0  0  0  0  0  0  0
   10.0901  -14.8910   16.8847 O   0  0  0  0  0  0  0  0  0  0  0  0
    8.0067  -14.7192   17.8829 N   0  0  0  0  0  0  0  0  0  0  0  0
    8.6101  -14.0794   19.0269 C   0  0  1  0  0  0  0  0  0  0  0  0
    7.4410  -13.6309   19.9136 C   0  0  0  0  0  0  0  0  0  0  0  0
    8.1151  -12.6116   21.2266 S   0  0  0  0  0  0  0  0  0  0  0  0
    9.3873  -15.0388   19.8524 C   0  0  0  0  0  0  0  0  0  0  0  0
    9.0531  -16.2424   19.9796 O   0  0  0  0  0  0  0  0  0  0  0  0
   10.5543  -14.6175   20.5364 N   0  0  0  0  0  0  0  0  0  0  0  0
   11.3522  -15.5443   21.3657 C   0  0  1  0  0  0  0  0  0  0  0  0
   12.6335  -14.8260   21.6116 C   0  0  0  0  0  0  0  0  0  0  0  0
   13.8413  -15.3878   21.0417 C   0  0  0  0  0  0  0  0  0  0  0  0
   13.7122  -16.5211   20.4608 O   0  0  0  0  0  0  0  0  0  0  0  0
   10.6196  -15.8836   22.5913 C   0  0  0  0  0  0  0  0  0  0  0  0
   10.9854  -16.9861   23.3294 O   0  0  0  0  0  0  0  0  0  0  0  0
   15.1152  -14.8768   21.0354 O   0  0  0  0  0  0  0  0  0  0  0  0
    9.6336  -15.2066   23.0364 O   0  0  0  0  0  0  0  0  0  0  0  0
  2  1  1  1
  3  2  1  0
  4  5  2  0
  4  2  1  0
  6  4  1  0
  7  6  1  0
  7  8  1  1
  9  8  1  0
 10 12  1  0
 10  7  1  0
 11 10  2  0
 13 12  1  0
 13 14  1  1
 15 16  2  0
 15 14  1  0
 17 13  1  0
 18 17  1  0
 19 15  1  0
 20 17  2  0
M  END
$$$$
