ACD.pdb
     RDKit          3D

 20 19  0  0  1  0  0  0  0  0999 V2000
    7.4867  -17.3019   21.8674 C   0  0  0  0  0  0  0  0  0  0  0  0
    7.6984  -15.8394   21.5192 C   0  0  2  0  0  0  0  0  0  0  0  0
    8.6851  -15.7471   20.4866 N   0  0  0  0  0  0  0  0  0  0  0  0
    8.1431  -15.1678   22.7593 C   0  0  0  0  0  0  0  0  0  0  0  0
    9.3816  -15.1669   23.0184 O   0  0  0  0  0  0  0  0  0  0  0  0
    7.2476  -14.5325   23.6589 N   0  0  0  0  0  0  0  0  0  0  0  0
    7.7953  -13.8677   24.8164 C   0  0  1  0  0  0  0  0  0  0  0  0
    6.6105  -13.1566   25.4834 C   0  0  0  0  0  0  0  0  0  0  0  0
    7.2419  -12.2701   26.9093 S   0  0  0  0  0  0  0  0  0  0  0  0
    8.2953  -14.8353   25.8263 C   0  0  0  0  0  0  0  0  0  0  0  0
    7.6524  -15.8646   26.1485 O   0  0  0  0  0  0  0  0  0  0  0  0
    9.5388  -14.6230   26.4710 N   0  0  0  0  0  0  0  0  0  0  0  0
   10.0596  -15.5556   27.4921 C   0  0  1  0  0  0  0  0  0  0  0  0
   11.4408  -15.8807   27.0397 C   0  0  0  0  0  0  0  0  0  0  0  0
   11.8471  -17.2713   27.0607 C   0  0  0  0  0  0  0  0  0  0  0  0
   10.9798  -18.1018   27.5039 O   0  0  0  0  0  0  0  0  0  0  0  0
   10.0032  -14.9334   28.8201 C   0  0  0  0  0  0  0  0  0  0  0  0
    9.7025  -13.5959   28.9417 O   0  0  0  0  0  0  0  0  0  0  0  0
   13.0382  -17.8317   26.6718 O   0  0  0  0  0  0  0  0  0  0  0  0
   10.2210  -15.5654   29.9072 O   0  0  0  0  0  0  0  0  0  0  0  0
  2  1  1  1
  3  2  1  0
  4  5  2  0
  4  2  1  0
  6  4  1  0
  7  6  1  0
  7  8  1  1
  9  8  1  0
 10 12  1  0
 10  7  1  0
 11 10  2  0
 13 12  1  0
 13 14  1  6
 15 16  2  0
 15 14  1  0
 17 13  1  0
 18 17  1  0
 19 15  1  0
 20 17  2  0
M  END
$$$$
