ACD.pdb
     RDKit          3D

 20 19  0  0  1  0  0  0  0  0999 V2000
    9.2116  -13.0464   18.4995 C   0  0  0  0  0  0  0  0  0  0  0  0
    7.8896  -13.6660   18.9154 C   0  0  2  0  0  0  0  0  0  0  0  0
    7.0536  -12.6453   19.4702 N   0  0  0  0  0  0  0  0  0  0  0  0
    8.2057  -14.7124   19.9112 C   0  0  0  0  0  0  0  0  0  0  0  0
    8.2932  -14.3651   21.1248 O   0  0  0  0  0  0  0  0  0  0  0  0
    8.4123  -16.0733   19.5645 N   0  0  0  0  0  0  0  0  0  0  0  0
    8.7093  -17.0120   20.6192 C   0  0  1  0  0  0  0  0  0  0  0  0
    7.9741  -18.3045   20.2409 C   0  0  0  0  0  0  0  0  0  0  0  0
    6.4970  -18.4055   21.2535 S   0  0  0  0  0  0  0  0  0  0  0  0
   10.1501  -17.3716   20.6516 C   0  0  0  0  0  0  0  0  0  0  0  0
   10.8392  -17.4854   19.6082 O   0  0  0  0  0  0  0  0  0  0  0  0
   10.8057  -17.6020   21.8862 N   0  0  0  0  0  0  0  0  0  0  0  0
   12.2421  -17.9413   21.9575 C   0  0  1  0  0  0  0  0  0  0  0  0
   12.6200  -17.6956   23.3770 C   0  0  0  0  0  0  0  0  0  0  0  0
   12.6329  -16.3239   23.8434 C   0  0  0  0  0  0  0  0  0  0  0  0
   13.2112  -15.4771   23.0773 O   0  0  0  0  0  0  0  0  0  0  0  0
   12.4566  -19.3254   21.5193 C   0  0  0  0  0  0  0  0  0  0  0  0
   11.3915  -20.1924   21.4304 O   0  0  0  0  0  0  0  0  0  0  0  0
   12.1112  -15.7967   24.9984 O   0  0  0  0  0  0  0  0  0  0  0  0
   13.5992  -19.7988   21.2046 O   0  0  0  0  0  0  0  0  0  0  0  0
  2  1  1  1
  3  2  1  0
  4  5  2  0
  4  2  1  0
  6  4  1  0
  7  6  1  0
  7  8  1  6
  9  8  1  0
 10 12  1  0
 10  7  1  0
 11 10  2  0
 13 12  1  0
 13 14  1  1
 15 16  2  0
 15 14  1  0
 17 13  1  0
 18 17  1  0
 19 15  1  0
 20 17  2  0
M  END
$$$$
