ACD.pdb
     RDKit          3D

 20 19  0  0  1  0  0  0  0  0999 V2000
   -1.5301  -24.8743   26.0786 C   0  0  0  0  0  0  0  0  0  0  0  0
   -3.0371  -24.9205   25.9010 C   0  0  2  0  0  0  0  0  0  0  0  0
   -3.3497  -24.6696   24.5270 N   0  0  0  0  0  0  0  0  0  0  0  0
   -3.6013  -23.8797   26.7870 C   0  0  0  0  0  0  0  0  0  0  0  0
   -3.5174  -24.0596   28.0366 O   0  0  0  0  0  0  0  0  0  0  0  0
   -4.2251  -22.7022   26.2978 N   0  0  0  0  0  0  0  0  0  0  0  0
   -4.8707  -21.8247   27.2439 C   0  0  1  0  0  0  0  0  0  0  0  0
   -5.1910  -20.5420   26.4653 C   0  0  0  0  0  0  0  0  0  0  0  0
   -6.1308  -21.0098   25.0109 S   0  0  0  0  0  0  0  0  0  0  0  0
   -6.1847  -22.3574   27.6864 C   0  0  0  0  0  0  0  0  0  0  0  0
   -6.9106  -23.0618   26.9425 O   0  0  0  0  0  0  0  0  0  0  0  0
   -6.6703  -22.0819   28.9885 N   0  0  0  0  0  0  0  0  0  0  0  0
   -7.9539  -22.6277   29.4762 C   0  0  1  0  0  0  0  0  0  0  0  0
   -7.6245  -23.9972   29.9598 C   0  0  0  0  0  0  0  0  0  0  0  0
   -8.6739  -24.7511   30.6155 C   0  0  0  0  0  0  0  0  0  0  0  0
   -9.8606  -24.2893   30.4851 O   0  0  0  0  0  0  0  0  0  0  0  0
   -8.5133  -21.7527   30.5133 C   0  0  0  0  0  0  0  0  0  0  0  0
   -7.7249  -20.7896   31.1005 O   0  0  0  0  0  0  0  0  0  0  0  0
   -8.5787  -25.8979   31.3636 O   0  0  0  0  0  0  0  0  0  0  0  0
   -9.7195  -21.8241   30.9238 O   0  0  0  0  0  0  0  0  0  0  0  0
  2  1  1  6
  3  2  1  0
  4  5  2  0
  4  2  1  0
  6  4  1  0
  7  6  1  0
  7  8  1  6
  9  8  1  0
 10 12  1  0
 10  7  1  0
 11 10  2  0
 13 12  1  0
 13 14  1  1
 15 16  2  0
 15 14  1  0
 17 13  1  0
 18 17  1  0
 19 15  1  0
 20 17  2  0
M  END
$$$$
