AFF.pdb
     RDKit          3D

 28 29  0  0  1  0  0  0  0  0999 V2000
   23.0738   -8.1593  -21.4254 C   0  0  0  0  0  0  0  0  0  0  0  0
   24.0390   -8.2637  -20.2855 C   0  0  2  0  0  0  0  0  0  0  0  0
   24.8507   -9.4495  -20.3490 N   0  0  0  0  0  0  0  0  0  0  0  0
   23.3647   -8.1221  -18.9671 C   0  0  0  0  0  0  0  0  0  0  0  0
   22.5612   -9.0260  -18.6172 O   0  0  0  0  0  0  0  0  0  0  0  0
   23.6010   -7.0208  -18.1190 N   0  0  0  0  0  0  0  0  0  0  0  0
   22.9984   -6.9051  -16.7681 C   0  0  1  0  0  0  0  0  0  0  0  0
   24.0796   -6.8429  -15.7484 C   0  0  0  0  0  0  0  0  0  0  0  0
   24.8812   -8.0508  -15.5438 C   0  0  0  0  0  0  0  0  0  0  0  0
   24.3946   -9.1497  -14.8242 C   0  0  0  0  0  0  0  0  0  0  0  0
   25.1144  -10.3076  -14.6434 C   0  0  0  0  0  0  0  0  0  0  0  0
   26.3689  -10.4275  -15.1774 C   0  0  0  0  0  0  0  0  0  0  0  0
   26.8785   -9.3678  -15.8902 C   0  0  0  0  0  0  0  0  0  0  0  0
   26.1569   -8.2096  -16.0703 C   0  0  0  0  0  0  0  0  0  0  0  0
   22.0568   -5.7866  -16.8158 C   0  0  0  0  0  0  0  0  0  0  0  0
   22.4838   -4.6065  -17.0951 O   0  0  0  0  0  0  0  0  0  0  0  0
   20.6561   -5.8368  -16.5869 N   0  0  0  0  0  0  0  0  0  0  0  0
   19.7996   -4.6729  -16.6673 C   0  0  1  0  0  0  0  0  0  0  0  0
   18.6206   -5.0816  -17.5674 C   0  0  0  0  0  0  0  0  0  0  0  0
   18.9523   -4.9244  -18.9852 C   0  0  0  0  0  0  0  0  0  0  0  0
   18.8035   -3.7470  -19.6855 C   0  0  0  0  0  0  0  0  0  0  0  0
   19.1348   -3.6525  -21.0348 C   0  0  0  0  0  0  0  0  0  0  0  0
   19.6263   -4.7456  -21.7156 C   0  0  0  0  0  0  0  0  0  0  0  0
   19.7779   -5.9194  -21.0296 C   0  0  0  0  0  0  0  0  0  0  0  0
   19.4450   -6.0033  -19.6857 C   0  0  0  0  0  0  0  0  0  0  0  0
   19.3440   -4.1648  -15.3833 C   0  0  0  0  0  0  0  0  0  0  0  0
   18.8436   -2.8913  -15.2075 O   0  0  0  0  0  0  0  0  0  0  0  0
   19.3870   -4.8869  -14.3413 O   0  0  0  0  0  0  0  0  0  0  0  0
  2  1  1  6
  3  2  1  0
  4  2  1  0
  4  5  2  0
  6  4  1  0
  7  6  1  0
  7  8  1  1
  9 14  1  0
  9  8  1  0
 10  9  2  0
 11 12  2  0
 11 10  1  0
 12 13  1  0
 13 14  2  0
 15  7  1  0
 15 17  1  0
 16 15  2  0
 18 17  1  0
 18 26  1  0
 19 20  1  0
 18 19  1  6
 20 25  2  0
 21 22  2  0
 21 20  1  0
 22 23  1  0
 23 24  2  0
 25 24  1  0
 26 28  2  0
 26 27  1  0
M  END
$$$$
