AFF.pdb
     RDKit          3D

 28 29  0  0  1  0  0  0  0  0999 V2000
   24.4143  -20.9037  -12.8816 C   0  0  0  0  0  0  0  0  0  0  0  0
   25.8644  -21.1410  -12.5943 C   0  0  2  0  0  0  0  0  0  0  0  0
   26.4266  -22.1944  -13.3963 N   0  0  0  0  0  0  0  0  0  0  0  0
   26.1201  -21.3502  -11.1439 C   0  0  0  0  0  0  0  0  0  0  0  0
   25.9571  -22.5088  -10.6790 O   0  0  0  0  0  0  0  0  0  0  0  0
   26.5324  -20.3013  -10.2967 N   0  0  0  0  0  0  0  0  0  0  0  0
   26.8620  -20.5092   -8.8651 C   0  0  1  0  0  0  0  0  0  0  0  0
   27.9869  -19.6144   -8.4819 C   0  0  0  0  0  0  0  0  0  0  0  0
   28.3312  -19.5379   -7.0610 C   0  0  0  0  0  0  0  0  0  0  0  0
   29.0320  -20.5627   -6.4124 C   0  0  0  0  0  0  0  0  0  0  0  0
   29.3947  -20.5027   -5.0871 C   0  0  0  0  0  0  0  0  0  0  0  0
   29.0726  -19.4052   -4.3353 C   0  0  0  0  0  0  0  0  0  0  0  0
   28.3845  -18.3796   -4.9398 C   0  0  0  0  0  0  0  0  0  0  0  0
   28.0222  -18.4412   -6.2663 C   0  0  0  0  0  0  0  0  0  0  0  0
   25.6128  -20.3737   -8.1161 C   0  0  0  0  0  0  0  0  0  0  0  0
   24.7786  -19.4477   -8.4317 O   0  0  0  0  0  0  0  0  0  0  0  0
   25.1743  -21.1779   -7.0307 N   0  0  0  0  0  0  0  0  0  0  0  0
   24.0123  -20.8586   -6.2292 C   0  0  1  0  0  0  0  0  0  0  0  0
   23.4765  -22.2054   -5.7129 C   0  0  0  0  0  0  0  0  0  0  0  0
   22.3518  -22.0154   -4.7945 C   0  0  0  0  0  0  0  0  0  0  0  0
   22.4823  -21.5639   -3.4991 C   0  0  0  0  0  0  0  0  0  0  0  0
   21.3774  -21.4010   -2.6672 C   0  0  0  0  0  0  0  0  0  0  0  0
   20.1082  -21.6898   -3.1206 C   0  0  0  0  0  0  0  0  0  0  0  0
   19.9675  -22.1387   -4.4052 C   0  0  0  0  0  0  0  0  0  0  0  0
   21.0743  -22.2976   -5.2259 C   0  0  0  0  0  0  0  0  0  0  0  0
   24.2629  -19.9276   -5.1407 C   0  0  0  0  0  0  0  0  0  0  0  0
   23.3213  -19.0312   -4.6793 O   0  0  0  0  0  0  0  0  0  0  0  0
   25.3860  -19.8965   -4.5519 O   0  0  0  0  0  0  0  0  0  0  0  0
  2  1  1  1
  3  2  1  0
  4  2  1  0
  4  5  2  0
  6  4  1  0
  7  6  1  0
  7  8  1  1
  9 14  1  0
  9  8  1  0
 10  9  2  0
 11 12  2  0
 11 10  1  0
 12 13  1  0
 13 14  2  0
 15  7  1  0
 15 17  1  0
 16 15  2  0
 18 17  1  0
 18 26  1  0
 19 20  1  0
 18 19  1  1
 20 25  2  0
 21 22  2  0
 21 20  1  0
 22 23  1  0
 23 24  2  0
 25 24  1  0
 26 28  2  0
 26 27  1  0
M  END
$$$$
