AFF.pdb
     RDKit          3D

 28 29  0  0  1  0  0  0  0  0999 V2000
   27.2963  -17.6959  -18.1783 C   0  0  0  0  0  0  0  0  0  0  0  0
   28.0069  -18.8821  -17.6041 C   0  0  2  0  0  0  0  0  0  0  0  0
   28.4985  -19.7804  -18.6142 N   0  0  0  0  0  0  0  0  0  0  0  0
   27.1838  -19.5880  -16.5858 C   0  0  0  0  0  0  0  0  0  0  0  0
   26.4088  -20.4973  -16.9832 O   0  0  0  0  0  0  0  0  0  0  0  0
   27.2513  -19.2677  -15.2144 N   0  0  0  0  0  0  0  0  0  0  0  0
   26.4133  -19.9406  -14.1915 C   0  0  1  0  0  0  0  0  0  0  0  0
   26.9821  -19.6855  -12.8408 C   0  0  0  0  0  0  0  0  0  0  0  0
   26.2095  -20.1498  -11.6872 C   0  0  0  0  0  0  0  0  0  0  0  0
   26.6473  -19.9467  -10.3722 C   0  0  0  0  0  0  0  0  0  0  0  0
   25.9267  -20.3451   -9.2705 C   0  0  0  0  0  0  0  0  0  0  0  0
   24.7206  -20.9727   -9.4283 C   0  0  0  0  0  0  0  0  0  0  0  0
   24.2598  -21.1886  -10.7057 C   0  0  0  0  0  0  0  0  0  0  0  0
   24.9821  -20.7893  -11.8072 C   0  0  0  0  0  0  0  0  0  0  0  0
   25.0324  -19.5197  -14.4276 C   0  0  0  0  0  0  0  0  0  0  0  0
   24.7576  -18.2682  -14.5334 O   0  0  0  0  0  0  0  0  0  0  0  0
   23.8945  -20.3578  -14.5683 N   0  0  0  0  0  0  0  0  0  0  0  0
   22.5422  -19.8482  -14.6478 C   0  0  1  0  0  0  0  0  0  0  0  0
   22.1383  -19.9611  -16.1282 C   0  0  0  0  0  0  0  0  0  0  0  0
   20.7494  -19.5455  -16.3354 C   0  0  0  0  0  0  0  0  0  0  0  0
   19.6683  -20.3943  -16.2377 C   0  0  0  0  0  0  0  0  0  0  0  0
   18.3662  -19.9459  -16.4450 C   0  0  0  0  0  0  0  0  0  0  0  0
   18.1191  -18.6264  -16.7571 C   0  0  0  0  0  0  0  0  0  0  0  0
   19.1855  -17.7752  -16.8566 C   0  0  0  0  0  0  0  0  0  0  0  0
   20.4787  -18.2316  -16.6483 C   0  0  0  0  0  0  0  0  0  0  0  0
   21.5888  -20.5188  -13.7785 C   0  0  0  0  0  0  0  0  0  0  0  0
   21.5764  -21.8837  -13.5788 O   0  0  0  0  0  0  0  0  0  0  0  0
   20.7037  -19.8634  -13.1493 O   0  0  0  0  0  0  0  0  0  0  0  0
  2  1  1  6
  3  2  1  0
  4  2  1  0
  4  5  2  0
  6  4  1  0
  7  6  1  0
  7  8  1  1
  9 14  1  0
  9  8  1  0
 10  9  2  0
 11 12  2  0
 11 10  1  0
 12 13  1  0
 13 14  2  0
 15  7  1  0
 15 17  1  0
 16 15  2  0
 18 17  1  0
 18 26  1  0
 19 20  1  0
 18 19  1  6
 20 25  2  0
 21 22  2  0
 21 20  1  0
 22 23  1  0
 23 24  2  0
 25 24  1  0
 26 28  2  0
 26 27  1  0
M  END
$$$$
