AFF.pdb
     RDKit          3D

 28 29  0  0  1  0  0  0  0  0999 V2000
   26.4380  -18.0515  -18.6899 C   0  0  0  0  0  0  0  0  0  0  0  0
   27.4233  -18.9772  -18.0463 C   0  0  2  0  0  0  0  0  0  0  0  0
   28.0384  -19.8770  -18.9848 N   0  0  0  0  0  0  0  0  0  0  0  0
   26.8361  -19.7002  -16.8865 C   0  0  0  0  0  0  0  0  0  0  0  0
   26.3454  -20.8414  -17.0919 O   0  0  0  0  0  0  0  0  0  0  0  0
   26.8175  -19.1470  -15.5897 N   0  0  0  0  0  0  0  0  0  0  0  0
   26.2402  -19.8583  -14.4226 C   0  0  1  0  0  0  0  0  0  0  0  0
   26.9725  -19.4612  -13.1902 C   0  0  0  0  0  0  0  0  0  0  0  0
   26.4558  -19.9552  -11.9125 C   0  0  0  0  0  0  0  0  0  0  0  0
   26.6235  -21.2865  -11.5105 C   0  0  0  0  0  0  0  0  0  0  0  0
   26.1754  -21.7688  -10.3030 C   0  0  0  0  0  0  0  0  0  0  0  0
   25.5308  -20.9375   -9.4274 C   0  0  0  0  0  0  0  0  0  0  0  0
   25.3487  -19.6235   -9.7892 C   0  0  0  0  0  0  0  0  0  0  0  0
   25.7978  -19.1423  -10.9981 C   0  0  0  0  0  0  0  0  0  0  0  0
   24.7969  -19.6214  -14.4503 C   0  0  0  0  0  0  0  0  0  0  0  0
   24.3509  -18.4197  -14.5490 O   0  0  0  0  0  0  0  0  0  0  0  0
   23.7681  -20.5982  -14.3844 N   0  0  0  0  0  0  0  0  0  0  0  0
   22.4033  -20.2854  -14.0178 C   0  0  1  0  0  0  0  0  0  0  0  0
   21.5394  -20.7087  -15.2186 C   0  0  0  0  0  0  0  0  0  0  0  0
   21.7176  -19.7980  -16.3514 C   0  0  0  0  0  0  0  0  0  0  0  0
   21.0079  -18.6288  -16.5194 C   0  0  0  0  0  0  0  0  0  0  0  0
   21.2175  -17.7980  -17.6173 C   0  0  0  0  0  0  0  0  0  0  0  0
   22.1506  -18.1250  -18.5774 C   0  0  0  0  0  0  0  0  0  0  0  0
   22.8608  -19.2837  -18.4203 C   0  0  0  0  0  0  0  0  0  0  0  0
   22.6446  -20.1045  -17.3232 C   0  0  0  0  0  0  0  0  0  0  0  0
   21.9489  -20.9063  -12.7840 C   0  0  0  0  0  0  0  0  0  0  0  0
   22.6987  -21.8235  -12.0772 O   0  0  0  0  0  0  0  0  0  0  0  0
   20.8148  -20.6262  -12.2896 O   0  0  0  0  0  0  0  0  0  0  0  0
  2  1  1  6
  3  2  1  0
  4  2  1  0
  4  5  2  0
  6  4  1  0
  7  6  1  0
  7  8  1  1
  9 14  1  0
  9  8  1  0
 10  9  2  0
 11 12  2  0
 11 10  1  0
 12 13  1  0
 13 14  2  0
 15  7  1  0
 15 17  1  0
 16 15  2  0
 18 17  1  0
 18 26  1  0
 19 20  1  0
 18 19  1  6
 20 25  2  0
 21 22  2  0
 21 20  1  0
 22 23  1  0
 23 24  2  0
 25 24  1  0
 26 28  2  0
 26 27  1  0
M  END
$$$$
