AFF.pdb
     RDKit          3D

 28 29  0  0  1  0  0  0  0  0999 V2000
   26.6492  -20.4408  -16.8436 C   0  0  0  0  0  0  0  0  0  0  0  0
   27.4968  -21.4217  -16.0944 C   0  0  2  0  0  0  0  0  0  0  0  0
   27.6343  -22.6782  -16.7808 N   0  0  0  0  0  0  0  0  0  0  0  0
   27.0356  -21.6024  -14.6918 C   0  0  0  0  0  0  0  0  0  0  0  0
   26.2432  -22.5506  -14.4506 O   0  0  0  0  0  0  0  0  0  0  0  0
   27.4577  -20.7528  -13.6487 N   0  0  0  0  0  0  0  0  0  0  0  0
   26.9464  -20.8716  -12.2610 C   0  0  1  0  0  0  0  0  0  0  0  0
   27.9033  -20.2234  -11.3245 C   0  0  0  0  0  0  0  0  0  0  0  0
   27.4664  -20.0360   -9.9398 C   0  0  0  0  0  0  0  0  0  0  0  0
   28.0859  -20.6973   -8.8716 C   0  0  0  0  0  0  0  0  0  0  0  0
   27.7158  -20.5160   -7.5595 C   0  0  0  0  0  0  0  0  0  0  0  0
   26.6981  -19.6564   -7.2450 C   0  0  0  0  0  0  0  0  0  0  0  0
   26.0672  -18.9899   -8.2689 C   0  0  0  0  0  0  0  0  0  0  0  0
   26.4388  -19.1725   -9.5816 C   0  0  0  0  0  0  0  0  0  0  0  0
   25.5722  -20.3701  -12.2686 C   0  0  0  0  0  0  0  0  0  0  0  0
   25.2375  -19.4431  -13.0943 O   0  0  0  0  0  0  0  0  0  0  0  0
   24.4998  -20.7999  -11.4428 N   0  0  0  0  0  0  0  0  0  0  0  0
   23.1092  -20.5602  -11.7643 C   0  0  1  0  0  0  0  0  0  0  0  0
   22.8819  -21.2007  -13.1447 C   0  0  0  0  0  0  0  0  0  0  0  0
   22.3617  -20.2259  -14.1059 C   0  0  0  0  0  0  0  0  0  0  0  0
   21.9278  -18.9633  -13.7648 C   0  0  0  0  0  0  0  0  0  0  0  0
   21.4415  -18.0747  -14.7206 C   0  0  0  0  0  0  0  0  0  0  0  0
   21.3796  -18.4366  -16.0490 C   0  0  0  0  0  0  0  0  0  0  0  0
   21.8079  -19.6880  -16.3985 C   0  0  0  0  0  0  0  0  0  0  0  0
   22.2906  -20.5658  -15.4390 C   0  0  0  0  0  0  0  0  0  0  0  0
   22.1637  -21.0592  -10.7787 C   0  0  0  0  0  0  0  0  0  0  0  0
   22.5205  -21.9013   -9.7459 O   0  0  0  0  0  0  0  0  0  0  0  0
   20.9382  -20.7353  -10.8250 O   0  0  0  0  0  0  0  0  0  0  0  0
  2  1  1  6
  3  2  1  0
  4  2  1  0
  4  5  2  0
  6  4  1  0
  7  6  1  0
  7  8  1  1
  9 14  1  0
  9  8  1  0
 10  9  2  0
 11 12  2  0
 11 10  1  0
 12 13  1  0
 13 14  2  0
 15  7  1  0
 15 17  1  0
 16 15  2  0
 18 17  1  0
 18 26  1  0
 19 20  1  0
 18 19  1  6
 20 25  2  0
 21 22  2  0
 21 20  1  0
 22 23  1  0
 23 24  2  0
 25 24  1  0
 26 28  2  0
 26 27  1  0
M  END
$$$$
