AFF.pdb
     RDKit          3D

 28 29  0  0  1  0  0  0  0  0999 V2000
   19.4309  -13.4690  -14.8892 C   0  0  0  0  0  0  0  0  0  0  0  0
   19.6449  -13.4135  -16.3701 C   0  0  2  0  0  0  0  0  0  0  0  0
   20.2266  -14.6198  -16.8950 N   0  0  0  0  0  0  0  0  0  0  0  0
   20.4086  -12.2046  -16.7798 C   0  0  0  0  0  0  0  0  0  0  0  0
   21.6151  -12.1240  -16.4289 O   0  0  0  0  0  0  0  0  0  0  0  0
   19.8230  -11.1688  -17.5364 N   0  0  0  0  0  0  0  0  0  0  0  0
   20.6117  -10.0517  -18.1120 C   0  0  1  0  0  0  0  0  0  0  0  0
   20.0889   -9.7237  -19.4655 C   0  0  0  0  0  0  0  0  0  0  0  0
   20.6483   -8.5484  -20.1358 C   0  0  0  0  0  0  0  0  0  0  0  0
   21.8850   -8.5887  -20.7922 C   0  0  0  0  0  0  0  0  0  0  0  0
   22.4191   -7.5087  -21.4554 C   0  0  0  0  0  0  0  0  0  0  0  0
   21.7380   -6.3221  -21.4968 C   0  0  0  0  0  0  0  0  0  0  0  0
   20.5202   -6.2465  -20.8629 C   0  0  0  0  0  0  0  0  0  0  0  0
   19.9871   -7.3284  -20.1995 C   0  0  0  0  0  0  0  0  0  0  0  0
   20.6187   -8.9785  -17.1180 C   0  0  0  0  0  0  0  0  0  0  0  0
   19.5477   -8.7161  -16.4569 O   0  0  0  0  0  0  0  0  0  0  0  0
   21.7143   -8.1469  -16.7644 N   0  0  0  0  0  0  0  0  0  0  0  0
   21.5982   -7.0344  -15.8459 C   0  0  1  0  0  0  0  0  0  0  0  0
   22.2225   -7.5152  -14.5244 C   0  0  0  0  0  0  0  0  0  0  0  0
   23.3956   -8.3585  -14.7643 C   0  0  0  0  0  0  0  0  0  0  0  0
   24.4305   -8.0172  -15.6077 C   0  0  0  0  0  0  0  0  0  0  0  0
   25.5241   -8.8579  -15.7997 C   0  0  0  0  0  0  0  0  0  0  0  0
   25.6034  -10.0679  -15.1447 C   0  0  0  0  0  0  0  0  0  0  0  0
   24.5812  -10.4164  -14.3050 C   0  0  0  0  0  0  0  0  0  0  0  0
   23.4961   -9.5722  -14.1205 C   0  0  0  0  0  0  0  0  0  0  0  0
   22.2081   -5.7984  -16.3094 C   0  0  0  0  0  0  0  0  0  0  0  0
   22.9871   -5.7182  -17.4451 O   0  0  0  0  0  0  0  0  0  0  0  0
   22.0479   -4.7117  -15.6752 O   0  0  0  0  0  0  0  0  0  0  0  0
  2  1  1  1
  3  2  1  0
  4  2  1  0
  4  5  2  0
  6  4  1  0
  7  6  1  0
  7  8  1  6
  9 14  1  0
  9  8  1  0
 10  9  2  0
 11 12  2  0
 11 10  1  0
 12 13  1  0
 13 14  2  0
 15  7  1  0
 15 17  1  0
 16 15  2  0
 18 17  1  0
 18 26  1  0
 19 20  1  0
 18 19  1  1
 20 25  2  0
 21 22  2  0
 21 20  1  0
 22 23  1  0
 23 24  2  0
 25 24  1  0
 26 28  2  0
 26 27  1  0
M  END
$$$$
