AFF.pdb
     RDKit          3D

 28 29  0  0  1  0  0  0  0  0999 V2000
   17.0847  -31.9077   -5.3053 C   0  0  0  0  0  0  0  0  0  0  0  0
   17.1890  -30.9062   -4.1971 C   0  0  2  0  0  0  0  0  0  0  0  0
   16.3331  -29.7668   -4.3931 N   0  0  0  0  0  0  0  0  0  0  0  0
   18.5974  -30.5048   -3.9369 C   0  0  0  0  0  0  0  0  0  0  0  0
   19.0936  -29.5988   -4.6567 O   0  0  0  0  0  0  0  0  0  0  0  0
   19.3725  -31.1043   -2.9230 N   0  0  0  0  0  0  0  0  0  0  0  0
   20.7598  -30.6775   -2.6158 C   0  0  1  0  0  0  0  0  0  0  0  0
   20.8968  -30.4594   -1.1507 C   0  0  0  0  0  0  0  0  0  0  0  0
   20.3539  -29.2151   -0.6025 C   0  0  0  0  0  0  0  0  0  0  0  0
   19.2903  -29.2091    0.3090 C   0  0  0  0  0  0  0  0  0  0  0  0
   18.7817  -28.0573    0.8625 C   0  0  0  0  0  0  0  0  0  0  0  0
   19.3151  -26.8414    0.5302 C   0  0  0  0  0  0  0  0  0  0  0  0
   20.3608  -26.8096   -0.3621 C   0  0  0  0  0  0  0  0  0  0  0  0
   20.8687  -27.9632   -0.9152 C   0  0  0  0  0  0  0  0  0  0  0  0
   21.6538  -31.6564   -3.2342 C   0  0  0  0  0  0  0  0  0  0  0  0
   21.4113  -32.9121   -3.1026 O   0  0  0  0  0  0  0  0  0  0  0  0
   22.8142  -31.3870   -4.0072 N   0  0  0  0  0  0  0  0  0  0  0  0
   23.6643  -32.4271   -4.5459 C   0  0  1  0  0  0  0  0  0  0  0  0
   24.2617  -31.8509   -5.8415 C   0  0  0  0  0  0  0  0  0  0  0  0
   25.0932  -32.8395   -6.5314 C   0  0  0  0  0  0  0  0  0  0  0  0
   24.6181  -33.7182   -7.4808 C   0  0  0  0  0  0  0  0  0  0  0  0
   25.4538  -34.6396   -8.1068 C   0  0  0  0  0  0  0  0  0  0  0  0
   26.7942  -34.6997   -7.7915 C   0  0  0  0  0  0  0  0  0  0  0  0
   27.2761  -33.8318   -6.8502 C   0  0  0  0  0  0  0  0  0  0  0  0
   26.4355  -32.9176   -6.2323 C   0  0  0  0  0  0  0  0  0  0  0  0
   24.7000  -32.8951   -3.6388 C   0  0  0  0  0  0  0  0  0  0  0  0
   25.4524  -32.0507   -2.8489 O   0  0  0  0  0  0  0  0  0  0  0  0
   24.9653  -34.1307   -3.5302 O   0  0  0  0  0  0  0  0  0  0  0  0
  2  1  1  6
  3  2  1  0
  4  2  1  0
  4  5  2  0
  6  4  1  0
  7  6  1  0
  7  8  1  1
  9 14  1  0
  9  8  1  0
 10  9  2  0
 11 12  2  0
 11 10  1  0
 12 13  1  0
 13 14  2  0
 15  7  1  0
 15 17  1  0
 16 15  2  0
 18 17  1  0
 18 26  1  0
 19 20  1  0
 18 19  1  6
 20 25  2  0
 21 22  2  0
 21 20  1  0
 22 23  1  0
 23 24  2  0
 25 24  1  0
 26 28  2  0
 26 27  1  0
M  END
$$$$
