DMD.pdb
     RDKit          3D

 25 24  0  0  1  0  0  0  0  0999 V2000
    8.1289  -16.8673   20.5979 N   0  0  0  0  0  0  0  0  0  0  0  0
    9.5384  -17.0204   20.9394 C   0  0  1  0  0  0  0  0  0  0  0  0
   10.3343  -16.3890   19.7864 C   0  0  0  0  0  0  0  0  0  0  0  0
   10.1690  -17.3074   18.6398 C   0  0  0  0  0  0  0  0  0  0  0  0
    9.0880  -17.3876   17.9917 O   0  0  0  0  0  0  0  0  0  0  0  0
    9.8430  -16.2810   22.1856 C   0  0  0  0  0  0  0  0  0  0  0  0
   11.0206  -16.0558   22.5533 O   0  0  0  0  0  0  0  0  0  0  0  0
   11.2236  -18.1364   18.2203 O   0  0  0  0  0  0  0  0  0  0  0  0
    6.2511  -11.3924   27.1992 C   0  0  0  0  0  0  0  0  0  0  0  0
    6.2360  -12.4336   25.6894 S   0  0  0  0  0  0  0  0  0  0  0  0
    7.7155  -13.5383   25.7591 C   0  0  0  0  0  0  0  0  0  0  0  0
    7.7805  -14.2980   24.4782 C   0  0  0  0  0  0  0  0  0  0  0  0
    8.9979  -15.1319   24.2615 C   0  0  2  0  0  0  0  0  0  0  0  0
    8.7769  -15.8226   22.9731 N   0  0  0  0  0  0  0  0  0  0  0  0
    9.2222  -16.1917   25.2675 C   0  0  0  0  0  0  0  0  0  0  0  0
    8.3235  -17.0824   25.4995 O   0  0  0  0  0  0  0  0  0  0  0  0
   10.4159  -16.3189   26.0412 N   0  0  0  0  0  0  0  0  0  0  0  0
   10.5309  -17.3879   27.0150 C   0  0  1  0  0  0  0  0  0  0  0  0
   11.9037  -18.0600   26.8915 C   0  0  0  0  0  0  0  0  0  0  0  0
   12.1217  -18.7046   25.5954 C   0  0  0  0  0  0  0  0  0  0  0  0
   11.2698  -18.7240   24.6935 O   0  0  0  0  0  0  0  0  0  0  0  0
   10.3662  -16.9282   28.3966 C   0  0  0  0  0  0  0  0  0  0  0  0
   10.2633  -15.5588   28.6258 O   0  0  0  0  0  0  0  0  0  0  0  0
   13.3378  -19.3310   25.3544 O   0  0  0  0  0  0  0  0  0  0  0  0
   10.3089  -17.6817   29.4109 O   0  0  0  0  0  0  0  0  0  0  0  0
  2  1  1  6
  2  3  1  0
  2  6  1  0
  3  4  1  0
  4  8  1  0
  4  5  2  0
  6  7  2  0
 10 11  1  0
 10  9  1  0
 11 12  1  0
 13 12  1  1
 14  6  1  0
 14 13  1  0
 15 13  1  0
 15 16  2  0
 17 15  1  0
 18 17  1  0
 18 19  1  1
 20 19  1  0
 20 24  1  0
 21 20  2  0
 22 23  1  0
 22 18  1  0
 25 22  2  0
M  END
$$$$
