DMD.pdb
     RDKit          3D

 25 24  0  0  1  0  0  0  0  0999 V2000
    6.9477  -16.2593   20.6310 N   0  0  0  0  0  0  0  0  0  0  0  0
    8.4041  -16.3196   20.5880 C   0  0  1  0  0  0  0  0  0  0  0  0
    8.8389  -15.4440   19.4023 C   0  0  0  0  0  0  0  0  0  0  0  0
    8.6536  -16.2834   18.1995 C   0  0  0  0  0  0  0  0  0  0  0  0
    7.9811  -17.3520   18.2213 O   0  0  0  0  0  0  0  0  0  0  0  0
    8.9736  -15.7504   21.8308 C   0  0  0  0  0  0  0  0  0  0  0  0
   10.1967  -15.4992   21.9466 O   0  0  0  0  0  0  0  0  0  0  0  0
    9.2254  -15.9182   16.9687 O   0  0  0  0  0  0  0  0  0  0  0  0
    6.4505  -11.3415   25.1683 C   0  0  0  0  0  0  0  0  0  0  0  0
    6.4269  -12.4992   26.5907 S   0  0  0  0  0  0  0  0  0  0  0  0
    7.6534  -13.8364   26.2416 C   0  0  0  0  0  0  0  0  0  0  0  0
    7.4859  -14.2515   24.8196 C   0  0  0  0  0  0  0  0  0  0  0  0
    8.6164  -15.0113   24.2119 C   0  0  2  0  0  0  0  0  0  0  0  0
    8.1126  -15.4879   22.9062 N   0  0  0  0  0  0  0  0  0  0  0  0
    9.0389  -16.2153   24.9584 C   0  0  0  0  0  0  0  0  0  0  0  0
    8.3297  -17.2884   24.9362 O   0  0  0  0  0  0  0  0  0  0  0  0
   10.2319  -16.2930   25.7397 N   0  0  0  0  0  0  0  0  0  0  0  0
   10.5814  -17.5385   26.3962 C   0  0  1  0  0  0  0  0  0  0  0  0
   11.9685  -18.0003   25.9334 C   0  0  0  0  0  0  0  0  0  0  0  0
   12.4137  -19.2386   26.5749 C   0  0  0  0  0  0  0  0  0  0  0  0
   12.6702  -20.2766   25.9454 O   0  0  0  0  0  0  0  0  0  0  0  0
   10.5950  -17.4348   27.8578 C   0  0  0  0  0  0  0  0  0  0  0  0
   10.5086  -18.6090   28.6009 O   0  0  0  0  0  0  0  0  0  0  0  0
   12.5564  -19.2641   27.9563 O   0  0  0  0  0  0  0  0  0  0  0  0
   10.6799  -16.3535   28.5086 O   0  0  0  0  0  0  0  0  0  0  0  0
  2  1  1  1
  2  3  1  0
  2  6  1  0
  3  4  1  0
  4  8  1  0
  4  5  2  0
  6  7  2  0
 10 11  1  0
 10  9  1  0
 11 12  1  0
 13 12  1  1
 14  6  1  0
 14 13  1  0
 15 13  1  0
 15 16  2  0
 17 15  1  0
 18 17  1  0
 18 19  1  6
 20 19  1  0
 20 24  1  0
 21 20  2  0
 22 23  1  0
 22 18  1  0
 25 22  2  0
M  END
$$$$
