DMD.pdb
     RDKit          3D

 25 24  0  0  1  0  0  0  0  0999 V2000
    9.1742  -17.6643   20.9545 N   0  0  0  0  0  0  0  0  0  0  0  0
   10.5294  -17.3126   21.3626 C   0  0  1  0  0  0  0  0  0  0  0  0
   11.2177  -16.7270   20.1198 C   0  0  0  0  0  0  0  0  0  0  0  0
   11.2919  -17.8372   19.1464 C   0  0  0  0  0  0  0  0  0  0  0  0
   11.6239  -19.0079   19.4842 O   0  0  0  0  0  0  0  0  0  0  0  0
   10.4895  -16.2727   22.4161 C   0  0  0  0  0  0  0  0  0  0  0  0
   11.5328  -15.7374   22.8606 O   0  0  0  0  0  0  0  0  0  0  0  0
   10.9901  -17.6296   17.7895 O   0  0  0  0  0  0  0  0  0  0  0  0
    6.4271  -12.2252   27.2927 C   0  0  0  0  0  0  0  0  0  0  0  0
    6.7473  -13.6789   26.2211 S   0  0  0  0  0  0  0  0  0  0  0  0
    7.4559  -13.0553   24.6326 C   0  0  0  0  0  0  0  0  0  0  0  0
    7.7787  -14.2353   23.7807 C   0  0  0  0  0  0  0  0  0  0  0  0
    9.1208  -14.8535   23.9833 C   0  0  2  0  0  0  0  0  0  0  0  0
    9.2437  -15.8806   22.9270 N   0  0  0  0  0  0  0  0  0  0  0  0
    9.3017  -15.5578   25.2704 C   0  0  0  0  0  0  0  0  0  0  0  0
    9.5201  -14.9031   26.3560 O   0  0  0  0  0  0  0  0  0  0  0  0
    9.2478  -16.9772   25.4186 N   0  0  0  0  0  0  0  0  0  0  0  0
    9.5465  -17.5775   26.7050 C   0  0  1  0  0  0  0  0  0  0  0  0
    8.9232  -18.9762   26.7849 C   0  0  0  0  0  0  0  0  0  0  0  0
    7.4670  -18.9569   26.9345 C   0  0  0  0  0  0  0  0  0  0  0  0
    6.7140  -18.3243   26.1780 O   0  0  0  0  0  0  0  0  0  0  0  0
   10.9838  -17.6988   26.9638 C   0  0  0  0  0  0  0  0  0  0  0  0
   11.3953  -17.9970   28.2600 O   0  0  0  0  0  0  0  0  0  0  0  0
    6.8902  -19.6763   27.9732 O   0  0  0  0  0  0  0  0  0  0  0  0
   11.8929  -17.5535   26.0964 O   0  0  0  0  0  0  0  0  0  0  0  0
  2  1  1  6
  2  3  1  0
  2  6  1  0
  3  4  1  0
  4  8  1  0
  4  5  2  0
  6  7  2  0
 10 11  1  0
 10  9  1  0
 11 12  1  0
 13 12  1  1
 14  6  1  0
 14 13  1  0
 15 13  1  0
 15 16  2  0
 17 15  1  0
 18 17  1  0
 18 19  1  6
 20 19  1  0
 20 24  1  0
 21 20  2  0
 22 23  1  0
 22 18  1  0
 25 22  2  0
M  END
$$$$
