DMD.pdb
     RDKit          3D

 25 24  0  0  1  0  0  0  0  0999 V2000
    9.3929  -15.3866   19.1427 N   0  0  0  0  0  0  0  0  0  0  0  0
    8.6003  -16.1011   20.1366 C   0  0  1  0  0  0  0  0  0  0  0  0
    9.0129  -17.5781   20.0392 C   0  0  0  0  0  0  0  0  0  0  0  0
    8.2966  -18.1141   18.8623 C   0  0  0  0  0  0  0  0  0  0  0  0
    7.0484  -17.9876   18.7186 O   0  0  0  0  0  0  0  0  0  0  0  0
    8.9232  -15.6078   21.4949 C   0  0  0  0  0  0  0  0  0  0  0  0
   10.1041  -15.5287   21.9095 O   0  0  0  0  0  0  0  0  0  0  0  0
    8.9873  -18.7928   17.8436 O   0  0  0  0  0  0  0  0  0  0  0  0
    7.6060  -11.8019   27.6235 C   0  0  0  0  0  0  0  0  0  0  0  0
    7.8368  -12.3444   25.8868 S   0  0  0  0  0  0  0  0  0  0  0  0
    6.7054  -13.7759   25.5948 C   0  0  0  0  0  0  0  0  0  0  0  0
    6.8055  -14.1525   24.1559 C   0  0  0  0  0  0  0  0  0  0  0  0
    8.1116  -14.7146   23.7056 C   0  0  2  0  0  0  0  0  0  0  0  0
    7.8711  -15.2197   22.3371 N   0  0  0  0  0  0  0  0  0  0  0  0
    8.6064  -15.8647   24.4917 C   0  0  0  0  0  0  0  0  0  0  0  0
    7.9238  -16.9522   24.5714 O   0  0  0  0  0  0  0  0  0  0  0  0
    9.8442  -15.8720   25.2040 N   0  0  0  0  0  0  0  0  0  0  0  0
   10.3018  -17.0941   25.8375 C   0  0  1  0  0  0  0  0  0  0  0  0
   11.7206  -17.4285   25.3613 C   0  0  0  0  0  0  0  0  0  0  0  0
   12.2891  -18.6107   26.0111 C   0  0  0  0  0  0  0  0  0  0  0  0
   11.7414  -19.7240   25.9972 O   0  0  0  0  0  0  0  0  0  0  0  0
   10.3145  -17.0142   27.3006 C   0  0  0  0  0  0  0  0  0  0  0  0
   10.0081  -15.7929   27.8948 O   0  0  0  0  0  0  0  0  0  0  0  0
   13.4996  -18.4902   26.6815 O   0  0  0  0  0  0  0  0  0  0  0  0
   10.5838  -17.9747   28.0783 O   0  0  0  0  0  0  0  0  0  0  0  0
  2  1  1  6
  2  3  1  0
  2  6  1  0
  3  4  1  0
  4  8  1  0
  4  5  2  0
  6  7  2  0
 10 11  1  0
 10  9  1  0
 11 12  1  0
 13 12  1  1
 14  6  1  0
 14 13  1  0
 15 13  1  0
 15 16  2  0
 17 15  1  0
 18 17  1  0
 18 19  1  6
 20 19  1  0
 20 24  1  0
 21 20  2  0
 22 23  1  0
 22 18  1  0
 25 22  2  0
M  END
$$$$
