DMD.pdb
     RDKit          3D

 25 24  0  0  1  0  0  0  0  0999 V2000
    8.0334  -16.5438   20.6392 N   0  0  0  0  0  0  0  0  0  0  0  0
    9.4685  -16.4490   20.8807 C   0  0  1  0  0  0  0  0  0  0  0  0
   10.0187  -15.4625   19.8388 C   0  0  0  0  0  0  0  0  0  0  0  0
    9.9112  -16.1571   18.5382 C   0  0  0  0  0  0  0  0  0  0  0  0
   10.4636  -17.2721   18.3227 O   0  0  0  0  0  0  0  0  0  0  0  0
    9.7215  -15.9001   22.2325 C   0  0  0  0  0  0  0  0  0  0  0  0
   10.8780  -15.6253   22.6319 O   0  0  0  0  0  0  0  0  0  0  0  0
    9.1788  -15.5961   17.4779 O   0  0  0  0  0  0  0  0  0  0  0  0
    5.8079  -12.3775   26.5356 C   0  0  0  0  0  0  0  0  0  0  0  0
    7.3838  -11.9342   25.7085 S   0  0  0  0  0  0  0  0  0  0  0  0
    7.6309  -13.1158   24.3095 C   0  0  0  0  0  0  0  0  0  0  0  0
    7.6404  -14.4961   24.8723 C   0  0  0  0  0  0  0  0  0  0  0  0
    8.8091  -15.3511   24.5150 C   0  0  2  0  0  0  0  0  0  0  0  0
    8.6297  -15.6845   23.0858 N   0  0  0  0  0  0  0  0  0  0  0  0
    8.8898  -16.6398   25.2349 C   0  0  0  0  0  0  0  0  0  0  0  0
    8.2794  -17.6823   24.7926 O   0  0  0  0  0  0  0  0  0  0  0  0
    9.6297  -16.8362   26.4405 N   0  0  0  0  0  0  0  0  0  0  0  0
   10.3772  -18.0644   26.6332 C   0  0  1  0  0  0  0  0  0  0  0  0
   11.4025  -18.2330   25.5055 C   0  0  0  0  0  0  0  0  0  0  0  0
   12.2495  -19.4169   25.6611 C   0  0  0  0  0  0  0  0  0  0  0  0
   11.7966  -20.5597   25.8300 O   0  0  0  0  0  0  0  0  0  0  0  0
   11.0893  -18.1102   27.9131 C   0  0  0  0  0  0  0  0  0  0  0  0
   11.0919  -16.9651   28.7051 O   0  0  0  0  0  0  0  0  0  0  0  0
   13.6294  -19.2637   25.6222 O   0  0  0  0  0  0  0  0  0  0  0  0
   11.7094  -19.1163   28.3638 O   0  0  0  0  0  0  0  0  0  0  0  0
  2  1  1  6
  2  3  1  0
  2  6  1  0
  3  4  1  0
  4  8  1  0
  4  5  2  0
  6  7  2  0
 10 11  1  0
 10  9  1  0
 11 12  1  0
 13 12  1  1
 14  6  1  0
 14 13  1  0
 15 13  1  0
 15 16  2  0
 17 15  1  0
 18 17  1  0
 18 19  1  6
 20 19  1  0
 20 24  1  0
 21 20  2  0
 22 23  1  0
 22 18  1  0
 25 22  2  0
M  END
$$$$
