DMD.pdb
     RDKit          3D

 25 24  0  0  1  0  0  0  0  0999 V2000
    7.3861  -17.1967   21.0496 N   0  0  0  0  0  0  0  0  0  0  0  0
    8.7258  -16.7064   20.7474 C   0  0  1  0  0  0  0  0  0  0  0  0
    8.6201  -15.9526   19.4125 C   0  0  0  0  0  0  0  0  0  0  0  0
    8.4095  -16.9934   18.3840 C   0  0  0  0  0  0  0  0  0  0  0  0
    8.3039  -18.2174   18.6765 O   0  0  0  0  0  0  0  0  0  0  0  0
    9.1677  -15.7565   21.7939 C   0  0  0  0  0  0  0  0  0  0  0  0
   10.3025  -15.2233   21.7705 O   0  0  0  0  0  0  0  0  0  0  0  0
    8.3160  -16.6557   17.0229 O   0  0  0  0  0  0  0  0  0  0  0  0
    6.0303  -11.3726   27.5323 C   0  0  0  0  0  0  0  0  0  0  0  0
    5.8862  -12.6199   26.1954 S   0  0  0  0  0  0  0  0  0  0  0  0
    7.5880  -12.9514   25.5564 C   0  0  0  0  0  0  0  0  0  0  0  0
    7.4657  -13.8493   24.3728 C   0  0  0  0  0  0  0  0  0  0  0  0
    8.6914  -14.6043   23.9823 C   0  0  2  0  0  0  0  0  0  0  0  0
    8.2849  -15.4495   22.8395 N   0  0  0  0  0  0  0  0  0  0  0  0
    9.2187  -15.5244   25.0123 C   0  0  0  0  0  0  0  0  0  0  0  0
    9.6577  -15.0761   26.1354 O   0  0  0  0  0  0  0  0  0  0  0  0
    9.2817  -16.9429   24.8593 N   0  0  0  0  0  0  0  0  0  0  0  0
    9.9372  -17.7469   25.8733 C   0  0  1  0  0  0  0  0  0  0  0  0
    9.7460  -19.2362   25.5618 C   0  0  0  0  0  0  0  0  0  0  0  0
    8.3406  -19.6369   25.4751 C   0  0  0  0  0  0  0  0  0  0  0  0
    7.4191  -19.0068   26.0167 O   0  0  0  0  0  0  0  0  0  0  0  0
   11.3741  -17.4799   25.9796 C   0  0  0  0  0  0  0  0  0  0  0  0
   12.0974  -17.2969   24.8041 O   0  0  0  0  0  0  0  0  0  0  0  0
    8.0124  -20.7791   24.7561 O   0  0  0  0  0  0  0  0  0  0  0  0
   12.0199  -17.4006   27.0643 O   0  0  0  0  0  0  0  0  0  0  0  0
  2  1  1  1
  2  3  1  0
  2  6  1  0
  3  4  1  0
  4  8  1  0
  4  5  2  0
  6  7  2  0
 10 11  1  0
 10  9  1  0
 11 12  1  0
 13 12  1  1
 14  6  1  0
 14 13  1  0
 15 13  1  0
 15 16  2  0
 17 15  1  0
 18 17  1  0
 18 19  1  6
 20 19  1  0
 20 24  1  0
 21 20  2  0
 22 23  1  0
 22 18  1  0
 25 22  2  0
M  END
$$$$
