NVV.pdb
     RDKit          3D

 23 22  0  0  1  0  0  0  0  0999 V2000
   15.9036  -11.1530  -18.1569 N   0  0  0  0  0  0  0  0  0  0  0  0
   15.5563   -9.9105  -17.5853 C   0  0  0  0  0  0  0  0  0  0  0  0
   14.7174   -9.2006  -18.1975 O   0  0  0  0  0  0  0  0  0  0  0  0
   16.1780   -9.4852  -16.3044 C   0  0  0  0  0  0  0  0  0  0  0  0
   17.1496  -10.5544  -15.8883 C   0  0  2  0  0  0  0  0  0  0  0  0
   16.4965  -11.6455  -15.2352 N   0  0  0  0  0  0  0  0  0  0  0  0
   18.2437  -10.0373  -15.0420 C   0  0  0  0  0  0  0  0  0  0  0  0
   18.0590   -9.8463  -13.8119 O   0  0  0  0  0  0  0  0  0  0  0  0
   22.2239   -9.9085  -16.4590 C   0  0  0  0  0  0  0  0  0  0  0  0
   21.8372   -9.9674  -14.9998 C   0  0  1  0  0  0  0  0  0  0  0  0
   22.9884   -9.3999  -14.1995 C   0  0  0  0  0  0  0  0  0  0  0  0
   20.5491   -9.1741  -14.7469 C   0  0  2  0  0  0  0  0  0  0  0  0
   19.5346   -9.7385  -15.5791 N   0  0  0  0  0  0  0  0  0  0  0  0
   20.8322   -7.7504  -15.0555 C   0  0  0  0  0  0  0  0  0  0  0  0
   20.9867   -7.3939  -16.2520 O   0  0  0  0  0  0  0  0  0  0  0  0
   18.7526   -4.8455  -14.7603 C   0  0  0  0  0  0  0  0  0  0  0  0
   20.0042   -4.4652  -14.0026 C   0  0  2  0  0  0  0  0  0  0  0  0
   20.2826   -3.0037  -14.1658 C   0  0  0  0  0  0  0  0  0  0  0  0
   21.1764   -5.3442  -14.3591 C   0  0  2  0  0  0  0  0  0  0  0  0
   20.9442   -6.7361  -14.0761 N   0  0  0  0  0  0  0  0  0  0  0  0
   22.3437   -4.8564  -13.5767 C   0  0  0  0  0  0  0  0  0  0  0  0
   22.5395   -5.3283  -12.4279 O   0  0  0  0  0  0  0  0  0  0  0  0
   23.2338   -3.9075  -14.0404 O   0  0  0  0  0  0  0  0  0  0  0  0
  1  2  1  0
  2  3  2  0
  4  5  1  0
  4  2  1  0
  5  6  1  1
  7  8  2  0
  7  5  1  0
 10  9  1  6
 10 12  1  0
 10 11  1  0
 12 13  1  6
 13  7  1  0
 14 20  1  0
 14 12  1  0
 15 14  2  0
 17 16  1  6
 17 19  1  0
 18 17  1  0
 19 20  1  1
 19 21  1  0
 21 23  1  0
 22 21  2  0
M  END
$$$$
