NVV.pdb
     RDKit          3D

 23 22  0  0  1  0  0  0  0  0999 V2000
   17.1107  -16.8021  -15.7370 N   0  0  0  0  0  0  0  0  0  0  0  0
   16.8426  -16.4552  -17.0783 C   0  0  0  0  0  0  0  0  0  0  0  0
   16.3433  -17.3393  -17.8210 O   0  0  0  0  0  0  0  0  0  0  0  0
   17.1510  -15.0854  -17.5646 C   0  0  0  0  0  0  0  0  0  0  0  0
   17.7073  -14.3020  -16.4081 C   0  0  2  0  0  0  0  0  0  0  0  0
   16.7342  -14.1024  -15.3801 N   0  0  0  0  0  0  0  0  0  0  0  0
   18.2859  -13.0067  -16.8182 C   0  0  0  0  0  0  0  0  0  0  0  0
   19.2090  -12.9656  -17.6726 O   0  0  0  0  0  0  0  0  0  0  0  0
   16.2948   -9.5382  -15.8402 C   0  0  0  0  0  0  0  0  0  0  0  0
   17.3203   -9.5396  -16.9495 C   0  0  1  0  0  0  0  0  0  0  0  0
   17.8637   -8.1331  -17.0703 C   0  0  0  0  0  0  0  0  0  0  0  0
   18.4448  -10.5383  -16.6484 C   0  0  2  0  0  0  0  0  0  0  0  0
   17.8268  -11.7691  -16.2691 N   0  0  0  0  0  0  0  0  0  0  0  0
   19.2877   -9.9536  -15.5761 C   0  0  0  0  0  0  0  0  0  0  0  0
   18.8896   -9.9925  -14.3833 O   0  0  0  0  0  0  0  0  0  0  0  0
   23.4557   -9.0750  -16.2291 C   0  0  0  0  0  0  0  0  0  0  0  0
   22.8268   -9.4286  -14.9008 C   0  0  2  0  0  0  0  0  0  0  0  0
   22.9137  -10.9041  -14.6647 C   0  0  0  0  0  0  0  0  0  0  0  0
   21.4289   -8.8794  -14.7668 C   0  0  2  0  0  0  0  0  0  0  0  0
   20.5411   -9.3384  -15.8025 N   0  0  0  0  0  0  0  0  0  0  0  0
   21.5347   -7.3964  -14.8112 C   0  0  0  0  0  0  0  0  0  0  0  0
   21.2678   -6.8046  -15.8880 O   0  0  0  0  0  0  0  0  0  0  0  0
   21.9118   -6.6229  -13.7309 O   0  0  0  0  0  0  0  0  0  0  0  0
  1  2  1  0
  2  3  2  0
  4  5  1  0
  4  2  1  0
  5  6  1  1
  7  8  2  0
  7  5  1  0
 10  9  1  1
 10 12  1  0
 10 11  1  0
 12 13  1  1
 13  7  1  0
 14 20  1  0
 14 12  1  0
 15 14  2  0
 17 16  1  6
 17 19  1  0
 18 17  1  0
 19 20  1  6
 19 21  1  0
 21 23  1  0
 22 21  2  0
M  END
$$$$
