NVV.pdb
     RDKit          3D

 23 22  0  0  1  0  0  0  0  0999 V2000
   14.2296  -14.3125  -15.4474 N   0  0  0  0  0  0  0  0  0  0  0  0
   14.5020  -13.0185  -15.9399 C   0  0  0  0  0  0  0  0  0  0  0  0
   13.5260  -12.2456  -16.1208 O   0  0  0  0  0  0  0  0  0  0  0  0
   15.9033  -12.6144  -16.2246 C   0  0  0  0  0  0  0  0  0  0  0  0
   15.9013  -11.8164  -17.4987 C   0  0  2  0  0  0  0  0  0  0  0  0
   15.5991  -12.6269  -18.6368 N   0  0  0  0  0  0  0  0  0  0  0  0
   17.1642  -11.0832  -17.7183 C   0  0  0  0  0  0  0  0  0  0  0  0
   18.1050  -11.6173  -18.3613 O   0  0  0  0  0  0  0  0  0  0  0  0
   17.5859   -7.8240  -19.3667 C   0  0  0  0  0  0  0  0  0  0  0  0
   18.2535   -7.6960  -18.0176 C   0  0  1  0  0  0  0  0  0  0  0  0
   17.3001   -6.9572  -17.1049 C   0  0  0  0  0  0  0  0  0  0  0  0
   18.5977   -9.0782  -17.4486 C   0  0  2  0  0  0  0  0  0  0  0  0
   17.3635   -9.7592  -17.2168 N   0  0  0  0  0  0  0  0  0  0  0  0
   19.3901   -8.8686  -16.2116 C   0  0  0  0  0  0  0  0  0  0  0  0
   18.8001   -8.7847  -15.1036 O   0  0  0  0  0  0  0  0  0  0  0  0
   22.3098  -11.1127  -15.3494 C   0  0  0  0  0  0  0  0  0  0  0  0
   22.7558   -9.7025  -15.0377 C   0  0  2  0  0  0  0  0  0  0  0  0
   23.5977   -9.6886  -13.8002 C   0  0  0  0  0  0  0  0  0  0  0  0
   21.5995   -8.7357  -14.9892 C   0  0  2  0  0  0  0  0  0  0  0  0
   20.7996   -8.7529  -16.1855 N   0  0  0  0  0  0  0  0  0  0  0  0
   22.1716   -7.3784  -14.7822 C   0  0  0  0  0  0  0  0  0  0  0  0
   22.4015   -6.6607  -15.7887 O   0  0  0  0  0  0  0  0  0  0  0  0
   22.4684   -6.8538  -13.5394 O   0  0  0  0  0  0  0  0  0  0  0  0
  1  2  1  0
  2  3  2  0
  4  5  1  0
  4  2  1  0
  5  6  1  6
  7  8  2  0
  7  5  1  0
 10  9  1  6
 10 12  1  0
 10 11  1  0
 12 13  1  1
 13  7  1  0
 14 20  1  0
 14 12  1  0
 15 14  2  0
 17 16  1  1
 17 19  1  0
 18 17  1  0
 19 20  1  6
 19 21  1  0
 21 23  1  0
 22 21  2  0
M  END
$$$$
