NVV.pdb
     RDKit          3D

 23 22  0  0  1  0  0  0  0  0999 V2000
   27.9076  -27.1011  -17.0995 N   0  0  0  0  0  0  0  0  0  0  0  0
   27.3144  -25.8209  -17.1201 C   0  0  0  0  0  0  0  0  0  0  0  0
   26.4396  -25.5972  -17.9959 O   0  0  0  0  0  0  0  0  0  0  0  0
   27.7311  -24.7959  -16.1283 C   0  0  0  0  0  0  0  0  0  0  0  0
   27.9215  -23.4975  -16.8621 C   0  0  2  0  0  0  0  0  0  0  0  0
   29.1850  -23.4402  -17.5282 N   0  0  0  0  0  0  0  0  0  0  0  0
   27.7520  -22.3166  -15.9918 C   0  0  0  0  0  0  0  0  0  0  0  0
   28.7045  -21.9148  -15.2741 O   0  0  0  0  0  0  0  0  0  0  0  0
   26.4486  -18.7992  -16.7557 C   0  0  0  0  0  0  0  0  0  0  0  0
   25.5914  -19.4132  -15.6739 C   0  0  1  0  0  0  0  0  0  0  0  0
   24.3238  -19.9175  -16.3273 C   0  0  0  0  0  0  0  0  0  0  0  0
   26.3380  -20.5541  -14.9714 C   0  0  2  0  0  0  0  0  0  0  0  0
   26.5188  -21.5957  -15.9321 N   0  0  0  0  0  0  0  0  0  0  0  0
   25.5219  -20.9716  -13.8044 C   0  0  0  0  0  0  0  0  0  0  0  0
   24.6085  -21.8228  -13.9587 O   0  0  0  0  0  0  0  0  0  0  0  0
   26.7876  -20.5216   -9.7609 C   0  0  0  0  0  0  0  0  0  0  0  0
   25.3489  -20.1826  -10.0776 C   0  0  2  0  0  0  0  0  0  0  0  0
   24.4740  -20.4964   -8.9044 C   0  0  0  0  0  0  0  0  0  0  0  0
   24.8823  -20.8185  -11.3629 C   0  0  2  0  0  0  0  0  0  0  0  0
   25.7002  -20.4689  -12.4943 N   0  0  0  0  0  0  0  0  0  0  0  0
   23.4830  -20.3687  -11.5915 C   0  0  0  0  0  0  0  0  0  0  0  0
   22.5450  -21.0329  -11.0816 O   0  0  0  0  0  0  0  0  0  0  0  0
   23.1487  -19.2551  -12.3370 O   0  0  0  0  0  0  0  0  0  0  0  0
  1  2  1  0
  2  3  2  0
  4  5  1  0
  4  2  1  0
  5  6  1  1
  7  8  2  0
  7  5  1  0
 10  9  1  6
 10 12  1  0
 10 11  1  0
 12 13  1  6
 13  7  1  0
 14 20  1  0
 14 12  1  0
 15 14  2  0
 17 16  1  1
 17 19  1  0
 18 17  1  0
 19 20  1  6
 19 21  1  0
 21 23  1  0
 22 21  2  0
M  END
$$$$
