NVV.pdb
     RDKit          3D

 23 22  0  0  1  0  0  0  0  0999 V2000
   28.7161  -26.9944  -17.3430 N   0  0  0  0  0  0  0  0  0  0  0  0
   28.4639  -25.6334  -17.6175 C   0  0  0  0  0  0  0  0  0  0  0  0
   28.7582  -25.2049  -18.7631 O   0  0  0  0  0  0  0  0  0  0  0  0
   27.8707  -24.7640  -16.5685 C   0  0  0  0  0  0  0  0  0  0  0  0
   28.5627  -23.4307  -16.6318 C   0  0  2  0  0  0  0  0  0  0  0  0
   29.9413  -23.5259  -16.2658 N   0  0  0  0  0  0  0  0  0  0  0  0
   27.8914  -22.3971  -15.8184 C   0  0  0  0  0  0  0  0  0  0  0  0
   28.0962  -22.3327  -14.5784 O   0  0  0  0  0  0  0  0  0  0  0  0
   28.1750  -18.9159  -15.6506 C   0  0  0  0  0  0  0  0  0  0  0  0
   26.7083  -19.1200  -15.9496 C   0  0  1  0  0  0  0  0  0  0  0  0
   26.5045  -18.8686  -17.4272 C   0  0  0  0  0  0  0  0  0  0  0  0
   26.2687  -20.5392  -15.5686 C   0  0  2  0  0  0  0  0  0  0  0  0
   26.9971  -21.4447  -16.3993 N   0  0  0  0  0  0  0  0  0  0  0  0
   24.7999  -20.6206  -15.7640 C   0  0  0  0  0  0  0  0  0  0  0  0
   24.3379  -20.8338  -16.9146 O   0  0  0  0  0  0  0  0  0  0  0  0
   22.5053  -23.0376  -14.4775 C   0  0  0  0  0  0  0  0  0  0  0  0
   21.8217  -21.7304  -14.1478 C   0  0  2  0  0  0  0  0  0  0  0  0
   20.3431  -21.8575  -14.3420 C   0  0  0  0  0  0  0  0  0  0  0  0
   22.4278  -20.5661  -14.8899 C   0  0  2  0  0  0  0  0  0  0  0  0
   23.8542  -20.4718  -14.7227 N   0  0  0  0  0  0  0  0  0  0  0  0
   21.7752  -19.3318  -14.3769 C   0  0  0  0  0  0  0  0  0  0  0  0
   22.2998  -18.7318  -13.4044 O   0  0  0  0  0  0  0  0  0  0  0  0
   20.6170  -18.8001  -14.9093 O   0  0  0  0  0  0  0  0  0  0  0  0
  1  2  1  0
  2  3  2  0
  4  5  1  0
  4  2  1  0
  5  6  1  1
  7  8  2  0
  7  5  1  0
 10  9  1  6
 10 12  1  0
 10 11  1  0
 12 13  1  6
 13  7  1  0
 14 20  1  0
 14 12  1  0
 15 14  2  0
 17 16  1  6
 17 19  1  0
 18 17  1  0
 19 20  1  1
 19 21  1  0
 21 23  1  0
 22 21  2  0
M  END
$$$$
