NVV.pdb
     RDKit          3D

 23 22  0  0  1  0  0  0  0  0999 V2000
   19.7670  -23.3695  -14.4714 N   0  0  0  0  0  0  0  0  0  0  0  0
   19.3103  -22.2464  -13.7495 C   0  0  0  0  0  0  0  0  0  0  0  0
   18.1980  -22.3387  -13.1690 O   0  0  0  0  0  0  0  0  0  0  0  0
   20.1380  -21.0135  -13.6967 C   0  0  0  0  0  0  0  0  0  0  0  0
   21.1000  -21.1550  -12.5499 C   0  0  2  0  0  0  0  0  0  0  0  0
   20.5051  -20.7838  -11.3042 N   0  0  0  0  0  0  0  0  0  0  0  0
   22.3544  -20.4040  -12.7575 C   0  0  0  0  0  0  0  0  0  0  0  0
   22.3787  -19.1546  -12.6080 O   0  0  0  0  0  0  0  0  0  0  0  0
   25.4465  -20.7943  -10.9300 C   0  0  0  0  0  0  0  0  0  0  0  0
   25.8327  -20.9390  -12.3834 C   0  0  1  0  0  0  0  0  0  0  0  0
   25.9779  -22.4167  -12.6720 C   0  0  0  0  0  0  0  0  0  0  0  0
   24.7733  -20.3038  -13.2926 C   0  0  2  0  0  0  0  0  0  0  0  0
   23.5704  -21.0570  -13.1305 N   0  0  0  0  0  0  0  0  0  0  0  0
   25.2982  -20.3337  -14.6804 C   0  0  0  0  0  0  0  0  0  0  0  0
   25.0599  -21.3287  -15.4124 O   0  0  0  0  0  0  0  0  0  0  0  0
   25.5677  -16.9933  -17.0788 C   0  0  0  0  0  0  0  0  0  0  0  0
   25.6294  -18.4381  -17.5188 C   0  0  2  0  0  0  0  0  0  0  0  0
   24.2469  -18.9911  -17.6712 C   0  0  0  0  0  0  0  0  0  0  0  0
   26.5146  -19.2697  -16.6250 C   0  0  2  0  0  0  0  0  0  0  0  0
   26.0683  -19.2968  -15.2570 N   0  0  0  0  0  0  0  0  0  0  0  0
   27.8821  -18.6893  -16.7000 C   0  0  0  0  0  0  0  0  0  0  0  0
   28.2414  -17.8753  -15.8117 O   0  0  0  0  0  0  0  0  0  0  0  0
   28.7894  -18.9934  -17.6960 O   0  0  0  0  0  0  0  0  0  0  0  0
  1  2  1  0
  2  3  2  0
  4  5  1  0
  4  2  1  0
  5  6  1  1
  7  8  2  0
  7  5  1  0
 10  9  1  1
 10 12  1  0
 10 11  1  0
 12 13  1  6
 13  7  1  0
 14 20  1  0
 14 12  1  0
 15 14  2  0
 17 16  1  1
 17 19  1  0
 18 17  1  0
 19 20  1  1
 19 21  1  0
 21 23  1  0
 22 21  2  0
M  END
$$$$
