NVV.pdb
     RDKit          3D

 23 22  0  0  1  0  0  0  0  0999 V2000
   15.6114  -12.4488  -15.8911 N   0  0  0  0  0  0  0  0  0  0  0  0
   16.5990  -12.3685  -14.8864 C   0  0  0  0  0  0  0  0  0  0  0  0
   16.3580  -12.9272  -13.7854 O   0  0  0  0  0  0  0  0  0  0  0  0
   17.8678  -11.6420  -15.1518 C   0  0  0  0  0  0  0  0  0  0  0  0
   17.7788  -11.0514  -16.5315 C   0  0  2  0  0  0  0  0  0  0  0  0
   18.0537  -12.0198  -17.5465 N   0  0  0  0  0  0  0  0  0  0  0  0
   18.6483   -9.8708  -16.7072 C   0  0  0  0  0  0  0  0  0  0  0  0
   19.8821  -10.0152  -16.9088 O   0  0  0  0  0  0  0  0  0  0  0  0
   18.2991   -7.2373  -19.2747 C   0  0  0  0  0  0  0  0  0  0  0  0
   18.3270   -6.5366  -17.9366 C   0  0  1  0  0  0  0  0  0  0  0  0
   16.8975   -6.2181  -17.5584 C   0  0  0  0  0  0  0  0  0  0  0  0
   18.9916   -7.4210  -16.8742 C   0  0  2  0  0  0  0  0  0  0  0  0
   18.1301   -8.5393  -16.6558 N   0  0  0  0  0  0  0  0  0  0  0  0
   19.1895   -6.5906  -15.6603 C   0  0  0  0  0  0  0  0  0  0  0  0
   18.2870   -6.5466  -14.7849 O   0  0  0  0  0  0  0  0  0  0  0  0
   23.0273   -5.8248  -14.1047 C   0  0  0  0  0  0  0  0  0  0  0  0
   21.7124   -5.7688  -13.3612 C   0  0  2  0  0  0  0  0  0  0  0  0
   21.3508   -7.1276  -12.8482 C   0  0  0  0  0  0  0  0  0  0  0  0
   20.6213   -5.1248  -14.1789 C   0  0  2  0  0  0  0  0  0  0  0  0
   20.3506   -5.8234  -15.4078 N   0  0  0  0  0  0  0  0  0  0  0  0
   21.0574   -3.7334  -14.4730 C   0  0  0  0  0  0  0  0  0  0  0  0
   21.4683   -3.4619  -15.6299 O   0  0  0  0  0  0  0  0  0  0  0  0
   21.0381   -2.7122  -13.5432 O   0  0  0  0  0  0  0  0  0  0  0  0
  1  2  1  0
  2  3  2  0
  4  5  1  0
  4  2  1  0
  5  6  1  6
  7  8  2  0
  7  5  1  0
 10  9  1  6
 10 12  1  0
 10 11  1  0
 12 13  1  1
 13  7  1  0
 14 20  1  0
 14 12  1  0
 15 14  2  0
 17 16  1  6
 17 19  1  0
 18 17  1  0
 19 20  1  6
 19 21  1  0
 21 23  1  0
 22 21  2  0
M  END
$$$$
