NVV.pdb
     RDKit          3D

 23 22  0  0  1  0  0  0  0  0999 V2000
   19.2204  -15.2571  -20.0927 N   0  0  0  0  0  0  0  0  0  0  0  0
   18.4725  -14.0661  -19.9768 C   0  0  0  0  0  0  0  0  0  0  0  0
   17.7228  -13.7521  -20.9369 O   0  0  0  0  0  0  0  0  0  0  0  0
   18.5893  -13.2349  -18.7506 C   0  0  0  0  0  0  0  0  0  0  0  0
   19.6380  -13.8580  -17.8717 C   0  0  2  0  0  0  0  0  0  0  0  0
   19.2059  -15.1070  -17.3270 N   0  0  0  0  0  0  0  0  0  0  0  0
   20.0864  -12.9596  -16.7888 C   0  0  0  0  0  0  0  0  0  0  0  0
   19.4291  -12.8775  -15.7188 O   0  0  0  0  0  0  0  0  0  0  0  0
   23.5797  -10.1537  -14.7888 C   0  0  0  0  0  0  0  0  0  0  0  0
   23.1200  -11.2529  -15.7176 C   0  0  1  0  0  0  0  0  0  0  0  0
   23.5492  -12.5710  -15.1124 C   0  0  0  0  0  0  0  0  0  0  0  0
   21.5985  -11.2046  -15.9050 C   0  0  2  0  0  0  0  0  0  0  0  0
   21.2660  -12.1612  -16.9125 N   0  0  0  0  0  0  0  0  0  0  0  0
   21.2371   -9.8145  -16.2780 C   0  0  0  0  0  0  0  0  0  0  0  0
   21.6579   -9.3336  -17.3617 O   0  0  0  0  0  0  0  0  0  0  0  0
   17.8963   -8.1802  -16.7943 C   0  0  0  0  0  0  0  0  0  0  0  0
   18.6404   -7.3131  -15.8047 C   0  0  2  0  0  0  0  0  0  0  0  0
   18.3099   -5.8710  -16.0309 C   0  0  0  0  0  0  0  0  0  0  0  0
   20.1214   -7.5968  -15.7979 C   0  0  2  0  0  0  0  0  0  0  0  0
   20.4318   -8.9663  -15.4825 N   0  0  0  0  0  0  0  0  0  0  0  0
   20.7360   -6.6931  -14.7888 C   0  0  0  0  0  0  0  0  0  0  0  0
   20.7694   -7.0639  -13.5879 O   0  0  0  0  0  0  0  0  0  0  0  0
   21.2774   -5.4597  -15.0944 O   0  0  0  0  0  0  0  0  0  0  0  0
  1  2  1  0
  2  3  2  0
  4  5  1  0
  4  2  1  0
  5  6  1  1
  7  8  2  0
  7  5  1  0
 10  9  1  1
 10 12  1  0
 10 11  1  0
 12 13  1  6
 13  7  1  0
 14 20  1  0
 14 12  1  0
 15 14  2  0
 17 16  1  6
 17 19  1  0
 18 17  1  0
 19 20  1  1
 19 21  1  0
 21 23  1  0
 22 21  2  0
M  END
$$$$
