NVV.pdb
     RDKit          3D

 23 22  0  0  1  0  0  0  0  0999 V2000
   20.2159  -19.7069  -15.2701 N   0  0  0  0  0  0  0  0  0  0  0  0
   19.9791  -21.0103  -14.7839 C   0  0  0  0  0  0  0  0  0  0  0  0
   18.8046  -21.4552  -14.8551 O   0  0  0  0  0  0  0  0  0  0  0  0
   21.0994  -21.8028  -14.2140 C   0  0  0  0  0  0  0  0  0  0  0  0
   22.3351  -20.9473  -14.2562 C   0  0  2  0  0  0  0  0  0  0  0  0
   22.9001  -20.8885  -15.5680 N   0  0  0  0  0  0  0  0  0  0  0  0
   23.3595  -21.3708  -13.2805 C   0  0  0  0  0  0  0  0  0  0  0  0
   23.1350  -22.3335  -12.5016 O   0  0  0  0  0  0  0  0  0  0  0  0
   27.0832  -21.7983  -14.0819 C   0  0  0  0  0  0  0  0  0  0  0  0
   26.9695  -20.9707  -12.8231 C   0  0  1  0  0  0  0  0  0  0  0  0
   27.2433  -19.5309  -13.1973 C   0  0  0  0  0  0  0  0  0  0  0  0
   25.5764  -21.1201  -12.1990 C   0  0  2  0  0  0  0  0  0  0  0  0
   24.6257  -20.7139  -13.1848 N   0  0  0  0  0  0  0  0  0  0  0  0
   25.5421  -20.2822  -10.9747 C   0  0  0  0  0  0  0  0  0  0  0  0
   25.1002  -19.1061  -11.0400 O   0  0  0  0  0  0  0  0  0  0  0  0
   25.6972  -21.8856   -6.9387 C   0  0  0  0  0  0  0  0  0  0  0  0
   25.0966  -20.5825   -7.4141 C   0  0  2  0  0  0  0  0  0  0  0  0
   23.6627  -20.7828   -7.7935 C   0  0  0  0  0  0  0  0  0  0  0  0
   25.9210  -19.9362   -8.4988 C   0  0  2  0  0  0  0  0  0  0  0  0
   25.9819  -20.7207   -9.7039 N   0  0  0  0  0  0  0  0  0  0  0  0
   27.2904  -19.7419   -7.9514 C   0  0  0  0  0  0  0  0  0  0  0  0
   28.2208  -20.4702   -8.3813 O   0  0  0  0  0  0  0  0  0  0  0  0
   27.6045  -18.8010   -6.9903 O   0  0  0  0  0  0  0  0  0  0  0  0
  1  2  1  0
  2  3  2  0
  4  5  1  0
  4  2  1  0
  5  6  1  6
  7  8  2  0
  7  5  1  0
 10  9  1  6
 10 12  1  0
 10 11  1  0
 12 13  1  6
 13  7  1  0
 14 20  1  0
 14 12  1  0
 15 14  2  0
 17 16  1  6
 17 19  1  0
 18 17  1  0
 19 20  1  6
 19 21  1  0
 21 23  1  0
 22 21  2  0
M  END
$$$$
