DER.pdb
     RDKit          3D

 29 28  0  0  1  0  0  0  0  0999 V2000
   30.1783  -25.1965  -18.3626 N   0  0  0  0  0  0  0  0  0  0  0  0
   30.4269  -24.7098  -17.0413 C   0  0  1  0  0  0  0  0  0  0  0  0
   31.9439  -24.5999  -16.8469 C   0  0  0  0  0  0  0  0  0  0  0  0
   32.4869  -25.9616  -17.0146 C   0  0  0  0  0  0  0  0  0  0  0  0
   31.7127  -26.9025  -17.2785 O   0  0  0  0  0  0  0  0  0  0  0  0
   29.8045  -23.3973  -16.7587 C   0  0  0  0  0  0  0  0  0  0  0  0
   29.9166  -22.9648  -15.5687 O   0  0  0  0  0  0  0  0  0  0  0  0
   33.8418  -26.1711  -16.8764 O   0  0  0  0  0  0  0  0  0  0  0  0
   29.1158  -22.6322  -17.7206 N   0  0  0  0  0  0  0  0  0  0  0  0
   28.4008  -21.4104  -17.3962 C   0  0  1  0  0  0  0  0  0  0  0  0
   28.9314  -20.2324  -18.1294 C   0  0  0  0  0  0  0  0  0  0  0  0
   28.2095  -18.9551  -18.0371 C   0  0  0  0  0  0  0  0  0  0  0  0
   28.7419  -17.7925  -18.7444 C   0  0  0  0  0  0  0  0  0  0  0  0
   28.2157  -16.6657  -18.7578 O   0  0  0  0  0  0  0  0  0  0  0  0
   26.9563  -21.5676  -17.2913 C   0  0  0  0  0  0  0  0  0  0  0  0
   26.3182  -22.1740  -18.2199 O   0  0  0  0  0  0  0  0  0  0  0  0
   29.9372  -17.8937  -19.4840 O   0  0  0  0  0  0  0  0  0  0  0  0
   19.8378  -22.7725  -14.3022 N   0  0  0  0  0  0  0  0  0  0  0  0
   20.7258  -23.1665  -13.2470 C   0  0  0  0  0  0  0  0  0  0  0  0
   20.5567  -24.2953  -12.6316 N   0  0  0  0  0  0  0  0  0  0  0  0
   21.8131  -22.3494  -12.8334 N   0  0  0  0  0  0  0  0  0  0  0  0
   22.0797  -21.0528  -13.4180 C   0  0  0  0  0  0  0  0  0  0  0  0
   22.6684  -21.3045  -14.8024 C   0  0  0  0  0  0  0  0  0  0  0  0
   24.1516  -21.0693  -14.8190 C   0  0  0  0  0  0  0  0  0  0  0  0
   24.7004  -21.2432  -16.1861 C   0  0  2  0  0  0  0  0  0  0  0  0
   26.1606  -21.0959  -16.2077 N   0  0  0  0  0  0  0  0  0  0  0  0
   24.0611  -20.3729  -17.1867 C   0  0  0  0  0  0  0  0  0  0  0  0
   23.0022  -20.9663  -17.9260 O   0  0  0  0  0  0  0  0  0  0  0  0
   24.3386  -19.1960  -17.4546 O   0  0  0  0  0  0  0  0  0  0  0  0
  2  3  1  0
  2  1  1  6
  3  4  1  0
  4  5  2  0
  6  2  1  0
  6  7  2  0
  8  4  1  0
  9  6  1  0
 10  9  1  0
 10 15  1  0
 10 11  1  6
 12 11  1  0
 12 13  1  0
 13 14  2  0
 15 26  1  0
 16 15  2  0
 17 13  1  0
 18 19  1  0
 19 21  1  0
 20 19  2  0
 21 22  1  0
 22 23  1  0
 23 24  1  0
 25 24  1  1
 25 27  1  0
 26 25  1  0
 27 29  2  0
 27 28  1  0
M  END
$$$$
