DER.pdb
     RDKit          3D

 29 28  0  0  1  0  0  0  0  0999 V2000
   17.4451  -10.2336  -16.3183 N   0  0  0  0  0  0  0  0  0  0  0  0
   17.7790  -10.8158  -15.0557 C   0  0  1  0  0  0  0  0  0  0  0  0
   18.8204  -11.9158  -15.2939 C   0  0  0  0  0  0  0  0  0  0  0  0
   18.1173  -13.0157  -15.9817 C   0  0  0  0  0  0  0  0  0  0  0  0
   17.8180  -14.0452  -15.3454 O   0  0  0  0  0  0  0  0  0  0  0  0
   18.3113   -9.8479  -14.0710 C   0  0  0  0  0  0  0  0  0  0  0  0
   18.5627  -10.3039  -12.9115 O   0  0  0  0  0  0  0  0  0  0  0  0
   17.8029  -12.8868  -17.3171 O   0  0  0  0  0  0  0  0  0  0  0  0
   18.5435   -8.4876  -14.3547 N   0  0  0  0  0  0  0  0  0  0  0  0
   19.0177   -7.5413  -13.3602 C   0  0  1  0  0  0  0  0  0  0  0  0
   19.9941   -6.5724  -13.9210 C   0  0  0  0  0  0  0  0  0  0  0  0
   20.5053   -5.4991  -13.0561 C   0  0  0  0  0  0  0  0  0  0  0  0
   21.6257   -5.7874  -12.1635 C   0  0  0  0  0  0  0  0  0  0  0  0
   21.9896   -5.0614  -11.2215 O   0  0  0  0  0  0  0  0  0  0  0  0
   17.9842   -7.0420  -12.4630 C   0  0  0  0  0  0  0  0  0  0  0  0
   16.9806   -6.4114  -12.9448 O   0  0  0  0  0  0  0  0  0  0  0  0
   22.3887   -6.9601  -12.3328 O   0  0  0  0  0  0  0  0  0  0  0  0
   11.3598   -9.3809   -7.5562 N   0  0  0  0  0  0  0  0  0  0  0  0
   11.6100   -7.9813   -7.3668 C   0  0  0  0  0  0  0  0  0  0  0  0
   10.6974   -7.2124   -6.8593 N   0  0  0  0  0  0  0  0  0  0  0  0
   12.8494   -7.3830   -7.7228 N   0  0  0  0  0  0  0  0  0  0  0  0
   13.8467   -8.0694   -8.5154 C   0  0  0  0  0  0  0  0  0  0  0  0
   14.9301   -7.0476   -8.8444 C   0  0  0  0  0  0  0  0  0  0  0  0
   16.0438   -7.6655   -9.6402 C   0  0  0  0  0  0  0  0  0  0  0  0
   16.9425   -6.6227  -10.1926 C   0  0  2  0  0  0  0  0  0  0  0  0
   17.9856   -7.2019  -11.0473 N   0  0  0  0  0  0  0  0  0  0  0  0
   17.5226   -5.7464   -9.1615 C   0  0  0  0  0  0  0  0  0  0  0  0
   18.9427   -5.7194   -9.1104 O   0  0  0  0  0  0  0  0  0  0  0  0
   16.9204   -5.0387   -8.3428 O   0  0  0  0  0  0  0  0  0  0  0  0
  2  3  1  0
  2  1  1  6
  3  4  1  0
  4  5  2  0
  6  2  1  0
  6  7  2  0
  8  4  1  0
  9  6  1  0
 10  9  1  0
 10 15  1  0
 10 11  1  6
 12 11  1  0
 12 13  1  0
 13 14  2  0
 15 26  1  0
 16 15  2  0
 17 13  1  0
 18 19  1  0
 19 21  1  0
 20 19  2  0
 21 22  1  0
 22 23  1  0
 23 24  1  0
 25 24  1  1
 25 27  1  0
 26 25  1  0
 27 29  2  0
 27 28  1  0
M  END
$$$$
