DER.pdb
     RDKit          3D

 29 28  0  0  1  0  0  0  0  0999 V2000
   24.7904  -15.1879  -17.7351 N   0  0  0  0  0  0  0  0  0  0  0  0
   25.0064  -14.0120  -18.5195 C   0  0  1  0  0  0  0  0  0  0  0  0
   25.1470  -14.4325  -19.9874 C   0  0  0  0  0  0  0  0  0  0  0  0
   26.4619  -15.0908  -20.1099 C   0  0  0  0  0  0  0  0  0  0  0  0
   26.6957  -16.1217  -19.4489 O   0  0  0  0  0  0  0  0  0  0  0  0
   23.9264  -13.0069  -18.4034 C   0  0  0  0  0  0  0  0  0  0  0  0
   24.0030  -12.0049  -19.1817 O   0  0  0  0  0  0  0  0  0  0  0  0
   27.4104  -14.5547  -20.9534 O   0  0  0  0  0  0  0  0  0  0  0  0
   22.8530  -13.1100  -17.4969 N   0  0  0  0  0  0  0  0  0  0  0  0
   21.7834  -12.1303  -17.4218 C   0  0  1  0  0  0  0  0  0  0  0  0
   20.4374  -12.7570  -17.4680 C   0  0  0  0  0  0  0  0  0  0  0  0
   20.1340  -13.8556  -16.5395 C   0  0  0  0  0  0  0  0  0  0  0  0
   18.7878  -14.4239  -16.5368 C   0  0  0  0  0  0  0  0  0  0  0  0
   18.4760  -15.5163  -17.0430 O   0  0  0  0  0  0  0  0  0  0  0  0
   22.0153  -11.0578  -16.4636 C   0  0  0  0  0  0  0  0  0  0  0  0
   22.5229  -11.3306  -15.3212 O   0  0  0  0  0  0  0  0  0  0  0  0
   17.7217  -13.7292  -15.9312 O   0  0  0  0  0  0  0  0  0  0  0  0
   21.9350   -2.1273  -16.8272 N   0  0  0  0  0  0  0  0  0  0  0  0
   23.0855   -2.9171  -16.4953 C   0  0  0  0  0  0  0  0  0  0  0  0
   24.2804   -2.4423  -16.6637 N   0  0  0  0  0  0  0  0  0  0  0  0
   22.9696   -4.2356  -15.9768 N   0  0  0  0  0  0  0  0  0  0  0  0
   21.6910   -4.8563  -15.7049 C   0  0  0  0  0  0  0  0  0  0  0  0
   21.9832   -6.2498  -15.1582 C   0  0  0  0  0  0  0  0  0  0  0  0
   21.9132   -7.2894  -16.2397 C   0  0  0  0  0  0  0  0  0  0  0  0
   21.9314   -8.6560  -15.6632 C   0  0  2  0  0  0  0  0  0  0  0  0
   21.7234   -9.6821  -16.6919 N   0  0  0  0  0  0  0  0  0  0  0  0
   20.9952   -8.8282  -14.5402 C   0  0  0  0  0  0  0  0  0  0  0  0
   21.4067   -8.2533  -13.3073 O   0  0  0  0  0  0  0  0  0  0  0  0
   19.9024   -9.4111  -14.5478 O   0  0  0  0  0  0  0  0  0  0  0  0
  2  3  1  0
  2  1  1  1
  3  4  1  0
  4  5  2  0
  6  2  1  0
  6  7  2  0
  8  4  1  0
  9  6  1  0
 10  9  1  0
 10 15  1  0
 10 11  1  1
 12 11  1  0
 12 13  1  0
 13 14  2  0
 15 26  1  0
 16 15  2  0
 17 13  1  0
 18 19  1  0
 19 21  1  0
 20 19  2  0
 21 22  1  0
 22 23  1  0
 23 24  1  0
 25 24  1  6
 25 27  1  0
 26 25  1  0
 27 29  2  0
 27 28  1  0
M  END
$$$$
