DER.pdb
     RDKit          3D

 29 28  0  0  1  0  0  0  0  0999 V2000
   14.4889  -10.9351  -13.9053 N   0  0  0  0  0  0  0  0  0  0  0  0
   15.5135  -10.9412  -12.9078 C   0  0  1  0  0  0  0  0  0  0  0  0
   16.5901  -11.9479  -13.3307 C   0  0  0  0  0  0  0  0  0  0  0  0
   16.0078  -13.2896  -13.1360 C   0  0  0  0  0  0  0  0  0  0  0  0
   15.0551  -13.4360  -12.3452 O   0  0  0  0  0  0  0  0  0  0  0  0
   16.1433   -9.6205  -12.6869 C   0  0  0  0  0  0  0  0  0  0  0  0
   16.3143   -8.8979  -13.7186 O   0  0  0  0  0  0  0  0  0  0  0  0
   16.5272  -14.3596  -13.8318 O   0  0  0  0  0  0  0  0  0  0  0  0
   16.5482   -9.1458  -11.4238 N   0  0  0  0  0  0  0  0  0  0  0  0
   17.1470   -7.8377  -11.2244 C   0  0  1  0  0  0  0  0  0  0  0  0
   16.7024   -7.1985   -9.9593 C   0  0  0  0  0  0  0  0  0  0  0  0
   17.2464   -5.8806   -9.6009 C   0  0  0  0  0  0  0  0  0  0  0  0
   16.8407   -5.2716   -8.3361 C   0  0  0  0  0  0  0  0  0  0  0  0
   17.2088   -5.6551   -7.2117 O   0  0  0  0  0  0  0  0  0  0  0  0
   18.5573   -7.7602  -11.5809 C   0  0  0  0  0  0  0  0  0  0  0  0
   19.4190   -8.4096  -10.8931 O   0  0  0  0  0  0  0  0  0  0  0  0
   15.9687   -4.1646   -8.3250 O   0  0  0  0  0  0  0  0  0  0  0  0
   24.0857  -11.4709  -15.2757 N   0  0  0  0  0  0  0  0  0  0  0  0
   24.7459  -10.2291  -15.5577 C   0  0  0  0  0  0  0  0  0  0  0  0
   26.0321  -10.1891  -15.7173 N   0  0  0  0  0  0  0  0  0  0  0  0
   24.0315   -9.0054  -15.6713 N   0  0  0  0  0  0  0  0  0  0  0  0
   22.5902   -8.9319  -15.5654 C   0  0  0  0  0  0  0  0  0  0  0  0
   22.2795   -7.9970  -14.4010 C   0  0  0  0  0  0  0  0  0  0  0  0
   20.8004   -7.8877  -14.1646 C   0  0  0  0  0  0  0  0  0  0  0  0
   20.5126   -7.0086  -13.0050 C   0  0  2  0  0  0  0  0  0  0  0  0
   19.0841   -7.0048  -12.6680 N   0  0  0  0  0  0  0  0  0  0  0  0
   21.0260   -5.6387  -13.1696 C   0  0  0  0  0  0  0  0  0  0  0  0
   22.3891   -5.4497  -12.8142 O   0  0  0  0  0  0  0  0  0  0  0  0
   20.4117   -4.6435  -13.5773 O   0  0  0  0  0  0  0  0  0  0  0  0
  2  3  1  0
  2  1  1  6
  3  4  1  0
  4  5  2  0
  6  2  1  0
  6  7  2  0
  8  4  1  0
  9  6  1  0
 10  9  1  0
 10 15  1  0
 10 11  1  1
 12 11  1  0
 12 13  1  0
 13 14  2  0
 15 26  1  0
 16 15  2  0
 17 13  1  0
 18 19  1  0
 19 21  1  0
 20 19  2  0
 21 22  1  0
 22 23  1  0
 23 24  1  0
 25 24  1  6
 25 27  1  0
 26 25  1  0
 27 29  2  0
 27 28  1  0
M  END
$$$$
