DER.pdb
     RDKit          3D

 29 28  0  0  1  0  0  0  0  0999 V2000
   13.1560  -24.2332   -6.3883 N   0  0  0  0  0  0  0  0  0  0  0  0
   14.1896  -23.6744   -5.5734 C   0  0  1  0  0  0  0  0  0  0  0  0
   14.4404  -22.2340   -6.0356 C   0  0  0  0  0  0  0  0  0  0  0  0
   14.9416  -22.3204   -7.4208 C   0  0  0  0  0  0  0  0  0  0  0  0
   15.7015  -23.2555   -7.7409 O   0  0  0  0  0  0  0  0  0  0  0  0
   13.8780  -23.6731   -4.1267 C   0  0  0  0  0  0  0  0  0  0  0  0
   12.6853  -23.3711   -3.8074 O   0  0  0  0  0  0  0  0  0  0  0  0
   14.5612  -21.3653   -8.3383 O   0  0  0  0  0  0  0  0  0  0  0  0
   14.8159  -23.9818   -3.1219 N   0  0  0  0  0  0  0  0  0  0  0  0
   14.5270  -23.8568   -1.7040 C   0  0  1  0  0  0  0  0  0  0  0  0
   15.4920  -24.6086   -0.8612 C   0  0  0  0  0  0  0  0  0  0  0  0
   15.3053  -24.6156    0.5969 C   0  0  0  0  0  0  0  0  0  0  0  0
   16.2037  -25.4241    1.4181 C   0  0  0  0  0  0  0  0  0  0  0  0
   17.4449  -25.3461    1.4024 O   0  0  0  0  0  0  0  0  0  0  0  0
   14.1386  -22.5168   -1.2844 C   0  0  0  0  0  0  0  0  0  0  0  0
   14.8687  -21.5173   -1.6087 O   0  0  0  0  0  0  0  0  0  0  0  0
   15.6845  -26.3805    2.3134 O   0  0  0  0  0  0  0  0  0  0  0  0
    8.0147  -17.5430   -3.4105 N   0  0  0  0  0  0  0  0  0  0  0  0
    9.3085  -18.0706   -3.7349 C   0  0  0  0  0  0  0  0  0  0  0  0
    9.6795  -18.1894   -4.9717 N   0  0  0  0  0  0  0  0  0  0  0  0
   10.2271  -18.4822   -2.7311 N   0  0  0  0  0  0  0  0  0  0  0  0
    9.9271  -18.3966   -1.3181 C   0  0  0  0  0  0  0  0  0  0  0  0
   11.1589  -18.9008   -0.5732 C   0  0  0  0  0  0  0  0  0  0  0  0
   11.4931  -20.3134   -0.9583 C   0  0  0  0  0  0  0  0  0  0  0  0
   12.6274  -20.8281   -0.1529 C   0  0  2  0  0  0  0  0  0  0  0  0
   12.9755  -22.2051   -0.5231 N   0  0  0  0  0  0  0  0  0  0  0  0
   12.4169  -20.7024    1.2987 C   0  0  0  0  0  0  0  0  0  0  0  0
   12.7152  -21.8632    2.0626 O   0  0  0  0  0  0  0  0  0  0  0  0
   12.0135  -19.7114    1.9225 O   0  0  0  0  0  0  0  0  0  0  0  0
  2  3  1  0
  2  1  1  6
  3  4  1  0
  4  5  2  0
  6  2  1  0
  6  7  2  0
  8  4  1  0
  9  6  1  0
 10  9  1  0
 10 15  1  0
 10 11  1  1
 12 11  1  0
 12 13  1  0
 13 14  2  0
 15 26  1  0
 16 15  2  0
 17 13  1  0
 18 19  1  0
 19 21  1  0
 20 19  2  0
 21 22  1  0
 22 23  1  0
 23 24  1  0
 25 24  1  6
 25 27  1  0
 26 25  1  0
 27 29  2  0
 27 28  1  0
M  END
$$$$
