DER.pdb
     RDKit          3D

 29 28  0  0  1  0  0  0  0  0999 V2000
   15.7577  -23.5165   -3.8430 N   0  0  0  0  0  0  0  0  0  0  0  0
   15.0446  -24.7381   -4.0525 C   0  0  1  0  0  0  0  0  0  0  0  0
   13.5557  -24.4755   -3.7966 C   0  0  0  0  0  0  0  0  0  0  0  0
   13.3942  -24.3744   -2.3334 C   0  0  0  0  0  0  0  0  0  0  0  0
   14.3776  -24.5706   -1.5927 O   0  0  0  0  0  0  0  0  0  0  0  0
   15.2118  -25.3050   -5.4091 C   0  0  0  0  0  0  0  0  0  0  0  0
   14.6981  -26.4504   -5.6086 O   0  0  0  0  0  0  0  0  0  0  0  0
   12.1580  -24.0646   -1.8094 O   0  0  0  0  0  0  0  0  0  0  0  0
   15.8937  -24.6510   -6.4542 N   0  0  0  0  0  0  0  0  0  0  0  0
   16.0515  -25.2263   -7.7784 C   0  0  1  0  0  0  0  0  0  0  0  0
   15.3421  -24.4443   -8.8235 C   0  0  0  0  0  0  0  0  0  0  0  0
   15.8898  -23.1418   -9.2291 C   0  0  0  0  0  0  0  0  0  0  0  0
   15.2414  -22.4132  -10.3172 C   0  0  0  0  0  0  0  0  0  0  0  0
   14.4368  -21.4769  -10.1659 O   0  0  0  0  0  0  0  0  0  0  0  0
   17.3943  -25.7111   -8.0683 C   0  0  0  0  0  0  0  0  0  0  0  0
   18.4069  -25.0072   -7.7274 O   0  0  0  0  0  0  0  0  0  0  0  0
   15.5073  -22.7509  -11.6593 O   0  0  0  0  0  0  0  0  0  0  0  0
   21.7873  -33.1977  -10.9995 N   0  0  0  0  0  0  0  0  0  0  0  0
   22.6586  -32.1147  -10.6454 C   0  0  0  0  0  0  0  0  0  0  0  0
   23.9459  -32.2642  -10.6899 N   0  0  0  0  0  0  0  0  0  0  0  0
   22.1581  -30.8491  -10.2346 N   0  0  0  0  0  0  0  0  0  0  0  0
   20.7447  -30.5867  -10.0689 C   0  0  0  0  0  0  0  0  0  0  0  0
   20.6061  -29.1045   -9.7369 C   0  0  0  0  0  0  0  0  0  0  0  0
   19.1748  -28.7322   -9.4758 C   0  0  0  0  0  0  0  0  0  0  0  0
   19.0533  -27.2902   -9.1499 C   0  0  2  0  0  0  0  0  0  0  0  0
   17.6948  -26.9443   -8.7153 N   0  0  0  0  0  0  0  0  0  0  0  0
   19.5079  -26.4061  -10.2358 C   0  0  0  0  0  0  0  0  0  0  0  0
   20.7440  -25.7429  -10.0074 O   0  0  0  0  0  0  0  0  0  0  0  0
   18.9415  -26.1769  -11.3130 O   0  0  0  0  0  0  0  0  0  0  0  0
  2  3  1  0
  2  1  1  6
  3  4  1  0
  4  5  2  0
  6  2  1  0
  6  7  2  0
  8  4  1  0
  9  6  1  0
 10  9  1  0
 10 15  1  0
 10 11  1  6
 12 11  1  0
 12 13  1  0
 13 14  2  0
 15 26  1  0
 16 15  2  0
 17 13  1  0
 18 19  1  0
 19 21  1  0
 20 19  2  0
 21 22  1  0
 22 23  1  0
 23 24  1  0
 25 24  1  6
 25 27  1  0
 26 25  1  0
 27 29  2  0
 27 28  1  0
M  END
$$$$
