DER.pdb
     RDKit          3D

 29 28  0  0  1  0  0  0  0  0999 V2000
   26.7136  -19.9349  -19.5876 N   0  0  0  0  0  0  0  0  0  0  0  0
   27.3309  -19.6558  -18.3284 C   0  0  1  0  0  0  0  0  0  0  0  0
   28.6051  -18.8431  -18.5873 C   0  0  0  0  0  0  0  0  0  0  0  0
   29.5228  -19.7289  -19.3293 C   0  0  0  0  0  0  0  0  0  0  0  0
   29.1578  -20.8850  -19.6204 O   0  0  0  0  0  0  0  0  0  0  0  0
   26.4638  -18.9129  -17.3870 C   0  0  0  0  0  0  0  0  0  0  0  0
   26.9267  -18.7323  -16.2171 O   0  0  0  0  0  0  0  0  0  0  0  0
   30.7690  -19.2635  -19.6884 O   0  0  0  0  0  0  0  0  0  0  0  0
   25.1893  -18.4142  -17.7213 N   0  0  0  0  0  0  0  0  0  0  0  0
   24.3222  -17.7517  -16.7629 C   0  0  1  0  0  0  0  0  0  0  0  0
   23.8556  -16.4258  -17.2437 C   0  0  0  0  0  0  0  0  0  0  0  0
   22.7939  -15.7342  -16.4983 C   0  0  0  0  0  0  0  0  0  0  0  0
   22.2728  -14.4732  -17.0216 C   0  0  0  0  0  0  0  0  0  0  0  0
   21.8819  -14.2950  -18.1888 O   0  0  0  0  0  0  0  0  0  0  0  0
   23.3590  -18.6310  -16.1138 C   0  0  0  0  0  0  0  0  0  0  0  0
   22.4602  -19.2109  -16.8161 O   0  0  0  0  0  0  0  0  0  0  0  0
   22.1825  -13.3392  -16.1900 O   0  0  0  0  0  0  0  0  0  0  0  0
   22.4777  -20.9506   -9.2674 N   0  0  0  0  0  0  0  0  0  0  0  0
   21.0765  -21.2499   -9.2006 C   0  0  0  0  0  0  0  0  0  0  0  0
   20.6490  -22.2422   -8.4836 N   0  0  0  0  0  0  0  0  0  0  0  0
   20.1088  -20.4854   -9.9076 N   0  0  0  0  0  0  0  0  0  0  0  0
   20.4609  -19.3363  -10.7137 C   0  0  0  0  0  0  0  0  0  0  0  0
   20.7665  -19.8559  -12.1147 C   0  0  0  0  0  0  0  0  0  0  0  0
   21.9324  -19.1330  -12.7258 C   0  0  0  0  0  0  0  0  0  0  0  0
   22.2118  -19.6378  -14.0924 C   0  0  2  0  0  0  0  0  0  0  0  0
   23.3278  -18.9195  -14.7190 N   0  0  0  0  0  0  0  0  0  0  0  0
   21.0260  -19.6474  -14.9648 C   0  0  0  0  0  0  0  0  0  0  0  0
   20.5372  -20.9343  -15.3183 O   0  0  0  0  0  0  0  0  0  0  0  0
   20.4134  -18.6724  -15.4209 O   0  0  0  0  0  0  0  0  0  0  0  0
  2  3  1  0
  2  1  1  6
  3  4  1  0
  4  5  2  0
  6  2  1  0
  6  7  2  0
  8  4  1  0
  9  6  1  0
 10  9  1  0
 10 15  1  0
 10 11  1  6
 12 11  1  0
 12 13  1  0
 13 14  2  0
 15 26  1  0
 16 15  2  0
 17 13  1  0
 18 19  1  0
 19 21  1  0
 20 19  2  0
 21 22  1  0
 22 23  1  0
 23 24  1  0
 25 24  1  1
 25 27  1  0
 26 25  1  0
 27 29  2  0
 27 28  1  0
M  END
$$$$
