YNS.pdb
     RDKit          3D

 27 27  0  0  1  0  0  0  0  0999 V2000
    8.8709  -12.9770   17.3423 O   0  0  0  0  0  0  0  0  0  0  0  0
    8.4065  -13.3563   18.5860 C   0  0  0  0  0  0  0  0  0  0  0  0
    9.3079  -13.9391   19.4741 C   0  0  0  0  0  0  0  0  0  0  0  0
    8.8858  -14.3319   20.7244 C   0  0  0  0  0  0  0  0  0  0  0  0
    7.5764  -14.1670   21.1440 C   0  0  0  0  0  0  0  0  0  0  0  0
    7.1632  -14.6008   22.4829 C   0  0  0  0  0  0  0  0  0  0  0  0
    6.9166  -16.1013   22.5073 C   0  0  2  0  0  0  0  0  0  0  0  0
    5.6803  -16.3075   21.7827 N   0  0  0  0  0  0  0  0  0  0  0  0
    6.8486  -16.5742   23.9139 C   0  0  0  0  0  0  0  0  0  0  0  0
    5.8537  -16.2450   24.6307 O   0  0  0  0  0  0  0  0  0  0  0  0
    6.7103  -13.5900   20.2498 C   0  0  0  0  0  0  0  0  0  0  0  0
    7.0879  -13.1772   18.9727 C   0  0  0  0  0  0  0  0  0  0  0  0
    7.0625  -20.5310   27.9766 N   0  0  0  0  0  0  0  0  0  0  0  0
    8.0869  -19.7846   27.3267 C   0  0  0  0  0  0  0  0  0  0  0  0
    9.0980  -19.4797   27.9863 O   0  0  0  0  0  0  0  0  0  0  0  0
    7.9471  -19.3862   25.9086 C   0  0  0  0  0  0  0  0  0  0  0  0
    7.9646  -17.8640   25.7989 C   0  0  2  0  0  0  0  0  0  0  0  0
    7.8827  -17.3847   24.4501 N   0  0  0  0  0  0  0  0  0  0  0  0
    9.0406  -17.2595   26.5721 C   0  0  0  0  0  0  0  0  0  0  0  0
   10.2095  -17.2483   26.0505 O   0  0  0  0  0  0  0  0  0  0  0  0
   10.1540  -13.7626   29.4861 O   0  0  0  0  0  0  0  0  0  0  0  0
    9.1972  -14.5926   28.9007 C   0  0  0  0  0  0  0  0  0  0  0  0
    9.8404  -15.8971   28.5103 C   0  0  2  0  0  0  0  0  0  0  0  0
    8.8332  -16.7070   27.8411 N   0  0  0  0  0  0  0  0  0  0  0  0
   10.3914  -16.6138   29.6881 C   0  0  0  0  0  0  0  0  0  0  0  0
    9.8658  -17.6920   30.0347 O   0  0  0  0  0  0  0  0  0  0  0  0
   11.4660  -16.1164   30.4053 O   0  0  0  0  0  0  0  0  0  0  0  0
  1  2  1  0
  2  3  2  0
  3  4  1  0
  5  6  1  0
  5  4  2  0
  6  7  1  0
  7  8  1  1
  7  9  1  0
  9 10  2  0
 11  5  1  0
 12 11  2  0
 12  2  1  0
 14 15  2  0
 14 13  1  0
 16 14  1  0
 17 16  1  6
 18  9  1  0
 18 17  1  0
 19 17  1  0
 19 20  2  0
 21 22  1  0
 23 22  1  1
 23 24  1  0
 24 19  1  0
 25 23  1  0
 26 25  2  0
 27 25  1  0
M  END
$$$$
