YNS.pdb
     RDKit          3D

 27 27  0  0  1  0  0  0  0  0999 V2000
    4.9178  -10.4038   26.3715 O   0  0  0  0  0  0  0  0  0  0  0  0
    5.7609  -11.4526   26.0625 C   0  0  0  0  0  0  0  0  0  0  0  0
    5.7559  -12.5676   26.8978 C   0  0  0  0  0  0  0  0  0  0  0  0
    6.5816  -13.6352   26.6256 C   0  0  0  0  0  0  0  0  0  0  0  0
    7.4328  -13.6468   25.5333 C   0  0  0  0  0  0  0  0  0  0  0  0
    8.3003  -14.8015   25.2774 C   0  0  0  0  0  0  0  0  0  0  0  0
    7.5801  -15.8336   24.4237 C   0  0  2  0  0  0  0  0  0  0  0  0
    6.6662  -16.5132   25.3176 N   0  0  0  0  0  0  0  0  0  0  0  0
    8.5716  -16.7499   23.8039 C   0  0  0  0  0  0  0  0  0  0  0  0
    8.8533  -17.8428   24.3855 O   0  0  0  0  0  0  0  0  0  0  0  0
    7.4170  -12.5364   24.7274 C   0  0  0  0  0  0  0  0  0  0  0  0
    6.6014  -11.4300   24.9609 C   0  0  0  0  0  0  0  0  0  0  0  0
   11.8509  -18.7784   20.4491 N   0  0  0  0  0  0  0  0  0  0  0  0
   11.5261  -17.5194   19.8673 C   0  0  0  0  0  0  0  0  0  0  0  0
   11.9892  -17.2572   18.7416 O   0  0  0  0  0  0  0  0  0  0  0  0
   10.6631  -16.5557   20.5854 C   0  0  0  0  0  0  0  0  0  0  0  0
   10.2406  -17.1462   21.9279 C   0  0  2  0  0  0  0  0  0  0  0  0
    9.1962  -16.4084   22.5763 N   0  0  0  0  0  0  0  0  0  0  0  0
   11.3755  -17.4395   22.7923 C   0  0  0  0  0  0  0  0  0  0  0  0
   12.0867  -16.4524   23.1900 O   0  0  0  0  0  0  0  0  0  0  0  0
   11.4834  -20.6062   25.2459 O   0  0  0  0  0  0  0  0  0  0  0  0
   12.2367  -19.4433   25.4107 C   0  0  0  0  0  0  0  0  0  0  0  0
   12.8117  -19.0291   24.0818 C   0  0  2  0  0  0  0  0  0  0  0  0
   11.7008  -18.7425   23.1863 N   0  0  0  0  0  0  0  0  0  0  0  0
   13.6886  -20.0814   23.5090 C   0  0  0  0  0  0  0  0  0  0  0  0
   14.7075  -20.4250   24.1437 O   0  0  0  0  0  0  0  0  0  0  0  0
   13.4042  -20.6847   22.2959 O   0  0  0  0  0  0  0  0  0  0  0  0
  1  2  1  0
  2  3  2  0
  3  4  1  0
  5  6  1  0
  5  4  2  0
  6  7  1  0
  7  8  1  1
  7  9  1  0
  9 10  2  0
 11  5  1  0
 12 11  2  0
 12  2  1  0
 14 15  2  0
 14 13  1  0
 16 14  1  0
 17 16  1  6
 18  9  1  0
 18 17  1  0
 19 17  1  0
 19 20  2  0
 21 22  1  0
 23 22  1  1
 23 24  1  0
 24 19  1  0
 25 23  1  0
 26 25  2  0
 27 25  1  0
M  END
$$$$
