YNS.pdb
     RDKit          3D

 27 27  0  0  1  0  0  0  0  0999 V2000
   11.0630  -14.9815   30.2308 O   0  0  0  0  0  0  0  0  0  0  0  0
   10.2378  -14.8067   29.1376 C   0  0  0  0  0  0  0  0  0  0  0  0
    9.3475  -15.8289   28.8164 C   0  0  0  0  0  0  0  0  0  0  0  0
    8.5071  -15.6948   27.7340 C   0  0  0  0  0  0  0  0  0  0  0  0
    8.5099  -14.5626   26.9367 C   0  0  0  0  0  0  0  0  0  0  0  0
    7.6016  -14.4572   25.7897 C   0  0  0  0  0  0  0  0  0  0  0  0
    7.7309  -15.6769   24.8905 C   0  0  2  0  0  0  0  0  0  0  0  0
    9.0326  -16.2410   25.1794 N   0  0  0  0  0  0  0  0  0  0  0  0
    7.5792  -15.2694   23.4700 C   0  0  0  0  0  0  0  0  0  0  0  0
    6.4639  -14.8105   23.0730 O   0  0  0  0  0  0  0  0  0  0  0  0
    9.3960  -13.5715   27.2760 C   0  0  0  0  0  0  0  0  0  0  0  0
   10.2682  -13.6599   28.3603 C   0  0  0  0  0  0  0  0  0  0  0  0
    6.2001  -12.9574   19.7963 N   0  0  0  0  0  0  0  0  0  0  0  0
    7.4772  -13.5717   19.6526 C   0  0  0  0  0  0  0  0  0  0  0  0
    7.7893  -14.0198   18.5336 O   0  0  0  0  0  0  0  0  0  0  0  0
    8.4011  -13.6715   20.8040 C   0  0  0  0  0  0  0  0  0  0  0  0
    8.6250  -15.1395   21.1567 C   0  0  2  0  0  0  0  0  0  0  0  0
    8.6676  -15.3908   22.5676 N   0  0  0  0  0  0  0  0  0  0  0  0
    9.7362  -15.7284   20.4221 C   0  0  0  0  0  0  0  0  0  0  0  0
   10.8419  -15.0837   20.4054 O   0  0  0  0  0  0  0  0  0  0  0  0
   12.0015  -19.3255   21.1015 O   0  0  0  0  0  0  0  0  0  0  0  0
   11.0192  -18.3346   21.1152 C   0  0  0  0  0  0  0  0  0  0  0  0
   10.7165  -17.9129   19.7015 C   0  0  2  0  0  0  0  0  0  0  0  0
    9.6260  -16.9501   19.7483 N   0  0  0  0  0  0  0  0  0  0  0  0
   10.3560  -19.0717   18.8462 C   0  0  0  0  0  0  0  0  0  0  0  0
    9.2380  -19.6062   18.9994 O   0  0  0  0  0  0  0  0  0  0  0  0
   11.2255  -19.5693   17.8908 O   0  0  0  0  0  0  0  0  0  0  0  0
  1  2  1  0
  2  3  2  0
  3  4  1  0
  5  6  1  0
  5  4  2  0
  6  7  1  0
  7  8  1  6
  7  9  1  0
  9 10  2  0
 11  5  1  0
 12 11  2  0
 12  2  1  0
 14 15  2  0
 14 13  1  0
 16 14  1  0
 17 16  1  1
 18  9  1  0
 18 17  1  0
 19 17  1  0
 19 20  2  0
 21 22  1  0
 23 22  1  1
 23 24  1  0
 24 19  1  0
 25 23  1  0
 26 25  2  0
 27 25  1  0
M  END
$$$$
