YNS.pdb
     RDKit          3D

 27 27  0  0  1  0  0  0  0  0999 V2000
    7.7199  -11.1604   18.4007 O   0  0  0  0  0  0  0  0  0  0  0  0
    8.2633  -12.2525   19.0475 C   0  0  0  0  0  0  0  0  0  0  0  0
    7.4093  -13.2891   19.4174 C   0  0  0  0  0  0  0  0  0  0  0  0
    7.9105  -14.3963   20.0644 C   0  0  0  0  0  0  0  0  0  0  0  0
    9.2556  -14.5246   20.3674 C   0  0  0  0  0  0  0  0  0  0  0  0
    9.7522  -15.7181   21.0605 C   0  0  0  0  0  0  0  0  0  0  0  0
   10.5741  -16.5823   20.1169 C   0  0  2  0  0  0  0  0  0  0  0  0
    9.7277  -16.8219   18.9670 N   0  0  0  0  0  0  0  0  0  0  0  0
   10.9782  -17.8335   20.8085 C   0  0  0  0  0  0  0  0  0  0  0  0
   11.0188  -18.9191   20.1513 O   0  0  0  0  0  0  0  0  0  0  0  0
   10.0740  -13.4896   19.9913 C   0  0  0  0  0  0  0  0  0  0  0  0
    9.6154  -12.3474   19.3363 C   0  0  0  0  0  0  0  0  0  0  0  0
   15.5749  -20.2042   22.8931 N   0  0  0  0  0  0  0  0  0  0  0  0
   14.1547  -20.1856   22.7842 C   0  0  0  0  0  0  0  0  0  0  0  0
   13.5186  -21.1489   23.2509 O   0  0  0  0  0  0  0  0  0  0  0  0
   13.4620  -19.0514   22.1339 C   0  0  0  0  0  0  0  0  0  0  0  0
   12.1519  -18.7642   22.8623 C   0  0  2  0  0  0  0  0  0  0  0  0
   11.3155  -17.8157   22.1867 N   0  0  0  0  0  0  0  0  0  0  0  0
   12.3497  -18.4705   24.2750 C   0  0  0  0  0  0  0  0  0  0  0  0
   13.2210  -17.5831   24.5781 O   0  0  0  0  0  0  0  0  0  0  0  0
    9.5495  -17.9651   26.6336 O   0  0  0  0  0  0  0  0  0  0  0  0
   10.4080  -18.8249   27.3197 C   0  0  0  0  0  0  0  0  0  0  0  0
   11.7748  -18.7724   26.6897 C   0  0  2  0  0  0  0  0  0  0  0  0
   11.6303  -19.1209   25.2840 N   0  0  0  0  0  0  0  0  0  0  0  0
   12.7270  -19.6917   27.3623 C   0  0  0  0  0  0  0  0  0  0  0  0
   13.2177  -20.6336   26.7056 O   0  0  0  0  0  0  0  0  0  0  0  0
   13.0795  -19.5296   28.6912 O   0  0  0  0  0  0  0  0  0  0  0  0
  1  2  1  0
  2  3  2  0
  3  4  1  0
  5  6  1  0
  5  4  2  0
  6  7  1  0
  7  8  1  6
  7  9  1  0
  9 10  2  0
 11  5  1  0
 12 11  2  0
 12  2  1  0
 14 15  2  0
 14 13  1  0
 16 14  1  0
 17 16  1  6
 18  9  1  0
 18 17  1  0
 19 17  1  0
 19 20  2  0
 21 22  1  0
 23 22  1  1
 23 24  1  0
 24 19  1  0
 25 23  1  0
 26 25  2  0
 27 25  1  0
M  END
$$$$
