YNS.pdb
     RDKit          3D

 27 27  0  0  1  0  0  0  0  0999 V2000
    4.9877  -10.4828   27.3349 O   0  0  0  0  0  0  0  0  0  0  0  0
    5.8110  -11.4999   26.8944 C   0  0  0  0  0  0  0  0  0  0  0  0
    5.8494  -11.7688   25.5280 C   0  0  0  0  0  0  0  0  0  0  0  0
    6.6570  -12.7748   25.0469 C   0  0  0  0  0  0  0  0  0  0  0  0
    7.4493  -13.5446   25.8820 C   0  0  0  0  0  0  0  0  0  0  0  0
    8.2948  -14.6099   25.3328 C   0  0  0  0  0  0  0  0  0  0  0  0
    7.4459  -15.6611   24.6347 C   0  0  2  0  0  0  0  0  0  0  0  0
    6.6515  -16.2785   25.6758 N   0  0  0  0  0  0  0  0  0  0  0  0
    8.3264  -16.6273   23.9290 C   0  0  0  0  0  0  0  0  0  0  0  0
    8.6321  -17.7188   24.5010 O   0  0  0  0  0  0  0  0  0  0  0  0
    7.3925  -13.2580   27.2226 C   0  0  0  0  0  0  0  0  0  0  0  0
    6.5903  -12.2517   27.7592 C   0  0  0  0  0  0  0  0  0  0  0  0
   11.4383  -17.4940   18.7118 N   0  0  0  0  0  0  0  0  0  0  0  0
   10.4415  -17.9094   19.6408 C   0  0  0  0  0  0  0  0  0  0  0  0
   10.2888  -19.1307   19.8291 O   0  0  0  0  0  0  0  0  0  0  0  0
    9.6149  -16.9133   20.3574 C   0  0  0  0  0  0  0  0  0  0  0  0
    9.7075  -17.1558   21.8614 C   0  0  2  0  0  0  0  0  0  0  0  0
    8.8195  -16.3344   22.6310 N   0  0  0  0  0  0  0  0  0  0  0  0
   11.0810  -17.1492   22.3458 C   0  0  0  0  0  0  0  0  0  0  0  0
   11.7142  -16.0372   22.3132 O   0  0  0  0  0  0  0  0  0  0  0  0
   12.3857  -20.1789   24.5586 O   0  0  0  0  0  0  0  0  0  0  0  0
   13.1121  -18.9907   24.6439 C   0  0  0  0  0  0  0  0  0  0  0  0
   13.0849  -18.2926   23.3098 C   0  0  2  0  0  0  0  0  0  0  0  0
   11.7105  -18.3011   22.8312 N   0  0  0  0  0  0  0  0  0  0  0  0
   13.9859  -18.9466   22.3274 C   0  0  0  0  0  0  0  0  0  0  0  0
   13.4994  -19.3793   21.2620 O   0  0  0  0  0  0  0  0  0  0  0  0
   15.3424  -19.0869   22.5652 O   0  0  0  0  0  0  0  0  0  0  0  0
  1  2  1  0
  2  3  2  0
  3  4  1  0
  5  6  1  0
  5  4  2  0
  6  7  1  0
  7  8  1  1
  7  9  1  0
  9 10  2  0
 11  5  1  0
 12 11  2  0
 12  2  1  0
 14 15  2  0
 14 13  1  0
 16 14  1  0
 17 16  1  6
 18  9  1  0
 18 17  1  0
 19 17  1  0
 19 20  2  0
 21 22  1  0
 23 22  1  1
 23 24  1  0
 24 19  1  0
 25 23  1  0
 26 25  2  0
 27 25  1  0
M  END
$$$$
