YNS.pdb
     RDKit          3D

 27 27  0  0  1  0  0  0  0  0999 V2000
    7.7698  -12.4099   17.7274 O   0  0  0  0  0  0  0  0  0  0  0  0
    7.7786  -13.3735   18.7163 C   0  0  0  0  0  0  0  0  0  0  0  0
    8.7927  -14.3284   18.6941 C   0  0  0  0  0  0  0  0  0  0  0  0
    8.8381  -15.3069   19.6617 C   0  0  0  0  0  0  0  0  0  0  0  0
    7.8991  -15.3813   20.6768 C   0  0  0  0  0  0  0  0  0  0  0  0
    7.9785  -16.4403   21.6885 C   0  0  0  0  0  0  0  0  0  0  0  0
    8.1795  -17.7962   21.0298 C   0  0  2  0  0  0  0  0  0  0  0  0
    7.0016  -18.5709   21.3593 N   0  0  0  0  0  0  0  0  0  0  0  0
    9.4357  -18.4131   21.5280 C   0  0  0  0  0  0  0  0  0  0  0  0
    9.3691  -19.3546   22.3773 O   0  0  0  0  0  0  0  0  0  0  0  0
    6.9120  -14.4282   20.6749 C   0  0  0  0  0  0  0  0  0  0  0  0
    6.8214  -13.4189   19.7173 C   0  0  0  0  0  0  0  0  0  0  0  0
   12.1781  -19.7714   19.0730 N   0  0  0  0  0  0  0  0  0  0  0  0
   13.0131  -18.6322   19.2578 C   0  0  0  0  0  0  0  0  0  0  0  0
   13.6414  -18.2004   18.2733 O   0  0  0  0  0  0  0  0  0  0  0  0
   13.1261  -17.9858   20.5839 C   0  0  0  0  0  0  0  0  0  0  0  0
   11.9771  -18.4439   21.4779 C   0  0  2  0  0  0  0  0  0  0  0  0
   10.6951  -17.9563   21.0602 N   0  0  0  0  0  0  0  0  0  0  0  0
   12.2516  -18.2353   22.8930 C   0  0  0  0  0  0  0  0  0  0  0  0
   13.3337  -18.7303   23.3647 O   0  0  0  0  0  0  0  0  0  0  0  0
    9.4159  -16.7576   25.5761 O   0  0  0  0  0  0  0  0  0  0  0  0
   10.7102  -16.2394   25.6312 C   0  0  0  0  0  0  0  0  0  0  0  0
   11.6834  -17.2737   25.1301 C   0  0  2  0  0  0  0  0  0  0  0  0
   11.3810  -17.5271   23.7292 N   0  0  0  0  0  0  0  0  0  0  0  0
   11.6066  -18.5297   25.9182 C   0  0  0  0  0  0  0  0  0  0  0  0
   11.1139  -19.5448   25.3835 O   0  0  0  0  0  0  0  0  0  0  0  0
   12.0648  -18.5993   27.2227 O   0  0  0  0  0  0  0  0  0  0  0  0
  1  2  1  0
  2  3  2  0
  3  4  1  0
  5  6  1  0
  5  4  2  0
  6  7  1  0
  7  8  1  1
  7  9  1  0
  9 10  2  0
 11  5  1  0
 12 11  2  0
 12  2  1  0
 14 15  2  0
 14 13  1  0
 16 14  1  0
 17 16  1  6
 18  9  1  0
 18 17  1  0
 19 17  1  0
 19 20  2  0
 21 22  1  0
 23 22  1  1
 23 24  1  0
 24 19  1  0
 25 23  1  0
 26 25  2  0
 27 25  1  0
M  END
$$$$
