YNS.pdb
     RDKit          3D

 27 27  0  0  1  0  0  0  0  0999 V2000
    6.0819  -11.1474   28.9872 O   0  0  0  0  0  0  0  0  0  0  0  0
    6.4421  -11.7027   27.7755 C   0  0  0  0  0  0  0  0  0  0  0  0
    5.4449  -11.9080   26.8245 C   0  0  0  0  0  0  0  0  0  0  0  0
    5.7614  -12.4595   25.6033 C   0  0  0  0  0  0  0  0  0  0  0  0
    7.0562  -12.8245   25.2747 C   0  0  0  0  0  0  0  0  0  0  0  0
    7.3545  -13.4121   23.9643 C   0  0  0  0  0  0  0  0  0  0  0  0
    7.1288  -14.9159   23.9879 C   0  0  2  0  0  0  0  0  0  0  0  0
    8.0424  -15.4341   24.9843 N   0  0  0  0  0  0  0  0  0  0  0  0
    7.3689  -15.4790   22.6343 C   0  0  0  0  0  0  0  0  0  0  0  0
    6.3990  -15.5687   21.8198 O   0  0  0  0  0  0  0  0  0  0  0  0
    8.0183  -12.6108   26.2293 C   0  0  0  0  0  0  0  0  0  0  0  0
    7.7488  -12.0576   27.4805 C   0  0  0  0  0  0  0  0  0  0  0  0
    8.4900  -13.4840   18.1458 N   0  0  0  0  0  0  0  0  0  0  0  0
    8.1975  -14.2781   19.2916 C   0  0  0  0  0  0  0  0  0  0  0  0
    7.2026  -15.0255   19.2480 O   0  0  0  0  0  0  0  0  0  0  0  0
    9.0550  -14.2115   20.4956 C   0  0  0  0  0  0  0  0  0  0  0  0
    9.3224  -15.6219   21.0140 C   0  0  2  0  0  0  0  0  0  0  0  0
    8.6664  -15.9111   22.2557 N   0  0  0  0  0  0  0  0  0  0  0  0
   10.7385  -15.9622   21.0054 C   0  0  0  0  0  0  0  0  0  0  0  0
   11.4313  -15.5846   19.9975 O   0  0  0  0  0  0  0  0  0  0  0  0
   11.9918  -18.5117   23.7935 O   0  0  0  0  0  0  0  0  0  0  0  0
   13.0683  -17.7918   23.2742 C   0  0  0  0  0  0  0  0  0  0  0  0
   12.6879  -17.2245   21.9320 C   0  0  2  0  0  0  0  0  0  0  0  0
   11.3443  -16.6769   22.0451 N   0  0  0  0  0  0  0  0  0  0  0  0
   12.7464  -18.2530   20.8628 C   0  0  0  0  0  0  0  0  0  0  0  0
   11.6761  -18.6881   20.3892 O   0  0  0  0  0  0  0  0  0  0  0  0
   13.9517  -18.7369   20.3837 O   0  0  0  0  0  0  0  0  0  0  0  0
  1  2  1  0
  2  3  2  0
  3  4  1  0
  5  6  1  0
  5  4  2  0
  6  7  1  0
  7  8  1  1
  7  9  1  0
  9 10  2  0
 11  5  1  0
 12 11  2  0
 12  2  1  0
 14 15  2  0
 14 13  1  0
 16 14  1  0
 17 16  1  1
 18  9  1  0
 18 17  1  0
 19 17  1  0
 19 20  2  0
 21 22  1  0
 23 22  1  1
 23 24  1  0
 24 19  1  0
 25 23  1  0
 26 25  2  0
 27 25  1  0
M  END
$$$$
