YNS.pdb
     RDKit          3D

 27 27  0  0  1  0  0  0  0  0999 V2000
    5.0833  -10.8185   27.5993 O   0  0  0  0  0  0  0  0  0  0  0  0
    5.8803  -11.7272   26.9319 C   0  0  0  0  0  0  0  0  0  0  0  0
    7.1282  -12.0285   27.4732 C   0  0  0  0  0  0  0  0  0  0  0  0
    7.9542  -12.9293   26.8391 C   0  0  0  0  0  0  0  0  0  0  0  0
    7.5876  -13.5613   25.6627 C   0  0  0  0  0  0  0  0  0  0  0  0
    8.4960  -14.5131   25.0144 C   0  0  0  0  0  0  0  0  0  0  0  0
    7.7136  -15.6506   24.3766 C   0  0  2  0  0  0  0  0  0  0  0  0
    7.1043  -16.3715   25.4743 N   0  0  0  0  0  0  0  0  0  0  0  0
    8.6291  -16.4952   23.5670 C   0  0  0  0  0  0  0  0  0  0  0  0
    9.0091  -17.6153   24.0287 O   0  0  0  0  0  0  0  0  0  0  0  0
    6.3536  -13.2465   25.1522 C   0  0  0  0  0  0  0  0  0  0  0  0
    5.4818  -12.3405   25.7549 C   0  0  0  0  0  0  0  0  0  0  0  0
    8.3404  -17.8246   19.0013 N   0  0  0  0  0  0  0  0  0  0  0  0
    8.7004  -16.5051   19.3992 C   0  0  0  0  0  0  0  0  0  0  0  0
    7.8737  -15.5920   19.2170 O   0  0  0  0  0  0  0  0  0  0  0  0
   10.0203  -16.2343   20.0106 C   0  0  0  0  0  0  0  0  0  0  0  0
   10.0268  -16.7242   21.4561 C   0  0  2  0  0  0  0  0  0  0  0  0
    9.0734  -16.0561   22.2929 N   0  0  0  0  0  0  0  0  0  0  0  0
   11.3675  -16.7793   22.0223 C   0  0  0  0  0  0  0  0  0  0  0  0
   11.9126  -15.6716   22.3606 O   0  0  0  0  0  0  0  0  0  0  0  0
   12.7495  -19.1979   24.7002 O   0  0  0  0  0  0  0  0  0  0  0  0
   13.5298  -19.3021   23.5481 C   0  0  0  0  0  0  0  0  0  0  0  0
   13.4059  -18.0340   22.7453 C   0  0  2  0  0  0  0  0  0  0  0  0
   12.0582  -17.9838   22.1983 N   0  0  0  0  0  0  0  0  0  0  0  0
   14.4154  -17.9693   21.6585 C   0  0  0  0  0  0  0  0  0  0  0  0
   14.0212  -17.9375   20.4741 O   0  0  0  0  0  0  0  0  0  0  0  0
   15.7732  -17.9446   21.9270 O   0  0  0  0  0  0  0  0  0  0  0  0
  1  2  1  0
  2  3  2  0
  3  4  1  0
  5  6  1  0
  5  4  2  0
  6  7  1  0
  7  8  1  1
  7  9  1  0
  9 10  2  0
 11  5  1  0
 12 11  2  0
 12  2  1  0
 14 15  2  0
 14 13  1  0
 16 14  1  0
 17 16  1  6
 18  9  1  0
 18 17  1  0
 19 17  1  0
 19 20  2  0
 21 22  1  0
 23 22  1  6
 23 24  1  0
 24 19  1  0
 25 23  1  0
 26 25  2  0
 27 25  1  0
M  END
$$$$
