ASQ.pdb
     RDKit          3D

 21 20  0  0  1  0  0  0  0  0999 V2000
    7.5369  -18.6721   18.0982 C   0  0  0  0  0  0  0  0  0  0  0  0
    7.8970  -17.2783   17.6307 C   0  0  2  0  0  0  0  0  0  0  0  0
    8.8897  -17.3213   16.5765 N   0  0  0  0  0  0  0  0  0  0  0  0
    8.4924  -16.5647   18.7885 C   0  0  0  0  0  0  0  0  0  0  0  0
    9.7021  -16.6112   19.0370 O   0  0  0  0  0  0  0  0  0  0  0  0
    5.9037  -15.1305   21.6973 O   0  0  0  0  0  0  0  0  0  0  0  0
    6.8396  -14.2268   21.1964 C   0  0  0  0  0  0  0  0  0  0  0  0
    8.0823  -14.9833   20.7104 C   0  0  2  0  0  0  0  0  0  0  0  0
    7.6302  -15.8164   19.6167 N   0  0  0  0  0  0  0  0  0  0  0  0
    8.5998  -15.8860   21.7643 C   0  0  0  0  0  0  0  0  0  0  0  0
    8.2378  -17.1012   21.7845 O   0  0  0  0  0  0  0  0  0  0  0  0
   14.2304  -16.2831   23.6337 N   0  0  0  0  0  0  0  0  0  0  0  0
   13.6295  -17.2375   24.5219 C   0  0  0  0  0  0  0  0  0  0  0  0
   14.3987  -17.9930   25.1597 O   0  0  0  0  0  0  0  0  0  0  0  0
   12.1424  -17.2990   24.6552 C   0  0  0  0  0  0  0  0  0  0  0  0
   11.5735  -16.2718   23.7055 C   0  0  0  0  0  0  0  0  0  0  0  0
   10.0640  -16.2659   23.7087 C   0  0  2  0  0  0  0  0  0  0  0  0
    9.5042  -15.3709   22.7482 N   0  0  0  0  0  0  0  0  0  0  0  0
    9.6536  -15.9025   25.1098 C   0  0  0  0  0  0  0  0  0  0  0  0
    9.2523  -14.7305   25.3112 O   0  0  0  0  0  0  0  0  0  0  0  0
    9.6954  -16.7736   26.1594 O   0  0  0  0  0  0  0  0  0  0  0  0
  2  1  1  1
  2  4  1  0
  3  2  1  0
  4  5  2  0
  6  7  1  0
  8  7  1  1
  8 10  1  0
  9  8  1  0
  9  4  1  0
 10 11  2  0
 10 18  1  0
 12 13  1  0
 13 15  1  0
 13 14  2  0
 15 16  1  0
 17 16  1  1
 17 19  1  0
 18 17  1  0
 19 20  2  0
 19 21  1  0
M  END
$$$$
