ASQ.pdb
     RDKit          3D

 21 20  0  0  1  0  0  0  0  0999 V2000
    6.9961  -17.9450   21.6217 C   0  0  0  0  0  0  0  0  0  0  0  0
    7.4179  -16.6479   20.9654 C   0  0  2  0  0  0  0  0  0  0  0  0
    8.3308  -16.8912   19.8670 N   0  0  0  0  0  0  0  0  0  0  0  0
    8.1390  -15.8498   21.9888 C   0  0  0  0  0  0  0  0  0  0  0  0
    9.3424  -16.0110   22.2192 O   0  0  0  0  0  0  0  0  0  0  0  0
    7.4042  -12.0347   24.9317 O   0  0  0  0  0  0  0  0  0  0  0  0
    6.9599  -12.8917   23.9259 C   0  0  0  0  0  0  0  0  0  0  0  0
    7.9826  -14.0148   23.7124 C   0  0  2  0  0  0  0  0  0  0  0  0
    7.4061  -14.8830   22.7082 N   0  0  0  0  0  0  0  0  0  0  0  0
    8.1510  -14.8201   24.9439 C   0  0  0  0  0  0  0  0  0  0  0  0
    7.2502  -15.6458   25.2832 O   0  0  0  0  0  0  0  0  0  0  0  0
   12.3525  -18.9558   29.0225 N   0  0  0  0  0  0  0  0  0  0  0  0
   12.0918  -17.8967   28.0891 C   0  0  0  0  0  0  0  0  0  0  0  0
   12.9441  -17.6975   27.1930 O   0  0  0  0  0  0  0  0  0  0  0  0
   10.8433  -17.0849   28.2118 C   0  0  0  0  0  0  0  0  0  0  0  0
   10.7164  -16.2792   26.9408 C   0  0  0  0  0  0  0  0  0  0  0  0
    9.4768  -15.4181   26.9324 C   0  0  2  0  0  0  0  0  0  0  0  0
    9.3327  -14.6535   25.7359 N   0  0  0  0  0  0  0  0  0  0  0  0
    9.5772  -14.5344   28.1458 C   0  0  0  0  0  0  0  0  0  0  0  0
    9.6874  -13.2986   27.9561 O   0  0  0  0  0  0  0  0  0  0  0  0
    9.5546  -15.0043   29.4267 O   0  0  0  0  0  0  0  0  0  0  0  0
  2  1  1  1
  2  4  1  0
  3  2  1  0
  4  5  2  0
  6  7  1  0
  8  7  1  1
  8 10  1  0
  9  8  1  0
  9  4  1  0
 10 11  2  0
 10 18  1  0
 12 13  1  0
 13 15  1  0
 13 14  2  0
 15 16  1  0
 17 16  1  6
 17 19  1  0
 18 17  1  0
 19 20  2  0
 19 21  1  0
M  END
$$$$
