ASQ.pdb
     RDKit          3D

 21 20  0  0  1  0  0  0  0  0999 V2000
    6.6185  -15.6450   20.0857 C   0  0  0  0  0  0  0  0  0  0  0  0
    7.1440  -14.2453   20.3215 C   0  0  2  0  0  0  0  0  0  0  0  0
    7.8866  -13.7660   19.1735 N   0  0  0  0  0  0  0  0  0  0  0  0
    8.0788  -14.3130   21.4729 C   0  0  0  0  0  0  0  0  0  0  0  0
    9.2851  -14.5385   21.3269 O   0  0  0  0  0  0  0  0  0  0  0  0
    6.3337  -14.1025   25.2837 O   0  0  0  0  0  0  0  0  0  0  0  0
    7.5138  -13.4038   25.0334 C   0  0  0  0  0  0  0  0  0  0  0  0
    8.3412  -14.1457   23.9760 C   0  0  2  0  0  0  0  0  0  0  0  0
    7.5501  -14.1103   22.7647 N   0  0  0  0  0  0  0  0  0  0  0  0
    8.5172  -15.5696   24.3434 C   0  0  0  0  0  0  0  0  0  0  0  0
    7.6184  -16.4122   24.0425 O   0  0  0  0  0  0  0  0  0  0  0  0
   11.9321  -19.6753   22.6684 N   0  0  0  0  0  0  0  0  0  0  0  0
   12.6836  -18.6080   23.2658 C   0  0  0  0  0  0  0  0  0  0  0  0
   13.8571  -18.4356   22.8631 O   0  0  0  0  0  0  0  0  0  0  0  0
   12.0586  -17.7567   24.3231 C   0  0  0  0  0  0  0  0  0  0  0  0
   10.6087  -18.1682   24.4182 C   0  0  0  0  0  0  0  0  0  0  0  0
    9.8455  -17.3408   25.4240 C   0  0  2  0  0  0  0  0  0  0  0  0
    9.7040  -15.9749   25.0352 N   0  0  0  0  0  0  0  0  0  0  0  0
   10.5935  -17.4726   26.7226 C   0  0  0  0  0  0  0  0  0  0  0  0
   10.4785  -18.5528   27.3514 O   0  0  0  0  0  0  0  0  0  0  0  0
   11.3811  -16.4879   27.2443 O   0  0  0  0  0  0  0  0  0  0  0  0
  2  1  1  6
  2  4  1  0
  3  2  1  0
  4  5  2  0
  6  7  1  0
  8  7  1  1
  8 10  1  0
  9  8  1  0
  9  4  1  0
 10 11  2  0
 10 18  1  0
 12 13  1  0
 13 15  1  0
 13 14  2  0
 15 16  1  0
 17 16  1  6
 17 19  1  0
 18 17  1  0
 19 20  2  0
 19 21  1  0
M  END
$$$$
