ASQ.pdb
     RDKit          3D

 21 20  0  0  1  0  0  0  0  0999 V2000
    7.5423  -12.2884   19.2110 C   0  0  0  0  0  0  0  0  0  0  0  0
    8.0471  -13.7130   19.1298 C   0  0  2  0  0  0  0  0  0  0  0  0
    6.9769  -14.6605   19.3664 N   0  0  0  0  0  0  0  0  0  0  0  0
    9.0550  -13.8860   20.2061 C   0  0  0  0  0  0  0  0  0  0  0  0
   10.1120  -13.2460   20.2248 O   0  0  0  0  0  0  0  0  0  0  0  0
    8.7340  -15.3787   24.5267 O   0  0  0  0  0  0  0  0  0  0  0  0
    8.8751  -16.0002   23.2868 C   0  0  0  0  0  0  0  0  0  0  0  0
    9.6643  -15.0898   22.3374 C   0  0  2  0  0  0  0  0  0  0  0  0
    8.7749  -14.8159   21.2289 N   0  0  0  0  0  0  0  0  0  0  0  0
   10.8460  -15.7934   21.7879 C   0  0  0  0  0  0  0  0  0  0  0  0
   10.6837  -16.7833   21.0120 O   0  0  0  0  0  0  0  0  0  0  0  0
   15.0485  -13.4535   18.7102 N   0  0  0  0  0  0  0  0  0  0  0  0
   15.6718  -14.7387   18.8531 C   0  0  0  0  0  0  0  0  0  0  0  0
   16.6361  -14.9972   18.0965 O   0  0  0  0  0  0  0  0  0  0  0  0
   15.1642  -15.7044   19.8743 C   0  0  0  0  0  0  0  0  0  0  0  0
   14.0539  -15.0074   20.6241 C   0  0  0  0  0  0  0  0  0  0  0  0
   13.2898  -15.9520   21.5198 C   0  0  2  0  0  0  0  0  0  0  0  0
   12.1587  -15.3436   22.1424 N   0  0  0  0  0  0  0  0  0  0  0  0
   14.2797  -16.4517   22.5366 C   0  0  0  0  0  0  0  0  0  0  0  0
   14.1318  -16.0744   23.7245 O   0  0  0  0  0  0  0  0  0  0  0  0
   15.3177  -17.2846   22.2348 O   0  0  0  0  0  0  0  0  0  0  0  0
  2  1  1  1
  2  4  1  0
  3  2  1  0
  4  5  2  0
  6  7  1  0
  8  7  1  1
  8 10  1  0
  9  8  1  0
  9  4  1  0
 10 11  2  0
 10 18  1  0
 12 13  1  0
 13 15  1  0
 13 14  2  0
 15 16  1  0
 17 16  1  6
 17 19  1  0
 18 17  1  0
 19 20  2  0
 19 21  1  0
M  END
$$$$
