ASQ.pdb
     RDKit          3D

 21 20  0  0  1  0  0  0  0  0999 V2000
    7.5056  -15.2135   19.3467 C   0  0  0  0  0  0  0  0  0  0  0  0
    7.6200  -13.8246   19.9374 C   0  0  2  0  0  0  0  0  0  0  0  0
    8.2563  -12.9129   19.0086 N   0  0  0  0  0  0  0  0  0  0  0  0
    8.4844  -13.9265   21.1402 C   0  0  0  0  0  0  0  0  0  0  0  0
    9.7164  -13.8573   21.0712 O   0  0  0  0  0  0  0  0  0  0  0  0
    6.4831  -14.7972   24.6585 O   0  0  0  0  0  0  0  0  0  0  0  0
    7.5309  -13.8806   24.7332 C   0  0  0  0  0  0  0  0  0  0  0  0
    8.5691  -14.1904   23.6473 C   0  0  2  0  0  0  0  0  0  0  0  0
    7.8568  -14.1078   22.3902 N   0  0  0  0  0  0  0  0  0  0  0  0
    9.0731  -15.5771   23.7755 C   0  0  0  0  0  0  0  0  0  0  0  0
    8.4280  -16.5319   23.2460 O   0  0  0  0  0  0  0  0  0  0  0  0
   14.9660  -16.4919   22.2150 N   0  0  0  0  0  0  0  0  0  0  0  0
   13.9042  -16.1059   23.1005 C   0  0  0  0  0  0  0  0  0  0  0  0
   14.1653  -15.2417   23.9688 O   0  0  0  0  0  0  0  0  0  0  0  0
   12.5539  -16.7311   22.9628 C   0  0  0  0  0  0  0  0  0  0  0  0
   12.2078  -17.3291   24.3057 C   0  0  0  0  0  0  0  0  0  0  0  0
   10.7464  -17.1624   24.6451 C   0  0  2  0  0  0  0  0  0  0  0  0
   10.2858  -15.8196   24.4981 N   0  0  0  0  0  0  0  0  0  0  0  0
   10.5909  -17.6498   26.0599 C   0  0  0  0  0  0  0  0  0  0  0  0
   10.1462  -16.8380   26.9076 O   0  0  0  0  0  0  0  0  0  0  0  0
   10.9054  -18.9153   26.4621 O   0  0  0  0  0  0  0  0  0  0  0  0
  2  1  1  6
  2  4  1  0
  3  2  1  0
  4  5  2  0
  6  7  1  0
  8  7  1  1
  8 10  1  0
  9  8  1  0
  9  4  1  0
 10 11  2  0
 10 18  1  0
 12 13  1  0
 13 15  1  0
 13 14  2  0
 15 16  1  0
 17 16  1  1
 17 19  1  0
 18 17  1  0
 19 20  2  0
 19 21  1  0
M  END
$$$$
