ASQ.pdb
     RDKit          3D

 21 20  0  0  1  0  0  0  0  0999 V2000
    8.8957  -17.7692   18.9338 C   0  0  0  0  0  0  0  0  0  0  0  0
    9.7923  -18.1512   20.0918 C   0  0  2  0  0  0  0  0  0  0  0  0
    9.8584  -19.5899   20.2486 N   0  0  0  0  0  0  0  0  0  0  0  0
    9.1868  -17.5860   21.3239 C   0  0  0  0  0  0  0  0  0  0  0  0
    8.7514  -16.4303   21.3709 O   0  0  0  0  0  0  0  0  0  0  0  0
    8.4258  -20.2794   24.4543 O   0  0  0  0  0  0  0  0  0  0  0  0
    7.6480  -19.1559   24.1780 C   0  0  0  0  0  0  0  0  0  0  0  0
    8.5495  -17.9988   23.7293 C   0  0  2  0  0  0  0  0  0  0  0  0
    9.1171  -18.4132   22.4641 N   0  0  0  0  0  0  0  0  0  0  0  0
    9.6748  -17.8064   24.6728 C   0  0  0  0  0  0  0  0  0  0  0  0
   10.8323  -18.2226   24.3639 O   0  0  0  0  0  0  0  0  0  0  0  0
    9.6583  -13.8518   29.4710 N   0  0  0  0  0  0  0  0  0  0  0  0
    9.3557  -13.5701   28.0963 C   0  0  0  0  0  0  0  0  0  0  0  0
    8.8329  -12.4614   27.8383 O   0  0  0  0  0  0  0  0  0  0  0  0
    9.6659  -14.5824   27.0418 C   0  0  0  0  0  0  0  0  0  0  0  0
   10.3183  -15.7541   27.7361 C   0  0  0  0  0  0  0  0  0  0  0  0
   10.5385  -16.9199   26.8029 C   0  0  2  0  0  0  0  0  0  0  0  0
    9.4379  -17.1510   25.9240 N   0  0  0  0  0  0  0  0  0  0  0  0
   10.8046  -18.1110   27.6826 C   0  0  0  0  0  0  0  0  0  0  0  0
   11.8321  -18.0825   28.4027 O   0  0  0  0  0  0  0  0  0  0  0  0
    9.9939  -19.2074   27.7355 O   0  0  0  0  0  0  0  0  0  0  0  0
  2  1  1  6
  2  4  1  0
  3  2  1  0
  4  5  2  0
  6  7  1  0
  8  7  1  1
  8 10  1  0
  9  8  1  0
  9  4  1  0
 10 11  2  0
 10 18  1  0
 12 13  1  0
 13 15  1  0
 13 14  2  0
 15 16  1  0
 17 16  1  1
 17 19  1  0
 18 17  1  0
 19 20  2  0
 19 21  1  0
M  END
$$$$
