EQG.pdb
     RDKit          3D

 23 22  0  0  1  0  0  0  0  0999 V2000
   12.6929  -14.0218   17.0469 N   0  0  0  0  0  0  0  0  0  0  0  0
   13.3478  -14.9771   17.8791 C   0  0  1  0  0  0  0  0  0  0  0  0
   14.8469  -14.8757   17.7502 C   0  0  0  0  0  0  0  0  0  0  0  0
   15.2976  -13.4371   17.6010 C   0  0  0  0  0  0  0  0  0  0  0  0
   16.7680  -13.3897   17.4133 C   0  0  0  0  0  0  0  0  0  0  0  0
   17.5088  -13.6788   18.3691 O   0  0  0  0  0  0  0  0  0  0  0  0
   12.9065  -14.8973   19.3012 C   0  0  0  0  0  0  0  0  0  0  0  0
   12.2223  -13.9204   19.6847 O   0  0  0  0  0  0  0  0  0  0  0  0
   17.3252  -13.0285   16.1912 O   0  0  0  0  0  0  0  0  0  0  0  0
   10.0749  -19.6521   22.1412 N   0  0  0  0  0  0  0  0  0  0  0  0
   11.3863  -19.1562   22.3812 C   0  0  0  0  0  0  0  0  0  0  0  0
   12.0276  -19.5384   23.3915 O   0  0  0  0  0  0  0  0  0  0  0  0
   11.9292  -18.1883   21.3911 C   0  0  0  0  0  0  0  0  0  0  0  0
   11.6764  -16.7730   21.7483 C   0  0  0  0  0  0  0  0  0  0  0  0
   12.8388  -15.8289   21.6487 C   0  0  2  0  0  0  0  0  0  0  0  0
   13.2441  -15.9020   20.2276 N   0  0  0  0  0  0  0  0  0  0  0  0
   14.0250  -16.2191   22.4258 C   0  0  0  0  0  0  0  0  0  0  0  0
   15.1617  -15.9057   22.0141 O   0  0  0  0  0  0  0  0  0  0  0  0
   13.8917  -16.9405   23.6309 N   0  0  0  0  0  0  0  0  0  0  0  0
   14.2177  -16.2359   24.8719 C   0  0  0  0  0  0  0  0  0  0  0  0
   14.1284  -17.1401   26.0301 C   0  0  0  0  0  0  0  0  0  0  0  0
   13.0890  -17.1687   26.7210 O   0  0  0  0  0  0  0  0  0  0  0  0
   15.1603  -17.9735   26.3942 O   0  0  0  0  0  0  0  0  0  0  0  0
  2  1  1  6
  2  3  1  0
  3  4  1  0
  4  5  1  0
  5  6  2  0
  5  9  1  0
  7  8  2  0
  7  2  1  0
 10 11  1  0
 11 12  2  0
 11 13  1  0
 13 14  1  0
 15 14  1  6
 15 16  1  0
 16  7  1  0
 17 19  1  0
 17 15  1  0
 18 17  2  0
 20 19  1  0
 21 20  1  0
 22 21  2  0
 23 21  1  0
M  END
$$$$
