EQG.pdb
     RDKit          3D

 23 22  0  0  1  0  0  0  0  0999 V2000
    6.4703  -20.0335   20.9105 N   0  0  0  0  0  0  0  0  0  0  0  0
    6.6051  -18.9764   21.8585 C   0  0  1  0  0  0  0  0  0  0  0  0
    7.0244  -19.5041   23.2075 C   0  0  0  0  0  0  0  0  0  0  0  0
    7.0329  -21.0188   23.2356 C   0  0  0  0  0  0  0  0  0  0  0  0
    5.6498  -21.5244   23.4106 C   0  0  0  0  0  0  0  0  0  0  0  0
    4.8652  -20.8972   24.1434 O   0  0  0  0  0  0  0  0  0  0  0  0
    7.5091  -17.8904   21.3821 C   0  0  0  0  0  0  0  0  0  0  0  0
    8.4953  -18.1744   20.6634 O   0  0  0  0  0  0  0  0  0  0  0  0
    5.2217  -22.6826   22.7704 O   0  0  0  0  0  0  0  0  0  0  0  0
    7.4384  -14.0631   18.2869 N   0  0  0  0  0  0  0  0  0  0  0  0
    7.9071  -12.9562   19.0474 C   0  0  0  0  0  0  0  0  0  0  0  0
    8.4460  -11.9797   18.4694 O   0  0  0  0  0  0  0  0  0  0  0  0
    7.7235  -13.0291   20.5214 C   0  0  0  0  0  0  0  0  0  0  0  0
    7.1549  -14.3168   20.9832 C   0  0  0  0  0  0  0  0  0  0  0  0
    8.1194  -15.4451   21.2046 C   0  0  2  0  0  0  0  0  0  0  0  0
    7.2770  -16.5448   21.7244 N   0  0  0  0  0  0  0  0  0  0  0  0
    9.1392  -15.1981   22.2352 C   0  0  0  0  0  0  0  0  0  0  0  0
   10.0219  -14.3375   22.0347 O   0  0  0  0  0  0  0  0  0  0  0  0
    9.1290  -15.9206   23.4469 N   0  0  0  0  0  0  0  0  0  0  0  0
   10.0804  -15.5078   24.4799 C   0  0  0  0  0  0  0  0  0  0  0  0
   11.2627  -16.3847   24.4881 C   0  0  0  0  0  0  0  0  0  0  0  0
   11.5136  -17.1035   23.4987 O   0  0  0  0  0  0  0  0  0  0  0  0
   12.1228  -16.4501   25.5595 O   0  0  0  0  0  0  0  0  0  0  0  0
  2  1  1  6
  2  3  1  0
  3  4  1  0
  4  5  1  0
  5  6  2  0
  5  9  1  0
  7  8  2  0
  7  2  1  0
 10 11  1  0
 11 12  2  0
 11 13  1  0
 13 14  1  0
 15 14  1  1
 15 16  1  0
 16  7  1  0
 17 19  1  0
 17 15  1  0
 18 17  2  0
 20 19  1  0
 21 20  1  0
 22 21  2  0
 23 21  1  0
M  END
$$$$
