EQG.pdb
     RDKit          3D

 23 22  0  0  1  0  0  0  0  0999 V2000
   12.3924  -15.7209   13.9699 N   0  0  0  0  0  0  0  0  0  0  0  0
   11.3334  -15.9213   14.9040 C   0  0  1  0  0  0  0  0  0  0  0  0
   11.0699  -17.3900   15.1226 C   0  0  0  0  0  0  0  0  0  0  0  0
   12.2941  -18.1021   15.6603 C   0  0  0  0  0  0  0  0  0  0  0  0
   11.9947  -19.5428   15.8455 C   0  0  0  0  0  0  0  0  0  0  0  0
   12.8704  -20.2856   16.3222 O   0  0  0  0  0  0  0  0  0  0  0  0
   11.5586  -15.2007   16.1898 C   0  0  0  0  0  0  0  0  0  0  0  0
   12.7171  -14.8448   16.5072 O   0  0  0  0  0  0  0  0  0  0  0  0
   10.7562  -20.0702   15.4955 O   0  0  0  0  0  0  0  0  0  0  0  0
    6.7923  -12.8620   19.2967 N   0  0  0  0  0  0  0  0  0  0  0  0
    7.7793  -12.5419   20.2697 C   0  0  0  0  0  0  0  0  0  0  0  0
    7.4612  -11.8945   21.2981 O   0  0  0  0  0  0  0  0  0  0  0  0
    9.1651  -13.0083   19.9982 C   0  0  0  0  0  0  0  0  0  0  0  0
    9.3057  -13.7243   18.7089 C   0  0  0  0  0  0  0  0  0  0  0  0
   10.6876  -14.1650   18.3235 C   0  0  2  0  0  0  0  0  0  0  0  0
   10.4911  -14.9097   17.0601 N   0  0  0  0  0  0  0  0  0  0  0  0
   11.3204  -15.1119   19.2542 C   0  0  0  0  0  0  0  0  0  0  0  0
   11.0719  -16.3319   19.1556 O   0  0  0  0  0  0  0  0  0  0  0  0
   12.2057  -14.6569   20.2540 N   0  0  0  0  0  0  0  0  0  0  0  0
   12.7542  -15.6595   21.1685 C   0  0  0  0  0  0  0  0  0  0  0  0
   14.2250  -15.6032   21.1913 C   0  0  0  0  0  0  0  0  0  0  0  0
   14.8333  -14.8529   20.4005 O   0  0  0  0  0  0  0  0  0  0  0  0
   14.9767  -16.3561   22.0633 O   0  0  0  0  0  0  0  0  0  0  0  0
  2  1  1  6
  2  3  1  0
  3  4  1  0
  4  5  1  0
  5  6  2  0
  5  9  1  0
  7  8  2  0
  7  2  1  0
 10 11  1  0
 11 12  2  0
 11 13  1  0
 13 14  1  0
 15 14  1  1
 15 16  1  0
 16  7  1  0
 17 19  1  0
 17 15  1  0
 18 17  2  0
 20 19  1  0
 21 20  1  0
 22 21  2  0
 23 21  1  0
M  END
$$$$
