EQG.pdb
     RDKit          3D

 23 22  0  0  1  0  0  0  0  0999 V2000
    9.1956  -17.0452   20.8511 N   0  0  0  0  0  0  0  0  0  0  0  0
    9.7711  -17.5999   22.0324 C   0  0  1  0  0  0  0  0  0  0  0  0
   10.5990  -18.8196   21.7145 C   0  0  0  0  0  0  0  0  0  0  0  0
    9.7826  -19.8769   20.9998 C   0  0  0  0  0  0  0  0  0  0  0  0
   10.6077  -21.0916   20.7922 C   0  0  0  0  0  0  0  0  0  0  0  0
   10.1080  -22.0691   20.2085 O   0  0  0  0  0  0  0  0  0  0  0  0
   10.5418  -16.5962   22.8209 C   0  0  0  0  0  0  0  0  0  0  0  0
   10.9927  -15.5744   22.2532 O   0  0  0  0  0  0  0  0  0  0  0  0
   11.9236  -21.1514   21.2387 O   0  0  0  0  0  0  0  0  0  0  0  0
    9.1878  -15.5924   28.5519 N   0  0  0  0  0  0  0  0  0  0  0  0
   10.2952  -14.7001   28.5259 C   0  0  0  0  0  0  0  0  0  0  0  0
   10.5031  -13.9281   29.4949 O   0  0  0  0  0  0  0  0  0  0  0  0
   11.1608  -14.7400   27.3173 C   0  0  0  0  0  0  0  0  0  0  0  0
   10.6770  -15.6746   26.2745 C   0  0  0  0  0  0  0  0  0  0  0  0
   11.4829  -15.7597   25.0114 C   0  0  2  0  0  0  0  0  0  0  0  0
   10.7753  -16.7729   24.1978 N   0  0  0  0  0  0  0  0  0  0  0  0
   12.8534  -16.2659   25.1812 C   0  0  0  0  0  0  0  0  0  0  0  0
   13.0522  -17.2851   25.8752 O   0  0  0  0  0  0  0  0  0  0  0  0
   13.9436  -15.6142   24.5670 N   0  0  0  0  0  0  0  0  0  0  0  0
   15.2796  -16.1495   24.8340 C   0  0  0  0  0  0  0  0  0  0  0  0
   16.3098  -15.3719   24.1262 C   0  0  0  0  0  0  0  0  0  0  0  0
   15.9747  -14.4645   23.3370 O   0  0  0  0  0  0  0  0  0  0  0  0
   17.6546  -15.6041   24.2983 O   0  0  0  0  0  0  0  0  0  0  0  0
  2  1  1  6
  2  3  1  0
  3  4  1  0
  4  5  1  0
  5  6  2  0
  5  9  1  0
  7  8  2  0
  7  2  1  0
 10 11  1  0
 11 12  2  0
 11 13  1  0
 13 14  1  0
 15 14  1  1
 15 16  1  0
 16  7  1  0
 17 19  1  0
 17 15  1  0
 18 17  2  0
 20 19  1  0
 21 20  1  0
 22 21  2  0
 23 21  1  0
M  END
$$$$
