EQG.pdb
     RDKit          3D

 23 22  0  0  1  0  0  0  0  0999 V2000
    7.9955  -12.4884   18.9300 N   0  0  0  0  0  0  0  0  0  0  0  0
    7.4143  -13.4402   19.8192 C   0  0  1  0  0  0  0  0  0  0  0  0
    7.1527  -14.7506   19.1200 C   0  0  0  0  0  0  0  0  0  0  0  0
    8.4397  -15.4980   18.8368 C   0  0  0  0  0  0  0  0  0  0  0  0
    8.1321  -16.8026   18.2021 C   0  0  0  0  0  0  0  0  0  0  0  0
    8.5042  -17.8491   18.7609 O   0  0  0  0  0  0  0  0  0  0  0  0
    8.2140  -13.6254   21.0640 C   0  0  0  0  0  0  0  0  0  0  0  0
    9.4472  -13.4049   21.0480 O   0  0  0  0  0  0  0  0  0  0  0  0
    7.4380  -16.8704   16.9988 O   0  0  0  0  0  0  0  0  0  0  0  0
    5.3540  -13.4835   26.4331 N   0  0  0  0  0  0  0  0  0  0  0  0
    6.2101  -12.3676   26.2205 C   0  0  0  0  0  0  0  0  0  0  0  0
    6.0310  -11.3059   26.8676 O   0  0  0  0  0  0  0  0  0  0  0  0
    7.2937  -12.5351   25.2158 C   0  0  0  0  0  0  0  0  0  0  0  0
    7.3180  -13.8783   24.5912 C   0  0  0  0  0  0  0  0  0  0  0  0
    8.3592  -14.1191   23.5376 C   0  0  2  0  0  0  0  0  0  0  0  0
    7.6096  -14.0452   22.2641 N   0  0  0  0  0  0  0  0  0  0  0  0
    8.9744  -15.4548   23.5652 C   0  0  0  0  0  0  0  0  0  0  0  0
    8.2612  -16.4653   23.3917 O   0  0  0  0  0  0  0  0  0  0  0  0
   10.3601  -15.6056   23.7830 N   0  0  0  0  0  0  0  0  0  0  0  0
   10.9020  -16.9642   23.7275 C   0  0  0  0  0  0  0  0  0  0  0  0
   12.3269  -16.9785   24.0968 C   0  0  0  0  0  0  0  0  0  0  0  0
   13.2020  -16.8701   23.2131 O   0  0  0  0  0  0  0  0  0  0  0  0
   12.7480  -17.1088   25.3998 O   0  0  0  0  0  0  0  0  0  0  0  0
  2  1  1  6
  2  3  1  0
  3  4  1  0
  4  5  1  0
  5  6  2  0
  5  9  1  0
  7  8  2  0
  7  2  1  0
 10 11  1  0
 11 12  2  0
 11 13  1  0
 13 14  1  0
 15 14  1  1
 15 16  1  0
 16  7  1  0
 17 19  1  0
 17 15  1  0
 18 17  2  0
 20 19  1  0
 21 20  1  0
 22 21  2  0
 23 21  1  0
M  END
$$$$
