EQG.pdb
     RDKit          3D

 23 22  0  0  1  0  0  0  0  0999 V2000
   11.6224  -21.1476   23.1656 N   0  0  0  0  0  0  0  0  0  0  0  0
   12.4275  -21.4127   24.3127 C   0  0  1  0  0  0  0  0  0  0  0  0
   13.8061  -20.8209   24.1597 C   0  0  0  0  0  0  0  0  0  0  0  0
   14.0556  -20.3479   22.7422 C   0  0  0  0  0  0  0  0  0  0  0  0
   15.4203  -19.7769   22.6375 C   0  0  0  0  0  0  0  0  0  0  0  0
   15.7222  -18.7993   23.3441 O   0  0  0  0  0  0  0  0  0  0  0  0
   11.7763  -20.9814   25.5828 C   0  0  0  0  0  0  0  0  0  0  0  0
   10.9280  -20.0597   25.5634 O   0  0  0  0  0  0  0  0  0  0  0  0
   16.3602  -20.3164   21.7657 O   0  0  0  0  0  0  0  0  0  0  0  0
   12.2222  -24.4682   30.6250 N   0  0  0  0  0  0  0  0  0  0  0  0
   11.5151  -23.3992   31.2421 C   0  0  0  0  0  0  0  0  0  0  0  0
   11.1912  -23.4765   32.4533 O   0  0  0  0  0  0  0  0  0  0  0  0
   11.1954  -22.2247   30.3877 C   0  0  0  0  0  0  0  0  0  0  0  0
   11.6818  -22.3574   28.9946 C   0  0  0  0  0  0  0  0  0  0  0  0
   11.4472  -21.1916   28.0790 C   0  0  2  0  0  0  0  0  0  0  0  0
   12.0961  -21.5910   26.8107 N   0  0  0  0  0  0  0  0  0  0  0  0
   12.1003  -19.9388   28.4878 C   0  0  0  0  0  0  0  0  0  0  0  0
   13.2937  -19.7369   28.1794 O   0  0  0  0  0  0  0  0  0  0  0  0
   11.3927  -18.9633   29.2214 N   0  0  0  0  0  0  0  0  0  0  0  0
   12.0868  -17.7064   29.5058 C   0  0  0  0  0  0  0  0  0  0  0  0
   11.2441  -16.8105   30.3147 C   0  0  0  0  0  0  0  0  0  0  0  0
   10.0846  -17.1546   30.6238 O   0  0  0  0  0  0  0  0  0  0  0  0
   11.6852  -15.5844   30.7553 O   0  0  0  0  0  0  0  0  0  0  0  0
  2  1  1  6
  2  3  1  0
  3  4  1  0
  4  5  1  0
  5  6  2  0
  5  9  1  0
  7  8  2  0
  7  2  1  0
 10 11  1  0
 11 12  2  0
 11 13  1  0
 13 14  1  0
 15 14  1  1
 15 16  1  0
 16  7  1  0
 17 19  1  0
 17 15  1  0
 18 17  2  0
 20 19  1  0
 21 20  1  0
 22 21  2  0
 23 21  1  0
M  END
$$$$
