EQG.pdb
     RDKit          3D

 23 22  0  0  1  0  0  0  0  0999 V2000
    5.6456  -18.6225   24.5323 N   0  0  0  0  0  0  0  0  0  0  0  0
    7.0541  -18.5095   24.3390 C   0  0  1  0  0  0  0  0  0  0  0  0
    7.4484  -18.9280   22.9449 C   0  0  0  0  0  0  0  0  0  0  0  0
    6.5098  -19.9811   22.3925 C   0  0  0  0  0  0  0  0  0  0  0  0
    6.8773  -20.2937   20.9901 C   0  0  0  0  0  0  0  0  0  0  0  0
    7.8937  -19.7707   20.5008 O   0  0  0  0  0  0  0  0  0  0  0  0
    7.5730  -17.1535   24.6789 C   0  0  0  0  0  0  0  0  0  0  0  0
    6.7755  -16.2551   25.0343 O   0  0  0  0  0  0  0  0  0  0  0  0
    6.1056  -21.1579   20.2206 O   0  0  0  0  0  0  0  0  0  0  0  0
   10.2628  -16.4607   29.1005 N   0  0  0  0  0  0  0  0  0  0  0  0
   10.2076  -15.0615   28.8509 C   0  0  0  0  0  0  0  0  0  0  0  0
   10.6044  -14.2510   29.7248 O   0  0  0  0  0  0  0  0  0  0  0  0
    9.6672  -14.6360   27.5323 C   0  0  0  0  0  0  0  0  0  0  0  0
    9.2589  -15.7678   26.6679 C   0  0  0  0  0  0  0  0  0  0  0  0
    9.5189  -15.6275   25.1965 C   0  0  2  0  0  0  0  0  0  0  0  0
    8.9478  -16.8593   24.6087 N   0  0  0  0  0  0  0  0  0  0  0  0
   10.9391  -15.6203   24.8140 C   0  0  0  0  0  0  0  0  0  0  0  0
   11.6347  -14.6093   25.0464 O   0  0  0  0  0  0  0  0  0  0  0  0
   11.5232  -16.7431   24.1906 N   0  0  0  0  0  0  0  0  0  0  0  0
   12.9143  -16.6169   23.7529 C   0  0  0  0  0  0  0  0  0  0  0  0
   13.8410  -17.0466   24.8128 C   0  0  0  0  0  0  0  0  0  0  0  0
   13.3980  -17.3870   25.9292 O   0  0  0  0  0  0  0  0  0  0  0  0
   15.2030  -17.0913   24.6256 O   0  0  0  0  0  0  0  0  0  0  0  0
  2  1  1  6
  2  3  1  0
  3  4  1  0
  4  5  1  0
  5  6  2  0
  5  9  1  0
  7  8  2  0
  7  2  1  0
 10 11  1  0
 11 12  2  0
 11 13  1  0
 13 14  1  0
 15 14  1  1
 15 16  1  0
 16  7  1  0
 17 19  1  0
 17 15  1  0
 18 17  2  0
 20 19  1  0
 21 20  1  0
 22 21  2  0
 23 21  1  0
M  END
$$$$
