EQG.pdb
     RDKit          3D

 23 22  0  0  1  0  0  0  0  0999 V2000
    8.6701  -17.7158   21.7868 N   0  0  0  0  0  0  0  0  0  0  0  0
    9.7959  -17.9171   22.6390 C   0  0  1  0  0  0  0  0  0  0  0  0
   10.9482  -18.5309   21.8842 C   0  0  0  0  0  0  0  0  0  0  0  0
   10.5777  -19.8791   21.3010 C   0  0  0  0  0  0  0  0  0  0  0  0
   11.7336  -20.4388   20.5593 C   0  0  0  0  0  0  0  0  0  0  0  0
   11.8776  -20.1512   19.3583 O   0  0  0  0  0  0  0  0  0  0  0  0
   10.2017  -16.6747   23.3567 C   0  0  0  0  0  0  0  0  0  0  0  0
   10.0975  -15.5652   22.7842 O   0  0  0  0  0  0  0  0  0  0  0  0
   12.6520  -21.2753   21.1849 O   0  0  0  0  0  0  0  0  0  0  0  0
   10.0290  -16.4995   29.3993 N   0  0  0  0  0  0  0  0  0  0  0  0
   10.5358  -15.1802   29.2377 C   0  0  0  0  0  0  0  0  0  0  0  0
   10.6354  -14.4191   30.2321 O   0  0  0  0  0  0  0  0  0  0  0  0
   10.9263  -14.7755   27.8610 C   0  0  0  0  0  0  0  0  0  0  0  0
   10.6539  -15.8139   26.8400 C   0  0  0  0  0  0  0  0  0  0  0  0
   11.0449  -15.4961   25.4264 C   0  0  2  0  0  0  0  0  0  0  0  0
   10.7022  -16.7217   24.6716 N   0  0  0  0  0  0  0  0  0  0  0  0
   12.4842  -15.2815   25.2127 C   0  0  0  0  0  0  0  0  0  0  0  0
   13.0362  -14.2737   25.7022 O   0  0  0  0  0  0  0  0  0  0  0  0
   13.2467  -16.2023   24.4637 N   0  0  0  0  0  0  0  0  0  0  0  0
   14.6448  -15.8566   24.2021 C   0  0  0  0  0  0  0  0  0  0  0  0
   15.5480  -16.6069   25.0900 C   0  0  0  0  0  0  0  0  0  0  0  0
   16.7835  -16.5418   24.9232 O   0  0  0  0  0  0  0  0  0  0  0  0
   15.0830  -17.3939   26.1179 O   0  0  0  0  0  0  0  0  0  0  0  0
  2  1  1  6
  2  3  1  0
  3  4  1  0
  4  5  1  0
  5  6  2  0
  5  9  1  0
  7  8  2  0
  7  2  1  0
 10 11  1  0
 11 12  2  0
 11 13  1  0
 13 14  1  0
 15 14  1  1
 15 16  1  0
 16  7  1  0
 17 19  1  0
 17 15  1  0
 18 17  2  0
 20 19  1  0
 21 20  1  0
 22 21  2  0
 23 21  1  0
M  END
$$$$
