FPP.pdb
     RDKit          3D

 26 28  0  0  1  0  0  0  0  0999 V2000
    6.9702  -18.4864   26.8946 N   0  0  0  0  0  0  0  0  0  0  0  0
    7.4114  -17.0785   27.0212 C   0  0  1  0  0  0  0  0  0  0  0  0
    8.8483  -17.1949   27.5115 C   0  0  0  0  0  0  0  0  0  0  0  0
    9.2370  -16.0417   28.3356 C   0  0  0  0  0  0  0  0  0  0  0  0
    9.6991  -14.9028   27.7149 C   0  0  0  0  0  0  0  0  0  0  0  0
   10.0837  -13.7780   28.4187 C   0  0  0  0  0  0  0  0  0  0  0  0
   10.0126  -13.7685   29.7874 C   0  0  0  0  0  0  0  0  0  0  0  0
    9.5523  -14.8997   30.4250 C   0  0  0  0  0  0  0  0  0  0  0  0
    9.1698  -16.0197   29.7184 C   0  0  0  0  0  0  0  0  0  0  0  0
    7.2735  -16.4072   25.7300 C   0  0  0  0  0  0  0  0  0  0  0  0
    7.4505  -17.1197   24.6787 O   0  0  0  0  0  0  0  0  0  0  0  0
    6.9564  -15.0293   25.5309 N   0  0  0  0  0  0  0  0  0  0  0  0
    6.3493  -14.1944   26.5380 C   0  0  0  0  0  0  0  0  0  0  0  0
    7.1256  -12.9162   26.3513 C   0  0  0  0  0  0  0  0  0  0  0  0
    7.4457  -12.8562   24.8781 C   0  0  0  0  0  0  0  0  0  0  0  0
    7.0977  -14.2212   24.3719 C   0  0  1  0  0  0  0  0  0  0  0  0
    8.0281  -14.6928   23.3332 C   0  0  0  0  0  0  0  0  0  0  0  0
    9.1460  -15.1294   23.7288 O   0  0  0  0  0  0  0  0  0  0  0  0
    7.7301  -14.6810   21.9738 N   0  0  0  0  0  0  0  0  0  0  0  0
    6.3661  -14.4390   21.4440 C   0  0  0  0  0  0  0  0  0  0  0  0
    6.6427  -13.4952   20.3040 C   0  0  0  0  0  0  0  0  0  0  0  0
    8.1153  -13.5858   20.0126 C   0  0  0  0  0  0  0  0  0  0  0  0
    8.4721  -14.8809   20.7581 C   0  0  1  0  0  0  0  0  0  0  0  0
    9.8806  -15.1097   20.7739 C   0  0  0  0  0  0  0  0  0  0  0  0
   10.8121  -14.5443   21.5753 O   0  0  0  0  0  0  0  0  0  0  0  0
   10.3388  -15.9617   19.9196 O   0  0  0  0  0  0  0  0  0  0  0  0
  2  1  1  6
  3  2  1  0
  4  3  1  0
  5  4  2  0
  6  5  1  0
  7  8  1  0
  7  6  2  0
  8  9  2  0
  9  4  1  0
 10  2  1  0
 10 12  1  0
 11 10  2  0
 12 13  1  0
 13 14  1  0
 15 14  1  0
 16 12  1  0
 16 15  1  0
 16 17  1  6
 18 17  2  0
 19 20  1  0
 19 17  1  0
 21 20  1  0
 22 23  1  0
 22 21  1  0
 23 24  1  1
 23 19  1  0
 24 25  1  0
 26 24  2  0
M  END
$$$$
