FPP.pdb
     RDKit          3D

 26 28  0  0  1  0  0  0  0  0999 V2000
    5.6956  -17.7569   25.3310 N   0  0  0  0  0  0  0  0  0  0  0  0
    6.2822  -16.4256   25.0549 C   0  0  1  0  0  0  0  0  0  0  0  0
    6.7799  -15.9625   26.4174 C   0  0  0  0  0  0  0  0  0  0  0  0
    6.9316  -14.5017   26.4734 C   0  0  0  0  0  0  0  0  0  0  0  0
    5.8087  -13.7099   26.3831 C   0  0  0  0  0  0  0  0  0  0  0  0
    5.8679  -12.3303   26.4276 C   0  0  0  0  0  0  0  0  0  0  0  0
    7.0772  -11.7005   26.5664 C   0  0  0  0  0  0  0  0  0  0  0  0
    8.2112  -12.4775   26.6582 C   0  0  0  0  0  0  0  0  0  0  0  0
    8.1472  -13.8536   26.6133 C   0  0  0  0  0  0  0  0  0  0  0  0
    7.3337  -16.5564   24.0479 C   0  0  0  0  0  0  0  0  0  0  0  0
    8.1816  -17.5049   24.2076 O   0  0  0  0  0  0  0  0  0  0  0  0
    7.5024  -15.7255   22.8989 N   0  0  0  0  0  0  0  0  0  0  0  0
    6.4960  -14.8117   22.4176 C   0  0  0  0  0  0  0  0  0  0  0  0
    7.3458  -13.6221   22.0516 C   0  0  0  0  0  0  0  0  0  0  0  0
    8.6606  -14.1994   21.5883 C   0  0  0  0  0  0  0  0  0  0  0  0
    8.5897  -15.6397   21.9897 C   0  0  1  0  0  0  0  0  0  0  0  0
    9.8882  -16.1643   22.4434 C   0  0  0  0  0  0  0  0  0  0  0  0
   10.3694  -15.6555   23.4952 O   0  0  0  0  0  0  0  0  0  0  0  0
   10.5821  -17.1723   21.7806 N   0  0  0  0  0  0  0  0  0  0  0  0
    9.9127  -18.2352   20.9918 C   0  0  0  0  0  0  0  0  0  0  0  0
   10.7796  -18.2968   19.7623 C   0  0  0  0  0  0  0  0  0  0  0  0
   12.0640  -17.5914   20.1006 C   0  0  0  0  0  0  0  0  0  0  0  0
   11.9643  -17.5414   21.6329 C   0  0  1  0  0  0  0  0  0  0  0  0
   13.0102  -16.7567   22.2044 C   0  0  0  0  0  0  0  0  0  0  0  0
   13.2466  -15.4341   22.0474 O   0  0  0  0  0  0  0  0  0  0  0  0
   13.8455  -17.3742   22.9704 O   0  0  0  0  0  0  0  0  0  0  0  0
  2  1  1  1
  3  2  1  0
  4  3  1  0
  5  4  2  0
  6  5  1  0
  7  8  1  0
  7  6  2  0
  8  9  2  0
  9  4  1  0
 10  2  1  0
 10 12  1  0
 11 10  2  0
 12 13  1  0
 13 14  1  0
 15 14  1  0
 16 12  1  0
 16 15  1  0
 16 17  1  1
 18 17  2  0
 19 20  1  0
 19 17  1  0
 21 20  1  0
 22 23  1  0
 22 21  1  0
 23 24  1  6
 23 19  1  0
 24 25  1  0
 26 24  2  0
M  END
$$$$
