FPP.pdb
     RDKit          3D

 26 28  0  0  1  0  0  0  0  0999 V2000
    6.8551  -18.4079   26.7509 N   0  0  0  0  0  0  0  0  0  0  0  0
    7.3858  -17.0319   26.8846 C   0  0  1  0  0  0  0  0  0  0  0  0
    8.8331  -17.2444   27.3075 C   0  0  0  0  0  0  0  0  0  0  0  0
    9.3397  -16.1148   28.0997 C   0  0  0  0  0  0  0  0  0  0  0  0
    9.9388  -15.0590   27.4499 C   0  0  0  0  0  0  0  0  0  0  0  0
   10.4399  -13.9614   28.1228 C   0  0  0  0  0  0  0  0  0  0  0  0
   10.3503  -13.8954   29.4888 C   0  0  0  0  0  0  0  0  0  0  0  0
    9.7537  -14.9433   30.1552 C   0  0  0  0  0  0  0  0  0  0  0  0
    9.2552  -16.0364   29.4795 C   0  0  0  0  0  0  0  0  0  0  0  0
    7.2325  -16.3255   25.6141 C   0  0  0  0  0  0  0  0  0  0  0  0
    7.3161  -17.0247   24.5425 O   0  0  0  0  0  0  0  0  0  0  0  0
    6.9946  -14.9265   25.4558 N   0  0  0  0  0  0  0  0  0  0  0  0
    6.4313  -14.0892   26.4860 C   0  0  0  0  0  0  0  0  0  0  0  0
    7.2794  -12.8520   26.3402 C   0  0  0  0  0  0  0  0  0  0  0  0
    7.6089  -12.7660   24.8703 C   0  0  0  0  0  0  0  0  0  0  0  0
    7.1865  -14.0933   24.3222 C   0  0  1  0  0  0  0  0  0  0  0  0
    8.0934  -14.5854   23.2722 C   0  0  0  0  0  0  0  0  0  0  0  0
    9.2018  -15.0563   23.6549 O   0  0  0  0  0  0  0  0  0  0  0  0
    7.7834  -14.5572   21.9158 N   0  0  0  0  0  0  0  0  0  0  0  0
    6.4012  -14.3966   21.4023 C   0  0  0  0  0  0  0  0  0  0  0  0
    6.6014  -13.4050   20.2872 C   0  0  0  0  0  0  0  0  0  0  0  0
    8.0741  -13.3844   19.9835 C   0  0  0  0  0  0  0  0  0  0  0  0
    8.5268  -14.6713   20.6899 C   0  0  1  0  0  0  0  0  0  0  0  0
    9.9479  -14.8015   20.6897 C   0  0  0  0  0  0  0  0  0  0  0  0
   10.7269  -15.4794   19.8161 O   0  0  0  0  0  0  0  0  0  0  0  0
   10.5847  -14.2018   21.6387 O   0  0  0  0  0  0  0  0  0  0  0  0
  2  1  1  6
  3  2  1  0
  4  3  1  0
  5  4  2  0
  6  5  1  0
  7  8  1  0
  7  6  2  0
  8  9  2  0
  9  4  1  0
 10  2  1  0
 10 12  1  0
 11 10  2  0
 12 13  1  0
 13 14  1  0
 15 14  1  0
 16 12  1  0
 16 15  1  0
 16 17  1  6
 18 17  2  0
 19 20  1  0
 19 17  1  0
 21 20  1  0
 22 23  1  0
 22 21  1  0
 23 24  1  1
 23 19  1  0
 24 25  1  0
 26 24  2  0
M  END
$$$$
