FPP.pdb
     RDKit          3D

 26 28  0  0  1  0  0  0  0  0999 V2000
   11.9741  -17.6551   23.6830 N   0  0  0  0  0  0  0  0  0  0  0  0
   11.1324  -17.0009   24.7108 C   0  0  1  0  0  0  0  0  0  0  0  0
   12.1197  -16.6556   25.8174 C   0  0  0  0  0  0  0  0  0  0  0  0
   11.4488  -16.0463   26.9744 C   0  0  0  0  0  0  0  0  0  0  0  0
   11.0696  -16.8501   28.0261 C   0  0  0  0  0  0  0  0  0  0  0  0
   10.4349  -16.3537   29.1483 C   0  0  0  0  0  0  0  0  0  0  0  0
   10.1603  -15.0145   29.2442 C   0  0  0  0  0  0  0  0  0  0  0  0
   10.5328  -14.1954   28.2008 C   0  0  0  0  0  0  0  0  0  0  0  0
   11.1659  -14.6952   27.0831 C   0  0  0  0  0  0  0  0  0  0  0  0
   10.4622  -15.8413   24.1252 C   0  0  0  0  0  0  0  0  0  0  0  0
   10.9743  -14.6895   24.3603 O   0  0  0  0  0  0  0  0  0  0  0  0
    9.2893  -15.8731   23.3113 N   0  0  0  0  0  0  0  0  0  0  0  0
    9.1817  -16.6366   22.0926 C   0  0  0  0  0  0  0  0  0  0  0  0
    7.7826  -17.1814   22.2228 C   0  0  0  0  0  0  0  0  0  0  0  0
    7.0079  -16.1173   22.9604 C   0  0  0  0  0  0  0  0  0  0  0  0
    8.0606  -15.1768   23.4582 C   0  0  1  0  0  0  0  0  0  0  0  0
    7.7500  -14.6357   24.7916 C   0  0  0  0  0  0  0  0  0  0  0  0
    7.7601  -15.4557   25.7530 O   0  0  0  0  0  0  0  0  0  0  0  0
    7.4596  -13.2952   25.0268 N   0  0  0  0  0  0  0  0  0  0  0  0
    8.1109  -12.1827   24.2931 C   0  0  0  0  0  0  0  0  0  0  0  0
    6.9406  -11.2820   23.9998 C   0  0  0  0  0  0  0  0  0  0  0  0
    5.8208  -11.7161   24.9049 C   0  0  0  0  0  0  0  0  0  0  0  0
    6.5929  -12.5735   25.9193 C   0  0  1  0  0  0  0  0  0  0  0  0
    5.7130  -13.2523   26.8144 C   0  0  0  0  0  0  0  0  0  0  0  0
    5.1827  -14.4904   26.6896 O   0  0  0  0  0  0  0  0  0  0  0  0
    5.3700  -12.6159   27.8836 O   0  0  0  0  0  0  0  0  0  0  0  0
  2  1  1  6
  3  2  1  0
  4  3  1  0
  5  4  2  0
  6  5  1  0
  7  8  1  0
  7  6  2  0
  8  9  2  0
  9  4  1  0
 10  2  1  0
 10 12  1  0
 11 10  2  0
 12 13  1  0
 13 14  1  0
 15 14  1  0
 16 12  1  0
 16 15  1  0
 16 17  1  1
 18 17  2  0
 19 20  1  0
 19 17  1  0
 21 20  1  0
 22 23  1  0
 22 21  1  0
 23 24  1  6
 23 19  1  0
 24 25  1  0
 26 24  2  0
M  END
$$$$
