FPP.pdb
     RDKit          3D

 26 28  0  0  1  0  0  0  0  0999 V2000
    5.7401  -17.5702   25.4937 N   0  0  0  0  0  0  0  0  0  0  0  0
    6.4329  -16.3107   25.1381 C   0  0  1  0  0  0  0  0  0  0  0  0
    7.1247  -15.9034   26.4320 C   0  0  0  0  0  0  0  0  0  0  0  0
    7.1773  -14.4426   26.5842 C   0  0  0  0  0  0  0  0  0  0  0  0
    5.9980  -13.7338   26.6367 C   0  0  0  0  0  0  0  0  0  0  0  0
    5.9634  -12.3600   26.7783 C   0  0  0  0  0  0  0  0  0  0  0  0
    7.1326  -11.6512   26.8724 C   0  0  0  0  0  0  0  0  0  0  0  0
    8.3221  -12.3444   26.8216 C   0  0  0  0  0  0  0  0  0  0  0  0
    8.3516  -13.7152   26.6802 C   0  0  0  0  0  0  0  0  0  0  0  0
    7.3468  -16.5558   24.0239 C   0  0  0  0  0  0  0  0  0  0  0  0
    8.1114  -17.5816   24.1094 O   0  0  0  0  0  0  0  0  0  0  0  0
    7.4649  -15.7584   22.8452 N   0  0  0  0  0  0  0  0  0  0  0  0
    6.4561  -14.8263   22.4055 C   0  0  0  0  0  0  0  0  0  0  0  0
    7.3144  -13.6722   21.9552 C   0  0  0  0  0  0  0  0  0  0  0  0
    8.5794  -14.3001   21.4243 C   0  0  0  0  0  0  0  0  0  0  0  0
    8.4933  -15.7275   21.8666 C   0  0  1  0  0  0  0  0  0  0  0  0
    9.8027  -16.2801   22.2501 C   0  0  0  0  0  0  0  0  0  0  0  0
   10.3573  -15.7724   23.2658 O   0  0  0  0  0  0  0  0  0  0  0  0
   10.4314  -17.3125   21.5604 N   0  0  0  0  0  0  0  0  0  0  0  0
    9.6905  -18.3759   20.8391 C   0  0  0  0  0  0  0  0  0  0  0  0
   10.4695  -18.4753   19.5546 C   0  0  0  0  0  0  0  0  0  0  0  0
   11.7865  -17.7889   19.7910 C   0  0  0  0  0  0  0  0  0  0  0  0
   11.7933  -17.7104   21.3253 C   0  0  1  0  0  0  0  0  0  0  0  0
   12.8899  -16.9360   21.8092 C   0  0  0  0  0  0  0  0  0  0  0  0
   13.0476  -15.5931   21.7728 O   0  0  0  0  0  0  0  0  0  0  0  0
   13.8632  -17.5863   22.3528 O   0  0  0  0  0  0  0  0  0  0  0  0
  2  1  1  1
  3  2  1  0
  4  3  1  0
  5  4  2  0
  6  5  1  0
  7  8  1  0
  7  6  2  0
  8  9  2  0
  9  4  1  0
 10  2  1  0
 10 12  1  0
 11 10  2  0
 12 13  1  0
 13 14  1  0
 15 14  1  0
 16 12  1  0
 16 15  1  0
 16 17  1  1
 18 17  2  0
 19 20  1  0
 19 17  1  0
 21 20  1  0
 22 23  1  0
 22 21  1  0
 23 24  1  6
 23 19  1  0
 24 25  1  0
 26 24  2  0
M  END
$$$$
