FPP.pdb
     RDKit          3D

 26 28  0  0  1  0  0  0  0  0999 V2000
   10.2937  -17.5908   20.3535 N   0  0  0  0  0  0  0  0  0  0  0  0
    8.9046  -17.2548   20.7412 C   0  0  1  0  0  0  0  0  0  0  0  0
    8.3183  -18.5924   21.1722 C   0  0  0  0  0  0  0  0  0  0  0  0
    6.8819  -18.4877   21.4650 C   0  0  0  0  0  0  0  0  0  0  0  0
    6.4702  -18.4331   22.7778 C   0  0  0  0  0  0  0  0  0  0  0  0
    5.1392  -18.3343   23.1347 C   0  0  0  0  0  0  0  0  0  0  0  0
    4.1715  -18.2871   22.1653 C   0  0  0  0  0  0  0  0  0  0  0  0
    4.5656  -18.3406   20.8463 C   0  0  0  0  0  0  0  0  0  0  0  0
    5.8949  -18.4391   20.4950 C   0  0  0  0  0  0  0  0  0  0  0  0
    8.9249  -16.2438   21.7967 C   0  0  0  0  0  0  0  0  0  0  0  0
    9.6447  -16.4903   22.8289 O   0  0  0  0  0  0  0  0  0  0  0  0
    8.2180  -15.0032   21.7833 N   0  0  0  0  0  0  0  0  0  0  0  0
    7.7896  -14.3396   20.5767 C   0  0  0  0  0  0  0  0  0  0  0  0
    6.4192  -13.8647   20.9865 C   0  0  0  0  0  0  0  0  0  0  0  0
    6.5256  -13.5668   22.4618 C   0  0  0  0  0  0  0  0  0  0  0  0
    7.8412  -14.1588   22.8608 C   0  0  1  0  0  0  0  0  0  0  0  0
    7.8063  -14.7590   24.2046 C   0  0  0  0  0  0  0  0  0  0  0  0
    7.3771  -15.9448   24.2852 O   0  0  0  0  0  0  0  0  0  0  0  0
    8.2204  -14.0919   25.3536 N   0  0  0  0  0  0  0  0  0  0  0  0
    8.9054  -12.7766   25.3262 C   0  0  0  0  0  0  0  0  0  0  0  0
    8.2054  -12.0429   26.4391 C   0  0  0  0  0  0  0  0  0  0  0  0
    7.4903  -13.0799   27.2607 C   0  0  0  0  0  0  0  0  0  0  0  0
    8.1824  -14.3593   26.7663 C   0  0  1  0  0  0  0  0  0  0  0  0
    7.5572  -15.5320   27.2861 C   0  0  0  0  0  0  0  0  0  0  0  0
    6.5333  -16.2400   26.7568 O   0  0  0  0  0  0  0  0  0  0  0  0
    8.0160  -15.9863   28.4036 O   0  0  0  0  0  0  0  0  0  0  0  0
  2  1  1  1
  3  2  1  0
  4  3  1  0
  5  4  2  0
  6  5  1  0
  7  8  1  0
  7  6  2  0
  8  9  2  0
  9  4  1  0
 10  2  1  0
 10 12  1  0
 11 10  2  0
 12 13  1  0
 13 14  1  0
 15 14  1  0
 16 12  1  0
 16 15  1  0
 16 17  1  1
 18 17  2  0
 19 20  1  0
 19 17  1  0
 21 20  1  0
 22 23  1  0
 22 21  1  0
 23 24  1  6
 23 19  1  0
 24 25  1  0
 26 24  2  0
M  END
$$$$
