FPP.pdb
     RDKit          3D

 26 28  0  0  1  0  0  0  0  0999 V2000
    5.5945  -17.6337   25.3862 N   0  0  0  0  0  0  0  0  0  0  0  0
    6.2780  -16.3451   25.1307 C   0  0  1  0  0  0  0  0  0  0  0  0
    6.7999  -15.9370   26.5018 C   0  0  0  0  0  0  0  0  0  0  0  0
    7.1413  -14.5084   26.5507 C   0  0  0  0  0  0  0  0  0  0  0  0
    6.1278  -13.5775   26.5045 C   0  0  0  0  0  0  0  0  0  0  0  0
    6.3667  -12.2175   26.5456 C   0  0  0  0  0  0  0  0  0  0  0  0
    7.6518  -11.7499   26.6357 C   0  0  0  0  0  0  0  0  0  0  0  0
    8.6785  -12.6675   26.6829 C   0  0  0  0  0  0  0  0  0  0  0  0
    8.4352  -14.0236   26.6416 C   0  0  0  0  0  0  0  0  0  0  0  0
    7.3232  -16.5391   24.1274 C   0  0  0  0  0  0  0  0  0  0  0  0
    8.1022  -17.5459   24.2816 O   0  0  0  0  0  0  0  0  0  0  0  0
    7.5556  -15.7110   22.9876 N   0  0  0  0  0  0  0  0  0  0  0  0
    6.5706  -14.8130   22.4370 C   0  0  0  0  0  0  0  0  0  0  0  0
    7.4267  -13.6136   22.1211 C   0  0  0  0  0  0  0  0  0  0  0  0
    8.7765  -14.1750   21.7475 C   0  0  0  0  0  0  0  0  0  0  0  0
    8.6986  -15.6144   22.1507 C   0  0  1  0  0  0  0  0  0  0  0  0
    9.9715  -16.1194   22.6909 C   0  0  0  0  0  0  0  0  0  0  0  0
   10.3658  -15.6143   23.7800 O   0  0  0  0  0  0  0  0  0  0  0  0
   10.7313  -17.1055   22.0688 N   0  0  0  0  0  0  0  0  0  0  0  0
   10.1426  -18.1664   21.2157 C   0  0  0  0  0  0  0  0  0  0  0  0
   11.1017  -18.1948   20.0555 C   0  0  0  0  0  0  0  0  0  0  0  0
   12.3442  -17.4743   20.5014 C   0  0  0  0  0  0  0  0  0  0  0  0
   12.1269  -17.4500   22.0221 C   0  0  1  0  0  0  0  0  0  0  0  0
   13.1125  -16.6577   22.6833 C   0  0  0  0  0  0  0  0  0  0  0  0
   14.0386  -17.0542   23.5859 O   0  0  0  0  0  0  0  0  0  0  0  0
   13.1345  -15.4001   22.3938 O   0  0  0  0  0  0  0  0  0  0  0  0
  2  1  1  1
  3  2  1  0
  4  3  1  0
  5  4  2  0
  6  5  1  0
  7  8  1  0
  7  6  2  0
  8  9  2  0
  9  4  1  0
 10  2  1  0
 10 12  1  0
 11 10  2  0
 12 13  1  0
 13 14  1  0
 15 14  1  0
 16 12  1  0
 16 15  1  0
 16 17  1  1
 18 17  2  0
 19 20  1  0
 19 17  1  0
 21 20  1  0
 22 23  1  0
 22 21  1  0
 23 24  1  1
 23 19  1  0
 24 25  1  0
 26 24  2  0
M  END
$$$$
