TTR.pdb
     RDKit          3D

 26 25  0  0  1  0  0  0  0  0999 V2000
   26.7200  -19.1556  -14.5110 C   0  0  0  0  0  0  0  0  0  0  0  0
   26.2822  -20.4804  -15.1105 C   0  0  1  0  0  0  0  0  0  0  0  0
   27.5206  -21.1498  -15.3760 O   0  0  0  0  0  0  0  0  0  0  0  0
   25.5813  -21.3397  -14.1154 C   0  0  2  0  0  0  0  0  0  0  0  0
   25.5394  -22.7004  -14.6944 N   0  0  0  0  0  0  0  0  0  0  0  0
   24.2083  -20.9263  -13.7587 C   0  0  0  0  0  0  0  0  0  0  0  0
   24.0027  -20.1146  -12.7815 O   0  0  0  0  0  0  0  0  0  0  0  0
   19.7656  -19.4300  -14.8994 C   0  0  0  0  0  0  0  0  0  0  0  0
   21.1421  -19.9363  -15.1766 C   0  0  1  0  0  0  0  0  0  0  0  0
   21.9779  -18.8131  -15.3034 O   0  0  0  0  0  0  0  0  0  0  0  0
   21.7069  -20.8030  -14.0984 C   0  0  2  0  0  0  0  0  0  0  0  0
   23.0160  -21.3318  -14.3950 N   0  0  0  0  0  0  0  0  0  0  0  0
   20.7346  -21.8146  -13.6302 C   0  0  0  0  0  0  0  0  0  0  0  0
   20.7800  -22.9532  -14.1572 O   0  0  0  0  0  0  0  0  0  0  0  0
   18.7851  -24.3953   -6.7421 N   0  0  0  0  0  0  0  0  0  0  0  0
   18.3757  -25.5458   -7.4796 C   0  0  0  0  0  0  0  0  0  0  0  0
   17.5918  -26.4201   -6.9098 N   0  0  0  0  0  0  0  0  0  0  0  0
   18.7844  -25.7847   -8.8118 N   0  0  0  0  0  0  0  0  0  0  0  0
   19.4090  -24.6574   -9.5707 C   0  0  0  0  0  0  0  0  0  0  0  0
   18.3420  -23.7062   -9.9525 C   0  0  0  0  0  0  0  0  0  0  0  0
   18.5402  -22.5470  -10.7916 C   0  0  0  0  0  0  0  0  0  0  0  0
   18.7858  -22.6485  -12.2212 C   0  0  2  0  0  0  0  0  0  0  0  0
   19.7627  -21.5854  -12.6354 N   0  0  0  0  0  0  0  0  0  0  0  0
   17.6441  -22.5006  -13.1015 C   0  0  0  0  0  0  0  0  0  0  0  0
   17.3972  -21.2746  -13.4933 O   0  0  0  0  0  0  0  0  0  0  0  0
   16.7634  -23.4149  -13.6132 O   0  0  0  0  0  0  0  0  0  0  0  0
  2  1  1  1
  2  3  1  0
  4  2  1  0
  4  5  1  6
  6  4  1  0
  6 12  1  0
  7  6  2  0
  9  8  1  1
 10  9  1  0
 11 12  1  6
 11  9  1  0
 13 11  1  0
 14 13  2  0
 16 17  2  0
 16 15  1  0
 18 16  1  0
 19 18  1  0
 20 21  1  0
 20 19  1  0
 22 21  1  1
 22 24  1  0
 22 23  1  0
 23 13  1  0
 24 26  1  0
 25 24  2  0
M  END
$$$$
