TTR.pdb
     RDKit          3D

 26 25  0  0  1  0  0  0  0  0999 V2000
   25.8429  -21.7789   -6.4356 C   0  0  0  0  0  0  0  0  0  0  0  0
   26.2339  -20.3354   -6.1724 C   0  0  1  0  0  0  0  0  0  0  0  0
   26.8314  -20.3855   -4.8714 O   0  0  0  0  0  0  0  0  0  0  0  0
   27.3210  -19.8762   -7.0820 C   0  0  2  0  0  0  0  0  0  0  0  0
   27.7156  -18.5292   -6.6147 N   0  0  0  0  0  0  0  0  0  0  0  0
   26.9755  -19.8055   -8.5169 C   0  0  0  0  0  0  0  0  0  0  0  0
   26.5297  -18.7124   -9.0291 O   0  0  0  0  0  0  0  0  0  0  0  0
   29.2705  -20.7610  -11.4055 C   0  0  0  0  0  0  0  0  0  0  0  0
   27.9027  -21.2512  -11.7471 C   0  0  1  0  0  0  0  0  0  0  0  0
   27.9152  -22.6489  -11.5972 O   0  0  0  0  0  0  0  0  0  0  0  0
   26.8195  -20.7104  -10.8716 C   0  0  2  0  0  0  0  0  0  0  0  0
   27.0808  -20.8501   -9.4595 N   0  0  0  0  0  0  0  0  0  0  0  0
   25.4797  -21.1764  -11.2906 C   0  0  0  0  0  0  0  0  0  0  0  0
   24.9092  -22.0319  -10.5704 O   0  0  0  0  0  0  0  0  0  0  0  0
   17.4183  -21.3004  -13.2763 N   0  0  0  0  0  0  0  0  0  0  0  0
   18.0337  -21.9481  -12.1641 C   0  0  0  0  0  0  0  0  0  0  0  0
   17.3164  -22.7373  -11.4116 N   0  0  0  0  0  0  0  0  0  0  0  0
   19.3977  -21.7723  -11.8363 N   0  0  0  0  0  0  0  0  0  0  0  0
   19.9652  -20.3899  -11.8981 C   0  0  0  0  0  0  0  0  0  0  0  0
   21.0538  -20.3784  -12.9000 C   0  0  0  0  0  0  0  0  0  0  0  0
   22.4530  -20.2021  -12.5870 C   0  0  0  0  0  0  0  0  0  0  0  0
   23.4433  -21.2420  -12.8163 C   0  0  2  0  0  0  0  0  0  0  0  0
   24.8034  -20.7257  -12.4423 N   0  0  0  0  0  0  0  0  0  0  0  0
   23.5709  -21.7485  -14.1681 C   0  0  0  0  0  0  0  0  0  0  0  0
   22.5161  -22.3733  -14.6312 O   0  0  0  0  0  0  0  0  0  0  0  0
   24.5997  -21.6925  -15.0690 O   0  0  0  0  0  0  0  0  0  0  0  0
  2  1  1  6
  2  3  1  0
  4  2  1  0
  4  5  1  1
  6  4  1  0
  6 12  1  0
  7  6  2  0
  9  8  1  1
 10  9  1  0
 11 12  1  1
 11  9  1  0
 13 11  1  0
 14 13  2  0
 16 17  2  0
 16 15  1  0
 18 16  1  0
 19 18  1  0
 20 21  1  0
 20 19  1  0
 22 21  1  6
 22 24  1  0
 22 23  1  0
 23 13  1  0
 24 26  1  0
 25 24  2  0
M  END
$$$$
