TTR.pdb
     RDKit          3D

 26 25  0  0  1  0  0  0  0  0999 V2000
   14.1027   -9.5013  -12.2042 C   0  0  0  0  0  0  0  0  0  0  0  0
   14.2736   -9.0233  -10.7731 C   0  0  1  0  0  0  0  0  0  0  0  0
   13.5230   -9.9777  -10.0128 O   0  0  0  0  0  0  0  0  0  0  0  0
   15.6789   -9.1678  -10.2997 C   0  0  2  0  0  0  0  0  0  0  0  0
   15.6999   -8.6874   -8.9006 N   0  0  0  0  0  0  0  0  0  0  0  0
   16.7002   -8.4342  -11.0755 C   0  0  0  0  0  0  0  0  0  0  0  0
   16.8533   -7.1659  -10.9202 O   0  0  0  0  0  0  0  0  0  0  0  0
   20.3762   -8.2316  -14.4961 C   0  0  0  0  0  0  0  0  0  0  0  0
   19.4674   -9.0261  -13.6181 C   0  0  1  0  0  0  0  0  0  0  0  0
   20.2752   -9.6824  -12.6731 O   0  0  0  0  0  0  0  0  0  0  0  0
   18.4662   -8.2080  -12.8694 C   0  0  2  0  0  0  0  0  0  0  0  0
   17.5888   -8.9818  -12.0249 N   0  0  0  0  0  0  0  0  0  0  0  0
   17.7695   -7.2411  -13.7456 C   0  0  0  0  0  0  0  0  0  0  0  0
   16.8468   -7.6777  -14.4765 O   0  0  0  0  0  0  0  0  0  0  0  0
   12.5525   -2.0816  -11.4382 N   0  0  0  0  0  0  0  0  0  0  0  0
   13.8194   -1.5119  -11.7631 C   0  0  0  0  0  0  0  0  0  0  0  0
   14.1423   -0.3516  -11.2602 N   0  0  0  0  0  0  0  0  0  0  0  0
   14.7499   -2.1525  -12.6133 N   0  0  0  0  0  0  0  0  0  0  0  0
   14.2724   -2.6322  -13.9470 C   0  0  0  0  0  0  0  0  0  0  0  0
   15.4005   -3.3012  -14.6318 C   0  0  0  0  0  0  0  0  0  0  0  0
   16.2533   -4.2962  -14.0240 C   0  0  0  0  0  0  0  0  0  0  0  0
   17.3417   -4.9388  -14.7430 C   0  0  2  0  0  0  0  0  0  0  0  0
   18.0727   -5.8663  -13.8149 N   0  0  0  0  0  0  0  0  0  0  0  0
   18.3545   -4.0772  -15.3192 C   0  0  0  0  0  0  0  0  0  0  0  0
   19.4898   -4.0369  -14.6657 O   0  0  0  0  0  0  0  0  0  0  0  0
   18.3512   -3.2885  -16.4379 O   0  0  0  0  0  0  0  0  0  0  0  0
  2  1  1  6
  2  3  1  0
  4  2  1  0
  4  5  1  1
  6  4  1  0
  6 12  1  0
  7  6  2  0
  9  8  1  6
 10  9  1  0
 11 12  1  6
 11  9  1  0
 13 11  1  0
 14 13  2  0
 16 17  2  0
 16 15  1  0
 18 16  1  0
 19 18  1  0
 20 21  1  0
 20 19  1  0
 22 21  1  1
 22 24  1  0
 22 23  1  0
 23 13  1  0
 24 26  1  0
 25 24  2  0
M  END
$$$$
