TTR.pdb
     RDKit          3D

 26 25  0  0  1  0  0  0  0  0999 V2000
   20.6180   -2.1492  -14.1141 C   0  0  0  0  0  0  0  0  0  0  0  0
   20.3086   -2.3127  -15.5917 C   0  0  1  0  0  0  0  0  0  0  0  0
   21.2150   -1.4009  -16.2234 O   0  0  0  0  0  0  0  0  0  0  0  0
   20.6960   -3.6594  -16.0981 C   0  0  2  0  0  0  0  0  0  0  0  0
   20.2932   -3.7024  -17.5210 N   0  0  0  0  0  0  0  0  0  0  0  0
   20.0961   -4.8113  -15.3935 C   0  0  0  0  0  0  0  0  0  0  0  0
   18.8410   -5.0693  -15.5123 O   0  0  0  0  0  0  0  0  0  0  0  0
   20.3548   -8.9659  -12.6130 C   0  0  0  0  0  0  0  0  0  0  0  0
   21.0035   -7.9179  -13.4548 C   0  0  1  0  0  0  0  0  0  0  0  0
   21.3719   -8.5299  -14.6656 O   0  0  0  0  0  0  0  0  0  0  0  0
   20.1195   -6.7588  -13.7827 C   0  0  2  0  0  0  0  0  0  0  0  0
   20.7670   -5.7258  -14.5542 N   0  0  0  0  0  0  0  0  0  0  0  0
   19.3879   -6.2630  -12.5965 C   0  0  0  0  0  0  0  0  0  0  0  0
   20.0149   -5.5358  -11.7878 O   0  0  0  0  0  0  0  0  0  0  0  0
   12.7710   -8.3573   -7.2436 N   0  0  0  0  0  0  0  0  0  0  0  0
   12.5017   -7.0097   -7.6266 C   0  0  0  0  0  0  0  0  0  0  0  0
   11.3591   -6.4716   -7.2973 N   0  0  0  0  0  0  0  0  0  0  0  0
   13.4244   -6.2231   -8.3540 N   0  0  0  0  0  0  0  0  0  0  0  0
   14.1669   -6.8685   -9.4805 C   0  0  0  0  0  0  0  0  0  0  0  0
   15.0328   -5.8482  -10.1117 C   0  0  0  0  0  0  0  0  0  0  0  0
   15.9436   -6.1085  -11.2025 C   0  0  0  0  0  0  0  0  0  0  0  0
   17.3872   -6.1282  -11.0288 C   0  0  2  0  0  0  0  0  0  0  0  0
   18.0376   -6.5531  -12.3143 N   0  0  0  0  0  0  0  0  0  0  0  0
   17.9194   -7.0075  -10.0072 C   0  0  0  0  0  0  0  0  0  0  0  0
   18.0103   -6.4809   -8.8105 O   0  0  0  0  0  0  0  0  0  0  0  0
   18.3474   -8.3066  -10.0555 O   0  0  0  0  0  0  0  0  0  0  0  0
  2  1  1  1
  2  3  1  0
  4  2  1  0
  4  5  1  6
  6  4  1  0
  6 12  1  0
  7  6  2  0
  9  8  1  1
 10  9  1  0
 11 12  1  1
 11  9  1  0
 13 11  1  0
 14 13  2  0
 16 17  2  0
 16 15  1  0
 18 16  1  0
 19 18  1  0
 20 21  1  0
 20 19  1  0
 22 21  1  6
 22 24  1  0
 22 23  1  0
 23 13  1  0
 24 26  1  0
 25 24  2  0
M  END
$$$$
