TTR.pdb
     RDKit          3D

 26 25  0  0  1  0  0  0  0  0999 V2000
   17.8348  -23.5348  -12.4964 C   0  0  0  0  0  0  0  0  0  0  0  0
   17.1234  -22.6729  -13.5244 C   0  0  1  0  0  0  0  0  0  0  0  0
   15.9581  -22.2177  -12.8264 O   0  0  0  0  0  0  0  0  0  0  0  0
   17.8916  -21.4373  -13.8456 C   0  0  2  0  0  0  0  0  0  0  0  0
   17.0293  -20.6285  -14.7349 N   0  0  0  0  0  0  0  0  0  0  0  0
   19.1999  -21.6425  -14.5008 C   0  0  0  0  0  0  0  0  0  0  0  0
   19.2645  -21.9819  -15.7405 O   0  0  0  0  0  0  0  0  0  0  0  0
   22.2088  -19.2684  -14.7355 C   0  0  0  0  0  0  0  0  0  0  0  0
   22.7211  -20.6280  -14.3933 C   0  0  1  0  0  0  0  0  0  0  0  0
   23.0796  -20.6046  -13.0342 O   0  0  0  0  0  0  0  0  0  0  0  0
   21.7247  -21.7254  -14.5811 C   0  0  2  0  0  0  0  0  0  0  0  0
   20.4706  -21.5027  -13.9036 N   0  0  0  0  0  0  0  0  0  0  0  0
   22.3151  -23.0607  -14.3433 C   0  0  0  0  0  0  0  0  0  0  0  0
   21.6863  -23.8507  -13.5972 O   0  0  0  0  0  0  0  0  0  0  0  0
   22.8991  -30.9695  -16.8113 N   0  0  0  0  0  0  0  0  0  0  0  0
   22.4783  -30.7758  -15.4620 C   0  0  0  0  0  0  0  0  0  0  0  0
   22.2004  -31.8180  -14.7271 N   0  0  0  0  0  0  0  0  0  0  0  0
   22.3470  -29.4945  -14.8789 N   0  0  0  0  0  0  0  0  0  0  0  0
   22.8341  -28.3130  -15.6560 C   0  0  0  0  0  0  0  0  0  0  0  0
   22.5272  -27.0893  -14.8830 C   0  0  0  0  0  0  0  0  0  0  0  0
   22.7647  -25.7436  -15.3517 C   0  0  0  0  0  0  0  0  0  0  0  0
   23.9105  -24.9569  -14.9244 C   0  0  2  0  0  0  0  0  0  0  0  0
   23.5339  -23.5031  -14.8963 N   0  0  0  0  0  0  0  0  0  0  0  0
   25.1094  -25.0389  -15.7344 C   0  0  0  0  0  0  0  0  0  0  0  0
   25.2009  -24.1436  -16.6872 O   0  0  0  0  0  0  0  0  0  0  0  0
   26.1840  -25.8853  -15.6887 O   0  0  0  0  0  0  0  0  0  0  0  0
  2  1  1  1
  2  3  1  0
  4  2  1  0
  4  5  1  6
  6  4  1  0
  6 12  1  0
  7  6  2  0
  9  8  1  1
 10  9  1  0
 11 12  1  1
 11  9  1  0
 13 11  1  0
 14 13  2  0
 16 17  2  0
 16 15  1  0
 18 16  1  0
 19 18  1  0
 20 21  1  0
 20 19  1  0
 22 21  1  6
 22 24  1  0
 22 23  1  0
 23 13  1  0
 24 26  1  0
 25 24  2  0
M  END
$$$$
