TTR.pdb
     RDKit          3D

 26 25  0  0  1  0  0  0  0  0999 V2000
   29.0440  -20.3293   -8.3695 C   0  0  0  0  0  0  0  0  0  0  0  0
   29.6546  -20.7641   -9.6901 C   0  0  1  0  0  0  0  0  0  0  0  0
   30.7297  -21.6229   -9.2917 O   0  0  0  0  0  0  0  0  0  0  0  0
   28.7321  -21.6335  -10.4730 C   0  0  2  0  0  0  0  0  0  0  0  0
   29.5758  -22.3845  -11.4284 N   0  0  0  0  0  0  0  0  0  0  0  0
   27.6648  -20.9356  -11.2193 C   0  0  0  0  0  0  0  0  0  0  0  0
   26.8849  -20.1045  -10.6217 O   0  0  0  0  0  0  0  0  0  0  0  0
   28.2000  -18.8571  -14.4335 C   0  0  0  0  0  0  0  0  0  0  0  0
   26.9733  -19.6917  -14.5956 C   0  0  1  0  0  0  0  0  0  0  0  0
   27.3172  -20.7759  -15.4218 O   0  0  0  0  0  0  0  0  0  0  0  0
   26.4350  -20.2479  -13.3175 C   0  0  2  0  0  0  0  0  0  0  0  0
   27.3735  -21.0703  -12.5933 N   0  0  0  0  0  0  0  0  0  0  0  0
   25.1006  -20.8608  -13.4949 C   0  0  0  0  0  0  0  0  0  0  0  0
   25.0149  -22.1091  -13.3914 O   0  0  0  0  0  0  0  0  0  0  0  0
   16.7793  -22.1583  -12.6912 N   0  0  0  0  0  0  0  0  0  0  0  0
   17.5438  -22.6767  -11.6040 C   0  0  0  0  0  0  0  0  0  0  0  0
   16.9228  -23.2146  -10.5898 N   0  0  0  0  0  0  0  0  0  0  0  0
   18.9567  -22.6336  -11.5742 N   0  0  0  0  0  0  0  0  0  0  0  0
   19.6638  -21.9215  -12.6833 C   0  0  0  0  0  0  0  0  0  0  0  0
   20.8263  -21.2075  -12.1108 C   0  0  0  0  0  0  0  0  0  0  0  0
   21.6985  -20.3314  -12.8583 C   0  0  0  0  0  0  0  0  0  0  0  0
   22.5883  -20.8166  -13.9012 C   0  0  2  0  0  0  0  0  0  0  0  0
   23.9224  -20.1386  -13.7728 N   0  0  0  0  0  0  0  0  0  0  0  0
   22.1721  -20.6131  -15.2743 C   0  0  0  0  0  0  0  0  0  0  0  0
   22.6910  -19.5644  -15.8646 O   0  0  0  0  0  0  0  0  0  0  0  0
   21.3296  -21.3236  -16.0860 O   0  0  0  0  0  0  0  0  0  0  0  0
  2  1  1  1
  2  3  1  0
  4  2  1  0
  4  5  1  6
  6  4  1  0
  6 12  1  0
  7  6  2  0
  9  8  1  1
 10  9  1  0
 11 12  1  6
 11  9  1  0
 13 11  1  0
 14 13  2  0
 16 17  2  0
 16 15  1  0
 18 16  1  0
 19 18  1  0
 20 21  1  0
 20 19  1  0
 22 21  1  1
 22 24  1  0
 22 23  1  0
 23 13  1  0
 24 26  1  0
 25 24  2  0
M  END
$$$$
