NIH.pdb
     RDKit          3D

 27 27  0  0  1  0  0  0  0  0999 V2000
    9.9525  -16.3665   13.3239 N   0  0  0  0  0  0  0  0  0  0  0  0
   10.8877  -16.7447   14.3328 C   0  0  0  0  0  0  0  0  0  0  0  0
   11.6445  -17.7132   14.1513 O   0  0  0  0  0  0  0  0  0  0  0  0
   10.9326  -15.9743   15.5696 C   0  0  0  0  0  0  0  0  0  0  0  0
   10.2650  -16.7351   16.6887 C   0  0  2  0  0  0  0  0  0  0  0  0
    8.8494  -16.9000   16.3615 N   0  0  0  0  0  0  0  0  0  0  0  0
   10.4184  -15.9783   17.9418 C   0  0  0  0  0  0  0  0  0  0  0  0
   11.5904  -15.6913   18.3585 O   0  0  0  0  0  0  0  0  0  0  0  0
    6.9703  -12.1752   19.3972 C   0  0  0  0  0  0  0  0  0  0  0  0
    8.2622  -12.9370   19.2756 C   0  0  0  0  0  0  0  0  0  0  0  0
    8.2013  -14.1227   20.2290 C   0  0  2  0  0  0  0  0  0  0  0  0
    8.1616  -13.5647   21.6157 C   0  0  0  0  0  0  0  0  0  0  0  0
    9.4076  -15.0372   19.9755 C   0  0  2  0  0  0  0  0  0  0  0  0
    9.2630  -15.5920   18.6469 N   0  0  0  0  0  0  0  0  0  0  0  0
    9.3624  -16.2388   20.8876 C   0  0  0  0  0  0  0  0  0  0  0  0
    8.9476  -17.3718   20.4618 O   0  0  0  0  0  0  0  0  0  0  0  0
    9.7671  -16.1946   22.2365 N   0  0  0  0  0  0  0  0  0  0  0  0
   10.6378  -17.2641   22.7322 C   0  0  1  0  0  0  0  0  0  0  0  0
   11.7934  -17.4886   21.8003 C   0  0  0  0  0  0  0  0  0  0  0  0
   12.6504  -18.5582   22.3508 C   0  0  0  0  0  0  0  0  0  0  0  0
   12.1783  -19.7743   22.8452 C   0  0  0  0  0  0  0  0  0  0  0  0
   13.2117  -20.5173   23.2668 N   0  0  0  0  0  0  0  0  0  0  0  0
   14.3306  -19.8136   23.0573 C   0  0  0  0  0  0  0  0  0  0  0  0
   13.9915  -18.6262   22.5023 N   0  0  0  0  0  0  0  0  0  0  0  0
   11.0345  -16.8538   24.1006 C   0  0  0  0  0  0  0  0  0  0  0  0
   11.3438  -15.6791   24.4266 O   0  0  0  0  0  0  0  0  0  0  0  0
   11.0698  -17.8158   25.0927 O   0  0  0  0  0  0  0  0  0  0  0  0
  2  1  1  0
  2  3  2  0
  4  5  1  0
  4  2  1  0
  5  7  1  0
  5  6  1  6
  7  8  2  0
  9 10  1  0
 10 11  1  0
 11 13  1  0
 11 12  1  1
 13 14  1  6
 14  7  1  0
 15 16  2  0
 15 13  1  0
 17 15  1  0
 18 25  1  0
 18 17  1  0
 18 19  1  6
 20 19  1  0
 21 20  2  0
 22 21  1  0
 23 22  1  0
 23 24  2  0
 24 20  1  0
 25 27  1  0
 26 25  2  0
M  END
$$$$
