NIH.pdb
     RDKit          3D

 27 27  0  0  1  0  0  0  0  0999 V2000
    7.7566  -19.6608   15.9685 N   0  0  0  0  0  0  0  0  0  0  0  0
    8.5855  -20.2251   16.9833 C   0  0  0  0  0  0  0  0  0  0  0  0
    8.5660  -21.4490   17.1966 O   0  0  0  0  0  0  0  0  0  0  0  0
    9.4471  -19.3389   17.7561 C   0  0  0  0  0  0  0  0  0  0  0  0
    9.2199  -17.9020   17.3554 C   0  0  2  0  0  0  0  0  0  0  0  0
    9.8900  -17.6622   16.0779 N   0  0  0  0  0  0  0  0  0  0  0  0
    9.7697  -17.0202   18.3978 C   0  0  0  0  0  0  0  0  0  0  0  0
   11.0154  -16.7416   18.3867 O   0  0  0  0  0  0  0  0  0  0  0  0
    6.5178  -13.1189   20.1930 C   0  0  0  0  0  0  0  0  0  0  0  0
    7.7625  -13.8237   19.7256 C   0  0  0  0  0  0  0  0  0  0  0  0
    8.2465  -14.7232   20.8548 C   0  0  2  0  0  0  0  0  0  0  0  0
    8.6050  -13.8304   21.9994 C   0  0  0  0  0  0  0  0  0  0  0  0
    9.4225  -15.5734   20.3546 C   0  0  2  0  0  0  0  0  0  0  0  0
    8.9019  -16.5084   19.3807 N   0  0  0  0  0  0  0  0  0  0  0  0
    9.9532  -16.4483   21.4640 C   0  0  0  0  0  0  0  0  0  0  0  0
    9.2603  -17.4214   21.9220 O   0  0  0  0  0  0  0  0  0  0  0  0
   11.2188  -16.2578   22.0534 N   0  0  0  0  0  0  0  0  0  0  0  0
   11.6910  -17.2581   23.0149 C   0  0  1  0  0  0  0  0  0  0  0  0
   13.1866  -17.3809   22.9682 C   0  0  0  0  0  0  0  0  0  0  0  0
   13.6130  -18.4013   23.9475 C   0  0  0  0  0  0  0  0  0  0  0  0
   12.7707  -19.3640   24.5042 C   0  0  0  0  0  0  0  0  0  0  0  0
   13.4689  -20.1327   25.3524 N   0  0  0  0  0  0  0  0  0  0  0  0
   14.7322  -19.6911   25.3553 C   0  0  0  0  0  0  0  0  0  0  0  0
   14.8206  -18.6418   24.5042 N   0  0  0  0  0  0  0  0  0  0  0  0
   11.1595  -16.8289   24.3307 C   0  0  0  0  0  0  0  0  0  0  0  0
   10.9954  -17.5964   25.3134 O   0  0  0  0  0  0  0  0  0  0  0  0
   10.8192  -15.5001   24.5021 O   0  0  0  0  0  0  0  0  0  0  0  0
  2  1  1  0
  2  3  2  0
  4  5  1  0
  4  2  1  0
  5  7  1  0
  5  6  1  6
  7  8  2  0
  9 10  1  0
 10 11  1  0
 11 13  1  0
 11 12  1  1
 13 14  1  6
 14  7  1  0
 15 16  2  0
 15 13  1  0
 17 15  1  0
 18 25  1  0
 18 17  1  0
 18 19  1  1
 20 19  1  0
 21 20  2  0
 22 21  1  0
 23 22  1  0
 23 24  2  0
 24 20  1  0
 25 27  1  0
 26 25  2  0
M  END
$$$$
