NIH.pdb
     RDKit          3D

 27 27  0  0  1  0  0  0  0  0999 V2000
    7.5803  -19.2446   15.5060 N   0  0  0  0  0  0  0  0  0  0  0  0
    7.7035  -19.7656   16.8284 C   0  0  0  0  0  0  0  0  0  0  0  0
    7.2098  -20.8697   17.1131 O   0  0  0  0  0  0  0  0  0  0  0  0
    8.4158  -18.9782   17.8273 C   0  0  0  0  0  0  0  0  0  0  0  0
    8.7517  -17.6127   17.2801 C   0  0  2  0  0  0  0  0  0  0  0  0
    9.6929  -17.7723   16.1724 N   0  0  0  0  0  0  0  0  0  0  0  0
    9.3514  -16.8006   18.3513 C   0  0  0  0  0  0  0  0  0  0  0  0
   10.6205  -16.7866   18.4881 O   0  0  0  0  0  0  0  0  0  0  0  0
    6.5425  -12.4200   19.8985 C   0  0  0  0  0  0  0  0  0  0  0  0
    7.7156  -13.2752   19.5025 C   0  0  0  0  0  0  0  0  0  0  0  0
    8.0282  -14.2118   20.6616 C   0  0  2  0  0  0  0  0  0  0  0  0
    8.4628  -13.3558   21.8080 C   0  0  0  0  0  0  0  0  0  0  0  0
    9.0940  -15.2241   20.2197 C   0  0  2  0  0  0  0  0  0  0  0  0
    8.5040  -16.0606   19.1971 N   0  0  0  0  0  0  0  0  0  0  0  0
    9.4150  -16.1796   21.3430 C   0  0  0  0  0  0  0  0  0  0  0  0
    8.5615  -17.0516   21.7280 O   0  0  0  0  0  0  0  0  0  0  0  0
   10.6482  -16.1769   22.0247 N   0  0  0  0  0  0  0  0  0  0  0  0
   10.9648  -17.3206   22.8847 C   0  0  1  0  0  0  0  0  0  0  0  0
   11.7823  -18.3381   22.1426 C   0  0  0  0  0  0  0  0  0  0  0  0
   12.1038  -19.4521   23.0576 C   0  0  0  0  0  0  0  0  0  0  0  0
   11.3614  -19.7843   24.1910 C   0  0  0  0  0  0  0  0  0  0  0  0
   11.9199  -20.8413   24.7979 N   0  0  0  0  0  0  0  0  0  0  0  0
   12.9973  -21.1956   24.0873 C   0  0  0  0  0  0  0  0  0  0  0  0
   13.1096  -20.3543   23.0325 N   0  0  0  0  0  0  0  0  0  0  0  0
   11.6424  -16.7502   24.0737 C   0  0  0  0  0  0  0  0  0  0  0  0
   12.2737  -15.6624   24.0759 O   0  0  0  0  0  0  0  0  0  0  0  0
   11.5831  -17.4496   25.2646 O   0  0  0  0  0  0  0  0  0  0  0  0
  2  1  1  0
  2  3  2  0
  4  5  1  0
  4  2  1  0
  5  7  1  0
  5  6  1  6
  7  8  2  0
  9 10  1  0
 10 11  1  0
 11 13  1  0
 11 12  1  1
 13 14  1  6
 14  7  1  0
 15 16  2  0
 15 13  1  0
 17 15  1  0
 18 25  1  0
 18 17  1  0
 18 19  1  6
 20 19  1  0
 21 20  2  0
 22 21  1  0
 23 22  1  0
 23 24  2  0
 24 20  1  0
 25 27  1  0
 26 25  2  0
M  END
$$$$
