NIH.pdb
     RDKit          3D

 27 27  0  0  1  0  0  0  0  0999 V2000
    8.3409  -21.2689   16.2947 N   0  0  0  0  0  0  0  0  0  0  0  0
    7.9807  -20.0356   16.9149 C   0  0  0  0  0  0  0  0  0  0  0  0
    6.7899  -19.6839   16.9602 O   0  0  0  0  0  0  0  0  0  0  0  0
    9.0339  -19.2068   17.4883 C   0  0  0  0  0  0  0  0  0  0  0  0
    8.8541  -17.7665   17.0761 C   0  0  2  0  0  0  0  0  0  0  0  0
    9.4956  -17.5692   15.7769 N   0  0  0  0  0  0  0  0  0  0  0  0
    9.4699  -16.8963   18.0910 C   0  0  0  0  0  0  0  0  0  0  0  0
   10.7381  -16.7515   18.1028 O   0  0  0  0  0  0  0  0  0  0  0  0
    6.6167  -12.5989   19.8829 C   0  0  0  0  0  0  0  0  0  0  0  0
    7.7821  -13.4224   19.4054 C   0  0  0  0  0  0  0  0  0  0  0  0
    8.1369  -14.4170   20.5023 C   0  0  2  0  0  0  0  0  0  0  0  0
    8.5449  -13.6184   21.6988 C   0  0  0  0  0  0  0  0  0  0  0  0
    9.2381  -15.3579   19.9943 C   0  0  2  0  0  0  0  0  0  0  0  0
    8.6384  -16.2470   19.0229 N   0  0  0  0  0  0  0  0  0  0  0  0
    9.7038  -16.2738   21.0998 C   0  0  0  0  0  0  0  0  0  0  0  0
    8.9115  -17.1347   21.6174 O   0  0  0  0  0  0  0  0  0  0  0  0
   11.0125  -16.2443   21.6212 N   0  0  0  0  0  0  0  0  0  0  0  0
   11.3606  -17.2076   22.6694 C   0  0  1  0  0  0  0  0  0  0  0  0
   12.8111  -17.5868   22.5874 C   0  0  0  0  0  0  0  0  0  0  0  0
   13.1409  -18.4636   23.7295 C   0  0  0  0  0  0  0  0  0  0  0  0
   13.3998  -18.0126   25.0240 C   0  0  0  0  0  0  0  0  0  0  0  0
   13.6634  -19.0600   25.8184 N   0  0  0  0  0  0  0  0  0  0  0  0
   13.5811  -20.1675   25.0715 C   0  0  0  0  0  0  0  0  0  0  0  0
   13.2645  -19.8071   23.8054 N   0  0  0  0  0  0  0  0  0  0  0  0
   10.9746  -16.5632   23.9477 C   0  0  0  0  0  0  0  0  0  0  0  0
   11.0200  -15.3242   24.1588 O   0  0  0  0  0  0  0  0  0  0  0  0
   10.5333  -17.3657   24.9831 O   0  0  0  0  0  0  0  0  0  0  0  0
  2  1  1  0
  2  3  2  0
  4  5  1  0
  4  2  1  0
  5  7  1  0
  5  6  1  6
  7  8  2  0
  9 10  1  0
 10 11  1  0
 11 13  1  0
 11 12  1  1
 13 14  1  6
 14  7  1  0
 15 16  2  0
 15 13  1  0
 17 15  1  0
 18 25  1  0
 18 17  1  0
 18 19  1  1
 20 19  1  0
 21 20  2  0
 22 21  1  0
 23 22  1  0
 23 24  2  0
 24 20  1  0
 25 27  1  0
 26 25  2  0
M  END
$$$$
