NIH.pdb
     RDKit          3D

 27 27  0  0  1  0  0  0  0  0999 V2000
    7.0878  -19.6194   16.6638 N   0  0  0  0  0  0  0  0  0  0  0  0
    8.4523  -19.8101   17.0342 C   0  0  0  0  0  0  0  0  0  0  0  0
    9.1432  -20.6645   16.4543 O   0  0  0  0  0  0  0  0  0  0  0  0
    9.0100  -18.9857   18.0993 C   0  0  0  0  0  0  0  0  0  0  0  0
    9.3214  -17.6014   17.5859 C   0  0  2  0  0  0  0  0  0  0  0  0
   10.4414  -17.6917   16.6500 N   0  0  0  0  0  0  0  0  0  0  0  0
    9.6704  -16.7348   18.7233 C   0  0  0  0  0  0  0  0  0  0  0  0
   10.9000  -16.5358   19.0023 O   0  0  0  0  0  0  0  0  0  0  0  0
    6.7955  -12.3202   19.5550 C   0  0  0  0  0  0  0  0  0  0  0  0
    7.9721  -13.2566   19.5002 C   0  0  0  0  0  0  0  0  0  0  0  0
    7.8680  -14.2133   20.6801 C   0  0  2  0  0  0  0  0  0  0  0  0
    7.9593  -13.3849   21.9216 C   0  0  0  0  0  0  0  0  0  0  0  0
    8.9746  -15.2713   20.5718 C   0  0  2  0  0  0  0  0  0  0  0  0
    8.6332  -16.1489   19.4732 N   0  0  0  0  0  0  0  0  0  0  0  0
    8.9675  -16.1713   21.7833 C   0  0  0  0  0  0  0  0  0  0  0  0
    8.0749  -17.0771   21.9238 O   0  0  0  0  0  0  0  0  0  0  0  0
    9.9227  -16.0779   22.8149 N   0  0  0  0  0  0  0  0  0  0  0  0
   10.5862  -17.3081   23.2558 C   0  0  1  0  0  0  0  0  0  0  0  0
   11.3039  -17.9678   22.1139 C   0  0  0  0  0  0  0  0  0  0  0  0
   12.0557  -19.1299   22.6297 C   0  0  0  0  0  0  0  0  0  0  0  0
   12.0372  -19.5581   23.9573 C   0  0  0  0  0  0  0  0  0  0  0  0
   12.8234  -20.6359   24.0908 N   0  0  0  0  0  0  0  0  0  0  0  0
   13.3444  -20.9104   22.8890 C   0  0  0  0  0  0  0  0  0  0  0  0
   12.8798  -19.9983   22.0029 N   0  0  0  0  0  0  0  0  0  0  0  0
   11.4711  -16.9050   24.3751 C   0  0  0  0  0  0  0  0  0  0  0  0
   12.0241  -17.7107   25.1669 O   0  0  0  0  0  0  0  0  0  0  0  0
   11.7130  -15.5583   24.5715 O   0  0  0  0  0  0  0  0  0  0  0  0
  2  1  1  0
  2  3  2  0
  4  5  1  0
  4  2  1  0
  5  7  1  0
  5  6  1  6
  7  8  2  0
  9 10  1  0
 10 11  1  0
 11 13  1  0
 11 12  1  1
 13 14  1  6
 14  7  1  0
 15 16  2  0
 15 13  1  0
 17 15  1  0
 18 25  1  0
 18 17  1  0
 18 19  1  6
 20 19  1  0
 21 20  2  0
 22 21  1  0
 23 22  1  0
 23 24  2  0
 24 20  1  0
 25 27  1  0
 26 25  2  0
M  END
$$$$
