PED.pdb
     RDKit          3D

 25 25  0  0  1  0  0  0  0  0999 V2000
    7.7839  -14.5921   18.4377 N   0  0  0  0  0  0  0  0  0  0  0  0
    6.6096  -13.8165   18.7883 C   0  0  0  0  0  0  0  0  0  0  0  0
    7.1572  -12.5353   19.4269 C   0  0  0  0  0  0  0  0  0  0  0  0
    8.3083  -13.1415   20.2414 C   0  0  0  0  0  0  0  0  0  0  0  0
    8.8617  -14.1388   19.2660 C   0  0  1  0  0  0  0  0  0  0  0  0
    9.4831  -15.3049   19.9236 C   0  0  0  0  0  0  0  0  0  0  0  0
    8.8577  -15.9678   20.8186 O   0  0  0  0  0  0  0  0  0  0  0  0
   10.7925  -15.7765   19.6261 N   0  0  0  0  0  0  0  0  0  0  0  0
   11.3709  -16.9314   20.3282 C   0  0  1  0  0  0  0  0  0  0  0  0
   12.3349  -17.6040   19.3801 C   0  0  0  0  0  0  0  0  0  0  0  0
   12.8890  -18.8268   20.0728 C   0  0  0  0  0  0  0  0  0  0  0  0
   13.8629  -19.4711   19.1672 C   0  0  0  0  0  0  0  0  0  0  0  0
   15.0599  -19.1046   19.1903 O   0  0  0  0  0  0  0  0  0  0  0  0
   12.0062  -16.5107   21.5957 C   0  0  0  0  0  0  0  0  0  0  0  0
   12.5735  -15.3782   21.6361 O   0  0  0  0  0  0  0  0  0  0  0  0
   13.4835  -20.4674   18.2964 O   0  0  0  0  0  0  0  0  0  0  0  0
   12.0052  -17.3071   22.7422 N   0  0  0  0  0  0  0  0  0  0  0  0
   12.5496  -16.8530   24.0422 C   0  0  1  0  0  0  0  0  0  0  0  0
   11.8702  -17.7462   25.0520 C   0  0  0  0  0  0  0  0  0  0  0  0
   12.3303  -17.5903   26.4371 C   0  0  0  0  0  0  0  0  0  0  0  0
   13.2474  -16.8125   26.7590 O   0  0  0  0  0  0  0  0  0  0  0  0
   14.0220  -17.0251   24.0241 C   0  0  0  0  0  0  0  0  0  0  0  0
   14.7682  -16.1772   24.5774 O   0  0  0  0  0  0  0  0  0  0  0  0
   11.7524  -18.3189   27.4802 O   0  0  0  0  0  0  0  0  0  0  0  0
   14.6147  -18.0990   23.4138 O   0  0  0  0  0  0  0  0  0  0  0  0
  1  2  1  0
  3  2  1  0
  4  3  1  0
  4  5  1  0
  5  1  1  0
  6  8  1  0
  5  6  1  1
  7  6  2  0
  9  8  1  0
  9 14  1  0
  9 10  1  6
 11 10  1  0
 12 11  1  0
 13 12  2  0
 14 17  1  0
 15 14  2  0
 16 12  1  0
 17 18  1  0
 18 19  1  1
 18 22  1  0
 20 19  1  0
 21 20  2  0
 22 25  1  0
 23 22  2  0
 24 20  1  0
M  END
$$$$
