PED.pdb
     RDKit          3D

 25 25  0  0  1  0  0  0  0  0999 V2000
    8.2370  -14.7785   18.5101 N   0  0  0  0  0  0  0  0  0  0  0  0
    7.1441  -14.1194   17.8211 C   0  0  0  0  0  0  0  0  0  0  0  0
    7.3155  -12.6302   18.1401 C   0  0  0  0  0  0  0  0  0  0  0  0
    7.7236  -12.7421   19.6155 C   0  0  0  0  0  0  0  0  0  0  0  0
    8.6612  -13.9130   19.5703 C   0  0  1  0  0  0  0  0  0  0  0  0
    8.6884  -14.6791   20.8315 C   0  0  0  0  0  0  0  0  0  0  0  0
    9.1419  -14.1615   21.9076 O   0  0  0  0  0  0  0  0  0  0  0  0
    8.2259  -16.0195   20.9535 N   0  0  0  0  0  0  0  0  0  0  0  0
    8.3198  -16.7519   22.2247 C   0  0  1  0  0  0  0  0  0  0  0  0
    7.2342  -17.8016   22.2263 C   0  0  0  0  0  0  0  0  0  0  0  0
    7.3704  -18.6073   23.4969 C   0  0  0  0  0  0  0  0  0  0  0  0
    6.3312  -19.6580   23.4931 C   0  0  0  0  0  0  0  0  0  0  0  0
    5.5387  -19.7356   22.5269 O   0  0  0  0  0  0  0  0  0  0  0  0
    9.6732  -17.3205   22.4040 C   0  0  0  0  0  0  0  0  0  0  0  0
   10.0949  -18.1500   21.5435 O   0  0  0  0  0  0  0  0  0  0  0  0
    6.2140  -20.5557   24.5300 O   0  0  0  0  0  0  0  0  0  0  0  0
   10.4993  -16.9814   23.4769 N   0  0  0  0  0  0  0  0  0  0  0  0
   11.8554  -17.5462   23.6630 C   0  0  1  0  0  0  0  0  0  0  0  0
   12.7689  -16.3536   23.5136 C   0  0  0  0  0  0  0  0  0  0  0  0
   14.2048  -16.6577   23.5275 C   0  0  0  0  0  0  0  0  0  0  0  0
   14.6475  -17.8130   23.6649 O   0  0  0  0  0  0  0  0  0  0  0  0
   11.9308  -18.1604   25.0101 C   0  0  0  0  0  0  0  0  0  0  0  0
   11.1043  -17.8399   25.9024 O   0  0  0  0  0  0  0  0  0  0  0  0
   15.1617  -15.6492   23.3848 O   0  0  0  0  0  0  0  0  0  0  0  0
   12.8889  -19.0870   25.3272 O   0  0  0  0  0  0  0  0  0  0  0  0
  1  2  1  0
  3  2  1  0
  4  3  1  0
  4  5  1  0
  5  1  1  0
  6  8  1  0
  5  6  1  1
  7  6  2  0
  9  8  1  0
  9 14  1  0
  9 10  1  6
 11 10  1  0
 12 11  1  0
 13 12  2  0
 14 17  1  0
 15 14  2  0
 16 12  1  0
 17 18  1  0
 18 19  1  1
 18 22  1  0
 20 19  1  0
 21 20  2  0
 22 25  1  0
 23 22  2  0
 24 20  1  0
M  END
$$$$
