PED.pdb
     RDKit          3D

 25 25  0  0  1  0  0  0  0  0999 V2000
    8.9129  -13.9457   18.0101 N   0  0  0  0  0  0  0  0  0  0  0  0
    7.7092  -13.5927   17.2821 C   0  0  0  0  0  0  0  0  0  0  0  0
    6.9538  -12.6325   18.2076 C   0  0  0  0  0  0  0  0  0  0  0  0
    7.2139  -13.3314   19.5491 C   0  0  0  0  0  0  0  0  0  0  0  0
    8.6564  -13.7180   19.4013 C   0  0  1  0  0  0  0  0  0  0  0  0
    9.0077  -14.9353   20.1583 C   0  0  0  0  0  0  0  0  0  0  0  0
    8.6325  -15.0898   21.3694 O   0  0  0  0  0  0  0  0  0  0  0  0
    9.7714  -16.0090   19.6202 N   0  0  0  0  0  0  0  0  0  0  0  0
   10.1404  -17.1742   20.4372 C   0  0  1  0  0  0  0  0  0  0  0  0
   10.5292  -18.2869   19.4932 C   0  0  0  0  0  0  0  0  0  0  0  0
    9.3415  -18.5783   18.6062 C   0  0  0  0  0  0  0  0  0  0  0  0
    9.7060  -19.6792   17.6903 C   0  0  0  0  0  0  0  0  0  0  0  0
   10.1945  -20.7326   18.1587 O   0  0  0  0  0  0  0  0  0  0  0  0
   11.2140  -16.8262   21.3930 C   0  0  0  0  0  0  0  0  0  0  0  0
   12.0585  -15.9446   21.0526 O   0  0  0  0  0  0  0  0  0  0  0  0
    9.5206  -19.5731   16.3305 O   0  0  0  0  0  0  0  0  0  0  0  0
   11.3327  -17.4267   22.6476 N   0  0  0  0  0  0  0  0  0  0  0  0
   12.3726  -17.0463   23.6306 C   0  0  1  0  0  0  0  0  0  0  0  0
   11.8468  -17.5814   24.9406 C   0  0  0  0  0  0  0  0  0  0  0  0
   12.7406  -17.4100   26.0922 C   0  0  0  0  0  0  0  0  0  0  0  0
   13.8552  -16.8626   26.0045 O   0  0  0  0  0  0  0  0  0  0  0  0
   13.6546  -17.6733   23.2289 C   0  0  0  0  0  0  0  0  0  0  0  0
   13.6846  -18.8716   22.8480 O   0  0  0  0  0  0  0  0  0  0  0  0
   12.3789  -17.8599   27.3649 O   0  0  0  0  0  0  0  0  0  0  0  0
   14.8359  -16.9798   23.2563 O   0  0  0  0  0  0  0  0  0  0  0  0
  1  2  1  0
  3  2  1  0
  4  3  1  0
  4  5  1  0
  5  1  1  0
  6  8  1  0
  5  6  1  1
  7  6  2  0
  9  8  1  0
  9 14  1  0
  9 10  1  6
 11 10  1  0
 12 11  1  0
 13 12  2  0
 14 17  1  0
 15 14  2  0
 16 12  1  0
 17 18  1  0
 18 19  1  1
 18 22  1  0
 20 19  1  0
 21 20  2  0
 22 25  1  0
 23 22  2  0
 24 20  1  0
M  END
$$$$
