PED.pdb
     RDKit          3D

 25 25  0  0  1  0  0  0  0  0999 V2000
    8.2083  -14.8066   19.2921 N   0  0  0  0  0  0  0  0  0  0  0  0
    7.3634  -14.0141   18.4194 C   0  0  0  0  0  0  0  0  0  0  0  0
    7.5112  -12.5748   18.9251 C   0  0  0  0  0  0  0  0  0  0  0  0
    7.5147  -12.8462   20.4358 C   0  0  0  0  0  0  0  0  0  0  0  0
    8.3788  -14.0709   20.5097 C   0  0  1  0  0  0  0  0  0  0  0  0
    8.0419  -14.9465   21.6491 C   0  0  0  0  0  0  0  0  0  0  0  0
    6.8318  -15.0985   22.0284 O   0  0  0  0  0  0  0  0  0  0  0  0
    9.0071  -15.6744   22.4003 N   0  0  0  0  0  0  0  0  0  0  0  0
    8.6347  -16.8609   23.1843 C   0  0  1  0  0  0  0  0  0  0  0  0
    7.9674  -17.8363   22.2441 C   0  0  0  0  0  0  0  0  0  0  0  0
    6.4866  -17.5375   22.2409 C   0  0  0  0  0  0  0  0  0  0  0  0
    5.7551  -18.8204   22.1867 C   0  0  0  0  0  0  0  0  0  0  0  0
    5.5824  -19.4748   23.2401 O   0  0  0  0  0  0  0  0  0  0  0  0
    9.8167  -17.4319   23.8655 C   0  0  0  0  0  0  0  0  0  0  0  0
    9.6847  -18.5368   24.4721 O   0  0  0  0  0  0  0  0  0  0  0  0
    5.2579  -19.3140   21.0018 O   0  0  0  0  0  0  0  0  0  0  0  0
   11.0643  -16.8057   23.8662 N   0  0  0  0  0  0  0  0  0  0  0  0
   12.2404  -17.3479   24.5841 C   0  0  1  0  0  0  0  0  0  0  0  0
   13.3836  -16.4810   24.1144 C   0  0  0  0  0  0  0  0  0  0  0  0
   13.6536  -16.5262   22.6723 C   0  0  0  0  0  0  0  0  0  0  0  0
   13.5159  -17.5603   21.9931 O   0  0  0  0  0  0  0  0  0  0  0  0
   11.9974  -17.2351   26.0422 C   0  0  0  0  0  0  0  0  0  0  0  0
   11.0480  -16.5336   26.4763 O   0  0  0  0  0  0  0  0  0  0  0  0
   14.0855  -15.3923   21.9789 O   0  0  0  0  0  0  0  0  0  0  0  0
   12.7861  -17.8824   26.9566 O   0  0  0  0  0  0  0  0  0  0  0  0
  1  2  1  0
  3  2  1  0
  4  3  1  0
  4  5  1  0
  5  1  1  0
  6  8  1  0
  5  6  1  1
  7  6  2  0
  9  8  1  0
  9 14  1  0
  9 10  1  6
 11 10  1  0
 12 11  1  0
 13 12  2  0
 14 17  1  0
 15 14  2  0
 16 12  1  0
 17 18  1  0
 18 19  1  6
 18 22  1  0
 20 19  1  0
 21 20  2  0
 22 25  1  0
 23 22  2  0
 24 20  1  0
M  END
$$$$
