PED.pdb
     RDKit          3D

 25 25  0  0  1  0  0  0  0  0999 V2000
    8.2175  -15.0061   19.4486 N   0  0  0  0  0  0  0  0  0  0  0  0
    6.9210  -14.3647   19.5544 C   0  0  0  0  0  0  0  0  0  0  0  0
    6.9964  -13.1608   18.6089 C   0  0  0  0  0  0  0  0  0  0  0  0
    8.4313  -12.7051   18.9080 C   0  0  0  0  0  0  0  0  0  0  0  0
    9.1467  -14.0225   18.9773 C   0  0  1  0  0  0  0  0  0  0  0  0
   10.3153  -13.9974   19.8785 C   0  0  0  0  0  0  0  0  0  0  0  0
   11.2996  -13.2132   19.6599 O   0  0  0  0  0  0  0  0  0  0  0  0
   10.4420  -14.8196   21.0332 N   0  0  0  0  0  0  0  0  0  0  0  0
   11.5965  -14.7037   21.9359 C   0  0  1  0  0  0  0  0  0  0  0  0
   11.1881  -15.2755   23.2726 C   0  0  0  0  0  0  0  0  0  0  0  0
   10.9548  -16.7570   23.0910 C   0  0  0  0  0  0  0  0  0  0  0  0
   10.7139  -17.3546   24.4209 C   0  0  0  0  0  0  0  0  0  0  0  0
   11.6513  -17.4098   25.2492 O   0  0  0  0  0  0  0  0  0  0  0  0
   12.7827  -15.3729   21.3594 C   0  0  0  0  0  0  0  0  0  0  0  0
   12.6240  -16.4986   20.7993 O   0  0  0  0  0  0  0  0  0  0  0  0
    9.4797  -17.8534   24.7711 O   0  0  0  0  0  0  0  0  0  0  0  0
   14.0621  -14.8167   21.4077 N   0  0  0  0  0  0  0  0  0  0  0  0
   15.2619  -15.5018   20.8750 C   0  0  1  0  0  0  0  0  0  0  0  0
   16.0211  -14.4059   20.1667 C   0  0  0  0  0  0  0  0  0  0  0  0
   15.6071  -14.1501   18.7819 C   0  0  0  0  0  0  0  0  0  0  0  0
   14.7184  -14.8094   18.2116 O   0  0  0  0  0  0  0  0  0  0  0  0
   16.0186  -16.0812   22.0106 C   0  0  0  0  0  0  0  0  0  0  0  0
   15.6826  -15.8251   23.1953 O   0  0  0  0  0  0  0  0  0  0  0  0
   16.1994  -13.1374   18.0226 O   0  0  0  0  0  0  0  0  0  0  0  0
   17.0949  -16.9057   21.8138 O   0  0  0  0  0  0  0  0  0  0  0  0
  1  2  1  0
  3  2  1  0
  4  3  1  0
  4  5  1  0
  5  1  1  0
  6  8  1  0
  5  6  1  1
  7  6  2  0
  9  8  1  0
  9 14  1  0
  9 10  1  1
 11 10  1  0
 12 11  1  0
 13 12  2  0
 14 17  1  0
 15 14  2  0
 16 12  1  0
 17 18  1  0
 18 19  1  1
 18 22  1  0
 20 19  1  0
 21 20  2  0
 22 25  1  0
 23 22  2  0
 24 20  1  0
M  END
$$$$
