PED.pdb
     RDKit          3D

 25 25  0  0  1  0  0  0  0  0999 V2000
    8.0012  -14.2777   18.2666 N   0  0  0  0  0  0  0  0  0  0  0  0
    6.9160  -13.8172   19.1114 C   0  0  0  0  0  0  0  0  0  0  0  0
    7.2809  -12.3731   19.4728 C   0  0  0  0  0  0  0  0  0  0  0  0
    8.7902  -12.5496   19.6891 C   0  0  0  0  0  0  0  0  0  0  0  0
    9.1432  -13.4599   18.5494 C   0  0  1  0  0  0  0  0  0  0  0  0
   10.2959  -14.3331   18.8446 C   0  0  0  0  0  0  0  0  0  0  0  0
   10.1299  -15.5007   19.3351 O   0  0  0  0  0  0  0  0  0  0  0  0
   11.6502  -13.9606   18.6151 N   0  0  0  0  0  0  0  0  0  0  0  0
   12.7570  -14.8952   18.8657 C   0  0  1  0  0  0  0  0  0  0  0  0
   13.8709  -14.5487   17.9066 C   0  0  0  0  0  0  0  0  0  0  0  0
   14.9721  -15.5669   18.0882 C   0  0  0  0  0  0  0  0  0  0  0  0
   15.5861  -15.8256   16.7691 C   0  0  0  0  0  0  0  0  0  0  0  0
   16.2130  -14.9082   16.1920 O   0  0  0  0  0  0  0  0  0  0  0  0
   13.1775  -14.8427   20.2826 C   0  0  0  0  0  0  0  0  0  0  0  0
   13.3085  -13.7065   20.8284 O   0  0  0  0  0  0  0  0  0  0  0  0
   15.4845  -17.0551   16.1585 O   0  0  0  0  0  0  0  0  0  0  0  0
   13.4341  -15.9885   21.0375 N   0  0  0  0  0  0  0  0  0  0  0  0
   13.9331  -15.9434   22.4309 C   0  0  1  0  0  0  0  0  0  0  0  0
   13.3207  -17.1635   23.0754 C   0  0  0  0  0  0  0  0  0  0  0  0
   13.6215  -17.3372   24.5015 C   0  0  0  0  0  0  0  0  0  0  0  0
   14.3401  -16.5461   25.1398 O   0  0  0  0  0  0  0  0  0  0  0  0
   15.4146  -15.9922   22.4043 C   0  0  0  0  0  0  0  0  0  0  0  0
   16.0143  -16.6018   21.4819 O   0  0  0  0  0  0  0  0  0  0  0  0
   13.1079  -18.4167   25.2254 O   0  0  0  0  0  0  0  0  0  0  0  0
   16.1733  -15.3828   23.3687 O   0  0  0  0  0  0  0  0  0  0  0  0
  1  2  1  0
  3  2  1  0
  4  3  1  0
  4  5  1  0
  5  1  1  0
  6  8  1  0
  5  6  1  1
  7  6  2  0
  9  8  1  0
  9 14  1  0
  9 10  1  6
 11 10  1  0
 12 11  1  0
 13 12  2  0
 14 17  1  0
 15 14  2  0
 16 12  1  0
 17 18  1  0
 18 19  1  1
 18 22  1  0
 20 19  1  0
 21 20  2  0
 22 25  1  0
 23 22  2  0
 24 20  1  0
M  END
$$$$
