DLY.pdb
     RDKit          3D

 29 29  0  0  1  0  0  0  0  0999 V2000
   10.0421  -18.4332   19.2399 N   0  0  0  0  0  0  0  0  0  0  0  0
   11.2145  -18.0327   19.9824 C   0  0  1  0  0  0  0  0  0  0  0  0
   12.2818  -17.5989   19.0327 C   0  0  0  0  0  0  0  0  0  0  0  0
   12.9689  -18.6773   18.3158 C   0  0  0  0  0  0  0  0  0  0  0  0
   12.6721  -19.8879   18.3440 O   0  0  0  0  0  0  0  0  0  0  0  0
   10.8960  -16.9497   20.9575 C   0  0  0  0  0  0  0  0  0  0  0  0
   11.8174  -16.4495   21.6891 O   0  0  0  0  0  0  0  0  0  0  0  0
   14.0592  -18.3176   17.5259 O   0  0  0  0  0  0  0  0  0  0  0  0
    6.6729  -13.6524   19.9140 C   0  0  0  0  0  0  0  0  0  0  0  0
    8.0310  -14.2089   20.2852 C   0  0  1  0  0  0  0  0  0  0  0  0
    9.0080  -13.0377   20.1616 C   0  0  0  0  0  0  0  0  0  0  0  0
    8.0589  -14.6685   21.7000 C   0  0  0  0  0  0  0  0  0  0  0  0
    9.3202  -15.3642   22.1151 C   0  0  2  0  0  0  0  0  0  0  0  0
    9.6108  -16.4121   21.1457 N   0  0  0  0  0  0  0  0  0  0  0  0
    9.2585  -15.9072   23.4884 C   0  0  0  0  0  0  0  0  0  0  0  0
    8.5275  -16.8909   23.7122 O   0  0  0  0  0  0  0  0  0  0  0  0
    5.9293  -10.3964   26.4017 O   0  0  0  0  0  0  0  0  0  0  0  0
    6.4744  -11.6751   26.3187 C   0  0  0  0  0  0  0  0  0  0  0  0
    7.7937  -11.8949   26.6522 C   0  0  0  0  0  0  0  0  0  0  0  0
    8.3635  -13.1520   26.5804 C   0  0  0  0  0  0  0  0  0  0  0  0
    7.6326  -14.2489   26.1692 C   0  0  0  0  0  0  0  0  0  0  0  0
    8.1910  -15.6144   26.0711 C   0  0  0  0  0  0  0  0  0  0  0  0
    9.6972  -15.6495   25.9728 C   0  0  2  0  0  0  0  0  0  0  0  0
   10.0047  -15.3469   24.5670 N   0  0  0  0  0  0  0  0  0  0  0  0
   10.2738  -16.9864   26.2385 C   0  0  0  0  0  0  0  0  0  0  0  0
   10.8434  -17.7856   25.2541 O   0  0  0  0  0  0  0  0  0  0  0  0
    6.3117  -14.0379   25.8336 C   0  0  0  0  0  0  0  0  0  0  0  0
    5.7396  -12.7668   25.9074 C   0  0  0  0  0  0  0  0  0  0  0  0
   10.2473  -17.4307   27.4365 O   0  0  0  0  0  0  0  0  0  0  0  0
  2  1  1  6
  2  3  1  0
  4  3  1  0
  4  8  1  0
  5  4  2  0
  6  2  1  0
  7  6  2  0
 10 12  1  0
 10  9  1  1
 11 10  1  0
 13 12  1  6
 13 14  1  0
 14  6  1  0
 15 24  1  0
 15 13  1  0
 16 15  2  0
 18 17  1  0
 19 18  2  0
 20 19  1  0
 21 20  2  0
 21 27  1  0
 23 22  1  6
 22 21  1  0
 23 25  1  0
 23 24  1  0
 25 26  1  0
 27 28  2  0
 28 18  1  0
 29 25  2  0
M  END
$$$$
