DLY.pdb
     RDKit          3D

 29 29  0  0  1  0  0  0  0  0999 V2000
    9.5831  -17.7848   18.0563 N   0  0  0  0  0  0  0  0  0  0  0  0
   10.9041  -17.5606   18.5958 C   0  0  1  0  0  0  0  0  0  0  0  0
   11.7949  -17.0221   17.5253 C   0  0  0  0  0  0  0  0  0  0  0  0
   11.9947  -17.8981   16.3668 C   0  0  0  0  0  0  0  0  0  0  0  0
   11.5461  -17.7156   15.2180 O   0  0  0  0  0  0  0  0  0  0  0  0
   10.8628  -16.6396   19.7684 C   0  0  0  0  0  0  0  0  0  0  0  0
   11.9407  -16.3250   20.3795 O   0  0  0  0  0  0  0  0  0  0  0  0
   12.7592  -19.0461   16.5661 O   0  0  0  0  0  0  0  0  0  0  0  0
    6.3746  -13.6571   20.2939 C   0  0  0  0  0  0  0  0  0  0  0  0
    7.7853  -14.1933   20.1748 C   0  0  1  0  0  0  0  0  0  0  0  0
    8.6080  -13.0641   19.5506 C   0  0  0  0  0  0  0  0  0  0  0  0
    8.3675  -14.4856   21.5124 C   0  0  0  0  0  0  0  0  0  0  0  0
    9.6532  -15.2562   21.4889 C   0  0  2  0  0  0  0  0  0  0  0  0
    9.6851  -16.0655   20.2780 N   0  0  0  0  0  0  0  0  0  0  0  0
    9.8536  -16.0877   22.6943 C   0  0  0  0  0  0  0  0  0  0  0  0
    9.0254  -16.9828   22.9499 O   0  0  0  0  0  0  0  0  0  0  0  0
   10.4002  -13.2783   30.3727 O   0  0  0  0  0  0  0  0  0  0  0  0
   10.2439  -14.0166   29.2024 C   0  0  0  0  0  0  0  0  0  0  0  0
    9.4428  -13.5483   28.1830 C   0  0  0  0  0  0  0  0  0  0  0  0
    9.2677  -14.2577   27.0099 C   0  0  0  0  0  0  0  0  0  0  0  0
    9.8906  -15.4730   26.8062 C   0  0  0  0  0  0  0  0  0  0  0  0
    9.7371  -16.2749   25.5735 C   0  0  0  0  0  0  0  0  0  0  0  0
   11.0431  -16.5787   24.8795 C   0  0  2  0  0  0  0  0  0  0  0  0
   10.9596  -15.9038   23.5756 N   0  0  0  0  0  0  0  0  0  0  0  0
   11.2324  -18.0165   24.5837 C   0  0  0  0  0  0  0  0  0  0  0  0
   11.9572  -18.8784   25.3987 O   0  0  0  0  0  0  0  0  0  0  0  0
   10.6939  -15.9489   27.8211 C   0  0  0  0  0  0  0  0  0  0  0  0
   10.8684  -15.2297   29.0046 C   0  0  0  0  0  0  0  0  0  0  0  0
   10.7016  -18.4920   23.5228 O   0  0  0  0  0  0  0  0  0  0  0  0
  2  1  1  6
  2  3  1  0
  4  3  1  0
  4  8  1  0
  5  4  2  0
  6  2  1  0
  7  6  2  0
 10 12  1  0
 10  9  1  1
 11 10  1  0
 13 12  1  1
 13 14  1  0
 14  6  1  0
 15 24  1  0
 15 13  1  0
 16 15  2  0
 18 17  1  0
 19 18  2  0
 20 19  1  0
 21 20  2  0
 21 27  1  0
 23 22  1  6
 22 21  1  0
 23 25  1  0
 23 24  1  0
 25 26  1  0
 27 28  2  0
 28 18  1  0
 29 25  2  0
M  END
$$$$
