DLY.pdb
     RDKit          3D

 29 29  0  0  1  0  0  0  0  0999 V2000
    9.0791  -19.1690   20.6334 N   0  0  0  0  0  0  0  0  0  0  0  0
   10.1586  -18.4740   19.9717 C   0  0  1  0  0  0  0  0  0  0  0  0
    9.9813  -18.5712   18.4923 C   0  0  0  0  0  0  0  0  0  0  0  0
   11.1252  -18.1333   17.6868 C   0  0  0  0  0  0  0  0  0  0  0  0
   12.3294  -18.2803   17.9743 O   0  0  0  0  0  0  0  0  0  0  0  0
   10.2348  -17.0493   20.4071 C   0  0  0  0  0  0  0  0  0  0  0  0
   11.3322  -16.4016   20.3045 O   0  0  0  0  0  0  0  0  0  0  0  0
   10.8423  -17.4905   16.4831 O   0  0  0  0  0  0  0  0  0  0  0  0
    5.9387  -13.6756   19.7794 C   0  0  0  0  0  0  0  0  0  0  0  0
    7.3776  -14.1457   19.8011 C   0  0  1  0  0  0  0  0  0  0  0  0
    8.1926  -13.0193   19.1619 C   0  0  0  0  0  0  0  0  0  0  0  0
    7.8690  -14.3194   21.1946 C   0  0  0  0  0  0  0  0  0  0  0  0
    9.2355  -14.9241   21.3136 C   0  0  2  0  0  0  0  0  0  0  0  0
    9.1525  -16.3308   20.9442 N   0  0  0  0  0  0  0  0  0  0  0  0
    9.8292  -14.7571   22.6569 C   0  0  0  0  0  0  0  0  0  0  0  0
    9.9291  -13.6088   23.1299 O   0  0  0  0  0  0  0  0  0  0  0  0
   10.7419  -15.1791   31.2399 O   0  0  0  0  0  0  0  0  0  0  0  0
   10.4569  -15.3018   29.8824 C   0  0  0  0  0  0  0  0  0  0  0  0
   10.4808  -14.1950   29.0611 C   0  0  0  0  0  0  0  0  0  0  0  0
   10.2027  -14.2843   27.7102 C   0  0  0  0  0  0  0  0  0  0  0  0
    9.8870  -15.4923   27.1208 C   0  0  0  0  0  0  0  0  0  0  0  0
    9.5785  -15.6455   25.6829 C   0  0  0  0  0  0  0  0  0  0  0  0
   10.8028  -15.6984   24.8009 C   0  0  2  0  0  0  0  0  0  0  0  0
   10.2918  -15.8614   23.4317 N   0  0  0  0  0  0  0  0  0  0  0  0
   11.6639  -16.8743   25.0583 C   0  0  0  0  0  0  0  0  0  0  0  0
   11.3844  -18.1492   24.5800 O   0  0  0  0  0  0  0  0  0  0  0  0
    9.8607  -16.6048   27.9354 C   0  0  0  0  0  0  0  0  0  0  0  0
   10.1422  -16.5108   29.2993 C   0  0  0  0  0  0  0  0  0  0  0  0
   12.7210  -16.7099   25.7574 O   0  0  0  0  0  0  0  0  0  0  0  0
  2  1  1  1
  2  3  1  0
  4  3  1  0
  4  8  1  0
  5  4  2  0
  6  2  1  0
  7  6  2  0
 10 12  1  0
 10  9  1  1
 11 10  1  0
 13 12  1  1
 13 14  1  0
 14  6  1  0
 15 24  1  0
 15 13  1  0
 16 15  2  0
 18 17  1  0
 19 18  2  0
 20 19  1  0
 21 20  2  0
 21 27  1  0
 23 22  1  1
 22 21  1  0
 23 25  1  0
 23 24  1  0
 25 26  1  0
 27 28  2  0
 28 18  1  0
 29 25  2  0
M  END
$$$$
