DLY.pdb
     RDKit          3D

 29 29  0  0  1  0  0  0  0  0999 V2000
   10.3401  -18.0892   18.2633 N   0  0  0  0  0  0  0  0  0  0  0  0
   11.4324  -17.5462   19.0369 C   0  0  1  0  0  0  0  0  0  0  0  0
   12.4342  -16.9276   18.1187 C   0  0  0  0  0  0  0  0  0  0  0  0
   13.2082  -17.8659   17.3004 C   0  0  0  0  0  0  0  0  0  0  0  0
   13.7405  -18.9225   17.6938 O   0  0  0  0  0  0  0  0  0  0  0  0
   10.9468  -16.5560   20.0414 C   0  0  0  0  0  0  0  0  0  0  0  0
   11.7656  -16.0132   20.8594 O   0  0  0  0  0  0  0  0  0  0  0  0
   13.3658  -17.5488   15.9525 O   0  0  0  0  0  0  0  0  0  0  0  0
    6.2912  -13.6063   19.1396 C   0  0  0  0  0  0  0  0  0  0  0  0
    7.7116  -14.0159   19.4660 C   0  0  1  0  0  0  0  0  0  0  0  0
    8.5012  -12.7115   19.5952 C   0  0  0  0  0  0  0  0  0  0  0  0
    7.7849  -14.7160   20.7768 C   0  0  0  0  0  0  0  0  0  0  0  0
    9.1520  -15.1939   21.1639 C   0  0  2  0  0  0  0  0  0  0  0  0
    9.6054  -16.1547   20.1671 N   0  0  0  0  0  0  0  0  0  0  0  0
    9.2019  -15.7696   22.5244 C   0  0  0  0  0  0  0  0  0  0  0  0
    8.9676  -16.9845   22.6704 O   0  0  0  0  0  0  0  0  0  0  0  0
   10.6514  -16.0878   31.3427 O   0  0  0  0  0  0  0  0  0  0  0  0
   10.4881  -15.6901   30.0183 C   0  0  0  0  0  0  0  0  0  0  0  0
    9.9597  -14.4521   29.7209 C   0  0  0  0  0  0  0  0  0  0  0  0
    9.7853  -14.0288   28.4168 C   0  0  0  0  0  0  0  0  0  0  0  0
   10.1343  -14.8314   27.3489 C   0  0  0  0  0  0  0  0  0  0  0  0
    9.9674  -14.4311   25.9354 C   0  0  0  0  0  0  0  0  0  0  0  0
    9.5573  -15.5651   25.0270 C   0  0  2  0  0  0  0  0  0  0  0  0
    9.5084  -14.9862   23.6760 N   0  0  0  0  0  0  0  0  0  0  0  0
    8.1961  -16.0771   25.3015 C   0  0  0  0  0  0  0  0  0  0  0  0
    7.9406  -17.1919   26.0917 O   0  0  0  0  0  0  0  0  0  0  0  0
   10.6636  -16.0717   27.6375 C   0  0  0  0  0  0  0  0  0  0  0  0
   10.8384  -16.4959   28.9558 C   0  0  0  0  0  0  0  0  0  0  0  0
    7.2018  -15.4623   24.7851 O   0  0  0  0  0  0  0  0  0  0  0  0
  2  1  1  6
  2  3  1  0
  4  3  1  0
  4  8  1  0
  5  4  2  0
  6  2  1  0
  7  6  2  0
 10 12  1  0
 10  9  1  1
 11 10  1  0
 13 12  1  6
 13 14  1  0
 14  6  1  0
 15 24  1  0
 15 13  1  0
 16 15  2  0
 18 17  1  0
 19 18  2  0
 20 19  1  0
 21 20  2  0
 21 27  1  0
 23 22  1  1
 22 21  1  0
 23 25  1  0
 23 24  1  0
 25 26  1  0
 27 28  2  0
 28 18  1  0
 29 25  2  0
M  END
$$$$
