DLY.pdb
     RDKit          3D

 29 29  0  0  1  0  0  0  0  0999 V2000
    6.8329  -18.1453   22.2143 N   0  0  0  0  0  0  0  0  0  0  0  0
    7.8323  -17.5554   21.3544 C   0  0  1  0  0  0  0  0  0  0  0  0
    7.2339  -17.2720   20.0161 C   0  0  0  0  0  0  0  0  0  0  0  0
    6.7778  -18.4451   19.2645 C   0  0  0  0  0  0  0  0  0  0  0  0
    6.8480  -19.6329   19.6370 O   0  0  0  0  0  0  0  0  0  0  0  0
    8.4034  -16.3158   21.9564 C   0  0  0  0  0  0  0  0  0  0  0  0
    9.2532  -15.6159   21.3065 O   0  0  0  0  0  0  0  0  0  0  0  0
    6.2108  -18.2133   18.0128 O   0  0  0  0  0  0  0  0  0  0  0  0
    5.8542  -13.5000   26.1288 C   0  0  0  0  0  0  0  0  0  0  0  0
    6.6256  -13.6722   24.8376 C   0  0  1  0  0  0  0  0  0  0  0  0
    6.8799  -12.2572   24.3135 C   0  0  0  0  0  0  0  0  0  0  0  0
    7.9500  -14.3055   25.0791 C   0  0  0  0  0  0  0  0  0  0  0  0
    8.7102  -14.6756   23.8412 C   0  0  2  0  0  0  0  0  0  0  0  0
    8.0694  -15.8346   23.2344 N   0  0  0  0  0  0  0  0  0  0  0  0
   10.1444  -14.9279   24.0946 C   0  0  0  0  0  0  0  0  0  0  0  0
   10.9891  -14.2066   23.5302 O   0  0  0  0  0  0  0  0  0  0  0  0
    9.6815  -16.2858   31.2939 O   0  0  0  0  0  0  0  0  0  0  0  0
   10.3249  -16.0076   30.0907 C   0  0  0  0  0  0  0  0  0  0  0  0
   10.3130  -14.7307   29.5713 C   0  0  0  0  0  0  0  0  0  0  0  0
   10.9422  -14.4232   28.3798 C   0  0  0  0  0  0  0  0  0  0  0  0
   11.6139  -15.3863   27.6534 C   0  0  0  0  0  0  0  0  0  0  0  0
   12.3014  -15.1143   26.3730 C   0  0  0  0  0  0  0  0  0  0  0  0
   12.0176  -16.1389   25.3011 C   0  0  2  0  0  0  0  0  0  0  0  0
   10.5974  -15.9663   24.9609 N   0  0  0  0  0  0  0  0  0  0  0  0
   12.1585  -17.5359   25.7694 C   0  0  0  0  0  0  0  0  0  0  0  0
   11.1005  -18.4354   25.8291 O   0  0  0  0  0  0  0  0  0  0  0  0
   11.6307  -16.6665   28.1658 C   0  0  0  0  0  0  0  0  0  0  0  0
   10.9941  -16.9734   29.3696 C   0  0  0  0  0  0  0  0  0  0  0  0
   13.3142  -17.9375   26.1386 O   0  0  0  0  0  0  0  0  0  0  0  0
  2  1  1  1
  2  3  1  0
  4  3  1  0
  4  8  1  0
  5  4  2  0
  6  2  1  0
  7  6  2  0
 10 12  1  0
 10  9  1  1
 11 10  1  0
 13 12  1  1
 13 14  1  0
 14  6  1  0
 15 24  1  0
 15 13  1  0
 16 15  2  0
 18 17  1  0
 19 18  2  0
 20 19  1  0
 21 20  2  0
 21 27  1  0
 23 22  1  1
 22 21  1  0
 23 25  1  0
 23 24  1  0
 25 26  1  0
 27 28  2  0
 28 18  1  0
 29 25  2  0
M  END
$$$$
