DLY.pdb
     RDKit          3D

 29 29  0  0  1  0  0  0  0  0999 V2000
    8.4736  -18.7292   20.1520 N   0  0  0  0  0  0  0  0  0  0  0  0
    9.8720  -18.3792   20.0605 C   0  0  1  0  0  0  0  0  0  0  0  0
   10.2952  -18.3874   18.6287 C   0  0  0  0  0  0  0  0  0  0  0  0
   10.1371  -19.6656   17.9284 C   0  0  0  0  0  0  0  0  0  0  0  0
    9.7366  -20.7356   18.4276 O   0  0  0  0  0  0  0  0  0  0  0  0
   10.1422  -17.0535   20.6888 C   0  0  0  0  0  0  0  0  0  0  0  0
   11.3273  -16.5742   20.6985 O   0  0  0  0  0  0  0  0  0  0  0  0
   10.4653  -19.6900   16.5743 O   0  0  0  0  0  0  0  0  0  0  0  0
    6.6088  -13.2311   20.0182 C   0  0  0  0  0  0  0  0  0  0  0  0
    7.8955  -14.0094   20.1923 C   0  0  1  0  0  0  0  0  0  0  0  0
    8.9551  -13.2442   19.3964 C   0  0  0  0  0  0  0  0  0  0  0  0
    8.3292  -14.0261   21.6154 C   0  0  0  0  0  0  0  0  0  0  0  0
    9.4493  -14.9730   21.9251 C   0  0  2  0  0  0  0  0  0  0  0  0
    9.1581  -16.2549   21.2971 N   0  0  0  0  0  0  0  0  0  0  0  0
    9.6929  -15.1297   23.3745 C   0  0  0  0  0  0  0  0  0  0  0  0
   10.3126  -14.2336   23.9788 O   0  0  0  0  0  0  0  0  0  0  0  0
    5.8112  -11.1340   26.6638 O   0  0  0  0  0  0  0  0  0  0  0  0
    6.3479  -12.4124   26.5351 C   0  0  0  0  0  0  0  0  0  0  0  0
    7.6616  -12.6558   26.8742 C   0  0  0  0  0  0  0  0  0  0  0  0
    8.2229  -13.9134   26.7577 C   0  0  0  0  0  0  0  0  0  0  0  0
    7.4889  -14.9869   26.2941 C   0  0  0  0  0  0  0  0  0  0  0  0
    8.0384  -16.3516   26.1468 C   0  0  0  0  0  0  0  0  0  0  0  0
    9.4295  -16.3867   25.5612 C   0  0  2  0  0  0  0  0  0  0  0  0
    9.2451  -16.2685   24.1070 N   0  0  0  0  0  0  0  0  0  0  0  0
   10.1289  -17.6725   25.7809 C   0  0  0  0  0  0  0  0  0  0  0  0
   10.6271  -18.0736   27.0151 O   0  0  0  0  0  0  0  0  0  0  0  0
    6.1736  -14.7522   25.9524 C   0  0  0  0  0  0  0  0  0  0  0  0
    5.6099  -13.4808   26.0714 C   0  0  0  0  0  0  0  0  0  0  0  0
   10.2835  -18.4565   24.7836 O   0  0  0  0  0  0  0  0  0  0  0  0
  2  1  1  6
  2  3  1  0
  4  3  1  0
  4  8  1  0
  5  4  2  0
  6  2  1  0
  7  6  2  0
 10 12  1  0
 10  9  1  1
 11 10  1  0
 13 12  1  1
 13 14  1  0
 14  6  1  0
 15 24  1  0
 15 13  1  0
 16 15  2  0
 18 17  1  0
 19 18  2  0
 20 19  1  0
 21 20  2  0
 21 27  1  0
 23 22  1  1
 22 21  1  0
 23 25  1  0
 23 24  1  0
 25 26  1  0
 27 28  2  0
 28 18  1  0
 29 25  2  0
M  END
$$$$
