DLY.pdb
     RDKit          3D

 29 29  0  0  1  0  0  0  0  0999 V2000
    7.5009  -17.9789   20.5552 N   0  0  0  0  0  0  0  0  0  0  0  0
    8.7465  -17.5294   19.9785 C   0  0  1  0  0  0  0  0  0  0  0  0
    8.5076  -17.0573   18.5822 C   0  0  0  0  0  0  0  0  0  0  0  0
    8.1961  -18.1038   17.6040 C   0  0  0  0  0  0  0  0  0  0  0  0
    8.1220  -19.3275   17.8311 O   0  0  0  0  0  0  0  0  0  0  0  0
    9.3714  -16.4560   20.8046 C   0  0  0  0  0  0  0  0  0  0  0  0
   10.5186  -15.9869   20.4914 O   0  0  0  0  0  0  0  0  0  0  0  0
    7.9596  -17.6942   16.2931 O   0  0  0  0  0  0  0  0  0  0  0  0
    6.1281  -13.9064   24.4847 C   0  0  0  0  0  0  0  0  0  0  0  0
    7.0494  -14.3013   23.3503 C   0  0  1  0  0  0  0  0  0  0  0  0
    6.9914  -13.1475   22.3468 C   0  0  0  0  0  0  0  0  0  0  0  0
    8.4579  -14.4214   23.8143 C   0  0  0  0  0  0  0  0  0  0  0  0
    9.4302  -14.8879   22.7729 C   0  0  2  0  0  0  0  0  0  0  0  0
    8.7765  -15.8952   21.9482 N   0  0  0  0  0  0  0  0  0  0  0  0
   10.6923  -15.4014   23.3458 C   0  0  0  0  0  0  0  0  0  0  0  0
   11.7696  -14.9054   22.9643 O   0  0  0  0  0  0  0  0  0  0  0  0
   10.4047  -16.2354   31.7160 O   0  0  0  0  0  0  0  0  0  0  0  0
   10.6586  -15.9887   30.3692 C   0  0  0  0  0  0  0  0  0  0  0  0
   10.2801  -14.7943   29.7945 C   0  0  0  0  0  0  0  0  0  0  0  0
   10.5180  -14.5199   28.4610 C   0  0  0  0  0  0  0  0  0  0  0  0
   11.1486  -15.4348   27.6414 C   0  0  0  0  0  0  0  0  0  0  0  0
   11.4259  -15.1954   26.2090 C   0  0  0  0  0  0  0  0  0  0  0  0
   11.6943  -16.4562   25.4229 C   0  0  2  0  0  0  0  0  0  0  0  0
   10.7227  -16.4434   24.3190 N   0  0  0  0  0  0  0  0  0  0  0  0
   11.4275  -17.6951   26.1875 C   0  0  0  0  0  0  0  0  0  0  0  0
   10.1563  -18.2298   26.3626 O   0  0  0  0  0  0  0  0  0  0  0  0
   11.5306  -16.6325   28.2083 C   0  0  0  0  0  0  0  0  0  0  0  0
   11.2887  -16.9062   29.5555 C   0  0  0  0  0  0  0  0  0  0  0  0
   12.4178  -18.3067   26.7152 O   0  0  0  0  0  0  0  0  0  0  0  0
  2  1  1  1
  2  3  1  0
  4  3  1  0
  4  8  1  0
  5  4  2  0
  6  2  1  0
  7  6  2  0
 10 12  1  0
 10  9  1  1
 11 10  1  0
 13 12  1  1
 13 14  1  0
 14  6  1  0
 15 24  1  0
 15 13  1  0
 16 15  2  0
 18 17  1  0
 19 18  2  0
 20 19  1  0
 21 20  2  0
 21 27  1  0
 23 22  1  1
 22 21  1  0
 23 25  1  0
 23 24  1  0
 25 26  1  0
 27 28  2  0
 28 18  1  0
 29 25  2  0
M  END
$$$$
