DLY.pdb
     RDKit          3D

 29 29  0  0  1  0  0  0  0  0999 V2000
    7.6009  -18.2634   20.9110 N   0  0  0  0  0  0  0  0  0  0  0  0
    8.7845  -17.5629   20.4697 C   0  0  1  0  0  0  0  0  0  0  0  0
    8.7468  -17.4067   18.9852 C   0  0  0  0  0  0  0  0  0  0  0  0
    8.1855  -18.5394   18.2428 C   0  0  0  0  0  0  0  0  0  0  0  0
    7.1921  -19.2173   18.5714 O   0  0  0  0  0  0  0  0  0  0  0  0
    8.9136  -16.2377   21.1421 C   0  0  0  0  0  0  0  0  0  0  0  0
    9.8051  -15.4050   20.7599 O   0  0  0  0  0  0  0  0  0  0  0  0
    8.8217  -18.8949   17.0550 O   0  0  0  0  0  0  0  0  0  0  0  0
    7.3715  -11.8710   24.0804 C   0  0  0  0  0  0  0  0  0  0  0  0
    7.3636  -13.1978   24.8093 C   0  0  1  0  0  0  0  0  0  0  0  0
    6.1333  -13.1653   25.7185 C   0  0  0  0  0  0  0  0  0  0  0  0
    7.1921  -14.3334   23.8635 C   0  0  0  0  0  0  0  0  0  0  0  0
    8.3795  -14.6183   22.9939 C   0  0  2  0  0  0  0  0  0  0  0  0
    8.1008  -15.8123   22.2073 N   0  0  0  0  0  0  0  0  0  0  0  0
    9.6371  -14.7613   23.7573 C   0  0  0  0  0  0  0  0  0  0  0  0
   10.3691  -13.7632   23.8997 O   0  0  0  0  0  0  0  0  0  0  0  0
   11.8095  -16.0067   31.9839 O   0  0  0  0  0  0  0  0  0  0  0  0
   11.3001  -15.9788   30.6883 C   0  0  0  0  0  0  0  0  0  0  0  0
   11.2109  -14.7887   29.9984 C   0  0  0  0  0  0  0  0  0  0  0  0
   10.7101  -14.7285   28.7116 C   0  0  0  0  0  0  0  0  0  0  0  0
   10.2748  -15.8635   28.0570 C   0  0  0  0  0  0  0  0  0  0  0  0
    9.7283  -15.8571   26.6832 C   0  0  0  0  0  0  0  0  0  0  0  0
   10.7725  -16.0649   25.6127 C   0  0  2  0  0  0  0  0  0  0  0  0
   10.0437  -15.9992   24.3372 N   0  0  0  0  0  0  0  0  0  0  0  0
   11.4015  -17.4039   25.6553 C   0  0  0  0  0  0  0  0  0  0  0  0
   12.6099  -17.6640   26.2911 O   0  0  0  0  0  0  0  0  0  0  0  0
   10.3605  -17.0586   28.7400 C   0  0  0  0  0  0  0  0  0  0  0  0
   10.8668  -17.1156   30.0395 C   0  0  0  0  0  0  0  0  0  0  0  0
   10.8025  -18.3735   25.0770 O   0  0  0  0  0  0  0  0  0  0  0  0
  2  1  1  1
  2  3  1  0
  4  3  1  0
  4  8  1  0
  5  4  2  0
  6  2  1  0
  7  6  2  0
 10 12  1  0
 10  9  1  6
 11 10  1  0
 13 12  1  1
 13 14  1  0
 14  6  1  0
 15 24  1  0
 15 13  1  0
 16 15  2  0
 18 17  1  0
 19 18  2  0
 20 19  1  0
 21 20  2  0
 21 27  1  0
 23 22  1  1
 22 21  1  0
 23 25  1  0
 23 24  1  0
 25 26  1  0
 27 28  2  0
 28 18  1  0
 29 25  2  0
M  END
$$$$
