DLY.pdb
     RDKit          3D

 29 29  0  0  1  0  0  0  0  0999 V2000
    7.4262  -18.5424   20.7390 N   0  0  0  0  0  0  0  0  0  0  0  0
    8.6492  -18.6855   19.9839 C   0  0  1  0  0  0  0  0  0  0  0  0
    8.3228  -19.0009   18.5615 C   0  0  0  0  0  0  0  0  0  0  0  0
    7.6938  -20.3046   18.3296 C   0  0  0  0  0  0  0  0  0  0  0  0
    7.3904  -21.1428   19.2013 O   0  0  0  0  0  0  0  0  0  0  0  0
    9.4923  -17.4585   20.0781 C   0  0  0  0  0  0  0  0  0  0  0  0
   10.6350  -17.4160   19.5064 O   0  0  0  0  0  0  0  0  0  0  0  0
    7.4064  -20.6424   17.0085 O   0  0  0  0  0  0  0  0  0  0  0  0
    7.2023  -12.5587   20.6241 C   0  0  0  0  0  0  0  0  0  0  0  0
    7.8036  -13.9425   20.7489 C   0  0  1  0  0  0  0  0  0  0  0  0
    7.1805  -14.7696   19.6223 C   0  0  0  0  0  0  0  0  0  0  0  0
    9.2742  -13.9154   20.5247 C   0  0  0  0  0  0  0  0  0  0  0  0
   10.0029  -15.1537   20.9522 C   0  0  2  0  0  0  0  0  0  0  0  0
    9.1169  -16.2964   20.7743 N   0  0  0  0  0  0  0  0  0  0  0  0
   10.5094  -15.0795   22.3388 C   0  0  0  0  0  0  0  0  0  0  0  0
   11.3019  -14.1665   22.6398 O   0  0  0  0  0  0  0  0  0  0  0  0
   10.7091  -15.3432   31.1380 O   0  0  0  0  0  0  0  0  0  0  0  0
   10.4047  -15.4185   29.7812 C   0  0  0  0  0  0  0  0  0  0  0  0
   10.2212  -14.2696   29.0419 C   0  0  0  0  0  0  0  0  0  0  0  0
    9.9184  -14.3114   27.6940 C   0  0  0  0  0  0  0  0  0  0  0  0
    9.7858  -15.5119   27.0251 C   0  0  0  0  0  0  0  0  0  0  0  0
    9.4607  -15.6157   25.5865 C   0  0  0  0  0  0  0  0  0  0  0  0
   10.6496  -15.9482   24.7172 C   0  0  2  0  0  0  0  0  0  0  0  0
   10.1248  -16.0141   23.3451 N   0  0  0  0  0  0  0  0  0  0  0  0
   11.2296  -17.2807   24.9971 C   0  0  0  0  0  0  0  0  0  0  0  0
   12.2968  -17.4862   25.8639 O   0  0  0  0  0  0  0  0  0  0  0  0
    9.9677  -16.6664   27.7573 C   0  0  0  0  0  0  0  0  0  0  0  0
   10.2735  -16.6203   29.1184 C   0  0  0  0  0  0  0  0  0  0  0  0
   10.7231  -18.2974   24.4113 O   0  0  0  0  0  0  0  0  0  0  0  0
  2  1  1  1
  2  3  1  0
  4  3  1  0
  4  8  1  0
  5  4  2  0
  6  2  1  0
  7  6  2  0
 10 12  1  0
 10  9  1  6
 11 10  1  0
 13 12  1  1
 13 14  1  0
 14  6  1  0
 15 24  1  0
 15 13  1  0
 16 15  2  0
 18 17  1  0
 19 18  2  0
 20 19  1  0
 21 20  2  0
 21 27  1  0
 23 22  1  1
 22 21  1  0
 23 25  1  0
 23 24  1  0
 25 26  1  0
 27 28  2  0
 28 18  1  0
 29 25  2  0
M  END
$$$$
