DLY.pdb
     RDKit          3D

 29 29  0  0  1  0  0  0  0  0999 V2000
    8.7305  -18.7744   20.4053 N   0  0  0  0  0  0  0  0  0  0  0  0
    9.9883  -18.1984   19.9900 C   0  0  1  0  0  0  0  0  0  0  0  0
   10.0550  -18.1695   18.4986 C   0  0  0  0  0  0  0  0  0  0  0  0
   10.1642  -19.4766   17.8438 C   0  0  0  0  0  0  0  0  0  0  0  0
   10.1778  -20.5869   18.4107 O   0  0  0  0  0  0  0  0  0  0  0  0
   10.1738  -16.8318   20.5585 C   0  0  0  0  0  0  0  0  0  0  0  0
   11.2831  -16.2151   20.4057 O   0  0  0  0  0  0  0  0  0  0  0  0
   10.2625  -19.4814   16.4536 O   0  0  0  0  0  0  0  0  0  0  0  0
    6.5975  -13.0988   20.0323 C   0  0  0  0  0  0  0  0  0  0  0  0
    7.8930  -13.8617   20.2095 C   0  0  1  0  0  0  0  0  0  0  0  0
    8.9633  -13.0353   19.4931 C   0  0  0  0  0  0  0  0  0  0  0  0
    8.2785  -13.9473   21.6440 C   0  0  0  0  0  0  0  0  0  0  0  0
    9.4303  -14.8609   21.9368 C   0  0  2  0  0  0  0  0  0  0  0  0
    9.1864  -16.1378   21.2795 N   0  0  0  0  0  0  0  0  0  0  0  0
    9.6749  -15.0412   23.3833 C   0  0  0  0  0  0  0  0  0  0  0  0
   10.2052  -14.1123   24.0223 O   0  0  0  0  0  0  0  0  0  0  0  0
    6.1162  -11.1273   26.8310 O   0  0  0  0  0  0  0  0  0  0  0  0
    6.6295  -12.4112   26.6662 C   0  0  0  0  0  0  0  0  0  0  0  0
    5.8288  -13.4278   26.1911 C   0  0  0  0  0  0  0  0  0  0  0  0
    6.3089  -14.7120   26.0166 C   0  0  0  0  0  0  0  0  0  0  0  0
    7.6184  -15.0351   26.3120 C   0  0  0  0  0  0  0  0  0  0  0  0
    8.1838  -16.3912   26.1473 C   0  0  0  0  0  0  0  0  0  0  0  0
    9.5561  -16.4052   25.5178 C   0  0  2  0  0  0  0  0  0  0  0  0
    9.3265  -16.2388   24.0749 N   0  0  0  0  0  0  0  0  0  0  0  0
   10.2621  -17.6968   25.6728 C   0  0  0  0  0  0  0  0  0  0  0  0
   10.6436  -18.4959   24.6012 O   0  0  0  0  0  0  0  0  0  0  0  0
    8.4264  -14.0239   26.7879 C   0  0  0  0  0  0  0  0  0  0  0  0
    7.9382  -12.7280   26.9628 C   0  0  0  0  0  0  0  0  0  0  0  0
   10.5361  -18.0998   26.8542 O   0  0  0  0  0  0  0  0  0  0  0  0
  2  1  1  6
  2  3  1  0
  4  3  1  0
  4  8  1  0
  5  4  2  0
  6  2  1  0
  7  6  2  0
 10 12  1  0
 10  9  1  1
 11 10  1  0
 13 12  1  1
 13 14  1  0
 14  6  1  0
 15 24  1  0
 15 13  1  0
 16 15  2  0
 18 17  1  0
 19 18  2  0
 20 19  1  0
 21 20  2  0
 21 27  1  0
 23 22  1  1
 22 21  1  0
 23 25  1  0
 23 24  1  0
 25 26  1  0
 27 28  2  0
 28 18  1  0
 29 25  2  0
M  END
$$$$
