YNI.pdb
     RDKit          3D

 29 29  0  0  1  0  0  0  0  0999 V2000
   19.4049  -17.5534  -17.5799 O   0  0  0  0  0  0  0  0  0  0  0  0
   19.1890  -16.1955  -17.3747 C   0  0  0  0  0  0  0  0  0  0  0  0
   19.9128  -15.4249  -16.5008 C   0  0  0  0  0  0  0  0  0  0  0  0
   19.6313  -14.0668  -16.3548 C   0  0  0  0  0  0  0  0  0  0  0  0
   18.6300  -13.4489  -17.0706 C   0  0  0  0  0  0  0  0  0  0  0  0
   18.3029  -12.0159  -16.9434 C   0  0  0  0  0  0  0  0  0  0  0  0
   17.1775  -11.7844  -15.9315 C   0  0  2  0  0  0  0  0  0  0  0  0
   15.9561  -12.4100  -16.3872 N   0  0  0  0  0  0  0  0  0  0  0  0
   17.0607  -10.3131  -15.7894 C   0  0  0  0  0  0  0  0  0  0  0  0
   16.0811   -9.7668  -16.3594 O   0  0  0  0  0  0  0  0  0  0  0  0
   17.8986  -14.2255  -17.9531 C   0  0  0  0  0  0  0  0  0  0  0  0
   18.1837  -15.5846  -18.0958 C   0  0  0  0  0  0  0  0  0  0  0  0
   16.0128   -5.5015  -13.0492 N   0  0  0  0  0  0  0  0  0  0  0  0
   16.4310   -6.1750  -14.2343 C   0  0  0  0  0  0  0  0  0  0  0  0
   16.7314   -5.4837  -15.2217 O   0  0  0  0  0  0  0  0  0  0  0  0
   16.5075   -7.6492  -14.2905 C   0  0  0  0  0  0  0  0  0  0  0  0
   17.7932   -8.0464  -14.9838 C   0  0  2  0  0  0  0  0  0  0  0  0
   17.9451   -9.4826  -15.0779 N   0  0  0  0  0  0  0  0  0  0  0  0
   18.9102   -7.4065  -14.2667 C   0  0  0  0  0  0  0  0  0  0  0  0
   19.1771   -7.6015  -13.0488 O   0  0  0  0  0  0  0  0  0  0  0  0
   24.3702   -6.9822  -16.7125 C   0  0  0  0  0  0  0  0  0  0  0  0
   23.5059   -6.5262  -15.5877 C   0  0  0  0  0  0  0  0  0  0  0  0
   22.0327   -6.7151  -15.7698 C   0  0  2  0  0  0  0  0  0  0  0  0
   21.6568   -6.3025  -17.1637 C   0  0  0  0  0  0  0  0  0  0  0  0
   21.1473   -6.2717  -14.6735 C   0  0  2  0  0  0  0  0  0  0  0  0
   19.7398   -6.5157  -14.9886 N   0  0  0  0  0  0  0  0  0  0  0  0
   21.3094   -4.9232  -14.1345 C   0  0  0  0  0  0  0  0  0  0  0  0
   20.4417   -4.0368  -14.4389 O   0  0  0  0  0  0  0  0  0  0  0  0
   22.3181   -4.4775  -13.3049 O   0  0  0  0  0  0  0  0  0  0  0  0
  2  1  1  0
  3  2  2  0
  4  3  1  0
  5 11  1  0
  5  4  2  0
  6  5  1  0
  7  8  1  6
  7  6  1  0
  9  7  1  0
 10  9  2  0
 11 12  2  0
 12  2  1  0
 13 14  1  0
 14 15  2  0
 16 14  1  0
 17 16  1  1
 17 18  1  0
 18  9  1  0
 19 26  1  0
 19 17  1  0
 20 19  2  0
 22 21  1  0
 23 22  1  0
 23 24  1  6
 25 23  1  0
 25 26  1  6
 27 25  1  0
 28 27  2  0
 29 27  1  0
M  END
$$$$
