YNI.pdb
     RDKit          3D

 29 29  0  0  1  0  0  0  0  0999 V2000
   29.0094  -19.6854   -3.4718 O   0  0  0  0  0  0  0  0  0  0  0  0
   28.6029  -19.6164   -4.7995 C   0  0  0  0  0  0  0  0  0  0  0  0
   29.2548  -18.8953   -5.7672 C   0  0  0  0  0  0  0  0  0  0  0  0
   28.7797  -18.8797   -7.0783 C   0  0  0  0  0  0  0  0  0  0  0  0
   27.6528  -19.5768   -7.4536 C   0  0  0  0  0  0  0  0  0  0  0  0
   27.1201  -19.5844   -8.8294 C   0  0  0  0  0  0  0  0  0  0  0  0
   27.3260  -20.9433   -9.5040 C   0  0  2  0  0  0  0  0  0  0  0  0
   28.7287  -21.2943   -9.5081 N   0  0  0  0  0  0  0  0  0  0  0  0
   26.7555  -20.8069  -10.8658 C   0  0  0  0  0  0  0  0  0  0  0  0
   27.5631  -20.5364  -11.7918 O   0  0  0  0  0  0  0  0  0  0  0  0
   26.9937  -20.3051   -6.4778 C   0  0  0  0  0  0  0  0  0  0  0  0
   27.4727  -20.3177   -5.1666 C   0  0  0  0  0  0  0  0  0  0  0  0
   24.6928  -23.9092  -15.0523 N   0  0  0  0  0  0  0  0  0  0  0  0
   25.0559  -22.6365  -14.5219 C   0  0  0  0  0  0  0  0  0  0  0  0
   24.9796  -21.6497  -15.2724 O   0  0  0  0  0  0  0  0  0  0  0  0
   25.5084  -22.4909  -13.1231 C   0  0  0  0  0  0  0  0  0  0  0  0
   24.9365  -21.2096  -12.5548 C   0  0  2  0  0  0  0  0  0  0  0  0
   25.3990  -20.9523  -11.2078 N   0  0  0  0  0  0  0  0  0  0  0  0
   23.4679  -21.2923  -12.6412 C   0  0  0  0  0  0  0  0  0  0  0  0
   22.7412  -21.9084  -11.8138 O   0  0  0  0  0  0  0  0  0  0  0  0
   19.8777  -16.8824  -15.0687 C   0  0  0  0  0  0  0  0  0  0  0  0
   19.9709  -18.1999  -14.3789 C   0  0  0  0  0  0  0  0  0  0  0  0
   21.3187  -18.8498  -14.3781 C   0  0  2  0  0  0  0  0  0  0  0  0
   21.9080  -18.7523  -15.7557 C   0  0  0  0  0  0  0  0  0  0  0  0
   21.4519  -20.1438  -13.6779 C   0  0  2  0  0  0  0  0  0  0  0  0
   22.8280  -20.6379  -13.7209 N   0  0  0  0  0  0  0  0  0  0  0  0
   20.5252  -21.2248  -14.0067 C   0  0  0  0  0  0  0  0  0  0  0  0
   20.8748  -22.0802  -14.8883 O   0  0  0  0  0  0  0  0  0  0  0  0
   19.2779  -21.4432  -13.4581 O   0  0  0  0  0  0  0  0  0  0  0  0
  2  1  1  0
  3  2  2  0
  4  3  1  0
  5 11  1  0
  5  4  2  0
  6  5  1  0
  7  8  1  6
  7  6  1  0
  9  7  1  0
 10  9  2  0
 11 12  2  0
 12  2  1  0
 13 14  1  0
 14 15  2  0
 16 14  1  0
 17 16  1  1
 17 18  1  0
 18  9  1  0
 19 26  1  0
 19 17  1  0
 20 19  2  0
 22 21  1  0
 23 22  1  0
 23 24  1  6
 25 23  1  0
 25 26  1  6
 27 25  1  0
 28 27  2  0
 29 27  1  0
M  END
$$$$
