YNI.pdb
     RDKit          3D

 29 29  0  0  1  0  0  0  0  0999 V2000
   30.9368  -27.3519  -17.4966 O   0  0  0  0  0  0  0  0  0  0  0  0
   30.3371  -26.1540  -17.1250 C   0  0  0  0  0  0  0  0  0  0  0  0
   30.9907  -24.9491  -17.0765 C   0  0  0  0  0  0  0  0  0  0  0  0
   30.3135  -23.7919  -16.6925 C   0  0  0  0  0  0  0  0  0  0  0  0
   28.9796  -23.8076  -16.3506 C   0  0  0  0  0  0  0  0  0  0  0  0
   28.2298  -22.6053  -15.9395 C   0  0  0  0  0  0  0  0  0  0  0  0
   27.3477  -22.0780  -17.0744 C   0  0  2  0  0  0  0  0  0  0  0  0
   28.1547  -21.3980  -18.0629 N   0  0  0  0  0  0  0  0  0  0  0  0
   26.3482  -21.1930  -16.4290 C   0  0  0  0  0  0  0  0  0  0  0  0
   26.7838  -20.1313  -15.9133 O   0  0  0  0  0  0  0  0  0  0  0  0
   28.3186  -25.0232  -16.3989 C   0  0  0  0  0  0  0  0  0  0  0  0
   29.0005  -26.1790  -16.7836 C   0  0  0  0  0  0  0  0  0  0  0  0
   23.9269  -18.0940  -17.7450 N   0  0  0  0  0  0  0  0  0  0  0  0
   23.4934  -19.4515  -17.7921 C   0  0  0  0  0  0  0  0  0  0  0  0
   23.6206  -20.0665  -18.8639 O   0  0  0  0  0  0  0  0  0  0  0  0
   22.9116  -20.1110  -16.6052 C   0  0  0  0  0  0  0  0  0  0  0  0
   24.0342  -20.5459  -15.6875 C   0  0  2  0  0  0  0  0  0  0  0  0
   24.9658  -21.4376  -16.3444 N   0  0  0  0  0  0  0  0  0  0  0  0
   23.4292  -21.1471  -14.4859 C   0  0  0  0  0  0  0  0  0  0  0  0
   22.9823  -22.3258  -14.4296 O   0  0  0  0  0  0  0  0  0  0  0  0
   26.0847  -20.3212   -9.9722 C   0  0  0  0  0  0  0  0  0  0  0  0
   25.1707  -20.8801  -11.0077 C   0  0  0  0  0  0  0  0  0  0  0  0
   23.7384  -20.4557  -10.9212 C   0  0  2  0  0  0  0  0  0  0  0  0
   23.2413  -20.6983   -9.5253 C   0  0  0  0  0  0  0  0  0  0  0  0
   22.8440  -20.8415  -12.0319 C   0  0  2  0  0  0  0  0  0  0  0  0
   23.3435  -20.3534  -13.3172 N   0  0  0  0  0  0  0  0  0  0  0  0
   21.4137  -20.5653  -11.9172 C   0  0  0  0  0  0  0  0  0  0  0  0
   20.9698  -19.4543  -12.3641 O   0  0  0  0  0  0  0  0  0  0  0  0
   20.4514  -21.3892  -11.3700 O   0  0  0  0  0  0  0  0  0  0  0  0
  2  1  1  0
  3  2  2  0
  4  3  1  0
  5 11  1  0
  5  4  2  0
  6  5  1  0
  7  8  1  6
  7  6  1  0
  9  7  1  0
 10  9  2  0
 11 12  2  0
 12  2  1  0
 13 14  1  0
 14 15  2  0
 16 14  1  0
 17 16  1  6
 17 18  1  0
 18  9  1  0
 19 26  1  0
 19 17  1  0
 20 19  2  0
 22 21  1  0
 23 22  1  0
 23 24  1  1
 25 23  1  0
 25 26  1  6
 27 25  1  0
 28 27  2  0
 29 27  1  0
M  END
$$$$
