YNI.pdb
     RDKit          3D

 29 29  0  0  1  0  0  0  0  0999 V2000
   28.7486  -19.4052   -4.0300 O   0  0  0  0  0  0  0  0  0  0  0  0
   28.2743  -19.5427   -5.3295 C   0  0  0  0  0  0  0  0  0  0  0  0
   27.0278  -20.0188   -5.6472 C   0  0  0  0  0  0  0  0  0  0  0  0
   26.6294  -20.1250   -6.9796 C   0  0  0  0  0  0  0  0  0  0  0  0
   27.4569  -19.7621   -8.0188 C   0  0  0  0  0  0  0  0  0  0  0  0
   27.0714  -19.8602   -9.4395 C   0  0  0  0  0  0  0  0  0  0  0  0
   27.3311  -21.2625   -9.9965 C   0  0  2  0  0  0  0  0  0  0  0  0
   28.7191  -21.6253   -9.8159 N   0  0  0  0  0  0  0  0  0  0  0  0
   26.9227  -21.2115  -11.4210 C   0  0  0  0  0  0  0  0  0  0  0  0
   27.7404  -21.6711  -12.2595 O   0  0  0  0  0  0  0  0  0  0  0  0
   28.7155  -19.2815   -7.6997 C   0  0  0  0  0  0  0  0  0  0  0  0
   29.1101  -19.1771   -6.3647 C   0  0  0  0  0  0  0  0  0  0  0  0
   24.4575  -23.9017  -14.6423 N   0  0  0  0  0  0  0  0  0  0  0  0
   23.7735  -23.4820  -13.4638 C   0  0  0  0  0  0  0  0  0  0  0  0
   22.5590  -23.7282  -13.3766 O   0  0  0  0  0  0  0  0  0  0  0  0
   24.4831  -22.7769  -12.3768 C   0  0  0  0  0  0  0  0  0  0  0  0
   24.8685  -21.3950  -12.8598 C   0  0  2  0  0  0  0  0  0  0  0  0
   25.7091  -20.6966  -11.9110 N   0  0  0  0  0  0  0  0  0  0  0  0
   23.6283  -20.6596  -13.1633 C   0  0  0  0  0  0  0  0  0  0  0  0
   22.7618  -20.3424  -12.3026 O   0  0  0  0  0  0  0  0  0  0  0  0
   25.2409  -15.9097  -15.9364 C   0  0  0  0  0  0  0  0  0  0  0  0
   24.0174  -16.6817  -15.5800 C   0  0  0  0  0  0  0  0  0  0  0  0
   24.2138  -18.1400  -15.3084 C   0  0  2  0  0  0  0  0  0  0  0  0
   25.1054  -18.7179  -16.3694 C   0  0  0  0  0  0  0  0  0  0  0  0
   23.0254  -18.9286  -14.9235 C   0  0  2  0  0  0  0  0  0  0  0  0
   23.3915  -20.2821  -14.5067 N   0  0  0  0  0  0  0  0  0  0  0  0
   21.8851  -18.9809  -15.8358 C   0  0  0  0  0  0  0  0  0  0  0  0
   21.7502  -20.0067  -16.5846 O   0  0  0  0  0  0  0  0  0  0  0  0
   20.9007  -18.0259  -15.9882 O   0  0  0  0  0  0  0  0  0  0  0  0
  2  1  1  0
  3  2  2  0
  4  3  1  0
  5 11  1  0
  5  4  2  0
  6  5  1  0
  7  8  1  6
  7  6  1  0
  9  7  1  0
 10  9  2  0
 11 12  2  0
 12  2  1  0
 13 14  1  0
 14 15  2  0
 16 14  1  0
 17 16  1  1
 17 18  1  0
 18  9  1  0
 19 26  1  0
 19 17  1  0
 20 19  2  0
 22 21  1  0
 23 22  1  0
 23 24  1  6
 25 23  1  0
 25 26  1  6
 27 25  1  0
 28 27  2  0
 29 27  1  0
M  END
$$$$
