YNI.pdb
     RDKit          3D

 29 29  0  0  1  0  0  0  0  0999 V2000
   28.7502  -12.5800  -17.7447 O   0  0  0  0  0  0  0  0  0  0  0  0
   28.1378  -13.7040  -17.2024 C   0  0  0  0  0  0  0  0  0  0  0  0
   27.9304  -13.8949  -15.8600 C   0  0  0  0  0  0  0  0  0  0  0  0
   27.3066  -15.0537  -15.3983 C   0  0  0  0  0  0  0  0  0  0  0  0
   26.8779  -16.0420  -16.2563 C   0  0  0  0  0  0  0  0  0  0  0  0
   26.2149  -17.2806  -15.8058 C   0  0  0  0  0  0  0  0  0  0  0  0
   27.2239  -18.2847  -15.2420 C   0  0  2  0  0  0  0  0  0  0  0  0
   27.9691  -18.9040  -16.3152 N   0  0  0  0  0  0  0  0  0  0  0  0
   26.4279  -19.2535  -14.4505 C   0  0  0  0  0  0  0  0  0  0  0  0
   26.0432  -20.2908  -15.0495 O   0  0  0  0  0  0  0  0  0  0  0  0
   27.0866  -15.8507  -17.6115 C   0  0  0  0  0  0  0  0  0  0  0  0
   27.7116  -14.6894  -18.0692 C   0  0  0  0  0  0  0  0  0  0  0  0
   25.5230  -22.2396   -9.6504 N   0  0  0  0  0  0  0  0  0  0  0  0
   24.8597  -21.0892  -10.1697 C   0  0  0  0  0  0  0  0  0  0  0  0
   23.6284  -21.0120  -10.0247 O   0  0  0  0  0  0  0  0  0  0  0  0
   25.6096  -20.0189  -10.8585 C   0  0  0  0  0  0  0  0  0  0  0  0
   25.3617  -20.1283  -12.3478 C   0  0  2  0  0  0  0  0  0  0  0  0
   26.0686  -19.1125  -13.0980 N   0  0  0  0  0  0  0  0  0  0  0  0
   23.9055  -20.0821  -12.5686 C   0  0  0  0  0  0  0  0  0  0  0  0
   23.2164  -19.0254  -12.5432 O   0  0  0  0  0  0  0  0  0  0  0  0
   20.1069  -23.0934  -16.2379 C   0  0  0  0  0  0  0  0  0  0  0  0
   20.2503  -22.3226  -14.9708 C   0  0  0  0  0  0  0  0  0  0  0  0
   21.6416  -22.1824  -14.4383 C   0  0  2  0  0  0  0  0  0  0  0  0
   22.3264  -23.5169  -14.5057 C   0  0  0  0  0  0  0  0  0  0  0  0
   21.8230  -21.3932  -13.2026 C   0  0  2  0  0  0  0  0  0  0  0  0
   23.2338  -21.3007  -12.8274 N   0  0  0  0  0  0  0  0  0  0  0  0
   21.0169  -21.7215  -12.0288 C   0  0  0  0  0  0  0  0  0  0  0  0
   21.5072  -22.5135  -11.1550 O   0  0  0  0  0  0  0  0  0  0  0  0
   19.7493  -21.2602  -11.7381 O   0  0  0  0  0  0  0  0  0  0  0  0
  2  1  1  0
  3  2  2  0
  4  3  1  0
  5 11  1  0
  5  4  2  0
  6  5  1  0
  7  8  1  6
  7  6  1  0
  9  7  1  0
 10  9  2  0
 11 12  2  0
 12  2  1  0
 13 14  1  0
 14 15  2  0
 16 14  1  0
 17 16  1  1
 17 18  1  0
 18  9  1  0
 19 26  1  0
 19 17  1  0
 20 19  2  0
 22 21  1  0
 23 22  1  0
 23 24  1  1
 25 23  1  0
 25 26  1  1
 27 25  1  0
 28 27  2  0
 29 27  1  0
M  END
$$$$
