YNI.pdb
     RDKit          3D

 29 29  0  0  1  0  0  0  0  0999 V2000
   28.7023  -19.4182   -4.2810 O   0  0  0  0  0  0  0  0  0  0  0  0
   28.0903  -19.5596   -5.5212 C   0  0  0  0  0  0  0  0  0  0  0  0
   27.1539  -20.5188   -5.8120 C   0  0  0  0  0  0  0  0  0  0  0  0
   26.5874  -20.5916   -7.0844 C   0  0  0  0  0  0  0  0  0  0  0  0
   26.9374  -19.7173   -8.0891 C   0  0  0  0  0  0  0  0  0  0  0  0
   26.3607  -19.7630   -9.4464 C   0  0  0  0  0  0  0  0  0  0  0  0
   26.6447  -21.1018  -10.1326 C   0  0  2  0  0  0  0  0  0  0  0  0
   28.0697  -21.3365  -10.2051 N   0  0  0  0  0  0  0  0  0  0  0  0
   25.9998  -21.0158  -11.4650 C   0  0  0  0  0  0  0  0  0  0  0  0
   25.7655  -19.8607  -11.9052 O   0  0  0  0  0  0  0  0  0  0  0  0
   27.8825  -18.7486   -7.7971 C   0  0  0  0  0  0  0  0  0  0  0  0
   28.4471  -18.6796   -6.5222 C   0  0  0  0  0  0  0  0  0  0  0  0
   23.8657  -23.8779  -15.0502 N   0  0  0  0  0  0  0  0  0  0  0  0
   23.3754  -24.2576  -13.7664 C   0  0  0  0  0  0  0  0  0  0  0  0
   22.7948  -25.3511  -13.6649 O   0  0  0  0  0  0  0  0  0  0  0  0
   23.5511  -23.3816  -12.5899 C   0  0  0  0  0  0  0  0  0  0  0  0
   24.3779  -22.1796  -12.9941 C   0  0  2  0  0  0  0  0  0  0  0  0
   25.6299  -22.1067  -12.2719 N   0  0  0  0  0  0  0  0  0  0  0  0
   23.5479  -20.9764  -12.8078 C   0  0  0  0  0  0  0  0  0  0  0  0
   23.8177  -20.0455  -11.9997 O   0  0  0  0  0  0  0  0  0  0  0  0
   23.7200  -17.0365  -16.4535 C   0  0  0  0  0  0  0  0  0  0  0  0
   22.7123  -17.5728  -15.4958 C   0  0  0  0  0  0  0  0  0  0  0  0
   23.0029  -18.9232  -14.9204 C   0  0  2  0  0  0  0  0  0  0  0  0
   23.7518  -19.7356  -15.9371 C   0  0  0  0  0  0  0  0  0  0  0  0
   21.9150  -19.6001  -14.1852 C   0  0  2  0  0  0  0  0  0  0  0  0
   22.3718  -20.8536  -13.5854 N   0  0  0  0  0  0  0  0  0  0  0  0
   20.6318  -19.8071  -14.8529 C   0  0  0  0  0  0  0  0  0  0  0  0
   20.4547  -20.8871  -15.5113 O   0  0  0  0  0  0  0  0  0  0  0  0
   19.5501  -18.9502  -14.8546 O   0  0  0  0  0  0  0  0  0  0  0  0
  2  1  1  0
  3  2  2  0
  4  3  1  0
  5 11  1  0
  5  4  2  0
  6  5  1  0
  7  8  1  6
  7  6  1  0
  9  7  1  0
 10  9  2  0
 11 12  2  0
 12  2  1  0
 13 14  1  0
 14 15  2  0
 16 14  1  0
 17 16  1  1
 17 18  1  0
 18  9  1  0
 19 26  1  0
 19 17  1  0
 20 19  2  0
 22 21  1  0
 23 22  1  0
 23 24  1  6
 25 23  1  0
 25 26  1  6
 27 25  1  0
 28 27  2  0
 29 27  1  0
M  END
$$$$
