YNI.pdb
     RDKit          3D

 29 29  0  0  1  0  0  0  0  0999 V2000
   26.3973  -12.7568  -18.0844 O   0  0  0  0  0  0  0  0  0  0  0  0
   26.2137  -14.0215  -17.5372 C   0  0  0  0  0  0  0  0  0  0  0  0
   25.4893  -15.0208  -18.1355 C   0  0  0  0  0  0  0  0  0  0  0  0
   25.3543  -16.2639  -17.5177 C   0  0  0  0  0  0  0  0  0  0  0  0
   25.9334  -16.5387  -16.2988 C   0  0  0  0  0  0  0  0  0  0  0  0
   25.8128  -17.8403  -15.6146 C   0  0  0  0  0  0  0  0  0  0  0  0
   26.7459  -18.8868  -16.2296 C   0  0  2  0  0  0  0  0  0  0  0  0
   26.1223  -19.5007  -17.3808 N   0  0  0  0  0  0  0  0  0  0  0  0
   27.0404  -19.8514  -15.1427 C   0  0  0  0  0  0  0  0  0  0  0  0
   26.2345  -20.8073  -15.0025 O   0  0  0  0  0  0  0  0  0  0  0  0
   26.6648  -15.5309  -15.6936 C   0  0  0  0  0  0  0  0  0  0  0  0
   26.7971  -14.2881  -16.3155 C   0  0  0  0  0  0  0  0  0  0  0  0
   28.4891  -22.1314  -10.8479 N   0  0  0  0  0  0  0  0  0  0  0  0
   29.6017  -21.3056  -11.1846 C   0  0  0  0  0  0  0  0  0  0  0  0
   30.6130  -21.3698  -10.4662 O   0  0  0  0  0  0  0  0  0  0  0  0
   29.5581  -20.4008  -12.3516 C   0  0  0  0  0  0  0  0  0  0  0  0
   28.2060  -20.5294  -13.0202 C   0  0  2  0  0  0  0  0  0  0  0  0
   28.1350  -19.7891  -14.2617 N   0  0  0  0  0  0  0  0  0  0  0  0
   27.1800  -20.1060  -12.0510 C   0  0  0  0  0  0  0  0  0  0  0  0
   27.0134  -18.9154  -11.6676 O   0  0  0  0  0  0  0  0  0  0  0  0
   22.9696  -19.2672  -12.6005 C   0  0  0  0  0  0  0  0  0  0  0  0
   23.6190  -20.6075  -12.5554 C   0  0  0  0  0  0  0  0  0  0  0  0
   23.9150  -21.1511  -11.1931 C   0  0  2  0  0  0  0  0  0  0  0  0
   22.7004  -20.9832  -10.3265 C   0  0  0  0  0  0  0  0  0  0  0  0
   25.2227  -20.8149  -10.5936 C   0  0  2  0  0  0  0  0  0  0  0  0
   26.3235  -21.0969  -11.5147 N   0  0  0  0  0  0  0  0  0  0  0  0
   25.5439  -21.3275   -9.2634 C   0  0  0  0  0  0  0  0  0  0  0  0
   25.4284  -20.5416   -8.2632 O   0  0  0  0  0  0  0  0  0  0  0  0
   25.9668  -22.6020   -8.9457 O   0  0  0  0  0  0  0  0  0  0  0  0
  2  1  1  0
  3  2  2  0
  4  3  1  0
  5 11  1  0
  5  4  2  0
  6  5  1  0
  7  8  1  6
  7  6  1  0
  9  7  1  0
 10  9  2  0
 11 12  2  0
 12  2  1  0
 13 14  1  0
 14 15  2  0
 16 14  1  0
 17 16  1  1
 17 18  1  0
 18  9  1  0
 19 26  1  0
 19 17  1  0
 20 19  2  0
 22 21  1  0
 23 22  1  0
 23 24  1  1
 25 23  1  0
 25 26  1  6
 27 25  1  0
 28 27  2  0
 29 27  1  0
M  END
$$$$
