YNI.pdb
     RDKit          3D

 29 29  0  0  1  0  0  0  0  0999 V2000
   22.2111  -18.8581  -15.4882 O   0  0  0  0  0  0  0  0  0  0  0  0
   21.8835  -17.5642  -15.8772 C   0  0  0  0  0  0  0  0  0  0  0  0
   21.4249  -17.2291  -17.1258 C   0  0  0  0  0  0  0  0  0  0  0  0
   21.1182  -15.9042  -17.4347 C   0  0  0  0  0  0  0  0  0  0  0  0
   21.2598  -14.8896  -16.5143 C   0  0  0  0  0  0  0  0  0  0  0  0
   20.9461  -13.4773  -16.8039 C   0  0  0  0  0  0  0  0  0  0  0  0
   19.5058  -13.1311  -16.4167 C   0  0  2  0  0  0  0  0  0  0  0  0
   18.5737  -13.8974  -17.2135 N   0  0  0  0  0  0  0  0  0  0  0  0
   19.3766  -11.6674  -16.6157 C   0  0  0  0  0  0  0  0  0  0  0  0
   19.3010  -11.2639  -17.8049 O   0  0  0  0  0  0  0  0  0  0  0  0
   21.7228  -15.2263  -15.2537 C   0  0  0  0  0  0  0  0  0  0  0  0
   22.0288  -16.5538  -14.9489 C   0  0  0  0  0  0  0  0  0  0  0  0
   16.2807   -8.8132  -17.3277 N   0  0  0  0  0  0  0  0  0  0  0  0
   16.8282   -9.3751  -16.1371 C   0  0  0  0  0  0  0  0  0  0  0  0
   16.3631  -10.4547  -15.7355 O   0  0  0  0  0  0  0  0  0  0  0  0
   17.9159   -8.6986  -15.4012 C   0  0  0  0  0  0  0  0  0  0  0  0
   19.2419   -9.2769  -15.8471 C   0  0  2  0  0  0  0  0  0  0  0  0
   19.3324  -10.6994  -15.5963 N   0  0  0  0  0  0  0  0  0  0  0  0
   20.3140   -8.5169  -15.1805 C   0  0  0  0  0  0  0  0  0  0  0  0
   20.8110   -8.8222  -14.0616 O   0  0  0  0  0  0  0  0  0  0  0  0
   25.3080   -5.5542  -16.9350 C   0  0  0  0  0  0  0  0  0  0  0  0
   24.2049   -5.6135  -15.9351 C   0  0  0  0  0  0  0  0  0  0  0  0
   23.0240   -6.4546  -16.3053 C   0  0  2  0  0  0  0  0  0  0  0  0
   22.6471   -6.1660  -17.7298 C   0  0  0  0  0  0  0  0  0  0  0  0
   21.9241   -6.5562  -15.3243 C   0  0  2  0  0  0  0  0  0  0  0  0
   20.8219   -7.3702  -15.8364 N   0  0  0  0  0  0  0  0  0  0  0  0
   21.3999   -5.3333  -14.7199 C   0  0  0  0  0  0  0  0  0  0  0  0
   20.2582   -4.9062  -15.1010 O   0  0  0  0  0  0  0  0  0  0  0  0
   22.0076   -4.5606  -13.7515 O   0  0  0  0  0  0  0  0  0  0  0  0
  2  1  1  0
  3  2  2  0
  4  3  1  0
  5 11  1  0
  5  4  2  0
  6  5  1  0
  7  8  1  6
  7  6  1  0
  9  7  1  0
 10  9  2  0
 11 12  2  0
 12  2  1  0
 13 14  1  0
 14 15  2  0
 16 14  1  0
 17 16  1  1
 17 18  1  0
 18  9  1  0
 19 26  1  0
 19 17  1  0
 20 19  2  0
 22 21  1  0
 23 22  1  0
 23 24  1  6
 25 23  1  0
 25 26  1  6
 27 25  1  0
 28 27  2  0
 29 27  1  0
M  END
$$$$
