WFE.pdb
     RDKit          3D

 35 37  0  0  1  0  0  0  0  0999 V2000
   27.0439  -20.7215  -17.0277 N   0  0  0  0  0  0  0  0  0  0  0  0
   27.1644  -19.9597  -15.8279 C   0  0  1  0  0  0  0  0  0  0  0  0
   26.3514  -18.6910  -15.9229 C   0  0  0  0  0  0  0  0  0  0  0  0
   26.9674  -17.8250  -16.9585 C   0  0  0  0  0  0  0  0  0  0  0  0
   26.2427  -17.0194  -17.8450 C   0  0  0  0  0  0  0  0  0  0  0  0
   27.0794  -16.3280  -18.6343 N   0  0  0  0  0  0  0  0  0  0  0  0
   28.3360  -16.6603  -18.2882 C   0  0  0  0  0  0  0  0  0  0  0  0
   29.5640  -16.2289  -18.8055 C   0  0  0  0  0  0  0  0  0  0  0  0
   30.7399  -16.7252  -18.2871 C   0  0  0  0  0  0  0  0  0  0  0  0
   30.6694  -17.6445  -17.2607 C   0  0  0  0  0  0  0  0  0  0  0  0
   29.4441  -18.0793  -16.7393 C   0  0  0  0  0  0  0  0  0  0  0  0
   28.2904  -17.5832  -17.2563 C   0  0  0  0  0  0  0  0  0  0  0  0
   26.7379  -20.7997  -14.6791 C   0  0  0  0  0  0  0  0  0  0  0  0
   25.8560  -21.6969  -14.8344 O   0  0  0  0  0  0  0  0  0  0  0  0
   27.2687  -20.6576  -13.3877 N   0  0  0  0  0  0  0  0  0  0  0  0
   26.5187  -21.0649  -12.2016 C   0  0  1  0  0  0  0  0  0  0  0  0
   27.4088  -20.7406  -11.0213 C   0  0  0  0  0  0  0  0  0  0  0  0
   26.4944  -20.6882   -9.8278 C   0  0  0  0  0  0  0  0  0  0  0  0
   25.7946  -21.8111   -9.4712 C   0  0  0  0  0  0  0  0  0  0  0  0
   24.9557  -21.7808   -8.3834 C   0  0  0  0  0  0  0  0  0  0  0  0
   24.7819  -20.6451   -7.6164 C   0  0  0  0  0  0  0  0  0  0  0  0
   25.5048  -19.5311   -8.0068 C   0  0  0  0  0  0  0  0  0  0  0  0
   26.3452  -19.5411   -9.0868 C   0  0  0  0  0  0  0  0  0  0  0  0
   25.2462  -20.3026  -12.1630 C   0  0  0  0  0  0  0  0  0  0  0  0
   25.3005  -19.0579  -12.2112 O   0  0  0  0  0  0  0  0  0  0  0  0
   23.9905  -20.9544  -12.0736 N   0  0  0  0  0  0  0  0  0  0  0  0
   22.7088  -20.2431  -12.1886 C   0  0  1  0  0  0  0  0  0  0  0  0
   22.0420  -20.6042  -13.4873 C   0  0  0  0  0  0  0  0  0  0  0  0
   20.7288  -19.8862  -13.6182 C   0  0  0  0  0  0  0  0  0  0  0  0
   19.6627  -20.8232  -14.1145 C   0  0  0  0  0  0  0  0  0  0  0  0
   20.0299  -21.9747  -14.4578 O   0  0  0  0  0  0  0  0  0  0  0  0
   21.8571  -20.4874  -11.0375 C   0  0  0  0  0  0  0  0  0  0  0  0
   20.9551  -19.5901  -10.5289 O   0  0  0  0  0  0  0  0  0  0  0  0
   18.3373  -20.4928  -14.2099 O   0  0  0  0  0  0  0  0  0  0  0  0
   21.9380  -21.6069  -10.4384 O   0  0  0  0  0  0  0  0  0  0  0  0
  2  1  1  6
  3  2  1  0
  3  4  1  0
  4  5  2  0
  5  6  1  0
  7  6  1  0
  8  7  2  0
  9  8  1  0
 10 11  1  0
 10  9  2  0
 11 12  2  0
 12  4  1  0
 12  7  1  0
 13 14  2  0
 13  2  1  0
 15 13  1  0
 16 15  1  0
 16 17  1  1
 18 19  2  0
 18 17  1  0
 20 19  1  0
 21 20  2  0
 22 21  1  0
 22 23  2  0
 23 18  1  0
 24 16  1  0
 24 25  2  0
 26 27  1  0
 26 24  1  0
 27 28  1  6
 28 29  1  0
 29 30  1  0
 30 34  1  0
 31 30  2  0
 32 27  1  0
 33 32  1  0
 35 32  2  0
M  END
$$$$
