WFE.pdb
     RDKit          3D

 35 37  0  0  1  0  0  0  0  0999 V2000
   25.9722  -19.7053  -12.4988 N   0  0  0  0  0  0  0  0  0  0  0  0
   26.8427  -20.8279  -12.3712 C   0  0  1  0  0  0  0  0  0  0  0  0
   28.0477  -20.6674  -13.2667 C   0  0  0  0  0  0  0  0  0  0  0  0
   27.6652  -19.7922  -14.4022 C   0  0  0  0  0  0  0  0  0  0  0  0
   28.0647  -18.4572  -14.5375 C   0  0  0  0  0  0  0  0  0  0  0  0
   27.5910  -17.9444  -15.6838 N   0  0  0  0  0  0  0  0  0  0  0  0
   26.8896  -18.9099  -16.3043 C   0  0  0  0  0  0  0  0  0  0  0  0
   26.1926  -18.8872  -17.5189 C   0  0  0  0  0  0  0  0  0  0  0  0
   25.5304  -20.0150  -17.9519 C   0  0  0  0  0  0  0  0  0  0  0  0
   25.5754  -21.1467  -17.1639 C   0  0  0  0  0  0  0  0  0  0  0  0
   26.2711  -21.1752  -15.9484 C   0  0  0  0  0  0  0  0  0  0  0  0
   26.9217  -20.0585  -15.5308 C   0  0  0  0  0  0  0  0  0  0  0  0
   27.2344  -20.9742  -10.9456 C   0  0  0  0  0  0  0  0  0  0  0  0
   27.9970  -21.9204  -10.5850 O   0  0  0  0  0  0  0  0  0  0  0  0
   26.7986  -20.0999   -9.9379 N   0  0  0  0  0  0  0  0  0  0  0  0
   26.9783  -20.4122   -8.5218 C   0  0  1  0  0  0  0  0  0  0  0  0
   27.8361  -19.2985   -7.9612 C   0  0  0  0  0  0  0  0  0  0  0  0
   28.0992  -19.6732   -6.5280 C   0  0  0  0  0  0  0  0  0  0  0  0
   27.4728  -18.9760   -5.5284 C   0  0  0  0  0  0  0  0  0  0  0  0
   27.7012  -19.3056   -4.2141 C   0  0  0  0  0  0  0  0  0  0  0  0
   28.5521  -20.3301   -3.8470 C   0  0  0  0  0  0  0  0  0  0  0  0
   29.1664  -21.0114   -4.8835 C   0  0  0  0  0  0  0  0  0  0  0  0
   28.9521  -20.6984   -6.1984 C   0  0  0  0  0  0  0  0  0  0  0  0
   25.6430  -20.4627   -7.8764 C   0  0  0  0  0  0  0  0  0  0  0  0
   25.5750  -20.8231   -6.6848 O   0  0  0  0  0  0  0  0  0  0  0  0
   24.4627  -20.1140   -8.5799 N   0  0  0  0  0  0  0  0  0  0  0  0
   23.1248  -20.1587   -7.9715 C   0  0  1  0  0  0  0  0  0  0  0  0
   22.0936  -19.7328   -8.9798 C   0  0  0  0  0  0  0  0  0  0  0  0
   21.5366  -20.9304   -9.6960 C   0  0  0  0  0  0  0  0  0  0  0  0
   21.7716  -20.8157  -11.1767 C   0  0  0  0  0  0  0  0  0  0  0  0
   22.3835  -19.7951  -11.5799 O   0  0  0  0  0  0  0  0  0  0  0  0
   22.8410  -21.4640   -7.4006 C   0  0  0  0  0  0  0  0  0  0  0  0
   21.7371  -21.7630   -6.6460 O   0  0  0  0  0  0  0  0  0  0  0  0
   21.3609  -21.7482  -12.0913 O   0  0  0  0  0  0  0  0  0  0  0  0
   23.6633  -22.4143   -7.5983 O   0  0  0  0  0  0  0  0  0  0  0  0
  2  1  1  1
  3  2  1  0
  3  4  1  0
  4  5  2  0
  5  6  1  0
  7  6  1  0
  8  7  2  0
  9  8  1  0
 10 11  1  0
 10  9  2  0
 11 12  2  0
 12  4  1  0
 12  7  1  0
 13 14  2  0
 13  2  1  0
 15 13  1  0
 16 15  1  0
 16 17  1  1
 18 19  2  0
 18 17  1  0
 20 19  1  0
 21 20  2  0
 22 21  1  0
 22 23  2  0
 23 18  1  0
 24 16  1  0
 24 25  2  0
 26 27  1  0
 26 24  1  0
 27 28  1  6
 28 29  1  0
 29 30  1  0
 30 34  1  0
 31 30  2  0
 32 27  1  0
 33 32  1  0
 35 32  2  0
M  END
$$$$
