WFE.pdb
     RDKit          3D

 35 37  0  0  1  0  0  0  0  0999 V2000
   35.1693  -29.7863  -16.9638 N   0  0  0  0  0  0  0  0  0  0  0  0
   34.5641  -28.7549  -17.7411 C   0  0  1  0  0  0  0  0  0  0  0  0
   33.7523  -29.3485  -18.8674 C   0  0  0  0  0  0  0  0  0  0  0  0
   34.6823  -29.7079  -19.9664 C   0  0  0  0  0  0  0  0  0  0  0  0
   35.4316  -30.8897  -20.0098 C   0  0  0  0  0  0  0  0  0  0  0  0
   36.1475  -30.9445  -21.1437 N   0  0  0  0  0  0  0  0  0  0  0  0
   35.8871  -29.8271  -21.8458 C   0  0  0  0  0  0  0  0  0  0  0  0
   36.3800  -29.3982  -23.0845 C   0  0  0  0  0  0  0  0  0  0  0  0
   35.9683  -28.1919  -23.6071 C   0  0  0  0  0  0  0  0  0  0  0  0
   35.0712  -27.4339  -22.8830 C   0  0  0  0  0  0  0  0  0  0  0  0
   34.5747  -27.8580  -21.6437 C   0  0  0  0  0  0  0  0  0  0  0  0
   34.9858  -29.0494  -21.1376 C   0  0  0  0  0  0  0  0  0  0  0  0
   33.7294  -27.9075  -16.8509 C   0  0  0  0  0  0  0  0  0  0  0  0
   33.1491  -28.4141  -15.8442 O   0  0  0  0  0  0  0  0  0  0  0  0
   33.5366  -26.5334  -17.0614 N   0  0  0  0  0  0  0  0  0  0  0  0
   32.7345  -25.7231  -16.1476 C   0  0  1  0  0  0  0  0  0  0  0  0
   33.5630  -24.4905  -15.8565 C   0  0  0  0  0  0  0  0  0  0  0  0
   34.6697  -24.9525  -14.9481 C   0  0  0  0  0  0  0  0  0  0  0  0
   34.4220  -25.0874  -13.6070 C   0  0  0  0  0  0  0  0  0  0  0  0
   35.4212  -25.5090  -12.7633 C   0  0  0  0  0  0  0  0  0  0  0  0
   36.6915  -25.8095  -13.2153 C   0  0  0  0  0  0  0  0  0  0  0  0
   36.9040  -25.6614  -14.5751 C   0  0  0  0  0  0  0  0  0  0  0  0
   35.9223  -25.2429  -15.4316 C   0  0  0  0  0  0  0  0  0  0  0  0
   31.4536  -25.3856  -16.8164 C   0  0  0  0  0  0  0  0  0  0  0  0
   31.3536  -24.2770  -17.3782 O   0  0  0  0  0  0  0  0  0  0  0  0
   30.3595  -26.2871  -16.8272 N   0  0  0  0  0  0  0  0  0  0  0  0
   29.0826  -25.9889  -17.4923 C   0  0  1  0  0  0  0  0  0  0  0  0
   28.9494  -26.8253  -18.7349 C   0  0  0  0  0  0  0  0  0  0  0  0
   28.8796  -28.2833  -18.3790 C   0  0  0  0  0  0  0  0  0  0  0  0
   28.7525  -29.1234  -19.6196 C   0  0  0  0  0  0  0  0  0  0  0  0
   27.7949  -28.8623  -20.3898 O   0  0  0  0  0  0  0  0  0  0  0  0
   27.9580  -26.1516  -16.5872 C   0  0  0  0  0  0  0  0  0  0  0  0
   26.6778  -25.7406  -16.8505 O   0  0  0  0  0  0  0  0  0  0  0  0
   29.6102  -30.1393  -19.9472 O   0  0  0  0  0  0  0  0  0  0  0  0
   28.1505  -26.7103  -15.4606 O   0  0  0  0  0  0  0  0  0  0  0  0
  2  1  1  1
  3  2  1  0
  3  4  1  0
  4  5  2  0
  5  6  1  0
  7  6  1  0
  8  7  2  0
  9  8  1  0
 10 11  1  0
 10  9  2  0
 11 12  2  0
 12  4  1  0
 12  7  1  0
 13 14  2  0
 13  2  1  0
 15 13  1  0
 16 15  1  0
 16 17  1  6
 18 19  2  0
 18 17  1  0
 20 19  1  0
 21 20  2  0
 22 21  1  0
 22 23  2  0
 23 18  1  0
 24 16  1  0
 24 25  2  0
 26 27  1  0
 26 24  1  0
 27 28  1  6
 28 29  1  0
 29 30  1  0
 30 34  1  0
 31 30  2  0
 32 27  1  0
 33 32  1  0
 35 32  2  0
M  END
$$$$
