WFE.pdb
     RDKit          3D

 35 37  0  0  1  0  0  0  0  0999 V2000
   28.4894  -21.7984  -17.4052 N   0  0  0  0  0  0  0  0  0  0  0  0
   27.9181  -20.6943  -16.7063 C   0  0  1  0  0  0  0  0  0  0  0  0
   26.9520  -19.9482  -17.5949 C   0  0  0  0  0  0  0  0  0  0  0  0
   27.3887  -18.5318  -17.6641 C   0  0  0  0  0  0  0  0  0  0  0  0
   28.1520  -17.9926  -18.7066 C   0  0  0  0  0  0  0  0  0  0  0  0
   28.3544  -16.6814  -18.5040 N   0  0  0  0  0  0  0  0  0  0  0  0
   27.7432  -16.3464  -17.3536 C   0  0  0  0  0  0  0  0  0  0  0  0
   27.6603  -15.1128  -16.6958 C   0  0  0  0  0  0  0  0  0  0  0  0
   26.9758  -15.0145  -15.5043 C   0  0  0  0  0  0  0  0  0  0  0  0
   26.3857  -16.1505  -14.9897 C   0  0  0  0  0  0  0  0  0  0  0  0
   26.4652  -17.3869  -15.6434 C   0  0  0  0  0  0  0  0  0  0  0  0
   27.1413  -17.4732  -16.8181 C   0  0  0  0  0  0  0  0  0  0  0  0
   27.2555  -21.1946  -15.4742 C   0  0  0  0  0  0  0  0  0  0  0  0
   26.6999  -22.3339  -15.4637 O   0  0  0  0  0  0  0  0  0  0  0  0
   27.2047  -20.4599  -14.2795 N   0  0  0  0  0  0  0  0  0  0  0  0
   26.3230  -20.8449  -13.1798 C   0  0  1  0  0  0  0  0  0  0  0  0
   26.7704  -20.0259  -11.9884 C   0  0  0  0  0  0  0  0  0  0  0  0
   25.9149  -20.4839  -10.8387 C   0  0  0  0  0  0  0  0  0  0  0  0
   26.3984  -21.4401   -9.9844 C   0  0  0  0  0  0  0  0  0  0  0  0
   25.6306  -21.8692   -8.9288 C   0  0  0  0  0  0  0  0  0  0  0  0
   24.3660  -21.3697   -8.6845 C   0  0  0  0  0  0  0  0  0  0  0  0
   23.9116  -20.4060   -9.5681 C   0  0  0  0  0  0  0  0  0  0  0  0
   24.6608  -19.9655  -10.6250 C   0  0  0  0  0  0  0  0  0  0  0  0
   24.9235  -20.5409  -13.5683 C   0  0  0  0  0  0  0  0  0  0  0  0
   24.6812  -19.4343  -14.0893 O   0  0  0  0  0  0  0  0  0  0  0  0
   23.8745  -21.4716  -13.3606 N   0  0  0  0  0  0  0  0  0  0  0  0
   22.4684  -21.1765  -13.6732 C   0  0  1  0  0  0  0  0  0  0  0  0
   22.1529  -21.6293  -15.0721 C   0  0  0  0  0  0  0  0  0  0  0  0
   20.7009  -21.3991  -15.3814 C   0  0  0  0  0  0  0  0  0  0  0  0
   20.4270  -19.9321  -15.5648 C   0  0  0  0  0  0  0  0  0  0  0  0
   19.3453  -19.4914  -15.1018 O   0  0  0  0  0  0  0  0  0  0  0  0
   21.5700  -21.7491  -12.6856 C   0  0  0  0  0  0  0  0  0  0  0  0
   20.4751  -21.1121  -12.1634 O   0  0  0  0  0  0  0  0  0  0  0  0
   21.2791  -19.0677  -16.1986 O   0  0  0  0  0  0  0  0  0  0  0  0
   21.7966  -22.9249  -12.2559 O   0  0  0  0  0  0  0  0  0  0  0  0
  2  1  1  6
  3  2  1  0
  3  4  1  0
  4  5  2  0
  5  6  1  0
  7  6  1  0
  8  7  2  0
  9  8  1  0
 10 11  1  0
 10  9  2  0
 11 12  2  0
 12  4  1  0
 12  7  1  0
 13 14  2  0
 13  2  1  0
 15 13  1  0
 16 15  1  0
 16 17  1  1
 18 19  2  0
 18 17  1  0
 20 19  1  0
 21 20  2  0
 22 21  1  0
 22 23  2  0
 23 18  1  0
 24 16  1  0
 24 25  2  0
 26 27  1  0
 26 24  1  0
 27 28  1  6
 28 29  1  0
 29 30  1  0
 30 34  1  0
 31 30  2  0
 32 27  1  0
 33 32  1  0
 35 32  2  0
M  END
$$$$
