WFE.pdb
     RDKit          3D

 35 37  0  0  1  0  0  0  0  0999 V2000
   28.4518  -20.4322  -16.0778 N   0  0  0  0  0  0  0  0  0  0  0  0
   27.3616  -19.9507  -15.2944 C   0  0  1  0  0  0  0  0  0  0  0  0
   26.4404  -19.1004  -16.1358 C   0  0  0  0  0  0  0  0  0  0  0  0
   27.1456  -17.8348  -16.4565 C   0  0  0  0  0  0  0  0  0  0  0  0
   27.7409  -17.5558  -17.6925 C   0  0  0  0  0  0  0  0  0  0  0  0
   28.2651  -16.3204  -17.6874 N   0  0  0  0  0  0  0  0  0  0  0  0
   28.0291  -15.7813  -16.4779 C   0  0  0  0  0  0  0  0  0  0  0  0
   28.3732  -14.5260  -15.9610 C   0  0  0  0  0  0  0  0  0  0  0  0
   28.0259  -14.1965  -14.6692 C   0  0  0  0  0  0  0  0  0  0  0  0
   27.3410  -15.1270  -13.9151 C   0  0  0  0  0  0  0  0  0  0  0  0
   26.9941  -16.3840  -14.4269 C   0  0  0  0  0  0  0  0  0  0  0  0
   27.3400  -16.6988  -15.7021 C   0  0  0  0  0  0  0  0  0  0  0  0
   26.6473  -21.1095  -14.6992 C   0  0  0  0  0  0  0  0  0  0  0  0
   26.4908  -22.1763  -15.3657 O   0  0  0  0  0  0  0  0  0  0  0  0
   26.1167  -21.0970  -13.4000 N   0  0  0  0  0  0  0  0  0  0  0  0
   25.0574  -22.0187  -12.9958 C   0  0  1  0  0  0  0  0  0  0  0  0
   25.5118  -22.6160  -11.6816 C   0  0  0  0  0  0  0  0  0  0  0  0
   25.8551  -21.4445  -10.8023 C   0  0  0  0  0  0  0  0  0  0  0  0
   24.9183  -20.9726   -9.9205 C   0  0  0  0  0  0  0  0  0  0  0  0
   25.2156  -19.9040   -9.1094 C   0  0  0  0  0  0  0  0  0  0  0  0
   26.4425  -19.2701   -9.1435 C   0  0  0  0  0  0  0  0  0  0  0  0
   27.3628  -19.7744  -10.0463 C   0  0  0  0  0  0  0  0  0  0  0  0
   27.0860  -20.8374  -10.8623 C   0  0  0  0  0  0  0  0  0  0  0  0
   23.7951  -21.2522  -12.8500 C   0  0  0  0  0  0  0  0  0  0  0  0
   23.8321  -20.1599  -12.2501 O   0  0  0  0  0  0  0  0  0  0  0  0
   22.5680  -21.7328  -13.3726 N   0  0  0  0  0  0  0  0  0  0  0  0
   21.2902  -21.0279  -13.1931 C   0  0  1  0  0  0  0  0  0  0  0  0
   20.6666  -20.7568  -14.5344 C   0  0  0  0  0  0  0  0  0  0  0  0
   21.2104  -19.4828  -15.1160 C   0  0  0  0  0  0  0  0  0  0  0  0
   20.1638  -18.4034  -15.0923 C   0  0  0  0  0  0  0  0  0  0  0  0
   19.0743  -18.6774  -14.5297 O   0  0  0  0  0  0  0  0  0  0  0  0
   20.4014  -21.7520  -12.3008 C   0  0  0  0  0  0  0  0  0  0  0  0
   19.2350  -21.2514  -11.7849 O   0  0  0  0  0  0  0  0  0  0  0  0
   20.3334  -17.1607  -15.6416 O   0  0  0  0  0  0  0  0  0  0  0  0
   20.7077  -22.9376  -11.9557 O   0  0  0  0  0  0  0  0  0  0  0  0
  2  1  1  6
  3  2  1  0
  3  4  1  0
  4  5  2  0
  5  6  1  0
  7  6  1  0
  8  7  2  0
  9  8  1  0
 10 11  1  0
 10  9  2  0
 11 12  2  0
 12  4  1  0
 12  7  1  0
 13 14  2  0
 13  2  1  0
 15 13  1  0
 16 15  1  0
 16 17  1  1
 18 19  2  0
 18 17  1  0
 20 19  1  0
 21 20  2  0
 22 21  1  0
 22 23  2  0
 23 18  1  0
 24 16  1  0
 24 25  2  0
 26 27  1  0
 26 24  1  0
 27 28  1  6
 28 29  1  0
 29 30  1  0
 30 34  1  0
 31 30  2  0
 32 27  1  0
 33 32  1  0
 35 32  2  0
M  END
$$$$
