WFE.pdb
     RDKit          3D

 35 37  0  0  1  0  0  0  0  0999 V2000
   28.3661  -20.3658   -9.1463 N   0  0  0  0  0  0  0  0  0  0  0  0
   27.0296  -20.8614   -9.0973 C   0  0  1  0  0  0  0  0  0  0  0  0
   26.2671  -20.2157   -7.9654 C   0  0  0  0  0  0  0  0  0  0  0  0
   27.2508  -19.6264   -7.0237 C   0  0  0  0  0  0  0  0  0  0  0  0
   27.7171  -18.3082   -7.0940 C   0  0  0  0  0  0  0  0  0  0  0  0
   28.5676  -18.0618   -6.0854 N   0  0  0  0  0  0  0  0  0  0  0  0
   28.6718  -19.1863   -5.3548 C   0  0  0  0  0  0  0  0  0  0  0  0
   29.4307  -19.4573   -4.2093 C   0  0  0  0  0  0  0  0  0  0  0  0
   29.3814  -20.7074   -3.6326 C   0  0  0  0  0  0  0  0  0  0  0  0
   28.5748  -21.6663   -4.2103 C   0  0  0  0  0  0  0  0  0  0  0  0
   27.8134  -21.4009   -5.3558 C   0  0  0  0  0  0  0  0  0  0  0  0
   27.8680  -20.1649   -5.9161 C   0  0  0  0  0  0  0  0  0  0  0  0
   26.3763  -20.6159  -10.4089 C   0  0  0  0  0  0  0  0  0  0  0  0
   26.3949  -19.4591  -10.9269 O   0  0  0  0  0  0  0  0  0  0  0  0
   25.7174  -21.6192  -11.1361 N   0  0  0  0  0  0  0  0  0  0  0  0
   25.3037  -21.4148  -12.5225 C   0  0  1  0  0  0  0  0  0  0  0  0
   26.0325  -22.4684  -13.3283 C   0  0  0  0  0  0  0  0  0  0  0  0
   25.5759  -22.2783  -14.7492 C   0  0  0  0  0  0  0  0  0  0  0  0
   24.8061  -23.2460  -15.3397 C   0  0  0  0  0  0  0  0  0  0  0  0
   24.3798  -23.0880  -16.6364 C   0  0  0  0  0  0  0  0  0  0  0  0
   24.6992  -21.9737  -17.3879 C   0  0  0  0  0  0  0  0  0  0  0  0
   25.4779  -21.0181  -16.7583 C   0  0  0  0  0  0  0  0  0  0  0  0
   25.9122  -21.1570  -15.4680 C   0  0  0  0  0  0  0  0  0  0  0  0
   23.8306  -21.5742  -12.6040 C   0  0  0  0  0  0  0  0  0  0  0  0
   23.3105  -22.5604  -12.0459 O   0  0  0  0  0  0  0  0  0  0  0  0
   23.0180  -20.6399  -13.2942 N   0  0  0  0  0  0  0  0  0  0  0  0
   21.5637  -20.7987  -13.4419 C   0  0  1  0  0  0  0  0  0  0  0  0
   20.9400  -19.4737  -13.7840 C   0  0  0  0  0  0  0  0  0  0  0  0
   19.4659  -19.6361  -14.0246 C   0  0  0  0  0  0  0  0  0  0  0  0
   18.6776  -19.0295  -12.8970 C   0  0  0  0  0  0  0  0  0  0  0  0
   18.9086  -17.8254  -12.6225 O   0  0  0  0  0  0  0  0  0  0  0  0
   21.2345  -21.8354  -14.4048 C   0  0  0  0  0  0  0  0  0  0  0  0
   20.1986  -22.7225  -14.2737 O   0  0  0  0  0  0  0  0  0  0  0  0
   17.7388  -19.7086  -12.1674 O   0  0  0  0  0  0  0  0  0  0  0  0
   21.9467  -21.9507  -15.4526 O   0  0  0  0  0  0  0  0  0  0  0  0
  2  1  1  6
  3  2  1  0
  3  4  1  0
  4  5  2  0
  5  6  1  0
  7  6  1  0
  8  7  2  0
  9  8  1  0
 10 11  1  0
 10  9  2  0
 11 12  2  0
 12  4  1  0
 12  7  1  0
 13 14  2  0
 13  2  1  0
 15 13  1  0
 16 15  1  0
 16 17  1  6
 18 19  2  0
 18 17  1  0
 20 19  1  0
 21 20  2  0
 22 21  1  0
 22 23  2  0
 23 18  1  0
 24 16  1  0
 24 25  2  0
 26 27  1  0
 26 24  1  0
 27 28  1  6
 28 29  1  0
 29 30  1  0
 30 34  1  0
 31 30  2  0
 32 27  1  0
 33 32  1  0
 35 32  2  0
M  END
$$$$
