FDD.pdb
     RDKit          3D

 28 28  0  0  1  0  0  0  0  0999 V2000
    6.4151  -16.1895   25.0537 N   0  0  0  0  0  0  0  0  0  0  0  0
    7.4920  -15.6153   24.2678 C   0  0  1  0  0  0  0  0  0  0  0  0
    8.2396  -14.6904   25.2130 C   0  0  0  0  0  0  0  0  0  0  0  0
    7.3573  -13.5432   25.5648 C   0  0  0  0  0  0  0  0  0  0  0  0
    6.4935  -13.6324   26.6587 C   0  0  0  0  0  0  0  0  0  0  0  0
    5.6915  -12.5630   26.9704 C   0  0  0  0  0  0  0  0  0  0  0  0
    5.7202  -11.3858   26.2213 C   0  0  0  0  0  0  0  0  0  0  0  0
    6.5651  -11.2785   25.1394 C   0  0  0  0  0  0  0  0  0  0  0  0
    7.3725  -12.3797   24.8390 C   0  0  0  0  0  0  0  0  0  0  0  0
    8.4480  -16.7222   23.8886 C   0  0  0  0  0  0  0  0  0  0  0  0
    8.0861  -17.9072   23.7011 O   0  0  0  0  0  0  0  0  0  0  0  0
    9.8498  -16.4209   23.7281 N   0  0  0  0  0  0  0  0  0  0  0  0
   10.5265  -16.7517   22.5046 C   0  0  1  0  0  0  0  0  0  0  0  0
    9.7187  -16.1466   21.3468 C   0  0  0  0  0  0  0  0  0  0  0  0
   10.3706  -16.5516   20.0844 C   0  0  0  0  0  0  0  0  0  0  0  0
   10.2975  -17.6873   19.5531 O   0  0  0  0  0  0  0  0  0  0  0  0
   11.8905  -16.2297   22.4281 C   0  0  0  0  0  0  0  0  0  0  0  0
   12.6306  -16.3057   21.4125 O   0  0  0  0  0  0  0  0  0  0  0  0
   11.1550  -15.6174   19.3791 O   0  0  0  0  0  0  0  0  0  0  0  0
   12.4528  -15.5874   23.5638 N   0  0  0  0  0  0  0  0  0  0  0  0
   13.3850  -16.2324   24.4660 C   0  0  1  0  0  0  0  0  0  0  0  0
   12.7168  -17.5701   24.8174 C   0  0  0  0  0  0  0  0  0  0  0  0
   13.0467  -18.0010   26.1884 C   0  0  0  0  0  0  0  0  0  0  0  0
   14.2282  -18.3952   26.4441 O   0  0  0  0  0  0  0  0  0  0  0  0
   14.6034  -16.5745   23.7270 C   0  0  0  0  0  0  0  0  0  0  0  0
   15.6929  -16.0599   24.0499 O   0  0  0  0  0  0  0  0  0  0  0  0
   12.1324  -17.9936   27.2151 O   0  0  0  0  0  0  0  0  0  0  0  0
   14.6152  -17.4707   22.6493 O   0  0  0  0  0  0  0  0  0  0  0  0
  2  1  1  1
  3  4  1  0
  3  2  1  0
  4  9  2  0
  5  6  2  0
  5  4  1  0
  6  7  1  0
  7  8  2  0
  9  8  1  0
 10  2  1  0
 10 12  1  0
 11 10  2  0
 13 12  1  0
 13 14  1  6
 14 15  1  0
 15 16  2  0
 17 13  1  0
 18 17  2  0
 19 15  1  0
 20 17  1  0
 21 20  1  0
 21 25  1  0
 21 22  1  6
 23 24  2  0
 23 22  1  0
 25 28  1  0
 26 25  2  0
 27 23  1  0
M  END
$$$$
