FDD.pdb
     RDKit          3D

 28 28  0  0  1  0  0  0  0  0999 V2000
    6.9814  -16.1132   25.7174 N   0  0  0  0  0  0  0  0  0  0  0  0
    7.4364  -15.3614   24.5621 C   0  0  1  0  0  0  0  0  0  0  0  0
    8.3490  -14.2788   25.1124 C   0  0  0  0  0  0  0  0  0  0  0  0
    7.5289  -13.2974   25.8755 C   0  0  0  0  0  0  0  0  0  0  0  0
    7.9030  -12.9262   27.1690 C   0  0  0  0  0  0  0  0  0  0  0  0
    7.1373  -12.0165   27.8548 C   0  0  0  0  0  0  0  0  0  0  0  0
    5.9939  -11.4505   27.2892 C   0  0  0  0  0  0  0  0  0  0  0  0
    5.6088  -11.8036   26.0152 C   0  0  0  0  0  0  0  0  0  0  0  0
    6.4022  -12.7323   25.3350 C   0  0  0  0  0  0  0  0  0  0  0  0
    8.2940  -16.2682   23.7107 C   0  0  0  0  0  0  0  0  0  0  0  0
    8.8148  -17.3235   24.1416 O   0  0  0  0  0  0  0  0  0  0  0  0
    8.5364  -15.9211   22.3314 N   0  0  0  0  0  0  0  0  0  0  0  0
    9.4226  -16.7179   21.5288 C   0  0  1  0  0  0  0  0  0  0  0  0
    9.0733  -16.4626   20.0550 C   0  0  0  0  0  0  0  0  0  0  0  0
    7.7576  -17.0809   19.7916 C   0  0  0  0  0  0  0  0  0  0  0  0
    7.3227  -18.1330   20.3220 O   0  0  0  0  0  0  0  0  0  0  0  0
   10.8367  -16.3989   21.7220 C   0  0  0  0  0  0  0  0  0  0  0  0
   11.3027  -15.2325   21.8083 O   0  0  0  0  0  0  0  0  0  0  0  0
    6.8793  -16.4751   18.8713 O   0  0  0  0  0  0  0  0  0  0  0  0
   11.7798  -17.4569   21.8209 N   0  0  0  0  0  0  0  0  0  0  0  0
   13.2066  -17.2447   21.9557 C   0  0  1  0  0  0  0  0  0  0  0  0
   13.5188  -17.6412   23.4065 C   0  0  0  0  0  0  0  0  0  0  0  0
   13.8881  -16.4712   24.2242 C   0  0  0  0  0  0  0  0  0  0  0  0
   14.4365  -15.4722   23.6604 O   0  0  0  0  0  0  0  0  0  0  0  0
   13.9137  -18.2140   21.1141 C   0  0  0  0  0  0  0  0  0  0  0  0
   14.9889  -17.8964   20.5671 O   0  0  0  0  0  0  0  0  0  0  0  0
   13.6629  -16.4043   25.5789 O   0  0  0  0  0  0  0  0  0  0  0  0
   13.4385  -19.5120   20.8820 O   0  0  0  0  0  0  0  0  0  0  0  0
  2  1  1  1
  3  4  1  0
  3  2  1  0
  4  9  2  0
  5  6  2  0
  5  4  1  0
  6  7  1  0
  7  8  2  0
  9  8  1  0
 10  2  1  0
 10 12  1  0
 11 10  2  0
 13 12  1  0
 13 14  1  6
 14 15  1  0
 15 16  2  0
 17 13  1  0
 18 17  2  0
 19 15  1  0
 20 17  1  0
 21 20  1  0
 21 25  1  0
 21 22  1  1
 23 24  2  0
 23 22  1  0
 25 28  1  0
 26 25  2  0
 27 23  1  0
M  END
$$$$
