FDD.pdb
     RDKit          3D

 28 28  0  0  1  0  0  0  0  0999 V2000
    6.2589  -17.8369   26.0215 N   0  0  0  0  0  0  0  0  0  0  0  0
    6.5518  -16.5086   25.5148 C   0  0  1  0  0  0  0  0  0  0  0  0
    7.5216  -15.8959   26.5108 C   0  0  0  0  0  0  0  0  0  0  0  0
    7.3804  -14.4138   26.4736 C   0  0  0  0  0  0  0  0  0  0  0  0
    8.5080  -13.6056   26.3117 C   0  0  0  0  0  0  0  0  0  0  0  0
    8.3574  -12.2418   26.2749 C   0  0  0  0  0  0  0  0  0  0  0  0
    7.1027  -11.6421   26.3927 C   0  0  0  0  0  0  0  0  0  0  0  0
    5.9791  -12.4219   26.5529 C   0  0  0  0  0  0  0  0  0  0  0  0
    6.1552  -13.8084   26.5886 C   0  0  0  0  0  0  0  0  0  0  0  0
    7.2957  -16.6503   24.2074 C   0  0  0  0  0  0  0  0  0  0  0  0
    8.0519  -17.6157   23.9493 O   0  0  0  0  0  0  0  0  0  0  0  0
    7.1405  -15.6364   23.1927 N   0  0  0  0  0  0  0  0  0  0  0  0
    7.7456  -15.8059   21.9007 C   0  0  1  0  0  0  0  0  0  0  0  0
    7.2990  -14.6302   21.0189 C   0  0  0  0  0  0  0  0  0  0  0  0
    7.8098  -14.8730   19.6540 C   0  0  0  0  0  0  0  0  0  0  0  0
    8.4897  -14.0671   18.9716 O   0  0  0  0  0  0  0  0  0  0  0  0
    9.2076  -15.8188   21.9339 C   0  0  0  0  0  0  0  0  0  0  0  0
    9.9447  -16.0551   20.9410 O   0  0  0  0  0  0  0  0  0  0  0  0
    7.5345  -16.1007   19.0196 O   0  0  0  0  0  0  0  0  0  0  0  0
    9.8765  -15.5524   23.1587 N   0  0  0  0  0  0  0  0  0  0  0  0
   11.3169  -15.5983   23.3083 C   0  0  1  0  0  0  0  0  0  0  0  0
   11.5539  -16.6112   24.4384 C   0  0  0  0  0  0  0  0  0  0  0  0
   12.9870  -16.9139   24.6079 C   0  0  0  0  0  0  0  0  0  0  0  0
   13.8373  -16.2954   23.8929 O   0  0  0  0  0  0  0  0  0  0  0  0
   11.9017  -16.1960   22.1048 C   0  0  0  0  0  0  0  0  0  0  0  0
   12.5917  -15.4978   21.3349 O   0  0  0  0  0  0  0  0  0  0  0  0
   13.4545  -17.8377   25.5125 O   0  0  0  0  0  0  0  0  0  0  0  0
   11.7257  -17.5431   21.7598 O   0  0  0  0  0  0  0  0  0  0  0  0
  2  1  1  1
  3  4  1  0
  3  2  1  0
  4  9  2  0
  5  6  2  0
  5  4  1  0
  6  7  1  0
  7  8  2  0
  9  8  1  0
 10  2  1  0
 10 12  1  0
 11 10  2  0
 13 12  1  0
 13 14  1  6
 14 15  1  0
 15 16  2  0
 17 13  1  0
 18 17  2  0
 19 15  1  0
 20 17  1  0
 21 20  1  0
 21 25  1  0
 21 22  1  1
 23 24  2  0
 23 22  1  0
 25 28  1  0
 26 25  2  0
 27 23  1  0
M  END
$$$$
