FDD.pdb
     RDKit          3D

 28 28  0  0  1  0  0  0  0  0999 V2000
    5.4887  -17.1976   23.2080 N   0  0  0  0  0  0  0  0  0  0  0  0
    6.3735  -16.1186   23.6080 C   0  0  1  0  0  0  0  0  0  0  0  0
    5.9199  -15.7127   24.9998 C   0  0  0  0  0  0  0  0  0  0  0  0
    6.5805  -14.4297   25.3683 C   0  0  0  0  0  0  0  0  0  0  0  0
    7.3381  -13.7342   24.4234 C   0  0  0  0  0  0  0  0  0  0  0  0
    7.9353  -12.5509   24.7802 C   0  0  0  0  0  0  0  0  0  0  0  0
    7.8014  -12.0237   26.0654 C   0  0  0  0  0  0  0  0  0  0  0  0
    7.0584  -12.6946   27.0110 C   0  0  0  0  0  0  0  0  0  0  0  0
    6.4597  -13.8981   26.6268 C   0  0  0  0  0  0  0  0  0  0  0  0
    7.7715  -16.6749   23.7462 C   0  0  0  0  0  0  0  0  0  0  0  0
    8.0336  -17.7218   24.3831 O   0  0  0  0  0  0  0  0  0  0  0  0
    8.8722  -15.9828   23.1207 N   0  0  0  0  0  0  0  0  0  0  0  0
   10.2100  -16.4932   23.2394 C   0  0  1  0  0  0  0  0  0  0  0  0
   11.1289  -15.5918   22.4012 C   0  0  0  0  0  0  0  0  0  0  0  0
   12.0592  -16.4661   21.6577 C   0  0  0  0  0  0  0  0  0  0  0  0
   12.8221  -17.3249   22.1655 O   0  0  0  0  0  0  0  0  0  0  0  0
   10.7147  -16.5049   24.6120 C   0  0  0  0  0  0  0  0  0  0  0  0
   11.0279  -15.4776   25.2689 O   0  0  0  0  0  0  0  0  0  0  0  0
   12.1343  -16.3634   20.2544 O   0  0  0  0  0  0  0  0  0  0  0  0
   10.8779  -17.7477   25.2810 N   0  0  0  0  0  0  0  0  0  0  0  0
   11.4397  -17.8710   26.6107 C   0  0  1  0  0  0  0  0  0  0  0  0
   10.7311  -19.0921   27.2157 C   0  0  0  0  0  0  0  0  0  0  0  0
   11.2275  -19.3949   28.5707 C   0  0  0  0  0  0  0  0  0  0  0  0
   12.2631  -20.1210   28.7009 O   0  0  0  0  0  0  0  0  0  0  0  0
   12.8528  -18.2424   26.4979 C   0  0  0  0  0  0  0  0  0  0  0  0
   13.6812  -17.7969   27.3173 O   0  0  0  0  0  0  0  0  0  0  0  0
   10.6226  -18.9228   29.7116 O   0  0  0  0  0  0  0  0  0  0  0  0
   13.3402  -19.0921   25.4954 O   0  0  0  0  0  0  0  0  0  0  0  0
  2  1  1  1
  3  4  1  0
  3  2  1  0
  4  9  2  0
  5  6  2  0
  5  4  1  0
  6  7  1  0
  7  8  2  0
  9  8  1  0
 10  2  1  0
 10 12  1  0
 11 10  2  0
 13 12  1  0
 13 14  1  6
 14 15  1  0
 15 16  2  0
 17 13  1  0
 18 17  2  0
 19 15  1  0
 20 17  1  0
 21 20  1  0
 21 25  1  0
 21 22  1  1
 23 24  2  0
 23 22  1  0
 25 28  1  0
 26 25  2  0
 27 23  1  0
M  END
$$$$
