FDD.pdb
     RDKit          3D

 28 28  0  0  1  0  0  0  0  0999 V2000
    6.9469  -16.4241   25.7807 N   0  0  0  0  0  0  0  0  0  0  0  0
    7.4596  -15.6105   24.6934 C   0  0  1  0  0  0  0  0  0  0  0  0
    8.3427  -14.5623   25.3486 C   0  0  0  0  0  0  0  0  0  0  0  0
    7.4777  -13.5500   26.0156 C   0  0  0  0  0  0  0  0  0  0  0  0
    7.5824  -13.3352   27.3917 C   0  0  0  0  0  0  0  0  0  0  0  0
    6.7801  -12.3945   27.9879 C   0  0  0  0  0  0  0  0  0  0  0  0
    5.8627  -11.6443   27.2509 C   0  0  0  0  0  0  0  0  0  0  0  0
    5.7448  -11.8413   25.8932 C   0  0  0  0  0  0  0  0  0  0  0  0
    6.5706  -12.8048   25.3064 C   0  0  0  0  0  0  0  0  0  0  0  0
    8.3597  -16.4708   23.8376 C   0  0  0  0  0  0  0  0  0  0  0  0
    9.0266  -17.4298   24.2916 O   0  0  0  0  0  0  0  0  0  0  0  0
    8.4698  -16.1924   22.4262 N   0  0  0  0  0  0  0  0  0  0  0  0
    9.4493  -16.8754   21.6273 C   0  0  1  0  0  0  0  0  0  0  0  0
    9.1226  -16.5992   20.1521 C   0  0  0  0  0  0  0  0  0  0  0  0
    7.8464  -17.2751   19.8405 C   0  0  0  0  0  0  0  0  0  0  0  0
    7.5646  -18.4692   20.1092 O   0  0  0  0  0  0  0  0  0  0  0  0
   10.8216  -16.4365   21.8783 C   0  0  0  0  0  0  0  0  0  0  0  0
   11.2337  -15.2556   21.7343 O   0  0  0  0  0  0  0  0  0  0  0  0
    6.8259  -16.5595   19.1832 O   0  0  0  0  0  0  0  0  0  0  0  0
   11.7851  -17.3852   22.3141 N   0  0  0  0  0  0  0  0  0  0  0  0
   13.1630  -17.0469   22.6074 C   0  0  1  0  0  0  0  0  0  0  0  0
   13.6300  -18.1430   23.5769 C   0  0  0  0  0  0  0  0  0  0  0  0
   13.1337  -17.9084   24.9453 C   0  0  0  0  0  0  0  0  0  0  0  0
   13.2982  -16.7637   25.4740 O   0  0  0  0  0  0  0  0  0  0  0  0
   13.9642  -17.2181   21.3923 C   0  0  0  0  0  0  0  0  0  0  0  0
   15.1727  -16.9087   21.3944 O   0  0  0  0  0  0  0  0  0  0  0  0
   12.4916  -18.8741   25.6839 O   0  0  0  0  0  0  0  0  0  0  0  0
   13.4367  -17.7232   20.1960 O   0  0  0  0  0  0  0  0  0  0  0  0
  2  1  1  1
  3  4  1  0
  3  2  1  0
  4  9  2  0
  5  6  2  0
  5  4  1  0
  6  7  1  0
  7  8  2  0
  9  8  1  0
 10  2  1  0
 10 12  1  0
 11 10  2  0
 13 12  1  0
 13 14  1  6
 14 15  1  0
 15 16  2  0
 17 13  1  0
 18 17  2  0
 19 15  1  0
 20 17  1  0
 21 20  1  0
 21 25  1  0
 21 22  1  1
 23 24  2  0
 23 22  1  0
 25 28  1  0
 26 25  2  0
 27 23  1  0
M  END
$$$$
