FDD.pdb
     RDKit          3D

 28 28  0  0  1  0  0  0  0  0999 V2000
    6.1488  -16.7310   24.7069 N   0  0  0  0  0  0  0  0  0  0  0  0
    7.2425  -15.8464   24.3488 C   0  0  1  0  0  0  0  0  0  0  0  0
    7.8237  -15.3611   25.6658 C   0  0  0  0  0  0  0  0  0  0  0  0
    7.2471  -14.0257   25.9857 C   0  0  0  0  0  0  0  0  0  0  0  0
    6.1382  -13.9242   26.8287 C   0  0  0  0  0  0  0  0  0  0  0  0
    5.6238  -12.6845   27.1158 C   0  0  0  0  0  0  0  0  0  0  0  0
    6.1844  -11.5209   26.5873 C   0  0  0  0  0  0  0  0  0  0  0  0
    7.2780  -11.6002   25.7543 C   0  0  0  0  0  0  0  0  0  0  0  0
    7.7853  -12.8726   25.4742 C   0  0  0  0  0  0  0  0  0  0  0  0
    8.3155  -16.6654   23.6702 C   0  0  0  0  0  0  0  0  0  0  0  0
    8.4738  -17.8919   23.8730 O   0  0  0  0  0  0  0  0  0  0  0  0
    9.2111  -16.0237   22.7386 N   0  0  0  0  0  0  0  0  0  0  0  0
   10.1313  -16.8070   21.9616 C   0  0  1  0  0  0  0  0  0  0  0  0
   10.6172  -15.9341   20.7949 C   0  0  0  0  0  0  0  0  0  0  0  0
   11.5158  -16.7586   19.9608 C   0  0  0  0  0  0  0  0  0  0  0  0
   12.7706  -16.7582   20.0139 O   0  0  0  0  0  0  0  0  0  0  0  0
   11.3036  -17.2531   22.7137 C   0  0  0  0  0  0  0  0  0  0  0  0
   12.1113  -18.1366   22.3237 O   0  0  0  0  0  0  0  0  0  0  0  0
   10.9638  -17.6364   19.0068 O   0  0  0  0  0  0  0  0  0  0  0  0
   11.5789  -16.6707   23.9800 N   0  0  0  0  0  0  0  0  0  0  0  0
   12.5395  -17.2157   24.9177 C   0  0  1  0  0  0  0  0  0  0  0  0
   13.5538  -16.0822   25.1313 C   0  0  0  0  0  0  0  0  0  0  0  0
   14.6420  -16.1297   24.1375 C   0  0  0  0  0  0  0  0  0  0  0  0
   14.8098  -15.1393   23.3579 O   0  0  0  0  0  0  0  0  0  0  0  0
   11.8813  -17.4142   26.2120 C   0  0  0  0  0  0  0  0  0  0  0  0
   12.2392  -18.3495   26.9558 O   0  0  0  0  0  0  0  0  0  0  0  0
   15.4954  -17.2005   24.0134 O   0  0  0  0  0  0  0  0  0  0  0  0
   10.8451  -16.5915   26.6746 O   0  0  0  0  0  0  0  0  0  0  0  0
  2  1  1  1
  3  4  1  0
  3  2  1  0
  4  9  2  0
  5  6  2  0
  5  4  1  0
  6  7  1  0
  7  8  2  0
  9  8  1  0
 10  2  1  0
 10 12  1  0
 11 10  2  0
 13 12  1  0
 13 14  1  6
 14 15  1  0
 15 16  2  0
 17 13  1  0
 18 17  2  0
 19 15  1  0
 20 17  1  0
 21 20  1  0
 21 25  1  0
 21 22  1  1
 23 24  2  0
 23 22  1  0
 25 28  1  0
 26 25  2  0
 27 23  1  0
M  END
$$$$
