FDD.pdb
     RDKit          3D

 28 28  0  0  1  0  0  0  0  0999 V2000
    7.4591  -16.3969   25.9236 N   0  0  0  0  0  0  0  0  0  0  0  0
    6.8095  -16.5186   24.6313 C   0  0  1  0  0  0  0  0  0  0  0  0
    5.8083  -15.3779   24.5680 C   0  0  0  0  0  0  0  0  0  0  0  0
    6.4348  -14.1529   25.1382 C   0  0  0  0  0  0  0  0  0  0  0  0
    6.2232  -13.8151   26.4768 C   0  0  0  0  0  0  0  0  0  0  0  0
    6.8129  -12.6849   26.9857 C   0  0  0  0  0  0  0  0  0  0  0  0
    7.6223  -11.8654   26.1977 C   0  0  0  0  0  0  0  0  0  0  0  0
    7.8429  -12.1817   24.8758 C   0  0  0  0  0  0  0  0  0  0  0  0
    7.2321  -13.3364   24.3776 C   0  0  0  0  0  0  0  0  0  0  0  0
    7.8378  -16.2611   23.5547 C   0  0  0  0  0  0  0  0  0  0  0  0
    7.6005  -16.3995   22.3320 O   0  0  0  0  0  0  0  0  0  0  0  0
    9.1631  -15.8327   23.9314 N   0  0  0  0  0  0  0  0  0  0  0  0
   10.3173  -16.5393   23.4490 C   0  0  1  0  0  0  0  0  0  0  0  0
   11.1696  -15.5461   22.6450 C   0  0  0  0  0  0  0  0  0  0  0  0
   12.1873  -16.3222   21.9070 C   0  0  0  0  0  0  0  0  0  0  0  0
   13.4193  -16.0795   21.8833 O   0  0  0  0  0  0  0  0  0  0  0  0
   11.1519  -17.0967   24.5127 C   0  0  0  0  0  0  0  0  0  0  0  0
   11.7555  -16.4142   25.3816 O   0  0  0  0  0  0  0  0  0  0  0  0
   11.7894  -17.4403   21.1473 O   0  0  0  0  0  0  0  0  0  0  0  0
   11.3173  -18.5051   24.5994 N   0  0  0  0  0  0  0  0  0  0  0  0
   12.1365  -19.1526   25.6038 C   0  0  1  0  0  0  0  0  0  0  0  0
   13.4699  -18.3913   25.5615 C   0  0  0  0  0  0  0  0  0  0  0  0
   14.5924  -19.2770   25.2013 C   0  0  0  0  0  0  0  0  0  0  0  0
   14.3951  -20.2152   24.3661 O   0  0  0  0  0  0  0  0  0  0  0  0
   11.5653  -18.8878   26.9271 C   0  0  0  0  0  0  0  0  0  0  0  0
   10.7328  -17.9704   27.0739 O   0  0  0  0  0  0  0  0  0  0  0  0
   15.8554  -19.1348   25.7256 O   0  0  0  0  0  0  0  0  0  0  0  0
   11.9097  -19.6258   28.0679 O   0  0  0  0  0  0  0  0  0  0  0  0
  2  1  1  1
  3  4  1  0
  3  2  1  0
  4  9  2  0
  5  6  2  0
  5  4  1  0
  6  7  1  0
  7  8  2  0
  9  8  1  0
 10  2  1  0
 10 12  1  0
 11 10  2  0
 13 12  1  0
 13 14  1  1
 14 15  1  0
 15 16  2  0
 17 13  1  0
 18 17  2  0
 19 15  1  0
 20 17  1  0
 21 20  1  0
 21 25  1  0
 21 22  1  1
 23 24  2  0
 23 22  1  0
 25 28  1  0
 26 25  2  0
 27 23  1  0
M  END
$$$$
