FDD.pdb
     RDKit          3D

 28 28  0  0  1  0  0  0  0  0999 V2000
    7.1090  -16.4770   26.1203 N   0  0  0  0  0  0  0  0  0  0  0  0
    6.4848  -16.6864   24.8266 C   0  0  1  0  0  0  0  0  0  0  0  0
    5.6527  -15.4420   24.5681 C   0  0  0  0  0  0  0  0  0  0  0  0
    6.2854  -14.2851   25.2605 C   0  0  0  0  0  0  0  0  0  0  0  0
    5.9002  -13.9494   26.5603 C   0  0  0  0  0  0  0  0  0  0  0  0
    6.4982  -12.8827   27.1839 C   0  0  0  0  0  0  0  0  0  0  0  0
    7.4853  -12.1261   26.5508 C   0  0  0  0  0  0  0  0  0  0  0  0
    7.8787  -12.4415   25.2694 C   0  0  0  0  0  0  0  0  0  0  0  0
    7.2562  -13.5308   24.6525 C   0  0  0  0  0  0  0  0  0  0  0  0
    7.5682  -16.7170   23.7740 C   0  0  0  0  0  0  0  0  0  0  0  0
    7.3561  -17.0330   22.5800 O   0  0  0  0  0  0  0  0  0  0  0  0
    8.9193  -16.3675   24.1403 N   0  0  0  0  0  0  0  0  0  0  0  0
   10.0092  -16.6576   23.2503 C   0  0  1  0  0  0  0  0  0  0  0  0
   10.6287  -15.3195   22.8200 C   0  0  0  0  0  0  0  0  0  0  0  0
   11.5018  -15.5818   21.6575 C   0  0  0  0  0  0  0  0  0  0  0  0
   12.7555  -15.6522   21.6834 O   0  0  0  0  0  0  0  0  0  0  0  0
   11.0623  -17.4712   23.8568 C   0  0  0  0  0  0  0  0  0  0  0  0
   12.2111  -17.6360   23.3687 O   0  0  0  0  0  0  0  0  0  0  0  0
   10.9241  -15.7748   20.3868 O   0  0  0  0  0  0  0  0  0  0  0  0
   10.8034  -18.1396   25.0835 N   0  0  0  0  0  0  0  0  0  0  0  0
   11.7648  -19.0004   25.7422 C   0  0  1  0  0  0  0  0  0  0  0  0
   11.2569  -19.1083   27.1879 C   0  0  0  0  0  0  0  0  0  0  0  0
   11.0526  -17.7801   27.7947 C   0  0  0  0  0  0  0  0  0  0  0  0
   11.9378  -16.8827   27.6287 O   0  0  0  0  0  0  0  0  0  0  0  0
   11.6607  -20.3492   25.1787 C   0  0  0  0  0  0  0  0  0  0  0  0
   10.8153  -20.5910   24.2938 O   0  0  0  0  0  0  0  0  0  0  0  0
    9.9393  -17.4594   28.5351 O   0  0  0  0  0  0  0  0  0  0  0  0
   12.4782  -21.4117   25.5879 O   0  0  0  0  0  0  0  0  0  0  0  0
  2  1  1  1
  3  4  1  0
  3  2  1  0
  4  9  2  0
  5  6  2  0
  5  4  1  0
  6  7  1  0
  7  8  2  0
  9  8  1  0
 10  2  1  0
 10 12  1  0
 11 10  2  0
 13 12  1  0
 13 14  1  1
 14 15  1  0
 15 16  2  0
 17 13  1  0
 18 17  2  0
 19 15  1  0
 20 17  1  0
 21 20  1  0
 21 25  1  0
 21 22  1  1
 23 24  2  0
 23 22  1  0
 25 28  1  0
 26 25  2  0
 27 23  1  0
M  END
$$$$
