DIY.pdb
     RDKit          3D

 29 29  0  0  1  0  0  0  0  0999 V2000
   10.3990  -18.0068   17.3446 N   0  0  0  0  0  0  0  0  0  0  0  0
    9.4251  -18.0119   18.4535 C   0  0  1  0  0  0  0  0  0  0  0  0
    9.6128  -19.3166   19.1499 C   0  0  0  0  0  0  0  0  0  0  0  0
    9.5955  -20.5098   18.2906 C   0  0  0  0  0  0  0  0  0  0  0  0
   10.4604  -21.4205   18.2766 O   0  0  0  0  0  0  0  0  0  0  0  0
    9.7829  -16.8278   19.3315 C   0  0  0  0  0  0  0  0  0  0  0  0
   10.9641  -16.3924   19.3265 O   0  0  0  0  0  0  0  0  0  0  0  0
    8.4917  -20.6062   17.4153 O   0  0  0  0  0  0  0  0  0  0  0  0
    6.3971  -12.6704   19.6548 C   0  0  0  0  0  0  0  0  0  0  0  0
    7.6658  -13.5484   19.6592 C   0  0  0  0  0  0  0  0  0  0  0  0
    7.9020  -14.1407   20.9953 C   0  0  2  0  0  0  0  0  0  0  0  0
    7.8315  -13.1203   22.1091 C   0  0  0  0  0  0  0  0  0  0  0  0
    9.0318  -15.0835   21.0459 C   0  0  2  0  0  0  0  0  0  0  0  0
    8.8198  -16.2143   20.1451 N   0  0  0  0  0  0  0  0  0  0  0  0
    9.4966  -15.5208   22.3649 C   0  0  0  0  0  0  0  0  0  0  0  0
    8.7262  -16.2496   23.1080 O   0  0  0  0  0  0  0  0  0  0  0  0
   10.3435  -15.2880   30.8157 O   0  0  0  0  0  0  0  0  0  0  0  0
   10.2169  -15.2204   29.4360 C   0  0  0  0  0  0  0  0  0  0  0  0
   10.4951  -16.3069   28.6361 C   0  0  0  0  0  0  0  0  0  0  0  0
   10.3677  -16.2362   27.2589 C   0  0  0  0  0  0  0  0  0  0  0  0
    9.9597  -15.0869   26.6150 C   0  0  0  0  0  0  0  0  0  0  0  0
    9.8304  -15.0072   25.1448 C   0  0  0  0  0  0  0  0  0  0  0  0
   10.9925  -15.6078   24.3920 C   0  0  2  0  0  0  0  0  0  0  0  0
   10.7272  -15.2561   22.9757 N   0  0  0  0  0  0  0  0  0  0  0  0
   10.9552  -17.0742   24.5675 C   0  0  0  0  0  0  0  0  0  0  0  0
    9.8546  -17.8008   24.0733 O   0  0  0  0  0  0  0  0  0  0  0  0
    9.6792  -13.9891   27.4328 C   0  0  0  0  0  0  0  0  0  0  0  0
    9.8055  -14.0585   28.8038 C   0  0  0  0  0  0  0  0  0  0  0  0
   11.8345  -17.7426   25.1288 O   0  0  0  0  0  0  0  0  0  0  0  0
  2  1  1  6
  2  3  1  0
  3  4  1  0
  4  8  1  0
  5  4  2  0
  6  2  1  0
  7  6  2  0
 10  9  1  0
 11 12  1  1
 11 10  1  0
 13 11  1  0
 13 14  1  6
 14  6  1  0
 15 24  1  0
 15 13  1  0
 16 15  2  0
 18 28  2  0
 18 17  1  0
 19 18  1  0
 20 21  1  0
 20 19  2  0
 21 27  2  0
 22 21  1  0
 23 22  1  1
 23 24  1  0
 25 23  1  0
 25 26  1  0
 27 28  1  0
 29 25  2  0
M  END
$$$$
