DIY.pdb
     RDKit          3D

 29 29  0  0  1  0  0  0  0  0999 V2000
    9.3475  -18.0840   18.6776 N   0  0  0  0  0  0  0  0  0  0  0  0
   10.7716  -17.7580   18.8870 C   0  0  1  0  0  0  0  0  0  0  0  0
   11.3186  -17.4506   17.5346 C   0  0  0  0  0  0  0  0  0  0  0  0
   11.3722  -18.5792   16.5935 C   0  0  0  0  0  0  0  0  0  0  0  0
   11.1136  -18.5276   15.3655 O   0  0  0  0  0  0  0  0  0  0  0  0
   10.7953  -16.5551   19.8107 C   0  0  0  0  0  0  0  0  0  0  0  0
   11.9019  -16.0538   20.1405 O   0  0  0  0  0  0  0  0  0  0  0  0
   11.7526  -19.8166   17.1573 O   0  0  0  0  0  0  0  0  0  0  0  0
    6.6010  -13.0569   19.4641 C   0  0  0  0  0  0  0  0  0  0  0  0
    8.0537  -13.5227   19.6950 C   0  0  0  0  0  0  0  0  0  0  0  0
    8.2076  -14.1564   21.0241 C   0  0  2  0  0  0  0  0  0  0  0  0
    7.7665  -13.2565   22.1565 C   0  0  0  0  0  0  0  0  0  0  0  0
    9.4869  -14.8608   21.2119 C   0  0  2  0  0  0  0  0  0  0  0  0
    9.6060  -15.9963   20.3001 N   0  0  0  0  0  0  0  0  0  0  0  0
    9.8731  -15.2203   22.5789 C   0  0  0  0  0  0  0  0  0  0  0  0
   10.2006  -14.2909   23.4190 O   0  0  0  0  0  0  0  0  0  0  0  0
   10.4873  -13.9528   30.4144 O   0  0  0  0  0  0  0  0  0  0  0  0
   10.1546  -14.4912   29.1801 C   0  0  0  0  0  0  0  0  0  0  0  0
   10.4612  -15.7956   28.8604 C   0  0  0  0  0  0  0  0  0  0  0  0
   10.1276  -16.3302   27.6271 C   0  0  0  0  0  0  0  0  0  0  0  0
    9.4767  -15.5962   26.6579 C   0  0  0  0  0  0  0  0  0  0  0  0
    9.1266  -16.1626   25.3383 C   0  0  0  0  0  0  0  0  0  0  0  0
   10.3067  -16.7048   24.5695 C   0  0  2  0  0  0  0  0  0  0  0  0
    9.9391  -16.4968   23.1477 N   0  0  0  0  0  0  0  0  0  0  0  0
   10.4285  -18.1487   24.8573 C   0  0  0  0  0  0  0  0  0  0  0  0
   10.9931  -18.5639   26.0789 O   0  0  0  0  0  0  0  0  0  0  0  0
    9.1688  -14.2740   26.9894 C   0  0  0  0  0  0  0  0  0  0  0  0
    9.5003  -13.7410   28.2168 C   0  0  0  0  0  0  0  0  0  0  0  0
   10.0662  -19.0556   24.0949 O   0  0  0  0  0  0  0  0  0  0  0  0
  2  1  1  6
  2  3  1  0
  3  4  1  0
  4  8  1  0
  5  4  2  0
  6  2  1  0
  7  6  2  0
 10  9  1  0
 11 12  1  1
 11 10  1  0
 13 11  1  0
 13 14  1  6
 14  6  1  0
 15 24  1  0
 15 13  1  0
 16 15  2  0
 18 28  2  0
 18 17  1  0
 19 18  1  0
 20 21  1  0
 20 19  2  0
 21 27  2  0
 22 21  1  0
 23 22  1  1
 23 24  1  0
 25 23  1  0
 25 26  1  0
 27 28  1  0
 29 25  2  0
M  END
$$$$
