DIY.pdb
     RDKit          3D

 29 29  0  0  1  0  0  0  0  0999 V2000
   10.2900  -17.7521   18.0739 N   0  0  0  0  0  0  0  0  0  0  0  0
   11.4625  -17.6431   18.9636 C   0  0  1  0  0  0  0  0  0  0  0  0
   12.6137  -17.3126   18.0759 C   0  0  0  0  0  0  0  0  0  0  0  0
   13.1300  -18.4197   17.2572 C   0  0  0  0  0  0  0  0  0  0  0  0
   12.6340  -19.5709   17.1776 O   0  0  0  0  0  0  0  0  0  0  0  0
   11.1445  -16.5286   19.9422 C   0  0  0  0  0  0  0  0  0  0  0  0
   12.0874  -15.9442   20.5373 O   0  0  0  0  0  0  0  0  0  0  0  0
   14.2890  -18.1248   16.5067 O   0  0  0  0  0  0  0  0  0  0  0  0
    6.9086  -13.2623   18.8823 C   0  0  0  0  0  0  0  0  0  0  0  0
    8.2729  -13.7838   19.3794 C   0  0  0  0  0  0  0  0  0  0  0  0
    8.1405  -14.4686   20.6853 C   0  0  2  0  0  0  0  0  0  0  0  0
    7.4036  -13.6366   21.7108 C   0  0  0  0  0  0  0  0  0  0  0  0
    9.3719  -15.1310   21.1466 C   0  0  2  0  0  0  0  0  0  0  0  0
    9.8199  -16.1422   20.1917 N   0  0  0  0  0  0  0  0  0  0  0  0
    9.4014  -15.6338   22.5225 C   0  0  0  0  0  0  0  0  0  0  0  0
    8.8964  -16.7952   22.7926 O   0  0  0  0  0  0  0  0  0  0  0  0
   10.4813  -16.0627   31.4281 O   0  0  0  0  0  0  0  0  0  0  0  0
   10.4597  -15.6998   30.0894 C   0  0  0  0  0  0  0  0  0  0  0  0
   11.0296  -16.4966   29.1210 C   0  0  0  0  0  0  0  0  0  0  0  0
   11.0063  -16.1315   27.7853 C   0  0  0  0  0  0  0  0  0  0  0  0
   10.4181  -14.9620   27.3516 C   0  0  0  0  0  0  0  0  0  0  0  0
   10.3988  -14.5668   25.9274 C   0  0  0  0  0  0  0  0  0  0  0  0
    9.8521  -15.6269   25.0027 C   0  0  2  0  0  0  0  0  0  0  0  0
    9.9320  -15.0093   23.6565 N   0  0  0  0  0  0  0  0  0  0  0  0
    8.4420  -15.8796   25.3634 C   0  0  0  0  0  0  0  0  0  0  0  0
    8.1215  -17.0026   26.1505 O   0  0  0  0  0  0  0  0  0  0  0  0
    9.8419  -14.1589   28.3395 C   0  0  0  0  0  0  0  0  0  0  0  0
    9.8645  -14.5216   29.6693 C   0  0  0  0  0  0  0  0  0  0  0  0
    7.4860  -15.1683   25.0241 O   0  0  0  0  0  0  0  0  0  0  0  0
  2  1  1  6
  2  3  1  0
  3  4  1  0
  4  8  1  0
  5  4  2  0
  6  2  1  0
  7  6  2  0
 10  9  1  0
 11 12  1  1
 11 10  1  0
 13 11  1  0
 13 14  1  6
 14  6  1  0
 15 24  1  0
 15 13  1  0
 16 15  2  0
 18 28  2  0
 18 17  1  0
 19 18  1  0
 20 21  1  0
 20 19  2  0
 21 27  2  0
 22 21  1  0
 23 22  1  1
 23 24  1  0
 25 23  1  0
 25 26  1  0
 27 28  1  0
 29 25  2  0
M  END
$$$$
