DIY.pdb
     RDKit          3D

 29 29  0  0  1  0  0  0  0  0999 V2000
   11.0622  -17.7128   17.2969 N   0  0  0  0  0  0  0  0  0  0  0  0
   10.0314  -17.9402   18.3284 C   0  0  1  0  0  0  0  0  0  0  0  0
   10.4087  -19.2155   19.0021 C   0  0  0  0  0  0  0  0  0  0  0  0
    9.9533  -20.4480   18.3419 C   0  0  0  0  0  0  0  0  0  0  0  0
    9.3880  -20.5187   17.2225 O   0  0  0  0  0  0  0  0  0  0  0  0
   10.1016  -16.7468   19.2620 C   0  0  0  0  0  0  0  0  0  0  0  0
   11.1857  -16.1168   19.3754 O   0  0  0  0  0  0  0  0  0  0  0  0
   10.1898  -21.6398   19.0612 O   0  0  0  0  0  0  0  0  0  0  0  0
    6.6491  -12.7417   19.1797 C   0  0  0  0  0  0  0  0  0  0  0  0
    7.9011  -13.6086   19.4271 C   0  0  0  0  0  0  0  0  0  0  0  0
    7.7966  -14.3471   20.7061 C   0  0  2  0  0  0  0  0  0  0  0  0
    7.3556  -13.4685   21.8551 C   0  0  0  0  0  0  0  0  0  0  0  0
    8.9266  -15.2521   20.9741 C   0  0  2  0  0  0  0  0  0  0  0  0
    8.9801  -16.3375   19.9973 N   0  0  0  0  0  0  0  0  0  0  0  0
    9.0948  -15.7460   22.3433 C   0  0  0  0  0  0  0  0  0  0  0  0
    8.2995  -16.6612   22.7979 O   0  0  0  0  0  0  0  0  0  0  0  0
   10.5257  -15.9058   31.1163 O   0  0  0  0  0  0  0  0  0  0  0  0
   10.4580  -15.6153   29.7616 C   0  0  0  0  0  0  0  0  0  0  0  0
   10.8302  -16.5396   28.8104 C   0  0  0  0  0  0  0  0  0  0  0  0
   10.7614  -16.2465   27.4586 C   0  0  0  0  0  0  0  0  0  0  0  0
   10.3216  -15.0259   26.9911 C   0  0  0  0  0  0  0  0  0  0  0  0
   10.2547  -14.7085   25.5490 C   0  0  0  0  0  0  0  0  0  0  0  0
   10.0694  -15.9153   24.6619 C   0  0  2  0  0  0  0  0  0  0  0  0
   10.0496  -15.3555   23.2885 N   0  0  0  0  0  0  0  0  0  0  0  0
    8.7649  -16.5321   24.9785 C   0  0  0  0  0  0  0  0  0  0  0  0
    7.5801  -15.8271   24.6915 O   0  0  0  0  0  0  0  0  0  0  0  0
    9.9457  -14.0935   27.9617 C   0  0  0  0  0  0  0  0  0  0  0  0
   10.0136  -14.3844   29.3075 C   0  0  0  0  0  0  0  0  0  0  0  0
    8.6163  -17.6505   25.4906 O   0  0  0  0  0  0  0  0  0  0  0  0
  2  1  1  6
  2  3  1  0
  3  4  1  0
  4  8  1  0
  5  4  2  0
  6  2  1  0
  7  6  2  0
 10  9  1  0
 11 12  1  1
 11 10  1  0
 13 11  1  0
 13 14  1  6
 14  6  1  0
 15 24  1  0
 15 13  1  0
 16 15  2  0
 18 28  2  0
 18 17  1  0
 19 18  1  0
 20 21  1  0
 20 19  2  0
 21 27  2  0
 22 21  1  0
 23 22  1  1
 23 24  1  0
 25 23  1  0
 25 26  1  0
 27 28  1  0
 29 25  2  0
M  END
$$$$
