DIY.pdb
     RDKit          3D

 29 29  0  0  1  0  0  0  0  0999 V2000
    9.0557  -18.5698   18.8807 N   0  0  0  0  0  0  0  0  0  0  0  0
   10.4825  -18.1936   18.8485 C   0  0  1  0  0  0  0  0  0  0  0  0
   10.8123  -17.9831   17.4099 C   0  0  0  0  0  0  0  0  0  0  0  0
   11.2726  -19.1723   16.6775 C   0  0  0  0  0  0  0  0  0  0  0  0
   10.5432  -20.0965   16.2400 O   0  0  0  0  0  0  0  0  0  0  0  0
   10.5990  -16.9198   19.6638 C   0  0  0  0  0  0  0  0  0  0  0  0
   11.7154  -16.3445   19.7509 O   0  0  0  0  0  0  0  0  0  0  0  0
   12.6666  -19.2477   16.4660 O   0  0  0  0  0  0  0  0  0  0  0  0
    6.3036  -13.5880   19.6444 C   0  0  0  0  0  0  0  0  0  0  0  0
    7.7814  -14.0274   19.7033 C   0  0  0  0  0  0  0  0  0  0  0  0
    8.1459  -14.4990   21.0586 C   0  0  2  0  0  0  0  0  0  0  0  0
    7.8515  -13.4767   22.1332 C   0  0  0  0  0  0  0  0  0  0  0  0
    9.4575  -15.1638   21.1334 C   0  0  2  0  0  0  0  0  0  0  0  0
    9.4846  -16.3767   20.3190 N   0  0  0  0  0  0  0  0  0  0  0  0
   10.0327  -15.3897   22.4619 C   0  0  0  0  0  0  0  0  0  0  0  0
   10.9101  -14.5610   22.9311 O   0  0  0  0  0  0  0  0  0  0  0  0
   10.7176  -14.9734   31.0075 O   0  0  0  0  0  0  0  0  0  0  0  0
   10.4536  -15.0499   29.6479 C   0  0  0  0  0  0  0  0  0  0  0  0
    9.6855  -14.0997   29.0118 C   0  0  0  0  0  0  0  0  0  0  0  0
    9.4238  -14.1789   27.6541 C   0  0  0  0  0  0  0  0  0  0  0  0
    9.9110  -15.2023   26.8686 C   0  0  0  0  0  0  0  0  0  0  0  0
    9.6265  -15.2928   25.4210 C   0  0  0  0  0  0  0  0  0  0  0  0
   10.3063  -16.4508   24.7321 C   0  0  2  0  0  0  0  0  0  0  0  0
    9.7531  -16.4289   23.3561 N   0  0  0  0  0  0  0  0  0  0  0  0
    9.9134  -17.6986   25.4184 C   0  0  0  0  0  0  0  0  0  0  0  0
    8.6395  -18.2481   25.1761 O   0  0  0  0  0  0  0  0  0  0  0  0
   10.6894  -16.1624   27.5207 C   0  0  0  0  0  0  0  0  0  0  0  0
   10.9506  -16.0843   28.8720 C   0  0  0  0  0  0  0  0  0  0  0  0
   10.6284  -18.3246   26.2134 O   0  0  0  0  0  0  0  0  0  0  0  0
  2  1  1  6
  2  3  1  0
  3  4  1  0
  4  8  1  0
  5  4  2  0
  6  2  1  0
  7  6  2  0
 10  9  1  0
 11 12  1  1
 11 10  1  0
 13 11  1  0
 13 14  1  1
 14  6  1  0
 15 24  1  0
 15 13  1  0
 16 15  2  0
 18 28  2  0
 18 17  1  0
 19 18  1  0
 20 21  1  0
 20 19  2  0
 21 27  2  0
 22 21  1  0
 23 22  1  1
 23 24  1  0
 25 23  1  0
 25 26  1  0
 27 28  1  0
 29 25  2  0
M  END
$$$$
