DIY.pdb
     RDKit          3D

 29 29  0  0  1  0  0  0  0  0999 V2000
   10.2892  -18.4253   17.6242 N   0  0  0  0  0  0  0  0  0  0  0  0
    9.6569  -18.5629   18.9507 C   0  0  1  0  0  0  0  0  0  0  0  0
   10.3061  -19.7445   19.5869 C   0  0  0  0  0  0  0  0  0  0  0  0
    9.8904  -21.0581   19.0729 C   0  0  0  0  0  0  0  0  0  0  0  0
    9.6773  -21.3443   17.8686 O   0  0  0  0  0  0  0  0  0  0  0  0
    9.9484  -17.2711   19.6905 C   0  0  0  0  0  0  0  0  0  0  0  0
   11.0842  -16.7401   19.5780 O   0  0  0  0  0  0  0  0  0  0  0  0
    9.7261  -22.0634   20.0506 O   0  0  0  0  0  0  0  0  0  0  0  0
    6.4641  -13.2743   19.4675 C   0  0  0  0  0  0  0  0  0  0  0  0
    7.7201  -14.1584   19.6132 C   0  0  0  0  0  0  0  0  0  0  0  0
    7.9488  -14.5345   21.0267 C   0  0  2  0  0  0  0  0  0  0  0  0
    7.8147  -13.3630   21.9734 C   0  0  0  0  0  0  0  0  0  0  0  0
    9.1122  -15.4121   21.2367 C   0  0  2  0  0  0  0  0  0  0  0  0
    8.9738  -16.6632   20.4945 N   0  0  0  0  0  0  0  0  0  0  0  0
    9.5506  -15.6453   22.6153 C   0  0  0  0  0  0  0  0  0  0  0  0
    8.7857  -16.2990   23.4303 O   0  0  0  0  0  0  0  0  0  0  0  0
   10.0198  -15.5158   31.0343 O   0  0  0  0  0  0  0  0  0  0  0  0
    9.9753  -15.3662   29.6559 C   0  0  0  0  0  0  0  0  0  0  0  0
    9.9231  -16.4578   28.8174 C   0  0  0  0  0  0  0  0  0  0  0  0
    9.8787  -16.3051   27.4416 C   0  0  0  0  0  0  0  0  0  0  0  0
    9.8844  -15.0654   26.8376 C   0  0  0  0  0  0  0  0  0  0  0  0
    9.8448  -14.9005   25.3693 C   0  0  0  0  0  0  0  0  0  0  0  0
   11.0296  -15.4991   24.6513 C   0  0  2  0  0  0  0  0  0  0  0  0
   10.7492  -15.2467   23.2169 N   0  0  0  0  0  0  0  0  0  0  0  0
   11.0519  -16.9521   24.9172 C   0  0  0  0  0  0  0  0  0  0  0  0
   11.9982  -17.4743   25.8200 O   0  0  0  0  0  0  0  0  0  0  0  0
    9.9374  -13.9628   27.6946 C   0  0  0  0  0  0  0  0  0  0  0  0
    9.9814  -14.1138   29.0641 C   0  0  0  0  0  0  0  0  0  0  0  0
   10.2872  -17.7783   24.3998 O   0  0  0  0  0  0  0  0  0  0  0  0
  2  1  1  6
  2  3  1  0
  3  4  1  0
  4  8  1  0
  5  4  2  0
  6  2  1  0
  7  6  2  0
 10  9  1  0
 11 12  1  1
 11 10  1  0
 13 11  1  0
 13 14  1  1
 14  6  1  0
 15 24  1  0
 15 13  1  0
 16 15  2  0
 18 28  2  0
 18 17  1  0
 19 18  1  0
 20 21  1  0
 20 19  2  0
 21 27  2  0
 22 21  1  0
 23 22  1  1
 23 24  1  0
 25 23  1  0
 25 26  1  0
 27 28  1  0
 29 25  2  0
M  END
$$$$
