DIY.pdb
     RDKit          3D

 29 29  0  0  1  0  0  0  0  0999 V2000
    8.5610  -15.3203   20.3624 N   0  0  0  0  0  0  0  0  0  0  0  0
    7.7852  -15.7893   21.5271 C   0  0  1  0  0  0  0  0  0  0  0  0
    7.7993  -17.2780   21.4487 C   0  0  0  0  0  0  0  0  0  0  0  0
    7.0589  -17.8674   20.3231 C   0  0  0  0  0  0  0  0  0  0  0  0
    6.1899  -17.2858   19.6274 O   0  0  0  0  0  0  0  0  0  0  0  0
    8.5095  -15.2650   22.7523 C   0  0  0  0  0  0  0  0  0  0  0  0
    9.7667  -15.2012   22.7440 O   0  0  0  0  0  0  0  0  0  0  0  0
    7.3807  -19.2100   20.0271 O   0  0  0  0  0  0  0  0  0  0  0  0
    6.2014  -11.2667   25.4876 C   0  0  0  0  0  0  0  0  0  0  0  0
    7.2320  -12.2248   24.8550 C   0  0  0  0  0  0  0  0  0  0  0  0
    7.5526  -13.3449   25.7686 C   0  0  2  0  0  0  0  0  0  0  0  0
    7.9794  -12.8766   27.1417 C   0  0  0  0  0  0  0  0  0  0  0  0
    8.3710  -14.4057   25.1583 C   0  0  2  0  0  0  0  0  0  0  0  0
    7.8004  -14.8521   23.8893 N   0  0  0  0  0  0  0  0  0  0  0  0
    8.7630  -15.5363   26.0039 C   0  0  0  0  0  0  0  0  0  0  0  0
    7.8560  -16.3339   26.4706 O   0  0  0  0  0  0  0  0  0  0  0  0
   13.5979  -21.6368   30.4306 O   0  0  0  0  0  0  0  0  0  0  0  0
   13.1267  -20.6413   29.5873 C   0  0  0  0  0  0  0  0  0  0  0  0
   13.6594  -19.3712   29.6091 C   0  0  0  0  0  0  0  0  0  0  0  0
   13.1868  -18.3795   28.7658 C   0  0  0  0  0  0  0  0  0  0  0  0
   12.1665  -18.6030   27.8653 C   0  0  0  0  0  0  0  0  0  0  0  0
   11.6556  -17.5439   26.9698 C   0  0  0  0  0  0  0  0  0  0  0  0
   10.2899  -17.0248   27.3483 C   0  0  2  0  0  0  0  0  0  0  0  0
   10.0519  -15.9080   26.4017 N   0  0  0  0  0  0  0  0  0  0  0  0
   10.3516  -16.5136   28.7329 C   0  0  0  0  0  0  0  0  0  0  0  0
   10.7512  -15.1824   28.9601 O   0  0  0  0  0  0  0  0  0  0  0  0
   11.6312  -19.8937   27.8487 C   0  0  0  0  0  0  0  0  0  0  0  0
   12.1011  -20.8816   28.6876 C   0  0  0  0  0  0  0  0  0  0  0  0
   10.0740  -17.1733   29.7442 O   0  0  0  0  0  0  0  0  0  0  0  0
  2  1  1  6
  2  3  1  0
  3  4  1  0
  4  8  1  0
  5  4  2  0
  6  2  1  0
  7  6  2  0
 10  9  1  0
 11 12  1  1
 11 10  1  0
 13 11  1  0
 13 14  1  6
 14  6  1  0
 15 24  1  0
 15 13  1  0
 16 15  2  0
 18 28  2  0
 18 17  1  0
 19 18  1  0
 20 21  1  0
 20 19  2  0
 21 27  2  0
 22 21  1  0
 23 22  1  6
 23 24  1  0
 25 23  1  0
 25 26  1  0
 27 28  1  0
 29 25  2  0
M  END
$$$$
