DIY.pdb
     RDKit          3D

 29 29  0  0  1  0  0  0  0  0999 V2000
   10.1277  -17.9846   18.4552 N   0  0  0  0  0  0  0  0  0  0  0  0
   11.3640  -17.6477   19.1876 C   0  0  1  0  0  0  0  0  0  0  0  0
   12.3536  -17.2476   18.1468 C   0  0  0  0  0  0  0  0  0  0  0  0
   12.9513  -18.3472   17.3746 C   0  0  0  0  0  0  0  0  0  0  0  0
   13.1422  -18.3572   16.1332 O   0  0  0  0  0  0  0  0  0  0  0  0
   11.0030  -16.5040   20.1164 C   0  0  0  0  0  0  0  0  0  0  0  0
   11.9201  -15.8888   20.7207 O   0  0  0  0  0  0  0  0  0  0  0  0
   13.3325  -19.4770   18.1308 O   0  0  0  0  0  0  0  0  0  0  0  0
    6.7823  -13.1992   18.8994 C   0  0  0  0  0  0  0  0  0  0  0  0
    8.1299  -13.7246   19.4364 C   0  0  0  0  0  0  0  0  0  0  0  0
    7.9481  -14.4653   20.7054 C   0  0  2  0  0  0  0  0  0  0  0  0
    7.1118  -13.7068   21.7114 C   0  0  0  0  0  0  0  0  0  0  0  0
    9.1775  -15.0913   21.2198 C   0  0  2  0  0  0  0  0  0  0  0  0
    9.6671  -16.1247   20.3101 N   0  0  0  0  0  0  0  0  0  0  0  0
    9.1785  -15.5494   22.6116 C   0  0  0  0  0  0  0  0  0  0  0  0
    8.6610  -16.6983   22.9098 O   0  0  0  0  0  0  0  0  0  0  0  0
   10.5896  -15.9378   31.4744 O   0  0  0  0  0  0  0  0  0  0  0  0
   10.5146  -15.5787   30.1366 C   0  0  0  0  0  0  0  0  0  0  0  0
   10.7846  -16.4845   29.1346 C   0  0  0  0  0  0  0  0  0  0  0  0
   10.7087  -16.1228   27.7999 C   0  0  0  0  0  0  0  0  0  0  0  0
   10.3628  -14.8490   27.4005 C   0  0  0  0  0  0  0  0  0  0  0  0
   10.2888  -14.4590   25.9767 C   0  0  0  0  0  0  0  0  0  0  0  0
    9.6289  -15.4875   25.0911 C   0  0  2  0  0  0  0  0  0  0  0  0
    9.6926  -14.8916   23.7343 N   0  0  0  0  0  0  0  0  0  0  0  0
    8.2218  -15.6360   25.5158 C   0  0  0  0  0  0  0  0  0  0  0  0
    7.8485  -16.7515   26.2902 O   0  0  0  0  0  0  0  0  0  0  0  0
   10.0903  -13.9357   28.4224 C   0  0  0  0  0  0  0  0  0  0  0  0
   10.1653  -14.2948   29.7512 C   0  0  0  0  0  0  0  0  0  0  0  0
    7.3120  -14.8407   25.2423 O   0  0  0  0  0  0  0  0  0  0  0  0
  2  1  1  6
  2  3  1  0
  3  4  1  0
  4  8  1  0
  5  4  2  0
  6  2  1  0
  7  6  2  0
 10  9  1  0
 11 12  1  1
 11 10  1  0
 13 11  1  0
 13 14  1  6
 14  6  1  0
 15 24  1  0
 15 13  1  0
 16 15  2  0
 18 28  2  0
 18 17  1  0
 19 18  1  0
 20 21  1  0
 20 19  2  0
 21 27  2  0
 22 21  1  0
 23 22  1  1
 23 24  1  0
 25 23  1  0
 25 26  1  0
 27 28  1  0
 29 25  2  0
M  END
$$$$
