DIY.pdb
     RDKit          3D

 29 29  0  0  1  0  0  0  0  0999 V2000
   12.0810  -17.2922   18.1783 N   0  0  0  0  0  0  0  0  0  0  0  0
   11.0523  -17.9256   19.0261 C   0  0  1  0  0  0  0  0  0  0  0  0
   11.6837  -19.1605   19.5728 C   0  0  0  0  0  0  0  0  0  0  0  0
   11.9359  -20.2351   18.6012 C   0  0  0  0  0  0  0  0  0  0  0  0
   13.0497  -20.7624   18.3582 O   0  0  0  0  0  0  0  0  0  0  0  0
   10.7197  -16.9153   20.1076 C   0  0  0  0  0  0  0  0  0  0  0  0
   11.6470  -16.4467   20.8184 O   0  0  0  0  0  0  0  0  0  0  0  0
   10.7998  -20.6896   17.8967 O   0  0  0  0  0  0  0  0  0  0  0  0
    6.9948  -13.1727   19.0014 C   0  0  0  0  0  0  0  0  0  0  0  0
    8.2220  -13.8998   19.5894 C   0  0  0  0  0  0  0  0  0  0  0  0
    7.8530  -14.6915   20.7848 C   0  0  2  0  0  0  0  0  0  0  0  0
    7.0686  -13.8896   21.7989 C   0  0  0  0  0  0  0  0  0  0  0  0
    8.9438  -15.5255   21.3161 C   0  0  2  0  0  0  0  0  0  0  0  0
    9.3989  -16.4981   20.3252 N   0  0  0  0  0  0  0  0  0  0  0  0
    8.7526  -16.1411   22.6320 C   0  0  0  0  0  0  0  0  0  0  0  0
    8.2131  -17.3150   22.7194 O   0  0  0  0  0  0  0  0  0  0  0  0
    6.1202  -10.6427   26.1781 O   0  0  0  0  0  0  0  0  0  0  0  0
    6.8792  -11.8038   26.1895 C   0  0  0  0  0  0  0  0  0  0  0  0
    6.4996  -12.9016   26.9300 C   0  0  0  0  0  0  0  0  0  0  0  0
    7.2596  -14.0593   26.9393 C   0  0  0  0  0  0  0  0  0  0  0  0
    8.4277  -14.1793   26.2162 C   0  0  0  0  0  0  0  0  0  0  0  0
    9.2442  -15.4113   26.2309 C   0  0  0  0  0  0  0  0  0  0  0  0
    8.8985  -16.3909   25.1361 C   0  0  2  0  0  0  0  0  0  0  0  0
    9.0927  -15.6189   23.8846 N   0  0  0  0  0  0  0  0  0  0  0  0
    7.4791  -16.7736   25.2825 C   0  0  0  0  0  0  0  0  0  0  0  0
    7.1252  -17.7699   26.2129 O   0  0  0  0  0  0  0  0  0  0  0  0
    8.8064  -13.0618   25.4675 C   0  0  0  0  0  0  0  0  0  0  0  0
    8.0505  -11.9090   25.4575 C   0  0  0  0  0  0  0  0  0  0  0  0
    6.5427  -16.2797   24.6389 O   0  0  0  0  0  0  0  0  0  0  0  0
  2  1  1  6
  2  3  1  0
  3  4  1  0
  4  8  1  0
  5  4  2  0
  6  2  1  0
  7  6  2  0
 10  9  1  0
 11 12  1  1
 11 10  1  0
 13 11  1  0
 13 14  1  6
 14  6  1  0
 15 24  1  0
 15 13  1  0
 16 15  2  0
 18 28  2  0
 18 17  1  0
 19 18  1  0
 20 21  1  0
 20 19  2  0
 21 27  2  0
 22 21  1  0
 23 22  1  1
 23 24  1  0
 25 23  1  0
 25 26  1  0
 27 28  1  0
 29 25  2  0
M  END
$$$$
