DIY.pdb
     RDKit          3D

 29 29  0  0  1  0  0  0  0  0999 V2000
    9.2109  -17.7437   17.8217 N   0  0  0  0  0  0  0  0  0  0  0  0
   10.1692  -18.1007   18.8859 C   0  0  1  0  0  0  0  0  0  0  0  0
   11.4293  -18.4785   18.1846 C   0  0  0  0  0  0  0  0  0  0  0  0
   11.3262  -19.6040   17.2437 C   0  0  0  0  0  0  0  0  0  0  0  0
   12.1576  -19.8941   16.3480 O   0  0  0  0  0  0  0  0  0  0  0  0
   10.3298  -16.8575   19.7401 C   0  0  0  0  0  0  0  0  0  0  0  0
   11.4510  -16.2875   19.7930 O   0  0  0  0  0  0  0  0  0  0  0  0
   10.1756  -20.4089   17.3907 O   0  0  0  0  0  0  0  0  0  0  0  0
    6.3495  -13.2070   20.0398 C   0  0  0  0  0  0  0  0  0  0  0  0
    7.7493  -13.8555   20.0556 C   0  0  0  0  0  0  0  0  0  0  0  0
    8.0535  -14.4400   21.3814 C   0  0  2  0  0  0  0  0  0  0  0  0
    7.8465  -13.4604   22.5146 C   0  0  0  0  0  0  0  0  0  0  0  0
    9.2951  -15.2303   21.4217 C   0  0  2  0  0  0  0  0  0  0  0  0
    9.2507  -16.3369   20.4685 N   0  0  0  0  0  0  0  0  0  0  0  0
    9.7856  -15.6633   22.7327 C   0  0  0  0  0  0  0  0  0  0  0  0
    9.0407  -16.4125   23.4815 O   0  0  0  0  0  0  0  0  0  0  0  0
   10.3866  -15.4013   31.1592 O   0  0  0  0  0  0  0  0  0  0  0  0
   10.3184  -15.3042   29.7771 C   0  0  0  0  0  0  0  0  0  0  0  0
   10.0072  -16.3952   28.9959 C   0  0  0  0  0  0  0  0  0  0  0  0
    9.9399  -16.2950   27.6163 C   0  0  0  0  0  0  0  0  0  0  0  0
   10.1781  -15.1105   26.9514 C   0  0  0  0  0  0  0  0  0  0  0  0
   10.1143  -15.0032   25.4786 C   0  0  0  0  0  0  0  0  0  0  0  0
   11.2778  -15.6466   24.7644 C   0  0  2  0  0  0  0  0  0  0  0  0
   11.0175  -15.3743   23.3298 N   0  0  0  0  0  0  0  0  0  0  0  0
   11.2376  -17.1008   25.0215 C   0  0  0  0  0  0  0  0  0  0  0  0
   12.2608  -17.6954   25.7849 O   0  0  0  0  0  0  0  0  0  0  0  0
   10.4931  -14.0081   27.7504 C   0  0  0  0  0  0  0  0  0  0  0  0
   10.5601  -14.1068   29.1238 C   0  0  0  0  0  0  0  0  0  0  0  0
   10.3551  -17.8681   24.6120 O   0  0  0  0  0  0  0  0  0  0  0  0
  2  1  1  6
  2  3  1  0
  3  4  1  0
  4  8  1  0
  5  4  2  0
  6  2  1  0
  7  6  2  0
 10  9  1  0
 11 12  1  1
 11 10  1  0
 13 11  1  0
 13 14  1  6
 14  6  1  0
 15 24  1  0
 15 13  1  0
 16 15  2  0
 18 28  2  0
 18 17  1  0
 19 18  1  0
 20 21  1  0
 20 19  2  0
 21 27  2  0
 22 21  1  0
 23 22  1  1
 23 24  1  0
 25 23  1  0
 25 26  1  0
 27 28  1  0
 29 25  2  0
M  END
$$$$
