MQM.pdb
     RDKit          3D

 26 25  0  0  1  0  0  0  0  0999 V2000
    8.1560  -11.8649   20.0103 C   0  0  0  0  0  0  0  0  0  0  0  0
    7.6236  -12.7610   18.5154 S   0  0  0  0  0  0  0  0  0  0  0  0
    7.8228  -14.5161   18.8477 C   0  0  0  0  0  0  0  0  0  0  0  0
    7.0620  -14.9464   20.1087 C   0  0  0  0  0  0  0  0  0  0  0  0
    8.0447  -15.6778   20.9630 C   0  0  2  0  0  0  0  0  0  0  0  0
    8.2549  -16.9879   20.3794 N   0  0  0  0  0  0  0  0  0  0  0  0
    7.6369  -15.8408   22.3670 C   0  0  0  0  0  0  0  0  0  0  0  0
    7.4055  -14.8356   23.0800 O   0  0  0  0  0  0  0  0  0  0  0  0
    5.6432  -21.1867   24.9885 N   0  0  0  0  0  0  0  0  0  0  0  0
    7.0357  -21.0377   25.1618 C   0  0  0  0  0  0  0  0  0  0  0  0
    7.6961  -22.0548   25.4793 O   0  0  0  0  0  0  0  0  0  0  0  0
    7.7073  -19.7096   24.9735 C   0  0  0  0  0  0  0  0  0  0  0  0
    6.6446  -18.7306   24.5435 C   0  0  0  0  0  0  0  0  0  0  0  0
    7.1648  -17.3564   24.3420 C   0  0  2  0  0  0  0  0  0  0  0  0
    7.4938  -17.1234   22.9538 N   0  0  0  0  0  0  0  0  0  0  0  0
    8.3375  -16.9894   25.1798 C   0  0  0  0  0  0  0  0  0  0  0  0
    9.3100  -17.7895   25.2179 O   0  0  0  0  0  0  0  0  0  0  0  0
    6.0908  -11.8545   26.7115 C   0  0  0  0  0  0  0  0  0  0  0  0
    7.6440  -11.8201   27.6050 S   0  0  0  0  0  0  0  0  0  0  0  0
    8.8818  -12.9622   26.9119 C   0  0  0  0  0  0  0  0  0  0  0  0
    8.9436  -14.2068   27.7508 C   0  0  0  0  0  0  0  0  0  0  0  0
    9.3254  -15.4482   26.9633 C   0  0  2  0  0  0  0  0  0  0  0  0
    8.3921  -15.7887   25.9182 N   0  0  0  0  0  0  0  0  0  0  0  0
    9.4874  -16.5837   27.9012 C   0  0  0  0  0  0  0  0  0  0  0  0
   10.6419  -16.9614   28.1989 O   0  0  0  0  0  0  0  0  0  0  0  0
    8.4122  -17.2458   28.4636 O   0  0  0  0  0  0  0  0  0  0  0  0
  2  1  1  0
  3  2  1  0
  4  3  1  0
  5  4  1  0
  5  6  1  6
  7 15  1  0
  7  5  1  0
  8  7  2  0
 10 12  1  0
 10  9  1  0
 11 10  2  0
 13 12  1  0
 14 15  1  0
 14 13  1  6
 16 14  1  0
 17 16  2  0
 18 19  1  0
 20 19  1  0
 20 21  1  0
 22 21  1  1
 22 24  1  0
 22 23  1  0
 23 16  1  0
 24 26  1  0
 25 24  2  0
M  END
$$$$
