MQM.pdb
     RDKit          3D

 26 25  0  0  1  0  0  0  0  0999 V2000
    7.5737  -11.6351   26.4655 C   0  0  0  0  0  0  0  0  0  0  0  0
    5.7997  -12.0383   26.3585 S   0  0  0  0  0  0  0  0  0  0  0  0
    5.6662  -13.6458   25.5657 C   0  0  0  0  0  0  0  0  0  0  0  0
    7.0429  -14.2828   25.3354 C   0  0  0  0  0  0  0  0  0  0  0  0
    6.7997  -15.5453   24.5756 C   0  0  2  0  0  0  0  0  0  0  0  0
    5.9539  -16.3983   25.3869 N   0  0  0  0  0  0  0  0  0  0  0  0
    8.0165  -16.2876   24.2113 C   0  0  0  0  0  0  0  0  0  0  0  0
    8.4590  -17.1868   24.9648 O   0  0  0  0  0  0  0  0  0  0  0  0
   10.1551  -18.5859   19.9787 N   0  0  0  0  0  0  0  0  0  0  0  0
   11.4659  -18.1063   20.1867 C   0  0  0  0  0  0  0  0  0  0  0  0
   12.4176  -18.8193   19.7899 O   0  0  0  0  0  0  0  0  0  0  0  0
   11.7168  -16.7891   20.8592 C   0  0  0  0  0  0  0  0  0  0  0  0
   10.3753  -16.2349   21.2665 C   0  0  0  0  0  0  0  0  0  0  0  0
    9.9662  -16.6431   22.6325 C   0  0  2  0  0  0  0  0  0  0  0  0
    8.7208  -16.0146   23.0116 N   0  0  0  0  0  0  0  0  0  0  0  0
   10.9716  -16.3954   23.7000 C   0  0  0  0  0  0  0  0  0  0  0  0
   11.4800  -15.2452   23.7774 O   0  0  0  0  0  0  0  0  0  0  0  0
    9.5951  -13.9387   28.2055 C   0  0  0  0  0  0  0  0  0  0  0  0
   11.1188  -14.7104   28.7483 S   0  0  0  0  0  0  0  0  0  0  0  0
   11.2069  -16.4777   28.3172 C   0  0  0  0  0  0  0  0  0  0  0  0
   10.7309  -16.6759   26.9063 C   0  0  0  0  0  0  0  0  0  0  0  0
   11.8060  -17.2083   25.9748 C   0  0  2  0  0  0  0  0  0  0  0  0
   11.3631  -17.3947   24.6153 N   0  0  0  0  0  0  0  0  0  0  0  0
   12.3349  -18.4785   26.5245 C   0  0  0  0  0  0  0  0  0  0  0  0
   11.8619  -19.5595   26.1100 O   0  0  0  0  0  0  0  0  0  0  0  0
   13.3332  -18.5195   27.4797 O   0  0  0  0  0  0  0  0  0  0  0  0
  2  1  1  0
  3  2  1  0
  4  3  1  0
  5  4  1  0
  5  6  1  1
  7 15  1  0
  7  5  1  0
  8  7  2  0
 10 12  1  0
 10  9  1  0
 11 10  2  0
 13 12  1  0
 14 15  1  0
 14 13  1  6
 16 14  1  0
 17 16  2  0
 18 19  1  0
 20 19  1  0
 20 21  1  0
 22 21  1  1
 22 24  1  0
 22 23  1  0
 23 16  1  0
 24 26  1  0
 25 24  2  0
M  END
$$$$
