MQM.pdb
     RDKit          3D

 26 25  0  0  1  0  0  0  0  0999 V2000
    8.3757  -12.1331   19.3080 C   0  0  0  0  0  0  0  0  0  0  0  0
    8.4178  -13.0073   17.7095 S   0  0  0  0  0  0  0  0  0  0  0  0
    8.1568  -14.7526   18.0503 C   0  0  0  0  0  0  0  0  0  0  0  0
    8.3241  -15.0724   19.5416 C   0  0  0  0  0  0  0  0  0  0  0  0
    8.1392  -16.5481   19.6780 C   0  0  2  0  0  0  0  0  0  0  0  0
    7.1858  -16.9730   18.6722 N   0  0  0  0  0  0  0  0  0  0  0  0
    7.6666  -16.9887   20.9996 C   0  0  0  0  0  0  0  0  0  0  0  0
    6.4974  -16.7311   21.3722 O   0  0  0  0  0  0  0  0  0  0  0  0
    4.9295  -20.3762   23.0333 N   0  0  0  0  0  0  0  0  0  0  0  0
    6.1816  -20.3015   23.6800 C   0  0  0  0  0  0  0  0  0  0  0  0
    6.1871  -20.1684   24.9265 O   0  0  0  0  0  0  0  0  0  0  0  0
    7.4646  -20.3784   22.9066 C   0  0  0  0  0  0  0  0  0  0  0  0
    8.4405  -19.4396   23.5691 C   0  0  0  0  0  0  0  0  0  0  0  0
    8.1784  -18.0128   23.2601 C   0  0  2  0  0  0  0  0  0  0  0  0
    8.5065  -17.7100   21.8852 N   0  0  0  0  0  0  0  0  0  0  0  0
    8.8652  -17.0327   24.1429 C   0  0  0  0  0  0  0  0  0  0  0  0
   10.1118  -16.8981   24.0191 O   0  0  0  0  0  0  0  0  0  0  0  0
    6.0514  -11.5232   26.1140 C   0  0  0  0  0  0  0  0  0  0  0  0
    7.0773  -11.8093   27.5554 S   0  0  0  0  0  0  0  0  0  0  0  0
    8.2817  -13.1531   27.3084 C   0  0  0  0  0  0  0  0  0  0  0  0
    7.7448  -14.1316   26.3030 C   0  0  0  0  0  0  0  0  0  0  0  0
    8.7185  -15.2474   25.9659 C   0  0  2  0  0  0  0  0  0  0  0  0
    8.1711  -16.2597   25.0971 N   0  0  0  0  0  0  0  0  0  0  0  0
    9.2085  -15.8569   27.2244 C   0  0  0  0  0  0  0  0  0  0  0  0
    8.6930  -16.9259   27.6187 O   0  0  0  0  0  0  0  0  0  0  0  0
   10.2156  -15.2917   27.9840 O   0  0  0  0  0  0  0  0  0  0  0  0
  2  1  1  0
  3  2  1  0
  4  3  1  0
  5  4  1  0
  5  6  1  6
  7 15  1  0
  7  5  1  0
  8  7  2  0
 10 12  1  0
 10  9  1  0
 11 10  2  0
 13 12  1  0
 14 15  1  0
 14 13  1  1
 16 14  1  0
 17 16  2  0
 18 19  1  0
 20 19  1  0
 20 21  1  0
 22 21  1  1
 22 24  1  0
 22 23  1  0
 23 16  1  0
 24 26  1  0
 25 24  2  0
M  END
$$$$
