MQM.pdb
     RDKit          3D

 26 25  0  0  1  0  0  0  0  0999 V2000
    7.9675  -11.8163   20.2049 C   0  0  0  0  0  0  0  0  0  0  0  0
    7.9338  -12.6707   18.5955 S   0  0  0  0  0  0  0  0  0  0  0  0
    8.0208  -14.4349   18.9276 C   0  0  0  0  0  0  0  0  0  0  0  0
    8.3411  -14.7216   20.4005 C   0  0  0  0  0  0  0  0  0  0  0  0
    8.3714  -16.2080   20.5421 C   0  0  2  0  0  0  0  0  0  0  0  0
    7.0692  -16.7189   20.1620 N   0  0  0  0  0  0  0  0  0  0  0  0
    8.6973  -16.6902   21.8932 C   0  0  0  0  0  0  0  0  0  0  0  0
    7.8101  -16.7430   22.7777 O   0  0  0  0  0  0  0  0  0  0  0  0
   12.4374  -20.7439   23.7231 N   0  0  0  0  0  0  0  0  0  0  0  0
   12.5672  -19.9847   24.9055 C   0  0  0  0  0  0  0  0  0  0  0  0
   12.9782  -20.5723   25.9337 O   0  0  0  0  0  0  0  0  0  0  0  0
   12.2263  -18.5242   24.9358 C   0  0  0  0  0  0  0  0  0  0  0  0
   11.7359  -18.1531   23.5594 C   0  0  0  0  0  0  0  0  0  0  0  0
   10.4386  -17.4345   23.5767 C   0  0  2  0  0  0  0  0  0  0  0  0
   10.0086  -17.1058   22.2364 N   0  0  0  0  0  0  0  0  0  0  0  0
   10.4041  -16.2008   24.4064 C   0  0  0  0  0  0  0  0  0  0  0  0
   11.0814  -15.2106   24.0214 O   0  0  0  0  0  0  0  0  0  0  0  0
    6.3155  -11.6964   25.6412 C   0  0  0  0  0  0  0  0  0  0  0  0
    6.6223  -12.2457   27.3193 S   0  0  0  0  0  0  0  0  0  0  0  0
    8.2055  -13.1289   27.4941 C   0  0  0  0  0  0  0  0  0  0  0  0
    8.2624  -14.2598   26.5071 C   0  0  0  0  0  0  0  0  0  0  0  0
    9.5899  -14.9978   26.5093 C   0  0  2  0  0  0  0  0  0  0  0  0
    9.6441  -16.1084   25.5912 N   0  0  0  0  0  0  0  0  0  0  0  0
    9.8871  -15.4523   27.8879 C   0  0  0  0  0  0  0  0  0  0  0  0
   10.0223  -14.5968   28.7901 O   0  0  0  0  0  0  0  0  0  0  0  0
   10.0213  -16.7872   28.2204 O   0  0  0  0  0  0  0  0  0  0  0  0
  2  1  1  0
  3  2  1  0
  4  3  1  0
  5  4  1  0
  5  6  1  1
  7 15  1  0
  7  5  1  0
  8  7  2  0
 10 12  1  0
 10  9  1  0
 11 10  2  0
 13 12  1  0
 14 15  1  0
 14 13  1  6
 16 14  1  0
 17 16  2  0
 18 19  1  0
 20 19  1  0
 20 21  1  0
 22 21  1  1
 22 24  1  0
 22 23  1  0
 23 16  1  0
 24 26  1  0
 25 24  2  0
M  END
$$$$
