MQM.pdb
     RDKit          3D

 26 25  0  0  1  0  0  0  0  0999 V2000
    7.8146  -11.4167   19.8132 C   0  0  0  0  0  0  0  0  0  0  0  0
    7.0551  -12.5286   18.5852 S   0  0  0  0  0  0  0  0  0  0  0  0
    8.0511  -14.0238   18.5332 C   0  0  0  0  0  0  0  0  0  0  0  0
    8.2932  -14.5952   19.9365 C   0  0  0  0  0  0  0  0  0  0  0  0
    9.0772  -15.8524   19.7484 C   0  0  2  0  0  0  0  0  0  0  0  0
    8.2278  -16.8104   19.0688 N   0  0  0  0  0  0  0  0  0  0  0  0
    9.5773  -16.4568   20.9929 C   0  0  0  0  0  0  0  0  0  0  0  0
    8.8918  -17.3126   21.6012 O   0  0  0  0  0  0  0  0  0  0  0  0
   15.0889  -15.0975   22.3449 N   0  0  0  0  0  0  0  0  0  0  0  0
   14.8048  -16.2640   21.6033 C   0  0  0  0  0  0  0  0  0  0  0  0
   15.7287  -16.7560   20.9135 O   0  0  0  0  0  0  0  0  0  0  0  0
   13.4454  -16.8973   21.6363 C   0  0  0  0  0  0  0  0  0  0  0  0
   12.7830  -16.4625   22.9188 C   0  0  0  0  0  0  0  0  0  0  0  0
   11.3017  -16.4921   22.8492 C   0  0  2  0  0  0  0  0  0  0  0  0
   10.8349  -16.0967   21.5395 N   0  0  0  0  0  0  0  0  0  0  0  0
   10.5988  -15.6756   23.8744 C   0  0  0  0  0  0  0  0  0  0  0  0
   10.6500  -14.4213   23.7677 O   0  0  0  0  0  0  0  0  0  0  0  0
    6.5117  -11.8223   27.6519 C   0  0  0  0  0  0  0  0  0  0  0  0
    7.4907  -12.8028   26.5153 S   0  0  0  0  0  0  0  0  0  0  0  0
    6.7701  -14.4455   26.1996 C   0  0  0  0  0  0  0  0  0  0  0  0
    7.6554  -15.2107   25.2577 C   0  0  0  0  0  0  0  0  0  0  0  0
    8.9954  -15.5917   25.8629 C   0  0  2  0  0  0  0  0  0  0  0  0
    9.8853  -16.2566   24.9436 N   0  0  0  0  0  0  0  0  0  0  0  0
    8.7626  -16.4359   27.0581 C   0  0  0  0  0  0  0  0  0  0  0  0
    8.1325  -15.9537   28.0248 O   0  0  0  0  0  0  0  0  0  0  0  0
    9.2139  -17.7391   27.1501 O   0  0  0  0  0  0  0  0  0  0  0  0
  2  1  1  0
  3  2  1  0
  4  3  1  0
  5  4  1  0
  5  6  1  1
  7 15  1  0
  7  5  1  0
  8  7  2  0
 10 12  1  0
 10  9  1  0
 11 10  2  0
 13 12  1  0
 14 15  1  0
 14 13  1  6
 16 14  1  0
 17 16  2  0
 18 19  1  0
 20 19  1  0
 20 21  1  0
 22 21  1  6
 22 24  1  0
 22 23  1  0
 23 16  1  0
 24 26  1  0
 25 24  2  0
M  END
$$$$
