MQM.pdb
     RDKit          3D

 26 25  0  0  1  0  0  0  0  0999 V2000
    8.5964  -11.9614   19.8412 C   0  0  0  0  0  0  0  0  0  0  0  0
    7.8134  -12.4889   18.2823 S   0  0  0  0  0  0  0  0  0  0  0  0
    7.8951  -14.2835   18.2263 C   0  0  0  0  0  0  0  0  0  0  0  0
    7.2648  -14.9209   19.4715 C   0  0  0  0  0  0  0  0  0  0  0  0
    8.3935  -15.4792   20.2746 C   0  0  2  0  0  0  0  0  0  0  0  0
    8.9400  -16.6096   19.5502 N   0  0  0  0  0  0  0  0  0  0  0  0
    8.0265  -15.9141   21.6311 C   0  0  0  0  0  0  0  0  0  0  0  0
    7.4163  -15.1360   22.4022 O   0  0  0  0  0  0  0  0  0  0  0  0
    6.0136  -20.4161   26.1546 N   0  0  0  0  0  0  0  0  0  0  0  0
    6.7924  -20.3659   24.9789 C   0  0  0  0  0  0  0  0  0  0  0  0
    6.3356  -20.9223   23.9526 O   0  0  0  0  0  0  0  0  0  0  0  0
    8.1220  -19.6717   24.9533 C   0  0  0  0  0  0  0  0  0  0  0  0
    8.3205  -19.1422   23.5558 C   0  0  0  0  0  0  0  0  0  0  0  0
    8.0646  -17.6856   23.4424 C   0  0  2  0  0  0  0  0  0  0  0  0
    8.3463  -17.2109   22.1064 N   0  0  0  0  0  0  0  0  0  0  0  0
    8.7946  -16.8322   24.4173 C   0  0  0  0  0  0  0  0  0  0  0  0
   10.0529  -16.8105   24.3575 O   0  0  0  0  0  0  0  0  0  0  0  0
    7.0077  -10.5117   26.8195 C   0  0  0  0  0  0  0  0  0  0  0  0
    6.1411  -11.9673   26.2347 S   0  0  0  0  0  0  0  0  0  0  0  0
    7.2679  -13.2604   25.6220 C   0  0  0  0  0  0  0  0  0  0  0  0
    7.8378  -14.0230   26.7840 C   0  0  0  0  0  0  0  0  0  0  0  0
    8.7260  -15.1829   26.3685 C   0  0  2  0  0  0  0  0  0  0  0  0
    8.1286  -16.0564   25.3891 N   0  0  0  0  0  0  0  0  0  0  0  0
    9.1148  -15.9494   27.5754 C   0  0  0  0  0  0  0  0  0  0  0  0
    9.7727  -15.3746   28.4703 O   0  0  0  0  0  0  0  0  0  0  0  0
    8.7794  -17.2783   27.7550 O   0  0  0  0  0  0  0  0  0  0  0  0
  2  1  1  0
  3  2  1  0
  4  3  1  0
  5  4  1  0
  5  6  1  6
  7 15  1  0
  7  5  1  0
  8  7  2  0
 10 12  1  0
 10  9  1  0
 11 10  2  0
 13 12  1  0
 14 15  1  0
 14 13  1  6
 16 14  1  0
 17 16  2  0
 18 19  1  0
 20 19  1  0
 20 21  1  0
 22 21  1  1
 22 24  1  0
 22 23  1  0
 23 16  1  0
 24 26  1  0
 25 24  2  0
M  END
$$$$
