MQM.pdb
     RDKit          3D

 26 25  0  0  1  0  0  0  0  0999 V2000
    7.0694  -11.0106   26.5949 C   0  0  0  0  0  0  0  0  0  0  0  0
    5.3643  -11.6536   26.6165 S   0  0  0  0  0  0  0  0  0  0  0  0
    5.4703  -13.4457   26.5298 C   0  0  0  0  0  0  0  0  0  0  0  0
    5.7870  -13.9289   25.1084 C   0  0  0  0  0  0  0  0  0  0  0  0
    6.8291  -14.9895   25.2478 C   0  0  2  0  0  0  0  0  0  0  0  0
    7.9766  -14.4030   25.9115 N   0  0  0  0  0  0  0  0  0  0  0  0
    7.2678  -15.5908   23.9789 C   0  0  0  0  0  0  0  0  0  0  0  0
    6.6304  -16.5473   23.4777 O   0  0  0  0  0  0  0  0  0  0  0  0
    6.8150  -13.7847   19.0290 N   0  0  0  0  0  0  0  0  0  0  0  0
    8.0630  -13.4552   19.5993 C   0  0  0  0  0  0  0  0  0  0  0  0
    8.8794  -12.8213   18.8898 O   0  0  0  0  0  0  0  0  0  0  0  0
    8.4056  -13.8478   21.0060 C   0  0  0  0  0  0  0  0  0  0  0  0
    8.9986  -15.2327   20.9495 C   0  0  0  0  0  0  0  0  0  0  0  0
    9.1318  -15.8649   22.2845 C   0  0  2  0  0  0  0  0  0  0  0  0
    8.4113  -15.1153   23.2888 N   0  0  0  0  0  0  0  0  0  0  0  0
   10.5271  -16.0754   22.7540 C   0  0  0  0  0  0  0  0  0  0  0  0
   11.4069  -15.2555   22.3785 O   0  0  0  0  0  0  0  0  0  0  0  0
   10.5597  -13.4933   27.8735 C   0  0  0  0  0  0  0  0  0  0  0  0
   10.6701  -15.1990   28.4123 S   0  0  0  0  0  0  0  0  0  0  0  0
   11.5831  -16.2515   27.2393 C   0  0  0  0  0  0  0  0  0  0  0  0
   10.8943  -16.2321   25.9045 C   0  0  0  0  0  0  0  0  0  0  0  0
   11.5939  -17.0735   24.8511 C   0  0  2  0  0  0  0  0  0  0  0  0
   10.8868  -17.1480   23.5967 N   0  0  0  0  0  0  0  0  0  0  0  0
   11.8259  -18.4322   25.3947 C   0  0  0  0  0  0  0  0  0  0  0  0
   11.0559  -19.3578   25.0565 O   0  0  0  0  0  0  0  0  0  0  0  0
   12.8619  -18.7212   26.2630 O   0  0  0  0  0  0  0  0  0  0  0  0
  2  1  1  0
  3  2  1  0
  4  3  1  0
  5  4  1  0
  5  6  1  6
  7 15  1  0
  7  5  1  0
  8  7  2  0
 10 12  1  0
 10  9  1  0
 11 10  2  0
 13 12  1  0
 14 15  1  0
 14 13  1  6
 16 14  1  0
 17 16  2  0
 18 19  1  0
 20 19  1  0
 20 21  1  0
 22 21  1  1
 22 24  1  0
 22 23  1  0
 23 16  1  0
 24 26  1  0
 25 24  2  0
M  END
$$$$
