MQM.pdb
     RDKit          3D

 26 25  0  0  1  0  0  0  0  0999 V2000
    7.4082  -11.2906   26.0165 C   0  0  0  0  0  0  0  0  0  0  0  0
    6.1337  -12.3032   26.8360 S   0  0  0  0  0  0  0  0  0  0  0  0
    5.8334  -13.7317   25.7875 C   0  0  0  0  0  0  0  0  0  0  0  0
    7.1240  -14.5124   25.5062 C   0  0  0  0  0  0  0  0  0  0  0  0
    6.7525  -15.6145   24.5693 C   0  0  2  0  0  0  0  0  0  0  0  0
    5.8099  -16.4800   25.2503 N   0  0  0  0  0  0  0  0  0  0  0  0
    7.8847  -16.4237   24.0924 C   0  0  0  0  0  0  0  0  0  0  0  0
    8.1293  -17.5386   24.6117 O   0  0  0  0  0  0  0  0  0  0  0  0
   10.4474  -16.8775   18.6989 N   0  0  0  0  0  0  0  0  0  0  0  0
   11.5915  -17.2278   19.4472 C   0  0  0  0  0  0  0  0  0  0  0  0
   12.5271  -17.8062   18.8458 O   0  0  0  0  0  0  0  0  0  0  0  0
   11.6892  -16.9207   20.9122 C   0  0  0  0  0  0  0  0  0  0  0  0
   10.3905  -16.2719   21.3184 C   0  0  0  0  0  0  0  0  0  0  0  0
   10.0147  -16.5503   22.7259 C   0  0  2  0  0  0  0  0  0  0  0  0
    8.7266  -15.9761   23.0433 N   0  0  0  0  0  0  0  0  0  0  0  0
   11.0004  -16.1089   23.7483 C   0  0  0  0  0  0  0  0  0  0  0  0
   11.2166  -14.8733   23.8660 O   0  0  0  0  0  0  0  0  0  0  0  0
   11.0746  -13.3247   29.1120 C   0  0  0  0  0  0  0  0  0  0  0  0
   11.1137  -14.3671   27.6547 S   0  0  0  0  0  0  0  0  0  0  0  0
   10.4470  -16.0340   27.9616 C   0  0  0  0  0  0  0  0  0  0  0  0
   10.3610  -16.7881   26.6654 C   0  0  0  0  0  0  0  0  0  0  0  0
   11.7132  -17.0375   26.0202 C   0  0  2  0  0  0  0  0  0  0  0  0
   11.6865  -17.0197   24.5786 N   0  0  0  0  0  0  0  0  0  0  0  0
   12.2514  -18.3278   26.5110 C   0  0  0  0  0  0  0  0  0  0  0  0
   11.7121  -19.3906   26.1320 O   0  0  0  0  0  0  0  0  0  0  0  0
   13.3289  -18.4069   27.3732 O   0  0  0  0  0  0  0  0  0  0  0  0
  2  1  1  0
  3  2  1  0
  4  3  1  0
  5  4  1  0
  5  6  1  1
  7 15  1  0
  7  5  1  0
  8  7  2  0
 10 12  1  0
 10  9  1  0
 11 10  2  0
 13 12  1  0
 14 15  1  0
 14 13  1  6
 16 14  1  0
 17 16  2  0
 18 19  1  0
 20 19  1  0
 20 21  1  0
 22 21  1  1
 22 24  1  0
 22 23  1  0
 23 16  1  0
 24 26  1  0
 25 24  2  0
M  END
$$$$
