MQM.pdb
     RDKit          3D

 26 25  0  0  1  0  0  0  0  0999 V2000
    6.5474  -10.9975   27.2587 C   0  0  0  0  0  0  0  0  0  0  0  0
    5.9099  -11.8841   25.7997 S   0  0  0  0  0  0  0  0  0  0  0  0
    6.7266  -13.4844   25.7505 C   0  0  0  0  0  0  0  0  0  0  0  0
    6.3098  -14.2984   24.5185 C   0  0  0  0  0  0  0  0  0  0  0  0
    7.0938  -15.5685   24.5693 C   0  0  2  0  0  0  0  0  0  0  0  0
    8.2468  -15.3472   25.4195 N   0  0  0  0  0  0  0  0  0  0  0  0
    7.5531  -16.0600   23.2610 C   0  0  0  0  0  0  0  0  0  0  0  0
    7.1466  -17.1612   22.8200 O   0  0  0  0  0  0  0  0  0  0  0  0
    8.2403  -12.9684   20.5533 N   0  0  0  0  0  0  0  0  0  0  0  0
    8.0022  -14.1103   19.7591 C   0  0  0  0  0  0  0  0  0  0  0  0
    6.8574  -14.2509   19.2681 O   0  0  0  0  0  0  0  0  0  0  0  0
    9.0791  -15.1240   19.5082 C   0  0  0  0  0  0  0  0  0  0  0  0
   10.0442  -15.0431   20.6635 C   0  0  0  0  0  0  0  0  0  0  0  0
    9.6325  -15.8671   21.8260 C   0  0  2  0  0  0  0  0  0  0  0  0
    8.4593  -15.3150   22.4650 N   0  0  0  0  0  0  0  0  0  0  0  0
   10.6818  -16.0839   22.8574 C   0  0  0  0  0  0  0  0  0  0  0  0
   11.8230  -16.4523   22.4710 O   0  0  0  0  0  0  0  0  0  0  0  0
   10.2391  -13.7846   29.2951 C   0  0  0  0  0  0  0  0  0  0  0  0
   11.0231  -15.3941   29.3769 S   0  0  0  0  0  0  0  0  0  0  0  0
   11.7953  -15.8834   27.8016 C   0  0  0  0  0  0  0  0  0  0  0  0
   10.8095  -15.7072   26.6819 C   0  0  0  0  0  0  0  0  0  0  0  0
   11.3786  -16.0502   25.3161 C   0  0  2  0  0  0  0  0  0  0  0  0
   10.4401  -15.8886   24.2333 N   0  0  0  0  0  0  0  0  0  0  0  0
   11.9001  -17.4368   25.3450 C   0  0  0  0  0  0  0  0  0  0  0  0
   13.1374  -17.6163   25.3748 O   0  0  0  0  0  0  0  0  0  0  0  0
   11.0736  -18.5447   25.3406 O   0  0  0  0  0  0  0  0  0  0  0  0
  2  1  1  0
  3  2  1  0
  4  3  1  0
  5  4  1  0
  5  6  1  1
  7 15  1  0
  7  5  1  0
  8  7  2  0
 10 12  1  0
 10  9  1  0
 11 10  2  0
 13 12  1  0
 14 15  1  0
 14 13  1  6
 16 14  1  0
 17 16  2  0
 18 19  1  0
 20 19  1  0
 20 21  1  0
 22 21  1  1
 22 24  1  0
 22 23  1  0
 23 16  1  0
 24 26  1  0
 25 24  2  0
M  END
$$$$
