MQM.pdb
     RDKit          3D

 26 25  0  0  1  0  0  0  0  0999 V2000
    8.9372  -11.6957   19.2880 C   0  0  0  0  0  0  0  0  0  0  0  0
    7.6685  -12.4263   18.2028 S   0  0  0  0  0  0  0  0  0  0  0  0
    7.8526  -14.2117   18.2957 C   0  0  0  0  0  0  0  0  0  0  0  0
    7.9461  -14.6993   19.7475 C   0  0  0  0  0  0  0  0  0  0  0  0
    8.1171  -16.1815   19.6825 C   0  0  2  0  0  0  0  0  0  0  0  0
    6.8953  -16.7484   19.1466 N   0  0  0  0  0  0  0  0  0  0  0  0
    8.4149  -16.8230   20.9724 C   0  0  0  0  0  0  0  0  0  0  0  0
    7.4957  -17.0477   21.7951 O   0  0  0  0  0  0  0  0  0  0  0  0
   13.5657  -20.0357   22.3633 N   0  0  0  0  0  0  0  0  0  0  0  0
   13.1140  -19.7424   23.6677 C   0  0  0  0  0  0  0  0  0  0  0  0
   13.8029  -20.1557   24.6301 O   0  0  0  0  0  0  0  0  0  0  0  0
   11.8534  -18.9632   23.8996 C   0  0  0  0  0  0  0  0  0  0  0  0
   11.3855  -18.4638   22.5564 C   0  0  0  0  0  0  0  0  0  0  0  0
   10.1274  -17.6818   22.6309 C   0  0  2  0  0  0  0  0  0  0  0  0
    9.7344  -17.2038   21.3245 N   0  0  0  0  0  0  0  0  0  0  0  0
   10.1456  -16.5331   23.5752 C   0  0  0  0  0  0  0  0  0  0  0  0
   10.9263  -15.5759   23.3263 O   0  0  0  0  0  0  0  0  0  0  0  0
    6.3566  -11.0915   27.3265 C   0  0  0  0  0  0  0  0  0  0  0  0
    6.2767  -12.7705   26.7048 S   0  0  0  0  0  0  0  0  0  0  0  0
    7.8755  -13.6369   26.8058 C   0  0  0  0  0  0  0  0  0  0  0  0
    7.9770  -14.6375   25.6901 C   0  0  0  0  0  0  0  0  0  0  0  0
    9.2682  -15.4370   25.7108 C   0  0  2  0  0  0  0  0  0  0  0  0
    9.3245  -16.4842   24.7211 N   0  0  0  0  0  0  0  0  0  0  0  0
    9.4668  -15.9978   27.0678 C   0  0  0  0  0  0  0  0  0  0  0  0
    9.3432  -17.2309   27.2360 O   0  0  0  0  0  0  0  0  0  0  0  0
    9.7844  -15.2125   28.1601 O   0  0  0  0  0  0  0  0  0  0  0  0
  2  1  1  0
  3  2  1  0
  4  3  1  0
  5  4  1  0
  5  6  1  1
  7 15  1  0
  7  5  1  0
  8  7  2  0
 10 12  1  0
 10  9  1  0
 11 10  2  0
 13 12  1  0
 14 15  1  0
 14 13  1  6
 16 14  1  0
 17 16  2  0
 18 19  1  0
 20 19  1  0
 20 21  1  0
 22 21  1  1
 22 24  1  0
 22 23  1  0
 23 16  1  0
 24 26  1  0
 25 24  2  0
M  END
$$$$
