VQN.pdb
     RDKit          3D

 25 24  0  0  1  0  0  0  0  0999 V2000
   26.7350  -17.7264  -17.2019 C   0  0  0  0  0  0  0  0  0  0  0  0
   25.7459  -18.6508  -16.4960 C   0  0  1  0  0  0  0  0  0  0  0  0
   24.8166  -19.3070  -17.4783 C   0  0  0  0  0  0  0  0  0  0  0  0
   26.4651  -19.7123  -15.7021 C   0  0  2  0  0  0  0  0  0  0  0  0
   27.2812  -20.4884  -16.5773 N   0  0  0  0  0  0  0  0  0  0  0  0
   25.4190  -20.5403  -15.0187 C   0  0  0  0  0  0  0  0  0  0  0  0
   25.0299  -21.6099  -15.5518 O   0  0  0  0  0  0  0  0  0  0  0  0
   24.5808  -20.8381   -8.8352 N   0  0  0  0  0  0  0  0  0  0  0  0
   25.6066  -21.2672   -9.7116 C   0  0  0  0  0  0  0  0  0  0  0  0
   26.7209  -21.6229   -9.2290 O   0  0  0  0  0  0  0  0  0  0  0  0
   25.4429  -21.3223  -11.1839 C   0  0  0  0  0  0  0  0  0  0  0  0
   24.1174  -20.7147  -11.5654 C   0  0  0  0  0  0  0  0  0  0  0  0
   23.9199  -20.7751  -13.0690 C   0  0  2  0  0  0  0  0  0  0  0  0
   24.9206  -20.0546  -13.7844 N   0  0  0  0  0  0  0  0  0  0  0  0
   22.5713  -20.1962  -13.3627 C   0  0  0  0  0  0  0  0  0  0  0  0
   22.4277  -19.0410  -13.8307 O   0  0  0  0  0  0  0  0  0  0  0  0
   19.3963  -21.2524  -17.5161 N   0  0  0  0  0  0  0  0  0  0  0  0
   19.6383  -20.5105  -16.3362 C   0  0  0  0  0  0  0  0  0  0  0  0
   18.9938  -19.4571  -16.1164 O   0  0  0  0  0  0  0  0  0  0  0  0
   20.6391  -20.9738  -15.3764 C   0  0  0  0  0  0  0  0  0  0  0  0
   20.2236  -20.6832  -13.9272 C   0  0  2  0  0  0  0  0  0  0  0  0
   21.3955  -20.9479  -13.1165 N   0  0  0  0  0  0  0  0  0  0  0  0
   19.0956  -21.5670  -13.5853 C   0  0  0  0  0  0  0  0  0  0  0  0
   17.9837  -21.0505  -13.3329 O   0  0  0  0  0  0  0  0  0  0  0  0
   19.2149  -22.9410  -13.5325 O   0  0  0  0  0  0  0  0  0  0  0  0
  2  1  1  6
  2  3  1  0
  4  6  1  0
  4  2  1  0
  4  5  1  6
  6  7  2  0
  9  8  1  0
 10  9  2  0
 11  9  1  0
 12 11  1  0
 13 12  1  1
 14 13  1  0
 14  6  1  0
 15 13  1  0
 16 15  2  0
 18 17  1  0
 18 19  2  0
 20 18  1  0
 21 20  1  6
 21 22  1  0
 22 15  1  0
 23 21  1  0
 23 25  1  0
 24 23  2  0
M  END
$$$$
