VQN.pdb
     RDKit          3D

 25 24  0  0  1  0  0  0  0  0999 V2000
   27.5141  -15.6436  -15.7681 C   0  0  0  0  0  0  0  0  0  0  0  0
   26.9781  -17.0353  -16.0952 C   0  0  1  0  0  0  0  0  0  0  0  0
   25.5343  -16.9798  -16.5094 C   0  0  0  0  0  0  0  0  0  0  0  0
   27.7873  -17.6867  -17.1883 C   0  0  2  0  0  0  0  0  0  0  0  0
   27.7174  -16.8904  -18.3695 N   0  0  0  0  0  0  0  0  0  0  0  0
   27.2263  -19.0611  -17.3966 C   0  0  0  0  0  0  0  0  0  0  0  0
   26.2707  -19.2253  -18.1962 O   0  0  0  0  0  0  0  0  0  0  0  0
   30.0492  -24.5333  -15.6062 N   0  0  0  0  0  0  0  0  0  0  0  0
   28.7620  -24.8803  -16.0829 C   0  0  0  0  0  0  0  0  0  0  0  0
   28.4377  -26.1016  -16.1489 O   0  0  0  0  0  0  0  0  0  0  0  0
   27.7609  -23.8759  -16.5149 C   0  0  0  0  0  0  0  0  0  0  0  0
   28.3264  -22.4911  -16.3309 C   0  0  0  0  0  0  0  0  0  0  0  0
   27.3107  -21.4440  -16.7495 C   0  0  2  0  0  0  0  0  0  0  0  0
   27.8217  -20.1161  -16.6614 N   0  0  0  0  0  0  0  0  0  0  0  0
   26.1247  -21.5913  -15.8484 C   0  0  0  0  0  0  0  0  0  0  0  0
   26.0143  -20.9453  -14.7785 O   0  0  0  0  0  0  0  0  0  0  0  0
   22.2554  -19.7543  -13.3997 N   0  0  0  0  0  0  0  0  0  0  0  0
   22.8020  -21.0373  -13.6375 C   0  0  0  0  0  0  0  0  0  0  0  0
   22.2942  -22.0449  -13.0895 O   0  0  0  0  0  0  0  0  0  0  0  0
   23.9572  -21.1849  -14.5213 C   0  0  0  0  0  0  0  0  0  0  0  0
   23.8659  -22.4546  -15.3796 C   0  0  2  0  0  0  0  0  0  0  0  0
   25.0729  -22.4806  -16.1815 N   0  0  0  0  0  0  0  0  0  0  0  0
   22.6481  -22.3666  -16.2042 C   0  0  0  0  0  0  0  0  0  0  0  0
   22.7514  -21.9678  -17.3862 O   0  0  0  0  0  0  0  0  0  0  0  0
   21.3987  -22.7066  -15.7267 O   0  0  0  0  0  0  0  0  0  0  0  0
  2  1  1  6
  2  3  1  0
  4  6  1  0
  4  2  1  0
  4  5  1  6
  6  7  2  0
  9  8  1  0
 10  9  2  0
 11  9  1  0
 12 11  1  0
 13 12  1  1
 14 13  1  0
 14  6  1  0
 15 13  1  0
 16 15  2  0
 18 17  1  0
 18 19  2  0
 20 18  1  0
 21 20  1  1
 21 22  1  0
 22 15  1  0
 23 21  1  0
 23 25  1  0
 24 23  2  0
M  END
$$$$
