VQN.pdb
     RDKit          3D

 25 24  0  0  1  0  0  0  0  0999 V2000
   14.3681  -12.8977  -10.7417 C   0  0  0  0  0  0  0  0  0  0  0  0
   14.5368  -11.3832  -10.8355 C   0  0  1  0  0  0  0  0  0  0  0  0
   13.9760  -10.8510  -12.1245 C   0  0  0  0  0  0  0  0  0  0  0  0
   13.8693  -10.6887   -9.6752 C   0  0  2  0  0  0  0  0  0  0  0  0
   12.4759  -10.9930   -9.6777 N   0  0  0  0  0  0  0  0  0  0  0  0
   14.1297   -9.2204   -9.8276 C   0  0  0  0  0  0  0  0  0  0  0  0
   13.3223   -8.5128  -10.4811 O   0  0  0  0  0  0  0  0  0  0  0  0
   13.3032   -5.1276   -7.9679 N   0  0  0  0  0  0  0  0  0  0  0  0
   14.5318   -4.4462   -8.1433 C   0  0  0  0  0  0  0  0  0  0  0  0
   14.5244   -3.1892   -8.2874 O   0  0  0  0  0  0  0  0  0  0  0  0
   15.8437   -5.1361   -8.1676 C   0  0  0  0  0  0  0  0  0  0  0  0
   15.6365   -6.6170   -7.9791 C   0  0  0  0  0  0  0  0  0  0  0  0
   15.6332   -7.3266   -9.3207 C   0  0  2  0  0  0  0  0  0  0  0  0
   15.2982   -8.7079   -9.2113 N   0  0  0  0  0  0  0  0  0  0  0  0
   17.0048   -7.1823   -9.9021 C   0  0  0  0  0  0  0  0  0  0  0  0
   17.9939   -7.8028   -9.4427 O   0  0  0  0  0  0  0  0  0  0  0  0
   21.4129   -7.5398  -12.0337 N   0  0  0  0  0  0  0  0  0  0  0  0
   20.1853   -7.7795  -12.6945 C   0  0  0  0  0  0  0  0  0  0  0  0
   20.1767   -8.0524  -13.9188 O   0  0  0  0  0  0  0  0  0  0  0  0
   18.9300   -7.7085  -11.9484 C   0  0  0  0  0  0  0  0  0  0  0  0
   18.5656   -6.2652  -11.5725 C   0  0  2  0  0  0  0  0  0  0  0  0
   17.2322   -6.3255  -11.0077 N   0  0  0  0  0  0  0  0  0  0  0  0
   18.6191   -5.4433  -12.7941 C   0  0  0  0  0  0  0  0  0  0  0  0
   19.7114   -4.9287  -13.1236 O   0  0  0  0  0  0  0  0  0  0  0  0
   17.5141   -5.2184  -13.5898 O   0  0  0  0  0  0  0  0  0  0  0  0
  2  1  1  1
  2  3  1  0
  4  6  1  0
  4  2  1  0
  4  5  1  6
  6  7  2  0
  9  8  1  0
 10  9  2  0
 11  9  1  0
 12 11  1  0
 13 12  1  1
 14 13  1  0
 14  6  1  0
 15 13  1  0
 16 15  2  0
 18 17  1  0
 18 19  2  0
 20 18  1  0
 21 20  1  6
 21 22  1  0
 22 15  1  0
 23 21  1  0
 23 25  1  0
 24 23  2  0
M  END
$$$$
