VQN.pdb
     RDKit          3D

 25 24  0  0  1  0  0  0  0  0999 V2000
   16.3179  -12.0671  -14.8008 C   0  0  0  0  0  0  0  0  0  0  0  0
   14.9332  -12.5971  -14.4365 C   0  0  1  0  0  0  0  0  0  0  0  0
   14.8087  -14.0607  -14.7548 C   0  0  0  0  0  0  0  0  0  0  0  0
   14.6334  -12.3758  -12.9752 C   0  0  2  0  0  0  0  0  0  0  0  0
   13.3712  -12.9582  -12.6560 N   0  0  0  0  0  0  0  0  0  0  0  0
   14.6518  -10.8959  -12.7376 C   0  0  0  0  0  0  0  0  0  0  0  0
   13.5658  -10.2727  -12.6285 O   0  0  0  0  0  0  0  0  0  0  0  0
   14.5964   -7.9920   -8.3378 N   0  0  0  0  0  0  0  0  0  0  0  0
   15.0969   -6.9528   -9.1588 C   0  0  0  0  0  0  0  0  0  0  0  0
   15.1022   -5.7669   -8.7176 O   0  0  0  0  0  0  0  0  0  0  0  0
   15.6217   -7.1828  -10.5261 C   0  0  0  0  0  0  0  0  0  0  0  0
   15.5561   -8.6536  -10.8488 C   0  0  0  0  0  0  0  0  0  0  0  0
   16.0397   -8.9075  -12.2648 C   0  0  2  0  0  0  0  0  0  0  0  0
   15.9225  -10.2753  -12.6489 N   0  0  0  0  0  0  0  0  0  0  0  0
   17.4743   -8.4851  -12.3259 C   0  0  0  0  0  0  0  0  0  0  0  0
   18.3623   -9.0332  -11.6292 O   0  0  0  0  0  0  0  0  0  0  0  0
   22.2503   -8.7479  -13.3460 N   0  0  0  0  0  0  0  0  0  0  0  0
   21.2642   -8.4309  -14.3095 C   0  0  0  0  0  0  0  0  0  0  0  0
   21.6077   -8.0626  -15.4583 O   0  0  0  0  0  0  0  0  0  0  0  0
   19.8475   -8.5336  -13.9634 C   0  0  0  0  0  0  0  0  0  0  0  0
   19.2986   -7.2187  -13.3915 C   0  0  2  0  0  0  0  0  0  0  0  0
   17.8802   -7.4352  -13.1867 N   0  0  0  0  0  0  0  0  0  0  0  0
   19.5659   -6.1457  -14.3651 C   0  0  0  0  0  0  0  0  0  0  0  0
   18.7293   -5.9367  -15.2724 O   0  0  0  0  0  0  0  0  0  0  0  0
   20.7006   -5.3617  -14.3171 O   0  0  0  0  0  0  0  0  0  0  0  0
  2  1  1  1
  2  3  1  0
  4  6  1  0
  4  2  1  0
  4  5  1  6
  6  7  2  0
  9  8  1  0
 10  9  2  0
 11  9  1  0
 12 11  1  0
 13 12  1  1
 14 13  1  0
 14  6  1  0
 15 13  1  0
 16 15  2  0
 18 17  1  0
 18 19  2  0
 20 18  1  0
 21 20  1  6
 21 22  1  0
 22 15  1  0
 23 21  1  0
 23 25  1  0
 24 23  2  0
M  END
$$$$
