VQN.pdb
     RDKit          3D

 25 24  0  0  1  0  0  0  0  0999 V2000
   16.7492  -13.1113  -13.3349 C   0  0  0  0  0  0  0  0  0  0  0  0
   16.5816  -11.6097  -13.1150 C   0  0  1  0  0  0  0  0  0  0  0  0
   16.0130  -10.9403  -14.3347 C   0  0  0  0  0  0  0  0  0  0  0  0
   15.6918  -11.3296  -11.9302 C   0  0  2  0  0  0  0  0  0  0  0  0
   14.4313  -11.9691  -12.1213 N   0  0  0  0  0  0  0  0  0  0  0  0
   15.5610   -9.8407  -11.8157 C   0  0  0  0  0  0  0  0  0  0  0  0
   14.8173   -9.2210  -12.6172 O   0  0  0  0  0  0  0  0  0  0  0  0
   14.8431   -6.4262   -6.9077 N   0  0  0  0  0  0  0  0  0  0  0  0
   13.9678   -7.0368   -7.8381 C   0  0  0  0  0  0  0  0  0  0  0  0
   12.7701   -7.2650   -7.4996 O   0  0  0  0  0  0  0  0  0  0  0  0
   14.3852   -7.4285   -9.2056 C   0  0  0  0  0  0  0  0  0  0  0  0
   15.8790   -7.2777   -9.3377 C   0  0  0  0  0  0  0  0  0  0  0  0
   16.3455   -7.7865  -10.6894 C   0  0  2  0  0  0  0  0  0  0  0  0
   16.3018   -9.2081  -10.7867 N   0  0  0  0  0  0  0  0  0  0  0  0
   17.7505   -7.3083  -10.8824 C   0  0  0  0  0  0  0  0  0  0  0  0
   18.7236   -7.8392  -10.2947 O   0  0  0  0  0  0  0  0  0  0  0  0
   22.0435   -5.7879  -12.8620 N   0  0  0  0  0  0  0  0  0  0  0  0
   21.3470   -6.9687  -13.2111 C   0  0  0  0  0  0  0  0  0  0  0  0
   21.9078   -7.8400  -13.9180 O   0  0  0  0  0  0  0  0  0  0  0  0
   19.9754   -7.1700  -12.7468 C   0  0  0  0  0  0  0  0  0  0  0  0
   19.4133   -5.9199  -12.0550 C   0  0  2  0  0  0  0  0  0  0  0  0
   18.0292   -6.2225  -11.7493 N   0  0  0  0  0  0  0  0  0  0  0  0
   19.5458   -4.7819  -12.9813 C   0  0  0  0  0  0  0  0  0  0  0  0
   18.6009   -4.5315  -13.7631 O   0  0  0  0  0  0  0  0  0  0  0  0
   20.6688   -3.9807  -13.0215 O   0  0  0  0  0  0  0  0  0  0  0  0
  2  1  1  6
  2  3  1  0
  4  6  1  0
  4  2  1  0
  4  5  1  6
  6  7  2  0
  9  8  1  0
 10  9  2  0
 11  9  1  0
 12 11  1  0
 13 12  1  1
 14 13  1  0
 14  6  1  0
 15 13  1  0
 16 15  2  0
 18 17  1  0
 18 19  2  0
 20 18  1  0
 21 20  1  6
 21 22  1  0
 22 15  1  0
 23 21  1  0
 23 25  1  0
 24 23  2  0
M  END
$$$$
