VQN.pdb
     RDKit          3D

 25 24  0  0  1  0  0  0  0  0999 V2000
   22.1532  -10.0784   10.4707 C   0  0  0  0  0  0  0  0  0  0  0  0
   22.2330   -9.5902    9.0263 C   0  0  1  0  0  0  0  0  0  0  0  0
   23.3232   -8.5697    8.8553 C   0  0  0  0  0  0  0  0  0  0  0  0
   22.4688  -10.7377    8.0766 C   0  0  2  0  0  0  0  0  0  0  0  0
   22.5828  -10.2371    6.7460 N   0  0  0  0  0  0  0  0  0  0  0  0
   21.3167  -11.6844    8.2300 C   0  0  0  0  0  0  0  0  0  0  0  0
   21.0159  -12.1138    9.3722 O   0  0  0  0  0  0  0  0  0  0  0  0
   16.8271  -12.7624    3.7800 N   0  0  0  0  0  0  0  0  0  0  0  0
   16.5450  -13.6304    4.8625 C   0  0  0  0  0  0  0  0  0  0  0  0
   15.4735  -14.3031    4.8501 O   0  0  0  0  0  0  0  0  0  0  0  0
   17.4500  -13.7950    6.0250 C   0  0  0  0  0  0  0  0  0  0  0  0
   18.6154  -12.8484    5.8929 C   0  0  0  0  0  0  0  0  0  0  0  0
   19.5291  -12.9612    7.0994 C   0  0  2  0  0  0  0  0  0  0  0  0
   20.6211  -12.0461    7.0497 N   0  0  0  0  0  0  0  0  0  0  0  0
   20.0460  -14.3654    7.1346 C   0  0  0  0  0  0  0  0  0  0  0  0
   21.1984  -14.6632    6.7378 O   0  0  0  0  0  0  0  0  0  0  0  0
   21.2330  -19.0808    7.9857 N   0  0  0  0  0  0  0  0  0  0  0  0
   21.6537  -17.9799    8.7682 C   0  0  0  0  0  0  0  0  0  0  0  0
   22.5858  -18.1205    9.5958 O   0  0  0  0  0  0  0  0  0  0  0  0
   21.0009  -16.6814    8.6098 C   0  0  0  0  0  0  0  0  0  0  0  0
   19.7918  -16.7570    7.6666 C   0  0  2  0  0  0  0  0  0  0  0  0
   19.2354  -15.4194    7.6248 N   0  0  0  0  0  0  0  0  0  0  0  0
   18.8417  -17.7413    8.2134 C   0  0  0  0  0  0  0  0  0  0  0  0
   19.1094  -18.9590    8.1033 O   0  0  0  0  0  0  0  0  0  0  0  0
   17.6691  -17.3752    8.8425 O   0  0  0  0  0  0  0  0  0  0  0  0
  2  1  1  1
  2  3  1  0
  4  6  1  0
  4  2  1  0
  4  5  1  6
  6  7  2  0
  9  8  1  0
 10  9  2  0
 11  9  1  0
 12 11  1  0
 13 12  1  6
 14 13  1  0
 14  6  1  0
 15 13  1  0
 16 15  2  0
 18 17  1  0
 18 19  2  0
 20 18  1  0
 21 20  1  1
 21 22  1  0
 22 15  1  0
 23 21  1  0
 23 25  1  0
 24 23  2  0
M  END
$$$$
