VQN.pdb
     RDKit          3D

 25 24  0  0  1  0  0  0  0  0999 V2000
   15.2173  -10.3946  -17.5583 C   0  0  0  0  0  0  0  0  0  0  0  0
   15.5893  -11.7320  -16.9227 C   0  0  1  0  0  0  0  0  0  0  0  0
   15.2168  -12.8823  -17.8157 C   0  0  0  0  0  0  0  0  0  0  0  0
   17.0640  -11.7959  -16.6139 C   0  0  2  0  0  0  0  0  0  0  0  0
   17.3798  -13.0750  -16.0679 N   0  0  0  0  0  0  0  0  0  0  0  0
   17.3658  -10.6809  -15.6585 C   0  0  0  0  0  0  0  0  0  0  0  0
   16.9662  -10.7590  -14.4695 O   0  0  0  0  0  0  0  0  0  0  0  0
   22.7152   -8.1210  -15.0612 N   0  0  0  0  0  0  0  0  0  0  0  0
   22.0682   -9.2251  -14.4555 C   0  0  0  0  0  0  0  0  0  0  0  0
   22.7681  -10.1199  -13.8982 O   0  0  0  0  0  0  0  0  0  0  0  0
   20.5952   -9.3911  -14.4394 C   0  0  0  0  0  0  0  0  0  0  0  0
   19.9555   -8.2806  -15.2325 C   0  0  0  0  0  0  0  0  0  0  0  0
   18.4548   -8.4891  -15.3212 C   0  0  2  0  0  0  0  0  0  0  0  0
   18.1004   -9.5808  -16.1666 N   0  0  0  0  0  0  0  0  0  0  0  0
   17.8618   -7.2224  -15.8539 C   0  0  0  0  0  0  0  0  0  0  0  0
   17.7166   -7.0180  -17.0833 O   0  0  0  0  0  0  0  0  0  0  0  0
   15.6749   -2.5970  -16.1715 N   0  0  0  0  0  0  0  0  0  0  0  0
   15.1612   -3.2792  -15.0437 C   0  0  0  0  0  0  0  0  0  0  0  0
   14.1621   -2.8227  -14.4380 O   0  0  0  0  0  0  0  0  0  0  0  0
   15.7964   -4.5144  -14.5873 C   0  0  0  0  0  0  0  0  0  0  0  0
   16.9130   -4.9715  -15.5368 C   0  0  2  0  0  0  0  0  0  0  0  0
   17.4395   -6.1975  -14.9710 N   0  0  0  0  0  0  0  0  0  0  0  0
   17.9272   -3.9049  -15.6026 C   0  0  0  0  0  0  0  0  0  0  0  0
   19.0514   -4.1138  -15.0936 O   0  0  0  0  0  0  0  0  0  0  0  0
   17.6882   -2.6854  -16.2029 O   0  0  0  0  0  0  0  0  0  0  0  0
  2  1  1  6
  2  3  1  0
  4  6  1  0
  4  2  1  0
  4  5  1  1
  6  7  2  0
  9  8  1  0
 10  9  2  0
 11  9  1  0
 12 11  1  0
 13 12  1  6
 14 13  1  0
 14  6  1  0
 15 13  1  0
 16 15  2  0
 18 17  1  0
 18 19  2  0
 20 18  1  0
 21 20  1  1
 21 22  1  0
 22 15  1  0
 23 21  1  0
 23 25  1  0
 24 23  2  0
M  END
$$$$
