VQN.pdb
     RDKit          3D

 25 24  0  0  1  0  0  0  0  0999 V2000
   15.4325  -12.0596  -18.6126 C   0  0  0  0  0  0  0  0  0  0  0  0
   16.1659  -11.1311  -17.6477 C   0  0  1  0  0  0  0  0  0  0  0  0
   15.3086  -10.7908  -16.4610 C   0  0  0  0  0  0  0  0  0  0  0  0
   17.4558  -11.7506  -17.1716 C   0  0  2  0  0  0  0  0  0  0  0  0
   17.1736  -12.9742  -16.4954 N   0  0  0  0  0  0  0  0  0  0  0  0
   18.1253  -10.7501  -16.2785 C   0  0  0  0  0  0  0  0  0  0  0  0
   17.8034  -10.6900  -15.0651 O   0  0  0  0  0  0  0  0  0  0  0  0
   23.1843  -10.4451  -14.5930 N   0  0  0  0  0  0  0  0  0  0  0  0
   22.9907   -9.0546  -14.4097 C   0  0  0  0  0  0  0  0  0  0  0  0
   23.6429   -8.4552  -13.5062 O   0  0  0  0  0  0  0  0  0  0  0  0
   22.0518   -8.2530  -15.2305 C   0  0  0  0  0  0  0  0  0  0  0  0
   21.3354   -9.1563  -16.2012 C   0  0  0  0  0  0  0  0  0  0  0  0
   19.8332   -8.9755  -16.0834 C   0  0  2  0  0  0  0  0  0  0  0  0
   19.1031   -9.9130  -16.8710 N   0  0  0  0  0  0  0  0  0  0  0  0
   19.5176   -7.5828  -16.5316 C   0  0  0  0  0  0  0  0  0  0  0  0
   19.4632   -7.2676  -17.7449 O   0  0  0  0  0  0  0  0  0  0  0  0
   18.1735   -2.6668  -16.6557 N   0  0  0  0  0  0  0  0  0  0  0  0
   17.4387   -3.3407  -15.6521 C   0  0  0  0  0  0  0  0  0  0  0  0
   16.4814   -2.7630  -15.0834 O   0  0  0  0  0  0  0  0  0  0  0  0
   17.7972   -4.7085  -15.2807 C   0  0  0  0  0  0  0  0  0  0  0  0
   19.0149   -5.2169  -16.0656 C   0  0  2  0  0  0  0  0  0  0  0  0
   19.2668   -6.5602  -15.5832 N   0  0  0  0  0  0  0  0  0  0  0  0
   20.1441   -4.3076  -15.8039 C   0  0  0  0  0  0  0  0  0  0  0  0
   20.6843   -4.3311  -14.6751 O   0  0  0  0  0  0  0  0  0  0  0  0
   20.6307   -3.4315  -16.7529 O   0  0  0  0  0  0  0  0  0  0  0  0
  2  1  1  6
  2  3  1  0
  4  6  1  0
  4  2  1  0
  4  5  1  1
  6  7  2  0
  9  8  1  0
 10  9  2  0
 11  9  1  0
 12 11  1  0
 13 12  1  6
 14 13  1  0
 14  6  1  0
 15 13  1  0
 16 15  2  0
 18 17  1  0
 18 19  2  0
 20 18  1  0
 21 20  1  1
 21 22  1  0
 22 15  1  0
 23 21  1  0
 23 25  1  0
 24 23  2  0
M  END
$$$$
