VQN.pdb
     RDKit          3D

 25 24  0  0  1  0  0  0  0  0999 V2000
   19.2078  -13.3898  -15.3604 C   0  0  0  0  0  0  0  0  0  0  0  0
   20.2064  -13.5080  -16.5093 C   0  0  1  0  0  0  0  0  0  0  0  0
   19.7694  -14.5439  -17.5068 C   0  0  0  0  0  0  0  0  0  0  0  0
   20.3887  -12.1850  -17.2095 C   0  0  2  0  0  0  0  0  0  0  0  0
   21.1428  -12.3801  -18.4043 N   0  0  0  0  0  0  0  0  0  0  0  0
   21.0780  -11.2651  -16.2474 C   0  0  0  0  0  0  0  0  0  0  0  0
   20.5276  -10.9896  -15.1516 O   0  0  0  0  0  0  0  0  0  0  0  0
   27.2645  -10.1454  -16.6529 N   0  0  0  0  0  0  0  0  0  0  0  0
   26.6316  -11.1995  -15.9509 C   0  0  0  0  0  0  0  0  0  0  0  0
   27.3232  -12.1873  -15.5674 O   0  0  0  0  0  0  0  0  0  0  0  0
   25.1827  -11.2079  -15.6374 C   0  0  0  0  0  0  0  0  0  0  0  0
   24.5663   -9.9038  -16.0739 C   0  0  0  0  0  0  0  0  0  0  0  0
   23.0784   -9.8944  -15.7746 C   0  0  2  0  0  0  0  0  0  0  0  0
   22.3377  -10.7498  -16.6418 N   0  0  0  0  0  0  0  0  0  0  0  0
   22.6040   -8.4832  -15.9284 C   0  0  0  0  0  0  0  0  0  0  0  0
   22.3569   -7.9800  -17.0509 O   0  0  0  0  0  0  0  0  0  0  0  0
   18.5480   -4.9063  -15.8837 N   0  0  0  0  0  0  0  0  0  0  0  0
   19.9375   -5.0502  -15.6606 C   0  0  0  0  0  0  0  0  0  0  0  0
   20.6906   -4.0501  -15.7392 O   0  0  0  0  0  0  0  0  0  0  0  0
   20.4917   -6.3643  -15.3389 C   0  0  0  0  0  0  0  0  0  0  0  0
   21.9860   -6.2894  -14.9944 C   0  0  2  0  0  0  0  0  0  0  0  0
   22.4168   -7.6582  -14.7915 N   0  0  0  0  0  0  0  0  0  0  0  0
   22.1383   -5.4691  -13.7801 C   0  0  0  0  0  0  0  0  0  0  0  0
   22.1378   -6.0401  -12.6663 O   0  0  0  0  0  0  0  0  0  0  0  0
   22.2821   -4.0971  -13.8209 O   0  0  0  0  0  0  0  0  0  0  0  0
  2  1  1  1
  2  3  1  0
  4  6  1  0
  4  2  1  0
  4  5  1  6
  6  7  2  0
  9  8  1  0
 10  9  2  0
 11  9  1  0
 12 11  1  0
 13 12  1  6
 14 13  1  0
 14  6  1  0
 15 13  1  0
 16 15  2  0
 18 17  1  0
 18 19  2  0
 20 18  1  0
 21 20  1  1
 21 22  1  0
 22 15  1  0
 23 21  1  0
 23 25  1  0
 24 23  2  0
M  END
$$$$
