QQR.pdb
     RDKit          3D

 30 29  0  0  1  0  0  0  0  0999 V2000
   21.8775  -22.5600   -8.1246 N   0  0  0  0  0  0  0  0  0  0  0  0
   22.1199  -21.2652   -8.6812 C   0  0  0  0  0  0  0  0  0  0  0  0
   21.3098  -20.8555   -9.5465 O   0  0  0  0  0  0  0  0  0  0  0  0
   23.2629  -20.4108   -8.2847 C   0  0  0  0  0  0  0  0  0  0  0  0
   23.9369  -19.8980   -9.5134 C   0  0  0  0  0  0  0  0  0  0  0  0
   24.6879  -20.9277  -10.2956 C   0  0  2  0  0  0  0  0  0  0  0  0
   25.8442  -21.4050   -9.6057 N   0  0  0  0  0  0  0  0  0  0  0  0
   25.0426  -20.5119  -11.6636 C   0  0  0  0  0  0  0  0  0  0  0  0
   25.6292  -19.4281  -11.9317 O   0  0  0  0  0  0  0  0  0  0  0  0
   27.1450  -24.1494  -15.8580 N   0  0  0  0  0  0  0  0  0  0  0  0
   27.0765  -23.0030  -16.6957 C   0  0  0  0  0  0  0  0  0  0  0  0
   27.6037  -23.0073  -17.8445 O   0  0  0  0  0  0  0  0  0  0  0  0
   26.3585  -21.8081  -16.1551 C   0  0  0  0  0  0  0  0  0  0  0  0
   25.8590  -22.1666  -14.7871 C   0  0  0  0  0  0  0  0  0  0  0  0
   25.1155  -21.0642  -14.1102 C   0  0  2  0  0  0  0  0  0  0  0  0
   24.7172  -21.3586  -12.7554 N   0  0  0  0  0  0  0  0  0  0  0  0
   23.9706  -20.5555  -14.9217 C   0  0  0  0  0  0  0  0  0  0  0  0
   22.8684  -21.1628  -14.9533 O   0  0  0  0  0  0  0  0  0  0  0  0
   22.1023  -12.7998  -19.0353 N   0  0  0  0  0  0  0  0  0  0  0  0
   21.0397  -13.4083  -18.3289 C   0  0  0  0  0  0  0  0  0  0  0  0
   20.0082  -12.7395  -17.9615 N   0  0  0  0  0  0  0  0  0  0  0  0
   21.1260  -14.8024  -18.0181 N   0  0  0  0  0  0  0  0  0  0  0  0
   22.3104  -15.5716  -18.3229 C   0  0  0  0  0  0  0  0  0  0  0  0
   22.0506  -17.0278  -17.8530 C   0  0  0  0  0  0  0  0  0  0  0  0
   23.1876  -17.4877  -16.9845 C   0  0  0  0  0  0  0  0  0  0  0  0
   22.9899  -18.8888  -16.5600 C   0  0  2  0  0  0  0  0  0  0  0  0
   24.0603  -19.3694  -15.6967 N   0  0  0  0  0  0  0  0  0  0  0  0
   22.7820  -19.7863  -17.7078 C   0  0  0  0  0  0  0  0  0  0  0  0
   21.4744  -19.9251  -18.1854 O   0  0  0  0  0  0  0  0  0  0  0  0
   23.6522  -20.4290  -18.2908 O   0  0  0  0  0  0  0  0  0  0  0  0
  1  2  1  0
  2  3  2  0
  2  4  1  0
  4  5  1  0
  5  6  1  0
  6  7  1  1
  8  6  1  0
  8 16  1  0
  9  8  2  0
 11 12  2  0
 11 10  1  0
 13 11  1  0
 14 13  1  0
 15 16  1  0
 15 14  1  6
 17 27  1  0
 17 15  1  0
 18 17  2  0
 20 19  1  0
 20 22  1  0
 21 20  2  0
 23 22  1  0
 24 23  1  0
 25 24  1  0
 26 27  1  0
 26 25  1  6
 28 26  1  0
 29 28  1  0
 30 28  2  0
M  END
$$$$
