QQR.pdb
     RDKit          3D

 30 29  0  0  1  0  0  0  0  0999 V2000
   20.8929  -15.7571  -15.5222 N   0  0  0  0  0  0  0  0  0  0  0  0
   20.5540  -15.1653  -16.7792 C   0  0  0  0  0  0  0  0  0  0  0  0
   19.3435  -15.1762  -17.1069 O   0  0  0  0  0  0  0  0  0  0  0  0
   21.5533  -14.5556  -17.6865 C   0  0  0  0  0  0  0  0  0  0  0  0
   22.8945  -14.5991  -17.0337 C   0  0  0  0  0  0  0  0  0  0  0  0
   23.9184  -15.4178  -17.7531 C   0  0  2  0  0  0  0  0  0  0  0  0
   23.7698  -15.3580  -19.1727 N   0  0  0  0  0  0  0  0  0  0  0  0
   24.0001  -16.8187  -17.3050 C   0  0  0  0  0  0  0  0  0  0  0  0
   23.4661  -17.7796  -17.9230 O   0  0  0  0  0  0  0  0  0  0  0  0
   28.4188  -18.9439  -13.6091 N   0  0  0  0  0  0  0  0  0  0  0  0
   27.7509  -20.1800  -13.8249 C   0  0  0  0  0  0  0  0  0  0  0  0
   28.2529  -21.2672  -13.4203 O   0  0  0  0  0  0  0  0  0  0  0  0
   26.4418  -20.1285  -14.5454 C   0  0  0  0  0  0  0  0  0  0  0  0
   26.1923  -18.6977  -14.9194 C   0  0  0  0  0  0  0  0  0  0  0  0
   24.9207  -18.4852  -15.6705 C   0  0  2  0  0  0  0  0  0  0  0  0
   24.7120  -17.1295  -16.1169 N   0  0  0  0  0  0  0  0  0  0  0  0
   23.7271  -19.0162  -14.9484 C   0  0  0  0  0  0  0  0  0  0  0  0
   23.1360  -18.3356  -14.0697 O   0  0  0  0  0  0  0  0  0  0  0  0
   23.5995  -20.8712   -8.2837 N   0  0  0  0  0  0  0  0  0  0  0  0
   24.3180  -20.6990   -9.4888 C   0  0  0  0  0  0  0  0  0  0  0  0
   25.6005  -20.7253   -9.5152 N   0  0  0  0  0  0  0  0  0  0  0  0
   23.5901  -20.4882  -10.7026 N   0  0  0  0  0  0  0  0  0  0  0  0
   22.1489  -20.3874  -10.7105 C   0  0  0  0  0  0  0  0  0  0  0  0
   21.7097  -20.1412  -12.1786 C   0  0  0  0  0  0  0  0  0  0  0  0
   22.3631  -21.1536  -13.0768 C   0  0  0  0  0  0  0  0  0  0  0  0
   22.0595  -20.8702  -14.4945 C   0  0  2  0  0  0  0  0  0  0  0  0
   23.1969  -20.3071  -15.2096 N   0  0  0  0  0  0  0  0  0  0  0  0
   20.8620  -20.0275  -14.6420 C   0  0  0  0  0  0  0  0  0  0  0  0
   19.6585  -20.5278  -14.1335 O   0  0  0  0  0  0  0  0  0  0  0  0
   20.8176  -18.9195  -15.1717 O   0  0  0  0  0  0  0  0  0  0  0  0
  1  2  1  0
  2  3  2  0
  2  4  1  0
  4  5  1  0
  5  6  1  0
  6  7  1  6
  8  6  1  0
  8 16  1  0
  9  8  2  0
 11 12  2  0
 11 10  1  0
 13 11  1  0
 14 13  1  0
 15 16  1  0
 15 14  1  1
 17 27  1  0
 17 15  1  0
 18 17  2  0
 20 19  1  0
 20 22  1  0
 21 20  2  0
 23 22  1  0
 24 23  1  0
 25 24  1  0
 26 27  1  0
 26 25  1  1
 28 26  1  0
 29 28  1  0
 30 28  2  0
M  END
$$$$
