QQR.pdb
     RDKit          3D

 30 29  0  0  1  0  0  0  0  0999 V2000
   19.1531  -24.5625   -9.7381 N   0  0  0  0  0  0  0  0  0  0  0  0
   19.3808  -25.8054  -10.4078 C   0  0  0  0  0  0  0  0  0  0  0  0
   20.2075  -25.8021  -11.3510 O   0  0  0  0  0  0  0  0  0  0  0  0
   18.6944  -27.0651  -10.0396 C   0  0  0  0  0  0  0  0  0  0  0  0
   17.8886  -26.8375   -8.8044 C   0  0  0  0  0  0  0  0  0  0  0  0
   17.1005  -28.0206   -8.3403 C   0  0  2  0  0  0  0  0  0  0  0  0
   16.3094  -28.5955   -9.3816 N   0  0  0  0  0  0  0  0  0  0  0  0
   16.2733  -27.7694   -7.1475 C   0  0  0  0  0  0  0  0  0  0  0  0
   15.1583  -27.1811   -7.1849 O   0  0  0  0  0  0  0  0  0  0  0  0
   16.4381  -26.6092   -0.6113 N   0  0  0  0  0  0  0  0  0  0  0  0
   16.7224  -27.8454   -1.2527 C   0  0  0  0  0  0  0  0  0  0  0  0
   17.7929  -28.4715   -1.0079 O   0  0  0  0  0  0  0  0  0  0  0  0
   15.7039  -28.3599   -2.2188 C   0  0  0  0  0  0  0  0  0  0  0  0
   16.4264  -28.7166   -3.4837 C   0  0  0  0  0  0  0  0  0  0  0  0
   16.0569  -27.8615   -4.6493 C   0  0  2  0  0  0  0  0  0  0  0  0
   16.7339  -28.2024   -5.8766 N   0  0  0  0  0  0  0  0  0  0  0  0
   16.1598  -26.4024   -4.3515 C   0  0  0  0  0  0  0  0  0  0  0  0
   17.2669  -25.8038   -4.3809 O   0  0  0  0  0  0  0  0  0  0  0  0
   10.5298  -20.8760   -7.3004 N   0  0  0  0  0  0  0  0  0  0  0  0
   10.8296  -20.4546   -5.9848 C   0  0  0  0  0  0  0  0  0  0  0  0
   10.4338  -19.3191   -5.5371 N   0  0  0  0  0  0  0  0  0  0  0  0
   11.5953  -21.3195   -5.1403 N   0  0  0  0  0  0  0  0  0  0  0  0
   12.1514  -22.5581   -5.6344 C   0  0  0  0  0  0  0  0  0  0  0  0
   12.9174  -23.2231   -4.4598 C   0  0  0  0  0  0  0  0  0  0  0  0
   14.3581  -23.4152   -4.8419 C   0  0  0  0  0  0  0  0  0  0  0  0
   15.0796  -24.1765   -3.8016 C   0  0  2  0  0  0  0  0  0  0  0  0
   15.0252  -25.6156   -4.0210 N   0  0  0  0  0  0  0  0  0  0  0  0
   14.6252  -23.8224   -2.4473 C   0  0  0  0  0  0  0  0  0  0  0  0
   13.9893  -24.8210   -1.7020 O   0  0  0  0  0  0  0  0  0  0  0  0
   14.7520  -22.7270   -1.9049 O   0  0  0  0  0  0  0  0  0  0  0  0
  1  2  1  0
  2  3  2  0
  2  4  1  0
  4  5  1  0
  5  6  1  0
  6  7  1  6
  8  6  1  0
  8 16  1  0
  9  8  2  0
 11 12  2  0
 11 10  1  0
 13 11  1  0
 14 13  1  0
 15 16  1  0
 15 14  1  1
 17 27  1  0
 17 15  1  0
 18 17  2  0
 20 19  1  0
 20 22  1  0
 21 20  2  0
 23 22  1  0
 24 23  1  0
 25 24  1  0
 26 27  1  0
 26 25  1  6
 28 26  1  0
 29 28  1  0
 30 28  2  0
M  END
$$$$
