QQR.pdb
     RDKit          3D

 30 29  0  0  1  0  0  0  0  0999 V2000
   23.1911  -22.0428  -20.9440 N   0  0  0  0  0  0  0  0  0  0  0  0
   24.3538  -21.2103  -20.9275 C   0  0  0  0  0  0  0  0  0  0  0  0
   24.6197  -20.5810  -21.9793 O   0  0  0  0  0  0  0  0  0  0  0  0
   25.2341  -21.0665  -19.7451 C   0  0  0  0  0  0  0  0  0  0  0  0
   24.7284  -21.9470  -18.6515 C   0  0  0  0  0  0  0  0  0  0  0  0
   23.6694  -21.3361  -17.7905 C   0  0  2  0  0  0  0  0  0  0  0  0
   23.7623  -19.9117  -17.7344 N   0  0  0  0  0  0  0  0  0  0  0  0
   23.5925  -21.8986  -16.4311 C   0  0  0  0  0  0  0  0  0  0  0  0
   23.5135  -23.1344  -16.1926 O   0  0  0  0  0  0  0  0  0  0  0  0
   26.7514  -20.2270  -11.7375 N   0  0  0  0  0  0  0  0  0  0  0  0
   25.8914  -21.0883  -11.0033 C   0  0  0  0  0  0  0  0  0  0  0  0
   26.1376  -21.3755   -9.7971 O   0  0  0  0  0  0  0  0  0  0  0  0
   24.6971  -21.6298  -11.7214 C   0  0  0  0  0  0  0  0  0  0  0  0
   24.7212  -21.0732  -13.1139 C   0  0  0  0  0  0  0  0  0  0  0  0
   23.5649  -21.5026  -13.9535 C   0  0  2  0  0  0  0  0  0  0  0  0
   23.6060  -21.0235  -15.3135 N   0  0  0  0  0  0  0  0  0  0  0  0
   22.2475  -21.2207  -13.3108 C   0  0  0  0  0  0  0  0  0  0  0  0
   21.6485  -20.1288  -13.4947 O   0  0  0  0  0  0  0  0  0  0  0  0
   17.3354  -25.5289   -7.0463 N   0  0  0  0  0  0  0  0  0  0  0  0
   16.5565  -24.4724   -7.5710 C   0  0  0  0  0  0  0  0  0  0  0  0
   15.3218  -24.3271   -7.2536 N   0  0  0  0  0  0  0  0  0  0  0  0
   17.1664  -23.5495   -8.4787 N   0  0  0  0  0  0  0  0  0  0  0  0
   18.5058  -23.7570   -8.9793 C   0  0  0  0  0  0  0  0  0  0  0  0
   18.7904  -22.6394  -10.0179 C   0  0  0  0  0  0  0  0  0  0  0  0
   20.1442  -22.8560  -10.6333 C   0  0  0  0  0  0  0  0  0  0  0  0
   20.4063  -21.8566  -11.6893 C   0  0  2  0  0  0  0  0  0  0  0  0
   21.6026  -22.1595  -12.4633 N   0  0  0  0  0  0  0  0  0  0  0  0
   20.4471  -20.4873  -11.1515 C   0  0  0  0  0  0  0  0  0  0  0  0
   21.6721  -20.0290  -10.6549 O   0  0  0  0  0  0  0  0  0  0  0  0
   19.5027  -19.7028  -11.0969 O   0  0  0  0  0  0  0  0  0  0  0  0
  1  2  1  0
  2  3  2  0
  2  4  1  0
  4  5  1  0
  5  6  1  0
  6  7  1  1
  8  6  1  0
  8 16  1  0
  9  8  2  0
 11 12  2  0
 11 10  1  0
 13 11  1  0
 14 13  1  0
 15 16  1  0
 15 14  1  1
 17 27  1  0
 17 15  1  0
 18 17  2  0
 20 19  1  0
 20 22  1  0
 21 20  2  0
 23 22  1  0
 24 23  1  0
 25 24  1  0
 26 27  1  0
 26 25  1  1
 28 26  1  0
 29 28  1  0
 30 28  2  0
M  END
$$$$
