QQR.pdb
     RDKit          3D

 30 29  0  0  1  0  0  0  0  0999 V2000
   28.6003  -23.0538  -16.4250 N   0  0  0  0  0  0  0  0  0  0  0  0
   28.2101  -21.7105  -16.7224 C   0  0  0  0  0  0  0  0  0  0  0  0
   29.0137  -21.0180  -17.3916 O   0  0  0  0  0  0  0  0  0  0  0  0
   26.9254  -21.1204  -16.2811 C   0  0  0  0  0  0  0  0  0  0  0  0
   26.1627  -22.1402  -15.5032 C   0  0  0  0  0  0  0  0  0  0  0  0
   24.7172  -22.2579  -15.8676 C   0  0  2  0  0  0  0  0  0  0  0  0
   24.4322  -21.7223  -17.1609 N   0  0  0  0  0  0  0  0  0  0  0  0
   23.7912  -21.7003  -14.8667 C   0  0  0  0  0  0  0  0  0  0  0  0
   23.7818  -22.0512  -13.6553 O   0  0  0  0  0  0  0  0  0  0  0  0
   20.5298  -16.4915  -15.3704 N   0  0  0  0  0  0  0  0  0  0  0  0
   19.8700  -17.0009  -14.2191 C   0  0  0  0  0  0  0  0  0  0  0  0
   18.9537  -16.3403  -13.6517 O   0  0  0  0  0  0  0  0  0  0  0  0
   20.3097  -18.3401  -13.7204 C   0  0  0  0  0  0  0  0  0  0  0  0
   21.4018  -18.8201  -14.6293 C   0  0  0  0  0  0  0  0  0  0  0  0
   21.8161  -20.2315  -14.3789 C   0  0  2  0  0  0  0  0  0  0  0  0
   22.8494  -20.7146  -15.2620 N   0  0  0  0  0  0  0  0  0  0  0  0
   20.6586  -21.1721  -14.3205 C   0  0  0  0  0  0  0  0  0  0  0  0
   20.2140  -21.7297  -15.3579 O   0  0  0  0  0  0  0  0  0  0  0  0
   18.6809  -24.0797   -7.1252 N   0  0  0  0  0  0  0  0  0  0  0  0
   17.4235  -24.5245   -7.5938 C   0  0  0  0  0  0  0  0  0  0  0  0
   16.4844  -24.8553   -6.7845 N   0  0  0  0  0  0  0  0  0  0  0  0
   17.2025  -24.6072   -9.0051 N   0  0  0  0  0  0  0  0  0  0  0  0
   18.3015  -24.5991   -9.9429 C   0  0  0  0  0  0  0  0  0  0  0  0
   17.9966  -23.5089  -11.0045 C   0  0  0  0  0  0  0  0  0  0  0  0
   19.0931  -23.4849  -12.0320 C   0  0  0  0  0  0  0  0  0  0  0  0
   18.8702  -22.4021  -13.0118 C   0  0  2  0  0  0  0  0  0  0  0  0
   20.0000  -21.4870  -13.1029 N   0  0  0  0  0  0  0  0  0  0  0  0
   17.6136  -21.6799  -12.7559 C   0  0  0  0  0  0  0  0  0  0  0  0
   16.4367  -22.2393  -13.2649 O   0  0  0  0  0  0  0  0  0  0  0  0
   17.4983  -20.6264  -12.1339 O   0  0  0  0  0  0  0  0  0  0  0  0
  1  2  1  0
  2  3  2  0
  2  4  1  0
  4  5  1  0
  5  6  1  0
  6  7  1  6
  8  6  1  0
  8 16  1  0
  9  8  2  0
 11 12  2  0
 11 10  1  0
 13 11  1  0
 14 13  1  0
 15 16  1  0
 15 14  1  6
 17 27  1  0
 17 15  1  0
 18 17  2  0
 20 19  1  0
 20 22  1  0
 21 20  2  0
 23 22  1  0
 24 23  1  0
 25 24  1  0
 26 27  1  0
 26 25  1  1
 28 26  1  0
 29 28  1  0
 30 28  2  0
M  END
$$$$
