QQR.pdb
     RDKit          3D

 30 29  0  0  1  0  0  0  0  0999 V2000
   19.4618  -30.4281  -14.4758 N   0  0  0  0  0  0  0  0  0  0  0  0
   18.5548  -30.2388  -13.3865 C   0  0  0  0  0  0  0  0  0  0  0  0
   17.8968  -31.2387  -13.0118 O   0  0  0  0  0  0  0  0  0  0  0  0
   18.3672  -28.9394  -12.7010 C   0  0  0  0  0  0  0  0  0  0  0  0
   19.2177  -27.9100  -13.3673 C   0  0  0  0  0  0  0  0  0  0  0  0
   20.4516  -27.5292  -12.6133 C   0  0  2  0  0  0  0  0  0  0  0  0
   21.2995  -28.6479  -12.3481 N   0  0  0  0  0  0  0  0  0  0  0  0
   20.1975  -26.7737  -11.3744 C   0  0  0  0  0  0  0  0  0  0  0  0
   20.5226  -27.1868  -10.2281 O   0  0  0  0  0  0  0  0  0  0  0  0
   19.1870  -20.6756  -11.1851 N   0  0  0  0  0  0  0  0  0  0  0  0
   18.0961  -21.4078  -11.7275 C   0  0  0  0  0  0  0  0  0  0  0  0
   17.1613  -20.8185  -12.3413 O   0  0  0  0  0  0  0  0  0  0  0  0
   18.1110  -22.8907  -11.5370 C   0  0  0  0  0  0  0  0  0  0  0  0
   19.2451  -23.2119  -10.6097 C   0  0  0  0  0  0  0  0  0  0  0  0
   19.3715  -24.6648  -10.2944 C   0  0  2  0  0  0  0  0  0  0  0  0
   19.5532  -25.5110  -11.4484 N   0  0  0  0  0  0  0  0  0  0  0  0
   18.2735  -25.1631   -9.4146 C   0  0  0  0  0  0  0  0  0  0  0  0
   17.2031  -25.6185   -9.8961 O   0  0  0  0  0  0  0  0  0  0  0  0
   18.2809  -26.6829   -0.7898 N   0  0  0  0  0  0  0  0  0  0  0  0
   18.6199  -27.5198   -1.8774 C   0  0  0  0  0  0  0  0  0  0  0  0
   19.4245  -28.5094   -1.7374 N   0  0  0  0  0  0  0  0  0  0  0  0
   18.0500  -27.2481   -3.1615 N   0  0  0  0  0  0  0  0  0  0  0  0
   17.0797  -26.1942   -3.3489 C   0  0  0  0  0  0  0  0  0  0  0  0
   16.6404  -26.2281   -4.8370 C   0  0  0  0  0  0  0  0  0  0  0  0
   17.7329  -25.6598   -5.6983 C   0  0  0  0  0  0  0  0  0  0  0  0
   17.3083  -25.5990   -7.1120 C   0  0  2  0  0  0  0  0  0  0  0  0
   18.3738  -25.1508   -7.9985 N   0  0  0  0  0  0  0  0  0  0  0  0
   16.0903  -24.7913   -7.2853 C   0  0  0  0  0  0  0  0  0  0  0  0
   16.2568  -23.4336   -7.5783 O   0  0  0  0  0  0  0  0  0  0  0  0
   14.9339  -25.1978   -7.1972 O   0  0  0  0  0  0  0  0  0  0  0  0
  1  2  1  0
  2  3  2  0
  2  4  1  0
  4  5  1  0
  5  6  1  0
  6  7  1  1
  8  6  1  0
  8 16  1  0
  9  8  2  0
 11 12  2  0
 11 10  1  0
 13 11  1  0
 14 13  1  0
 15 16  1  0
 15 14  1  6
 17 27  1  0
 17 15  1  0
 18 17  2  0
 20 19  1  0
 20 22  1  0
 21 20  2  0
 23 22  1  0
 24 23  1  0
 25 24  1  0
 26 27  1  0
 26 25  1  1
 28 26  1  0
 29 28  1  0
 30 28  2  0
M  END
$$$$
