QKW.pdb
     RDKit          3D

 33 34  0  0  1  0  0  0  0  0999 V2000
   27.6320  -25.6334  -16.3939 N   0  0  0  0  0  0  0  0  0  0  0  0
   26.8258  -24.4697  -16.3302 C   0  0  0  0  0  0  0  0  0  0  0  0
   27.3592  -23.3961  -15.9590 O   0  0  0  0  0  0  0  0  0  0  0  0
   25.3990  -24.6124  -16.7107 C   0  0  0  0  0  0  0  0  0  0  0  0
   25.1397  -26.0753  -16.9971 C   0  0  0  0  0  0  0  0  0  0  0  0
   26.0655  -26.5970  -18.0821 C   0  0  2  0  0  0  0  0  0  0  0  0
   25.6453  -26.0231  -19.3609 N   0  0  0  0  0  0  0  0  0  0  0  0
   26.0474  -28.0509  -18.1929 C   0  0  0  0  0  0  0  0  0  0  0  0
   25.2198  -28.6113  -18.9886 O   0  0  0  0  0  0  0  0  0  0  0  0
   26.8766  -28.9489  -17.4912 N   0  0  0  0  0  0  0  0  0  0  0  0
   26.7913  -30.4156  -17.6340 C   0  0  1  0  0  0  0  0  0  0  0  0
   28.0888  -30.8760  -16.9542 C   0  0  0  0  0  0  0  0  0  0  0  0
   28.2834  -32.3454  -16.9494 C   0  0  0  0  0  0  0  0  0  0  0  0
   29.6631  -32.7216  -16.3891 C   0  0  0  0  0  0  0  0  0  0  0  0
   29.8903  -34.2135  -16.4830 C   0  0  0  0  0  0  0  0  0  0  0  0
   31.2130  -34.4878  -15.9507 N   0  0  0  0  0  0  0  0  0  0  0  0
   25.5845  -30.9338  -16.9781 C   0  0  0  0  0  0  0  0  0  0  0  0
   25.3566  -30.6356  -15.7599 O   0  0  0  0  0  0  0  0  0  0  0  0
   24.6270  -31.7607  -17.6142 N   0  0  0  0  0  0  0  0  0  0  0  0
   23.4240  -32.2224  -16.9165 C   0  0  1  0  0  0  0  0  0  0  0  0
   22.2504  -31.3725  -17.2779 C   0  0  0  0  0  0  0  0  0  0  0  0
   21.7633  -31.6079  -18.6345 C   0  0  0  0  0  0  0  0  0  0  0  0
   20.9306  -32.6765  -18.9950 C   0  0  0  0  0  0  0  0  0  0  0  0
   20.7117  -32.6314  -20.3026 N   0  0  0  0  0  0  0  0  0  0  0  0
   21.3564  -31.5841  -20.8345 C   0  0  0  0  0  0  0  0  0  0  0  0
   21.4404  -31.0870  -22.1119 C   0  0  0  0  0  0  0  0  0  0  0  0
   22.1649  -29.9550  -22.4021 C   0  0  0  0  0  0  0  0  0  0  0  0
   22.8249  -29.2985  -21.3880 C   0  0  0  0  0  0  0  0  0  0  0  0
   22.7453  -29.7909  -20.1097 C   0  0  0  0  0  0  0  0  0  0  0  0
   22.0105  -30.9436  -19.8083 C   0  0  0  0  0  0  0  0  0  0  0  0
   23.1710  -33.6392  -17.1320 C   0  0  0  0  0  0  0  0  0  0  0  0
   23.6720  -34.3114  -18.0577 O   0  0  0  0  0  0  0  0  0  0  0  0
   22.3097  -34.3123  -16.2515 O   0  0  0  0  0  0  0  0  0  0  0  0
  2  1  1  0
  2  4  1  0
  3  2  2  0
  5  4  1  0
  6  7  1  6
  6  5  1  0
  8  9  2  0
  8  6  1  0
 10  8  1  0
 11 10  1  0
 11 17  1  0
 11 12  1  1
 13 12  1  0
 14 13  1  0
 15 14  1  0
 16 15  1  0
 17 19  1  0
 17 18  2  0
 19 20  1  0
 20 21  1  6
 21 22  1  0
 22 23  2  0
 23 24  1  0
 25 24  1  0
 26 25  2  0
 27 26  1  0
 28 29  1  0
 28 27  2  0
 29 30  2  0
 30 22  1  0
 30 25  1  0
 31 33  1  0
 31 20  1  0
 32 31  2  0
M  END
$$$$
