QKW.pdb
     RDKit          3D

 33 34  0  0  1  0  0  0  0  0999 V2000
   28.8154  -17.5595  -18.4146 N   0  0  0  0  0  0  0  0  0  0  0  0
   27.8622  -16.7719  -17.7223 C   0  0  0  0  0  0  0  0  0  0  0  0
   28.2698  -15.7767  -17.0756 O   0  0  0  0  0  0  0  0  0  0  0  0
   26.4416  -17.1895  -17.8164 C   0  0  0  0  0  0  0  0  0  0  0  0
   25.8633  -17.1837  -16.4183 C   0  0  0  0  0  0  0  0  0  0  0  0
   26.3793  -18.3568  -15.6035 C   0  0  2  0  0  0  0  0  0  0  0  0
   26.4179  -19.5365  -16.4685 N   0  0  0  0  0  0  0  0  0  0  0  0
   25.5456  -18.6533  -14.4444 C   0  0  0  0  0  0  0  0  0  0  0  0
   25.2510  -17.7184  -13.6251 O   0  0  0  0  0  0  0  0  0  0  0  0
   25.0025  -19.9102  -14.1102 N   0  0  0  0  0  0  0  0  0  0  0  0
   24.2025  -20.1530  -12.8937 C   0  0  1  0  0  0  0  0  0  0  0  0
   23.1794  -21.1855  -13.3884 C   0  0  0  0  0  0  0  0  0  0  0  0
   22.2782  -21.7021  -12.3309 C   0  0  0  0  0  0  0  0  0  0  0  0
   21.2723  -22.7122  -12.9025 C   0  0  0  0  0  0  0  0  0  0  0  0
   21.9751  -23.7416  -13.7585 C   0  0  0  0  0  0  0  0  0  0  0  0
   21.7757  -25.0375  -13.1347 N   0  0  0  0  0  0  0  0  0  0  0  0
   25.0485  -20.6589  -11.8059 C   0  0  0  0  0  0  0  0  0  0  0  0
   25.5802  -21.8127  -11.9107 O   0  0  0  0  0  0  0  0  0  0  0  0
   25.3282  -19.9418  -10.6173 N   0  0  0  0  0  0  0  0  0  0  0  0
   26.1285  -20.5246   -9.5370 C   0  0  1  0  0  0  0  0  0  0  0  0
   27.1745  -19.5608   -9.0817 C   0  0  0  0  0  0  0  0  0  0  0  0
   28.0624  -20.1123   -8.0616 C   0  0  0  0  0  0  0  0  0  0  0  0
   28.8362  -21.2681   -8.2364 C   0  0  0  0  0  0  0  0  0  0  0  0
   29.4902  -21.5244   -7.1111 N   0  0  0  0  0  0  0  0  0  0  0  0
   29.1928  -20.5957   -6.1922 C   0  0  0  0  0  0  0  0  0  0  0  0
   29.6071  -20.3922   -4.8988 C   0  0  0  0  0  0  0  0  0  0  0  0
   29.1630  -19.3240   -4.1558 C   0  0  0  0  0  0  0  0  0  0  0  0
   28.2796  -18.4314   -4.7196 C   0  0  0  0  0  0  0  0  0  0  0  0
   27.8614  -18.6298   -6.0113 C   0  0  0  0  0  0  0  0  0  0  0  0
   28.3090  -19.7162   -6.7723 C   0  0  0  0  0  0  0  0  0  0  0  0
   25.3043  -21.0091   -8.4399 C   0  0  0  0  0  0  0  0  0  0  0  0
   24.2852  -20.4263   -8.0137 O   0  0  0  0  0  0  0  0  0  0  0  0
   25.6624  -22.2091   -7.8059 O   0  0  0  0  0  0  0  0  0  0  0  0
  2  1  1  0
  2  4  1  0
  3  2  2  0
  5  4  1  0
  6  7  1  6
  6  5  1  0
  8  9  2  0
  8  6  1  0
 10  8  1  0
 11 10  1  0
 11 17  1  0
 11 12  1  6
 13 12  1  0
 14 13  1  0
 15 14  1  0
 16 15  1  0
 17 19  1  0
 17 18  2  0
 19 20  1  0
 20 21  1  1
 21 22  1  0
 22 23  2  0
 23 24  1  0
 25 24  1  0
 26 25  2  0
 27 26  1  0
 28 29  1  0
 28 27  2  0
 29 30  2  0
 30 22  1  0
 30 25  1  0
 31 33  1  0
 31 20  1  0
 32 31  2  0
M  END
$$$$
