QKW.pdb
     RDKit          3D

 33 34  0  0  1  0  0  0  0  0999 V2000
   29.3752  -23.7352  -20.6263 N   0  0  0  0  0  0  0  0  0  0  0  0
   28.3977  -24.4805  -19.9212 C   0  0  0  0  0  0  0  0  0  0  0  0
   27.8597  -25.4547  -20.5012 O   0  0  0  0  0  0  0  0  0  0  0  0
   28.0825  -24.0465  -18.5380 C   0  0  0  0  0  0  0  0  0  0  0  0
   28.9329  -22.8341  -18.2275 C   0  0  0  0  0  0  0  0  0  0  0  0
   29.7207  -23.0277  -16.9436 C   0  0  2  0  0  0  0  0  0  0  0  0
   29.5806  -24.4225  -16.5235 N   0  0  0  0  0  0  0  0  0  0  0  0
   29.2629  -22.1645  -15.8611 C   0  0  0  0  0  0  0  0  0  0  0  0
   29.7717  -22.2920  -14.6963 O   0  0  0  0  0  0  0  0  0  0  0  0
   28.2791  -21.1599  -15.9579 N   0  0  0  0  0  0  0  0  0  0  0  0
   27.9508  -20.2343  -14.8559 C   0  0  1  0  0  0  0  0  0  0  0  0
   27.2867  -19.0711  -15.6066 C   0  0  0  0  0  0  0  0  0  0  0  0
   26.6484  -18.0651  -14.7248 C   0  0  0  0  0  0  0  0  0  0  0  0
   26.0554  -16.9070  -15.5410 C   0  0  0  0  0  0  0  0  0  0  0  0
   25.4191  -15.8812  -14.6303 C   0  0  0  0  0  0  0  0  0  0  0  0
   24.9704  -14.7784  -15.4615 N   0  0  0  0  0  0  0  0  0  0  0  0
   27.0561  -20.8763  -13.8852 C   0  0  0  0  0  0  0  0  0  0  0  0
   26.0707  -21.5683  -14.3037 O   0  0  0  0  0  0  0  0  0  0  0  0
   27.2101  -20.7845  -12.4805 N   0  0  0  0  0  0  0  0  0  0  0  0
   26.3316  -21.5120  -11.5607 C   0  0  1  0  0  0  0  0  0  0  0  0
   27.0727  -21.8956  -10.3221 C   0  0  0  0  0  0  0  0  0  0  0  0
   26.9719  -20.9005   -9.2578 C   0  0  0  0  0  0  0  0  0  0  0  0
   26.0088  -19.8825   -9.2240 C   0  0  0  0  0  0  0  0  0  0  0  0
   26.2195  -19.1238   -8.1563 N   0  0  0  0  0  0  0  0  0  0  0  0
   27.2759  -19.5852   -7.4734 C   0  0  0  0  0  0  0  0  0  0  0  0
   27.8864  -19.1846   -6.3104 C   0  0  0  0  0  0  0  0  0  0  0  0
   28.9673  -19.8572   -5.7911 C   0  0  0  0  0  0  0  0  0  0  0  0
   29.4537  -20.9632   -6.4510 C   0  0  0  0  0  0  0  0  0  0  0  0
   28.8483  -21.3679   -7.6139 C   0  0  0  0  0  0  0  0  0  0  0  0
   27.7485  -20.6864   -8.1483 C   0  0  0  0  0  0  0  0  0  0  0  0
   25.1080  -20.7795  -11.2713 C   0  0  0  0  0  0  0  0  0  0  0  0
   24.9645  -19.5510  -11.4453 O   0  0  0  0  0  0  0  0  0  0  0  0
   24.0050  -21.4826  -10.7623 O   0  0  0  0  0  0  0  0  0  0  0  0
  2  1  1  0
  2  4  1  0
  3  2  2  0
  5  4  1  0
  6  7  1  1
  6  5  1  0
  8  9  2  0
  8  6  1  0
 10  8  1  0
 11 10  1  0
 11 17  1  0
 11 12  1  6
 13 12  1  0
 14 13  1  0
 15 14  1  0
 16 15  1  0
 17 19  1  0
 17 18  2  0
 19 20  1  0
 20 21  1  1
 21 22  1  0
 22 23  2  0
 23 24  1  0
 25 24  1  0
 26 25  2  0
 27 26  1  0
 28 29  1  0
 28 27  2  0
 29 30  2  0
 30 22  1  0
 30 25  1  0
 31 33  1  0
 31 20  1  0
 32 31  2  0
M  END
$$$$
