QKW.pdb
     RDKit          3D

 33 34  0  0  1  0  0  0  0  0999 V2000
   26.0014  -25.3229  -16.7455 N   0  0  0  0  0  0  0  0  0  0  0  0
   26.5613  -25.7944  -17.9589 C   0  0  0  0  0  0  0  0  0  0  0  0
   25.8008  -26.3485  -18.7893 O   0  0  0  0  0  0  0  0  0  0  0  0
   28.0182  -25.5947  -18.1554 C   0  0  0  0  0  0  0  0  0  0  0  0
   28.5291  -24.7504  -17.0084 C   0  0  0  0  0  0  0  0  0  0  0  0
   28.8756  -23.3456  -17.4699 C   0  0  2  0  0  0  0  0  0  0  0  0
   30.2426  -23.3566  -17.9920 N   0  0  0  0  0  0  0  0  0  0  0  0
   28.7914  -22.3595  -16.3990 C   0  0  0  0  0  0  0  0  0  0  0  0
   29.5066  -22.5060  -15.3506 O   0  0  0  0  0  0  0  0  0  0  0  0
   27.9747  -21.2109  -16.3883 N   0  0  0  0  0  0  0  0  0  0  0  0
   27.8193  -20.3343  -15.2108 C   0  0  1  0  0  0  0  0  0  0  0  0
   27.3162  -19.0320  -15.8498 C   0  0  0  0  0  0  0  0  0  0  0  0
   26.8245  -18.0284  -14.8760 C   0  0  0  0  0  0  0  0  0  0  0  0
   26.2659  -16.7884  -15.5898 C   0  0  0  0  0  0  0  0  0  0  0  0
   25.8378  -15.7409  -14.5869 C   0  0  0  0  0  0  0  0  0  0  0  0
   25.2068  -14.6618  -15.3255 N   0  0  0  0  0  0  0  0  0  0  0  0
   26.8659  -20.9102  -14.2546 C   0  0  0  0  0  0  0  0  0  0  0  0
   25.8466  -21.5406  -14.6889 O   0  0  0  0  0  0  0  0  0  0  0  0
   26.9974  -20.8179  -12.8477 N   0  0  0  0  0  0  0  0  0  0  0  0
   26.0470  -21.4680  -11.9415 C   0  0  1  0  0  0  0  0  0  0  0  0
   26.7048  -21.7988  -10.6422 C   0  0  0  0  0  0  0  0  0  0  0  0
   26.4672  -20.7993   -9.6041 C   0  0  0  0  0  0  0  0  0  0  0  0
   25.2054  -20.2710   -9.2976 C   0  0  0  0  0  0  0  0  0  0  0  0
   25.3396  -19.3567   -8.3458 N   0  0  0  0  0  0  0  0  0  0  0  0
   26.6294  -19.2483   -7.9997 C   0  0  0  0  0  0  0  0  0  0  0  0
   27.2881  -18.4803   -7.0711 C   0  0  0  0  0  0  0  0  0  0  0  0
   28.6473  -18.5745   -6.8866 C   0  0  0  0  0  0  0  0  0  0  0  0
   29.3716  -19.4616   -7.6505 C   0  0  0  0  0  0  0  0  0  0  0  0
   28.7191  -20.2311   -8.5805 C   0  0  0  0  0  0  0  0  0  0  0  0
   27.3358  -20.1388   -8.7739 C   0  0  0  0  0  0  0  0  0  0  0  0
   24.8310  -20.6883  -11.7657 C   0  0  0  0  0  0  0  0  0  0  0  0
   24.7524  -19.4551  -11.9474 O   0  0  0  0  0  0  0  0  0  0  0  0
   23.6584  -21.3480  -11.3657 O   0  0  0  0  0  0  0  0  0  0  0  0
  2  1  1  0
  2  4  1  0
  3  2  2  0
  5  4  1  0
  6  7  1  1
  6  5  1  0
  8  9  2  0
  8  6  1  0
 10  8  1  0
 11 10  1  0
 11 17  1  0
 11 12  1  6
 13 12  1  0
 14 13  1  0
 15 14  1  0
 16 15  1  0
 17 19  1  0
 17 18  2  0
 19 20  1  0
 20 21  1  1
 21 22  1  0
 22 23  2  0
 23 24  1  0
 25 24  1  0
 26 25  2  0
 27 26  1  0
 28 29  1  0
 28 27  2  0
 29 30  2  0
 30 22  1  0
 30 25  1  0
 31 33  1  0
 31 20  1  0
 32 31  2  0
M  END
$$$$
