QKW.pdb
     RDKit          3D

 33 34  0  0  1  0  0  0  0  0999 V2000
   21.9043  -14.1202  -19.3244 N   0  0  0  0  0  0  0  0  0  0  0  0
   23.2777  -14.2243  -19.6576 C   0  0  0  0  0  0  0  0  0  0  0  0
   23.8024  -13.2934  -20.3157 O   0  0  0  0  0  0  0  0  0  0  0  0
   23.9961  -15.4384  -19.1984 C   0  0  0  0  0  0  0  0  0  0  0  0
   22.9763  -16.3808  -18.5973 C   0  0  0  0  0  0  0  0  0  0  0  0
   23.4242  -16.8815  -17.2353 C   0  0  2  0  0  0  0  0  0  0  0  0
   24.8871  -16.9140  -17.2150 N   0  0  0  0  0  0  0  0  0  0  0  0
   22.9220  -18.2156  -16.9278 C   0  0  0  0  0  0  0  0  0  0  0  0
   21.6732  -18.4599  -17.0414 O   0  0  0  0  0  0  0  0  0  0  0  0
   23.6921  -19.3162  -16.5008 N   0  0  0  0  0  0  0  0  0  0  0  0
   23.1182  -20.6425  -16.2001 C   0  0  1  0  0  0  0  0  0  0  0  0
   24.3169  -21.5696  -16.4472 C   0  0  0  0  0  0  0  0  0  0  0  0
   24.0233  -23.0085  -16.2457 C   0  0  0  0  0  0  0  0  0  0  0  0
   25.2400  -23.8783  -16.5952 C   0  0  0  0  0  0  0  0  0  0  0  0
   24.9118  -25.3459  -16.4373 C   0  0  0  0  0  0  0  0  0  0  0  0
   26.0738  -26.1018  -16.8694 N   0  0  0  0  0  0  0  0  0  0  0  0
   22.6264  -20.6963  -14.8180 C   0  0  0  0  0  0  0  0  0  0  0  0
   23.3482  -20.2279  -13.8776 O   0  0  0  0  0  0  0  0  0  0  0  0
   21.3755  -21.2421  -14.4401 N   0  0  0  0  0  0  0  0  0  0  0  0
   20.9048  -21.2001  -13.0532 C   0  0  1  0  0  0  0  0  0  0  0  0
   21.0137  -19.8152  -12.5049 C   0  0  0  0  0  0  0  0  0  0  0  0
   20.0615  -18.8820  -13.1010 C   0  0  0  0  0  0  0  0  0  0  0  0
   18.6715  -18.9705  -12.9418 C   0  0  0  0  0  0  0  0  0  0  0  0
   18.0939  -18.0059  -13.6459 N   0  0  0  0  0  0  0  0  0  0  0  0
   19.0295  -17.2755  -14.2675 C   0  0  0  0  0  0  0  0  0  0  0  0
   18.9671  -16.1737  -15.0847 C   0  0  0  0  0  0  0  0  0  0  0  0
   20.1007  -15.5795  -15.5870 C   0  0  0  0  0  0  0  0  0  0  0  0
   21.3339  -16.0994  -15.2642 C   0  0  0  0  0  0  0  0  0  0  0  0
   21.4026  -17.2007  -14.4487 C   0  0  0  0  0  0  0  0  0  0  0  0
   20.2521  -17.8108  -13.9354 C   0  0  0  0  0  0  0  0  0  0  0  0
   19.5657  -21.7510  -12.9083 C   0  0  0  0  0  0  0  0  0  0  0  0
   18.7917  -21.9811  -13.8612 O   0  0  0  0  0  0  0  0  0  0  0  0
   19.0948  -22.0501  -11.6203 O   0  0  0  0  0  0  0  0  0  0  0  0
  2  1  1  0
  2  4  1  0
  3  2  2  0
  5  4  1  0
  6  7  1  6
  6  5  1  0
  8  9  2  0
  8  6  1  0
 10  8  1  0
 11 10  1  0
 11 17  1  0
 11 12  1  1
 13 12  1  0
 14 13  1  0
 15 14  1  0
 16 15  1  0
 17 19  1  0
 17 18  2  0
 19 20  1  0
 20 21  1  6
 21 22  1  0
 22 23  2  0
 23 24  1  0
 25 24  1  0
 26 25  2  0
 27 26  1  0
 28 29  1  0
 28 27  2  0
 29 30  2  0
 30 22  1  0
 30 25  1  0
 31 33  1  0
 31 20  1  0
 32 31  2  0
M  END
$$$$
