QKW.pdb
     RDKit          3D

 33 34  0  0  1  0  0  0  0  0999 V2000
   27.2930  -15.6917  -13.9246 N   0  0  0  0  0  0  0  0  0  0  0  0
   26.9645  -15.0269  -15.1322 C   0  0  0  0  0  0  0  0  0  0  0  0
   27.6234  -14.0065  -15.4477 O   0  0  0  0  0  0  0  0  0  0  0  0
   25.8555  -15.5942  -15.9379 C   0  0  0  0  0  0  0  0  0  0  0  0
   25.3821  -16.8565  -15.2508 C   0  0  0  0  0  0  0  0  0  0  0  0
   26.2111  -18.0572  -15.6721 C   0  0  2  0  0  0  0  0  0  0  0  0
   26.3332  -18.0436  -17.1303 N   0  0  0  0  0  0  0  0  0  0  0  0
   25.6203  -19.3263  -15.2636 C   0  0  0  0  0  0  0  0  0  0  0  0
   24.3517  -19.4718  -15.3032 O   0  0  0  0  0  0  0  0  0  0  0  0
   26.3208  -20.4622  -14.8102 N   0  0  0  0  0  0  0  0  0  0  0  0
   25.6606  -21.7264  -14.4293 C   0  0  1  0  0  0  0  0  0  0  0  0
   26.5972  -22.7724  -15.0508 C   0  0  0  0  0  0  0  0  0  0  0  0
   27.9689  -22.2775  -15.3165 C   0  0  0  0  0  0  0  0  0  0  0  0
   28.8540  -23.3840  -15.9091 C   0  0  0  0  0  0  0  0  0  0  0  0
   30.2925  -22.9271  -16.0010 C   0  0  0  0  0  0  0  0  0  0  0  0
   31.0977  -24.0866  -16.3409 N   0  0  0  0  0  0  0  0  0  0  0  0
   25.5592  -21.8420  -12.9694 C   0  0  0  0  0  0  0  0  0  0  0  0
   24.8370  -22.7620  -12.4626 O   0  0  0  0  0  0  0  0  0  0  0  0
   26.2229  -20.9869  -12.0564 N   0  0  0  0  0  0  0  0  0  0  0  0
   26.0626  -21.1350  -10.6074 C   0  0  1  0  0  0  0  0  0  0  0  0
   27.0324  -20.2618   -9.8813 C   0  0  0  0  0  0  0  0  0  0  0  0
   26.9022  -20.3381   -8.4287 C   0  0  0  0  0  0  0  0  0  0  0  0
   25.8092  -20.9161   -7.7681 C   0  0  0  0  0  0  0  0  0  0  0  0
   25.9750  -20.7810   -6.4589 N   0  0  0  0  0  0  0  0  0  0  0  0
   27.1262  -20.1418   -6.2111 C   0  0  0  0  0  0  0  0  0  0  0  0
   27.7633  -19.7766   -5.0506 C   0  0  0  0  0  0  0  0  0  0  0  0
   28.9794  -19.1353   -5.0632 C   0  0  0  0  0  0  0  0  0  0  0  0
   29.5788  -18.8501   -6.2692 C   0  0  0  0  0  0  0  0  0  0  0  0
   28.9468  -19.2118   -7.4321 C   0  0  0  0  0  0  0  0  0  0  0  0
   27.7080  -19.8636   -7.4258 C   0  0  0  0  0  0  0  0  0  0  0  0
   24.6892  -20.9155  -10.1792 C   0  0  0  0  0  0  0  0  0  0  0  0
   23.9169  -20.0781  -10.6912 O   0  0  0  0  0  0  0  0  0  0  0  0
   24.1807  -21.6864   -9.1221 O   0  0  0  0  0  0  0  0  0  0  0  0
  2  1  1  0
  2  4  1  0
  3  2  2  0
  5  4  1  0
  6  7  1  6
  6  5  1  0
  8  9  2  0
  8  6  1  0
 10  8  1  0
 11 10  1  0
 11 17  1  0
 11 12  1  1
 13 12  1  0
 14 13  1  0
 15 14  1  0
 16 15  1  0
 17 19  1  0
 17 18  2  0
 19 20  1  0
 20 21  1  1
 21 22  1  0
 22 23  2  0
 23 24  1  0
 25 24  1  0
 26 25  2  0
 27 26  1  0
 28 29  1  0
 28 27  2  0
 29 30  2  0
 30 22  1  0
 30 25  1  0
 31 33  1  0
 31 20  1  0
 32 31  2  0
M  END
$$$$
