QKW.pdb
     RDKit          3D

 33 34  0  0  1  0  0  0  0  0999 V2000
   18.9549  -17.6386  -13.8279 N   0  0  0  0  0  0  0  0  0  0  0  0
   19.2573  -17.0577  -15.0845 C   0  0  0  0  0  0  0  0  0  0  0  0
   18.3179  -16.5603  -15.7515 O   0  0  0  0  0  0  0  0  0  0  0  0
   20.6757  -17.0834  -15.5190 C   0  0  0  0  0  0  0  0  0  0  0  0
   21.4825  -17.7532  -14.4282 C   0  0  0  0  0  0  0  0  0  0  0  0
   22.2176  -18.9727  -14.9564 C   0  0  2  0  0  0  0  0  0  0  0  0
   21.3065  -19.7191  -15.8249 N   0  0  0  0  0  0  0  0  0  0  0  0
   22.6836  -19.8581  -13.8955 C   0  0  0  0  0  0  0  0  0  0  0  0
   21.8964  -20.1586  -12.9353 O   0  0  0  0  0  0  0  0  0  0  0  0
   23.9608  -20.4472  -13.8050 N   0  0  0  0  0  0  0  0  0  0  0  0
   24.3755  -21.3225  -12.6910 C   0  0  1  0  0  0  0  0  0  0  0  0
   25.0558  -22.4807  -13.4348 C   0  0  0  0  0  0  0  0  0  0  0  0
   24.1129  -23.4243  -14.0812 C   0  0  0  0  0  0  0  0  0  0  0  0
   24.8626  -24.5694  -14.7781 C   0  0  0  0  0  0  0  0  0  0  0  0
   23.8905  -25.5305  -15.4244 C   0  0  0  0  0  0  0  0  0  0  0  0
   24.6707  -26.5387  -16.1194 N   0  0  0  0  0  0  0  0  0  0  0  0
   25.2830  -20.6131  -11.7809 C   0  0  0  0  0  0  0  0  0  0  0  0
   26.2325  -19.9127  -12.2632 O   0  0  0  0  0  0  0  0  0  0  0  0
   25.1792  -20.6470  -10.3691 N   0  0  0  0  0  0  0  0  0  0  0  0
   26.2769  -20.2035   -9.5057 C   0  0  1  0  0  0  0  0  0  0  0  0
   25.8014  -20.0319   -8.1005 C   0  0  0  0  0  0  0  0  0  0  0  0
   26.8159  -19.4702   -7.2125 C   0  0  0  0  0  0  0  0  0  0  0  0
   27.3549  -18.1836   -7.3514 C   0  0  0  0  0  0  0  0  0  0  0  0
   28.2810  -18.0003   -6.4194 N   0  0  0  0  0  0  0  0  0  0  0  0
   28.3872  -19.1011   -5.6630 C   0  0  0  0  0  0  0  0  0  0  0  0
   29.1640  -19.4186   -4.5759 C   0  0  0  0  0  0  0  0  0  0  0  0
   29.0651  -20.6369   -3.9464 C   0  0  0  0  0  0  0  0  0  0  0  0
   28.1641  -21.5666   -4.4145 C   0  0  0  0  0  0  0  0  0  0  0  0
   27.3858  -21.2554   -5.5008 C   0  0  0  0  0  0  0  0  0  0  0  0
   27.4828  -20.0173   -6.1467 C   0  0  0  0  0  0  0  0  0  0  0  0
   27.4374  -21.0769   -9.5966 C   0  0  0  0  0  0  0  0  0  0  0  0
   27.3804  -22.3244   -9.6162 O   0  0  0  0  0  0  0  0  0  0  0  0
   28.7139  -20.4975   -9.6677 O   0  0  0  0  0  0  0  0  0  0  0  0
  2  1  1  0
  2  4  1  0
  3  2  2  0
  5  4  1  0
  6  7  1  6
  6  5  1  0
  8  9  2  0
  8  6  1  0
 10  8  1  0
 11 10  1  0
 11 17  1  0
 11 12  1  6
 13 12  1  0
 14 13  1  0
 15 14  1  0
 16 15  1  0
 17 19  1  0
 17 18  2  0
 19 20  1  0
 20 21  1  1
 21 22  1  0
 22 23  2  0
 23 24  1  0
 25 24  1  0
 26 25  2  0
 27 26  1  0
 28 29  1  0
 28 27  2  0
 29 30  2  0
 30 22  1  0
 30 25  1  0
 31 33  1  0
 31 20  1  0
 32 31  2  0
M  END
$$$$
