IID.pdb
     RDKit          3D

 25 24  0  0  1  0  0  0  0  0999 V2000
    9.5750  -19.8741   27.2774 C   0  0  0  0  0  0  0  0  0  0  0  0
    8.5604  -19.3781   26.2529 C   0  0  0  0  0  0  0  0  0  0  0  0
    7.3055  -18.8651   26.8978 C   0  0  2  0  0  0  0  0  0  0  0  0
    6.6978  -19.9791   27.7132 C   0  0  0  0  0  0  0  0  0  0  0  0
    6.3267  -18.2482   25.9401 C   0  0  2  0  0  0  0  0  0  0  0  0
    6.0221  -19.2380   24.8822 N   0  0  0  0  0  0  0  0  0  0  0  0
    6.8128  -17.0473   25.2414 C   0  0  0  0  0  0  0  0  0  0  0  0
    7.1353  -17.1340   24.0012 O   0  0  0  0  0  0  0  0  0  0  0  0
    5.4422  -12.1863   27.2305 C   0  0  0  0  0  0  0  0  0  0  0  0
    5.6600  -13.2827   26.1914 C   0  0  0  0  0  0  0  0  0  0  0  0
    7.1040  -13.4052   25.8238 C   0  0  2  0  0  0  0  0  0  0  0  0
    7.6859  -12.1210   25.2868 C   0  0  0  0  0  0  0  0  0  0  0  0
    7.4611  -14.6115   25.0158 C   0  0  2  0  0  0  0  0  0  0  0  0
    6.9697  -15.7608   25.7943 N   0  0  0  0  0  0  0  0  0  0  0  0
    8.8854  -14.8123   24.7602 C   0  0  0  0  0  0  0  0  0  0  0  0
    9.7440  -14.5148   25.6632 O   0  0  0  0  0  0  0  0  0  0  0  0
    9.4483  -15.3283   23.5613 N   0  0  0  0  0  0  0  0  0  0  0  0
   10.8618  -15.6762   23.4622 C   0  0  1  0  0  0  0  0  0  0  0  0
   11.2669  -16.6618   24.4990 C   0  0  0  0  0  0  0  0  0  0  0  0
   12.6916  -17.0150   24.3429 C   0  0  0  0  0  0  0  0  0  0  0  0
   13.4835  -16.4966   23.5191 O   0  0  0  0  0  0  0  0  0  0  0  0
   11.1888  -16.1945   22.1162 C   0  0  0  0  0  0  0  0  0  0  0  0
   12.5401  -16.4026   21.8225 O   0  0  0  0  0  0  0  0  0  0  0  0
   13.2217  -18.0129   25.1781 O   0  0  0  0  0  0  0  0  0  0  0  0
   10.3490  -16.4583   21.2274 O   0  0  0  0  0  0  0  0  0  0  0  0
  2  1  1  0
  3  2  1  0
  3  5  1  0
  3  4  1  6
  5  7  1  0
  5  6  1  6
  7  8  2  0
 10  9  1  0
 11 12  1  6
 11 13  1  0
 11 10  1  0
 13 14  1  1
 14  7  1  0
 15 17  1  0
 15 13  1  0
 16 15  2  0
 18 19  1  1
 18 17  1  0
 19 20  1  0
 20 24  1  0
 20 21  2  0
 22 23  1  0
 22 18  1  0
 25 22  2  0
M  END
$$$$
