IID.pdb
     RDKit          3D

 25 24  0  0  1  0  0  0  0  0999 V2000
    5.5185  -18.7422   20.1262 C   0  0  0  0  0  0  0  0  0  0  0  0
    5.3938  -17.2679   20.4945 C   0  0  0  0  0  0  0  0  0  0  0  0
    6.4146  -16.8476   21.5119 C   0  0  2  0  0  0  0  0  0  0  0  0
    6.4156  -17.8570   22.6327 C   0  0  0  0  0  0  0  0  0  0  0  0
    6.2530  -15.4374   22.0028 C   0  0  2  0  0  0  0  0  0  0  0  0
    6.3727  -14.5235   20.8443 N   0  0  0  0  0  0  0  0  0  0  0  0
    7.2692  -14.9958   22.9718 C   0  0  0  0  0  0  0  0  0  0  0  0
    8.4580  -14.7413   22.5578 O   0  0  0  0  0  0  0  0  0  0  0  0
    5.9203  -11.7303   26.9006 C   0  0  0  0  0  0  0  0  0  0  0  0
    6.7750  -12.3588   25.8036 C   0  0  0  0  0  0  0  0  0  0  0  0
    7.5147  -13.5559   26.3084 C   0  0  2  0  0  0  0  0  0  0  0  0
    8.4094  -13.2434   27.4823 C   0  0  0  0  0  0  0  0  0  0  0  0
    8.1704  -14.3955   25.2592 C   0  0  2  0  0  0  0  0  0  0  0  0
    7.0832  -14.8088   24.3560 N   0  0  0  0  0  0  0  0  0  0  0  0
    8.8484  -15.5995   25.7338 C   0  0  0  0  0  0  0  0  0  0  0  0
    8.1727  -16.5355   26.2891 O   0  0  0  0  0  0  0  0  0  0  0  0
   10.2430  -15.8576   25.6400 N   0  0  0  0  0  0  0  0  0  0  0  0
   10.8404  -17.0688   26.1920 C   0  0  1  0  0  0  0  0  0  0  0  0
   12.1534  -17.3773   25.5666 C   0  0  0  0  0  0  0  0  0  0  0  0
   12.0206  -17.4401   24.0979 C   0  0  0  0  0  0  0  0  0  0  0  0
   11.1203  -18.0527   23.4744 O   0  0  0  0  0  0  0  0  0  0  0  0
   10.9907  -16.9663   27.6598 C   0  0  0  0  0  0  0  0  0  0  0  0
   11.4630  -18.0967   28.3342 O   0  0  0  0  0  0  0  0  0  0  0  0
   12.9730  -16.7633   23.3174 O   0  0  0  0  0  0  0  0  0  0  0  0
   10.7275  -15.9480   28.3368 O   0  0  0  0  0  0  0  0  0  0  0  0
  2  1  1  0
  3  2  1  0
  3  5  1  0
  3  4  1  1
  5  7  1  0
  5  6  1  6
  7  8  2  0
 10  9  1  0
 11 12  1  1
 11 13  1  0
 11 10  1  0
 13 14  1  6
 14  7  1  0
 15 17  1  0
 15 13  1  0
 16 15  2  0
 18 19  1  6
 18 17  1  0
 19 20  1  0
 20 24  1  0
 20 21  2  0
 22 23  1  0
 22 18  1  0
 25 22  2  0
M  END
$$$$
