IID.pdb
     RDKit          3D

 25 24  0  0  1  0  0  0  0  0999 V2000
    7.4644  -12.0818   28.2553 C   0  0  0  0  0  0  0  0  0  0  0  0
    6.6031  -13.0460   27.4471 C   0  0  0  0  0  0  0  0  0  0  0  0
    7.3577  -13.6612   26.3043 C   0  0  2  0  0  0  0  0  0  0  0  0
    7.9925  -12.5542   25.5002 C   0  0  0  0  0  0  0  0  0  0  0  0
    6.5424  -14.5970   25.4584 C   0  0  2  0  0  0  0  0  0  0  0  0
    5.9924  -15.6572   26.3331 N   0  0  0  0  0  0  0  0  0  0  0  0
    7.2933  -15.2947   24.4020 C   0  0  0  0  0  0  0  0  0  0  0  0
    7.4030  -16.5733   24.4542 O   0  0  0  0  0  0  0  0  0  0  0  0
    7.7600  -12.1323   20.2494 C   0  0  0  0  0  0  0  0  0  0  0  0
    7.3022  -13.4980   20.7537 C   0  0  0  0  0  0  0  0  0  0  0  0
    8.4658  -14.3997   21.0155 C   0  0  2  0  0  0  0  0  0  0  0  0
    9.0958  -14.9300   19.7515 C   0  0  0  0  0  0  0  0  0  0  0  0
    8.2460  -15.4445   22.0622 C   0  0  2  0  0  0  0  0  0  0  0  0
    7.9296  -14.7014   23.2935 N   0  0  0  0  0  0  0  0  0  0  0  0
    9.3812  -16.3211   22.3402 C   0  0  0  0  0  0  0  0  0  0  0  0
    9.7007  -17.2365   21.5029 O   0  0  0  0  0  0  0  0  0  0  0  0
   10.2100  -16.2644   23.4935 N   0  0  0  0  0  0  0  0  0  0  0  0
   11.6263  -16.6111   23.4413 C   0  0  1  0  0  0  0  0  0  0  0  0
   12.4018  -15.6608   22.6012 C   0  0  0  0  0  0  0  0  0  0  0  0
   13.8249  -16.0512   22.5645 C   0  0  0  0  0  0  0  0  0  0  0  0
   14.2549  -17.2286   22.5067 O   0  0  0  0  0  0  0  0  0  0  0  0
   12.2081  -16.6769   24.7994 C   0  0  0  0  0  0  0  0  0  0  0  0
   11.3375  -16.4879   25.8774 O   0  0  0  0  0  0  0  0  0  0  0  0
   14.7920  -15.0323   22.5962 O   0  0  0  0  0  0  0  0  0  0  0  0
   13.4150  -16.8880   25.0515 O   0  0  0  0  0  0  0  0  0  0  0  0
  2  1  1  0
  3  2  1  0
  3  5  1  0
  3  4  1  6
  5  7  1  0
  5  6  1  1
  7  8  2  0
 10  9  1  0
 11 12  1  6
 11 13  1  0
 11 10  1  0
 13 14  1  1
 14  7  1  0
 15 17  1  0
 15 13  1  0
 16 15  2  0
 18 19  1  6
 18 17  1  0
 19 20  1  0
 20 24  1  0
 20 21  2  0
 22 23  1  0
 22 18  1  0
 25 22  2  0
M  END
$$$$
