IID.pdb
     RDKit          3D

 25 24  0  0  1  0  0  0  0  0999 V2000
    6.4063  -18.1777   19.1782 C   0  0  0  0  0  0  0  0  0  0  0  0
    6.4395  -16.6958   19.5355 C   0  0  0  0  0  0  0  0  0  0  0  0
    7.0910  -16.4458   20.8647 C   0  0  2  0  0  0  0  0  0  0  0  0
    6.4758  -17.3757   21.8806 C   0  0  0  0  0  0  0  0  0  0  0  0
    7.0662  -15.0099   21.3044 C   0  0  2  0  0  0  0  0  0  0  0  0
    7.7063  -14.1887   20.2520 N   0  0  0  0  0  0  0  0  0  0  0  0
    7.8072  -14.7261   22.5442 C   0  0  0  0  0  0  0  0  0  0  0  0
    9.0911  -14.7554   22.5251 O   0  0  0  0  0  0  0  0  0  0  0  0
    5.8557  -11.2751   26.2052 C   0  0  0  0  0  0  0  0  0  0  0  0
    6.8177  -12.0238   25.2869 C   0  0  0  0  0  0  0  0  0  0  0  0
    7.2506  -13.3203   25.8928 C   0  0  2  0  0  0  0  0  0  0  0  0
    7.8175  -13.1610   27.2817 C   0  0  0  0  0  0  0  0  0  0  0  0
    8.0705  -14.2017   25.0059 C   0  0  2  0  0  0  0  0  0  0  0  0
    7.2515  -14.4103   23.8000 N   0  0  0  0  0  0  0  0  0  0  0  0
    8.4184  -15.5120   25.5503 C   0  0  0  0  0  0  0  0  0  0  0  0
    7.5025  -16.3869   25.7427 O   0  0  0  0  0  0  0  0  0  0  0  0
    9.7258  -15.9423   25.9050 N   0  0  0  0  0  0  0  0  0  0  0  0
    9.9921  -17.3044   26.3552 C   0  0  1  0  0  0  0  0  0  0  0  0
   10.9073  -18.0270   25.4329 C   0  0  0  0  0  0  0  0  0  0  0  0
   11.3032  -19.3246   26.0146 C   0  0  0  0  0  0  0  0  0  0  0  0
   12.4011  -19.5676   26.5713 O   0  0  0  0  0  0  0  0  0  0  0  0
   10.5458  -17.3126   27.7266 C   0  0  0  0  0  0  0  0  0  0  0  0
   10.7978  -16.0722   28.3213 O   0  0  0  0  0  0  0  0  0  0  0  0
   10.3864  -20.3873   25.9480 O   0  0  0  0  0  0  0  0  0  0  0  0
   10.8031  -18.3423   28.3883 O   0  0  0  0  0  0  0  0  0  0  0  0
  2  1  1  0
  3  2  1  0
  3  5  1  0
  3  4  1  1
  5  7  1  0
  5  6  1  6
  7  8  2  0
 10  9  1  0
 11 12  1  1
 11 13  1  0
 11 10  1  0
 13 14  1  6
 14  7  1  0
 15 17  1  0
 15 13  1  0
 16 15  2  0
 18 19  1  6
 18 17  1  0
 19 20  1  0
 20 24  1  0
 20 21  2  0
 22 23  1  0
 22 18  1  0
 25 22  2  0
M  END
$$$$
