IID.pdb
     RDKit          3D

 25 24  0  0  1  0  0  0  0  0999 V2000
    6.2836  -22.1693   23.7977 C   0  0  0  0  0  0  0  0  0  0  0  0
    5.4603  -20.9041   23.5827 C   0  0  0  0  0  0  0  0  0  0  0  0
    6.3041  -19.6630   23.6233 C   0  0  2  0  0  0  0  0  0  0  0  0
    7.1033  -19.6704   24.9024 C   0  0  0  0  0  0  0  0  0  0  0  0
    5.5359  -18.3872   23.4279 C   0  0  2  0  0  0  0  0  0  0  0  0
    4.8757  -18.4384   22.1038 N   0  0  0  0  0  0  0  0  0  0  0  0
    6.3533  -17.1632   23.4243 C   0  0  0  0  0  0  0  0  0  0  0  0
    6.9144  -16.7902   22.3308 O   0  0  0  0  0  0  0  0  0  0  0  0
    6.8215  -11.9385   26.5868 C   0  0  0  0  0  0  0  0  0  0  0  0
    7.4673  -12.8039   25.5083 C   0  0  0  0  0  0  0  0  0  0  0  0
    6.8064  -14.1419   25.4159 C   0  0  2  0  0  0  0  0  0  0  0  0
    6.5539  -14.7682   26.7650 C   0  0  0  0  0  0  0  0  0  0  0  0
    7.3992  -15.0835   24.4171 C   0  0  2  0  0  0  0  0  0  0  0  0
    6.6007  -16.3163   24.5229 N   0  0  0  0  0  0  0  0  0  0  0  0
    8.8029  -15.4331   24.6211 C   0  0  0  0  0  0  0  0  0  0  0  0
    9.6894  -14.5098   24.6737 O   0  0  0  0  0  0  0  0  0  0  0  0
    9.3157  -16.7496   24.7767 N   0  0  0  0  0  0  0  0  0  0  0  0
   10.7492  -17.0161   24.8286 C   0  0  1  0  0  0  0  0  0  0  0  0
   11.5257  -16.0492   24.0084 C   0  0  0  0  0  0  0  0  0  0  0  0
   12.9669  -16.3613   24.0739 C   0  0  0  0  0  0  0  0  0  0  0  0
   13.8957  -15.5788   23.7586 O   0  0  0  0  0  0  0  0  0  0  0  0
   11.2417  -17.0066   26.2231 C   0  0  0  0  0  0  0  0  0  0  0  0
   10.3224  -16.6744   27.2232 O   0  0  0  0  0  0  0  0  0  0  0  0
   13.3483  -17.6364   24.5244 O   0  0  0  0  0  0  0  0  0  0  0  0
   12.4137  -17.2725   26.5701 O   0  0  0  0  0  0  0  0  0  0  0  0
  2  1  1  0
  3  2  1  0
  3  5  1  0
  3  4  1  1
  5  7  1  0
  5  6  1  6
  7  8  2  0
 10  9  1  0
 11 12  1  1
 11 13  1  0
 11 10  1  0
 13 14  1  1
 14  7  1  0
 15 17  1  0
 15 13  1  0
 16 15  2  0
 18 19  1  6
 18 17  1  0
 19 20  1  0
 20 24  1  0
 20 21  2  0
 22 23  1  0
 22 18  1  0
 25 22  2  0
M  END
$$$$
