IID.pdb
     RDKit          3D

 25 24  0  0  1  0  0  0  0  0999 V2000
    7.3648  -11.0570   27.3067 C   0  0  0  0  0  0  0  0  0  0  0  0
    7.8279  -12.5084   27.2455 C   0  0  0  0  0  0  0  0  0  0  0  0
    7.1172  -13.2875   26.1769 C   0  0  2  0  0  0  0  0  0  0  0  0
    5.6349  -13.2294   26.4494 C   0  0  0  0  0  0  0  0  0  0  0  0
    7.6188  -14.6921   25.9997 C   0  0  2  0  0  0  0  0  0  0  0  0
    9.0782  -14.7011   26.2479 N   0  0  0  0  0  0  0  0  0  0  0  0
    7.4353  -15.2526   24.6511 C   0  0  0  0  0  0  0  0  0  0  0  0
    6.3935  -15.9628   24.4064 O   0  0  0  0  0  0  0  0  0  0  0  0
    7.7861  -12.1776   20.6477 C   0  0  0  0  0  0  0  0  0  0  0  0
    7.4443  -13.3113   21.6106 C   0  0  0  0  0  0  0  0  0  0  0  0
    8.1744  -14.5665   21.2546 C   0  0  2  0  0  0  0  0  0  0  0  0
    7.9668  -14.9815   19.8191 C   0  0  0  0  0  0  0  0  0  0  0  0
    8.0350  -15.6897   22.2316 C   0  0  2  0  0  0  0  0  0  0  0  0
    8.3015  -15.0930   23.5512 N   0  0  0  0  0  0  0  0  0  0  0  0
    8.9495  -16.8143   22.0491 C   0  0  0  0  0  0  0  0  0  0  0  0
    8.7465  -17.6551   21.1041 O   0  0  0  0  0  0  0  0  0  0  0  0
   10.0957  -17.0887   22.8436 N   0  0  0  0  0  0  0  0  0  0  0  0
   10.9111  -18.2801   22.6328 C   0  0  1  0  0  0  0  0  0  0  0  0
   12.3384  -17.9425   22.3894 C   0  0  0  0  0  0  0  0  0  0  0  0
   12.5059  -17.3586   21.0442 C   0  0  0  0  0  0  0  0  0  0  0  0
   11.6658  -17.4212   20.1142 O   0  0  0  0  0  0  0  0  0  0  0  0
   10.7992  -19.2104   23.7770 C   0  0  0  0  0  0  0  0  0  0  0  0
    9.9729  -18.8234   24.8368 O   0  0  0  0  0  0  0  0  0  0  0  0
   13.6995  -16.6720   20.7643 O   0  0  0  0  0  0  0  0  0  0  0  0
   11.3868  -20.3112   23.8645 O   0  0  0  0  0  0  0  0  0  0  0  0
  2  1  1  0
  3  2  1  0
  3  5  1  0
  3  4  1  1
  5  7  1  0
  5  6  1  6
  7  8  2  0
 10  9  1  0
 11 12  1  6
 11 13  1  0
 11 10  1  0
 13 14  1  1
 14  7  1  0
 15 17  1  0
 15 13  1  0
 16 15  2  0
 18 19  1  1
 18 17  1  0
 19 20  1  0
 20 24  1  0
 20 21  2  0
 22 23  1  0
 22 18  1  0
 25 22  2  0
M  END
$$$$
