IID.pdb
     RDKit          3D

 25 24  0  0  1  0  0  0  0  0999 V2000
   11.6869  -15.0267   30.3329 C   0  0  0  0  0  0  0  0  0  0  0  0
   10.4517  -15.7883   29.8648 C   0  0  0  0  0  0  0  0  0  0  0  0
   10.1827  -15.5908   28.4011 C   0  0  2  0  0  0  0  0  0  0  0  0
   10.2024  -14.1115   28.1072 C   0  0  0  0  0  0  0  0  0  0  0  0
    8.9339  -16.2628   27.9064 C   0  0  2  0  0  0  0  0  0  0  0  0
    9.0755  -17.7217   28.1146 N   0  0  0  0  0  0  0  0  0  0  0  0
    8.6584  -16.0848   26.4715 C   0  0  0  0  0  0  0  0  0  0  0  0
    8.5326  -17.1232   25.7262 O   0  0  0  0  0  0  0  0  0  0  0  0
    5.7720  -13.4949   25.3607 C   0  0  0  0  0  0  0  0  0  0  0  0
    7.0396  -12.6831   25.1091 C   0  0  0  0  0  0  0  0  0  0  0  0
    7.9126  -13.3393   24.0882 C   0  0  2  0  0  0  0  0  0  0  0  0
    7.4733  -13.0617   22.6718 C   0  0  0  0  0  0  0  0  0  0  0  0
    8.2354  -14.7762   24.3471 C   0  0  2  0  0  0  0  0  0  0  0  0
    8.5073  -14.8597   25.7919 N   0  0  0  0  0  0  0  0  0  0  0  0
    9.3942  -15.3104   23.6356 C   0  0  0  0  0  0  0  0  0  0  0  0
   10.4794  -14.6316   23.5830 O   0  0  0  0  0  0  0  0  0  0  0  0
    9.4510  -16.5624   22.9650 N   0  0  0  0  0  0  0  0  0  0  0  0
   10.7061  -17.1086   22.4599 C   0  0  1  0  0  0  0  0  0  0  0  0
   11.7276  -17.2410   23.5320 C   0  0  0  0  0  0  0  0  0  0  0  0
   12.9895  -17.7684   22.9767 C   0  0  0  0  0  0  0  0  0  0  0  0
   13.7837  -17.1316   22.2430 O   0  0  0  0  0  0  0  0  0  0  0  0
   10.4908  -18.4155   21.8020 C   0  0  0  0  0  0  0  0  0  0  0  0
   11.5359  -18.9170   21.0198 O   0  0  0  0  0  0  0  0  0  0  0  0
   13.3466  -19.0919   23.2852 O   0  0  0  0  0  0  0  0  0  0  0  0
    9.4479  -19.1000   21.8943 O   0  0  0  0  0  0  0  0  0  0  0  0
  2  1  1  0
  3  2  1  0
  3  5  1  0
  3  4  1  1
  5  7  1  0
  5  6  1  6
  7  8  2  0
 10  9  1  0
 11 12  1  6
 11 13  1  0
 11 10  1  0
 13 14  1  1
 14  7  1  0
 15 17  1  0
 15 13  1  0
 16 15  2  0
 18 19  1  1
 18 17  1  0
 19 20  1  0
 20 24  1  0
 20 21  2  0
 22 23  1  0
 22 18  1  0
 25 22  2  0
M  END
$$$$
