IID.pdb
     RDKit          3D

 25 24  0  0  1  0  0  0  0  0999 V2000
   11.4697  -15.5400   30.5590 C   0  0  0  0  0  0  0  0  0  0  0  0
   10.3369  -16.4538   30.1043 C   0  0  0  0  0  0  0  0  0  0  0  0
    9.7101  -15.9877   28.8222 C   0  0  2  0  0  0  0  0  0  0  0  0
    9.3733  -14.5239   28.9598 C   0  0  0  0  0  0  0  0  0  0  0  0
    8.5378  -16.8118   28.3725 C   0  0  2  0  0  0  0  0  0  0  0  0
    8.9379  -18.2372   28.3839 N   0  0  0  0  0  0  0  0  0  0  0  0
    8.0709  -16.5347   27.0044 C   0  0  0  0  0  0  0  0  0  0  0  0
    7.3295  -17.3991   26.4104 O   0  0  0  0  0  0  0  0  0  0  0  0
    6.5850  -11.6075   25.8552 C   0  0  0  0  0  0  0  0  0  0  0  0
    6.5512  -13.1328   25.8209 C   0  0  0  0  0  0  0  0  0  0  0  0
    7.5316  -13.6769   24.8319 C   0  0  2  0  0  0  0  0  0  0  0  0
    7.2969  -13.1704   23.4304 C   0  0  0  0  0  0  0  0  0  0  0  0
    7.7685  -15.1514   24.9068 C   0  0  2  0  0  0  0  0  0  0  0  0
    8.3503  -15.3849   26.2393 N   0  0  0  0  0  0  0  0  0  0  0  0
    8.6817  -15.7047   23.9097 C   0  0  0  0  0  0  0  0  0  0  0  0
    8.3379  -15.7337   22.6759 O   0  0  0  0  0  0  0  0  0  0  0  0
    9.9726  -16.2383   24.1727 N   0  0  0  0  0  0  0  0  0  0  0  0
   10.6997  -17.0196   23.1779 C   0  0  1  0  0  0  0  0  0  0  0  0
   12.1721  -16.9154   23.3552 C   0  0  0  0  0  0  0  0  0  0  0  0
   12.6071  -15.5111   23.2233 C   0  0  0  0  0  0  0  0  0  0  0  0
   12.2717  -14.7292   22.3010 O   0  0  0  0  0  0  0  0  0  0  0  0
   10.2855  -18.4390   23.2100 C   0  0  0  0  0  0  0  0  0  0  0  0
   10.8510  -19.2915   22.2565 O   0  0  0  0  0  0  0  0  0  0  0  0
   13.4689  -14.9901   24.2032 O   0  0  0  0  0  0  0  0  0  0  0  0
    9.4709  -18.9286   24.0234 O   0  0  0  0  0  0  0  0  0  0  0  0
  2  1  1  0
  3  2  1  0
  3  5  1  0
  3  4  1  1
  5  7  1  0
  5  6  1  6
  7  8  2  0
 10  9  1  0
 11 12  1  6
 11 13  1  0
 11 10  1  0
 13 14  1  1
 14  7  1  0
 15 17  1  0
 15 13  1  0
 16 15  2  0
 18 19  1  1
 18 17  1  0
 19 20  1  0
 20 24  1  0
 20 21  2  0
 22 23  1  0
 22 18  1  0
 25 22  2  0
M  END
$$$$
