IID.pdb
     RDKit          3D

 25 24  0  0  1  0  0  0  0  0999 V2000
    6.4166  -18.3799   19.3867 C   0  0  0  0  0  0  0  0  0  0  0  0
    6.3825  -16.8864   19.6918 C   0  0  0  0  0  0  0  0  0  0  0  0
    7.0470  -16.5575   20.9973 C   0  0  2  0  0  0  0  0  0  0  0  0
    6.5075  -17.4872   22.0554 C   0  0  0  0  0  0  0  0  0  0  0  0
    6.9500  -15.1118   21.3926 C   0  0  2  0  0  0  0  0  0  0  0  0
    7.4929  -14.2887   20.2883 N   0  0  0  0  0  0  0  0  0  0  0  0
    7.7224  -14.7411   22.5895 C   0  0  0  0  0  0  0  0  0  0  0  0
    9.0036  -14.6895   22.5148 O   0  0  0  0  0  0  0  0  0  0  0  0
    5.8904  -11.2009   26.1528 C   0  0  0  0  0  0  0  0  0  0  0  0
    6.8316  -11.9939   25.2503 C   0  0  0  0  0  0  0  0  0  0  0  0
    7.2823  -13.2575   25.9102 C   0  0  2  0  0  0  0  0  0  0  0  0
    7.9157  -13.0237   27.2593 C   0  0  0  0  0  0  0  0  0  0  0  0
    8.0523  -14.1978   25.0391 C   0  0  2  0  0  0  0  0  0  0  0  0
    7.2007  -14.4202   23.8585 N   0  0  0  0  0  0  0  0  0  0  0  0
    8.3671  -15.4993   25.6232 C   0  0  0  0  0  0  0  0  0  0  0  0
    7.6212  -16.5097   25.3701 O   0  0  0  0  0  0  0  0  0  0  0  0
    9.4649  -15.7796   26.4816 N   0  0  0  0  0  0  0  0  0  0  0  0
   10.2594  -16.9955   26.3429 C   0  0  1  0  0  0  0  0  0  0  0  0
   10.9007  -17.0923   25.0051 C   0  0  0  0  0  0  0  0  0  0  0  0
   11.7745  -18.2801   24.9392 C   0  0  0  0  0  0  0  0  0  0  0  0
   12.8416  -18.4347   25.5810 O   0  0  0  0  0  0  0  0  0  0  0  0
   11.2861  -17.0837   27.4037 C   0  0  0  0  0  0  0  0  0  0  0  0
   11.8890  -18.3290   27.6074 O   0  0  0  0  0  0  0  0  0  0  0  0
   11.3950  -19.3350   24.0922 O   0  0  0  0  0  0  0  0  0  0  0  0
   11.6515  -16.1309   28.1270 O   0  0  0  0  0  0  0  0  0  0  0  0
  2  1  1  0
  3  2  1  0
  3  5  1  0
  3  4  1  1
  5  7  1  0
  5  6  1  6
  7  8  2  0
 10  9  1  0
 11 12  1  1
 11 13  1  0
 11 10  1  0
 13 14  1  6
 14  7  1  0
 15 17  1  0
 15 13  1  0
 16 15  2  0
 18 19  1  6
 18 17  1  0
 19 20  1  0
 20 24  1  0
 20 21  2  0
 22 23  1  0
 22 18  1  0
 25 22  2  0
M  END
$$$$
