RTA.pdb
     RDKit          3D

 24 23  0  0  1  0  0  0  0  0999 V2000
    7.9021  -12.7425   17.1100 N   0  0  0  0  0  0  0  0  0  0  0  0
    8.0181  -13.9753   16.4214 C   0  0  0  0  0  0  0  0  0  0  0  0
    7.8373  -14.0299   15.1643 N   0  0  0  0  0  0  0  0  0  0  0  0
    8.3391  -15.1487   17.1491 N   0  0  0  0  0  0  0  0  0  0  0  0
    7.9683  -15.3429   18.5254 C   0  0  0  0  0  0  0  0  0  0  0  0
    7.9934  -14.0931   19.3579 C   0  0  0  0  0  0  0  0  0  0  0  0
    7.5050  -14.3278   20.7699 C   0  0  0  0  0  0  0  0  0  0  0  0
    8.6641  -14.8167   21.6068 C   0  0  2  0  0  0  0  0  0  0  0  0
    9.0733  -16.1029   21.0944 N   0  0  0  0  0  0  0  0  0  0  0  0
    8.3044  -14.9341   23.0410 C   0  0  0  0  0  0  0  0  0  0  0  0
    7.6908  -13.9835   23.5868 O   0  0  0  0  0  0  0  0  0  0  0  0
    7.9268  -14.8873   14.5907 C   0  0  0  0  0  0  0  0  0  0  0  0
    6.3421  -17.8434   24.5063 C   0  0  2  0  0  0  0  0  0  0  0  0
    7.5078  -17.5524   25.4246 O   0  0  0  0  0  0  0  0  0  0  0  0
    8.4910  -18.5077   25.2236 C   0  0  2  0  0  0  0  0  0  0  0  0
    8.0843  -16.1850   25.2029 N   0  0  0  0  0  0  0  0  0  0  0  0
    8.6071  -16.0490   23.8380 C   0  0  0  0  0  0  0  0  0  0  0  0
    9.1694  -15.8294   26.1557 O   0  0  0  0  0  0  0  0  0  0  0  0
   10.3657  -16.2518   25.9627 C   0  0  0  0  0  0  0  0  0  0  0  0
    9.7236  -13.6455   29.1413 C   0  0  2  0  0  0  0  0  0  0  0  0
   10.0799  -14.8360   28.2775 N   0  0  0  0  0  0  0  0  0  0  0  0
    9.0024  -15.0354   27.3033 C   0  0  0  0  0  0  0  0  0  0  0  0
   10.3217  -16.0286   29.0837 O   0  0  0  0  0  0  0  0  0  0  0  0
   11.4948  -16.2147   29.7897 O   0  0  0  0  0  0  0  0  0  0  0  0
  2  1  1  0
  2  3  2  0
  4  5  1  0
  4  2  1  0
  6  5  1  0
  7  8  1  0
  7  6  1  0
  8  9  1  6
  8 10  1  0
 10 11  2  0
 10 16  1  0
 13 12  1  1
 13 14  1  0
 15 17  1  0
 15 13  1  0
 15 16  1  1
 17 18  2  0
 20 19  1  6
 21 20  1  0
 21 17  1  0
 22 20  1  0
 23 22  1  0
 24 22  2  0
M  END
$$$$
