RTA.pdb
     RDKit          3D

 24 23  0  0  1  0  0  0  0  0999 V2000
   12.3705  -20.2821   13.6967 N   0  0  0  0  0  0  0  0  0  0  0  0
   11.8833  -18.9627   13.5247 C   0  0  0  0  0  0  0  0  0  0  0  0
   12.6776  -17.9715   13.5757 N   0  0  0  0  0  0  0  0  0  0  0  0
   10.4996  -18.7588   13.2942 N   0  0  0  0  0  0  0  0  0  0  0  0
    9.7029  -17.8445   14.0682 C   0  0  0  0  0  0  0  0  0  0  0  0
    9.3568  -18.3342   15.4452 C   0  0  0  0  0  0  0  0  0  0  0  0
    9.9680  -17.4808   16.5339 C   0  0  0  0  0  0  0  0  0  0  0  0
    9.2044  -16.1794   16.6133 C   0  0  2  0  0  0  0  0  0  0  0  0
    9.6052  -15.3581   15.4957 N   0  0  0  0  0  0  0  0  0  0  0  0
    9.4590  -15.4616   17.8861 C   0  0  0  0  0  0  0  0  0  0  0  0
   10.4735  -14.7253   17.9688 O   0  0  0  0  0  0  0  0  0  0  0  0
   12.3837  -16.9813   13.6466 C   0  0  0  0  0  0  0  0  0  0  0  0
    7.8513  -12.6996   19.5727 C   0  0  2  0  0  0  0  0  0  0  0  0
    7.8981  -13.8223   20.5847 O   0  0  0  0  0  0  0  0  0  0  0  0
    6.6578  -14.4379   20.6345 C   0  0  2  0  0  0  0  0  0  0  0  0
    8.9512  -14.8410   20.2619 N   0  0  0  0  0  0  0  0  0  0  0  0
    8.6328  -15.5511   19.0172 C   0  0  0  0  0  0  0  0  0  0  0  0
    9.1590  -15.8501   21.3345 O   0  0  0  0  0  0  0  0  0  0  0  0
    8.4650  -16.9293   21.3525 C   0  0  0  0  0  0  0  0  0  0  0  0
   11.3688  -17.5827   23.2520 C   0  0  2  0  0  0  0  0  0  0  0  0
   10.1599  -16.7007   23.4775 N   0  0  0  0  0  0  0  0  0  0  0  0
   10.0890  -15.7295   22.3814 C   0  0  0  0  0  0  0  0  0  0  0  0
   10.2063  -16.0536   24.7851 O   0  0  0  0  0  0  0  0  0  0  0  0
   10.0981  -16.7667   25.9637 O   0  0  0  0  0  0  0  0  0  0  0  0
  2  1  1  0
  2  3  2  0
  4  5  1  0
  4  2  1  0
  6  5  1  0
  7  8  1  0
  7  6  1  0
  8  9  1  6
  8 10  1  0
 10 11  2  0
 10 16  1  0
 13 12  1  1
 13 14  1  0
 15 17  1  0
 15 13  1  0
 15 16  1  1
 17 18  2  0
 20 19  1  6
 21 20  1  0
 21 17  1  0
 22 20  1  0
 23 22  1  0
 24 22  2  0
M  END
$$$$
