RTA.pdb
     RDKit          3D

 24 23  0  0  1  0  0  0  0  0999 V2000
   12.9237  -16.0603   20.4730 N   0  0  0  0  0  0  0  0  0  0  0  0
   13.8097  -15.4404   19.5574 C   0  0  0  0  0  0  0  0  0  0  0  0
   14.8019  -16.0812   19.0876 N   0  0  0  0  0  0  0  0  0  0  0  0
   13.5778  -14.0968   19.1693 N   0  0  0  0  0  0  0  0  0  0  0  0
   12.4056  -13.3599   19.5599 C   0  0  0  0  0  0  0  0  0  0  0  0
   11.1067  -14.0284   19.2115 C   0  0  0  0  0  0  0  0  0  0  0  0
    9.9075  -13.1597   19.5188 C   0  0  0  0  0  0  0  0  0  0  0  0
    8.6533  -13.9284   19.1738 C   0  0  2  0  0  0  0  0  0  0  0  0
    7.7974  -13.0615   18.3991 N   0  0  0  0  0  0  0  0  0  0  0  0
    7.9366  -14.3964   20.3853 C   0  0  0  0  0  0  0  0  0  0  0  0
    7.0955  -13.6314   20.9195 O   0  0  0  0  0  0  0  0  0  0  0  0
   15.4519  -15.7198   18.3672 C   0  0  0  0  0  0  0  0  0  0  0  0
    6.0585  -18.0982   23.0138 C   0  0  1  0  0  0  0  0  0  0  0  0
    6.9607  -17.5818   21.9155 O   0  0  0  0  0  0  0  0  0  0  0  0
    6.3428  -17.7818   20.6916 C   0  0  1  0  0  0  0  0  0  0  0  0
    7.2885  -16.1270   22.0801 N   0  0  0  0  0  0  0  0  0  0  0  0
    8.1377  -15.6511   20.9813 C   0  0  0  0  0  0  0  0  0  0  0  0
    7.9648  -15.8057   23.3651 O   0  0  0  0  0  0  0  0  0  0  0  0
    9.2379  -15.9234   23.4747 C   0  0  0  0  0  0  0  0  0  0  0  0
    7.2541  -13.9303   26.4708 C   0  0  2  0  0  0  0  0  0  0  0  0
    8.0448  -14.9962   25.7434 N   0  0  0  0  0  0  0  0  0  0  0  0
    7.3113  -15.3629   24.5280 C   0  0  0  0  0  0  0  0  0  0  0  0
    8.3028  -16.1492   26.6004 O   0  0  0  0  0  0  0  0  0  0  0  0
    9.3268  -16.1627   27.5281 O   0  0  0  0  0  0  0  0  0  0  0  0
  2  1  1  0
  2  3  2  0
  4  5  1  0
  4  2  1  0
  6  5  1  0
  7  8  1  0
  7  6  1  0
  8  9  1  1
  8 10  1  0
 10 11  2  0
 10 16  1  0
 13 12  1  6
 13 14  1  0
 15 17  1  0
 15 13  1  0
 15 16  1  1
 17 18  2  0
 20 19  1  6
 21 20  1  0
 21 17  1  0
 22 20  1  0
 23 22  1  0
 24 22  2  0
M  END
$$$$
