RTA.pdb
     RDKit          3D

 24 23  0  0  1  0  0  0  0  0999 V2000
    9.7469  -19.7438   12.1712 N   0  0  0  0  0  0  0  0  0  0  0  0
   10.5027  -19.8279   13.3668 C   0  0  0  0  0  0  0  0  0  0  0  0
   10.7213  -20.9552   13.9120 N   0  0  0  0  0  0  0  0  0  0  0  0
   11.0138  -18.6409   13.9492 N   0  0  0  0  0  0  0  0  0  0  0  0
   10.7931  -17.3349   13.3877 C   0  0  0  0  0  0  0  0  0  0  0  0
    9.6911  -16.5542   14.0446 C   0  0  0  0  0  0  0  0  0  0  0  0
    9.9911  -16.2343   15.4919 C   0  0  0  0  0  0  0  0  0  0  0  0
    8.8102  -15.4960   16.0780 C   0  0  2  0  0  0  0  0  0  0  0  0
    8.4003  -14.4865   15.1308 N   0  0  0  0  0  0  0  0  0  0  0  0
    9.1387  -14.8653   17.3797 C   0  0  0  0  0  0  0  0  0  0  0  0
    9.7846  -13.7877   17.3799 O   0  0  0  0  0  0  0  0  0  0  0  0
   11.2194  -21.0913   14.8094 C   0  0  0  0  0  0  0  0  0  0  0  0
    7.2522  -12.9858   19.5837 C   0  0  2  0  0  0  0  0  0  0  0  0
    7.8146  -14.0862   20.4553 O   0  0  0  0  0  0  0  0  0  0  0  0
    6.8528  -15.0704   20.6176 C   0  0  2  0  0  0  0  0  0  0  0  0
    9.0605  -14.6925   19.8799 N   0  0  0  0  0  0  0  0  0  0  0  0
    8.7719  -15.3979   18.6254 C   0  0  0  0  0  0  0  0  0  0  0  0
    9.7478  -15.6381   20.7994 O   0  0  0  0  0  0  0  0  0  0  0  0
   10.3200  -16.6901   20.3382 C   0  0  0  0  0  0  0  0  0  0  0  0
   11.9931  -16.4448   22.6929 C   0  0  2  0  0  0  0  0  0  0  0  0
   10.5215  -16.4582   23.0458 N   0  0  0  0  0  0  0  0  0  0  0  0
    9.8358  -15.4821   22.1934 C   0  0  0  0  0  0  0  0  0  0  0  0
   10.3095  -16.1949   24.4658 O   0  0  0  0  0  0  0  0  0  0  0  0
   10.8252  -17.0143   25.4517 O   0  0  0  0  0  0  0  0  0  0  0  0
  2  1  1  0
  2  3  2  0
  4  5  1  0
  4  2  1  0
  6  5  1  0
  7  8  1  0
  7  6  1  0
  8  9  1  6
  8 10  1  0
 10 11  2  0
 10 16  1  0
 13 12  1  1
 13 14  1  0
 15 17  1  0
 15 13  1  0
 15 16  1  1
 17 18  2  0
 20 19  1  6
 21 20  1  0
 21 17  1  0
 22 20  1  0
 23 22  1  0
 24 22  2  0
M  END
$$$$
