RTA.pdb
     RDKit          3D

 24 23  0  0  1  0  0  0  0  0999 V2000
   11.3801  -14.2580   20.5159 N   0  0  0  0  0  0  0  0  0  0  0  0
   11.3249  -13.8486   19.1606 C   0  0  0  0  0  0  0  0  0  0  0  0
   12.3841  -13.7987   18.4596 N   0  0  0  0  0  0  0  0  0  0  0  0
   10.0748  -13.4953   18.5932 N   0  0  0  0  0  0  0  0  0  0  0  0
    8.8875  -13.2909   19.3794 C   0  0  0  0  0  0  0  0  0  0  0  0
    8.2469  -14.5547   19.8775 C   0  0  0  0  0  0  0  0  0  0  0  0
    9.2585  -15.5494   20.4010 C   0  0  0  0  0  0  0  0  0  0  0  0
    8.5173  -16.7141   21.0151 C   0  0  2  0  0  0  0  0  0  0  0  0
    7.4894  -17.1270   20.0892 N   0  0  0  0  0  0  0  0  0  0  0  0
    7.9098  -16.3607   22.3213 C   0  0  0  0  0  0  0  0  0  0  0  0
    6.6667  -16.4794   22.4582 O   0  0  0  0  0  0  0  0  0  0  0  0
   12.4297  -13.4674   17.4797 C   0  0  0  0  0  0  0  0  0  0  0  0
    6.6681  -17.9191   24.0295 C   0  0  2  0  0  0  0  0  0  0  0  0
    7.6702  -17.4431   25.0572 O   0  0  0  0  0  0  0  0  0  0  0  0
    8.7599  -18.2990   25.0561 C   0  0  2  0  0  0  0  0  0  0  0  0
    8.1342  -16.0400   24.7980 N   0  0  0  0  0  0  0  0  0  0  0  0
    8.6394  -15.8973   23.4272 C   0  0  0  0  0  0  0  0  0  0  0  0
    9.1908  -15.5744   25.7354 O   0  0  0  0  0  0  0  0  0  0  0  0
   10.4104  -15.9374   25.5695 C   0  0  0  0  0  0  0  0  0  0  0  0
    9.6861  -13.0015   28.3630 C   0  0  2  0  0  0  0  0  0  0  0  0
   10.0543  -14.3317   27.7423 N   0  0  0  0  0  0  0  0  0  0  0  0
    8.9710  -14.7328   26.8394 C   0  0  0  0  0  0  0  0  0  0  0  0
   10.3245  -15.3410   28.7616 O   0  0  0  0  0  0  0  0  0  0  0  0
    9.5415  -16.4704   28.9053 O   0  0  0  0  0  0  0  0  0  0  0  0
  2  1  1  0
  2  3  2  0
  4  5  1  0
  4  2  1  0
  6  5  1  0
  7  8  1  0
  7  6  1  0
  8  9  1  6
  8 10  1  0
 10 11  2  0
 10 16  1  0
 13 12  1  1
 13 14  1  0
 15 17  1  0
 15 13  1  0
 15 16  1  1
 17 18  2  0
 20 19  1  6
 21 20  1  0
 21 17  1  0
 22 20  1  0
 23 22  1  0
 24 22  2  0
M  END
$$$$
