RTA.pdb
     RDKit          3D

 24 23  0  0  1  0  0  0  0  0999 V2000
    5.8059  -20.4634   15.1161 N   0  0  0  0  0  0  0  0  0  0  0  0
    6.5731  -20.4575   13.9248 C   0  0  0  0  0  0  0  0  0  0  0  0
    6.0391  -20.7685   12.8139 N   0  0  0  0  0  0  0  0  0  0  0  0
    7.9435  -20.0999   13.9841 N   0  0  0  0  0  0  0  0  0  0  0  0
    8.4085  -18.8753   14.5789 C   0  0  0  0  0  0  0  0  0  0  0  0
    7.4216  -18.2185   15.5009 C   0  0  0  0  0  0  0  0  0  0  0  0
    8.0549  -17.7599   16.7954 C   0  0  0  0  0  0  0  0  0  0  0  0
    7.8100  -16.2773   16.9540 C   0  0  2  0  0  0  0  0  0  0  0  0
    8.1957  -15.6272   15.7241 N   0  0  0  0  0  0  0  0  0  0  0  0
    8.5736  -15.7056   18.0899 C   0  0  0  0  0  0  0  0  0  0  0  0
    9.7067  -15.2119   17.8650 O   0  0  0  0  0  0  0  0  0  0  0  0
    6.5538  -20.8885   11.9235 C   0  0  0  0  0  0  0  0  0  0  0  0
    7.6287  -12.8108   20.0953 C   0  0  2  0  0  0  0  0  0  0  0  0
    7.9901  -13.8956   21.0848 O   0  0  0  0  0  0  0  0  0  0  0  0
    6.8262  -14.4552   21.5871 C   0  0  2  0  0  0  0  0  0  0  0  0
    8.8394  -14.9701   20.4723 N   0  0  0  0  0  0  0  0  0  0  0  0
    8.1095  -15.6791   19.4143 C   0  0  0  0  0  0  0  0  0  0  0  0
    9.3349  -15.9745   21.4508 O   0  0  0  0  0  0  0  0  0  0  0  0
    8.9948  -17.2071   21.3429 C   0  0  0  0  0  0  0  0  0  0  0  0
   11.3821  -17.7836   22.6057 C   0  0  2  0  0  0  0  0  0  0  0  0
   10.6743  -16.7356   23.4369 N   0  0  0  0  0  0  0  0  0  0  0  0
   10.1824  -15.6894   22.5351 C   0  0  0  0  0  0  0  0  0  0  0  0
   11.5458  -16.2005   24.4784 O   0  0  0  0  0  0  0  0  0  0  0  0
   12.0377  -16.9867   25.5027 O   0  0  0  0  0  0  0  0  0  0  0  0
  2  1  1  0
  2  3  2  0
  4  5  1  0
  4  2  1  0
  6  5  1  0
  7  8  1  0
  7  6  1  0
  8  9  1  6
  8 10  1  0
 10 11  2  0
 10 16  1  0
 13 12  1  1
 13 14  1  0
 15 17  1  0
 15 13  1  0
 15 16  1  1
 17 18  2  0
 20 19  1  6
 21 20  1  0
 21 17  1  0
 22 20  1  0
 23 22  1  0
 24 22  2  0
M  END
$$$$
