RTA.pdb
     RDKit          3D

 24 23  0  0  1  0  0  0  0  0999 V2000
    8.5653  -12.2198   17.9508 N   0  0  0  0  0  0  0  0  0  0  0  0
    8.2999  -13.5701   17.6131 C   0  0  0  0  0  0  0  0  0  0  0  0
    8.1673  -13.9153   16.3970 N   0  0  0  0  0  0  0  0  0  0  0  0
    8.1844  -14.5336   18.6465 N   0  0  0  0  0  0  0  0  0  0  0  0
    8.4856  -14.2454   20.0234 C   0  0  0  0  0  0  0  0  0  0  0  0
    7.3326  -13.6888   20.8084 C   0  0  0  0  0  0  0  0  0  0  0  0
    6.3601  -14.7604   21.2478 C   0  0  0  0  0  0  0  0  0  0  0  0
    7.1449  -15.9285   21.7980 C   0  0  2  0  0  0  0  0  0  0  0  0
    6.6261  -17.1359   21.2003 N   0  0  0  0  0  0  0  0  0  0  0  0
    7.0519  -16.0147   23.2758 C   0  0  0  0  0  0  0  0  0  0  0  0
    5.9394  -15.8076   23.8214 O   0  0  0  0  0  0  0  0  0  0  0  0
    8.1201  -14.8939   16.0618 C   0  0  0  0  0  0  0  0  0  0  0  0
    6.7576  -18.7548   25.0169 C   0  0  2  0  0  0  0  0  0  0  0  0
    7.8870  -18.0949   25.7757 O   0  0  0  0  0  0  0  0  0  0  0  0
    9.0866  -18.6741   25.3946 C   0  0  2  0  0  0  0  0  0  0  0  0
    7.9476  -16.6144   25.5397 N   0  0  0  0  0  0  0  0  0  0  0  0
    8.1360  -16.3156   24.1149 C   0  0  0  0  0  0  0  0  0  0  0  0
    9.0213  -15.9278   26.3063 O   0  0  0  0  0  0  0  0  0  0  0  0
   10.2275  -15.9208   25.8682 C   0  0  0  0  0  0  0  0  0  0  0  0
    9.3866  -13.5034   29.0942 C   0  0  2  0  0  0  0  0  0  0  0  0
    9.9432  -14.6309   28.2520 N   0  0  0  0  0  0  0  0  0  0  0  0
    8.8324  -15.2520   27.5240 C   0  0  0  0  0  0  0  0  0  0  0  0
   10.6763  -15.5953   29.0663 O   0  0  0  0  0  0  0  0  0  0  0  0
   11.8956  -15.2958   29.6433 O   0  0  0  0  0  0  0  0  0  0  0  0
  2  1  1  0
  2  3  2  0
  4  5  1  0
  4  2  1  0
  6  5  1  0
  7  8  1  0
  7  6  1  0
  8  9  1  6
  8 10  1  0
 10 11  2  0
 10 16  1  0
 13 12  1  1
 13 14  1  0
 15 17  1  0
 15 13  1  0
 15 16  1  1
 17 18  2  0
 20 19  1  6
 21 20  1  0
 21 17  1  0
 22 20  1  0
 23 22  1  0
 24 22  2  0
M  END
$$$$
