RTA.pdb
     RDKit          3D

 24 23  0  0  1  0  0  0  0  0999 V2000
   13.3193  -21.4625   18.2974 N   0  0  0  0  0  0  0  0  0  0  0  0
   12.9055  -21.5800   19.6474 C   0  0  0  0  0  0  0  0  0  0  0  0
   13.7660  -21.6585   20.5798 N   0  0  0  0  0  0  0  0  0  0  0  0
   11.5206  -21.6083   19.9484 N   0  0  0  0  0  0  0  0  0  0  0  0
   10.7640  -20.4270   20.2674 C   0  0  0  0  0  0  0  0  0  0  0  0
   11.3094  -19.6320   21.4189 C   0  0  0  0  0  0  0  0  0  0  0  0
   10.3621  -18.5432   21.8712 C   0  0  0  0  0  0  0  0  0  0  0  0
    9.9294  -17.7468   20.6623 C   0  0  2  0  0  0  0  0  0  0  0  0
   10.9520  -17.8786   19.6517 N   0  0  0  0  0  0  0  0  0  0  0  0
    9.7189  -16.3146   20.9857 C   0  0  0  0  0  0  0  0  0  0  0  0
   10.7239  -15.5938   21.2062 O   0  0  0  0  0  0  0  0  0  0  0  0
   13.5409  -21.7189   21.5886 C   0  0  0  0  0  0  0  0  0  0  0  0
    7.3040  -12.0971   20.7560 C   0  0  2  0  0  0  0  0  0  0  0  0
    7.4041  -13.5779   20.4661 O   0  0  0  0  0  0  0  0  0  0  0  0
    7.8730  -13.7549   19.1743 C   0  0  1  0  0  0  0  0  0  0  0  0
    8.3070  -14.2905   21.4295 N   0  0  0  0  0  0  0  0  0  0  0  0
    8.4575  -15.7039   21.0628 C   0  0  0  0  0  0  0  0  0  0  0  0
    7.8506  -14.2213   22.8432 O   0  0  0  0  0  0  0  0  0  0  0  0
    6.9570  -15.0341   23.2764 C   0  0  0  0  0  0  0  0  0  0  0  0
    6.3232  -12.9936   25.1062 C   0  0  1  0  0  0  0  0  0  0  0  0
    7.8102  -13.2683   25.1687 N   0  0  0  0  0  0  0  0  0  0  0  0
    8.3282  -13.3068   23.7977 C   0  0  0  0  0  0  0  0  0  0  0  0
    8.0966  -14.4982   25.9009 O   0  0  0  0  0  0  0  0  0  0  0  0
    7.9107  -14.6026   27.2661 O   0  0  0  0  0  0  0  0  0  0  0  0
  2  1  1  0
  2  3  2  0
  4  5  1  0
  4  2  1  0
  6  5  1  0
  7  8  1  0
  7  6  1  0
  8  9  1  6
  8 10  1  0
 10 11  2  0
 10 16  1  0
 13 12  1  6
 13 14  1  0
 15 17  1  0
 15 13  1  0
 15 16  1  6
 17 18  2  0
 20 19  1  1
 21 20  1  0
 21 17  1  0
 22 20  1  0
 23 22  1  0
 24 22  2  0
M  END
$$$$
