RTA.pdb
     RDKit          3D

 24 23  0  0  1  0  0  0  0  0999 V2000
   10.9101  -19.8132   12.4360 N   0  0  0  0  0  0  0  0  0  0  0  0
   11.6449  -19.7529   13.6460 C   0  0  0  0  0  0  0  0  0  0  0  0
   12.9145  -19.6940   13.6257 N   0  0  0  0  0  0  0  0  0  0  0  0
   10.9491  -19.7582   14.8810 N   0  0  0  0  0  0  0  0  0  0  0  0
    9.5401  -20.0295   14.9851 C   0  0  0  0  0  0  0  0  0  0  0  0
    8.7175  -18.8682   15.4650 C   0  0  0  0  0  0  0  0  0  0  0  0
    9.1077  -18.4171   16.8547 C   0  0  0  0  0  0  0  0  0  0  0  0
    8.2030  -17.2783   17.2644 C   0  0  2  0  0  0  0  0  0  0  0  0
    7.9508  -16.4667   16.0975 N   0  0  0  0  0  0  0  0  0  0  0  0
    8.8036  -16.4491   18.3377 C   0  0  0  0  0  0  0  0  0  0  0  0
    9.9941  -16.0693   18.2092 O   0  0  0  0  0  0  0  0  0  0  0  0
   13.5214  -19.7253   14.4641 C   0  0  0  0  0  0  0  0  0  0  0  0
    7.3098  -13.2196   19.7972 C   0  0  2  0  0  0  0  0  0  0  0  0
    7.7658  -14.1061   20.9343 O   0  0  0  0  0  0  0  0  0  0  0  0
    6.6589  -14.7111   21.5076 C   0  0  2  0  0  0  0  0  0  0  0  0
    8.7369  -15.1584   20.4864 N   0  0  0  0  0  0  0  0  0  0  0  0
    8.1229  -16.0561   19.5005 C   0  0  0  0  0  0  0  0  0  0  0  0
    9.2796  -15.9859   21.5965 O   0  0  0  0  0  0  0  0  0  0  0  0
    8.7852  -17.1441   21.8432 C   0  0  0  0  0  0  0  0  0  0  0  0
   12.3107  -16.2267   23.6816 C   0  0  2  0  0  0  0  0  0  0  0  0
   10.8259  -16.4694   23.5183 N   0  0  0  0  0  0  0  0  0  0  0  0
   10.3345  -15.6028   22.4426 C   0  0  0  0  0  0  0  0  0  0  0  0
   10.1077  -16.2545   24.7708 O   0  0  0  0  0  0  0  0  0  0  0  0
   10.2834  -17.0730   25.8701 O   0  0  0  0  0  0  0  0  0  0  0  0
  2  1  1  0
  2  3  2  0
  4  5  1  0
  4  2  1  0
  6  5  1  0
  7  8  1  0
  7  6  1  0
  8  9  1  6
  8 10  1  0
 10 11  2  0
 10 16  1  0
 13 12  1  1
 13 14  1  0
 15 17  1  0
 15 13  1  0
 15 16  1  1
 17 18  2  0
 20 19  1  6
 21 20  1  0
 21 17  1  0
 22 20  1  0
 23 22  1  0
 24 22  2  0
M  END
$$$$
