RTA.pdb
     RDKit          3D

 24 23  0  0  1  0  0  0  0  0999 V2000
    7.5681  -13.7804   15.2576 N   0  0  0  0  0  0  0  0  0  0  0  0
    8.2477  -13.6995   16.4983 C   0  0  0  0  0  0  0  0  0  0  0  0
    9.4215  -14.1717   16.6212 N   0  0  0  0  0  0  0  0  0  0  0  0
    7.6050  -13.0852   17.6023 N   0  0  0  0  0  0  0  0  0  0  0  0
    8.1875  -13.0306   18.9166 C   0  0  0  0  0  0  0  0  0  0  0  0
    8.4535  -14.3733   19.5347 C   0  0  0  0  0  0  0  0  0  0  0  0
    7.4816  -14.7023   20.6456 C   0  0  0  0  0  0  0  0  0  0  0  0
    7.8259  -16.0649   21.2005 C   0  0  2  0  0  0  0  0  0  0  0  0
    7.1182  -17.0549   20.4237 N   0  0  0  0  0  0  0  0  0  0  0  0
    7.4621  -16.1905   22.6330 C   0  0  0  0  0  0  0  0  0  0  0  0
    6.3051  -16.5814   22.9275 O   0  0  0  0  0  0  0  0  0  0  0  0
    9.9336  -14.2573   17.5169 C   0  0  0  0  0  0  0  0  0  0  0  0
    6.5426  -18.0958   24.3969 C   0  0  2  0  0  0  0  0  0  0  0  0
    7.6432  -17.6015   25.3085 O   0  0  0  0  0  0  0  0  0  0  0  0
    8.7820  -18.3616   25.0955 C   0  0  2  0  0  0  0  0  0  0  0  0
    7.9600  -16.1513   25.0902 N   0  0  0  0  0  0  0  0  0  0  0  0
    8.3340  -15.8986   23.6934 C   0  0  0  0  0  0  0  0  0  0  0  0
    9.0469  -15.6360   25.9647 O   0  0  0  0  0  0  0  0  0  0  0  0
   10.2765  -15.8388   25.6583 C   0  0  0  0  0  0  0  0  0  0  0  0
    9.5487  -13.1568   28.6549 C   0  0  2  0  0  0  0  0  0  0  0  0
    9.9644  -14.4456   27.9794 N   0  0  0  0  0  0  0  0  0  0  0  0
    8.8470  -14.9119   27.1526 C   0  0  0  0  0  0  0  0  0  0  0  0
   10.3854  -15.4482   28.9532 O   0  0  0  0  0  0  0  0  0  0  0  0
   11.5691  -15.3390   29.6576 O   0  0  0  0  0  0  0  0  0  0  0  0
  2  1  1  0
  2  3  2  0
  4  5  1  0
  4  2  1  0
  6  5  1  0
  7  8  1  0
  7  6  1  0
  8  9  1  6
  8 10  1  0
 10 11  2  0
 10 16  1  0
 13 12  1  1
 13 14  1  0
 15 17  1  0
 15 13  1  0
 15 16  1  1
 17 18  2  0
 20 19  1  6
 21 20  1  0
 21 17  1  0
 22 20  1  0
 23 22  1  0
 24 22  2  0
M  END
$$$$
