RTA.pdb
     RDKit          3D

 24 23  0  0  1  0  0  0  0  0999 V2000
    4.3673  -24.1875   19.6851 N   0  0  0  0  0  0  0  0  0  0  0  0
    4.6022  -24.7663   18.4133 C   0  0  0  0  0  0  0  0  0  0  0  0
    3.6311  -25.1816   17.7059 N   0  0  0  0  0  0  0  0  0  0  0  0
    5.9326  -24.8771   17.9367 N   0  0  0  0  0  0  0  0  0  0  0  0
    7.0689  -24.3753   18.6624 C   0  0  0  0  0  0  0  0  0  0  0  0
    7.2225  -22.8819   18.6211 C   0  0  0  0  0  0  0  0  0  0  0  0
    8.4913  -22.4113   19.2961 C   0  0  0  0  0  0  0  0  0  0  0  0
    8.5370  -20.9021   19.2398 C   0  0  2  0  0  0  0  0  0  0  0  0
    8.6570  -20.5106   17.8554 N   0  0  0  0  0  0  0  0  0  0  0  0
    9.6699  -20.3501   20.0221 C   0  0  0  0  0  0  0  0  0  0  0  0
   10.8010  -20.2861   19.4791 O   0  0  0  0  0  0  0  0  0  0  0  0
    3.7264  -25.7549   16.8490 C   0  0  0  0  0  0  0  0  0  0  0  0
   10.8412  -17.2197   20.9137 C   0  0  2  0  0  0  0  0  0  0  0  0
   10.7210  -17.9315   22.2425 O   0  0  0  0  0  0  0  0  0  0  0  0
    9.5464  -17.5364   22.8622 C   0  0  2  0  0  0  0  0  0  0  0  0
   10.7331  -19.4246   22.0958 N   0  0  0  0  0  0  0  0  0  0  0  0
    9.5614  -19.8892   21.3433 C   0  0  0  0  0  0  0  0  0  0  0  0
   10.7754  -20.1546   23.3908 O   0  0  0  0  0  0  0  0  0  0  0  0
    9.6938  -20.3800   24.0435 C   0  0  0  0  0  0  0  0  0  0  0  0
   13.2252  -22.1338   25.4034 C   0  0  2  0  0  0  0  0  0  0  0  0
   11.9121  -21.3956   25.2578 N   0  0  0  0  0  0  0  0  0  0  0  0
   11.9437  -20.6463   23.9979 C   0  0  0  0  0  0  0  0  0  0  0  0
   11.6535  -20.5324   26.4061 O   0  0  0  0  0  0  0  0  0  0  0  0
   11.6497  -19.1543   26.3053 O   0  0  0  0  0  0  0  0  0  0  0  0
  2  1  1  0
  2  3  2  0
  4  5  1  0
  4  2  1  0
  6  5  1  0
  7  8  1  0
  7  6  1  0
  8  9  1  6
  8 10  1  0
 10 11  2  0
 10 16  1  0
 13 12  1  1
 13 14  1  0
 15 17  1  0
 15 13  1  0
 15 16  1  1
 17 18  2  0
 20 19  1  6
 21 20  1  0
 21 17  1  0
 22 20  1  0
 23 22  1  0
 24 22  2  0
M  END
$$$$
