DIE.pdb
     RDKit          3D

 26 25  0  0  1  0  0  0  0  0999 V2000
   27.6413  -22.3984  -15.9600 N   0  0  0  0  0  0  0  0  0  0  0  0
   27.2149  -21.2054  -15.3088 C   0  0  1  0  0  0  0  0  0  0  0  0
   26.6464  -20.2369  -16.3312 C   0  0  0  0  0  0  0  0  0  0  0  0
   27.6719  -19.6121  -17.1583 C   0  0  0  0  0  0  0  0  0  0  0  0
   27.7221  -18.3780  -17.3244 O   0  0  0  0  0  0  0  0  0  0  0  0
   26.1552  -21.3936  -14.2928 C   0  0  0  0  0  0  0  0  0  0  0  0
   25.2762  -22.2733  -14.5634 O   0  0  0  0  0  0  0  0  0  0  0  0
   28.6184  -20.4061  -17.7786 O   0  0  0  0  0  0  0  0  0  0  0  0
   27.0660  -20.8770   -8.9682 C   0  0  0  0  0  0  0  0  0  0  0  0
   26.5565  -21.4029  -10.3146 C   0  0  0  0  0  0  0  0  0  0  0  0
   25.3363  -20.6489  -10.7298 C   0  0  2  0  0  0  0  0  0  0  0  0
   24.2361  -20.8908   -9.7300 C   0  0  0  0  0  0  0  0  0  0  0  0
   24.9476  -20.9417  -12.1359 C   0  0  2  0  0  0  0  0  0  0  0  0
   26.0459  -20.6853  -13.0681 N   0  0  0  0  0  0  0  0  0  0  0  0
   23.7497  -20.1820  -12.6125 C   0  0  0  0  0  0  0  0  0  0  0  0
   23.7347  -18.9428  -12.7657 O   0  0  0  0  0  0  0  0  0  0  0  0
   22.5445  -20.8647  -12.9199 N   0  0  0  0  0  0  0  0  0  0  0  0
   21.3362  -20.1894  -13.4119 C   0  0  1  0  0  0  0  0  0  0  0  0
   20.9623  -20.6998  -14.7672 C   0  0  0  0  0  0  0  0  0  0  0  0
   19.6526  -20.1124  -15.2253 C   0  0  0  0  0  0  0  0  0  0  0  0
   19.2833  -20.6903  -16.5744 C   0  0  0  0  0  0  0  0  0  0  0  0
   19.9799  -21.5668  -17.1300 O   0  0  0  0  0  0  0  0  0  0  0  0
   20.3049  -20.3231  -12.3717 C   0  0  0  0  0  0  0  0  0  0  0  0
   20.3213  -21.3884  -11.4439 O   0  0  0  0  0  0  0  0  0  0  0  0
   18.1498  -20.2344  -17.1999 O   0  0  0  0  0  0  0  0  0  0  0  0
   19.3565  -19.5219  -12.2332 O   0  0  0  0  0  0  0  0  0  0  0  0
  2  1  1  6
  2  3  1  0
  3  4  1  0
  4  8  1  0
  5  4  2  0
  6  7  2  0
  6  2  1  0
  9 10  1  0
 10 11  1  0
 11 13  1  0
 11 12  1  1
 13 14  1  6
 14  6  1  0
 15 13  1  0
 16 15  2  0
 17 15  1  0
 18 17  1  0
 18 19  1  6
 20 19  1  0
 20 21  1  0
 21 22  2  0
 23 24  1  0
 23 18  1  0
 25 21  1  0
 26 23  2  0
M  END
$$$$
