DIE.pdb
     RDKit          3D

 26 25  0  0  1  0  0  0  0  0999 V2000
   18.0297  -14.2236  -15.1388 N   0  0  0  0  0  0  0  0  0  0  0  0
   18.4082  -13.4918  -16.3010 C   0  0  1  0  0  0  0  0  0  0  0  0
   17.9333  -14.2218  -17.5452 C   0  0  0  0  0  0  0  0  0  0  0  0
   18.2001  -15.6547  -17.5038 C   0  0  0  0  0  0  0  0  0  0  0  0
   18.7796  -16.1889  -16.5383 O   0  0  0  0  0  0  0  0  0  0  0  0
   17.8442  -12.1263  -16.3897 C   0  0  0  0  0  0  0  0  0  0  0  0
   17.8770  -11.5854  -17.5412 O   0  0  0  0  0  0  0  0  0  0  0  0
   17.8009  -16.4488  -18.5626 O   0  0  0  0  0  0  0  0  0  0  0  0
   14.0820   -8.3024  -16.7366 C   0  0  0  0  0  0  0  0  0  0  0  0
   14.7300   -8.6177  -15.3840 C   0  0  0  0  0  0  0  0  0  0  0  0
   15.2657  -10.0116  -15.3860 C   0  0  2  0  0  0  0  0  0  0  0  0
   14.7404  -10.7497  -14.1827 C   0  0  0  0  0  0  0  0  0  0  0  0
   16.7480  -10.0424  -15.5118 C   0  0  2  0  0  0  0  0  0  0  0  0
   17.2823  -11.3902  -15.3144 N   0  0  0  0  0  0  0  0  0  0  0  0
   17.4628   -9.1199  -14.5753 C   0  0  0  0  0  0  0  0  0  0  0  0
   17.7448   -9.4167  -13.3957 O   0  0  0  0  0  0  0  0  0  0  0  0
   17.8619   -7.8287  -15.0077 N   0  0  0  0  0  0  0  0  0  0  0  0
   18.6494   -6.9065  -14.1786 C   0  0  1  0  0  0  0  0  0  0  0  0
   19.9627   -6.6052  -14.8279 C   0  0  0  0  0  0  0  0  0  0  0  0
   20.7588   -5.6216  -14.0099 C   0  0  0  0  0  0  0  0  0  0  0  0
   22.0167   -5.2408  -14.7602 C   0  0  0  0  0  0  0  0  0  0  0  0
   22.3296   -4.0475  -14.9614 O   0  0  0  0  0  0  0  0  0  0  0  0
   17.7983   -5.7427  -13.8879 C   0  0  0  0  0  0  0  0  0  0  0  0
   17.9666   -4.9759  -12.7133 O   0  0  0  0  0  0  0  0  0  0  0  0
   22.8327   -6.2393  -15.2303 O   0  0  0  0  0  0  0  0  0  0  0  0
   16.8816   -5.3527  -14.6416 O   0  0  0  0  0  0  0  0  0  0  0  0
  2  1  1  1
  2  3  1  0
  3  4  1  0
  4  8  1  0
  5  4  2  0
  6  7  2  0
  6  2  1  0
  9 10  1  0
 10 11  1  0
 11 13  1  0
 11 12  1  1
 13 14  1  1
 14  6  1  0
 15 13  1  0
 16 15  2  0
 17 15  1  0
 18 17  1  0
 18 19  1  6
 20 19  1  0
 20 21  1  0
 21 22  2  0
 23 24  1  0
 23 18  1  0
 25 21  1  0
 26 23  2  0
M  END
$$$$
