DIE.pdb
     RDKit          3D

 26 25  0  0  1  0  0  0  0  0999 V2000
   18.9005  -12.6847  -17.6889 N   0  0  0  0  0  0  0  0  0  0  0  0
   19.4462  -11.4060  -18.0001 C   0  0  1  0  0  0  0  0  0  0  0  0
   18.3284  -10.4462  -18.3684 C   0  0  0  0  0  0  0  0  0  0  0  0
   17.7627  -10.7067  -19.6868 C   0  0  0  0  0  0  0  0  0  0  0  0
   18.1334  -11.6714  -20.3834 O   0  0  0  0  0  0  0  0  0  0  0  0
   20.1907  -10.7599  -16.8961 C   0  0  0  0  0  0  0  0  0  0  0  0
   19.5453  -10.5969  -15.8115 O   0  0  0  0  0  0  0  0  0  0  0  0
   16.7869   -9.8631  -20.1839 O   0  0  0  0  0  0  0  0  0  0  0  0
   25.0169  -12.1370  -15.2411 C   0  0  0  0  0  0  0  0  0  0  0  0
   23.5696  -11.6408  -15.3315 C   0  0  0  0  0  0  0  0  0  0  0  0
   23.5481  -10.1669  -15.5704 C   0  0  2  0  0  0  0  0  0  0  0  0
   24.2695   -9.4690  -14.4475 C   0  0  0  0  0  0  0  0  0  0  0  0
   22.1707   -9.6577  -15.8100 C   0  0  2  0  0  0  0  0  0  0  0  0
   21.5381  -10.3182  -16.9522 N   0  0  0  0  0  0  0  0  0  0  0  0
   22.0922   -8.1795  -16.0289 C   0  0  0  0  0  0  0  0  0  0  0  0
   22.6708   -7.5889  -16.9647 O   0  0  0  0  0  0  0  0  0  0  0  0
   21.3301   -7.3652  -15.1518 N   0  0  0  0  0  0  0  0  0  0  0  0
   21.1879   -5.9125  -15.3169 C   0  0  1  0  0  0  0  0  0  0  0  0
   19.7436   -5.5265  -15.3639 C   0  0  0  0  0  0  0  0  0  0  0  0
   19.5820   -4.0285  -15.3451 C   0  0  0  0  0  0  0  0  0  0  0  0
   18.1101   -3.6781  -15.3780 C   0  0  0  0  0  0  0  0  0  0  0  0
   17.2236   -4.5571  -15.4405 O   0  0  0  0  0  0  0  0  0  0  0  0
   21.9868   -5.2709  -14.2617 C   0  0  0  0  0  0  0  0  0  0  0  0
   22.2736   -5.9293  -13.0450 O   0  0  0  0  0  0  0  0  0  0  0  0
   17.7453   -2.3556  -15.3379 O   0  0  0  0  0  0  0  0  0  0  0  0
   22.4620   -4.1197  -14.3594 O   0  0  0  0  0  0  0  0  0  0  0  0
  2  1  1  1
  2  3  1  0
  3  4  1  0
  4  8  1  0
  5  4  2  0
  6  7  2  0
  6  2  1  0
  9 10  1  0
 10 11  1  0
 11 13  1  0
 11 12  1  1
 13 14  1  6
 14  6  1  0
 15 13  1  0
 16 15  2  0
 17 15  1  0
 18 17  1  0
 18 19  1  1
 20 19  1  0
 20 21  1  0
 21 22  2  0
 23 24  1  0
 23 18  1  0
 25 21  1  0
 26 23  2  0
M  END
$$$$
