DIE.pdb
     RDKit          3D

 26 25  0  0  1  0  0  0  0  0999 V2000
   27.7725  -23.9678  -17.1452 N   0  0  0  0  0  0  0  0  0  0  0  0
   27.2608  -22.6561  -16.9282 C   0  0  1  0  0  0  0  0  0  0  0  0
   26.2783  -22.2991  -18.0299 C   0  0  0  0  0  0  0  0  0  0  0  0
   26.9051  -22.1927  -19.3421 C   0  0  0  0  0  0  0  0  0  0  0  0
   26.3504  -22.6197  -20.3733 O   0  0  0  0  0  0  0  0  0  0  0  0
   26.5285  -22.4747  -15.6549 C   0  0  0  0  0  0  0  0  0  0  0  0
   25.7417  -23.4197  -15.3271 O   0  0  0  0  0  0  0  0  0  0  0  0
   28.1502  -21.6021  -19.4521 O   0  0  0  0  0  0  0  0  0  0  0  0
   29.1522  -20.6923  -11.4800 C   0  0  0  0  0  0  0  0  0  0  0  0
   28.1838  -21.4722  -12.3761 C   0  0  0  0  0  0  0  0  0  0  0  0
   26.8623  -20.7785  -12.4267 C   0  0  2  0  0  0  0  0  0  0  0  0
   26.2464  -20.7776  -11.0523 C   0  0  0  0  0  0  0  0  0  0  0  0
   25.9762  -21.3366  -13.4837 C   0  0  2  0  0  0  0  0  0  0  0  0
   26.6336  -21.3540  -14.7907 N   0  0  0  0  0  0  0  0  0  0  0  0
   24.6711  -20.6197  -13.6320 C   0  0  0  0  0  0  0  0  0  0  0  0
   24.5747  -19.4325  -14.0068 O   0  0  0  0  0  0  0  0  0  0  0  0
   23.4517  -21.2853  -13.3436 N   0  0  0  0  0  0  0  0  0  0  0  0
   22.1363  -20.6379  -13.4357 C   0  0  1  0  0  0  0  0  0  0  0  0
   21.3957  -21.1190  -14.6429 C   0  0  0  0  0  0  0  0  0  0  0  0
   21.1311  -22.6001  -14.5618 C   0  0  0  0  0  0  0  0  0  0  0  0
   20.3637  -23.0447  -15.7882 C   0  0  0  0  0  0  0  0  0  0  0  0
   20.8792  -23.7777  -16.6595 O   0  0  0  0  0  0  0  0  0  0  0  0
   21.4571  -20.8396  -12.1468 C   0  0  0  0  0  0  0  0  0  0  0  0
   20.2534  -20.1710  -11.8303 O   0  0  0  0  0  0  0  0  0  0  0  0
   19.0652  -22.6274  -15.9415 O   0  0  0  0  0  0  0  0  0  0  0  0
   21.8843  -21.6010  -11.2534 O   0  0  0  0  0  0  0  0  0  0  0  0
  2  1  1  6
  2  3  1  0
  3  4  1  0
  4  8  1  0
  5  4  2  0
  6  7  2  0
  6  2  1  0
  9 10  1  0
 10 11  1  0
 11 13  1  0
 11 12  1  1
 13 14  1  6
 14  6  1  0
 15 13  1  0
 16 15  2  0
 17 15  1  0
 18 17  1  0
 18 19  1  6
 20 19  1  0
 20 21  1  0
 21 22  2  0
 23 24  1  0
 23 18  1  0
 25 21  1  0
 26 23  2  0
M  END
$$$$
