DIE.pdb
     RDKit          3D

 26 25  0  0  1  0  0  0  0  0999 V2000
   18.5224  -12.4768  -17.3635 N   0  0  0  0  0  0  0  0  0  0  0  0
   19.3487  -11.4555  -17.9144 C   0  0  1  0  0  0  0  0  0  0  0  0
   18.4855  -10.4060  -18.5924 C   0  0  0  0  0  0  0  0  0  0  0  0
   17.7355  -10.9296  -19.7280 C   0  0  0  0  0  0  0  0  0  0  0  0
   16.4993  -10.7983  -19.8175 O   0  0  0  0  0  0  0  0  0  0  0  0
   20.1791  -10.7260  -16.9301 C   0  0  0  0  0  0  0  0  0  0  0  0
   19.6121  -10.4427  -15.8265 O   0  0  0  0  0  0  0  0  0  0  0  0
   18.4092  -11.5914  -20.7375 O   0  0  0  0  0  0  0  0  0  0  0  0
   25.1119  -12.2647  -15.7563 C   0  0  0  0  0  0  0  0  0  0  0  0
   23.6779  -11.7267  -15.7010 C   0  0  0  0  0  0  0  0  0  0  0  0
   23.6740  -10.2543  -15.9503 C   0  0  2  0  0  0  0  0  0  0  0  0
   24.5386   -9.5721  -14.9230 C   0  0  0  0  0  0  0  0  0  0  0  0
   22.2943   -9.7041  -16.0377 C   0  0  2  0  0  0  0  0  0  0  0  0
   21.5280  -10.3272  -17.1173 N   0  0  0  0  0  0  0  0  0  0  0  0
   22.2358   -8.2207  -16.2258 C   0  0  0  0  0  0  0  0  0  0  0  0
   22.5554   -7.6467  -17.2877 O   0  0  0  0  0  0  0  0  0  0  0  0
   21.7991   -7.3815  -15.1683 N   0  0  0  0  0  0  0  0  0  0  0  0
   21.7194   -5.9188  -15.2778 C   0  0  1  0  0  0  0  0  0  0  0  0
   20.3291   -5.4916  -15.6267 C   0  0  0  0  0  0  0  0  0  0  0  0
   20.2376   -3.9927  -15.7507 C   0  0  0  0  0  0  0  0  0  0  0  0
   18.8096   -3.5968  -16.0579 C   0  0  0  0  0  0  0  0  0  0  0  0
   18.2800   -2.5869  -15.5461 O   0  0  0  0  0  0  0  0  0  0  0  0
   22.2680   -5.3555  -14.0348 C   0  0  0  0  0  0  0  0  0  0  0  0
   22.8346   -4.0619  -13.9937 O   0  0  0  0  0  0  0  0  0  0  0  0
   18.0810   -4.3733  -16.9240 O   0  0  0  0  0  0  0  0  0  0  0  0
   22.2745   -5.9655  -12.9446 O   0  0  0  0  0  0  0  0  0  0  0  0
  2  1  1  1
  2  3  1  0
  3  4  1  0
  4  8  1  0
  5  4  2  0
  6  7  2  0
  6  2  1  0
  9 10  1  0
 10 11  1  0
 11 13  1  0
 11 12  1  1
 13 14  1  6
 14  6  1  0
 15 13  1  0
 16 15  2  0
 17 15  1  0
 18 17  1  0
 18 19  1  1
 20 19  1  0
 20 21  1  0
 21 22  2  0
 23 24  1  0
 23 18  1  0
 25 21  1  0
 26 23  2  0
M  END
$$$$
