VHY.pdb
     RDKit          3D

 30 31  0  0  1  0  0  0  0  0999 V2000
    8.6662  -12.8823   21.1950 C   0  0  0  0  0  0  0  0  0  0  0  0
    7.6798  -13.4707   20.2237 C   0  0  1  0  0  0  0  0  0  0  0  0
    7.0885  -12.3320   19.4235 C   0  0  0  0  0  0  0  0  0  0  0  0
    8.3701  -14.4558   19.3119 C   0  0  2  0  0  0  0  0  0  0  0  0
    7.3820  -14.9618   18.3273 N   0  0  0  0  0  0  0  0  0  0  0  0
    8.8325  -15.6066   20.1155 C   0  0  0  0  0  0  0  0  0  0  0  0
    7.9660  -16.4106   20.5709 O   0  0  0  0  0  0  0  0  0  0  0  0
   10.1750  -15.9105   20.4310 N   0  0  0  0  0  0  0  0  0  0  0  0
   10.4925  -17.0296   21.3263 C   0  0  1  0  0  0  0  0  0  0  0  0
   11.6495  -17.7191   20.6147 C   0  0  0  0  0  0  0  0  0  0  0  0
   11.2608  -18.6432   19.5591 C   0  0  0  0  0  0  0  0  0  0  0  0
    9.9831  -19.2228   19.5552 C   0  0  0  0  0  0  0  0  0  0  0  0
    9.8620  -20.0208   18.5071 N   0  0  0  0  0  0  0  0  0  0  0  0
   11.0373  -19.9710   17.8291 C   0  0  0  0  0  0  0  0  0  0  0  0
   11.8702  -19.1365   18.4756 N   0  0  0  0  0  0  0  0  0  0  0  0
   10.9987  -16.5463   22.6241 C   0  0  0  0  0  0  0  0  0  0  0  0
   11.1723  -15.3231   22.7941 O   0  0  0  0  0  0  0  0  0  0  0  0
   10.1751  -14.1445   30.5996 O   0  0  0  0  0  0  0  0  0  0  0  0
   10.1684  -14.6103   29.2798 C   0  0  0  0  0  0  0  0  0  0  0  0
   10.2140  -15.9687   29.0766 C   0  0  0  0  0  0  0  0  0  0  0  0
   10.2095  -16.4866   27.7768 C   0  0  0  0  0  0  0  0  0  0  0  0
   10.1588  -15.6099   26.7186 C   0  0  0  0  0  0  0  0  0  0  0  0
   10.1545  -16.1361   25.3365 C   0  0  0  0  0  0  0  0  0  0  0  0
   11.4155  -16.8633   25.0500 C   0  0  2  0  0  0  0  0  0  0  0  0
   11.2984  -17.4103   23.6961 N   0  0  0  0  0  0  0  0  0  0  0  0
   11.7840  -17.9329   25.9761 C   0  0  0  0  0  0  0  0  0  0  0  0
   11.1711  -19.1828   26.0469 O   0  0  0  0  0  0  0  0  0  0  0  0
   10.1123  -14.2368   26.9029 C   0  0  0  0  0  0  0  0  0  0  0  0
   10.1182  -13.7576   28.2032 C   0  0  0  0  0  0  0  0  0  0  0  0
   12.7305  -17.7633   26.8014 O   0  0  0  0  0  0  0  0  0  0  0  0
  2  1  1  1
  3  2  1  0
  4  5  1  6
  4  2  1  0
  6  4  1  0
  7  6  2  0
  8  6  1  0
  9 16  1  0
  9  8  1  0
  9 10  1  6
 11 10  1  0
 11 15  1  0
 12 13  1  0
 12 11  2  0
 13 14  1  0
 14 15  2  0
 16 17  2  0
 18 19  1  0
 19 29  2  0
 19 20  1  0
 20 21  2  0
 21 22  1  0
 22 23  1  0
 24 23  1  1
 25 24  1  0
 25 16  1  0
 26 24  1  0
 27 26  1  0
 28 22  2  0
 29 28  1  0
 30 26  2  0
M  END
$$$$
