VHY.pdb
     RDKit          3D

 30 31  0  0  1  0  0  0  0  0999 V2000
    8.8457  -12.9527   20.1375 C   0  0  0  0  0  0  0  0  0  0  0  0
    7.4495  -13.4423   19.8667 C   0  0  1  0  0  0  0  0  0  0  0  0
    6.9294  -12.6999   18.6563 C   0  0  0  0  0  0  0  0  0  0  0  0
    7.4589  -14.9300   19.6113 C   0  0  2  0  0  0  0  0  0  0  0  0
    6.0685  -15.3726   19.3416 N   0  0  0  0  0  0  0  0  0  0  0  0
    7.9206  -15.6208   20.8333 C   0  0  0  0  0  0  0  0  0  0  0  0
    7.1737  -15.5998   21.8562 O   0  0  0  0  0  0  0  0  0  0  0  0
    9.1375  -16.3227   20.9784 N   0  0  0  0  0  0  0  0  0  0  0  0
    9.4714  -16.9751   22.2502 C   0  0  1  0  0  0  0  0  0  0  0  0
   10.2968  -18.1778   21.8111 C   0  0  0  0  0  0  0  0  0  0  0  0
   10.8599  -18.9680   22.8964 C   0  0  0  0  0  0  0  0  0  0  0  0
   12.2421  -18.9645   23.1368 C   0  0  0  0  0  0  0  0  0  0  0  0
   12.5147  -19.7504   24.1654 N   0  0  0  0  0  0  0  0  0  0  0  0
   11.3354  -20.2651   24.5985 C   0  0  0  0  0  0  0  0  0  0  0  0
   10.3473  -19.7842   23.8236 N   0  0  0  0  0  0  0  0  0  0  0  0
   10.3442  -16.1192   23.0748 C   0  0  0  0  0  0  0  0  0  0  0  0
   11.2142  -15.4198   22.5189 O   0  0  0  0  0  0  0  0  0  0  0  0
    9.1054  -17.0689   30.8709 O   0  0  0  0  0  0  0  0  0  0  0  0
    9.3927  -16.3676   29.6941 C   0  0  0  0  0  0  0  0  0  0  0  0
    8.5833  -16.5808   28.6042 C   0  0  0  0  0  0  0  0  0  0  0  0
    8.8270  -15.9049   27.4035 C   0  0  0  0  0  0  0  0  0  0  0  0
    9.8868  -15.0308   27.3431 C   0  0  0  0  0  0  0  0  0  0  0  0
   10.1629  -14.3072   26.0833 C   0  0  0  0  0  0  0  0  0  0  0  0
   11.0716  -15.0960   25.2156 C   0  0  2  0  0  0  0  0  0  0  0  0
   10.2408  -16.0511   24.4784 N   0  0  0  0  0  0  0  0  0  0  0  0
   12.1607  -15.8105   25.8795 C   0  0  0  0  0  0  0  0  0  0  0  0
   12.2600  -17.1958   25.9981 O   0  0  0  0  0  0  0  0  0  0  0  0
   10.7144  -14.8023   28.4313 C   0  0  0  0  0  0  0  0  0  0  0  0
   10.4448  -15.4880   29.6050 C   0  0  0  0  0  0  0  0  0  0  0  0
   13.1175  -15.1673   26.4056 O   0  0  0  0  0  0  0  0  0  0  0  0
  2  1  1  6
  3  2  1  0
  4  5  1  1
  4  2  1  0
  6  4  1  0
  7  6  2  0
  8  6  1  0
  9 16  1  0
  9  8  1  0
  9 10  1  6
 11 10  1  0
 11 15  1  0
 12 13  1  0
 12 11  2  0
 13 14  1  0
 14 15  2  0
 16 17  2  0
 18 19  1  0
 19 29  2  0
 19 20  1  0
 20 21  2  0
 21 22  1  0
 22 23  1  0
 24 23  1  1
 25 24  1  0
 25 16  1  0
 26 24  1  0
 27 26  1  0
 28 22  2  0
 29 28  1  0
 30 26  2  0
M  END
$$$$
