VHY.pdb
     RDKit          3D

 30 31  0  0  1  0  0  0  0  0999 V2000
    8.2502  -11.9088   19.2029 C   0  0  0  0  0  0  0  0  0  0  0  0
    8.5589  -13.1462   20.0005 C   0  0  1  0  0  0  0  0  0  0  0  0
    7.3712  -13.4245   20.8941 C   0  0  0  0  0  0  0  0  0  0  0  0
    8.8109  -14.3129   19.0765 C   0  0  2  0  0  0  0  0  0  0  0  0
    7.5767  -14.5723   18.2946 N   0  0  0  0  0  0  0  0  0  0  0  0
    9.0873  -15.5150   19.8904 C   0  0  0  0  0  0  0  0  0  0  0  0
    8.1056  -16.1685   20.3529 O   0  0  0  0  0  0  0  0  0  0  0  0
   10.3657  -16.0236   20.2089 N   0  0  0  0  0  0  0  0  0  0  0  0
   10.5037  -17.1751   21.1088 C   0  0  1  0  0  0  0  0  0  0  0  0
   11.6810  -17.9359   20.5123 C   0  0  0  0  0  0  0  0  0  0  0  0
   11.3592  -18.7627   19.3581 C   0  0  0  0  0  0  0  0  0  0  0  0
   10.4181  -19.7978   19.4640 C   0  0  0  0  0  0  0  0  0  0  0  0
   10.2936  -20.4045   18.2951 N   0  0  0  0  0  0  0  0  0  0  0  0
   11.1363  -19.7831   17.4307 C   0  0  0  0  0  0  0  0  0  0  0  0
   11.7715  -18.7957   18.0862 N   0  0  0  0  0  0  0  0  0  0  0  0
   10.8966  -16.7477   22.4641 C   0  0  0  0  0  0  0  0  0  0  0  0
   11.8938  -16.0127   22.6071 O   0  0  0  0  0  0  0  0  0  0  0  0
   10.7999  -13.9275   30.6136 O   0  0  0  0  0  0  0  0  0  0  0  0
   10.5616  -14.3506   29.3008 C   0  0  0  0  0  0  0  0  0  0  0  0
    9.4762  -13.8247   28.6422 C   0  0  0  0  0  0  0  0  0  0  0  0
    9.1934  -14.2143   27.3284 C   0  0  0  0  0  0  0  0  0  0  0  0
   10.0214  -15.1277   26.7196 C   0  0  0  0  0  0  0  0  0  0  0  0
    9.7399  -15.5542   25.3318 C   0  0  0  0  0  0  0  0  0  0  0  0
   10.6431  -16.6609   24.9314 C   0  0  2  0  0  0  0  0  0  0  0  0
   10.1900  -17.1331   23.6208 N   0  0  0  0  0  0  0  0  0  0  0  0
   10.7421  -17.7949   25.8489 C   0  0  0  0  0  0  0  0  0  0  0  0
   11.7047  -17.9414   26.8463 O   0  0  0  0  0  0  0  0  0  0  0  0
   11.1209  -15.6695   27.3670 C   0  0  0  0  0  0  0  0  0  0  0  0
   11.3722  -15.2620   28.6674 C   0  0  0  0  0  0  0  0  0  0  0  0
    9.9107  -18.7484   25.7756 O   0  0  0  0  0  0  0  0  0  0  0  0
  2  1  1  6
  3  2  1  0
  4  5  1  1
  4  2  1  0
  6  4  1  0
  7  6  2  0
  8  6  1  0
  9 16  1  0
  9  8  1  0
  9 10  1  6
 11 10  1  0
 11 15  1  0
 12 13  1  0
 12 11  2  0
 13 14  1  0
 14 15  2  0
 16 17  2  0
 18 19  1  0
 19 29  2  0
 19 20  1  0
 20 21  2  0
 21 22  1  0
 22 23  1  0
 24 23  1  1
 25 24  1  0
 25 16  1  0
 26 24  1  0
 27 26  1  0
 28 22  2  0
 29 28  1  0
 30 26  2  0
M  END
$$$$
