VHY.pdb
     RDKit          3D

 30 31  0  0  1  0  0  0  0  0999 V2000
    8.5795  -12.3825   17.9716 C   0  0  0  0  0  0  0  0  0  0  0  0
    8.6551  -13.3873   19.0884 C   0  0  1  0  0  0  0  0  0  0  0  0
    7.3149  -13.3971   19.7887 C   0  0  0  0  0  0  0  0  0  0  0  0
    8.9746  -14.7559   18.5378 C   0  0  2  0  0  0  0  0  0  0  0  0
    7.8986  -15.1495   17.5948 N   0  0  0  0  0  0  0  0  0  0  0  0
    8.9747  -15.7293   19.6498 C   0  0  0  0  0  0  0  0  0  0  0  0
    7.8607  -16.1388   20.0924 O   0  0  0  0  0  0  0  0  0  0  0  0
   10.1186  -16.2654   20.2812 N   0  0  0  0  0  0  0  0  0  0  0  0
    9.9780  -17.1765   21.4234 C   0  0  1  0  0  0  0  0  0  0  0  0
   11.3050  -17.9244   21.4294 C   0  0  0  0  0  0  0  0  0  0  0  0
   11.3344  -19.1338   20.6195 C   0  0  0  0  0  0  0  0  0  0  0  0
   10.2248  -19.4966   19.8413 C   0  0  0  0  0  0  0  0  0  0  0  0
   10.4844  -20.6229   19.1979 N   0  0  0  0  0  0  0  0  0  0  0  0
   11.7423  -20.9995   19.5431 C   0  0  0  0  0  0  0  0  0  0  0  0
   12.2415  -20.0918   20.4005 N   0  0  0  0  0  0  0  0  0  0  0  0
    9.8872  -16.4303   22.6919 C   0  0  0  0  0  0  0  0  0  0  0  0
   10.6956  -15.5077   22.9163 O   0  0  0  0  0  0  0  0  0  0  0  0
    6.3316  -11.3043   28.5428 O   0  0  0  0  0  0  0  0  0  0  0  0
    6.6599  -12.1904   27.5103 C   0  0  0  0  0  0  0  0  0  0  0  0
    5.7451  -13.1616   27.1807 C   0  0  0  0  0  0  0  0  0  0  0  0
    6.0241  -14.0727   26.1561 C   0  0  0  0  0  0  0  0  0  0  0  0
    7.2252  -13.9721   25.4942 C   0  0  0  0  0  0  0  0  0  0  0  0
    7.5407  -14.9258   24.4089 C   0  0  0  0  0  0  0  0  0  0  0  0
    8.7099  -15.7635   24.7724 C   0  0  2  0  0  0  0  0  0  0  0  0
    8.9177  -16.7114   23.6751 N   0  0  0  0  0  0  0  0  0  0  0  0
    8.6296  -16.4935   26.0366 C   0  0  0  0  0  0  0  0  0  0  0  0
    9.2195  -16.0950   27.2350 O   0  0  0  0  0  0  0  0  0  0  0  0
    8.1607  -12.9997   25.8119 C   0  0  0  0  0  0  0  0  0  0  0  0
    7.8525  -12.1135   26.8317 C   0  0  0  0  0  0  0  0  0  0  0  0
    7.9834  -17.5815   26.1043 O   0  0  0  0  0  0  0  0  0  0  0  0
  2  1  1  6
  3  2  1  0
  4  5  1  6
  4  2  1  0
  6  4  1  0
  7  6  2  0
  8  6  1  0
  9 16  1  0
  9  8  1  0
  9 10  1  1
 11 10  1  0
 11 15  1  0
 12 13  1  0
 12 11  2  0
 13 14  1  0
 14 15  2  0
 16 17  2  0
 18 19  1  0
 19 29  2  0
 19 20  1  0
 20 21  2  0
 21 22  1  0
 22 23  1  0
 24 23  1  6
 25 24  1  0
 25 16  1  0
 26 24  1  0
 27 26  1  0
 28 22  2  0
 29 28  1  0
 30 26  2  0
M  END
$$$$
