VHY.pdb
     RDKit          3D

 30 31  0  0  1  0  0  0  0  0999 V2000
    8.8402  -12.4923   18.1916 C   0  0  0  0  0  0  0  0  0  0  0  0
    8.8829  -13.4162   19.3778 C   0  0  1  0  0  0  0  0  0  0  0  0
    7.6039  -13.2184   20.1600 C   0  0  0  0  0  0  0  0  0  0  0  0
    9.0063  -14.8488   18.9188 C   0  0  2  0  0  0  0  0  0  0  0  0
    7.7983  -15.1993   18.1317 N   0  0  0  0  0  0  0  0  0  0  0  0
    9.0394  -15.7288   20.1056 C   0  0  0  0  0  0  0  0  0  0  0  0
    7.9391  -16.0851   20.6224 O   0  0  0  0  0  0  0  0  0  0  0  0
   10.2011  -16.2281   20.7345 N   0  0  0  0  0  0  0  0  0  0  0  0
   10.0928  -17.0946   21.9143 C   0  0  1  0  0  0  0  0  0  0  0  0
   11.0814  -18.2127   21.6092 C   0  0  0  0  0  0  0  0  0  0  0  0
   10.6684  -19.1304   20.5573 C   0  0  0  0  0  0  0  0  0  0  0  0
    9.9697  -20.3057   20.8717 C   0  0  0  0  0  0  0  0  0  0  0  0
    9.7042  -20.9736   19.7611 N   0  0  0  0  0  0  0  0  0  0  0  0
   10.2173  -20.2545   18.7301 C   0  0  0  0  0  0  0  0  0  0  0  0
   10.7953  -19.1462   19.2260 N   0  0  0  0  0  0  0  0  0  0  0  0
   10.5688  -16.4046   23.1273 C   0  0  0  0  0  0  0  0  0  0  0  0
   11.3081  -15.4070   23.0114 O   0  0  0  0  0  0  0  0  0  0  0  0
    5.8135  -11.5695   27.9788 O   0  0  0  0  0  0  0  0  0  0  0  0
    6.5028  -12.4687   27.1570 C   0  0  0  0  0  0  0  0  0  0  0  0
    5.7640  -13.3610   26.4177 C   0  0  0  0  0  0  0  0  0  0  0  0
    6.4040  -14.2811   25.5801 C   0  0  0  0  0  0  0  0  0  0  0  0
    7.7775  -14.2695   25.5166 C   0  0  0  0  0  0  0  0  0  0  0  0
    8.4741  -15.2345   24.6387 C   0  0  0  0  0  0  0  0  0  0  0  0
    9.6123  -15.8636   25.3526 C   0  0  2  0  0  0  0  0  0  0  0  0
   10.2231  -16.8218   24.4281 N   0  0  0  0  0  0  0  0  0  0  0  0
    9.3081  -16.5336   26.6160 C   0  0  0  0  0  0  0  0  0  0  0  0
    9.6197  -16.0424   27.8828 O   0  0  0  0  0  0  0  0  0  0  0  0
    8.5403  -13.3775   26.2543 C   0  0  0  0  0  0  0  0  0  0  0  0
    7.8746  -12.4798   27.0736 C   0  0  0  0  0  0  0  0  0  0  0  0
    8.7136  -17.6526   26.6169 O   0  0  0  0  0  0  0  0  0  0  0  0
  2  1  1  6
  3  2  1  0
  4  5  1  6
  4  2  1  0
  6  4  1  0
  7  6  2  0
  8  6  1  0
  9 16  1  0
  9  8  1  0
  9 10  1  6
 11 10  1  0
 11 15  1  0
 12 13  1  0
 12 11  2  0
 13 14  1  0
 14 15  2  0
 16 17  2  0
 18 19  1  0
 19 29  2  0
 19 20  1  0
 20 21  2  0
 21 22  1  0
 22 23  1  0
 24 23  1  6
 25 24  1  0
 25 16  1  0
 26 24  1  0
 27 26  1  0
 28 22  2  0
 29 28  1  0
 30 26  2  0
M  END
$$$$
