VHY.pdb
     RDKit          3D

 30 31  0  0  1  0  0  0  0  0999 V2000
    9.0396  -12.9307   20.3418 C   0  0  0  0  0  0  0  0  0  0  0  0
    8.0515  -13.5210   19.3734 C   0  0  1  0  0  0  0  0  0  0  0  0
    7.8725  -12.5343   18.2416 C   0  0  0  0  0  0  0  0  0  0  0  0
    8.5609  -14.8415   18.8487 C   0  0  2  0  0  0  0  0  0  0  0  0
    7.5661  -15.3858   17.8916 N   0  0  0  0  0  0  0  0  0  0  0  0
    8.6677  -15.7929   19.9744 C   0  0  0  0  0  0  0  0  0  0  0  0
    7.6014  -16.2766   20.4579 O   0  0  0  0  0  0  0  0  0  0  0  0
    9.8671  -16.2314   20.5774 N   0  0  0  0  0  0  0  0  0  0  0  0
    9.8298  -17.1308   21.7368 C   0  0  1  0  0  0  0  0  0  0  0  0
   10.9462  -18.1227   21.4360 C   0  0  0  0  0  0  0  0  0  0  0  0
   11.1485  -19.1485   22.4490 C   0  0  0  0  0  0  0  0  0  0  0  0
   10.0509  -19.7418   23.0906 C   0  0  0  0  0  0  0  0  0  0  0  0
   10.4798  -20.6381   23.9639 N   0  0  0  0  0  0  0  0  0  0  0  0
   11.8361  -20.6387   23.9023 C   0  0  0  0  0  0  0  0  0  0  0  0
   12.2241  -19.7356   22.9847 N   0  0  0  0  0  0  0  0  0  0  0  0
   10.1950  -16.4188   22.9752 C   0  0  0  0  0  0  0  0  0  0  0  0
   10.8820  -15.3806   22.9022 O   0  0  0  0  0  0  0  0  0  0  0  0
    5.9609  -11.1581   27.7732 O   0  0  0  0  0  0  0  0  0  0  0  0
    6.4895  -12.1673   26.9600 C   0  0  0  0  0  0  0  0  0  0  0  0
    7.6634  -11.9083   26.2940 C   0  0  0  0  0  0  0  0  0  0  0  0
    8.2341  -12.8832   25.4684 C   0  0  0  0  0  0  0  0  0  0  0  0
    7.5964  -14.0948   25.3419 C   0  0  0  0  0  0  0  0  0  0  0  0
    8.1818  -15.1387   24.4732 C   0  0  0  0  0  0  0  0  0  0  0  0
    9.2281  -15.8982   25.2008 C   0  0  2  0  0  0  0  0  0  0  0  0
    9.7990  -16.8590   24.2539 N   0  0  0  0  0  0  0  0  0  0  0  0
    8.8094  -16.6005   26.4128 C   0  0  0  0  0  0  0  0  0  0  0  0
    8.0411  -17.7632   26.4445 O   0  0  0  0  0  0  0  0  0  0  0  0
    6.4119  -14.3752   26.0053 C   0  0  0  0  0  0  0  0  0  0  0  0
    5.8740  -13.3875   26.8149 C   0  0  0  0  0  0  0  0  0  0  0  0
    9.1454  -16.1605   27.5527 O   0  0  0  0  0  0  0  0  0  0  0  0
  2  1  1  1
  3  2  1  0
  4  5  1  6
  4  2  1  0
  6  4  1  0
  7  6  2  0
  8  6  1  0
  9 16  1  0
  9  8  1  0
  9 10  1  6
 11 10  1  0
 11 15  1  0
 12 13  1  0
 12 11  2  0
 13 14  1  0
 14 15  2  0
 16 17  2  0
 18 19  1  0
 19 29  2  0
 19 20  1  0
 20 21  2  0
 21 22  1  0
 22 23  1  0
 24 23  1  6
 25 24  1  0
 25 16  1  0
 26 24  1  0
 27 26  1  0
 28 22  2  0
 29 28  1  0
 30 26  2  0
M  END
$$$$
