YPN.pdb
     RDKit          3D

 28 29  0  0  1  0  0  0  0  0999 V2000
   26.8505  -19.7581   -6.0007 O   0  0  0  0  0  0  0  0  0  0  0  0
   26.6554  -20.1392   -7.3140 C   0  0  0  0  0  0  0  0  0  0  0  0
   25.3997  -20.5740   -7.6988 C   0  0  0  0  0  0  0  0  0  0  0  0
   25.1683  -20.9596   -8.9908 C   0  0  0  0  0  0  0  0  0  0  0  0
   26.2072  -20.9051   -9.8925 C   0  0  0  0  0  0  0  0  0  0  0  0
   25.9436  -21.3250  -11.2864 C   0  0  0  0  0  0  0  0  0  0  0  0
   25.1281  -20.2893  -12.0415 C   0  0  2  0  0  0  0  0  0  0  0  0
   23.7546  -20.3038  -11.6798 N   0  0  0  0  0  0  0  0  0  0  0  0
   25.3866  -20.4628  -13.4767 C   0  0  0  0  0  0  0  0  0  0  0  0
   24.4130  -20.9122  -14.1594 O   0  0  0  0  0  0  0  0  0  0  0  0
   27.4699  -20.4772   -9.5431 C   0  0  0  0  0  0  0  0  0  0  0  0
   27.6875  -20.0903   -8.2308 C   0  0  0  0  0  0  0  0  0  0  0  0
   26.5888  -20.1815  -14.1472 N   0  0  0  0  0  0  0  0  0  0  0  0
   27.8581  -19.9094  -13.4338 C   0  0  0  0  0  0  0  0  0  0  0  0
   28.2982  -18.6475  -14.1588 C   0  0  0  0  0  0  0  0  0  0  0  0
   27.9586  -18.9646  -15.5861 C   0  0  0  0  0  0  0  0  0  0  0  0
   26.9345  -20.0938  -15.5483 C   0  0  1  0  0  0  0  0  0  0  0  0
   27.5364  -21.3979  -15.9396 C   0  0  0  0  0  0  0  0  0  0  0  0
   28.1360  -22.1277  -15.1098 O   0  0  0  0  0  0  0  0  0  0  0  0
   25.4185  -24.8234  -14.5469 N   0  0  0  0  0  0  0  0  0  0  0  0
   26.2723  -24.5173  -15.6377 C   0  0  0  0  0  0  0  0  0  0  0  0
   27.3786  -25.0898  -15.7862 O   0  0  0  0  0  0  0  0  0  0  0  0
   25.8466  -23.5084  -16.6095 C   0  0  0  0  0  0  0  0  0  0  0  0
   26.9077  -23.1749  -17.6351 C   0  0  2  0  0  0  0  0  0  0  0  0
   27.4507  -21.8708  -17.2955 N   0  0  0  0  0  0  0  0  0  0  0  0
   26.1702  -23.1123  -18.9508 C   0  0  0  0  0  0  0  0  0  0  0  0
   26.6796  -23.8687  -19.9932 O   0  0  0  0  0  0  0  0  0  0  0  0
   25.1576  -22.4145  -19.0834 O   0  0  0  0  0  0  0  0  0  0  0  0
  2  1  1  0
  3  2  2  0
  4  3  1  0
  5  4  2  0
  5 11  1  0
  6  5  1  0
  7  6  1  0
  7  8  1  6
  9 13  1  0
  9  7  1  0
 10  9  2  0
 11 12  2  0
 12  2  1  0
 13 17  1  0
 14 13  1  0
 14 15  1  0
 16 17  1  0
 16 15  1  0
 18 25  1  0
 17 18  1  1
 19 18  2  0
 21 20  1  0
 21 22  2  0
 23 21  1  0
 24 23  1  1
 24 25  1  0
 26 27  1  0
 26 24  1  0
 28 26  2  0
M  END
$$$$
