YPN.pdb
     RDKit          3D

 28 29  0  0  1  0  0  0  0  0999 V2000
   16.9049  -23.4307  -14.4792 O   0  0  0  0  0  0  0  0  0  0  0  0
   18.1330  -22.8031  -14.5577 C   0  0  0  0  0  0  0  0  0  0  0  0
   19.1855  -23.4772  -15.1507 C   0  0  0  0  0  0  0  0  0  0  0  0
   20.4164  -22.8881  -15.2467 C   0  0  0  0  0  0  0  0  0  0  0  0
   20.5817  -21.6176  -14.7427 C   0  0  0  0  0  0  0  0  0  0  0  0
   21.9179  -20.9920  -14.8527 C   0  0  0  0  0  0  0  0  0  0  0  0
   22.8536  -21.4663  -13.7539 C   0  0  2  0  0  0  0  0  0  0  0  0
   22.3813  -21.1415  -12.4543 N   0  0  0  0  0  0  0  0  0  0  0  0
   24.2024  -20.9716  -14.0582 C   0  0  0  0  0  0  0  0  0  0  0  0
   24.5763  -19.9536  -13.3947 O   0  0  0  0  0  0  0  0  0  0  0  0
   19.5551  -20.9179  -14.1459 C   0  0  0  0  0  0  0  0  0  0  0  0
   18.3150  -21.5287  -14.0567 C   0  0  0  0  0  0  0  0  0  0  0  0
   25.0968  -21.5125  -14.9970 N   0  0  0  0  0  0  0  0  0  0  0  0
   24.7230  -22.6111  -15.9175 C   0  0  0  0  0  0  0  0  0  0  0  0
   25.9103  -23.5381  -15.7115 C   0  0  0  0  0  0  0  0  0  0  0  0
   27.0611  -22.5758  -15.6593 C   0  0  0  0  0  0  0  0  0  0  0  0
   26.4694  -21.2085  -15.3341 C   0  0  1  0  0  0  0  0  0  0  0  0
   26.4470  -20.3190  -16.5277 C   0  0  0  0  0  0  0  0  0  0  0  0
   25.5181  -20.3669  -17.3735 O   0  0  0  0  0  0  0  0  0  0  0  0
   30.0057  -16.0774  -19.0802 N   0  0  0  0  0  0  0  0  0  0  0  0
   28.6794  -16.4423  -18.7328 C   0  0  0  0  0  0  0  0  0  0  0  0
   27.6906  -16.0083  -19.3713 O   0  0  0  0  0  0  0  0  0  0  0  0
   28.4665  -17.3468  -17.6016 C   0  0  0  0  0  0  0  0  0  0  0  0
   27.5219  -18.4872  -17.9121 C   0  0  2  0  0  0  0  0  0  0  0  0
   27.4995  -19.3650  -16.7546 N   0  0  0  0  0  0  0  0  0  0  0  0
   28.1392  -19.1917  -19.0959 C   0  0  0  0  0  0  0  0  0  0  0  0
   27.5443  -18.9862  -20.3295 O   0  0  0  0  0  0  0  0  0  0  0  0
   29.1315  -19.9177  -18.9614 O   0  0  0  0  0  0  0  0  0  0  0  0
  2  1  1  0
  3  2  2  0
  4  3  1  0
  5  4  2  0
  5 11  1  0
  6  5  1  0
  7  6  1  0
  7  8  1  1
  9 13  1  0
  9  7  1  0
 10  9  2  0
 11 12  2  0
 12  2  1  0
 13 17  1  0
 14 13  1  0
 14 15  1  0
 16 17  1  0
 16 15  1  0
 18 25  1  0
 17 18  1  6
 19 18  2  0
 21 20  1  0
 21 22  2  0
 23 21  1  0
 24 23  1  1
 24 25  1  0
 26 27  1  0
 26 24  1  0
 28 26  2  0
M  END
$$$$
