YPN.pdb
     RDKit          3D

 28 29  0  0  1  0  0  0  0  0999 V2000
   20.8447  -16.1322  -17.6337 O   0  0  0  0  0  0  0  0  0  0  0  0
   20.7744  -16.9827  -16.5474 C   0  0  0  0  0  0  0  0  0  0  0  0
   21.6558  -16.7927  -15.4983 C   0  0  0  0  0  0  0  0  0  0  0  0
   21.6164  -17.6149  -14.4056 C   0  0  0  0  0  0  0  0  0  0  0  0
   20.6852  -18.6286  -14.3750 C   0  0  0  0  0  0  0  0  0  0  0  0
   20.6532  -19.5105  -13.1877 C   0  0  0  0  0  0  0  0  0  0  0  0
   21.8099  -20.4956  -13.1870 C   0  0  2  0  0  0  0  0  0  0  0  0
   22.0040  -21.1132  -14.4512 N   0  0  0  0  0  0  0  0  0  0  0  0
   21.6127  -21.4299  -12.0713 C   0  0  0  0  0  0  0  0  0  0  0  0
   21.0929  -22.5488  -12.3777 O   0  0  0  0  0  0  0  0  0  0  0  0
   19.7926  -18.8459  -15.4025 C   0  0  0  0  0  0  0  0  0  0  0  0
   19.8458  -18.0045  -16.5016 C   0  0  0  0  0  0  0  0  0  0  0  0
   21.9413  -21.2014  -10.7245 N   0  0  0  0  0  0  0  0  0  0  0  0
   22.4804  -19.9095  -10.2405 C   0  0  0  0  0  0  0  0  0  0  0  0
   23.6632  -20.4099   -9.4269 C   0  0  0  0  0  0  0  0  0  0  0  0
   23.0912  -21.6166   -8.7413 C   0  0  0  0  0  0  0  0  0  0  0  0
   21.8584  -22.0261   -9.5399 C   0  0  1  0  0  0  0  0  0  0  0  0
   20.5985  -21.6642   -8.8341 C   0  0  0  0  0  0  0  0  0  0  0  0
   19.9156  -20.6625   -9.1671 O   0  0  0  0  0  0  0  0  0  0  0  0
   16.2777  -24.1526   -7.8100 N   0  0  0  0  0  0  0  0  0  0  0  0
   17.1455  -24.3687   -8.9114 C   0  0  0  0  0  0  0  0  0  0  0  0
   16.7933  -25.0568   -9.8994 O   0  0  0  0  0  0  0  0  0  0  0  0
   18.4821  -23.7718   -8.8881 C   0  0  0  0  0  0  0  0  0  0  0  0
   18.7452  -22.9323   -7.6574 C   0  0  2  0  0  0  0  0  0  0  0  0
   20.1163  -22.4579   -7.7356 N   0  0  0  0  0  0  0  0  0  0  0  0
   18.5821  -23.8831   -6.4963 C   0  0  0  0  0  0  0  0  0  0  0  0
   19.7306  -24.4877   -6.0132 O   0  0  0  0  0  0  0  0  0  0  0  0
   17.4693  -24.1064   -6.0046 O   0  0  0  0  0  0  0  0  0  0  0  0
  2  1  1  0
  3  2  2  0
  4  3  1  0
  5  4  2  0
  5 11  1  0
  6  5  1  0
  7  6  1  0
  7  8  1  6
  9 13  1  0
  9  7  1  0
 10  9  2  0
 11 12  2  0
 12  2  1  0
 13 17  1  0
 14 13  1  0
 14 15  1  0
 16 17  1  0
 16 15  1  0
 18 25  1  0
 17 18  1  1
 19 18  2  0
 21 20  1  0
 21 22  2  0
 23 21  1  0
 24 23  1  6
 24 25  1  0
 26 27  1  0
 26 24  1  0
 28 26  2  0
M  END
$$$$
