YPN.pdb
     RDKit          3D

 28 29  0  0  1  0  0  0  0  0999 V2000
   27.3088  -19.4265   -6.2758 O   0  0  0  0  0  0  0  0  0  0  0  0
   26.8798  -19.9246   -7.4907 C   0  0  0  0  0  0  0  0  0  0  0  0
   27.8257  -20.2377   -8.4504 C   0  0  0  0  0  0  0  0  0  0  0  0
   27.4390  -20.7332   -9.6655 C   0  0  0  0  0  0  0  0  0  0  0  0
   26.0957  -20.9117   -9.9088 C   0  0  0  0  0  0  0  0  0  0  0  0
   25.6910  -21.4481  -11.2268 C   0  0  0  0  0  0  0  0  0  0  0  0
   24.8675  -20.4435  -12.0146 C   0  0  2  0  0  0  0  0  0  0  0  0
   23.4786  -20.5306  -11.7300 N   0  0  0  0  0  0  0  0  0  0  0  0
   25.2129  -20.5842  -13.4350 C   0  0  0  0  0  0  0  0  0  0  0  0
   24.3014  -21.0702  -14.1759 O   0  0  0  0  0  0  0  0  0  0  0  0
   25.1272  -20.6104   -8.9756 C   0  0  0  0  0  0  0  0  0  0  0  0
   25.5356  -20.1095   -7.7503 C   0  0  0  0  0  0  0  0  0  0  0  0
   26.4351  -20.2362  -14.0342 N   0  0  0  0  0  0  0  0  0  0  0  0
   27.6273  -19.8412  -13.2491 C   0  0  0  0  0  0  0  0  0  0  0  0
   28.0225  -18.5768  -13.9952 C   0  0  0  0  0  0  0  0  0  0  0  0
   27.8086  -18.9714  -15.4275 C   0  0  0  0  0  0  0  0  0  0  0  0
   26.8710  -20.1739  -15.4113 C   0  0  1  0  0  0  0  0  0  0  0  0
   27.5941  -21.4414  -15.7060 C   0  0  0  0  0  0  0  0  0  0  0  0
   28.2748  -22.0357  -14.8319 O   0  0  0  0  0  0  0  0  0  0  0  0
   27.5669  -26.3755  -16.2219 N   0  0  0  0  0  0  0  0  0  0  0  0
   26.4963  -25.5971  -16.7323 C   0  0  0  0  0  0  0  0  0  0  0  0
   25.5355  -26.1230  -17.3438 O   0  0  0  0  0  0  0  0  0  0  0  0
   26.5194  -24.1462  -16.5375 C   0  0  0  0  0  0  0  0  0  0  0  0
   27.6768  -23.4637  -17.2327 C   0  0  2  0  0  0  0  0  0  0  0  0
   27.5368  -22.0340  -17.0156 N   0  0  0  0  0  0  0  0  0  0  0  0
   27.5012  -23.7943  -18.6951 C   0  0  0  0  0  0  0  0  0  0  0  0
   28.2890  -24.8111  -19.2085 O   0  0  0  0  0  0  0  0  0  0  0  0
   26.6881  -23.1799  -19.3961 O   0  0  0  0  0  0  0  0  0  0  0  0
  2  1  1  0
  3  2  2  0
  4  3  1  0
  5  4  2  0
  5 11  1  0
  6  5  1  0
  7  6  1  0
  7  8  1  6
  9 13  1  0
  9  7  1  0
 10  9  2  0
 11 12  2  0
 12  2  1  0
 13 17  1  0
 14 13  1  0
 14 15  1  0
 16 17  1  0
 16 15  1  0
 18 25  1  0
 17 18  1  1
 19 18  2  0
 21 20  1  0
 21 22  2  0
 23 21  1  0
 24 23  1  1
 24 25  1  0
 26 27  1  0
 26 24  1  0
 28 26  2  0
M  END
$$$$
