YPN.pdb
     RDKit          3D

 28 29  0  0  1  0  0  0  0  0999 V2000
   16.5650  -24.8247  -14.9449 O   0  0  0  0  0  0  0  0  0  0  0  0
   17.6798  -24.0153  -14.8431 C   0  0  0  0  0  0  0  0  0  0  0  0
   17.5037  -22.6433  -14.8254 C   0  0  0  0  0  0  0  0  0  0  0  0
   18.5837  -21.8096  -14.7257 C   0  0  0  0  0  0  0  0  0  0  0  0
   19.8411  -22.3645  -14.6440 C   0  0  0  0  0  0  0  0  0  0  0  0
   21.0005  -21.4519  -14.5367 C   0  0  0  0  0  0  0  0  0  0  0  0
   21.5590  -21.4151  -13.1243 C   0  0  2  0  0  0  0  0  0  0  0  0
   20.6089  -20.9603  -12.1714 N   0  0  0  0  0  0  0  0  0  0  0  0
   22.8149  -20.6544  -13.1500 C   0  0  0  0  0  0  0  0  0  0  0  0
   22.7176  -19.4239  -12.8460 O   0  0  0  0  0  0  0  0  0  0  0  0
   20.0523  -23.7264  -14.6588 C   0  0  0  0  0  0  0  0  0  0  0  0
   18.9480  -24.5566  -14.7602 C   0  0  0  0  0  0  0  0  0  0  0  0
   24.0869  -21.1558  -13.4733 N   0  0  0  0  0  0  0  0  0  0  0  0
   24.3226  -22.5767  -13.8191 C   0  0  0  0  0  0  0  0  0  0  0  0
   25.5131  -22.8689  -12.9198 C   0  0  0  0  0  0  0  0  0  0  0  0
   26.3321  -21.6187  -13.0581 C   0  0  0  0  0  0  0  0  0  0  0  0
   25.3896  -20.5371  -13.5750 C   0  0  1  0  0  0  0  0  0  0  0  0
   25.6284  -20.2388  -15.0139 C   0  0  0  0  0  0  0  0  0  0  0  0
   25.2803  -21.0341  -15.9231 O   0  0  0  0  0  0  0  0  0  0  0  0
   28.1445  -17.7726  -14.8083 N   0  0  0  0  0  0  0  0  0  0  0  0
   27.8270  -16.8273  -15.8174 C   0  0  0  0  0  0  0  0  0  0  0  0
   28.3593  -15.6916  -15.8439 O   0  0  0  0  0  0  0  0  0  0  0  0
   26.8544  -17.1917  -16.8491 C   0  0  0  0  0  0  0  0  0  0  0  0
   26.4523  -18.6497  -16.8093 C   0  0  2  0  0  0  0  0  0  0  0  0
   26.2727  -19.0167  -15.4151 N   0  0  0  0  0  0  0  0  0  0  0  0
   27.6248  -19.3924  -17.4029 C   0  0  0  0  0  0  0  0  0  0  0  0
   28.3806  -20.1670  -16.5386 O   0  0  0  0  0  0  0  0  0  0  0  0
   27.8916  -19.3076  -18.6077 O   0  0  0  0  0  0  0  0  0  0  0  0
  2  1  1  0
  3  2  2  0
  4  3  1  0
  5  4  2  0
  5 11  1  0
  6  5  1  0
  7  6  1  0
  7  8  1  1
  9 13  1  0
  9  7  1  0
 10  9  2  0
 11 12  2  0
 12  2  1  0
 13 17  1  0
 14 13  1  0
 14 15  1  0
 16 17  1  0
 16 15  1  0
 18 25  1  0
 17 18  1  6
 19 18  2  0
 21 20  1  0
 21 22  2  0
 23 21  1  0
 24 23  1  1
 24 25  1  0
 26 27  1  0
 26 24  1  0
 28 26  2  0
M  END
$$$$
