TQI.pdb
     RDKit          3D

 25 24  0  0  1  0  0  0  0  0999 V2000
   27.8666  -11.7880  -15.5667 C   0  0  0  0  0  0  0  0  0  0  0  0
   26.7338  -10.8216  -15.8812 C   0  0  1  0  0  0  0  0  0  0  0  0
   27.2199   -9.7240  -16.5910 O   0  0  0  0  0  0  0  0  0  0  0  0
   25.7280  -11.5237  -16.7763 C   0  0  2  0  0  0  0  0  0  0  0  0
   26.3152  -11.8791  -18.0422 N   0  0  0  0  0  0  0  0  0  0  0  0
   24.5325  -10.6831  -16.9058 C   0  0  0  0  0  0  0  0  0  0  0  0
   24.3950  -10.0201  -17.9676 O   0  0  0  0  0  0  0  0  0  0  0  0
   18.8203  -11.9687  -15.0732 N   0  0  0  0  0  0  0  0  0  0  0  0
   18.6049  -10.6129  -15.4423 C   0  0  0  0  0  0  0  0  0  0  0  0
   17.4180  -10.1398  -15.4328 O   0  0  0  0  0  0  0  0  0  0  0  0
   19.7897   -9.8067  -15.8258 C   0  0  0  0  0  0  0  0  0  0  0  0
   21.0794  -10.5373  -15.7583 C   0  0  0  0  0  0  0  0  0  0  0  0
   22.3026   -9.7674  -16.1334 C   0  0  2  0  0  0  0  0  0  0  0  0
   23.5142  -10.5575  -15.9245 N   0  0  0  0  0  0  0  0  0  0  0  0
   22.3904   -8.4730  -15.4082 C   0  0  0  0  0  0  0  0  0  0  0  0
   22.9501   -8.3849  -14.2904 O   0  0  0  0  0  0  0  0  0  0  0  0
   23.4427   -2.6799  -16.3978 C   0  0  0  0  0  0  0  0  0  0  0  0
   22.7409   -3.6481  -15.4874 C   0  0  0  0  0  0  0  0  0  0  0  0
   22.6309   -4.9863  -16.1905 C   0  0  2  0  0  0  0  0  0  0  0  0
   21.7439   -4.8532  -17.4076 C   0  0  0  0  0  0  0  0  0  0  0  0
   22.0184   -6.0350  -15.2877 C   0  0  2  0  0  0  0  0  0  0  0  0
   21.8372   -7.2877  -15.9666 N   0  0  0  0  0  0  0  0  0  0  0  0
   20.6972   -5.5284  -14.8543 C   0  0  0  0  0  0  0  0  0  0  0  0
   19.4795   -5.9812  -15.3255 O   0  0  0  0  0  0  0  0  0  0  0  0
   20.6590   -4.6164  -13.9928 O   0  0  0  0  0  0  0  0  0  0  0  0
  2  1  1  6
  3  2  1  0
  4  2  1  0
  4  5  1  6
  6  4  1  0
  6 14  1  0
  7  6  2  0
  9 10  2  0
  9  8  1  0
 11  9  1  0
 12 11  1  0
 13 12  1  1
 14 13  1  0
 15 16  2  0
 15 13  1  0
 18 17  1  0
 18 19  1  0
 19 21  1  0
 19 20  1  6
 21 22  1  6
 21 23  1  0
 22 15  1  0
 23 25  2  0
 23 24  1  0
M  END
$$$$
