TQI.pdb
     RDKit          3D

 25 24  0  0  1  0  0  0  0  0999 V2000
   27.7257  -17.8917  -16.2742 C   0  0  0  0  0  0  0  0  0  0  0  0
   27.0512  -16.6458  -16.8296 C   0  0  1  0  0  0  0  0  0  0  0  0
   27.6681  -16.2526  -18.0170 O   0  0  0  0  0  0  0  0  0  0  0  0
   25.6083  -16.9801  -17.1643 C   0  0  2  0  0  0  0  0  0  0  0  0
   24.9474  -15.8664  -17.7940 N   0  0  0  0  0  0  0  0  0  0  0  0
   24.9302  -17.4473  -15.9499 C   0  0  0  0  0  0  0  0  0  0  0  0
   24.4544  -16.5775  -15.1736 O   0  0  0  0  0  0  0  0  0  0  0  0
   20.5247  -21.3840  -15.2837 N   0  0  0  0  0  0  0  0  0  0  0  0
   20.8189  -21.2407  -13.9003 C   0  0  0  0  0  0  0  0  0  0  0  0
   20.0483  -21.7788  -13.0347 O   0  0  0  0  0  0  0  0  0  0  0  0
   22.0247  -20.4600  -13.5296 C   0  0  0  0  0  0  0  0  0  0  0  0
   22.8007  -19.9413  -14.6831 C   0  0  0  0  0  0  0  0  0  0  0  0
   24.0702  -19.2228  -14.3639 C   0  0  2  0  0  0  0  0  0  0  0  0
   24.7676  -18.8082  -15.5795 N   0  0  0  0  0  0  0  0  0  0  0  0
   24.9658  -20.0325  -13.4971 C   0  0  0  0  0  0  0  0  0  0  0  0
   25.7591  -20.8743  -13.9795 O   0  0  0  0  0  0  0  0  0  0  0  0
   26.3987  -18.0956   -8.5114 C   0  0  0  0  0  0  0  0  0  0  0  0
   26.5445  -18.6897   -9.8842 C   0  0  0  0  0  0  0  0  0  0  0  0
   25.9678  -20.0913   -9.8726 C   0  0  2  0  0  0  0  0  0  0  0  0
   26.8761  -21.0118   -9.0893 C   0  0  0  0  0  0  0  0  0  0  0  0
   25.8459  -20.6491  -11.2741 C   0  0  2  0  0  0  0  0  0  0  0  0
   24.9480  -19.8738  -12.0839 N   0  0  0  0  0  0  0  0  0  0  0  0
   25.3186  -22.0270  -11.1573 C   0  0  0  0  0  0  0  0  0  0  0  0
   23.9849  -22.3570  -11.0092 O   0  0  0  0  0  0  0  0  0  0  0  0
   26.1304  -22.9836  -11.1929 O   0  0  0  0  0  0  0  0  0  0  0  0
  2  1  1  6
  3  2  1  0
  4  2  1  0
  4  5  1  1
  6  4  1  0
  6 14  1  0
  7  6  2  0
  9 10  2  0
  9  8  1  0
 11  9  1  0
 12 11  1  0
 13 12  1  6
 14 13  1  0
 15 16  2  0
 15 13  1  0
 18 17  1  0
 18 19  1  0
 19 21  1  0
 19 20  1  1
 21 22  1  6
 21 23  1  0
 22 15  1  0
 23 25  2  0
 23 24  1  0
M  END
$$$$
