TQI.pdb
     RDKit          3D

 25 24  0  0  1  0  0  0  0  0999 V2000
   27.7937  -22.1698  -16.6024 C   0  0  0  0  0  0  0  0  0  0  0  0
   28.7071  -21.1182  -17.2153 C   0  0  1  0  0  0  0  0  0  0  0  0
   29.5988  -21.7147  -18.1063 O   0  0  0  0  0  0  0  0  0  0  0  0
   27.8610  -20.1429  -18.0144 C   0  0  2  0  0  0  0  0  0  0  0  0
   28.6842  -19.1984  -18.7242 N   0  0  0  0  0  0  0  0  0  0  0  0
   26.8873  -19.5077  -17.1194 C   0  0  0  0  0  0  0  0  0  0  0  0
   27.2754  -18.5244  -16.4352 O   0  0  0  0  0  0  0  0  0  0  0  0
   20.7955  -19.6281  -16.9930 N   0  0  0  0  0  0  0  0  0  0  0  0
   20.9937  -18.6400  -15.9903 C   0  0  0  0  0  0  0  0  0  0  0  0
   19.9870  -18.1858  -15.3477 O   0  0  0  0  0  0  0  0  0  0  0  0
   22.3820  -18.1810  -15.7402 C   0  0  0  0  0  0  0  0  0  0  0  0
   23.4000  -18.7821  -16.6371 C   0  0  0  0  0  0  0  0  0  0  0  0
   24.6330  -19.3145  -15.9844 C   0  0  2  0  0  0  0  0  0  0  0  0
   25.5365  -19.9158  -16.9632 N   0  0  0  0  0  0  0  0  0  0  0  0
   24.3166  -20.2815  -14.9009 C   0  0  0  0  0  0  0  0  0  0  0  0
   23.9934  -21.4657  -15.1535 O   0  0  0  0  0  0  0  0  0  0  0  0
   27.1551  -20.6788  -10.2816 C   0  0  0  0  0  0  0  0  0  0  0  0
   26.3474  -21.0522  -11.4928 C   0  0  0  0  0  0  0  0  0  0  0  0
   24.9092  -20.6295  -11.2690 C   0  0  2  0  0  0  0  0  0  0  0  0
   24.3019  -21.4514  -10.1547 C   0  0  0  0  0  0  0  0  0  0  0  0
   24.0709  -20.8469  -12.5100 C   0  0  2  0  0  0  0  0  0  0  0  0
   24.3719  -19.8873  -13.5356 N   0  0  0  0  0  0  0  0  0  0  0  0
   22.6519  -20.6996  -12.1165 C   0  0  0  0  0  0  0  0  0  0  0  0
   21.9474  -19.5107  -12.1152 O   0  0  0  0  0  0  0  0  0  0  0  0
   22.0225  -21.7226  -11.7523 O   0  0  0  0  0  0  0  0  0  0  0  0
  2  1  1  6
  3  2  1  0
  4  2  1  0
  4  5  1  1
  6  4  1  0
  6 14  1  0
  7  6  2  0
  9 10  2  0
  9  8  1  0
 11  9  1  0
 12 11  1  0
 13 12  1  6
 14 13  1  0
 15 16  2  0
 15 13  1  0
 18 17  1  0
 18 19  1  0
 19 21  1  0
 19 20  1  1
 21 22  1  6
 21 23  1  0
 22 15  1  0
 23 25  2  0
 23 24  1  0
M  END
$$$$
