TQI.pdb
     RDKit          3D

 25 24  0  0  1  0  0  0  0  0999 V2000
   19.3606  -11.4241  -16.0809 C   0  0  0  0  0  0  0  0  0  0  0  0
   18.2891  -10.5994  -15.3825 C   0  0  1  0  0  0  0  0  0  0  0  0
   17.4644   -9.9844  -16.3241 O   0  0  0  0  0  0  0  0  0  0  0  0
   17.4145  -11.5305  -14.5616 C   0  0  2  0  0  0  0  0  0  0  0  0
   16.7863  -12.5241  -15.3933 N   0  0  0  0  0  0  0  0  0  0  0  0
   16.4581  -10.7315  -13.7874 C   0  0  0  0  0  0  0  0  0  0  0  0
   15.4178  -10.3327  -14.3743 O   0  0  0  0  0  0  0  0  0  0  0  0
   12.7550  -11.8292   -9.6506 N   0  0  0  0  0  0  0  0  0  0  0  0
   12.6133  -10.4188   -9.5435 C   0  0  0  0  0  0  0  0  0  0  0  0
   11.6049   -9.9334   -8.9268 O   0  0  0  0  0  0  0  0  0  0  0  0
   13.6610   -9.5719  -10.1645 C   0  0  0  0  0  0  0  0  0  0  0  0
   14.7026  -10.3255  -10.9053 C   0  0  0  0  0  0  0  0  0  0  0  0
   15.6630   -9.5169  -11.7137 C   0  0  2  0  0  0  0  0  0  0  0  0
   16.6134  -10.3711  -12.4230 N   0  0  0  0  0  0  0  0  0  0  0  0
   16.3795   -8.5116  -10.8860 C   0  0  0  0  0  0  0  0  0  0  0  0
   17.3520   -8.8312  -10.1631 O   0  0  0  0  0  0  0  0  0  0  0  0
   16.8894   -3.4182  -12.8920 C   0  0  0  0  0  0  0  0  0  0  0  0
   17.0606   -4.8032  -12.3340 C   0  0  0  0  0  0  0  0  0  0  0  0
   16.6478   -4.7957  -10.8757 C   0  0  2  0  0  0  0  0  0  0  0  0
   17.5197   -3.8327  -10.1022 C   0  0  0  0  0  0  0  0  0  0  0  0
   16.8076   -6.1644  -10.2502 C   0  0  2  0  0  0  0  0  0  0  0  0
   15.9786   -7.1470  -10.8908 N   0  0  0  0  0  0  0  0  0  0  0  0
   16.4074   -6.0510   -8.8299 C   0  0  0  0  0  0  0  0  0  0  0  0
   17.2750   -5.8421   -7.7747 O   0  0  0  0  0  0  0  0  0  0  0  0
   15.1900   -6.1499   -8.5413 O   0  0  0  0  0  0  0  0  0  0  0  0
  2  1  1  6
  3  2  1  0
  4  2  1  0
  4  5  1  6
  6  4  1  0
  6 14  1  0
  7  6  2  0
  9 10  2  0
  9  8  1  0
 11  9  1  0
 12 11  1  0
 13 12  1  1
 14 13  1  0
 15 16  2  0
 15 13  1  0
 18 17  1  0
 18 19  1  0
 19 21  1  0
 19 20  1  1
 21 22  1  6
 21 23  1  0
 22 15  1  0
 23 25  2  0
 23 24  1  0
M  END
$$$$
