TQI.pdb
     RDKit          3D

 25 24  0  0  1  0  0  0  0  0999 V2000
   18.8430  -12.4070  -18.5043 C   0  0  0  0  0  0  0  0  0  0  0  0
   18.9945  -11.2113  -17.5752 C   0  0  1  0  0  0  0  0  0  0  0  0
   19.9281  -10.3140  -18.0928 O   0  0  0  0  0  0  0  0  0  0  0  0
   17.6655  -10.4806  -17.4998 C   0  0  2  0  0  0  0  0  0  0  0  0
   17.2456  -10.0263  -18.8002 N   0  0  0  0  0  0  0  0  0  0  0  0
   17.7674   -9.4007  -16.5119 C   0  0  0  0  0  0  0  0  0  0  0  0
   17.7416   -8.2151  -16.9356 O   0  0  0  0  0  0  0  0  0  0  0  0
   16.6524   -9.6112  -10.3503 N   0  0  0  0  0  0  0  0  0  0  0  0
   15.6625   -9.3562  -11.3382 C   0  0  0  0  0  0  0  0  0  0  0  0
   14.4275   -9.4935  -11.0408 O   0  0  0  0  0  0  0  0  0  0  0  0
   16.1245   -8.9382  -12.6846 C   0  0  0  0  0  0  0  0  0  0  0  0
   17.5966   -8.8069  -12.8169 C   0  0  0  0  0  0  0  0  0  0  0  0
   18.1177   -8.4840  -14.1785 C   0  0  2  0  0  0  0  0  0  0  0  0
   17.8933   -9.5875  -15.1101 N   0  0  0  0  0  0  0  0  0  0  0  0
   19.5552   -8.1074  -14.1499 C   0  0  0  0  0  0  0  0  0  0  0  0
   20.4405   -8.9264  -13.8091 O   0  0  0  0  0  0  0  0  0  0  0  0
   23.7782   -5.2790  -17.1942 C   0  0  0  0  0  0  0  0  0  0  0  0
   23.3208   -5.6100  -15.8014 C   0  0  0  0  0  0  0  0  0  0  0  0
   21.8645   -6.0269  -15.8526 C   0  0  2  0  0  0  0  0  0  0  0  0
   21.0133   -4.8587  -16.2960 C   0  0  0  0  0  0  0  0  0  0  0  0
   21.3685   -6.4668  -14.4922 C   0  0  2  0  0  0  0  0  0  0  0  0
   19.9706   -6.7961  -14.5116 N   0  0  0  0  0  0  0  0  0  0  0  0
   21.5833   -5.3397  -13.5575 C   0  0  0  0  0  0  0  0  0  0  0  0
   20.5871   -4.5252  -13.0536 O   0  0  0  0  0  0  0  0  0  0  0  0
   22.7541   -5.0883  -13.1820 O   0  0  0  0  0  0  0  0  0  0  0  0
  2  1  1  6
  3  2  1  0
  4  2  1  0
  4  5  1  6
  6  4  1  0
  6 14  1  0
  7  6  2  0
  9 10  2  0
  9  8  1  0
 11  9  1  0
 12 11  1  0
 13 12  1  1
 14 13  1  0
 15 16  2  0
 15 13  1  0
 18 17  1  0
 18 19  1  0
 19 21  1  0
 19 20  1  1
 21 22  1  6
 21 23  1  0
 22 15  1  0
 23 25  2  0
 23 24  1  0
M  END
$$$$
