TQI.pdb
     RDKit          3D

 25 24  0  0  1  0  0  0  0  0999 V2000
   19.7408  -10.0034  -13.4680 C   0  0  0  0  0  0  0  0  0  0  0  0
   18.8435  -10.7048  -14.4774 C   0  0  1  0  0  0  0  0  0  0  0  0
   19.4517  -11.8748  -14.9315 O   0  0  0  0  0  0  0  0  0  0  0  0
   17.5542  -11.1102  -13.7851 C   0  0  2  0  0  0  0  0  0  0  0  0
   16.6902  -11.8391  -14.6773 N   0  0  0  0  0  0  0  0  0  0  0  0
   16.9229   -9.9171  -13.2104 C   0  0  0  0  0  0  0  0  0  0  0  0
   16.5651   -9.0052  -14.0017 O   0  0  0  0  0  0  0  0  0  0  0  0
   13.1996   -9.3629   -8.2897 N   0  0  0  0  0  0  0  0  0  0  0  0
   13.4318   -7.9829   -8.5399 C   0  0  0  0  0  0  0  0  0  0  0  0
   12.7657   -7.1059   -7.8920 O   0  0  0  0  0  0  0  0  0  0  0  0
   14.4517   -7.6292   -9.5574 C   0  0  0  0  0  0  0  0  0  0  0  0
   15.0787   -8.7932  -10.2310 C   0  0  0  0  0  0  0  0  0  0  0  0
   16.0743   -8.4880  -11.3012 C   0  0  2  0  0  0  0  0  0  0  0  0
   16.6824   -9.7086  -11.8268 N   0  0  0  0  0  0  0  0  0  0  0  0
   17.1206   -7.5408  -10.8350 C   0  0  0  0  0  0  0  0  0  0  0  0
   18.0144   -7.8956  -10.0314 O   0  0  0  0  0  0  0  0  0  0  0  0
   21.7694   -5.5917  -12.7672 C   0  0  0  0  0  0  0  0  0  0  0  0
   20.6627   -4.9971  -11.9423 C   0  0  0  0  0  0  0  0  0  0  0  0
   19.4550   -5.9100  -12.0161 C   0  0  2  0  0  0  0  0  0  0  0  0
   18.9384   -5.9611  -13.4361 C   0  0  0  0  0  0  0  0  0  0  0  0
   18.3306   -5.4096  -11.1355 C   0  0  2  0  0  0  0  0  0  0  0  0
   17.1375   -6.1939  -11.2914 N   0  0  0  0  0  0  0  0  0  0  0  0
   18.0433   -4.0140  -11.5355 C   0  0  0  0  0  0  0  0  0  0  0  0
   18.7462   -2.9043  -11.1064 O   0  0  0  0  0  0  0  0  0  0  0  0
   17.0910   -3.8016  -12.3249 O   0  0  0  0  0  0  0  0  0  0  0  0
  2  1  1  1
  3  2  1  0
  4  2  1  0
  4  5  1  6
  6  4  1  0
  6 14  1  0
  7  6  2  0
  9 10  2  0
  9  8  1  0
 11  9  1  0
 12 11  1  0
 13 12  1  1
 14 13  1  0
 15 16  2  0
 15 13  1  0
 18 17  1  0
 18 19  1  0
 19 21  1  0
 19 20  1  6
 21 22  1  6
 21 23  1  0
 22 15  1  0
 23 25  2  0
 23 24  1  0
M  END
$$$$
