TQI.pdb
     RDKit          3D

 25 24  0  0  1  0  0  0  0  0999 V2000
   18.1631  -11.5614  -14.5280 C   0  0  0  0  0  0  0  0  0  0  0  0
   18.1252  -12.0723  -15.9610 C   0  0  1  0  0  0  0  0  0  0  0  0
   17.6999  -13.4002  -15.9880 O   0  0  0  0  0  0  0  0  0  0  0  0
   17.1070  -11.2602  -16.7417 C   0  0  2  0  0  0  0  0  0  0  0  0
   16.9169  -11.7957  -18.0649 N   0  0  0  0  0  0  0  0  0  0  0  0
   17.5134   -9.8505  -16.7381 C   0  0  0  0  0  0  0  0  0  0  0  0
   18.4817   -9.5183  -17.4713 O   0  0  0  0  0  0  0  0  0  0  0  0
   14.9780   -4.7011  -17.4486 N   0  0  0  0  0  0  0  0  0  0  0  0
   15.9059   -4.1379  -16.5307 C   0  0  0  0  0  0  0  0  0  0  0  0
   16.1163   -2.8776  -16.5431 O   0  0  0  0  0  0  0  0  0  0  0  0
   16.5923   -5.0592  -15.5923 C   0  0  0  0  0  0  0  0  0  0  0  0
   16.2315   -6.4888  -15.7589 C   0  0  0  0  0  0  0  0  0  0  0  0
   17.3609   -7.4406  -15.9787 C   0  0  2  0  0  0  0  0  0  0  0  0
   16.8984   -8.8270  -15.9700 N   0  0  0  0  0  0  0  0  0  0  0  0
   18.4531   -7.2470  -14.9893 C   0  0  0  0  0  0  0  0  0  0  0  0
   18.3083   -7.5589  -13.7842 O   0  0  0  0  0  0  0  0  0  0  0  0
   22.9600   -9.5440  -14.9168 C   0  0  0  0  0  0  0  0  0  0  0  0
   21.7143   -8.7927  -14.5393 C   0  0  0  0  0  0  0  0  0  0  0  0
   21.9713   -7.3082  -14.7048 C   0  0  2  0  0  0  0  0  0  0  0  0
   23.0546   -6.8667  -13.7470 C   0  0  0  0  0  0  0  0  0  0  0  0
   20.7307   -6.4964  -14.4014 C   0  0  2  0  0  0  0  0  0  0  0  0
   19.7038   -6.6979  -15.3853 N   0  0  0  0  0  0  0  0  0  0  0  0
   21.1242   -5.0698  -14.4035 C   0  0  0  0  0  0  0  0  0  0  0  0
   20.7603   -4.1471  -15.3657 O   0  0  0  0  0  0  0  0  0  0  0  0
   21.8445   -4.6462  -13.4671 O   0  0  0  0  0  0  0  0  0  0  0  0
  2  1  1  1
  3  2  1  0
  4  2  1  0
  4  5  1  6
  6  4  1  0
  6 14  1  0
  7  6  2  0
  9 10  2  0
  9  8  1  0
 11  9  1  0
 12 11  1  0
 13 12  1  1
 14 13  1  0
 15 16  2  0
 15 13  1  0
 18 17  1  0
 18 19  1  0
 19 21  1  0
 19 20  1  1
 21 22  1  6
 21 23  1  0
 22 15  1  0
 23 25  2  0
 23 24  1  0
M  END
$$$$
