TQI.pdb
     RDKit          3D

 25 24  0  0  1  0  0  0  0  0999 V2000
   18.2925  -12.4174  -14.9967 C   0  0  0  0  0  0  0  0  0  0  0  0
   17.2966  -12.9183  -16.0326 C   0  0  1  0  0  0  0  0  0  0  0  0
   16.7454  -14.1322  -15.6236 O   0  0  0  0  0  0  0  0  0  0  0  0
   16.1562  -11.9209  -16.1354 C   0  0  2  0  0  0  0  0  0  0  0  0
   15.1459  -12.3768  -17.0545 N   0  0  0  0  0  0  0  0  0  0  0  0
   16.7015  -10.6027  -16.4782 C   0  0  0  0  0  0  0  0  0  0  0  0
   17.1459  -10.4381  -17.6449 O   0  0  0  0  0  0  0  0  0  0  0  0
   16.6396   -6.3153  -18.7125 N   0  0  0  0  0  0  0  0  0  0  0  0
   17.0531   -5.3750  -17.7298 C   0  0  0  0  0  0  0  0  0  0  0  0
   17.5195   -4.2441  -18.0988 O   0  0  0  0  0  0  0  0  0  0  0  0
   16.9193   -5.7641  -16.3045 C   0  0  0  0  0  0  0  0  0  0  0  0
   16.3898   -7.1330  -16.0872 C   0  0  0  0  0  0  0  0  0  0  0  0
   17.3990   -8.2258  -15.9571 C   0  0  2  0  0  0  0  0  0  0  0  0
   16.7680   -9.4933  -15.5947 N   0  0  0  0  0  0  0  0  0  0  0  0
   18.4727   -7.8801  -14.9891 C   0  0  0  0  0  0  0  0  0  0  0  0
   18.2952   -7.9753  -13.7521 O   0  0  0  0  0  0  0  0  0  0  0  0
   22.9128  -10.2545  -14.5821 C   0  0  0  0  0  0  0  0  0  0  0  0
   21.6585   -9.4438  -14.4144 C   0  0  0  0  0  0  0  0  0  0  0  0
   21.9872   -7.9829  -14.6490 C   0  0  2  0  0  0  0  0  0  0  0  0
   23.0191   -7.5230  -13.6442 C   0  0  0  0  0  0  0  0  0  0  0  0
   20.7631   -7.1086  -14.4837 C   0  0  2  0  0  0  0  0  0  0  0  0
   19.7425   -7.4279  -15.4427 N   0  0  0  0  0  0  0  0  0  0  0  0
   21.1905   -5.7064  -14.6865 C   0  0  0  0  0  0  0  0  0  0  0  0
   21.8511   -4.9342  -13.7498 O   0  0  0  0  0  0  0  0  0  0  0  0
   20.9425   -5.1583  -15.7880 O   0  0  0  0  0  0  0  0  0  0  0  0
  2  1  1  1
  3  2  1  0
  4  2  1  0
  4  5  1  6
  6  4  1  0
  6 14  1  0
  7  6  2  0
  9 10  2  0
  9  8  1  0
 11  9  1  0
 12 11  1  0
 13 12  1  1
 14 13  1  0
 15 16  2  0
 15 13  1  0
 18 17  1  0
 18 19  1  0
 19 21  1  0
 19 20  1  1
 21 22  1  6
 21 23  1  0
 22 15  1  0
 23 25  2  0
 23 24  1  0
M  END
$$$$
