TQI.pdb
     RDKit          3D

 25 24  0  0  1  0  0  0  0  0999 V2000
   25.2292  -26.7350  -17.1370 C   0  0  0  0  0  0  0  0  0  0  0  0
   25.0729  -25.5237  -16.2290 C   0  0  1  0  0  0  0  0  0  0  0  0
   25.7790  -25.7170  -15.0421 O   0  0  0  0  0  0  0  0  0  0  0  0
   25.6800  -24.3151  -16.9193 C   0  0  2  0  0  0  0  0  0  0  0  0
   27.0648  -24.5405  -17.2434 N   0  0  0  0  0  0  0  0  0  0  0  0
   25.4644  -23.1278  -16.0848 C   0  0  0  0  0  0  0  0  0  0  0  0
   26.4795  -22.4870  -15.7045 O   0  0  0  0  0  0  0  0  0  0  0  0
   20.5221  -19.3106  -16.0601 N   0  0  0  0  0  0  0  0  0  0  0  0
   21.2855  -18.7114  -15.0214 C   0  0  0  0  0  0  0  0  0  0  0  0
   20.9073  -17.5956  -14.5267 O   0  0  0  0  0  0  0  0  0  0  0  0
   22.5015  -19.4253  -14.5603 C   0  0  0  0  0  0  0  0  0  0  0  0
   22.8155  -20.6604  -15.3202 C   0  0  0  0  0  0  0  0  0  0  0  0
   24.0304  -21.4159  -14.8927 C   0  0  2  0  0  0  0  0  0  0  0  0
   24.1962  -22.6421  -15.6705 N   0  0  0  0  0  0  0  0  0  0  0  0
   24.0156  -21.7173  -13.4374 C   0  0  0  0  0  0  0  0  0  0  0  0
   23.3342  -22.6598  -12.9704 O   0  0  0  0  0  0  0  0  0  0  0  0
   27.0114  -20.3338   -8.2102 C   0  0  0  0  0  0  0  0  0  0  0  0
   25.8407  -20.9784   -8.8978 C   0  0  0  0  0  0  0  0  0  0  0  0
   25.8451  -20.5669  -10.3565 C   0  0  2  0  0  0  0  0  0  0  0  0
   25.6494  -19.0718  -10.4669 C   0  0  0  0  0  0  0  0  0  0  0  0
   24.7232  -21.2350  -11.1215 C   0  0  2  0  0  0  0  0  0  0  0  0
   24.7805  -20.9385  -12.5258 N   0  0  0  0  0  0  0  0  0  0  0  0
   23.4477  -20.7215  -10.5741 C   0  0  0  0  0  0  0  0  0  0  0  0
   22.6097  -19.8299  -11.2164 O   0  0  0  0  0  0  0  0  0  0  0  0
   23.0818  -21.1146   -9.4398 O   0  0  0  0  0  0  0  0  0  0  0  0
  2  1  1  6
  3  2  1  0
  4  2  1  0
  4  5  1  1
  6  4  1  0
  6 14  1  0
  7  6  2  0
  9 10  2  0
  9  8  1  0
 11  9  1  0
 12 11  1  0
 13 12  1  6
 14 13  1  0
 15 16  2  0
 15 13  1  0
 18 17  1  0
 18 19  1  0
 19 21  1  0
 19 20  1  1
 21 22  1  6
 21 23  1  0
 22 15  1  0
 23 25  2  0
 23 24  1  0
M  END
$$$$
