DNP.pdb
     RDKit          3D

 24 24  0  0  1  0  0  0  0  0999 V2000
    9.5051  -16.1627   19.7575 N   0  0  0  0  0  0  0  0  0  0  0  0
    8.5601  -15.0903   19.7270 C   0  0  1  0  0  0  0  0  0  0  0  0
    7.6587  -15.1153   18.5238 C   0  0  0  0  0  0  0  0  0  0  0  0
    8.5204  -15.0599   17.3112 C   0  0  0  0  0  0  0  0  0  0  0  0
    9.1052  -16.0726   16.8603 O   0  0  0  0  0  0  0  0  0  0  0  0
    7.8134  -14.9541   21.0077 C   0  0  0  0  0  0  0  0  0  0  0  0
    6.9362  -14.0545   21.0656 O   0  0  0  0  0  0  0  0  0  0  0  0
    8.6860  -13.8468   16.6521 O   0  0  0  0  0  0  0  0  0  0  0  0
    6.1071  -18.4089   22.0490 N   0  0  0  0  0  0  0  0  0  0  0  0
    5.8821  -17.4754   23.0851 C   0  0  0  0  0  0  0  0  0  0  0  0
    4.7157  -17.0367   23.3364 O   0  0  0  0  0  0  0  0  0  0  0  0
    7.0568  -17.0146   23.8817 C   0  0  0  0  0  0  0  0  0  0  0  0
    7.3286  -15.5716   23.4163 C   0  0  2  0  0  0  0  0  0  0  0  0
    8.0345  -15.7616   22.1290 N   0  0  0  0  0  0  0  0  0  0  0  0
    8.2784  -14.9895   24.3830 C   0  0  0  0  0  0  0  0  0  0  0  0
    9.4683  -15.4679   24.3689 O   0  0  0  0  0  0  0  0  0  0  0  0
    7.9373  -13.9344   25.3162 N   0  0  0  0  0  0  0  0  0  0  0  0
    6.6823  -13.2557   25.1884 C   0  0  0  0  0  0  0  0  0  0  0  0
    6.4463  -12.5742   26.4871 C   0  0  0  0  0  0  0  0  0  0  0  0
    7.8690  -12.2202   26.9015 C   0  0  0  0  0  0  0  0  0  0  0  0
    8.6756  -13.4396   26.4181 C   0  0  1  0  0  0  0  0  0  0  0  0
    8.8230  -14.3973   27.5289 C   0  0  0  0  0  0  0  0  0  0  0  0
    8.1051  -15.5676   27.5557 O   0  0  0  0  0  0  0  0  0  0  0  0
    9.6097  -14.1421   28.4592 O   0  0  0  0  0  0  0  0  0  0  0  0
  2  1  1  1
  3  2  1  0
  4  3  1  0
  4  5  2  0
  6  2  1  0
  6  7  2  0
  8  4  1  0
 10 12  1  0
 10  9  1  0
 11 10  2  0
 13 12  1  1
 13 14  1  0
 14  6  1  0
 15 13  1  0
 16 15  2  0
 17 15  1  0
 18 17  1  0
 19 18  1  0
 19 20  1  0
 20 21  1  0
 21 17  1  0
 21 22  1  1
 23 22  1  0
 24 22  2  0
M  END
$$$$
