DNP.pdb
     RDKit          3D

 24 24  0  0  1  0  0  0  0  0999 V2000
   10.4695  -17.8357   21.5101 N   0  0  0  0  0  0  0  0  0  0  0  0
    9.6262  -16.8335   20.9369 C   0  0  1  0  0  0  0  0  0  0  0  0
    8.9429  -17.2725   19.6715 C   0  0  0  0  0  0  0  0  0  0  0  0
   10.0000  -17.6495   18.6934 C   0  0  0  0  0  0  0  0  0  0  0  0
   11.0832  -17.0251   18.6066 O   0  0  0  0  0  0  0  0  0  0  0  0
    8.6851  -16.2465   21.9300 C   0  0  0  0  0  0  0  0  0  0  0  0
    7.8978  -15.3573   21.5159 O   0  0  0  0  0  0  0  0  0  0  0  0
    9.7843  -18.7297   17.8449 O   0  0  0  0  0  0  0  0  0  0  0  0
    6.9417  -19.2940   23.7123 N   0  0  0  0  0  0  0  0  0  0  0  0
    6.4138  -18.0497   24.1230 C   0  0  0  0  0  0  0  0  0  0  0  0
    5.2884  -17.6378   23.6990 O   0  0  0  0  0  0  0  0  0  0  0  0
    7.2170  -17.2261   25.0735 C   0  0  0  0  0  0  0  0  0  0  0  0
    7.7079  -16.0165   24.2559 C   0  0  2  0  0  0  0  0  0  0  0  0
    8.6337  -16.6276   23.2755 N   0  0  0  0  0  0  0  0  0  0  0  0
    8.4976  -15.1782   25.1774 C   0  0  0  0  0  0  0  0  0  0  0  0
    9.7030  -15.5566   25.3980 O   0  0  0  0  0  0  0  0  0  0  0  0
    7.9881  -13.9844   25.8221 N   0  0  0  0  0  0  0  0  0  0  0  0
    6.7141  -13.4587   25.4313 C   0  0  0  0  0  0  0  0  0  0  0  0
    6.2921  -12.5430   26.5222 C   0  0  0  0  0  0  0  0  0  0  0  0
    7.6343  -11.9883   26.9825 C   0  0  0  0  0  0  0  0  0  0  0  0
    8.5661  -13.2075   26.8546 C   0  0  1  0  0  0  0  0  0  0  0  0
    8.6503  -13.8945   28.1561 C   0  0  0  0  0  0  0  0  0  0  0  0
    9.4000  -13.3770   29.1835 O   0  0  0  0  0  0  0  0  0  0  0  0
    8.0332  -14.9619   28.3279 O   0  0  0  0  0  0  0  0  0  0  0  0
  2  1  1  1
  3  2  1  0
  4  3  1  0
  4  5  2  0
  6  2  1  0
  6  7  2  0
  8  4  1  0
 10 12  1  0
 10  9  1  0
 11 10  2  0
 13 12  1  1
 13 14  1  0
 14  6  1  0
 15 13  1  0
 16 15  2  0
 17 15  1  0
 18 17  1  0
 19 18  1  0
 19 20  1  0
 20 21  1  0
 21 17  1  0
 21 22  1  1
 23 22  1  0
 24 22  2  0
M  END
$$$$
