DNP.pdb
     RDKit          3D

 24 24  0  0  1  0  0  0  0  0999 V2000
   10.4717  -18.7720   16.0313 N   0  0  0  0  0  0  0  0  0  0  0  0
    9.2839  -18.1489   15.5363 C   0  0  1  0  0  0  0  0  0  0  0  0
    8.4944  -19.0176   14.5966 C   0  0  0  0  0  0  0  0  0  0  0  0
    9.4492  -19.6191   13.6258 C   0  0  0  0  0  0  0  0  0  0  0  0
   10.4228  -18.9799   13.1629 O   0  0  0  0  0  0  0  0  0  0  0  0
    8.4515  -17.5667   16.6247 C   0  0  0  0  0  0  0  0  0  0  0  0
    7.5115  -16.8051   16.2808 O   0  0  0  0  0  0  0  0  0  0  0  0
    9.2599  -20.9339   13.2149 O   0  0  0  0  0  0  0  0  0  0  0  0
    6.9457  -20.4777   18.8179 N   0  0  0  0  0  0  0  0  0  0  0  0
    6.5431  -19.2040   19.2772 C   0  0  0  0  0  0  0  0  0  0  0  0
    5.3621  -18.7754   19.0835 O   0  0  0  0  0  0  0  0  0  0  0  0
    7.5468  -18.3691   20.0001 C   0  0  0  0  0  0  0  0  0  0  0  0
    7.8560  -17.1903   19.0580 C   0  0  2  0  0  0  0  0  0  0  0  0
    8.6589  -17.8197   17.9853 N   0  0  0  0  0  0  0  0  0  0  0  0
    8.7292  -16.2691   19.8093 C   0  0  0  0  0  0  0  0  0  0  0  0
    9.9041  -16.7009   20.0886 O   0  0  0  0  0  0  0  0  0  0  0  0
    8.3311  -14.9407   20.2305 N   0  0  0  0  0  0  0  0  0  0  0  0
    7.0419  -14.4381   19.8598 C   0  0  0  0  0  0  0  0  0  0  0  0
    6.7681  -13.2932   20.7658 C   0  0  0  0  0  0  0  0  0  0  0  0
    8.1693  -12.7302   20.9676 C   0  0  0  0  0  0  0  0  0  0  0  0
    9.0403  -13.9991   21.0142 C   0  0  1  0  0  0  0  0  0  0  0  0
    9.2368  -14.4034   22.4180 C   0  0  0  0  0  0  0  0  0  0  0  0
   10.1849  -13.7965   23.2043 O   0  0  0  0  0  0  0  0  0  0  0  0
    8.5335  -15.3105   22.8999 O   0  0  0  0  0  0  0  0  0  0  0  0
  2  1  1  1
  3  2  1  0
  4  3  1  0
  4  5  2  0
  6  2  1  0
  6  7  2  0
  8  4  1  0
 10 12  1  0
 10  9  1  0
 11 10  2  0
 13 12  1  1
 13 14  1  0
 14  6  1  0
 15 13  1  0
 16 15  2  0
 17 15  1  0
 18 17  1  0
 19 18  1  0
 19 20  1  0
 20 21  1  0
 21 17  1  0
 21 22  1  1
 23 22  1  0
 24 22  2  0
M  END
$$$$
