DNP.pdb
     RDKit          3D

 24 24  0  0  1  0  0  0  0  0999 V2000
    8.1291  -18.0364   19.7169 N   0  0  0  0  0  0  0  0  0  0  0  0
    8.8310  -17.1100   20.5495 C   0  0  1  0  0  0  0  0  0  0  0  0
    9.7510  -16.1945   19.7902 C   0  0  0  0  0  0  0  0  0  0  0  0
   10.7082  -17.0436   19.0295 C   0  0  0  0  0  0  0  0  0  0  0  0
   11.4951  -17.8367   19.5975 O   0  0  0  0  0  0  0  0  0  0  0  0
    7.9245  -16.3805   21.4782 C   0  0  0  0  0  0  0  0  0  0  0  0
    6.8089  -16.0197   21.0229 O   0  0  0  0  0  0  0  0  0  0  0  0
   10.7351  -16.9585   17.6419 O   0  0  0  0  0  0  0  0  0  0  0  0
    6.6386  -18.6194   25.3365 N   0  0  0  0  0  0  0  0  0  0  0  0
    7.2341  -17.4057   24.9267 C   0  0  0  0  0  0  0  0  0  0  0  0
    8.4627  -17.1655   25.1479 O   0  0  0  0  0  0  0  0  0  0  0  0
    6.3778  -16.4065   24.2231 C   0  0  0  0  0  0  0  0  0  0  0  0
    7.3465  -15.3255   23.7076 C   0  0  2  0  0  0  0  0  0  0  0  0
    8.2454  -16.0821   22.8072 N   0  0  0  0  0  0  0  0  0  0  0  0
    8.1312  -14.8739   24.8720 C   0  0  0  0  0  0  0  0  0  0  0  0
    9.2044  -15.5298   25.1228 O   0  0  0  0  0  0  0  0  0  0  0  0
    7.7556  -13.7573   25.7162 N   0  0  0  0  0  0  0  0  0  0  0  0
    6.4923  -13.1125   25.5153 C   0  0  0  0  0  0  0  0  0  0  0  0
    6.2211  -12.3388   26.7541 C   0  0  0  0  0  0  0  0  0  0  0  0
    7.6298  -11.9294   27.1650 C   0  0  0  0  0  0  0  0  0  0  0  0
    8.4650  -13.1674   26.7898 C   0  0  1  0  0  0  0  0  0  0  0  0
    8.6072  -14.0354   27.9727 C   0  0  0  0  0  0  0  0  0  0  0  0
    7.9328  -15.2282   28.0617 O   0  0  0  0  0  0  0  0  0  0  0  0
    9.3495  -13.6824   28.9075 O   0  0  0  0  0  0  0  0  0  0  0  0
  2  1  1  6
  3  2  1  0
  4  3  1  0
  4  5  2  0
  6  2  1  0
  6  7  2  0
  8  4  1  0
 10 12  1  0
 10  9  1  0
 11 10  2  0
 13 12  1  1
 13 14  1  0
 14  6  1  0
 15 13  1  0
 16 15  2  0
 17 15  1  0
 18 17  1  0
 19 18  1  0
 19 20  1  0
 20 21  1  0
 21 17  1  0
 21 22  1  1
 23 22  1  0
 24 22  2  0
M  END
$$$$
