DNP.pdb
     RDKit          3D

 24 24  0  0  1  0  0  0  0  0999 V2000
    9.8962  -17.1024   20.8566 N   0  0  0  0  0  0  0  0  0  0  0  0
    8.7694  -16.3006   20.4940 C   0  0  1  0  0  0  0  0  0  0  0  0
    7.9779  -16.8585   19.3437 C   0  0  0  0  0  0  0  0  0  0  0  0
    8.9435  -17.4200   18.3597 C   0  0  0  0  0  0  0  0  0  0  0  0
    9.7586  -18.3223   18.6637 O   0  0  0  0  0  0  0  0  0  0  0  0
    7.9205  -15.9501   21.6657 C   0  0  0  0  0  0  0  0  0  0  0  0
    6.9136  -15.2287   21.4472 O   0  0  0  0  0  0  0  0  0  0  0  0
    8.9463  -16.9313   17.0579 O   0  0  0  0  0  0  0  0  0  0  0  0
    6.7436  -19.1747   23.4553 N   0  0  0  0  0  0  0  0  0  0  0  0
    6.2339  -18.0368   24.1193 C   0  0  0  0  0  0  0  0  0  0  0  0
    5.0089  -17.7105   24.0240 O   0  0  0  0  0  0  0  0  0  0  0  0
    7.1769  -17.2224   24.9405 C   0  0  0  0  0  0  0  0  0  0  0  0
    7.3980  -15.9224   24.1443 C   0  0  2  0  0  0  0  0  0  0  0  0
    8.1818  -16.3754   22.9730 N   0  0  0  0  0  0  0  0  0  0  0  0
    8.2622  -15.0624   24.9745 C   0  0  0  0  0  0  0  0  0  0  0  0
    9.5101  -15.3578   24.9909 O   0  0  0  0  0  0  0  0  0  0  0  0
    7.7788  -13.9345   25.7457 N   0  0  0  0  0  0  0  0  0  0  0  0
    6.4309  -13.4829   25.5693 C   0  0  0  0  0  0  0  0  0  0  0  0
    6.1169  -12.6447   26.7548 C   0  0  0  0  0  0  0  0  0  0  0  0
    7.4746  -12.0177   27.0454 C   0  0  0  0  0  0  0  0  0  0  0  0
    8.4522  -13.1629   26.7230 C   0  0  1  0  0  0  0  0  0  0  0  0
    8.7692  -13.8957   27.9620 C   0  0  0  0  0  0  0  0  0  0  0  0
    9.6146  -13.3631   28.9039 O   0  0  0  0  0  0  0  0  0  0  0  0
    8.2641  -15.0163   28.1589 O   0  0  0  0  0  0  0  0  0  0  0  0
  2  1  1  1
  3  2  1  0
  4  3  1  0
  4  5  2  0
  6  2  1  0
  6  7  2  0
  8  4  1  0
 10 12  1  0
 10  9  1  0
 11 10  2  0
 13 12  1  1
 13 14  1  0
 14  6  1  0
 15 13  1  0
 16 15  2  0
 17 15  1  0
 18 17  1  0
 19 18  1  0
 19 20  1  0
 20 21  1  0
 21 17  1  0
 21 22  1  1
 23 22  1  0
 24 22  2  0
M  END
$$$$
