DNP.pdb
     RDKit          3D

 24 24  0  0  1  0  0  0  0  0999 V2000
    9.1514  -15.3903   19.9647 N   0  0  0  0  0  0  0  0  0  0  0  0
    8.6506  -14.1064   20.3456 C   0  0  1  0  0  0  0  0  0  0  0  0
    7.8018  -13.4532   19.2902 C   0  0  0  0  0  0  0  0  0  0  0  0
    8.5047  -13.6036   17.9866 C   0  0  0  0  0  0  0  0  0  0  0  0
    9.5573  -14.2738   17.8685 O   0  0  0  0  0  0  0  0  0  0  0  0
    7.9990  -14.1246   21.6841 C   0  0  0  0  0  0  0  0  0  0  0  0
    7.4984  -13.0450   22.0913 O   0  0  0  0  0  0  0  0  0  0  0  0
    7.9809  -12.9822   16.8584 O   0  0  0  0  0  0  0  0  0  0  0  0
    5.4644  -15.7649   25.9320 N   0  0  0  0  0  0  0  0  0  0  0  0
    6.3536  -16.7546   25.4573 C   0  0  0  0  0  0  0  0  0  0  0  0
    6.7618  -17.6922   26.2125 O   0  0  0  0  0  0  0  0  0  0  0  0
    6.8044  -16.6701   24.0373 C   0  0  0  0  0  0  0  0  0  0  0  0
    7.3520  -15.2408   23.8642 C   0  0  2  0  0  0  0  0  0  0  0  0
    7.9171  -15.2614   22.4961 N   0  0  0  0  0  0  0  0  0  0  0  0
    8.4644  -15.0975   24.8220 C   0  0  0  0  0  0  0  0  0  0  0  0
    9.4828  -15.8524   24.6272 O   0  0  0  0  0  0  0  0  0  0  0  0
    8.4577  -14.1704   25.9361 N   0  0  0  0  0  0  0  0  0  0  0  0
    7.3103  -13.3425   26.1602 C   0  0  0  0  0  0  0  0  0  0  0  0
    7.4212  -12.8514   27.5577 C   0  0  0  0  0  0  0  0  0  0  0  0
    8.9319  -12.7302   27.7128 C   0  0  0  0  0  0  0  0  0  0  0  0
    9.4520  -13.9417   26.9174 C   0  0  1  0  0  0  0  0  0  0  0  0
    9.6673  -15.0726   27.8381 C   0  0  0  0  0  0  0  0  0  0  0  0
   10.7952  -15.1471   28.6176 O   0  0  0  0  0  0  0  0  0  0  0  0
    8.8142  -15.9762   27.9105 O   0  0  0  0  0  0  0  0  0  0  0  0
  2  1  1  6
  3  2  1  0
  4  3  1  0
  4  5  2  0
  6  2  1  0
  6  7  2  0
  8  4  1  0
 10 12  1  0
 10  9  1  0
 11 10  2  0
 13 12  1  1
 13 14  1  0
 14  6  1  0
 15 13  1  0
 16 15  2  0
 17 15  1  0
 18 17  1  0
 19 18  1  0
 19 20  1  0
 20 21  1  0
 21 17  1  0
 21 22  1  1
 23 22  1  0
 24 22  2  0
M  END
$$$$
