DNP.pdb
     RDKit          3D

 24 24  0  0  1  0  0  0  0  0999 V2000
    9.7900  -16.4456   20.2473 N   0  0  0  0  0  0  0  0  0  0  0  0
    8.5468  -15.7404   20.2129 C   0  0  1  0  0  0  0  0  0  0  0  0
    7.6328  -16.1838   19.1043 C   0  0  0  0  0  0  0  0  0  0  0  0
    8.4159  -16.1687   17.8384 C   0  0  0  0  0  0  0  0  0  0  0  0
    8.6903  -17.2178   17.2099 O   0  0  0  0  0  0  0  0  0  0  0  0
    7.8743  -15.7087   21.5407 C   0  0  0  0  0  0  0  0  0  0  0  0
    6.7833  -15.0872   21.6147 O   0  0  0  0  0  0  0  0  0  0  0  0
    8.8609  -14.9529   17.3311 O   0  0  0  0  0  0  0  0  0  0  0  0
    5.9116  -17.8803   26.1045 N   0  0  0  0  0  0  0  0  0  0  0  0
    7.2941  -17.6479   25.9305 C   0  0  0  0  0  0  0  0  0  0  0  0
    8.0534  -17.4098   26.9218 O   0  0  0  0  0  0  0  0  0  0  0  0
    7.8434  -17.6894   24.5436 C   0  0  0  0  0  0  0  0  0  0  0  0
    7.7248  -16.2488   24.0112 C   0  0  2  0  0  0  0  0  0  0  0  0
    8.3856  -16.3243   22.6887 N   0  0  0  0  0  0  0  0  0  0  0  0
    8.5516  -15.4046   24.8939 C   0  0  0  0  0  0  0  0  0  0  0  0
    9.7946  -15.7107   24.9717 O   0  0  0  0  0  0  0  0  0  0  0  0
    8.0380  -14.2804   25.6508 N   0  0  0  0  0  0  0  0  0  0  0  0
    6.6857  -13.8520   25.4509 C   0  0  0  0  0  0  0  0  0  0  0  0
    6.3396  -13.0123   26.6264 C   0  0  0  0  0  0  0  0  0  0  0  0
    7.6823  -12.3614   26.9341 C   0  0  0  0  0  0  0  0  0  0  0  0
    8.6833  -13.4922   26.6337 C   0  0  1  0  0  0  0  0  0  0  0  0
    8.9930  -14.2126   27.8819 C   0  0  0  0  0  0  0  0  0  0  0  0
    9.7769  -13.6416   28.8540 O   0  0  0  0  0  0  0  0  0  0  0  0
    8.5382  -15.3578   28.0587 O   0  0  0  0  0  0  0  0  0  0  0  0
  2  1  1  1
  3  2  1  0
  4  3  1  0
  4  5  2  0
  6  2  1  0
  6  7  2  0
  8  4  1  0
 10 12  1  0
 10  9  1  0
 11 10  2  0
 13 12  1  1
 13 14  1  0
 14  6  1  0
 15 13  1  0
 16 15  2  0
 17 15  1  0
 18 17  1  0
 19 18  1  0
 19 20  1  0
 20 21  1  0
 21 17  1  0
 21 22  1  1
 23 22  1  0
 24 22  2  0
M  END
$$$$
