DNP.pdb
     RDKit          3D

 24 24  0  0  1  0  0  0  0  0999 V2000
    9.3116  -16.2456   20.4327 N   0  0  0  0  0  0  0  0  0  0  0  0
    8.5112  -15.0657   20.5387 C   0  0  1  0  0  0  0  0  0  0  0  0
    7.5788  -14.8636   19.3765 C   0  0  0  0  0  0  0  0  0  0  0  0
    8.3961  -14.8780   18.1324 C   0  0  0  0  0  0  0  0  0  0  0  0
    8.8199  -15.9422   17.6237 O   0  0  0  0  0  0  0  0  0  0  0  0
    7.8264  -14.9598   21.8563 C   0  0  0  0  0  0  0  0  0  0  0  0
    7.2650  -13.8663   22.1230 O   0  0  0  0  0  0  0  0  0  0  0  0
    8.7029  -13.6735   17.5090 O   0  0  0  0  0  0  0  0  0  0  0  0
    6.4497  -18.8318   22.7461 N   0  0  0  0  0  0  0  0  0  0  0  0
    6.0040  -17.8914   23.7014 C   0  0  0  0  0  0  0  0  0  0  0  0
    4.7792  -17.5601   23.7799 O   0  0  0  0  0  0  0  0  0  0  0  0
    7.0149  -17.2930   24.6216 C   0  0  0  0  0  0  0  0  0  0  0  0
    7.1934  -15.8387   24.1464 C   0  0  2  0  0  0  0  0  0  0  0  0
    7.7769  -15.9964   22.7951 N   0  0  0  0  0  0  0  0  0  0  0  0
    8.2132  -15.2319   25.0225 C   0  0  0  0  0  0  0  0  0  0  0  0
    9.3765  -15.7712   24.9985 O   0  0  0  0  0  0  0  0  0  0  0  0
    7.9663  -14.0896   25.8797 N   0  0  0  0  0  0  0  0  0  0  0  0
    6.7393  -13.3615   25.7518 C   0  0  0  0  0  0  0  0  0  0  0  0
    6.5976  -12.5672   26.9991 C   0  0  0  0  0  0  0  0  0  0  0  0
    8.0534  -12.2527   27.3199 C   0  0  0  0  0  0  0  0  0  0  0  0
    8.7787  -13.5456   26.9035 C   0  0  1  0  0  0  0  0  0  0  0  0
    8.9347  -14.4174   28.0818 C   0  0  0  0  0  0  0  0  0  0  0  0
    9.8690  -14.1407   29.0494 O   0  0  0  0  0  0  0  0  0  0  0  0
    8.2094  -15.4218   28.2028 O   0  0  0  0  0  0  0  0  0  0  0  0
  2  1  1  6
  3  2  1  0
  4  3  1  0
  4  5  2  0
  6  2  1  0
  6  7  2  0
  8  4  1  0
 10 12  1  0
 10  9  1  0
 11 10  2  0
 13 12  1  1
 13 14  1  0
 14  6  1  0
 15 13  1  0
 16 15  2  0
 17 15  1  0
 18 17  1  0
 19 18  1  0
 19 20  1  0
 20 21  1  0
 21 17  1  0
 21 22  1  1
 23 22  1  0
 24 22  2  0
M  END
$$$$
