TTQ.pdb
     RDKit          3D

 24 23  0  0  1  0  0  0  0  0999 V2000
   11.2713  -14.7400   16.8069 C   0  0  0  0  0  0  0  0  0  0  0  0
   10.9326  -14.5800   18.2599 C   0  0  1  0  0  0  0  0  0  0  0  0
   11.8783  -13.7767   18.9066 O   0  0  0  0  0  0  0  0  0  0  0  0
    9.5315  -14.1019   18.5041 C   0  0  2  0  0  0  0  0  0  0  0  0
    9.4217  -12.7705   17.9195 N   0  0  0  0  0  0  0  0  0  0  0  0
    9.2587  -13.9763   19.9619 C   0  0  0  0  0  0  0  0  0  0  0  0
    9.6291  -12.9359   20.5921 O   0  0  0  0  0  0  0  0  0  0  0  0
    5.8973  -14.5644   21.7652 C   0  0  0  0  0  0  0  0  0  0  0  0
    6.9791  -15.3347   22.4497 C   0  0  1  0  0  0  0  0  0  0  0  0
    6.8719  -16.6871   22.1322 O   0  0  0  0  0  0  0  0  0  0  0  0
    8.3634  -14.8293   22.1134 C   0  0  2  0  0  0  0  0  0  0  0  0
    8.5862  -14.9946   20.6936 N   0  0  0  0  0  0  0  0  0  0  0  0
    9.4086  -15.5160   22.9158 C   0  0  0  0  0  0  0  0  0  0  0  0
   10.2622  -16.2711   22.3862 O   0  0  0  0  0  0  0  0  0  0  0  0
   11.1873  -13.6419   28.6012 N   0  0  0  0  0  0  0  0  0  0  0  0
    9.9641  -14.3547   28.4571 C   0  0  0  0  0  0  0  0  0  0  0  0
    9.1426  -14.2292   29.4068 O   0  0  0  0  0  0  0  0  0  0  0  0
    9.7011  -15.1814   27.2632 C   0  0  0  0  0  0  0  0  0  0  0  0
   10.8500  -15.3697   26.3522 C   0  0  0  0  0  0  0  0  0  0  0  0
   10.4722  -16.1223   25.1210 C   0  0  2  0  0  0  0  0  0  0  0  0
    9.4898  -15.3486   24.3251 N   0  0  0  0  0  0  0  0  0  0  0  0
    9.8827  -17.4519   25.3868 C   0  0  0  0  0  0  0  0  0  0  0  0
    8.6852  -17.6505   25.0814 O   0  0  0  0  0  0  0  0  0  0  0  0
   10.5813  -18.4989   25.9569 O   0  0  0  0  0  0  0  0  0  0  0  0
  2  1  1  6
  2  4  1  0
  2  3  1  0
  4  5  1  6
  6  4  1  0
  7  6  2  0
  9  8  1  6
  9 11  1  0
 10  9  1  0
 11 13  1  0
 11 12  1  6
 12  6  1  0
 13 21  1  0
 14 13  2  0
 16 15  1  0
 16 18  1  0
 17 16  2  0
 19 18  1  0
 20 19  1  1
 20 22  1  0
 21 20  1  0
 22 24  1  0
 23 22  2  0
M  END
$$$$
