TTQ.pdb
     RDKit          3D

 24 23  0  0  1  0  0  0  0  0999 V2000
    8.5792  -19.9329   19.2744 C   0  0  0  0  0  0  0  0  0  0  0  0
    8.6516  -19.2072   17.9630 C   0  0  1  0  0  0  0  0  0  0  0  0
    8.1807  -20.0133   16.9207 O   0  0  0  0  0  0  0  0  0  0  0  0
    7.9822  -17.8645   17.9783 C   0  0  2  0  0  0  0  0  0  0  0  0
    8.0911  -17.3125   16.6331 N   0  0  0  0  0  0  0  0  0  0  0  0
    8.6811  -16.9322   18.9044 C   0  0  0  0  0  0  0  0  0  0  0  0
    9.8720  -16.5617   18.6567 O   0  0  0  0  0  0  0  0  0  0  0  0
    7.1102  -13.7336   20.8645 C   0  0  0  0  0  0  0  0  0  0  0  0
    7.8317  -14.7046   21.7413 C   0  0  1  0  0  0  0  0  0  0  0  0
    6.9137  -15.4977   22.4266 O   0  0  0  0  0  0  0  0  0  0  0  0
    8.8040  -15.5752   20.9785 C   0  0  2  0  0  0  0  0  0  0  0  0
    8.0574  -16.4285   20.0799 N   0  0  0  0  0  0  0  0  0  0  0  0
    9.6680  -16.3653   21.8933 C   0  0  0  0  0  0  0  0  0  0  0  0
    9.3811  -17.5431   22.2247 O   0  0  0  0  0  0  0  0  0  0  0  0
   16.5710  -17.3914   24.3521 N   0  0  0  0  0  0  0  0  0  0  0  0
   15.5238  -16.5409   23.8992 C   0  0  0  0  0  0  0  0  0  0  0  0
   15.8840  -15.4095   23.4715 O   0  0  0  0  0  0  0  0  0  0  0  0
   14.1153  -16.9798   23.9405 C   0  0  0  0  0  0  0  0  0  0  0  0
   13.1846  -16.2186   23.0806 C   0  0  0  0  0  0  0  0  0  0  0  0
   11.7710  -16.6619   23.2539 C   0  0  2  0  0  0  0  0  0  0  0  0
   10.8634  -15.8213   22.4371 N   0  0  0  0  0  0  0  0  0  0  0  0
   11.2916  -16.6080   24.6515 C   0  0  0  0  0  0  0  0  0  0  0  0
   10.6393  -15.6071   25.0251 O   0  0  0  0  0  0  0  0  0  0  0  0
   11.5219  -17.6061   25.5788 O   0  0  0  0  0  0  0  0  0  0  0  0
  2  1  1  1
  2  4  1  0
  2  3  1  0
  4  5  1  6
  6  4  1  0
  7  6  2  0
  9  8  1  6
  9 11  1  0
 10  9  1  0
 11 13  1  0
 11 12  1  6
 12  6  1  0
 13 21  1  0
 14 13  2  0
 16 15  1  0
 16 18  1  0
 17 16  2  0
 19 18  1  0
 20 19  1  1
 20 22  1  0
 21 20  1  0
 22 24  1  0
 23 22  2  0
M  END
$$$$
