TTQ.pdb
     RDKit          3D

 24 23  0  0  1  0  0  0  0  0999 V2000
    5.3677  -19.6786   18.9681 C   0  0  0  0  0  0  0  0  0  0  0  0
    6.4783  -18.7508   19.3648 C   0  0  1  0  0  0  0  0  0  0  0  0
    7.6961  -19.4355   19.4419 O   0  0  0  0  0  0  0  0  0  0  0  0
    6.5784  -17.5262   18.5037 C   0  0  2  0  0  0  0  0  0  0  0  0
    6.8410  -17.9764   17.1419 N   0  0  0  0  0  0  0  0  0  0  0  0
    7.7234  -16.6728   18.9234 C   0  0  0  0  0  0  0  0  0  0  0  0
    8.8307  -16.7418   18.3022 O   0  0  0  0  0  0  0  0  0  0  0  0
    7.7729  -12.9384   19.5813 C   0  0  0  0  0  0  0  0  0  0  0  0
    8.4168  -13.6148   20.7475 C   0  0  1  0  0  0  0  0  0  0  0  0
    7.5709  -13.5610   21.8534 O   0  0  0  0  0  0  0  0  0  0  0  0
    8.8026  -15.0471   20.4566 C   0  0  2  0  0  0  0  0  0  0  0  0
    7.6266  -15.7643   20.0142 N   0  0  0  0  0  0  0  0  0  0  0  0
    9.4295  -15.6974   21.6364 C   0  0  0  0  0  0  0  0  0  0  0  0
    8.7720  -16.4296   22.4179 O   0  0  0  0  0  0  0  0  0  0  0  0
   11.6651  -20.0152   25.8992 N   0  0  0  0  0  0  0  0  0  0  0  0
   11.1828  -19.3820   24.7195 C   0  0  0  0  0  0  0  0  0  0  0  0
   10.0000  -19.6715   24.3877 O   0  0  0  0  0  0  0  0  0  0  0  0
   12.0342  -18.4522   23.9525 C   0  0  0  0  0  0  0  0  0  0  0  0
   11.3528  -17.7059   22.8737 C   0  0  0  0  0  0  0  0  0  0  0  0
   11.4300  -16.2302   23.0771 C   0  0  2  0  0  0  0  0  0  0  0  0
   10.8079  -15.5192   21.9349 N   0  0  0  0  0  0  0  0  0  0  0  0
   12.8081  -15.7156   23.2257 C   0  0  0  0  0  0  0  0  0  0  0  0
   13.3648  -15.1930   22.2339 O   0  0  0  0  0  0  0  0  0  0  0  0
   13.5251  -15.7768   24.4053 O   0  0  0  0  0  0  0  0  0  0  0  0
  2  1  1  6
  2  4  1  0
  2  3  1  0
  4  5  1  6
  6  4  1  0
  7  6  2  0
  9  8  1  6
  9 11  1  0
 10  9  1  0
 11 13  1  0
 11 12  1  1
 12  6  1  0
 13 21  1  0
 14 13  2  0
 16 15  1  0
 16 18  1  0
 17 16  2  0
 19 18  1  0
 20 19  1  6
 20 22  1  0
 21 20  1  0
 22 24  1  0
 23 22  2  0
M  END
$$$$
