TTQ.pdb
     RDKit          3D

 24 23  0  0  1  0  0  0  0  0999 V2000
   13.7749  -19.5995   20.2798 C   0  0  0  0  0  0  0  0  0  0  0  0
   13.9802  -18.1181   20.4021 C   0  0  1  0  0  0  0  0  0  0  0  0
   15.3301  -17.7871   20.2408 O   0  0  0  0  0  0  0  0  0  0  0  0
   13.0941  -17.3095   19.5010 C   0  0  2  0  0  0  0  0  0  0  0  0
   13.9494  -16.3723   18.7823 N   0  0  0  0  0  0  0  0  0  0  0  0
   12.1179  -16.5112   20.2915 C   0  0  0  0  0  0  0  0  0  0  0  0
   12.4642  -15.3942   20.7909 O   0  0  0  0  0  0  0  0  0  0  0  0
    7.5458  -15.9048   22.0908 C   0  0  0  0  0  0  0  0  0  0  0  0
    8.5001  -16.5931   21.1701 C   0  0  1  0  0  0  0  0  0  0  0  0
    8.1928  -16.2799   19.8477 O   0  0  0  0  0  0  0  0  0  0  0  0
    9.9446  -16.2568   21.4622 C   0  0  2  0  0  0  0  0  0  0  0  0
   10.7853  -16.9567   20.5155 N   0  0  0  0  0  0  0  0  0  0  0  0
   10.3111  -16.5815   22.8651 C   0  0  0  0  0  0  0  0  0  0  0  0
   10.9486  -17.6235   23.1602 O   0  0  0  0  0  0  0  0  0  0  0  0
   10.7148  -14.0204   29.8335 N   0  0  0  0  0  0  0  0  0  0  0  0
    9.9558  -14.2176   28.6461 C   0  0  0  0  0  0  0  0  0  0  0  0
    8.9490  -13.4689   28.5097 O   0  0  0  0  0  0  0  0  0  0  0  0
   10.3438  -15.2408   27.6559 C   0  0  0  0  0  0  0  0  0  0  0  0
    9.9599  -14.9531   26.2577 C   0  0  0  0  0  0  0  0  0  0  0  0
   10.3390  -16.0602   25.3327 C   0  0  2  0  0  0  0  0  0  0  0  0
    9.9550  -15.7235   23.9412 N   0  0  0  0  0  0  0  0  0  0  0  0
    9.7174  -17.3599   25.6650 C   0  0  0  0  0  0  0  0  0  0  0  0
    8.5902  -17.6260   25.1901 O   0  0  0  0  0  0  0  0  0  0  0  0
   10.3121  -18.3081   26.4753 O   0  0  0  0  0  0  0  0  0  0  0  0
  2  1  1  6
  2  4  1  0
  2  3  1  0
  4  5  1  1
  6  4  1  0
  7  6  2  0
  9  8  1  1
  9 11  1  0
 10  9  1  0
 11 13  1  0
 11 12  1  6
 12  6  1  0
 13 21  1  0
 14 13  2  0
 16 15  1  0
 16 18  1  0
 17 16  2  0
 19 18  1  0
 20 19  1  1
 20 22  1  0
 21 20  1  0
 22 24  1  0
 23 22  2  0
M  END
$$$$
