KPY.pdb
     RDKit          3D

 29 30  0  0  1  0  0  0  0  0999 V2000
   24.1191  -20.8202  -20.3439 N   0  0  0  0  0  0  0  0  0  0  0  0
   24.8082  -19.7445  -19.6660 C   0  0  1  0  0  0  0  0  0  0  0  0
   23.8063  -18.8082  -19.0794 C   0  0  0  0  0  0  0  0  0  0  0  0
   22.9103  -18.0790  -19.9910 C   0  0  0  0  0  0  0  0  0  0  0  0
   21.9546  -17.1371  -19.3360 C   0  0  0  0  0  0  0  0  0  0  0  0
   21.0239  -16.4936  -20.3778 C   0  0  0  0  0  0  0  0  0  0  0  0
   20.0943  -15.6774  -19.6217 N   0  0  0  0  0  0  0  0  0  0  0  0
   25.6416  -20.3303  -18.5785 C   0  0  0  0  0  0  0  0  0  0  0  0
   25.3054  -21.4414  -18.1111 O   0  0  0  0  0  0  0  0  0  0  0  0
   26.7969  -19.7024  -18.0394 N   0  0  0  0  0  0  0  0  0  0  0  0
   27.4196  -18.4557  -18.4506 C   0  0  0  0  0  0  0  0  0  0  0  0
   28.8997  -18.8351  -18.3304 C   0  0  0  0  0  0  0  0  0  0  0  0
   28.8905  -19.4455  -16.9378 C   0  0  0  0  0  0  0  0  0  0  0  0
   27.5924  -20.2198  -16.9494 C   0  0  1  0  0  0  0  0  0  0  0  0
   26.9275  -19.9851  -15.6322 C   0  0  0  0  0  0  0  0  0  0  0  0
   26.0916  -19.0497  -15.5579 O   0  0  0  0  0  0  0  0  0  0  0  0
   25.7625  -20.0093   -6.8713 O   0  0  0  0  0  0  0  0  0  0  0  0
   26.1373  -20.3416   -8.1587 C   0  0  0  0  0  0  0  0  0  0  0  0
   27.2480  -19.7664   -8.7159 C   0  0  0  0  0  0  0  0  0  0  0  0
   27.6437  -20.0763   -9.9896 C   0  0  0  0  0  0  0  0  0  0  0  0
   26.9106  -20.9906  -10.7384 C   0  0  0  0  0  0  0  0  0  0  0  0
   27.3652  -21.2926  -12.1122 C   0  0  0  0  0  0  0  0  0  0  0  0
   26.6981  -20.4097  -13.1518 C   0  0  2  0  0  0  0  0  0  0  0  0
   27.1900  -20.7508  -14.4893 N   0  0  0  0  0  0  0  0  0  0  0  0
   26.9674  -18.9695  -12.9428 C   0  0  0  0  0  0  0  0  0  0  0  0
   28.2105  -18.4191  -13.2268 O   0  0  0  0  0  0  0  0  0  0  0  0
   25.7926  -21.5686  -10.1760 C   0  0  0  0  0  0  0  0  0  0  0  0
   25.4003  -21.2453   -8.8794 C   0  0  0  0  0  0  0  0  0  0  0  0
   26.0943  -18.1712  -12.5005 O   0  0  0  0  0  0  0  0  0  0  0  0
  2  1  1  1
  3  4  1  0
  3  2  1  0
  5  4  1  0
  6  5  1  0
  7  6  1  0
  8  2  1  0
  8 10  1  0
  9  8  2  0
 10 14  1  0
 11 12  1  0
 11 10  1  0
 12 13  1  0
 14 13  1  0
 14 15  1  1
 15 16  2  0
 17 18  1  0
 18 28  2  0
 19 18  1  0
 19 20  2  0
 20 21  1  0
 21 27  2  0
 21 22  1  0
 23 22  1  1
 23 25  1  0
 24 15  1  0
 24 23  1  0
 25 26  1  0
 28 27  1  0
 29 25  2  0
M  END
$$$$
