KPY.pdb
     RDKit          3D

 29 30  0  0  1  0  0  0  0  0999 V2000
   23.5029  -17.4748  -19.4042 N   0  0  0  0  0  0  0  0  0  0  0  0
   24.5516  -16.8023  -18.6698 C   0  0  1  0  0  0  0  0  0  0  0  0
   23.9409  -15.8990  -17.6522 C   0  0  0  0  0  0  0  0  0  0  0  0
   23.0330  -14.8363  -18.1128 C   0  0  0  0  0  0  0  0  0  0  0  0
   22.5846  -13.8740  -17.0628 C   0  0  0  0  0  0  0  0  0  0  0  0
   21.6601  -12.8025  -17.6651 C   0  0  0  0  0  0  0  0  0  0  0  0
   21.2463  -11.9712  -16.5517 N   0  0  0  0  0  0  0  0  0  0  0  0
   25.3844  -17.8327  -17.9878 C   0  0  0  0  0  0  0  0  0  0  0  0
   24.8133  -18.8549  -17.5460 O   0  0  0  0  0  0  0  0  0  0  0  0
   26.7900  -17.7246  -17.8088 N   0  0  0  0  0  0  0  0  0  0  0  0
   27.6642  -16.6263  -18.1836 C   0  0  0  0  0  0  0  0  0  0  0  0
   28.8820  -17.4057  -18.6920 C   0  0  0  0  0  0  0  0  0  0  0  0
   29.0628  -18.3736  -17.5333 C   0  0  0  0  0  0  0  0  0  0  0  0
   27.6316  -18.7333  -17.2063 C   0  0  1  0  0  0  0  0  0  0  0  0
   27.5051  -18.7283  -15.7176 C   0  0  0  0  0  0  0  0  0  0  0  0
   27.6057  -17.6240  -15.1262 O   0  0  0  0  0  0  0  0  0  0  0  0
   25.5532  -20.6318   -7.3931 O   0  0  0  0  0  0  0  0  0  0  0  0
   25.6415  -20.4405   -8.7584 C   0  0  0  0  0  0  0  0  0  0  0  0
   25.0200  -21.3132   -9.6111 C   0  0  0  0  0  0  0  0  0  0  0  0
   25.0900  -21.1490  -10.9687 C   0  0  0  0  0  0  0  0  0  0  0  0
   25.8029  -20.0797  -11.5002 C   0  0  0  0  0  0  0  0  0  0  0  0
   25.8619  -19.9414  -12.9708 C   0  0  0  0  0  0  0  0  0  0  0  0
   27.2868  -19.9089  -13.4942 C   0  0  2  0  0  0  0  0  0  0  0  0
   27.2823  -19.8844  -14.9593 N   0  0  0  0  0  0  0  0  0  0  0  0
   28.0794  -21.0883  -13.0807 C   0  0  0  0  0  0  0  0  0  0  0  0
   28.0685  -22.2617  -13.8237 O   0  0  0  0  0  0  0  0  0  0  0  0
   26.4281  -19.2022  -10.6402 C   0  0  0  0  0  0  0  0  0  0  0  0
   26.3494  -19.3799   -9.2612 C   0  0  0  0  0  0  0  0  0  0  0  0
   28.8001  -21.0942  -12.0435 O   0  0  0  0  0  0  0  0  0  0  0  0
  2  1  1  1
  3  4  1  0
  3  2  1  0
  5  4  1  0
  6  5  1  0
  7  6  1  0
  8  2  1  0
  8 10  1  0
  9  8  2  0
 10 14  1  0
 11 12  1  0
 11 10  1  0
 12 13  1  0
 14 13  1  0
 14 15  1  1
 15 16  2  0
 17 18  1  0
 18 28  2  0
 19 18  1  0
 19 20  2  0
 20 21  1  0
 21 27  2  0
 21 22  1  0
 23 22  1  6
 23 25  1  0
 24 15  1  0
 24 23  1  0
 25 26  1  0
 28 27  1  0
 29 25  2  0
M  END
$$$$
