KPY.pdb
     RDKit          3D

 29 30  0  0  1  0  0  0  0  0999 V2000
   27.9113  -24.8139  -16.5355 N   0  0  0  0  0  0  0  0  0  0  0  0
   27.5884  -23.4355  -16.8307 C   0  0  1  0  0  0  0  0  0  0  0  0
   26.4914  -23.3905  -17.8403 C   0  0  0  0  0  0  0  0  0  0  0  0
   26.8237  -23.6558  -19.2491 C   0  0  0  0  0  0  0  0  0  0  0  0
   25.7074  -23.4591  -20.2210 C   0  0  0  0  0  0  0  0  0  0  0  0
   26.1502  -23.8411  -21.6435 C   0  0  0  0  0  0  0  0  0  0  0  0
   25.0070  -23.5746  -22.4945 N   0  0  0  0  0  0  0  0  0  0  0  0
   27.1369  -22.7774  -15.5724 C   0  0  0  0  0  0  0  0  0  0  0  0
   26.7612  -23.5066  -14.6273 O   0  0  0  0  0  0  0  0  0  0  0  0
   27.1074  -21.3697  -15.3805 N   0  0  0  0  0  0  0  0  0  0  0  0
   27.5038  -20.3251  -16.3094 C   0  0  0  0  0  0  0  0  0  0  0  0
   28.1934  -19.3502  -15.3486 C   0  0  0  0  0  0  0  0  0  0  0  0
   27.1275  -19.2664  -14.2674 C   0  0  0  0  0  0  0  0  0  0  0  0
   26.6688  -20.7037  -14.1751 C   0  0  1  0  0  0  0  0  0  0  0  0
   25.1781  -20.6850  -14.0764 C   0  0  0  0  0  0  0  0  0  0  0  0
   24.5220  -20.6355  -15.1471 O   0  0  0  0  0  0  0  0  0  0  0  0
   17.0122  -20.9006  -10.6882 O   0  0  0  0  0  0  0  0  0  0  0  0
   18.3850  -20.8464  -10.8321 C   0  0  0  0  0  0  0  0  0  0  0  0
   19.0702  -21.9520  -11.2602 C   0  0  0  0  0  0  0  0  0  0  0  0
   20.4308  -21.9280  -11.4123 C   0  0  0  0  0  0  0  0  0  0  0  0
   21.1379  -20.7644  -11.1292 C   0  0  0  0  0  0  0  0  0  0  0  0
   22.6065  -20.7810  -11.2978 C   0  0  0  0  0  0  0  0  0  0  0  0
   23.0250  -20.6792  -12.7537 C   0  0  2  0  0  0  0  0  0  0  0  0
   24.4860  -20.7195  -12.8594 N   0  0  0  0  0  0  0  0  0  0  0  0
   22.5763  -19.4235  -13.3957 C   0  0  0  0  0  0  0  0  0  0  0  0
   21.4008  -19.3701  -14.1334 O   0  0  0  0  0  0  0  0  0  0  0  0
   20.4465  -19.6525  -10.6981 C   0  0  0  0  0  0  0  0  0  0  0  0
   19.0626  -19.6893  -10.5475 C   0  0  0  0  0  0  0  0  0  0  0  0
   23.2279  -18.3449  -13.3100 O   0  0  0  0  0  0  0  0  0  0  0  0
  2  1  1  1
  3  4  1  0
  3  2  1  0
  5  4  1  0
  6  5  1  0
  7  6  1  0
  8  2  1  0
  8 10  1  0
  9  8  2  0
 10 14  1  0
 11 12  1  0
 11 10  1  0
 12 13  1  0
 14 13  1  0
 14 15  1  6
 15 16  2  0
 17 18  1  0
 18 28  2  0
 19 18  1  0
 19 20  2  0
 20 21  1  0
 21 27  2  0
 21 22  1  0
 23 22  1  1
 23 25  1  0
 24 15  1  0
 24 23  1  0
 25 26  1  0
 28 27  1  0
 29 25  2  0
M  END
$$$$
