KPY.pdb
     RDKit          3D

 29 30  0  0  1  0  0  0  0  0999 V2000
   26.0852  -22.7569  -16.2681 N   0  0  0  0  0  0  0  0  0  0  0  0
   24.9650  -23.0960  -17.1175 C   0  0  1  0  0  0  0  0  0  0  0  0
   24.7825  -24.5763  -17.1268 C   0  0  0  0  0  0  0  0  0  0  0  0
   25.9602  -25.4264  -17.3635 C   0  0  0  0  0  0  0  0  0  0  0  0
   25.7086  -26.8978  -17.3273 C   0  0  0  0  0  0  0  0  0  0  0  0
   27.0215  -27.6793  -17.5038 C   0  0  0  0  0  0  0  0  0  0  0  0
   26.6606  -29.0797  -17.4021 N   0  0  0  0  0  0  0  0  0  0  0  0
   23.7426  -22.4452  -16.5674 C   0  0  0  0  0  0  0  0  0  0  0  0
   23.6630  -22.2916  -15.3280 O   0  0  0  0  0  0  0  0  0  0  0  0
   22.6602  -21.9876  -17.3666 N   0  0  0  0  0  0  0  0  0  0  0  0
   22.5097  -22.0656  -18.8096 C   0  0  0  0  0  0  0  0  0  0  0  0
   21.8783  -20.6983  -19.0942 C   0  0  0  0  0  0  0  0  0  0  0  0
   20.7730  -20.7094  -18.0501 C   0  0  0  0  0  0  0  0  0  0  0  0
   21.4758  -21.3294  -16.8642 C   0  0  1  0  0  0  0  0  0  0  0  0
   20.5277  -22.3089  -16.2528 C   0  0  0  0  0  0  0  0  0  0  0  0
   20.3797  -23.4163  -16.8283 O   0  0  0  0  0  0  0  0  0  0  0  0
   23.7055  -27.1747  -14.1001 O   0  0  0  0  0  0  0  0  0  0  0  0
   22.6933  -26.2640  -13.8667 C   0  0  0  0  0  0  0  0  0  0  0  0
   21.3924  -26.6882  -13.8153 C   0  0  0  0  0  0  0  0  0  0  0  0
   20.3684  -25.8086  -13.5857 C   0  0  0  0  0  0  0  0  0  0  0  0
   20.6450  -24.4584  -13.4001 C   0  0  0  0  0  0  0  0  0  0  0  0
   19.5117  -23.5392  -13.1629 C   0  0  0  0  0  0  0  0  0  0  0  0
   18.9027  -23.0230  -14.4543 C   0  0  2  0  0  0  0  0  0  0  0  0
   19.8044  -22.0530  -15.0812 N   0  0  0  0  0  0  0  0  0  0  0  0
   17.6054  -22.3415  -14.2473 C   0  0  0  0  0  0  0  0  0  0  0  0
   17.4628  -20.9781  -14.4706 O   0  0  0  0  0  0  0  0  0  0  0  0
   21.9553  -24.0331  -13.4523 C   0  0  0  0  0  0  0  0  0  0  0  0
   22.9881  -24.9374  -13.6865 C   0  0  0  0  0  0  0  0  0  0  0  0
   16.5697  -22.9526  -13.8613 O   0  0  0  0  0  0  0  0  0  0  0  0
  2  1  1  1
  3  4  1  0
  3  2  1  0
  5  4  1  0
  6  5  1  0
  7  6  1  0
  8  2  1  0
  8 10  1  0
  9  8  2  0
 10 14  1  0
 11 12  1  0
 11 10  1  0
 12 13  1  0
 14 13  1  0
 14 15  1  6
 15 16  2  0
 17 18  1  0
 18 28  2  0
 19 18  1  0
 19 20  2  0
 20 21  1  0
 21 27  2  0
 21 22  1  0
 23 22  1  1
 23 25  1  0
 24 15  1  0
 24 23  1  0
 25 26  1  0
 28 27  1  0
 29 25  2  0
M  END
$$$$
