KPY.pdb
     RDKit          3D

 29 30  0  0  1  0  0  0  0  0999 V2000
   24.7819  -18.9514  -18.5126 N   0  0  0  0  0  0  0  0  0  0  0  0
   25.3391  -18.2218  -17.3952 C   0  0  1  0  0  0  0  0  0  0  0  0
   24.3601  -17.1928  -16.9396 C   0  0  0  0  0  0  0  0  0  0  0  0
   24.3609  -15.8807  -17.6059 C   0  0  0  0  0  0  0  0  0  0  0  0
   23.3497  -15.7102  -18.6912 C   0  0  0  0  0  0  0  0  0  0  0  0
   23.4814  -14.3245  -19.3454 C   0  0  0  0  0  0  0  0  0  0  0  0
   22.5722  -14.3364  -20.4747 N   0  0  0  0  0  0  0  0  0  0  0  0
   25.6037  -19.1843  -16.2888 C   0  0  0  0  0  0  0  0  0  0  0  0
   24.7763  -20.1032  -16.0958 O   0  0  0  0  0  0  0  0  0  0  0  0
   26.7407  -19.1218  -15.4386 N   0  0  0  0  0  0  0  0  0  0  0  0
   27.8379  -18.1698  -15.4699 C   0  0  0  0  0  0  0  0  0  0  0  0
   29.0183  -19.1012  -15.1728 C   0  0  0  0  0  0  0  0  0  0  0  0
   28.4643  -19.8298  -13.9585 C   0  0  0  0  0  0  0  0  0  0  0  0
   27.0207  -20.0371  -14.3559 C   0  0  1  0  0  0  0  0  0  0  0  0
   26.1850  -19.7312  -13.1557 C   0  0  0  0  0  0  0  0  0  0  0  0
   25.9106  -18.5264  -12.9264 O   0  0  0  0  0  0  0  0  0  0  0  0
   20.5138  -20.4244   -6.4833 O   0  0  0  0  0  0  0  0  0  0  0  0
   21.2619  -20.6004   -7.6312 C   0  0  0  0  0  0  0  0  0  0  0  0
   22.1565  -21.6340   -7.7107 C   0  0  0  0  0  0  0  0  0  0  0  0
   22.9116  -21.8333   -8.8355 C   0  0  0  0  0  0  0  0  0  0  0  0
   22.7743  -20.9756   -9.9216 C   0  0  0  0  0  0  0  0  0  0  0  0
   23.6131  -21.2189  -11.1143 C   0  0  0  0  0  0  0  0  0  0  0  0
   24.9036  -20.4193  -11.0895 C   0  0  2  0  0  0  0  0  0  0  0  0
   25.6989  -20.7138  -12.2844 N   0  0  0  0  0  0  0  0  0  0  0  0
   25.7502  -20.7283   -9.9156 C   0  0  0  0  0  0  0  0  0  0  0  0
   25.6516  -19.9935   -8.7411 O   0  0  0  0  0  0  0  0  0  0  0  0
   21.8733  -19.9354   -9.8397 C   0  0  0  0  0  0  0  0  0  0  0  0
   21.1110  -19.7432   -8.6903 C   0  0  0  0  0  0  0  0  0  0  0  0
   26.5982  -21.6644   -9.9157 O   0  0  0  0  0  0  0  0  0  0  0  0
  2  1  1  6
  3  4  1  0
  3  2  1  0
  5  4  1  0
  6  5  1  0
  7  6  1  0
  8  2  1  0
  8 10  1  0
  9  8  2  0
 10 14  1  0
 11 12  1  0
 11 10  1  0
 12 13  1  0
 14 13  1  0
 14 15  1  1
 15 16  2  0
 17 18  1  0
 18 28  2  0
 19 18  1  0
 19 20  2  0
 20 21  1  0
 21 27  2  0
 21 22  1  0
 23 22  1  1
 23 25  1  0
 24 15  1  0
 24 23  1  0
 25 26  1  0
 28 27  1  0
 29 25  2  0
M  END
$$$$
