MPN.pdb
     RDKit          3D

 24 24  0  0  1  0  0  0  0  0999 V2000
   25.4245  -15.3615  -15.6558 C   0  0  0  0  0  0  0  0  0  0  0  0
   27.2310  -15.5473  -15.4044 S   0  0  0  0  0  0  0  0  0  0  0  0
   27.7116  -17.2788  -15.6812 C   0  0  0  0  0  0  0  0  0  0  0  0
   27.0979  -18.1953  -14.6825 C   0  0  0  0  0  0  0  0  0  0  0  0
   27.4227  -19.6310  -15.0517 C   0  0  2  0  0  0  0  0  0  0  0  0
   27.7117  -19.6978  -16.4475 N   0  0  0  0  0  0  0  0  0  0  0  0
   26.3143  -20.4806  -14.5907 C   0  0  0  0  0  0  0  0  0  0  0  0
   25.6573  -21.0684  -15.5120 O   0  0  0  0  0  0  0  0  0  0  0  0
   25.9253  -20.6942  -13.2590 N   0  0  0  0  0  0  0  0  0  0  0  0
   26.5935  -20.0270  -12.1239 C   0  0  0  0  0  0  0  0  0  0  0  0
   26.0265  -20.6376  -10.8957 C   0  0  0  0  0  0  0  0  0  0  0  0
   25.4969  -21.9876  -11.3762 C   0  0  0  0  0  0  0  0  0  0  0  0
   24.9007  -21.5421  -12.7315 C   0  0  1  0  0  0  0  0  0  0  0  0
   23.6386  -20.8801  -12.3854 C   0  0  0  0  0  0  0  0  0  0  0  0
   23.7322  -19.8267  -11.6636 O   0  0  0  0  0  0  0  0  0  0  0  0
   21.3421  -17.6811  -15.5191 N   0  0  0  0  0  0  0  0  0  0  0  0
   21.1207  -19.1073  -15.5204 C   0  0  0  0  0  0  0  0  0  0  0  0
   20.1077  -19.5625  -16.1290 O   0  0  0  0  0  0  0  0  0  0  0  0
   22.1057  -19.9470  -14.8006 C   0  0  0  0  0  0  0  0  0  0  0  0
   21.4448  -20.4717  -13.5445 C   0  0  2  0  0  0  0  0  0  0  0  0
   22.3526  -21.3079  -12.7842 N   0  0  0  0  0  0  0  0  0  0  0  0
   20.2576  -21.2373  -13.9012 C   0  0  0  0  0  0  0  0  0  0  0  0
   18.9551  -20.8842  -13.5846 O   0  0  0  0  0  0  0  0  0  0  0  0
   20.3820  -22.3154  -14.5486 O   0  0  0  0  0  0  0  0  0  0  0  0
  2  1  1  0
  2  3  1  0
  4  3  1  0
  5  4  1  0
  5  6  1  6
  7  5  1  0
  8  7  2  0
  9  7  1  0
 10  9  1  0
 11 10  1  0
 12 11  1  0
 12 13  1  0
 13  9  1  0
 13 14  1  1
 15 14  2  0
 16 17  1  0
 17 18  2  0
 19 17  1  0
 20 19  1  6
 20 21  1  0
 21 14  1  0
 22 23  1  0
 22 20  1  0
 24 22  2  0
M  END
$$$$
