MPN.pdb
     RDKit          3D

 24 24  0  0  1  0  0  0  0  0999 V2000
   23.6998  -16.2535  -22.4647 C   0  0  0  0  0  0  0  0  0  0  0  0
   22.4617  -15.6261  -21.2670 S   0  0  0  0  0  0  0  0  0  0  0  0
   23.2378  -14.3999  -20.1717 C   0  0  0  0  0  0  0  0  0  0  0  0
   22.2603  -13.7996  -19.2240 C   0  0  0  0  0  0  0  0  0  0  0  0
   22.5008  -14.3575  -17.8334 C   0  0  2  0  0  0  0  0  0  0  0  0
   21.7386  -15.5534  -17.6743 N   0  0  0  0  0  0  0  0  0  0  0  0
   22.2199  -13.2907  -16.8608 C   0  0  0  0  0  0  0  0  0  0  0  0
   21.0016  -13.1892  -16.4984 O   0  0  0  0  0  0  0  0  0  0  0  0
   23.1519  -12.3959  -16.3120 N   0  0  0  0  0  0  0  0  0  0  0  0
   24.5918  -12.4593  -16.6328 C   0  0  0  0  0  0  0  0  0  0  0  0
   25.2571  -11.4831  -15.7343 C   0  0  0  0  0  0  0  0  0  0  0  0
   24.2715  -11.3289  -14.5773 C   0  0  0  0  0  0  0  0  0  0  0  0
   22.9532  -11.3244  -15.3850 C   0  0  1  0  0  0  0  0  0  0  0  0
   22.8762   -9.9809  -15.9680 C   0  0  0  0  0  0  0  0  0  0  0  0
   23.3219   -9.8564  -17.1620 O   0  0  0  0  0  0  0  0  0  0  0  0
   19.6438   -6.2980  -16.9807 N   0  0  0  0  0  0  0  0  0  0  0  0
   19.2264   -7.6796  -16.9753 C   0  0  0  0  0  0  0  0  0  0  0  0
   18.1145   -7.9787  -17.5027 O   0  0  0  0  0  0  0  0  0  0  0  0
   20.1390   -8.6611  -16.3451 C   0  0  0  0  0  0  0  0  0  0  0  0
   21.4108   -7.9375  -15.9590 C   0  0  2  0  0  0  0  0  0  0  0  0
   22.3541   -8.8368  -15.3244 N   0  0  0  0  0  0  0  0  0  0  0  0
   21.0930   -6.8426  -15.0518 C   0  0  0  0  0  0  0  0  0  0  0  0
   20.6701   -6.9900  -13.7400 O   0  0  0  0  0  0  0  0  0  0  0  0
   21.1962   -5.6492  -15.4543 O   0  0  0  0  0  0  0  0  0  0  0  0
  2  1  1  0
  2  3  1  0
  4  3  1  0
  5  4  1  0
  5  6  1  1
  7  5  1  0
  8  7  2  0
  9  7  1  0
 10  9  1  0
 11 10  1  0
 12 11  1  0
 12 13  1  0
 13  9  1  0
 13 14  1  6
 15 14  2  0
 16 17  1  0
 17 18  2  0
 19 17  1  0
 20 19  1  1
 20 21  1  0
 21 14  1  0
 22 23  1  0
 22 20  1  0
 24 22  2  0
M  END
$$$$
