MPN.pdb
     RDKit          3D

 24 24  0  0  1  0  0  0  0  0999 V2000
   15.2395  -10.6573  -16.9732 C   0  0  0  0  0  0  0  0  0  0  0  0
   16.6068  -11.3028  -18.0099 S   0  0  0  0  0  0  0  0  0  0  0  0
   18.1699  -10.5135  -17.5204 C   0  0  0  0  0  0  0  0  0  0  0  0
   18.2071  -10.2026  -16.0658 C   0  0  0  0  0  0  0  0  0  0  0  0
   19.6231  -10.3804  -15.5499 C   0  0  2  0  0  0  0  0  0  0  0  0
   20.0205  -11.7376  -15.7415 N   0  0  0  0  0  0  0  0  0  0  0  0
   19.6655   -9.8956  -14.1621 C   0  0  0  0  0  0  0  0  0  0  0  0
   19.5809  -10.7984  -13.2656 O   0  0  0  0  0  0  0  0  0  0  0  0
   19.7859   -8.5595  -13.7487 N   0  0  0  0  0  0  0  0  0  0  0  0
   19.9839   -7.4515  -14.7043 C   0  0  0  0  0  0  0  0  0  0  0  0
   20.2410   -6.2415  -13.8842 C   0  0  0  0  0  0  0  0  0  0  0  0
   20.7349   -6.8067  -12.5536 C   0  0  0  0  0  0  0  0  0  0  0  0
   19.7675   -8.0064  -12.4294 C   0  0  1  0  0  0  0  0  0  0  0  0
   18.4945   -7.4175  -12.0010 C   0  0  0  0  0  0  0  0  0  0  0  0
   17.7725   -6.8997  -12.9231 O   0  0  0  0  0  0  0  0  0  0  0  0
   13.9056   -8.5457   -8.8309 N   0  0  0  0  0  0  0  0  0  0  0  0
   14.8585   -7.4693   -8.7029 C   0  0  0  0  0  0  0  0  0  0  0  0
   14.4392   -6.3279   -8.3490 O   0  0  0  0  0  0  0  0  0  0  0  0
   16.2760   -7.7799   -8.9988 C   0  0  0  0  0  0  0  0  0  0  0  0
   16.6150   -7.1824  -10.3471 C   0  0  2  0  0  0  0  0  0  0  0  0
   18.0131   -7.3828  -10.6733 N   0  0  0  0  0  0  0  0  0  0  0  0
   16.3144   -5.7568  -10.3385 C   0  0  0  0  0  0  0  0  0  0  0  0
   15.1141   -5.1916  -10.7399 O   0  0  0  0  0  0  0  0  0  0  0  0
   17.1909   -4.9370   -9.9429 O   0  0  0  0  0  0  0  0  0  0  0  0
  2  1  1  0
  2  3  1  0
  4  3  1  0
  5  4  1  0
  5  6  1  1
  7  5  1  0
  8  7  2  0
  9  7  1  0
 10  9  1  0
 11 10  1  0
 12 11  1  0
 12 13  1  0
 13  9  1  0
 13 14  1  6
 15 14  2  0
 16 17  1  0
 17 18  2  0
 19 17  1  0
 20 19  1  1
 20 21  1  0
 21 14  1  0
 22 23  1  0
 22 20  1  0
 24 22  2  0
M  END
$$$$
