MPN.pdb
     RDKit          3D

 24 24  0  0  1  0  0  0  0  0999 V2000
   19.7368  -18.3924  -13.6624 C   0  0  0  0  0  0  0  0  0  0  0  0
   19.9795  -16.6580  -14.2047 S   0  0  0  0  0  0  0  0  0  0  0  0
   21.0983  -16.6166  -15.6373 C   0  0  0  0  0  0  0  0  0  0  0  0
   22.2325  -17.5680  -15.4879 C   0  0  0  0  0  0  0  0  0  0  0  0
   23.1312  -17.4740  -16.7071 C   0  0  2  0  0  0  0  0  0  0  0  0
   22.3785  -17.8254  -17.8675 N   0  0  0  0  0  0  0  0  0  0  0  0
   24.3275  -18.2912  -16.4540 C   0  0  0  0  0  0  0  0  0  0  0  0
   24.2503  -19.5052  -16.8365 O   0  0  0  0  0  0  0  0  0  0  0  0
   25.5159  -17.8629  -15.8419 N   0  0  0  0  0  0  0  0  0  0  0  0
   25.7068  -16.4768  -15.3705 C   0  0  0  0  0  0  0  0  0  0  0  0
   27.1283  -16.3750  -14.9560 C   0  0  0  0  0  0  0  0  0  0  0  0
   27.8094  -17.5059  -15.7249 C   0  0  0  0  0  0  0  0  0  0  0  0
   26.7179  -18.5903  -15.5720 C   0  0  1  0  0  0  0  0  0  0  0  0
   26.8714  -19.0846  -14.1998 C   0  0  0  0  0  0  0  0  0  0  0  0
   27.0279  -18.1947  -13.2926 O   0  0  0  0  0  0  0  0  0  0  0  0
   25.9831  -20.7888   -9.5987 N   0  0  0  0  0  0  0  0  0  0  0  0
   24.9936  -20.4461  -10.5920 C   0  0  0  0  0  0  0  0  0  0  0  0
   23.7721  -20.6473  -10.3248 O   0  0  0  0  0  0  0  0  0  0  0  0
   25.4832  -19.8772  -11.8687 C   0  0  0  0  0  0  0  0  0  0  0  0
   26.4216  -20.8825  -12.5003 C   0  0  2  0  0  0  0  0  0  0  0  0
   26.8562  -20.4428  -13.8114 N   0  0  0  0  0  0  0  0  0  0  0  0
   25.7513  -22.1711  -12.6140 C   0  0  0  0  0  0  0  0  0  0  0  0
   25.6318  -23.1016  -11.5935 O   0  0  0  0  0  0  0  0  0  0  0  0
   25.2258  -22.5059  -13.7134 O   0  0  0  0  0  0  0  0  0  0  0  0
  2  1  1  0
  2  3  1  0
  4  3  1  0
  5  4  1  0
  5  6  1  6
  7  5  1  0
  8  7  2  0
  9  7  1  0
 10  9  1  0
 11 10  1  0
 12 11  1  0
 12 13  1  0
 13  9  1  0
 13 14  1  1
 15 14  2  0
 16 17  1  0
 17 18  2  0
 19 17  1  0
 20 19  1  6
 20 21  1  0
 21 14  1  0
 22 23  1  0
 22 20  1  0
 24 22  2  0
M  END
$$$$
