MPN.pdb
     RDKit          3D

 24 24  0  0  1  0  0  0  0  0999 V2000
   20.0096  -18.8209  -16.1943 C   0  0  0  0  0  0  0  0  0  0  0  0
   20.8881  -17.9815  -17.5672 S   0  0  0  0  0  0  0  0  0  0  0  0
   22.6641  -18.3602  -17.4783 C   0  0  0  0  0  0  0  0  0  0  0  0
   22.9657  -19.3843  -16.4419 C   0  0  0  0  0  0  0  0  0  0  0  0
   23.9998  -20.3554  -16.9809 C   0  0  2  0  0  0  0  0  0  0  0  0
   23.3455  -21.3242  -17.7993 N   0  0  0  0  0  0  0  0  0  0  0  0
   24.7559  -20.8937  -15.8400 C   0  0  0  0  0  0  0  0  0  0  0  0
   24.2701  -21.9476  -15.3116 O   0  0  0  0  0  0  0  0  0  0  0  0
   25.9346  -20.3610  -15.2948 N   0  0  0  0  0  0  0  0  0  0  0  0
   26.6448  -19.2215  -15.9090 C   0  0  0  0  0  0  0  0  0  0  0  0
   27.9154  -19.0742  -15.1563 C   0  0  0  0  0  0  0  0  0  0  0  0
   28.1302  -20.4550  -14.5388 C   0  0  0  0  0  0  0  0  0  0  0  0
   26.6703  -20.7671  -14.1369 C   0  0  1  0  0  0  0  0  0  0  0  0
   26.4393  -19.9767  -12.9232 C   0  0  0  0  0  0  0  0  0  0  0  0
   26.1650  -18.7384  -13.0988 O   0  0  0  0  0  0  0  0  0  0  0  0
   21.9295  -20.3195  -10.4013 N   0  0  0  0  0  0  0  0  0  0  0  0
   23.0416  -20.0686  -11.2865 C   0  0  0  0  0  0  0  0  0  0  0  0
   23.0217  -19.0247  -12.0033 O   0  0  0  0  0  0  0  0  0  0  0  0
   24.1397  -21.0622  -11.2941 C   0  0  0  0  0  0  0  0  0  0  0  0
   25.3653  -20.4106  -10.6914 C   0  0  2  0  0  0  0  0  0  0  0  0
   26.4925  -20.4710  -11.6008 N   0  0  0  0  0  0  0  0  0  0  0  0
   25.7084  -21.0782   -9.4426 C   0  0  0  0  0  0  0  0  0  0  0  0
   25.5305  -20.5431   -8.1763 O   0  0  0  0  0  0  0  0  0  0  0  0
   26.2121  -22.2367   -9.4726 O   0  0  0  0  0  0  0  0  0  0  0  0
  2  1  1  0
  2  3  1  0
  4  3  1  0
  5  4  1  0
  5  6  1  1
  7  5  1  0
  8  7  2  0
  9  7  1  0
 10  9  1  0
 11 10  1  0
 12 11  1  0
 12 13  1  0
 13  9  1  0
 13 14  1  1
 15 14  2  0
 16 17  1  0
 17 18  2  0
 19 17  1  0
 20 19  1  6
 20 21  1  0
 21 14  1  0
 22 23  1  0
 22 20  1  0
 24 22  2  0
M  END
$$$$
