MPN.pdb
     RDKit          3D

 24 24  0  0  1  0  0  0  0  0999 V2000
   27.9440  -25.2124  -20.3630 C   0  0  0  0  0  0  0  0  0  0  0  0
   26.1872  -24.6895  -20.3258 S   0  0  0  0  0  0  0  0  0  0  0  0
   25.8189  -23.8978  -18.7310 C   0  0  0  0  0  0  0  0  0  0  0  0
   26.2489  -24.7356  -17.5790 C   0  0  0  0  0  0  0  0  0  0  0  0
   27.5379  -24.1771  -17.0049 C   0  0  2  0  0  0  0  0  0  0  0  0
   28.1430  -25.1662  -16.1730 N   0  0  0  0  0  0  0  0  0  0  0  0
   27.2265  -22.8985  -16.3484 C   0  0  0  0  0  0  0  0  0  0  0  0
   26.6367  -22.9926  -15.2218 O   0  0  0  0  0  0  0  0  0  0  0  0
   27.5130  -21.6160  -16.8420 N   0  0  0  0  0  0  0  0  0  0  0  0
   28.1508  -21.3994  -18.1559 C   0  0  0  0  0  0  0  0  0  0  0  0
   28.4457  -19.9470  -18.2360 C   0  0  0  0  0  0  0  0  0  0  0  0
   28.4865  -19.5067  -16.7736 C   0  0  0  0  0  0  0  0  0  0  0  0
   27.2954  -20.3362  -16.2408 C   0  0  1  0  0  0  0  0  0  0  0  0
   26.1031  -19.6119  -16.6932 C   0  0  0  0  0  0  0  0  0  0  0  0
   25.7696  -19.7814  -17.9179 O   0  0  0  0  0  0  0  0  0  0  0  0
   21.6618  -17.4262  -17.0881 N   0  0  0  0  0  0  0  0  0  0  0  0
   21.9034  -17.2787  -15.6728 C   0  0  0  0  0  0  0  0  0  0  0  0
   20.9859  -16.7903  -14.9493 O   0  0  0  0  0  0  0  0  0  0  0  0
   23.2235  -17.7138  -15.1614 C   0  0  0  0  0  0  0  0  0  0  0  0
   24.0301  -18.2357  -16.3306 C   0  0  2  0  0  0  0  0  0  0  0  0
   25.3086  -18.7606  -15.8934 N   0  0  0  0  0  0  0  0  0  0  0  0
   24.2451  -17.1628  -17.2926 C   0  0  0  0  0  0  0  0  0  0  0  0
   23.3891  -16.8413  -18.3344 O   0  0  0  0  0  0  0  0  0  0  0  0
   25.2827  -16.4467  -17.2065 O   0  0  0  0  0  0  0  0  0  0  0  0
  2  1  1  0
  2  3  1  0
  4  3  1  0
  5  4  1  0
  5  6  1  1
  7  5  1  0
  8  7  2  0
  9  7  1  0
 10  9  1  0
 11 10  1  0
 12 11  1  0
 12 13  1  0
 13  9  1  0
 13 14  1  6
 15 14  2  0
 16 17  1  0
 17 18  2  0
 19 17  1  0
 20 19  1  1
 20 21  1  0
 21 14  1  0
 22 23  1  0
 22 20  1  0
 24 22  2  0
M  END
$$$$
