MPN.pdb
     RDKit          3D

 24 24  0  0  1  0  0  0  0  0999 V2000
   26.3442  -21.0235   -9.6757 C   0  0  0  0  0  0  0  0  0  0  0  0
   24.5398  -21.3414   -9.6117 S   0  0  0  0  0  0  0  0  0  0  0  0
   23.7320  -20.5696  -11.0461 C   0  0  0  0  0  0  0  0  0  0  0  0
   24.4688  -20.8344  -12.3115 C   0  0  0  0  0  0  0  0  0  0  0  0
   23.7960  -20.0901  -13.4500 C   0  0  2  0  0  0  0  0  0  0  0  0
   22.4394  -20.5214  -13.5496 N   0  0  0  0  0  0  0  0  0  0  0  0
   24.6123  -20.2753  -14.6592 C   0  0  0  0  0  0  0  0  0  0  0  0
   24.0628  -20.9510  -15.5906 O   0  0  0  0  0  0  0  0  0  0  0  0
   25.9112  -19.7872  -14.8715 N   0  0  0  0  0  0  0  0  0  0  0  0
   26.5959  -18.9135  -13.8979 C   0  0  0  0  0  0  0  0  0  0  0  0
   27.8528  -18.4729  -14.5529 C   0  0  0  0  0  0  0  0  0  0  0  0
   27.5618  -18.6449  -16.0428 C   0  0  0  0  0  0  0  0  0  0  0  0
   26.7905  -19.9836  -15.9829 C   0  0  1  0  0  0  0  0  0  0  0  0
   27.8275  -21.0051  -15.8047 C   0  0  0  0  0  0  0  0  0  0  0  0
   28.2878  -21.1423  -14.6177 O   0  0  0  0  0  0  0  0  0  0  0  0
   28.4900  -25.8860  -16.5079 N   0  0  0  0  0  0  0  0  0  0  0  0
   27.1773  -25.3277  -16.2879 C   0  0  0  0  0  0  0  0  0  0  0  0
   26.2282  -26.1111  -15.9890 O   0  0  0  0  0  0  0  0  0  0  0  0
   27.0320  -23.8608  -16.4299 C   0  0  0  0  0  0  0  0  0  0  0  0
   28.4005  -23.2794  -16.7115 C   0  0  2  0  0  0  0  0  0  0  0  0
   28.3440  -21.8353  -16.8244 N   0  0  0  0  0  0  0  0  0  0  0  0
   28.9265  -23.8462  -17.9464 C   0  0  0  0  0  0  0  0  0  0  0  0
   30.0908  -24.5911  -18.0504 O   0  0  0  0  0  0  0  0  0  0  0  0
   28.3031  -23.6657  -19.0307 O   0  0  0  0  0  0  0  0  0  0  0  0
  2  1  1  0
  2  3  1  0
  4  3  1  0
  5  4  1  0
  5  6  1  6
  7  5  1  0
  8  7  2  0
  9  7  1  0
 10  9  1  0
 11 10  1  0
 12 11  1  0
 12 13  1  0
 13  9  1  0
 13 14  1  1
 15 14  2  0
 16 17  1  0
 17 18  2  0
 19 17  1  0
 20 19  1  6
 20 21  1  0
 21 14  1  0
 22 23  1  0
 22 20  1  0
 24 22  2  0
M  END
$$$$
