KKK.pdb
     RDKit          3D

 28 27  0  0  1  0  0  0  0  0999 V2000
   14.6120  -12.8393  -13.7036 N   0  0  0  0  0  0  0  0  0  0  0  0
   15.6648  -12.3561  -12.8093 C   0  0  1  0  0  0  0  0  0  0  0  0
   16.9078  -12.2515  -13.6624 C   0  0  0  0  0  0  0  0  0  0  0  0
   16.7776  -13.1265  -14.8598 C   0  0  0  0  0  0  0  0  0  0  0  0
   17.9241  -13.1619  -15.7949 C   0  0  0  0  0  0  0  0  0  0  0  0
   17.8095  -14.0719  -16.9649 C   0  0  0  0  0  0  0  0  0  0  0  0
   18.0112  -15.4658  -16.6459 N   0  0  0  0  0  0  0  0  0  0  0  0
   15.2485  -11.0773  -12.2362 C   0  0  0  0  0  0  0  0  0  0  0  0
   14.7892  -10.1866  -12.9932 O   0  0  0  0  0  0  0  0  0  0  0  0
   15.3225  -10.7507  -10.8591 N   0  0  0  0  0  0  0  0  0  0  0  0
   14.9316   -9.3998  -10.3907 C   0  0  1  0  0  0  0  0  0  0  0  0
   14.0042   -9.5688   -9.2025 C   0  0  0  0  0  0  0  0  0  0  0  0
   12.5986   -9.9107   -9.5751 C   0  0  0  0  0  0  0  0  0  0  0  0
   11.6671   -9.9233   -8.3776 C   0  0  0  0  0  0  0  0  0  0  0  0
   10.3040  -10.3288   -8.8171 C   0  0  0  0  0  0  0  0  0  0  0  0
    9.4443  -10.4545   -7.6508 N   0  0  0  0  0  0  0  0  0  0  0  0
   16.1387   -8.6011  -10.1086 C   0  0  0  0  0  0  0  0  0  0  0  0
   17.0370   -9.0376   -9.2964 O   0  0  0  0  0  0  0  0  0  0  0  0
   16.4398   -7.3345  -10.6686 N   0  0  0  0  0  0  0  0  0  0  0  0
   17.6788   -6.6218  -10.4224 C   0  0  1  0  0  0  0  0  0  0  0  0
   18.4396   -6.5748  -11.7420 C   0  0  0  0  0  0  0  0  0  0  0  0
   19.7459   -5.8597  -11.5963 C   0  0  0  0  0  0  0  0  0  0  0  0
   20.4530   -5.8505  -12.9223 C   0  0  0  0  0  0  0  0  0  0  0  0
   21.8408   -5.2906  -12.8390 C   0  0  0  0  0  0  0  0  0  0  0  0
   22.4899   -5.4288  -14.1401 N   0  0  0  0  0  0  0  0  0  0  0  0
   17.4758   -5.2356   -9.9892 C   0  0  0  0  0  0  0  0  0  0  0  0
   18.4204   -4.6188   -9.1931 O   0  0  0  0  0  0  0  0  0  0  0  0
   16.4568   -4.6111  -10.3348 O   0  0  0  0  0  0  0  0  0  0  0  0
  2  3  1  0
  2  1  1  6
  4  3  1  0
  4  5  1  0
  6  5  1  0
  6  7  1  0
  8 10  1  0
  8  2  1  0
  9  8  2  0
 11 10  1  0
 11 12  1  1
 13 12  1  0
 14 13  1  0
 15 14  1  0
 16 15  1  0
 17 18  2  0
 17 11  1  0
 19 17  1  0
 20 21  1  6
 20 19  1  0
 22 21  1  0
 22 23  1  0
 23 24  1  0
 24 25  1  0
 26 20  1  0
 27 26  1  0
 28 26  2  0
M  END
$$$$
