KKK.pdb
     RDKit          3D

 28 27  0  0  1  0  0  0  0  0999 V2000
   27.6673  -24.5367  -17.8063 N   0  0  0  0  0  0  0  0  0  0  0  0
   26.6165  -24.8538  -16.8384 C   0  0  1  0  0  0  0  0  0  0  0  0
   27.3143  -25.5502  -15.6930 C   0  0  0  0  0  0  0  0  0  0  0  0
   27.7662  -26.9029  -16.1201 C   0  0  0  0  0  0  0  0  0  0  0  0
   28.2368  -27.0453  -17.5159 C   0  0  0  0  0  0  0  0  0  0  0  0
   28.7241  -28.3882  -17.9274 C   0  0  0  0  0  0  0  0  0  0  0  0
   29.8469  -28.8666  -17.1555 N   0  0  0  0  0  0  0  0  0  0  0  0
   25.9502  -23.6148  -16.4409 C   0  0  0  0  0  0  0  0  0  0  0  0
   25.0315  -23.6595  -15.5857 O   0  0  0  0  0  0  0  0  0  0  0  0
   26.2640  -22.3319  -16.9551 N   0  0  0  0  0  0  0  0  0  0  0  0
   25.5957  -21.1260  -16.4108 C   0  0  1  0  0  0  0  0  0  0  0  0
   26.5703  -19.9683  -16.5100 C   0  0  0  0  0  0  0  0  0  0  0  0
   26.0289  -18.6748  -15.9949 C   0  0  0  0  0  0  0  0  0  0  0  0
   27.0016  -17.5247  -16.1760 C   0  0  0  0  0  0  0  0  0  0  0  0
   26.3544  -16.2575  -15.7392 C   0  0  0  0  0  0  0  0  0  0  0  0
   25.3051  -15.9075  -16.6833 N   0  0  0  0  0  0  0  0  0  0  0  0
   24.3178  -20.9044  -17.1127 C   0  0  0  0  0  0  0  0  0  0  0  0
   24.2946  -20.7196  -18.3865 O   0  0  0  0  0  0  0  0  0  0  0  0
   23.0373  -20.8753  -16.5063 N   0  0  0  0  0  0  0  0  0  0  0  0
   21.8074  -20.6408  -17.2385 C   0  0  1  0  0  0  0  0  0  0  0  0
   20.6558  -20.8726  -16.2676 C   0  0  0  0  0  0  0  0  0  0  0  0
   19.3297  -20.7211  -16.9442 C   0  0  0  0  0  0  0  0  0  0  0  0
   18.2358  -20.8957  -15.9287 C   0  0  0  0  0  0  0  0  0  0  0  0
   16.8722  -20.9645  -16.5468 C   0  0  0  0  0  0  0  0  0  0  0  0
   15.8765  -21.1203  -15.4897 N   0  0  0  0  0  0  0  0  0  0  0  0
   21.6822  -19.2686  -17.7401 C   0  0  0  0  0  0  0  0  0  0  0  0
   21.9430  -18.2034  -16.9012 O   0  0  0  0  0  0  0  0  0  0  0  0
   21.3420  -19.0578  -18.9181 O   0  0  0  0  0  0  0  0  0  0  0  0
  2  3  1  0
  2  1  1  6
  4  3  1  0
  4  5  1  0
  6  5  1  0
  6  7  1  0
  8 10  1  0
  8  2  1  0
  9  8  2  0
 11 10  1  0
 11 12  1  6
 13 12  1  0
 14 13  1  0
 15 14  1  0
 16 15  1  0
 17 18  2  0
 17 11  1  0
 19 17  1  0
 20 21  1  1
 20 19  1  0
 22 21  1  0
 22 23  1  0
 23 24  1  0
 24 25  1  0
 26 20  1  0
 27 26  1  0
 28 26  2  0
M  END
$$$$
