KKK.pdb
     RDKit          3D

 28 27  0  0  1  0  0  0  0  0999 V2000
   14.1013  -10.3950  -11.4490 N   0  0  0  0  0  0  0  0  0  0  0  0
   15.2366  -10.3376  -12.3706 C   0  0  1  0  0  0  0  0  0  0  0  0
   14.6533  -10.5460  -13.7490 C   0  0  0  0  0  0  0  0  0  0  0  0
   14.0592  -11.9073  -13.8491 C   0  0  0  0  0  0  0  0  0  0  0  0
   14.9031  -13.0431  -13.4157 C   0  0  0  0  0  0  0  0  0  0  0  0
   14.3666  -14.4089  -13.6544 C   0  0  0  0  0  0  0  0  0  0  0  0
   15.2357  -15.4683  -13.1986 N   0  0  0  0  0  0  0  0  0  0  0  0
   15.9063   -9.0473  -12.2161 C   0  0  0  0  0  0  0  0  0  0  0  0
   16.2169   -8.3910  -13.2407 O   0  0  0  0  0  0  0  0  0  0  0  0
   16.2431   -8.4598  -10.9711 N   0  0  0  0  0  0  0  0  0  0  0  0
   16.7758   -7.0776  -10.9182 C   0  0  1  0  0  0  0  0  0  0  0  0
   16.5051   -6.5266   -9.5313 C   0  0  0  0  0  0  0  0  0  0  0  0
   15.1025   -6.0533   -9.3307 C   0  0  0  0  0  0  0  0  0  0  0  0
   14.8252   -5.6510   -7.8944 C   0  0  0  0  0  0  0  0  0  0  0  0
   13.4395   -5.1177   -7.7900 C   0  0  0  0  0  0  0  0  0  0  0  0
   13.1737   -4.7466   -6.4093 N   0  0  0  0  0  0  0  0  0  0  0  0
   18.1992   -7.0765  -11.3037 C   0  0  0  0  0  0  0  0  0  0  0  0
   19.0754   -7.6725  -10.5727 O   0  0  0  0  0  0  0  0  0  0  0  0
   18.7409   -6.4606  -12.4593 N   0  0  0  0  0  0  0  0  0  0  0  0
   20.1184   -6.6214  -12.8839 C   0  0  1  0  0  0  0  0  0  0  0  0
   20.0962   -6.9126  -14.3795 C   0  0  0  0  0  0  0  0  0  0  0  0
   21.4721   -7.1707  -14.9081 C   0  0  0  0  0  0  0  0  0  0  0  0
   21.3894   -7.4477  -16.3828 C   0  0  0  0  0  0  0  0  0  0  0  0
   22.7033   -7.8624  -16.9727 C   0  0  0  0  0  0  0  0  0  0  0  0
   23.6122   -6.7191  -16.9640 N   0  0  0  0  0  0  0  0  0  0  0  0
   20.9312   -5.4165  -12.6887 C   0  0  0  0  0  0  0  0  0  0  0  0
   22.3008   -5.5258  -12.5519 O   0  0  0  0  0  0  0  0  0  0  0  0
   20.3939   -4.2952  -12.6454 O   0  0  0  0  0  0  0  0  0  0  0  0
  2  3  1  0
  2  1  1  1
  4  3  1  0
  4  5  1  0
  6  5  1  0
  6  7  1  0
  8 10  1  0
  8  2  1  0
  9  8  2  0
 11 10  1  0
 11 12  1  1
 13 12  1  0
 14 13  1  0
 15 14  1  0
 16 15  1  0
 17 18  2  0
 17 11  1  0
 19 17  1  0
 20 21  1  6
 20 19  1  0
 22 21  1  0
 22 23  1  0
 23 24  1  0
 24 25  1  0
 26 20  1  0
 27 26  1  0
 28 26  2  0
M  END
$$$$
