KKK.pdb
     RDKit          3D

 28 27  0  0  1  0  0  0  0  0999 V2000
   25.4224  -22.6468  -12.3441 N   0  0  0  0  0  0  0  0  0  0  0  0
   24.9682  -21.2853  -12.6297 C   0  0  1  0  0  0  0  0  0  0  0  0
   25.8212  -20.3823  -11.7692 C   0  0  0  0  0  0  0  0  0  0  0  0
   25.7615  -20.8277  -10.3499 C   0  0  0  0  0  0  0  0  0  0  0  0
   24.4560  -20.7112   -9.6627 C   0  0  0  0  0  0  0  0  0  0  0  0
   24.4233  -21.0595   -8.2178 C   0  0  0  0  0  0  0  0  0  0  0  0
   23.1327  -20.8708   -7.5981 N   0  0  0  0  0  0  0  0  0  0  0  0
   25.1167  -21.0278  -14.0611 C   0  0  0  0  0  0  0  0  0  0  0  0
   24.8811  -19.8768  -14.5048 O   0  0  0  0  0  0  0  0  0  0  0  0
   25.5155  -21.9966  -15.0156 N   0  0  0  0  0  0  0  0  0  0  0  0
   25.7325  -21.6062  -16.4290 C   0  0  1  0  0  0  0  0  0  0  0  0
   26.5590  -22.6920  -17.0908 C   0  0  0  0  0  0  0  0  0  0  0  0
   27.9610  -22.7808  -16.5825 C   0  0  0  0  0  0  0  0  0  0  0  0
   28.7927  -23.7938  -17.3465 C   0  0  0  0  0  0  0  0  0  0  0  0
   30.2183  -23.6718  -16.9362 C   0  0  0  0  0  0  0  0  0  0  0  0
   30.9808  -24.7574  -17.5319 N   0  0  0  0  0  0  0  0  0  0  0  0
   24.4346  -21.3504  -17.0806 C   0  0  0  0  0  0  0  0  0  0  0  0
   23.4675  -22.1922  -16.9654 O   0  0  0  0  0  0  0  0  0  0  0  0
   24.1131  -20.2120  -17.8611 N   0  0  0  0  0  0  0  0  0  0  0  0
   22.8486  -20.0429  -18.5513 C   0  0  1  0  0  0  0  0  0  0  0  0
   22.1065  -18.9073  -17.8570 C   0  0  0  0  0  0  0  0  0  0  0  0
   20.7094  -19.3046  -17.4977 C   0  0  0  0  0  0  0  0  0  0  0  0
   20.0280  -18.1500  -16.8188 C   0  0  0  0  0  0  0  0  0  0  0  0
   18.6478  -18.4865  -16.3412 C   0  0  0  0  0  0  0  0  0  0  0  0
   18.0895  -17.3312  -15.6434 N   0  0  0  0  0  0  0  0  0  0  0  0
   23.0013  -19.6640  -19.9597 C   0  0  0  0  0  0  0  0  0  0  0  0
   24.2170  -19.1965  -20.4180 O   0  0  0  0  0  0  0  0  0  0  0  0
   22.0413  -19.7610  -20.7451 O   0  0  0  0  0  0  0  0  0  0  0  0
  2  3  1  0
  2  1  1  6
  4  3  1  0
  4  5  1  0
  6  5  1  0
  6  7  1  0
  8 10  1  0
  8  2  1  0
  9  8  2  0
 11 10  1  0
 11 12  1  6
 13 12  1  0
 14 13  1  0
 15 14  1  0
 16 15  1  0
 17 18  2  0
 17 11  1  0
 19 17  1  0
 20 21  1  1
 20 19  1  0
 22 21  1  0
 22 23  1  0
 23 24  1  0
 24 25  1  0
 26 20  1  0
 27 26  1  0
 28 26  2  0
M  END
$$$$
