KKK.pdb
     RDKit          3D

 28 27  0  0  1  0  0  0  0  0999 V2000
   26.8054  -17.9754  -17.5511 N   0  0  0  0  0  0  0  0  0  0  0  0
   25.4195  -17.5218  -17.4289 C   0  0  1  0  0  0  0  0  0  0  0  0
   24.9146  -17.3684  -18.8450 C   0  0  0  0  0  0  0  0  0  0  0  0
   26.0633  -17.2992  -19.7895 C   0  0  0  0  0  0  0  0  0  0  0  0
   26.6089  -18.5842  -20.2804 C   0  0  0  0  0  0  0  0  0  0  0  0
   27.5304  -18.5222  -21.4454 C   0  0  0  0  0  0  0  0  0  0  0  0
   28.2042  -19.7680  -21.7272 N   0  0  0  0  0  0  0  0  0  0  0  0
   24.6671  -18.5046  -16.6510 C   0  0  0  0  0  0  0  0  0  0  0  0
   25.0781  -19.6901  -16.5989 O   0  0  0  0  0  0  0  0  0  0  0  0
   23.4794  -18.2222  -15.9310 N   0  0  0  0  0  0  0  0  0  0  0  0
   22.8345  -19.2764  -15.1127 C   0  0  1  0  0  0  0  0  0  0  0  0
   22.2165  -18.6108  -13.8981 C   0  0  0  0  0  0  0  0  0  0  0  0
   21.4886  -19.5529  -12.9958 C   0  0  0  0  0  0  0  0  0  0  0  0
   20.8227  -18.8441  -11.8314 C   0  0  0  0  0  0  0  0  0  0  0  0
   20.1705  -19.8500  -10.9491 C   0  0  0  0  0  0  0  0  0  0  0  0
   19.6342  -19.1791   -9.7756 N   0  0  0  0  0  0  0  0  0  0  0  0
   21.8784  -20.0351  -15.9403 C   0  0  0  0  0  0  0  0  0  0  0  0
   21.0736  -19.4232  -16.7372 O   0  0  0  0  0  0  0  0  0  0  0  0
   21.7423  -21.4456  -15.9608 N   0  0  0  0  0  0  0  0  0  0  0  0
   20.7199  -22.1426  -16.7175 C   0  0  1  0  0  0  0  0  0  0  0  0
   21.0815  -23.6230  -16.7031 C   0  0  0  0  0  0  0  0  0  0  0  0
   20.1094  -24.4324  -17.5023 C   0  0  0  0  0  0  0  0  0  0  0  0
   20.4963  -25.8825  -17.4266 C   0  0  0  0  0  0  0  0  0  0  0  0
   19.5912  -26.7699  -18.2263 C   0  0  0  0  0  0  0  0  0  0  0  0
   20.1739  -28.1074  -18.2957 N   0  0  0  0  0  0  0  0  0  0  0  0
   19.3796  -22.0179  -16.1357 C   0  0  0  0  0  0  0  0  0  0  0  0
   19.2369  -21.7607  -14.7866 O   0  0  0  0  0  0  0  0  0  0  0  0
   18.3691  -22.1427  -16.8507 O   0  0  0  0  0  0  0  0  0  0  0  0
  2  3  1  0
  2  1  1  6
  4  3  1  0
  4  5  1  0
  6  5  1  0
  6  7  1  0
  8 10  1  0
  8  2  1  0
  9  8  2  0
 11 10  1  0
 11 12  1  1
 13 12  1  0
 14 13  1  0
 15 14  1  0
 16 15  1  0
 17 18  2  0
 17 11  1  0
 19 17  1  0
 20 21  1  1
 20 19  1  0
 22 21  1  0
 22 23  1  0
 23 24  1  0
 24 25  1  0
 26 20  1  0
 27 26  1  0
 28 26  2  0
M  END
$$$$
