KKK.pdb
     RDKit          3D

 28 27  0  0  1  0  0  0  0  0999 V2000
   26.4924  -24.5325  -18.3266 N   0  0  0  0  0  0  0  0  0  0  0  0
   25.8013  -24.9547  -17.1076 C   0  0  1  0  0  0  0  0  0  0  0  0
   26.7834  -25.8311  -16.3653 C   0  0  0  0  0  0  0  0  0  0  0  0
   27.2868  -26.9053  -17.2647 C   0  0  0  0  0  0  0  0  0  0  0  0
   28.2193  -27.8927  -16.6768 C   0  0  0  0  0  0  0  0  0  0  0  0
   28.8922  -28.8256  -17.6186 C   0  0  0  0  0  0  0  0  0  0  0  0
   29.9157  -29.6400  -17.0065 N   0  0  0  0  0  0  0  0  0  0  0  0
   25.4034  -23.7668  -16.3541 C   0  0  0  0  0  0  0  0  0  0  0  0
   24.7292  -23.9043  -15.3035 O   0  0  0  0  0  0  0  0  0  0  0  0
   25.7245  -22.4361  -16.7215 N   0  0  0  0  0  0  0  0  0  0  0  0
   25.3353  -21.3057  -15.8455 C   0  0  1  0  0  0  0  0  0  0  0  0
   26.0477  -20.0630  -16.3439 C   0  0  0  0  0  0  0  0  0  0  0  0
   25.8089  -18.8503  -15.5049 C   0  0  0  0  0  0  0  0  0  0  0  0
   26.6088  -17.6508  -15.9771 C   0  0  0  0  0  0  0  0  0  0  0  0
   26.3799  -16.5091  -15.0499 C   0  0  0  0  0  0  0  0  0  0  0  0
   27.1536  -15.3640  -15.5029 N   0  0  0  0  0  0  0  0  0  0  0  0
   23.8658  -21.1876  -15.8070 C   0  0  0  0  0  0  0  0  0  0  0  0
   23.2024  -20.9243  -16.8783 O   0  0  0  0  0  0  0  0  0  0  0  0
   23.0549  -21.3457  -14.6555 N   0  0  0  0  0  0  0  0  0  0  0  0
   21.6120  -21.1984  -14.6632 C   0  0  1  0  0  0  0  0  0  0  0  0
   21.0863  -21.8602  -13.3952 C   0  0  0  0  0  0  0  0  0  0  0  0
   19.5917  -21.9325  -13.3939 C   0  0  0  0  0  0  0  0  0  0  0  0
   19.1308  -22.5763  -12.1167 C   0  0  0  0  0  0  0  0  0  0  0  0
   17.6513  -22.8138  -12.0844 C   0  0  0  0  0  0  0  0  0  0  0  0
   17.2896  -23.3962  -10.7948 N   0  0  0  0  0  0  0  0  0  0  0  0
   21.1704  -19.8003  -14.6378 C   0  0  0  0  0  0  0  0  0  0  0  0
   20.0961  -19.4045  -15.4097 O   0  0  0  0  0  0  0  0  0  0  0  0
   21.7581  -18.9675  -13.9244 O   0  0  0  0  0  0  0  0  0  0  0  0
  2  3  1  0
  2  1  1  6
  4  3  1  0
  4  5  1  0
  6  5  1  0
  6  7  1  0
  8 10  1  0
  8  2  1  0
  9  8  2  0
 11 10  1  0
 11 12  1  6
 13 12  1  0
 14 13  1  0
 15 14  1  0
 16 15  1  0
 17 18  2  0
 17 11  1  0
 19 17  1  0
 20 21  1  1
 20 19  1  0
 22 21  1  0
 22 23  1  0
 23 24  1  0
 24 25  1  0
 26 20  1  0
 27 26  1  0
 28 26  2  0
M  END
$$$$
