KKK.pdb
     RDKit          3D

 28 27  0  0  1  0  0  0  0  0999 V2000
   21.6157  -13.4265  -18.2444 N   0  0  0  0  0  0  0  0  0  0  0  0
   20.6483  -14.1067  -17.3823 C   0  0  1  0  0  0  0  0  0  0  0  0
   19.3220  -14.0062  -18.0996 C   0  0  0  0  0  0  0  0  0  0  0  0
   18.8457  -12.5957  -18.0921 C   0  0  0  0  0  0  0  0  0  0  0  0
   17.5627  -12.3154  -18.7743 C   0  0  0  0  0  0  0  0  0  0  0  0
   17.1063  -10.9006  -18.7932 C   0  0  0  0  0  0  0  0  0  0  0  0
   18.1781   -9.9402  -18.9126 N   0  0  0  0  0  0  0  0  0  0  0  0
   21.0885  -15.4850  -17.1731 C   0  0  0  0  0  0  0  0  0  0  0  0
   20.6747  -16.3848  -17.9452 O   0  0  0  0  0  0  0  0  0  0  0  0
   21.9680  -15.9009  -16.1424 N   0  0  0  0  0  0  0  0  0  0  0  0
   22.3550  -17.3267  -16.0221 C   0  0  1  0  0  0  0  0  0  0  0  0
   23.8048  -17.3803  -15.5798 C   0  0  0  0  0  0  0  0  0  0  0  0
   24.7846  -17.3010  -16.7047 C   0  0  0  0  0  0  0  0  0  0  0  0
   26.2234  -17.3183  -16.2239 C   0  0  0  0  0  0  0  0  0  0  0  0
   27.1358  -17.3688  -17.3989 C   0  0  0  0  0  0  0  0  0  0  0  0
   27.0121  -18.6664  -18.0436 N   0  0  0  0  0  0  0  0  0  0  0  0
   21.4197  -18.0229  -15.1193 C   0  0  0  0  0  0  0  0  0  0  0  0
   21.1748  -17.5563  -13.9447 O   0  0  0  0  0  0  0  0  0  0  0  0
   20.7156  -19.2154  -15.4201 N   0  0  0  0  0  0  0  0  0  0  0  0
   19.8091  -19.8677  -14.4947 C   0  0  1  0  0  0  0  0  0  0  0  0
   19.0175  -20.8972  -15.2921 C   0  0  0  0  0  0  0  0  0  0  0  0
   17.9360  -21.5177  -14.4649 C   0  0  0  0  0  0  0  0  0  0  0  0
   17.1129  -22.4277  -15.3324 C   0  0  0  0  0  0  0  0  0  0  0  0
   16.0158  -23.1166  -14.5787 C   0  0  0  0  0  0  0  0  0  0  0  0
   14.9614  -22.1505  -14.2817 N   0  0  0  0  0  0  0  0  0  0  0  0
   20.4964  -20.5881  -13.4182 C   0  0  0  0  0  0  0  0  0  0  0  0
   19.9619  -20.5950  -12.1451 O   0  0  0  0  0  0  0  0  0  0  0  0
   21.5592  -21.1938  -13.6448 O   0  0  0  0  0  0  0  0  0  0  0  0
  2  3  1  0
  2  1  1  6
  4  3  1  0
  4  5  1  0
  6  5  1  0
  6  7  1  0
  8 10  1  0
  8  2  1  0
  9  8  2  0
 11 10  1  0
 11 12  1  1
 13 12  1  0
 14 13  1  0
 15 14  1  0
 16 15  1  0
 17 18  2  0
 17 11  1  0
 19 17  1  0
 20 21  1  6
 20 19  1  0
 22 21  1  0
 22 23  1  0
 23 24  1  0
 24 25  1  0
 26 20  1  0
 27 26  1  0
 28 26  2  0
M  END
$$$$
