KKK.pdb
     RDKit          3D

 28 27  0  0  1  0  0  0  0  0999 V2000
   17.2613  -17.7531  -18.6763 N   0  0  0  0  0  0  0  0  0  0  0  0
   16.9730  -16.7185  -17.6822 C   0  0  1  0  0  0  0  0  0  0  0  0
   16.8755  -17.4412  -16.3586 C   0  0  0  0  0  0  0  0  0  0  0  0
   16.7442  -18.9064  -16.5879 C   0  0  0  0  0  0  0  0  0  0  0  0
   16.6923  -19.7728  -15.3893 C   0  0  0  0  0  0  0  0  0  0  0  0
   16.6866  -21.2413  -15.6209 C   0  0  0  0  0  0  0  0  0  0  0  0
   17.9818  -21.8631  -15.4746 N   0  0  0  0  0  0  0  0  0  0  0  0
   18.0392  -15.7190  -17.7171 C   0  0  0  0  0  0  0  0  0  0  0  0
   18.0182  -14.7708  -16.8939 O   0  0  0  0  0  0  0  0  0  0  0  0
   19.1246  -15.7320  -18.6284 N   0  0  0  0  0  0  0  0  0  0  0  0
   20.2165  -14.7375  -18.5026 C   0  0  1  0  0  0  0  0  0  0  0  0
   21.3879  -15.2237  -19.3341 C   0  0  0  0  0  0  0  0  0  0  0  0
   22.5969  -14.3506  -19.2463 C   0  0  0  0  0  0  0  0  0  0  0  0
   23.8002  -14.9528  -19.9470 C   0  0  0  0  0  0  0  0  0  0  0  0
   24.9449  -14.0050  -19.8640 C   0  0  0  0  0  0  0  0  0  0  0  0
   26.1438  -14.6599  -20.3627 N   0  0  0  0  0  0  0  0  0  0  0  0
   19.7195  -13.4010  -18.8786 C   0  0  0  0  0  0  0  0  0  0  0  0
   19.1019  -13.2226  -19.9940 O   0  0  0  0  0  0  0  0  0  0  0  0
   19.8495  -12.2232  -18.1013 N   0  0  0  0  0  0  0  0  0  0  0  0
   19.4854  -10.9025  -18.5777 C   0  0  1  0  0  0  0  0  0  0  0  0
   18.2677  -10.4564  -17.7775 C   0  0  0  0  0  0  0  0  0  0  0  0
   17.7677   -9.1233  -18.2379 C   0  0  0  0  0  0  0  0  0  0  0  0
   16.4943   -8.7965  -17.5098 C   0  0  0  0  0  0  0  0  0  0  0  0
   15.8622   -7.5229  -17.9838 C   0  0  0  0  0  0  0  0  0  0  0  0
   14.5285   -7.4061  -17.3998 N   0  0  0  0  0  0  0  0  0  0  0  0
   20.5340   -9.8992  -18.3672 C   0  0  0  0  0  0  0  0  0  0  0  0
   20.3845   -8.6289  -18.8873 O   0  0  0  0  0  0  0  0  0  0  0  0
   21.5587  -10.1856  -17.7223 O   0  0  0  0  0  0  0  0  0  0  0  0
  2  3  1  0
  2  1  1  6
  4  3  1  0
  4  5  1  0
  6  5  1  0
  6  7  1  0
  8 10  1  0
  8  2  1  0
  9  8  2  0
 11 10  1  0
 11 12  1  6
 13 12  1  0
 14 13  1  0
 15 14  1  0
 16 15  1  0
 17 18  2  0
 17 11  1  0
 19 17  1  0
 20 21  1  1
 20 19  1  0
 22 21  1  0
 22 23  1  0
 23 24  1  0
 24 25  1  0
 26 20  1  0
 27 26  1  0
 28 26  2  0
M  END
$$$$
