CPK.pdb
     RDKit          3D

 23 23  0  0  1  0  0  0  0  0999 V2000
    9.6085  -17.0172   16.6481 N   0  0  0  0  0  0  0  0  0  0  0  0
    8.6174  -16.5663   17.5699 C   0  0  1  0  0  0  0  0  0  0  0  0
    7.6413  -17.7097   17.8659 C   0  0  0  0  0  0  0  0  0  0  0  0
    6.6559  -18.0853   16.3959 S   0  0  0  0  0  0  0  0  0  0  0  0
    9.1115  -15.9954   18.8201 C   0  0  0  0  0  0  0  0  0  0  0  0
   10.0960  -16.5380   19.3646 O   0  0  0  0  0  0  0  0  0  0  0  0
    8.5427  -14.8430   19.4781 N   0  0  0  0  0  0  0  0  0  0  0  0
    7.6643  -13.9205   18.7919 C   0  0  0  0  0  0  0  0  0  0  0  0
    7.4211  -12.7876   19.7637 C   0  0  0  0  0  0  0  0  0  0  0  0
    7.6447  -13.4239   21.1168 C   0  0  0  0  0  0  0  0  0  0  0  0
    8.7467  -14.4030   20.8160 C   0  0  1  0  0  0  0  0  0  0  0  0
    8.7720  -15.4906   21.8341 C   0  0  0  0  0  0  0  0  0  0  0  0
    8.0007  -16.4481   21.8992 O   0  0  0  0  0  0  0  0  0  0  0  0
    9.7931  -15.4049   22.8255 N   0  0  0  0  0  0  0  0  0  0  0  0
   10.2905  -16.5289   23.5636 C   0  0  1  0  0  0  0  0  0  0  0  0
   10.7722  -17.6600   22.7161 C   0  0  0  0  0  0  0  0  0  0  0  0
   11.0023  -18.9559   23.3974 C   0  0  0  0  0  0  0  0  0  0  0  0
   11.4857  -20.0450   22.4730 C   0  0  0  0  0  0  0  0  0  0  0  0
   11.6753  -21.3333   23.2685 C   0  0  0  0  0  0  0  0  0  0  0  0
   12.1429  -22.3941   22.3899 N   0  0  0  0  0  0  0  0  0  0  0  0
   11.2266  -16.1340   24.6445 C   0  0  0  0  0  0  0  0  0  0  0  0
   11.1202  -16.7050   25.9114 O   0  0  0  0  0  0  0  0  0  0  0  0
   12.1381  -15.2876   24.4715 O   0  0  0  0  0  0  0  0  0  0  0  0
  2  5  1  0
  2  3  1  0
  2  1  1  6
  3  4  1  0
  5  6  2  0
  7 11  1  0
  7  5  1  0
  8  7  1  0
  9 10  1  0
  9  8  1  0
 10 11  1  0
 11 12  1  1
 12 13  2  0
 12 14  1  0
 14 15  1  0
 15 21  1  0
 16 17  1  0
 15 16  1  6
 18 19  1  0
 18 17  1  0
 20 19  1  0
 21 23  2  0
 21 22  1  0
M  END
$$$$
