CPK.pdb
     RDKit          3D

 23 23  0  0  1  0  0  0  0  0999 V2000
    5.5211  -14.1491   26.4881 N   0  0  0  0  0  0  0  0  0  0  0  0
    6.5212  -13.6324   25.6117 C   0  0  1  0  0  0  0  0  0  0  0  0
    7.4670  -12.7214   26.4013 C   0  0  0  0  0  0  0  0  0  0  0  0
    6.5944  -11.2299   26.9367 S   0  0  0  0  0  0  0  0  0  0  0  0
    7.2911  -14.6188   24.8587 C   0  0  0  0  0  0  0  0  0  0  0  0
    7.7758  -15.5862   25.4828 O   0  0  0  0  0  0  0  0  0  0  0  0
    7.5358  -14.5586   23.4370 N   0  0  0  0  0  0  0  0  0  0  0  0
    6.8223  -13.6449   22.5713 C   0  0  0  0  0  0  0  0  0  0  0  0
    7.2455  -14.0004   21.1637 C   0  0  0  0  0  0  0  0  0  0  0  0
    8.6042  -14.6368   21.3494 C   0  0  0  0  0  0  0  0  0  0  0  0
    8.4311  -15.3492   22.6634 C   0  0  1  0  0  0  0  0  0  0  0  0
    9.7545  -15.5986   23.3010 C   0  0  0  0  0  0  0  0  0  0  0  0
   10.4718  -14.7599   23.8471 O   0  0  0  0  0  0  0  0  0  0  0  0
   10.2275  -16.9433   23.2704 N   0  0  0  0  0  0  0  0  0  0  0  0
   11.5229  -17.3483   23.7325 C   0  0  1  0  0  0  0  0  0  0  0  0
   11.5344  -18.6369   24.4869 C   0  0  0  0  0  0  0  0  0  0  0  0
   10.9206  -18.6281   25.8358 C   0  0  0  0  0  0  0  0  0  0  0  0
   11.0487  -19.9422   26.5646 C   0  0  0  0  0  0  0  0  0  0  0  0
   10.4783  -19.7950   27.9723 C   0  0  0  0  0  0  0  0  0  0  0  0
   10.3614  -21.1025   28.5989 N   0  0  0  0  0  0  0  0  0  0  0  0
   12.5626  -17.2480   22.6793 C   0  0  0  0  0  0  0  0  0  0  0  0
   13.8460  -16.8066   22.9967 O   0  0  0  0  0  0  0  0  0  0  0  0
   12.3402  -17.5506   21.4809 O   0  0  0  0  0  0  0  0  0  0  0  0
  2  5  1  0
  2  3  1  0
  2  1  1  1
  3  4  1  0
  5  6  2  0
  7 11  1  0
  7  5  1  0
  8  7  1  0
  9 10  1  0
  9  8  1  0
 10 11  1  0
 11 12  1  1
 12 13  2  0
 12 14  1  0
 14 15  1  0
 15 21  1  0
 16 17  1  0
 15 16  1  6
 18 19  1  0
 18 17  1  0
 20 19  1  0
 21 23  2  0
 21 22  1  0
M  END
$$$$
