CPK.pdb
     RDKit          3D

 23 23  0  0  1  0  0  0  0  0999 V2000
    9.3682  -16.6965   16.5693 N   0  0  0  0  0  0  0  0  0  0  0  0
    8.4394  -16.4895   17.6323 C   0  0  1  0  0  0  0  0  0  0  0  0
    7.6324  -17.7723   17.8587 C   0  0  0  0  0  0  0  0  0  0  0  0
    6.5522  -17.5842   19.2977 S   0  0  0  0  0  0  0  0  0  0  0  0
    9.0004  -16.0228   18.8974 C   0  0  0  0  0  0  0  0  0  0  0  0
    9.9362  -16.6785   19.4020 O   0  0  0  0  0  0  0  0  0  0  0  0
    8.5507  -14.8524   19.6131 N   0  0  0  0  0  0  0  0  0  0  0  0
    7.6630  -13.8786   19.0155 C   0  0  0  0  0  0  0  0  0  0  0  0
    7.5639  -12.7479   20.0149 C   0  0  0  0  0  0  0  0  0  0  0  0
    7.8733  -13.4122   21.3372 C   0  0  0  0  0  0  0  0  0  0  0  0
    8.8937  -14.4407   20.9315 C   0  0  1  0  0  0  0  0  0  0  0  0
    8.9536  -15.5414   21.9339 C   0  0  0  0  0  0  0  0  0  0  0  0
    8.2034  -16.5159   21.9942 O   0  0  0  0  0  0  0  0  0  0  0  0
    9.9840  -15.4477   22.9149 N   0  0  0  0  0  0  0  0  0  0  0  0
   10.4414  -16.5530   23.7054 C   0  0  1  0  0  0  0  0  0  0  0  0
   10.9607  -17.7065   22.9122 C   0  0  0  0  0  0  0  0  0  0  0  0
   10.6603  -19.0629   23.4285 C   0  0  0  0  0  0  0  0  0  0  0  0
   11.1687  -20.1714   22.5412 C   0  0  0  0  0  0  0  0  0  0  0  0
   10.9767  -21.5101   23.2479 C   0  0  0  0  0  0  0  0  0  0  0  0
   11.5772  -22.5763   22.4616 N   0  0  0  0  0  0  0  0  0  0  0  0
   11.3245  -16.1315   24.8203 C   0  0  0  0  0  0  0  0  0  0  0  0
   11.1256  -16.6346   26.1048 O   0  0  0  0  0  0  0  0  0  0  0  0
   12.2713  -15.3218   24.6617 O   0  0  0  0  0  0  0  0  0  0  0  0
  2  5  1  0
  2  3  1  0
  2  1  1  6
  3  4  1  0
  5  6  2  0
  7 11  1  0
  7  5  1  0
  8  7  1  0
  9 10  1  0
  9  8  1  0
 10 11  1  0
 11 12  1  1
 12 13  2  0
 12 14  1  0
 14 15  1  0
 15 21  1  0
 16 17  1  0
 15 16  1  6
 18 19  1  0
 18 17  1  0
 20 19  1  0
 21 23  2  0
 21 22  1  0
M  END
$$$$
