CPK.pdb
     RDKit          3D

 23 23  0  0  1  0  0  0  0  0999 V2000
    2.9125  -24.4318   24.2261 N   0  0  0  0  0  0  0  0  0  0  0  0
    1.7390  -23.8674   23.6433 C   0  0  1  0  0  0  0  0  0  0  0  0
    1.0168  -24.9375   22.8179 C   0  0  0  0  0  0  0  0  0  0  0  0
    1.8751  -25.1984   21.2468 S   0  0  0  0  0  0  0  0  0  0  0  0
    0.8020  -23.2321   24.5661 C   0  0  0  0  0  0  0  0  0  0  0  0
    0.5877  -23.7911   25.6625 O   0  0  0  0  0  0  0  0  0  0  0  0
    0.1002  -21.9981   24.3038 N   0  0  0  0  0  0  0  0  0  0  0  0
    0.5010  -21.0943   23.2474 C   0  0  0  0  0  0  0  0  0  0  0  0
   -0.3718  -19.8692   23.4041 C   0  0  0  0  0  0  0  0  0  0  0  0
   -1.6023  -20.3952   24.1076 C   0  0  0  0  0  0  0  0  0  0  0  0
   -1.0147  -21.4538   25.0009 C   0  0  1  0  0  0  0  0  0  0  0  0
   -2.0552  -22.4476   25.3880 C   0  0  0  0  0  0  0  0  0  0  0  0
   -2.4617  -23.3847   24.7005 O   0  0  0  0  0  0  0  0  0  0  0  0
   -2.6299  -22.2893   26.6832 N   0  0  0  0  0  0  0  0  0  0  0  0
   -3.5997  -23.1835   27.2449 C   0  0  1  0  0  0  0  0  0  0  0  0
   -3.0463  -24.5002   27.6803 C   0  0  0  0  0  0  0  0  0  0  0  0
   -4.0174  -25.5018   28.1806 C   0  0  0  0  0  0  0  0  0  0  0  0
   -3.3776  -26.7963   28.6157 C   0  0  0  0  0  0  0  0  0  0  0  0
   -4.4584  -27.7470   29.1222 C   0  0  0  0  0  0  0  0  0  0  0  0
   -3.8863  -29.0612   29.3694 N   0  0  0  0  0  0  0  0  0  0  0  0
   -4.4705  -22.5249   28.2490 C   0  0  0  0  0  0  0  0  0  0  0  0
   -3.9460  -21.5683   29.1164 O   0  0  0  0  0  0  0  0  0  0  0  0
   -5.6926  -22.7915   28.3605 O   0  0  0  0  0  0  0  0  0  0  0  0
  2  5  1  0
  2  3  1  0
  2  1  1  1
  3  4  1  0
  5  6  2  0
  7 11  1  0
  7  5  1  0
  8  7  1  0
  9 10  1  0
  9  8  1  0
 10 11  1  0
 11 12  1  6
 12 13  2  0
 12 14  1  0
 14 15  1  0
 15 21  1  0
 16 17  1  0
 15 16  1  1
 18 19  1  0
 18 17  1  0
 20 19  1  0
 21 23  2  0
 21 22  1  0
M  END
$$$$
