CPK.pdb
     RDKit          3D

 23 23  0  0  1  0  0  0  0  0999 V2000
    5.3434  -13.9591   26.4368 N   0  0  0  0  0  0  0  0  0  0  0  0
    6.4787  -13.4709   25.7239 C   0  0  1  0  0  0  0  0  0  0  0  0
    7.4822  -12.8727   26.7154 C   0  0  0  0  0  0  0  0  0  0  0  0
    7.4254  -11.0657   26.6471 S   0  0  0  0  0  0  0  0  0  0  0  0
    7.1511  -14.4274   24.8488 C   0  0  0  0  0  0  0  0  0  0  0  0
    7.5158  -15.5166   25.3398 O   0  0  0  0  0  0  0  0  0  0  0  0
    7.4280  -14.2063   23.4492 N   0  0  0  0  0  0  0  0  0  0  0  0
    6.8066  -13.1345   22.7017 C   0  0  0  0  0  0  0  0  0  0  0  0
    7.2282  -13.3406   21.2641 C   0  0  0  0  0  0  0  0  0  0  0  0
    8.5282  -14.1039   21.3792 C   0  0  0  0  0  0  0  0  0  0  0  0
    8.2730  -14.9617   22.5887 C   0  0  1  0  0  0  0  0  0  0  0  0
    9.5595  -15.3972   23.2014 C   0  0  0  0  0  0  0  0  0  0  0  0
   10.3590  -14.6827   23.8066 O   0  0  0  0  0  0  0  0  0  0  0  0
    9.8874  -16.7784   23.0684 N   0  0  0  0  0  0  0  0  0  0  0  0
   11.0953  -17.3675   23.5680 C   0  0  1  0  0  0  0  0  0  0  0  0
   10.9165  -18.7171   24.1812 C   0  0  0  0  0  0  0  0  0  0  0  0
   11.8408  -19.0800   25.2815 C   0  0  0  0  0  0  0  0  0  0  0  0
   11.6229  -20.4731   25.8165 C   0  0  0  0  0  0  0  0  0  0  0  0
   12.5869  -20.7251   26.9722 C   0  0  0  0  0  0  0  0  0  0  0  0
   12.3190  -22.0254   27.5666 N   0  0  0  0  0  0  0  0  0  0  0  0
   12.2165  -17.2798   22.6008 C   0  0  0  0  0  0  0  0  0  0  0  0
   13.5081  -17.0001   23.0436 O   0  0  0  0  0  0  0  0  0  0  0  0
   12.0578  -17.4512   21.3668 O   0  0  0  0  0  0  0  0  0  0  0  0
  2  5  1  0
  2  3  1  0
  2  1  1  1
  3  4  1  0
  5  6  2  0
  7 11  1  0
  7  5  1  0
  8  7  1  0
  9 10  1  0
  9  8  1  0
 10 11  1  0
 11 12  1  1
 12 13  2  0
 12 14  1  0
 14 15  1  0
 15 21  1  0
 16 17  1  0
 15 16  1  6
 18 19  1  0
 18 17  1  0
 20 19  1  0
 21 23  2  0
 21 22  1  0
M  END
$$$$
