CPK.pdb
     RDKit          3D

 23 23  0  0  1  0  0  0  0  0999 V2000
    8.3309  -15.0391   21.2327 N   0  0  0  0  0  0  0  0  0  0  0  0
    7.4853  -14.9956   22.3809 C   0  0  1  0  0  0  0  0  0  0  0  0
    6.8159  -16.3609   22.5707 C   0  0  0  0  0  0  0  0  0  0  0  0
    5.4688  -16.5662   21.3808 S   0  0  0  0  0  0  0  0  0  0  0  0
    8.1133  -14.5697   23.6287 C   0  0  0  0  0  0  0  0  0  0  0  0
    9.2513  -15.0112   23.8938 O   0  0  0  0  0  0  0  0  0  0  0  0
    7.5126  -13.6705   24.5853 N   0  0  0  0  0  0  0  0  0  0  0  0
    6.3807  -12.8341   24.2499 C   0  0  0  0  0  0  0  0  0  0  0  0
    6.1606  -11.9425   25.4514 C   0  0  0  0  0  0  0  0  0  0  0  0
    6.7471  -12.7359   26.5969 C   0  0  0  0  0  0  0  0  0  0  0  0
    7.9074  -13.4236   25.9301 C   0  0  1  0  0  0  0  0  0  0  0  0
    8.3066  -14.6373   26.6967 C   0  0  0  0  0  0  0  0  0  0  0  0
    7.6734  -15.6900   26.7791 O   0  0  0  0  0  0  0  0  0  0  0  0
    9.5444  -14.5619   27.4002 N   0  0  0  0  0  0  0  0  0  0  0  0
   10.0854  -15.6307   28.1880 C   0  0  1  0  0  0  0  0  0  0  0  0
   11.2262  -16.3522   27.5497 C   0  0  0  0  0  0  0  0  0  0  0  0
   11.8062  -17.4880   28.3048 C   0  0  0  0  0  0  0  0  0  0  0  0
   12.9429  -18.1710   27.5867 C   0  0  0  0  0  0  0  0  0  0  0  0
   13.3880  -19.3885   28.3917 C   0  0  0  0  0  0  0  0  0  0  0  0
   14.5013  -20.0444   27.7239 N   0  0  0  0  0  0  0  0  0  0  0  0
   10.3239  -15.2373   29.5982 C   0  0  0  0  0  0  0  0  0  0  0  0
   10.2468  -13.8986   29.9782 O   0  0  0  0  0  0  0  0  0  0  0  0
   10.5985  -16.0730   30.4944 O   0  0  0  0  0  0  0  0  0  0  0  0
  2  5  1  0
  2  3  1  0
  2  1  1  6
  3  4  1  0
  5  6  2  0
  7 11  1  0
  7  5  1  0
  8  7  1  0
  9 10  1  0
  9  8  1  0
 10 11  1  0
 11 12  1  1
 12 13  2  0
 12 14  1  0
 14 15  1  0
 15 21  1  0
 16 17  1  0
 15 16  1  6
 18 19  1  0
 18 17  1  0
 20 19  1  0
 21 23  2  0
 21 22  1  0
M  END
$$$$
