CPK.pdb
     RDKit          3D

 23 23  0  0  1  0  0  0  0  0999 V2000
    5.8846  -18.4687   19.1249 N   0  0  0  0  0  0  0  0  0  0  0  0
    5.9387  -17.3280   19.9800 C   0  0  1  0  0  0  0  0  0  0  0  0
    5.3089  -17.6769   21.3326 C   0  0  0  0  0  0  0  0  0  0  0  0
    3.5173  -17.8585   21.1585 S   0  0  0  0  0  0  0  0  0  0  0  0
    7.2580  -16.7351   20.1817 C   0  0  0  0  0  0  0  0  0  0  0  0
    8.2187  -17.5020   20.4038 O   0  0  0  0  0  0  0  0  0  0  0  0
    7.5365  -15.3189   20.1437 N   0  0  0  0  0  0  0  0  0  0  0  0
    6.5842  -14.3609   19.6254 C   0  0  0  0  0  0  0  0  0  0  0  0
    7.3061  -13.0321   19.6132 C   0  0  0  0  0  0  0  0  0  0  0  0
    8.3623  -13.1899   20.6833 C   0  0  0  0  0  0  0  0  0  0  0  0
    8.7235  -14.6439   20.5444 C   0  0  1  0  0  0  0  0  0  0  0  0
    9.3368  -15.1528   21.8034 C   0  0  0  0  0  0  0  0  0  0  0  0
    8.7616  -15.3245   22.8785 O   0  0  0  0  0  0  0  0  0  0  0  0
   10.7259  -15.4689   21.7471 N   0  0  0  0  0  0  0  0  0  0  0  0
   11.4666  -16.0255   22.8414 C   0  0  1  0  0  0  0  0  0  0  0  0
   10.9828  -17.3623   23.2980 C   0  0  0  0  0  0  0  0  0  0  0  0
   11.3047  -17.7501   24.6917 C   0  0  0  0  0  0  0  0  0  0  0  0
   10.7777  -19.1101   25.0755 C   0  0  0  0  0  0  0  0  0  0  0  0
   11.2612  -19.4594   26.4801 C   0  0  0  0  0  0  0  0  0  0  0  0
   10.6836  -20.7258   26.9025 N   0  0  0  0  0  0  0  0  0  0  0  0
   12.9337  -15.9435   22.6389 C   0  0  0  0  0  0  0  0  0  0  0  0
   13.8001  -16.0194   23.7280 O   0  0  0  0  0  0  0  0  0  0  0  0
   13.4513  -15.8067   21.5028 O   0  0  0  0  0  0  0  0  0  0  0  0
  2  5  1  0
  2  3  1  0
  2  1  1  6
  3  4  1  0
  5  6  2  0
  7 11  1  0
  7  5  1  0
  8  7  1  0
  9 10  1  0
  9  8  1  0
 10 11  1  0
 11 12  1  1
 12 13  2  0
 12 14  1  0
 14 15  1  0
 15 21  1  0
 16 17  1  0
 15 16  1  6
 18 19  1  0
 18 17  1  0
 20 19  1  0
 21 23  2  0
 21 22  1  0
M  END
$$$$
