CDQ.pdb
     RDKit          3D

 24 23  0  0  1  0  0  0  0  0999 V2000
    6.9149  -15.0596   18.6384 N   0  0  0  0  0  0  0  0  0  0  0  0
    7.8899  -14.5347   19.5705 C   0  0  1  0  0  0  0  0  0  0  0  0
    7.4339  -13.1754   20.0164 C   0  0  0  0  0  0  0  0  0  0  0  0
    8.5519  -12.5226   21.2622 S   0  0  0  0  0  0  0  0  0  0  0  0
    8.1024  -15.4493   20.7172 C   0  0  0  0  0  0  0  0  0  0  0  0
    7.0819  -15.9228   21.2767 O   0  0  0  0  0  0  0  0  0  0  0  0
    9.3939  -15.7847   21.1743 N   0  0  0  0  0  0  0  0  0  0  0  0
    9.6315  -16.6635   22.2893 C   0  0  1  0  0  0  0  0  0  0  0  0
   10.8657  -17.5032   22.1011 C   0  0  0  0  0  0  0  0  0  0  0  0
   12.0797  -16.6980   21.8987 C   0  0  0  0  0  0  0  0  0  0  0  0
   12.4896  -16.4757   20.7377 O   0  0  0  0  0  0  0  0  0  0  0  0
    9.8174  -15.8829   23.5418 C   0  0  0  0  0  0  0  0  0  0  0  0
   10.2027  -14.7078   23.4636 O   0  0  0  0  0  0  0  0  0  0  0  0
   12.7846  -16.1767   22.9644 O   0  0  0  0  0  0  0  0  0  0  0  0
    6.7271  -12.4612   24.8164 N   0  0  0  0  0  0  0  0  0  0  0  0
    6.6314  -12.8099   26.1730 C   0  0  0  0  0  0  0  0  0  0  0  0
    6.1031  -12.0403   26.9883 O   0  0  0  0  0  0  0  0  0  0  0  0
    7.1659  -14.1064   26.6313 C   0  0  0  0  0  0  0  0  0  0  0  0
    7.8273  -14.8854   25.5492 C   0  0  0  0  0  0  0  0  0  0  0  0
    9.0632  -15.6127   25.9423 C   0  0  2  0  0  0  0  0  0  0  0  0
    9.5698  -16.4339   24.8272 N   0  0  0  0  0  0  0  0  0  0  0  0
    8.9730  -16.4544   27.1323 C   0  0  0  0  0  0  0  0  0  0  0  0
    8.9648  -17.8586   26.9894 O   0  0  0  0  0  0  0  0  0  0  0  0
    8.8982  -16.0649   28.3244 O   0  0  0  0  0  0  0  0  0  0  0  0
  2  5  1  0
  2  1  1  6
  3  2  1  0
  4  3  1  0
  5  6  2  0
  7  5  1  0
  8  7  1  0
  8  9  1  6
  8 12  1  0
  9 10  1  0
 10 14  1  0
 11 10  2  0
 12 13  2  0
 16 17  2  0
 16 15  1  0
 18 16  1  0
 19 18  1  0
 20 19  1  6
 21 12  1  0
 21 20  1  0
 22 23  1  0
 22 20  1  0
 24 22  2  0
M  END
$$$$
