CDQ.pdb
     RDKit          3D

 24 23  0  0  1  0  0  0  0  0999 V2000
    7.1230  -14.6595   18.8915 N   0  0  0  0  0  0  0  0  0  0  0  0
    8.1582  -14.2935   19.8345 C   0  0  1  0  0  0  0  0  0  0  0  0
    7.8059  -12.9610   20.4300 C   0  0  0  0  0  0  0  0  0  0  0  0
    8.5022  -11.6338   19.4392 S   0  0  0  0  0  0  0  0  0  0  0  0
    8.3455  -15.3314   20.8758 C   0  0  0  0  0  0  0  0  0  0  0  0
    7.3521  -16.0426   21.1693 O   0  0  0  0  0  0  0  0  0  0  0  0
    9.5845  -15.5253   21.5212 N   0  0  0  0  0  0  0  0  0  0  0  0
    9.7881  -16.5021   22.5587 C   0  0  1  0  0  0  0  0  0  0  0  0
   10.9114  -17.4501   22.2375 C   0  0  0  0  0  0  0  0  0  0  0  0
   11.0714  -18.5093   23.2452 C   0  0  0  0  0  0  0  0  0  0  0  0
   12.2129  -18.7893   23.6743 O   0  0  0  0  0  0  0  0  0  0  0  0
   10.1279  -15.8374   23.8453 C   0  0  0  0  0  0  0  0  0  0  0  0
   11.2534  -16.0150   24.3322 O   0  0  0  0  0  0  0  0  0  0  0  0
    9.9868  -19.2085   23.7341 O   0  0  0  0  0  0  0  0  0  0  0  0
    5.2383  -13.3352   26.6513 N   0  0  0  0  0  0  0  0  0  0  0  0
    6.2879  -12.4562   26.3398 C   0  0  0  0  0  0  0  0  0  0  0  0
    6.1749  -11.2388   26.5429 O   0  0  0  0  0  0  0  0  0  0  0  0
    7.5377  -12.9889   25.7646 C   0  0  0  0  0  0  0  0  0  0  0  0
    8.0932  -14.1390   26.5287 C   0  0  0  0  0  0  0  0  0  0  0  0
    9.3423  -14.7323   25.9821 C   0  0  2  0  0  0  0  0  0  0  0  0
    9.2098  -15.0049   24.5390 N   0  0  0  0  0  0  0  0  0  0  0  0
    9.8299  -15.9425   26.6381 C   0  0  0  0  0  0  0  0  0  0  0  0
    9.0774  -17.1330   26.5448 O   0  0  0  0  0  0  0  0  0  0  0  0
   10.8866  -16.0608   27.3073 O   0  0  0  0  0  0  0  0  0  0  0  0
  2  5  1  0
  2  1  1  6
  3  2  1  0
  4  3  1  0
  5  6  2  0
  7  5  1  0
  8  7  1  0
  8  9  1  6
  8 12  1  0
  9 10  1  0
 10 14  1  0
 11 10  2  0
 12 13  2  0
 16 17  2  0
 16 15  1  0
 18 16  1  0
 19 18  1  0
 20 19  1  1
 21 12  1  0
 21 20  1  0
 22 23  1  0
 22 20  1  0
 24 22  2  0
M  END
$$$$
