CDQ.pdb
     RDKit          3D

 24 23  0  0  1  0  0  0  0  0999 V2000
    5.4052  -15.0696   25.6841 N   0  0  0  0  0  0  0  0  0  0  0  0
    6.4121  -14.4092   24.8810 C   0  0  1  0  0  0  0  0  0  0  0  0
    6.9725  -13.2636   25.6735 C   0  0  0  0  0  0  0  0  0  0  0  0
    5.6524  -12.1576   26.1856 S   0  0  0  0  0  0  0  0  0  0  0  0
    7.4715  -15.3494   24.4450 C   0  0  0  0  0  0  0  0  0  0  0  0
    7.3948  -16.5362   24.8504 O   0  0  0  0  0  0  0  0  0  0  0  0
    8.5311  -14.9427   23.6076 N   0  0  0  0  0  0  0  0  0  0  0  0
    9.4487  -15.8660   22.9932 C   0  0  1  0  0  0  0  0  0  0  0  0
   10.3100  -15.2061   21.9509 C   0  0  0  0  0  0  0  0  0  0  0  0
   11.2196  -16.1478   21.2810 C   0  0  0  0  0  0  0  0  0  0  0  0
   10.7604  -17.1883   20.7594 O   0  0  0  0  0  0  0  0  0  0  0  0
   10.3613  -16.4532   24.0104 C   0  0  0  0  0  0  0  0  0  0  0  0
   11.1748  -17.3185   23.6568 O   0  0  0  0  0  0  0  0  0  0  0  0
   12.5775  -15.9124   21.2119 O   0  0  0  0  0  0  0  0  0  0  0  0
   11.5414  -14.1465   29.7906 N   0  0  0  0  0  0  0  0  0  0  0  0
   10.4852  -13.8842   28.9035 C   0  0  0  0  0  0  0  0  0  0  0  0
    9.6879  -12.9613   29.1245 O   0  0  0  0  0  0  0  0  0  0  0  0
   10.3241  -14.7166   27.6962 C   0  0  0  0  0  0  0  0  0  0  0  0
   11.3567  -15.7815   27.5742 C   0  0  0  0  0  0  0  0  0  0  0  0
   11.2463  -16.6511   26.3731 C   0  0  2  0  0  0  0  0  0  0  0  0
   10.3364  -16.0596   25.3748 N   0  0  0  0  0  0  0  0  0  0  0  0
   10.8406  -18.0346   26.6057 C   0  0  0  0  0  0  0  0  0  0  0  0
    9.6712  -18.5276   25.9878 O   0  0  0  0  0  0  0  0  0  0  0  0
   11.4316  -18.8807   27.3220 O   0  0  0  0  0  0  0  0  0  0  0  0
  2  5  1  0
  2  1  1  1
  3  2  1  0
  4  3  1  0
  5  6  2  0
  7  5  1  0
  8  7  1  0
  8  9  1  6
  8 12  1  0
  9 10  1  0
 10 14  1  0
 11 10  2  0
 12 13  2  0
 16 17  2  0
 16 15  1  0
 18 16  1  0
 19 18  1  0
 20 19  1  1
 21 12  1  0
 21 20  1  0
 22 23  1  0
 22 20  1  0
 24 22  2  0
M  END
$$$$
