CDQ.pdb
     RDKit          3D

 24 23  0  0  1  0  0  0  0  0999 V2000
    7.3378  -15.3166   18.5368 N   0  0  0  0  0  0  0  0  0  0  0  0
    8.1668  -14.7253   19.5655 C   0  0  1  0  0  0  0  0  0  0  0  0
    7.5371  -13.4315   19.9946 C   0  0  0  0  0  0  0  0  0  0  0  0
    8.7653  -12.1203   20.0177 S   0  0  0  0  0  0  0  0  0  0  0  0
    8.3667  -15.6476   20.7082 C   0  0  0  0  0  0  0  0  0  0  0  0
    7.3399  -16.0906   21.2810 O   0  0  0  0  0  0  0  0  0  0  0  0
    9.6534  -16.0230   21.1474 N   0  0  0  0  0  0  0  0  0  0  0  0
    9.8869  -16.7704   22.3552 C   0  0  1  0  0  0  0  0  0  0  0  0
   11.1641  -17.5635   22.2977 C   0  0  0  0  0  0  0  0  0  0  0  0
   11.3214  -18.4776   23.4390 C   0  0  0  0  0  0  0  0  0  0  0  0
   10.3309  -18.7566   24.1508 O   0  0  0  0  0  0  0  0  0  0  0  0
    9.9883  -15.8576   23.5253 C   0  0  0  0  0  0  0  0  0  0  0  0
   10.9355  -15.0608   23.5830 O   0  0  0  0  0  0  0  0  0  0  0  0
   12.5427  -19.0405   23.7484 O   0  0  0  0  0  0  0  0  0  0  0  0
    5.4932  -12.5618   25.7395 N   0  0  0  0  0  0  0  0  0  0  0  0
    6.5117  -12.1810   26.6278 C   0  0  0  0  0  0  0  0  0  0  0  0
    6.3727  -11.1933   27.3636 O   0  0  0  0  0  0  0  0  0  0  0  0
    7.7596  -12.9658   26.6848 C   0  0  0  0  0  0  0  0  0  0  0  0
    7.8213  -14.0472   25.6641 C   0  0  0  0  0  0  0  0  0  0  0  0
    9.0670  -14.8591   25.6604 C   0  0  2  0  0  0  0  0  0  0  0  0
    9.0390  -15.8641   24.5817 N   0  0  0  0  0  0  0  0  0  0  0  0
    9.4095  -15.5322   26.9103 C   0  0  0  0  0  0  0  0  0  0  0  0
    9.3514  -16.9409   26.9778 O   0  0  0  0  0  0  0  0  0  0  0  0
    9.7664  -14.9867   27.9843 O   0  0  0  0  0  0  0  0  0  0  0  0
  2  5  1  0
  2  1  1  6
  3  2  1  0
  4  3  1  0
  5  6  2  0
  7  5  1  0
  8  7  1  0
  8  9  1  6
  8 12  1  0
  9 10  1  0
 10 14  1  0
 11 10  2  0
 12 13  2  0
 16 17  2  0
 16 15  1  0
 18 16  1  0
 19 18  1  0
 20 19  1  1
 21 12  1  0
 21 20  1  0
 22 23  1  0
 22 20  1  0
 24 22  2  0
M  END
$$$$
