CDQ.pdb
     RDKit          3D

 24 23  0  0  1  0  0  0  0  0999 V2000
    8.5787  -15.1947   16.7429 N   0  0  0  0  0  0  0  0  0  0  0  0
    9.5474  -14.4488   17.5175 C   0  0  1  0  0  0  0  0  0  0  0  0
    8.8180  -13.7119   18.6036 C   0  0  0  0  0  0  0  0  0  0  0  0
    7.6728  -12.5262   17.8891 S   0  0  0  0  0  0  0  0  0  0  0  0
   10.6090  -15.3272   18.0633 C   0  0  0  0  0  0  0  0  0  0  0  0
   10.2465  -16.3785   18.6482 O   0  0  0  0  0  0  0  0  0  0  0  0
   11.9774  -15.0090   17.9389 N   0  0  0  0  0  0  0  0  0  0  0  0
   13.0301  -15.8379   18.4650 C   0  0  1  0  0  0  0  0  0  0  0  0
   14.2651  -15.8056   17.6062 C   0  0  0  0  0  0  0  0  0  0  0  0
   14.3255  -16.9210   16.6496 C   0  0  0  0  0  0  0  0  0  0  0  0
   13.3519  -17.1448   15.8962 O   0  0  0  0  0  0  0  0  0  0  0  0
   13.4273  -15.3814   19.8238 C   0  0  0  0  0  0  0  0  0  0  0  0
   13.8237  -14.2168   19.9724 O   0  0  0  0  0  0  0  0  0  0  0  0
   15.4368  -17.7341   16.5599 O   0  0  0  0  0  0  0  0  0  0  0  0
   11.2664  -14.9541   25.0254 N   0  0  0  0  0  0  0  0  0  0  0  0
   10.6893  -15.6363   23.9425 C   0  0  0  0  0  0  0  0  0  0  0  0
    9.4702  -15.5687   23.7294 O   0  0  0  0  0  0  0  0  0  0  0  0
   11.5444  -16.4415   23.0497 C   0  0  0  0  0  0  0  0  0  0  0  0
   12.9939  -16.3342   23.3696 C   0  0  0  0  0  0  0  0  0  0  0  0
   13.8551  -15.7963   22.2834 C   0  0  2  0  0  0  0  0  0  0  0  0
   13.3697  -16.2310   20.9606 N   0  0  0  0  0  0  0  0  0  0  0  0
   15.2814  -16.0967   22.3739 C   0  0  0  0  0  0  0  0  0  0  0  0
   16.0419  -15.5403   23.4247 O   0  0  0  0  0  0  0  0  0  0  0  0
   15.9471  -16.8238   21.5951 O   0  0  0  0  0  0  0  0  0  0  0  0
  2  5  1  0
  2  1  1  1
  3  2  1  0
  4  3  1  0
  5  6  2  0
  7  5  1  0
  8  7  1  0
  8  9  1  6
  8 12  1  0
  9 10  1  0
 10 14  1  0
 11 10  2  0
 12 13  2  0
 16 17  2  0
 16 15  1  0
 18 16  1  0
 19 18  1  0
 20 19  1  1
 21 12  1  0
 21 20  1  0
 22 23  1  0
 22 20  1  0
 24 22  2  0
M  END
$$$$
