CDQ.pdb
     RDKit          3D

 24 23  0  0  1  0  0  0  0  0999 V2000
    5.1726  -13.7455   26.5062 N   0  0  0  0  0  0  0  0  0  0  0  0
    6.0900  -13.2637   25.4957 C   0  0  1  0  0  0  0  0  0  0  0  0
    6.8591  -12.1079   26.0676 C   0  0  0  0  0  0  0  0  0  0  0  0
    8.6110  -12.5007   26.1369 S   0  0  0  0  0  0  0  0  0  0  0  0
    6.9880  -14.3384   25.0109 C   0  0  0  0  0  0  0  0  0  0  0  0
    7.1754  -15.3223   25.7696 O   0  0  0  0  0  0  0  0  0  0  0  0
    7.6153  -14.2738   23.7493 N   0  0  0  0  0  0  0  0  0  0  0  0
    8.3571  -15.3687   23.1811 C   0  0  1  0  0  0  0  0  0  0  0  0
    8.6139  -15.1818   21.7104 C   0  0  0  0  0  0  0  0  0  0  0  0
    9.3078  -16.3264   21.1012 C   0  0  0  0  0  0  0  0  0  0  0  0
   10.5586  -16.3530   21.0794 O   0  0  0  0  0  0  0  0  0  0  0  0
    9.6812  -15.5053   23.8448 C   0  0  0  0  0  0  0  0  0  0  0  0
   10.4791  -14.5588   23.7901 O   0  0  0  0  0  0  0  0  0  0  0  0
    8.6102  -17.3808   20.5483 O   0  0  0  0  0  0  0  0  0  0  0  0
   11.0472  -13.6720   28.4253 N   0  0  0  0  0  0  0  0  0  0  0  0
   10.4317  -14.8960   28.7324 C   0  0  0  0  0  0  0  0  0  0  0  0
    9.9069  -15.0798   29.8401 O   0  0  0  0  0  0  0  0  0  0  0  0
   10.4103  -15.9736   27.7250 C   0  0  0  0  0  0  0  0  0  0  0  0
   11.1212  -15.6167   26.4671 C   0  0  0  0  0  0  0  0  0  0  0  0
   11.2239  -16.7015   25.4553 C   0  0  2  0  0  0  0  0  0  0  0  0
   10.0674  -16.6816   24.5407 N   0  0  0  0  0  0  0  0  0  0  0  0
   11.3830  -18.0590   25.9697 C   0  0  0  0  0  0  0  0  0  0  0  0
   10.3599  -19.0069   25.7533 O   0  0  0  0  0  0  0  0  0  0  0  0
   12.3646  -18.5091   26.6117 O   0  0  0  0  0  0  0  0  0  0  0  0
  2  5  1  0
  2  1  1  1
  3  2  1  0
  4  3  1  0
  5  6  2  0
  7  5  1  0
  8  7  1  0
  8  9  1  6
  8 12  1  0
  9 10  1  0
 10 14  1  0
 11 10  2  0
 12 13  2  0
 16 17  2  0
 16 15  1  0
 18 16  1  0
 19 18  1  0
 20 19  1  1
 21 12  1  0
 21 20  1  0
 22 23  1  0
 22 20  1  0
 24 22  2  0
M  END
$$$$
