CDQ.pdb
     RDKit          3D

 24 23  0  0  1  0  0  0  0  0999 V2000
    7.2502  -14.7232   17.5905 N   0  0  0  0  0  0  0  0  0  0  0  0
    8.1686  -14.2350   18.5971 C   0  0  1  0  0  0  0  0  0  0  0  0
    7.5075  -13.1049   19.3321 C   0  0  0  0  0  0  0  0  0  0  0  0
    8.5491  -12.5515   20.6875 S   0  0  0  0  0  0  0  0  0  0  0  0
    8.6006  -15.3138   19.5169 C   0  0  0  0  0  0  0  0  0  0  0  0
    7.7026  -15.9721   20.0992 O   0  0  0  0  0  0  0  0  0  0  0  0
    9.9630  -15.6024   19.7402 N   0  0  0  0  0  0  0  0  0  0  0  0
   10.4144  -16.5966   20.6782 C   0  0  1  0  0  0  0  0  0  0  0  0
   11.7700  -17.1435   20.3220 C   0  0  0  0  0  0  0  0  0  0  0  0
   12.2331  -18.1784   21.2586 C   0  0  0  0  0  0  0  0  0  0  0  0
   11.4162  -19.0047   21.7229 O   0  0  0  0  0  0  0  0  0  0  0  0
   10.5185  -16.0190   22.0450 C   0  0  0  0  0  0  0  0  0  0  0  0
   11.1889  -14.9901   22.2109 O   0  0  0  0  0  0  0  0  0  0  0  0
   13.5559  -18.2631   21.6424 O   0  0  0  0  0  0  0  0  0  0  0  0
    6.8081  -12.9050   23.9501 N   0  0  0  0  0  0  0  0  0  0  0  0
    6.7409  -14.0448   24.7671 C   0  0  0  0  0  0  0  0  0  0  0  0
    5.9454  -14.0968   25.7162 O   0  0  0  0  0  0  0  0  0  0  0  0
    7.6269  -15.1918   24.4917 C   0  0  0  0  0  0  0  0  0  0  0  0
    9.0679  -14.8860   24.7040 C   0  0  0  0  0  0  0  0  0  0  0  0
   10.0024  -16.0283   24.5225 C   0  0  2  0  0  0  0  0  0  0  0  0
    9.8776  -16.6026   23.1701 N   0  0  0  0  0  0  0  0  0  0  0  0
    9.9028  -17.1123   25.4959 C   0  0  0  0  0  0  0  0  0  0  0  0
   10.1521  -16.8451   26.8593 O   0  0  0  0  0  0  0  0  0  0  0  0
    9.6087  -18.3105   25.2589 O   0  0  0  0  0  0  0  0  0  0  0  0
  2  5  1  0
  2  1  1  6
  3  2  1  0
  4  3  1  0
  5  6  2  0
  7  5  1  0
  8  7  1  0
  8  9  1  6
  8 12  1  0
  9 10  1  0
 10 14  1  0
 11 10  2  0
 12 13  2  0
 16 17  2  0
 16 15  1  0
 18 16  1  0
 19 18  1  0
 20 19  1  1
 21 12  1  0
 21 20  1  0
 22 23  1  0
 22 20  1  0
 24 22  2  0
M  END
$$$$
