CDQ.pdb
     RDKit          3D

 24 23  0  0  1  0  0  0  0  0999 V2000
    7.2540  -16.2256   20.5949 N   0  0  0  0  0  0  0  0  0  0  0  0
    8.4926  -15.5763   20.9681 C   0  0  1  0  0  0  0  0  0  0  0  0
    8.1635  -14.2419   21.5728 C   0  0  0  0  0  0  0  0  0  0  0  0
    7.4584  -13.1532   20.3296 S   0  0  0  0  0  0  0  0  0  0  0  0
    9.2980  -16.4151   21.8868 C   0  0  0  0  0  0  0  0  0  0  0  0
    8.6844  -17.2548   22.5919 O   0  0  0  0  0  0  0  0  0  0  0  0
   10.6998  -16.2876   21.9775 N   0  0  0  0  0  0  0  0  0  0  0  0
   11.5101  -17.0988   22.8477 C   0  0  1  0  0  0  0  0  0  0  0  0
   12.9388  -17.1825   22.3831 C   0  0  0  0  0  0  0  0  0  0  0  0
   13.0700  -17.7678   21.0403 C   0  0  0  0  0  0  0  0  0  0  0  0
   12.5728  -18.8911   20.8024 O   0  0  0  0  0  0  0  0  0  0  0  0
   11.5276  -16.5353   24.2241 C   0  0  0  0  0  0  0  0  0  0  0  0
   11.5750  -15.3054   24.3673 O   0  0  0  0  0  0  0  0  0  0  0  0
   13.7325  -17.1054   20.0272 O   0  0  0  0  0  0  0  0  0  0  0  0
    9.8313  -12.9578   28.5022 N   0  0  0  0  0  0  0  0  0  0  0  0
    9.0891  -13.9955   27.9161 C   0  0  0  0  0  0  0  0  0  0  0  0
    8.0296  -13.7564   27.3191 O   0  0  0  0  0  0  0  0  0  0  0  0
    9.5770  -15.3844   28.0126 C   0  0  0  0  0  0  0  0  0  0  0  0
    9.9872  -15.9561   26.7012 C   0  0  0  0  0  0  0  0  0  0  0  0
   11.2113  -16.8001   26.7210 C   0  0  2  0  0  0  0  0  0  0  0  0
   11.4919  -17.3546   25.3838 N   0  0  0  0  0  0  0  0  0  0  0  0
   11.2326  -17.8937   27.6885 C   0  0  0  0  0  0  0  0  0  0  0  0
   11.4895  -17.6123   29.0476 O   0  0  0  0  0  0  0  0  0  0  0  0
   11.0417  -19.1123   27.4497 O   0  0  0  0  0  0  0  0  0  0  0  0
  2  5  1  0
  2  1  1  1
  3  2  1  0
  4  3  1  0
  5  6  2  0
  7  5  1  0
  8  7  1  0
  8  9  1  6
  8 12  1  0
  9 10  1  0
 10 14  1  0
 11 10  2  0
 12 13  2  0
 16 17  2  0
 16 15  1  0
 18 16  1  0
 19 18  1  0
 20 19  1  6
 21 12  1  0
 21 20  1  0
 22 23  1  0
 22 20  1  0
 24 22  2  0
M  END
$$$$
