IPC.pdb
     RDKit          3D

 22 22  0  0  1  0  0  0  0  0999 V2000
    7.0835  -11.4632   27.7340 C   0  0  0  0  0  0  0  0  0  0  0  0
    6.2798  -12.3176   26.7950 C   0  0  0  0  0  0  0  0  0  0  0  0
    7.1116  -13.3756   26.1168 C   0  0  2  0  0  0  0  0  0  0  0  0
    8.1325  -12.7221   25.2358 C   0  0  0  0  0  0  0  0  0  0  0  0
    6.2049  -14.3025   25.3155 C   0  0  2  0  0  0  0  0  0  0  0  0
    5.2402  -14.8531   26.1933 N   0  0  0  0  0  0  0  0  0  0  0  0
    6.9907  -15.2338   24.5088 C   0  0  0  0  0  0  0  0  0  0  0  0
    6.9811  -16.4440   24.9372 O   0  0  0  0  0  0  0  0  0  0  0  0
    7.7363  -14.9664   23.3490 N   0  0  0  0  0  0  0  0  0  0  0  0
    7.9782  -13.7513   22.6183 C   0  0  0  0  0  0  0  0  0  0  0  0
    7.5804  -14.1820   21.2193 C   0  0  0  0  0  0  0  0  0  0  0  0
    8.2602  -15.5555   21.1649 C   0  0  0  0  0  0  0  0  0  0  0  0
    8.4774  -15.9743   22.5976 C   0  0  1  0  0  0  0  0  0  0  0  0
    9.9178  -15.9903   22.9649 C   0  0  0  0  0  0  0  0  0  0  0  0
   10.5140  -14.8820   22.9263 O   0  0  0  0  0  0  0  0  0  0  0  0
   10.6403  -17.1310   23.3422 N   0  0  0  0  0  0  0  0  0  0  0  0
   11.9835  -17.0257   23.8457 C   0  0  1  0  0  0  0  0  0  0  0  0
   12.1303  -17.6351   25.2241 C   0  0  0  0  0  0  0  0  0  0  0  0
   10.4933  -18.2567   25.7052 S   0  0  0  0  0  0  0  0  0  0  0  0
   12.9727  -17.6911   22.9678 C   0  0  0  0  0  0  0  0  0  0  0  0
   14.3082  -17.6202   23.2568 O   0  0  0  0  0  0  0  0  0  0  0  0
   12.5535  -18.3136   21.9643 O   0  0  0  0  0  0  0  0  0  0  0  0
  1  2  1  0
  2  3  1  0
  3  5  1  0
  3  4  1  6
  5  7  1  0
  5  6  1  1
  7  9  1  0
  7  8  2  0
  9 10  1  0
 11 10  1  0
 12 13  1  0
 12 11  1  0
 13  9  1  0
 13 14  1  1
 14 16  1  0
 15 14  2  0
 17 16  1  0
 17 20  1  0
 17 18  1  1
 18 19  1  0
 20 21  1  0
 22 20  2  0
M  END
$$$$
