IPC.pdb
     RDKit          3D

 22 22  0  0  1  0  0  0  0  0999 V2000
    8.4648  -12.6590   27.3252 C   0  0  0  0  0  0  0  0  0  0  0  0
    7.7580  -13.9050   26.8715 C   0  0  0  0  0  0  0  0  0  0  0  0
    6.7031  -13.6280   25.8315 C   0  0  2  0  0  0  0  0  0  0  0  0
    5.6047  -12.8085   26.4378 C   0  0  0  0  0  0  0  0  0  0  0  0
    6.1685  -14.9457   25.2826 C   0  0  2  0  0  0  0  0  0  0  0  0
    5.7062  -15.7277   26.3684 N   0  0  0  0  0  0  0  0  0  0  0  0
    7.1306  -15.5612   24.3710 C   0  0  0  0  0  0  0  0  0  0  0  0
    7.4974  -16.7445   24.7079 O   0  0  0  0  0  0  0  0  0  0  0  0
    7.6869  -15.0231   23.1989 N   0  0  0  0  0  0  0  0  0  0  0  0
    7.5026  -13.7592   22.5375 C   0  0  0  0  0  0  0  0  0  0  0  0
    7.1692  -14.2242   21.1327 C   0  0  0  0  0  0  0  0  0  0  0  0
    8.2296  -15.3186   20.9606 C   0  0  0  0  0  0  0  0  0  0  0  0
    8.6515  -15.7180   22.3526 C   0  0  1  0  0  0  0  0  0  0  0  0
   10.0485  -15.3085   22.6543 C   0  0  0  0  0  0  0  0  0  0  0  0
   10.1898  -14.2036   23.2411 O   0  0  0  0  0  0  0  0  0  0  0  0
   11.1928  -16.0533   22.3358 N   0  0  0  0  0  0  0  0  0  0  0  0
   12.0415  -16.5870   23.3672 C   0  0  1  0  0  0  0  0  0  0  0  0
   11.2811  -17.4606   24.3426 C   0  0  0  0  0  0  0  0  0  0  0  0
   12.2325  -17.4793   25.8893 S   0  0  0  0  0  0  0  0  0  0  0  0
   13.1502  -17.4041   22.8237 C   0  0  0  0  0  0  0  0  0  0  0  0
   12.8944  -18.3975   21.9184 O   0  0  0  0  0  0  0  0  0  0  0  0
   14.3156  -17.1601   23.2143 O   0  0  0  0  0  0  0  0  0  0  0  0
  1  2  1  0
  2  3  1  0
  3  5  1  0
  3  4  1  1
  5  7  1  0
  5  6  1  1
  7  9  1  0
  7  8  2  0
  9 10  1  0
 11 10  1  0
 12 13  1  0
 12 11  1  0
 13  9  1  0
 13 14  1  1
 14 16  1  0
 15 14  2  0
 17 16  1  0
 17 20  1  0
 17 18  1  1
 18 19  1  0
 20 21  1  0
 22 20  2  0
M  END
$$$$
