IPC.pdb
     RDKit          3D

 22 22  0  0  1  0  0  0  0  0999 V2000
    8.2818  -12.3839   27.2814 C   0  0  0  0  0  0  0  0  0  0  0  0
    7.6220  -13.6883   26.9332 C   0  0  0  0  0  0  0  0  0  0  0  0
    6.5917  -13.5448   25.8427 C   0  0  2  0  0  0  0  0  0  0  0  0
    5.4593  -12.6939   26.3319 C   0  0  0  0  0  0  0  0  0  0  0  0
    6.1011  -14.9242   25.4188 C   0  0  2  0  0  0  0  0  0  0  0  0
    5.6927  -15.6289   26.5768 N   0  0  0  0  0  0  0  0  0  0  0  0
    7.0695  -15.5765   24.5401 C   0  0  0  0  0  0  0  0  0  0  0  0
    7.3527  -16.7849   24.8684 O   0  0  0  0  0  0  0  0  0  0  0  0
    7.7105  -15.0494   23.4070 N   0  0  0  0  0  0  0  0  0  0  0  0
    7.7529  -13.7219   22.8548 C   0  0  0  0  0  0  0  0  0  0  0  0
    7.3394  -14.0012   21.4223 C   0  0  0  0  0  0  0  0  0  0  0  0
    8.1877  -15.2478   21.1432 C   0  0  0  0  0  0  0  0  0  0  0  0
    8.5344  -15.8308   22.4905 C   0  0  1  0  0  0  0  0  0  0  0  0
    9.9825  -15.7021   22.8013 C   0  0  0  0  0  0  0  0  0  0  0  0
   10.3719  -14.5652   23.1767 O   0  0  0  0  0  0  0  0  0  0  0  0
   10.9220  -16.7384   22.7060 N   0  0  0  0  0  0  0  0  0  0  0  0
   12.2442  -16.5939   23.2536 C   0  0  1  0  0  0  0  0  0  0  0  0
   12.5649  -17.6671   24.2725 C   0  0  0  0  0  0  0  0  0  0  0  0
   11.3802  -17.4745   25.6352 S   0  0  0  0  0  0  0  0  0  0  0  0
   13.2981  -16.6502   22.2153 C   0  0  0  0  0  0  0  0  0  0  0  0
   14.6009  -16.3885   22.5409 O   0  0  0  0  0  0  0  0  0  0  0  0
   12.9633  -16.9416   21.0433 O   0  0  0  0  0  0  0  0  0  0  0  0
  1  2  1  0
  2  3  1  0
  3  5  1  0
  3  4  1  1
  5  7  1  0
  5  6  1  1
  7  9  1  0
  7  8  2  0
  9 10  1  0
 11 10  1  0
 12 13  1  0
 12 11  1  0
 13  9  1  0
 13 14  1  1
 14 16  1  0
 15 14  2  0
 17 16  1  0
 17 20  1  0
 17 18  1  1
 18 19  1  0
 20 21  1  0
 22 20  2  0
M  END
$$$$
