IPC.pdb
     RDKit          3D

 22 22  0  0  1  0  0  0  0  0999 V2000
    6.2454  -17.5824   22.4034 C   0  0  0  0  0  0  0  0  0  0  0  0
    7.3565  -16.5712   22.4339 C   0  0  0  0  0  0  0  0  0  0  0  0
    6.8595  -15.1576   22.2738 C   0  0  2  0  0  0  0  0  0  0  0  0
    6.1983  -15.0071   20.9374 C   0  0  0  0  0  0  0  0  0  0  0  0
    8.0245  -14.1863   22.4244 C   0  0  2  0  0  0  0  0  0  0  0  0
    8.9331  -14.4096   21.3620 N   0  0  0  0  0  0  0  0  0  0  0  0
    8.5583  -14.2168   23.7845 C   0  0  0  0  0  0  0  0  0  0  0  0
    9.7847  -14.5880   23.8640 O   0  0  0  0  0  0  0  0  0  0  0  0
    7.9029  -13.8956   24.9845 N   0  0  0  0  0  0  0  0  0  0  0  0
    6.5533  -13.4848   25.2648 C   0  0  0  0  0  0  0  0  0  0  0  0
    6.8058  -12.2276   26.0752 C   0  0  0  0  0  0  0  0  0  0  0  0
    7.9290  -12.7281   26.9915 C   0  0  0  0  0  0  0  0  0  0  0  0
    8.5352  -13.9233   26.2994 C   0  0  1  0  0  0  0  0  0  0  0  0
    8.2543  -15.1918   27.0220 C   0  0  0  0  0  0  0  0  0  0  0  0
    7.3509  -15.9211   26.5349 O   0  0  0  0  0  0  0  0  0  0  0  0
    8.9126  -15.6202   28.1834 N   0  0  0  0  0  0  0  0  0  0  0  0
    9.7582  -16.7837   28.1706 C   0  0  1  0  0  0  0  0  0  0  0  0
   10.8962  -16.6565   27.1798 C   0  0  0  0  0  0  0  0  0  0  0  0
   11.8405  -18.2057   27.2565 S   0  0  0  0  0  0  0  0  0  0  0  0
   10.3618  -17.0614   29.4937 C   0  0  0  0  0  0  0  0  0  0  0  0
   10.1722  -18.2749   30.0965 O   0  0  0  0  0  0  0  0  0  0  0  0
   11.0432  -16.1611   30.0373 O   0  0  0  0  0  0  0  0  0  0  0  0
  1  2  1  0
  2  3  1  0
  3  5  1  0
  3  4  1  6
  5  7  1  0
  5  6  1  6
  7  9  1  0
  7  8  2  0
  9 10  1  0
 11 10  1  0
 12 13  1  0
 12 11  1  0
 13  9  1  0
 13 14  1  1
 14 16  1  0
 15 14  2  0
 17 16  1  0
 17 20  1  0
 17 18  1  6
 18 19  1  0
 20 21  1  0
 22 20  2  0
M  END
$$$$
