IPC.pdb
     RDKit          3D

 22 22  0  0  1  0  0  0  0  0999 V2000
    6.4430  -11.5704   27.3347 C   0  0  0  0  0  0  0  0  0  0  0  0
    5.8834  -12.7741   26.6304 C   0  0  0  0  0  0  0  0  0  0  0  0
    6.9400  -13.5630   25.9007 C   0  0  2  0  0  0  0  0  0  0  0  0
    7.6260  -12.6793   24.9037 C   0  0  0  0  0  0  0  0  0  0  0  0
    6.2995  -14.7673   25.2204 C   0  0  2  0  0  0  0  0  0  0  0  0
    5.6020  -15.5153   26.1994 N   0  0  0  0  0  0  0  0  0  0  0  0
    7.2720  -15.4802   24.3949 C   0  0  0  0  0  0  0  0  0  0  0  0
    7.7142  -16.5668   24.9165 O   0  0  0  0  0  0  0  0  0  0  0  0
    7.7671  -15.1245   23.1296 N   0  0  0  0  0  0  0  0  0  0  0  0
    7.5742  -13.9558   22.3135 C   0  0  0  0  0  0  0  0  0  0  0  0
    7.1411  -14.5945   21.0076 C   0  0  0  0  0  0  0  0  0  0  0  0
    8.1599  -15.7376   20.9247 C   0  0  0  0  0  0  0  0  0  0  0  0
    8.6582  -15.9598   22.3309 C   0  0  1  0  0  0  0  0  0  0  0  0
   10.0815  -15.5613   22.4909 C   0  0  0  0  0  0  0  0  0  0  0  0
   10.2879  -14.3974   22.9244 O   0  0  0  0  0  0  0  0  0  0  0  0
   11.1839  -16.3762   22.1976 N   0  0  0  0  0  0  0  0  0  0  0  0
   12.1357  -16.7316   23.2158 C   0  0  1  0  0  0  0  0  0  0  0  0
   11.4826  -17.4090   24.4021 C   0  0  0  0  0  0  0  0  0  0  0  0
   12.8037  -17.7879   25.5890 S   0  0  0  0  0  0  0  0  0  0  0  0
   13.1866  -17.6470   22.7160 C   0  0  0  0  0  0  0  0  0  0  0  0
   14.4935  -17.2434   22.6838 O   0  0  0  0  0  0  0  0  0  0  0  0
   12.8456  -18.7887   22.3281 O   0  0  0  0  0  0  0  0  0  0  0  0
  1  2  1  0
  2  3  1  0
  3  5  1  0
  3  4  1  6
  5  7  1  0
  5  6  1  1
  7  9  1  0
  7  8  2  0
  9 10  1  0
 11 10  1  0
 12 13  1  0
 12 11  1  0
 13  9  1  0
 13 14  1  6
 14 16  1  0
 15 14  2  0
 17 16  1  0
 17 20  1  0
 17 18  1  1
 18 19  1  0
 20 21  1  0
 22 20  2  0
M  END
$$$$
