IPC.pdb
     RDKit          3D

 22 22  0  0  1  0  0  0  0  0999 V2000
    6.7311  -11.9173   27.4956 C   0  0  0  0  0  0  0  0  0  0  0  0
    6.0447  -13.0097   26.7253 C   0  0  0  0  0  0  0  0  0  0  0  0
    7.0085  -13.8555   25.9335 C   0  0  2  0  0  0  0  0  0  0  0  0
    7.7640  -12.9883   24.9729 C   0  0  0  0  0  0  0  0  0  0  0  0
    6.2435  -14.9519   25.2014 C   0  0  2  0  0  0  0  0  0  0  0  0
    5.5466  -15.7270   26.1593 N   0  0  0  0  0  0  0  0  0  0  0  0
    7.1136  -15.6610   24.2655 C   0  0  0  0  0  0  0  0  0  0  0  0
    7.4855  -16.8231   24.6647 O   0  0  0  0  0  0  0  0  0  0  0  0
    7.5786  -15.2306   23.0121 N   0  0  0  0  0  0  0  0  0  0  0  0
    7.4069  -13.9970   22.2927 C   0  0  0  0  0  0  0  0  0  0  0  0
    6.9018  -14.5177   20.9605 C   0  0  0  0  0  0  0  0  0  0  0  0
    7.8680  -15.6906   20.7545 C   0  0  0  0  0  0  0  0  0  0  0  0
    8.4053  -16.0377   22.1205 C   0  0  1  0  0  0  0  0  0  0  0  0
    9.8488  -15.7089   22.2554 C   0  0  0  0  0  0  0  0  0  0  0  0
   10.1215  -14.6404   22.8630 O   0  0  0  0  0  0  0  0  0  0  0  0
   10.9026  -16.4910   21.7620 N   0  0  0  0  0  0  0  0  0  0  0  0
   11.9590  -16.9433   22.6270 C   0  0  1  0  0  0  0  0  0  0  0  0
   11.4380  -17.7511   23.7970 C   0  0  0  0  0  0  0  0  0  0  0  0
   12.8731  -18.1854   24.8215 S   0  0  0  0  0  0  0  0  0  0  0  0
   12.9485  -17.7884   21.9207 C   0  0  0  0  0  0  0  0  0  0  0  0
   14.2420  -17.3647   21.7815 O   0  0  0  0  0  0  0  0  0  0  0  0
   12.5687  -18.8902   21.4602 O   0  0  0  0  0  0  0  0  0  0  0  0
  1  2  1  0
  2  3  1  0
  3  5  1  0
  3  4  1  6
  5  7  1  0
  5  6  1  1
  7  9  1  0
  7  8  2  0
  9 10  1  0
 11 10  1  0
 12 13  1  0
 12 11  1  0
 13  9  1  0
 13 14  1  6
 14 16  1  0
 15 14  2  0
 17 16  1  0
 17 20  1  0
 17 18  1  1
 18 19  1  0
 20 21  1  0
 22 20  2  0
M  END
$$$$
