IPC.pdb
     RDKit          3D

 22 22  0  0  1  0  0  0  0  0999 V2000
    7.9638  -11.5151   19.8331 C   0  0  0  0  0  0  0  0  0  0  0  0
    7.4645  -12.8812   19.4560 C   0  0  0  0  0  0  0  0  0  0  0  0
    8.1522  -13.9823   20.2213 C   0  0  2  0  0  0  0  0  0  0  0  0
    9.6287  -13.9185   19.9733 C   0  0  0  0  0  0  0  0  0  0  0  0
    7.5807  -15.3311   19.8001 C   0  0  2  0  0  0  0  0  0  0  0  0
    6.1699  -15.2701   19.9006 N   0  0  0  0  0  0  0  0  0  0  0  0
    8.2584  -16.4254   20.4922 C   0  0  0  0  0  0  0  0  0  0  0  0
    7.6770  -16.8114   21.5697 O   0  0  0  0  0  0  0  0  0  0  0  0
    9.4416  -17.0874   20.1255 N   0  0  0  0  0  0  0  0  0  0  0  0
   10.3682  -16.8766   19.0458 C   0  0  0  0  0  0  0  0  0  0  0  0
   10.4272  -18.2709   18.4511 C   0  0  0  0  0  0  0  0  0  0  0  0
   10.5333  -19.0996   19.7370 C   0  0  0  0  0  0  0  0  0  0  0  0
   10.0044  -18.2248   20.8460 C   0  0  1  0  0  0  0  0  0  0  0  0
   11.0745  -17.8075   21.7898 C   0  0  0  0  0  0  0  0  0  0  0  0
   11.8208  -16.8693   21.4050 O   0  0  0  0  0  0  0  0  0  0  0  0
   11.3033  -18.3762   23.0507 N   0  0  0  0  0  0  0  0  0  0  0  0
   12.2824  -17.8230   23.9476 C   0  0  1  0  0  0  0  0  0  0  0  0
   11.7691  -17.7235   25.3687 C   0  0  0  0  0  0  0  0  0  0  0  0
   10.2331  -16.7565   25.3103 S   0  0  0  0  0  0  0  0  0  0  0  0
   13.5287  -18.6210   23.9896 C   0  0  0  0  0  0  0  0  0  0  0  0
   14.6023  -18.1843   24.7166 O   0  0  0  0  0  0  0  0  0  0  0  0
   13.5688  -19.6957   23.3464 O   0  0  0  0  0  0  0  0  0  0  0  0
  1  2  1  0
  2  3  1  0
  3  5  1  0
  3  4  1  6
  5  7  1  0
  5  6  1  1
  7  9  1  0
  7  8  2  0
  9 10  1  0
 11 10  1  0
 12 13  1  0
 12 11  1  0
 13  9  1  0
 13 14  1  1
 14 16  1  0
 15 14  2  0
 17 16  1  0
 17 20  1  0
 17 18  1  1
 18 19  1  0
 20 21  1  0
 22 20  2  0
M  END
$$$$
