IPC.pdb
     RDKit          3D

 22 22  0  0  1  0  0  0  0  0999 V2000
    8.2714  -12.3066   27.1441 C   0  0  0  0  0  0  0  0  0  0  0  0
    7.6458  -13.6279   26.7971 C   0  0  0  0  0  0  0  0  0  0  0  0
    6.6015  -13.5100   25.7169 C   0  0  2  0  0  0  0  0  0  0  0  0
    5.4745  -12.6493   26.2012 C   0  0  0  0  0  0  0  0  0  0  0  0
    6.1071  -14.8991   25.3306 C   0  0  2  0  0  0  0  0  0  0  0  0
    5.7389  -15.5872   26.5118 N   0  0  0  0  0  0  0  0  0  0  0  0
    7.0524  -15.5599   24.4332 C   0  0  0  0  0  0  0  0  0  0  0  0
    7.2845  -16.7894   24.7206 O   0  0  0  0  0  0  0  0  0  0  0  0
    7.7197  -15.0208   23.3212 N   0  0  0  0  0  0  0  0  0  0  0  0
    7.7225  -13.7027   22.7454 C   0  0  0  0  0  0  0  0  0  0  0  0
    7.3923  -14.0274   21.3010 C   0  0  0  0  0  0  0  0  0  0  0  0
    8.3139  -15.2342   21.0867 C   0  0  0  0  0  0  0  0  0  0  0  0
    8.6243  -15.7754   22.4599 C   0  0  1  0  0  0  0  0  0  0  0  0
   10.0477  -15.5682   22.8356 C   0  0  0  0  0  0  0  0  0  0  0  0
   10.3789  -14.3902   23.1322 O   0  0  0  0  0  0  0  0  0  0  0  0
   11.0236  -16.5738   22.8802 N   0  0  0  0  0  0  0  0  0  0  0  0
   12.3469  -16.3022   23.3744 C   0  0  1  0  0  0  0  0  0  0  0  0
   12.5550  -16.8275   24.7792 C   0  0  0  0  0  0  0  0  0  0  0  0
   11.6112  -18.3732   24.9117 S   0  0  0  0  0  0  0  0  0  0  0  0
   13.4033  -16.8984   22.5256 C   0  0  0  0  0  0  0  0  0  0  0  0
   14.7221  -16.6429   22.7857 O   0  0  0  0  0  0  0  0  0  0  0  0
   13.0560  -17.6351   21.5733 O   0  0  0  0  0  0  0  0  0  0  0  0
  1  2  1  0
  2  3  1  0
  3  5  1  0
  3  4  1  1
  5  7  1  0
  5  6  1  1
  7  9  1  0
  7  8  2  0
  9 10  1  0
 11 10  1  0
 12 13  1  0
 12 11  1  0
 13  9  1  0
 13 14  1  1
 14 16  1  0
 15 14  2  0
 17 16  1  0
 17 20  1  0
 17 18  1  1
 18 19  1  0
 20 21  1  0
 22 20  2  0
M  END
$$$$
