IPC.pdb
     RDKit          3D

 22 22  0  0  1  0  0  0  0  0999 V2000
    8.6867  -12.4871   27.1756 C   0  0  0  0  0  0  0  0  0  0  0  0
    7.9826  -13.7687   26.8300 C   0  0  0  0  0  0  0  0  0  0  0  0
    6.8396  -13.5624   25.8696 C   0  0  2  0  0  0  0  0  0  0  0  0
    5.7849  -12.7194   26.5196 C   0  0  0  0  0  0  0  0  0  0  0  0
    6.2794  -14.9146   25.4443 C   0  0  2  0  0  0  0  0  0  0  0  0
    5.9429  -15.6456   26.6091 N   0  0  0  0  0  0  0  0  0  0  0  0
    7.1580  -15.5627   24.4729 C   0  0  0  0  0  0  0  0  0  0  0  0
    7.4603  -16.7770   24.7597 O   0  0  0  0  0  0  0  0  0  0  0  0
    7.6969  -15.0259   23.2922 N   0  0  0  0  0  0  0  0  0  0  0  0
    7.4972  -13.7656   22.6283 C   0  0  0  0  0  0  0  0  0  0  0  0
    7.1495  -14.2380   21.2294 C   0  0  0  0  0  0  0  0  0  0  0  0
    8.2141  -15.3268   21.0486 C   0  0  0  0  0  0  0  0  0  0  0  0
    8.6552  -15.7184   22.4368 C   0  0  1  0  0  0  0  0  0  0  0  0
   10.0533  -15.2996   22.7200 C   0  0  0  0  0  0  0  0  0  0  0  0
   10.1924  -14.2818   23.4480 O   0  0  0  0  0  0  0  0  0  0  0  0
   11.2008  -15.9472   22.2410 N   0  0  0  0  0  0  0  0  0  0  0  0
   12.2380  -16.3798   23.1388 C   0  0  1  0  0  0  0  0  0  0  0  0
   11.7295  -17.3597   24.1752 C   0  0  0  0  0  0  0  0  0  0  0  0
   13.1473  -17.8133   25.2154 S   0  0  0  0  0  0  0  0  0  0  0  0
   13.3621  -17.0361   22.4335 C   0  0  0  0  0  0  0  0  0  0  0  0
   14.6365  -16.5581   22.5734 O   0  0  0  0  0  0  0  0  0  0  0  0
   13.1128  -18.0308   21.7133 O   0  0  0  0  0  0  0  0  0  0  0  0
  1  2  1  0
  2  3  1  0
  3  5  1  0
  3  4  1  1
  5  7  1  0
  5  6  1  1
  7  9  1  0
  7  8  2  0
  9 10  1  0
 11 10  1  0
 12 13  1  0
 12 11  1  0
 13  9  1  0
 13 14  1  1
 14 16  1  0
 15 14  2  0
 17 16  1  0
 17 20  1  0
 17 18  1  1
 18 19  1  0
 20 21  1  0
 22 20  2  0
M  END
$$$$
