IPC.pdb
     RDKit          3D

 22 22  0  0  1  0  0  0  0  0999 V2000
    6.7610  -11.5536   27.3704 C   0  0  0  0  0  0  0  0  0  0  0  0
    6.0493  -12.5917   26.5496 C   0  0  0  0  0  0  0  0  0  0  0  0
    6.9952  -13.5768   25.9125 C   0  0  2  0  0  0  0  0  0  0  0  0
    7.9322  -12.8507   24.9957 C   0  0  0  0  0  0  0  0  0  0  0  0
    6.1988  -14.6363   25.1598 C   0  0  2  0  0  0  0  0  0  0  0  0
    5.3573  -15.3027   26.0828 N   0  0  0  0  0  0  0  0  0  0  0  0
    7.0768  -15.4607   24.3322 C   0  0  0  0  0  0  0  0  0  0  0  0
    7.2737  -16.6454   24.7859 O   0  0  0  0  0  0  0  0  0  0  0  0
    7.7143  -15.1171   23.1288 N   0  0  0  0  0  0  0  0  0  0  0  0
    7.8020  -13.8772   22.4051 C   0  0  0  0  0  0  0  0  0  0  0  0
    7.3444  -14.3230   21.0293 C   0  0  0  0  0  0  0  0  0  0  0  0
    8.1312  -15.6332   20.9036 C   0  0  0  0  0  0  0  0  0  0  0  0
    8.4826  -16.0494   22.3101 C   0  0  1  0  0  0  0  0  0  0  0  0
    9.9415  -15.9479   22.5770 C   0  0  0  0  0  0  0  0  0  0  0  0
   10.3684  -14.8109   22.9092 O   0  0  0  0  0  0  0  0  0  0  0  0
   10.8530  -17.0092   22.4852 N   0  0  0  0  0  0  0  0  0  0  0  0
   12.1036  -16.9767   23.1950 C   0  0  1  0  0  0  0  0  0  0  0  0
   11.9123  -16.9714   24.6970 C   0  0  0  0  0  0  0  0  0  0  0  0
   10.8485  -18.3869   25.1002 S   0  0  0  0  0  0  0  0  0  0  0  0
   12.9707  -18.1321   22.8705 C   0  0  0  0  0  0  0  0  0  0  0  0
   14.2467  -18.1950   23.3603 O   0  0  0  0  0  0  0  0  0  0  0  0
   12.5050  -19.0392   22.1422 O   0  0  0  0  0  0  0  0  0  0  0  0
  1  2  1  0
  2  3  1  0
  3  5  1  0
  3  4  1  6
  5  7  1  0
  5  6  1  1
  7  9  1  0
  7  8  2  0
  9 10  1  0
 11 10  1  0
 12 13  1  0
 12 11  1  0
 13  9  1  0
 13 14  1  6
 14 16  1  0
 15 14  2  0
 17 16  1  0
 17 20  1  0
 17 18  1  1
 18 19  1  0
 20 21  1  0
 22 20  2  0
M  END
$$$$
