MMG.pdb
     RDKit          3D

 21 20  0  0  1  0  0  0  0  0999 V2000
   25.0699  -18.0524  -16.6200 C   0  0  0  0  0  0  0  0  0  0  0  0
   26.7030  -17.2784  -16.3931 S   0  0  0  0  0  0  0  0  0  0  0  0
   27.7233  -18.4486  -15.4499 C   0  0  0  0  0  0  0  0  0  0  0  0
   26.7879  -19.1761  -14.4947 C   0  0  0  0  0  0  0  0  0  0  0  0
   27.6364  -20.1979  -13.7546 C   0  0  2  0  0  0  0  0  0  0  0  0
   28.1428  -21.1515  -14.7217 N   0  0  0  0  0  0  0  0  0  0  0  0
   26.8337  -20.8991  -12.7163 C   0  0  0  0  0  0  0  0  0  0  0  0
   26.3174  -22.0004  -13.0296 O   0  0  0  0  0  0  0  0  0  0  0  0
   26.5056  -19.6887   -6.1871 C   0  0  0  0  0  0  0  0  0  0  0  0
   28.0360  -19.8944   -7.1599 S   0  0  0  0  0  0  0  0  0  0  0  0
   27.6108  -20.7747   -8.6675 C   0  0  0  0  0  0  0  0  0  0  0  0
   26.1935  -20.4110   -9.0592 C   0  0  0  0  0  0  0  0  0  0  0  0
   25.8733  -21.0766  -10.3889 C   0  0  2  0  0  0  0  0  0  0  0  0
   26.6236  -20.4021  -11.4172 N   0  0  0  0  0  0  0  0  0  0  0  0
   24.4334  -20.8437  -10.6455 C   0  0  0  0  0  0  0  0  0  0  0  0
   23.6623  -20.7661   -9.6589 O   0  0  0  0  0  0  0  0  0  0  0  0
   23.8974  -20.7060  -11.9441 N   0  0  0  0  0  0  0  0  0  0  0  0
   22.4927  -20.3971  -12.0782 C   0  0  0  0  0  0  0  0  0  0  0  0
   22.1940  -20.1516  -13.5264 C   0  0  0  0  0  0  0  0  0  0  0  0
   20.9170  -19.7654  -13.9219 O   0  0  0  0  0  0  0  0  0  0  0  0
   23.0628  -20.2812  -14.4252 O   0  0  0  0  0  0  0  0  0  0  0  0
  2  3  1  0
  2  1  1  0
  3  4  1  0
  4  5  1  0
  5  7  1  0
  5  6  1  6
  7  8  2  0
  9 10  1  0
 10 11  1  0
 11 12  1  0
 13 12  1  1
 13 15  1  0
 14  7  1  0
 14 13  1  0
 15 16  2  0
 17 15  1  0
 17 18  1  0
 19 18  1  0
 19 20  1  0
 21 19  2  0
M  END
$$$$
