MMG.pdb
     RDKit          3D

 21 20  0  0  1  0  0  0  0  0999 V2000
   30.4471  -22.4787   -8.6046 C   0  0  0  0  0  0  0  0  0  0  0  0
   31.5323  -21.5887   -9.7656 S   0  0  0  0  0  0  0  0  0  0  0  0
   30.6980  -21.5811  -11.3792 C   0  0  0  0  0  0  0  0  0  0  0  0
   29.4111  -20.7874  -11.2045 C   0  0  0  0  0  0  0  0  0  0  0  0
   28.6543  -20.8978  -12.5185 C   0  0  2  0  0  0  0  0  0  0  0  0
   29.5330  -20.4602  -13.5851 N   0  0  0  0  0  0  0  0  0  0  0  0
   27.4246  -20.0604  -12.4925 C   0  0  0  0  0  0  0  0  0  0  0  0
   27.5705  -18.8152  -12.5698 O   0  0  0  0  0  0  0  0  0  0  0  0
   27.2342  -19.9051  -16.2554 C   0  0  0  0  0  0  0  0  0  0  0  0
   25.8828  -18.6955  -16.4585 S   0  0  0  0  0  0  0  0  0  0  0  0
   25.0103  -18.5830  -14.8918 C   0  0  0  0  0  0  0  0  0  0  0  0
   24.8467  -19.9784  -14.3255 C   0  0  0  0  0  0  0  0  0  0  0  0
   24.9258  -19.8971  -12.8086 C   0  0  2  0  0  0  0  0  0  0  0  0
   26.1219  -20.5806  -12.3873 N   0  0  0  0  0  0  0  0  0  0  0  0
   23.7614  -20.6450  -12.2812 C   0  0  0  0  0  0  0  0  0  0  0  0
   23.8025  -21.8985  -12.3085 O   0  0  0  0  0  0  0  0  0  0  0  0
   22.6165  -20.0102  -11.7529 N   0  0  0  0  0  0  0  0  0  0  0  0
   21.5901  -20.8319  -11.1548 C   0  0  0  0  0  0  0  0  0  0  0  0
   20.4791  -21.0050  -12.1462 C   0  0  0  0  0  0  0  0  0  0  0  0
   19.2162  -21.4040  -11.7195 O   0  0  0  0  0  0  0  0  0  0  0  0
   20.6361  -20.8027  -13.3766 O   0  0  0  0  0  0  0  0  0  0  0  0
  2  3  1  0
  2  1  1  0
  3  4  1  0
  4  5  1  0
  5  7  1  0
  5  6  1  6
  7  8  2  0
  9 10  1  0
 10 11  1  0
 11 12  1  0
 13 12  1  6
 13 15  1  0
 14  7  1  0
 14 13  1  0
 15 16  2  0
 17 15  1  0
 17 18  1  0
 19 18  1  0
 19 20  1  0
 21 19  2  0
M  END
$$$$
