MMG.pdb
     RDKit          3D

 21 20  0  0  1  0  0  0  0  0999 V2000
   15.6617   -9.8328  -19.0554 C   0  0  0  0  0  0  0  0  0  0  0  0
   16.4915  -10.2834  -20.6129 S   0  0  0  0  0  0  0  0  0  0  0  0
   17.9832  -11.2218  -20.1725 C   0  0  0  0  0  0  0  0  0  0  0  0
   18.5648  -10.5640  -18.9293 C   0  0  0  0  0  0  0  0  0  0  0  0
   19.8203  -11.3450  -18.5751 C   0  0  2  0  0  0  0  0  0  0  0  0
   19.4196  -12.6525  -18.0943 N   0  0  0  0  0  0  0  0  0  0  0  0
   20.6078  -10.6350  -17.5311 C   0  0  0  0  0  0  0  0  0  0  0  0
   20.3843  -10.9365  -16.3325 O   0  0  0  0  0  0  0  0  0  0  0  0
   25.8176  -11.2769  -15.1195 C   0  0  0  0  0  0  0  0  0  0  0  0
   24.5856   -9.9775  -14.7666 S   0  0  0  0  0  0  0  0  0  0  0  0
   24.7183   -8.7341  -16.0569 C   0  0  0  0  0  0  0  0  0  0  0  0
   23.8471   -9.1504  -17.2241 C   0  0  0  0  0  0  0  0  0  0  0  0
   22.3892   -8.9949  -16.8189 C   0  0  2  0  0  0  0  0  0  0  0  0
   21.5783   -9.6556  -17.8096 N   0  0  0  0  0  0  0  0  0  0  0  0
   22.0854   -7.5463  -16.8707 C   0  0  0  0  0  0  0  0  0  0  0  0
   22.2890   -6.9380  -17.9488 O   0  0  0  0  0  0  0  0  0  0  0  0
   21.5799   -6.8279  -15.7657 N   0  0  0  0  0  0  0  0  0  0  0  0
   21.4037   -5.4003  -15.8971 C   0  0  0  0  0  0  0  0  0  0  0  0
   20.7448   -4.8841  -14.6536 C   0  0  0  0  0  0  0  0  0  0  0  0
   21.3110   -3.8259  -13.9492 O   0  0  0  0  0  0  0  0  0  0  0  0
   19.6782   -5.3731  -14.2033 O   0  0  0  0  0  0  0  0  0  0  0  0
  2  3  1  0
  2  1  1  0
  3  4  1  0
  4  5  1  0
  5  7  1  0
  5  6  1  1
  7  8  2  0
  9 10  1  0
 10 11  1  0
 11 12  1  0
 13 12  1  6
 13 15  1  0
 14  7  1  0
 14 13  1  0
 15 16  2  0
 17 15  1  0
 17 18  1  0
 19 18  1  0
 19 20  1  0
 21 19  2  0
M  END
$$$$
