MMG.pdb
     RDKit          3D

 21 20  0  0  1  0  0  0  0  0999 V2000
   25.6792  -16.3957  -16.1375 C   0  0  0  0  0  0  0  0  0  0  0  0
   27.3912  -16.4741  -16.7545 S   0  0  0  0  0  0  0  0  0  0  0  0
   28.1689  -17.9278  -15.9915 C   0  0  0  0  0  0  0  0  0  0  0  0
   27.0402  -18.8464  -15.5455 C   0  0  0  0  0  0  0  0  0  0  0  0
   27.6736  -19.9120  -14.6653 C   0  0  2  0  0  0  0  0  0  0  0  0
   28.4299  -20.8104  -15.5150 N   0  0  0  0  0  0  0  0  0  0  0  0
   26.6322  -20.6688  -13.9189 C   0  0  0  0  0  0  0  0  0  0  0  0
   26.1289  -21.6714  -14.4838 O   0  0  0  0  0  0  0  0  0  0  0  0
   26.3560  -19.0559   -8.0639 C   0  0  0  0  0  0  0  0  0  0  0  0
   26.7035  -20.8451   -8.1579 S   0  0  0  0  0  0  0  0  0  0  0  0
   26.4918  -21.3535   -9.8682 C   0  0  0  0  0  0  0  0  0  0  0  0
   25.2749  -20.6527  -10.4363 C   0  0  0  0  0  0  0  0  0  0  0  0
   25.1487  -21.0191  -11.9072 C   0  0  2  0  0  0  0  0  0  0  0  0
   26.1855  -20.3273  -12.6296 N   0  0  0  0  0  0  0  0  0  0  0  0
   23.8423  -20.4935  -12.3660 C   0  0  0  0  0  0  0  0  0  0  0  0
   23.7251  -19.2540  -12.5201 O   0  0  0  0  0  0  0  0  0  0  0  0
   22.7325  -21.3234  -12.6351 N   0  0  0  0  0  0  0  0  0  0  0  0
   21.5251  -20.7129  -13.1409 C   0  0  0  0  0  0  0  0  0  0  0  0
   20.4459  -20.8653  -12.1118 C   0  0  0  0  0  0  0  0  0  0  0  0
   19.1831  -20.3255  -12.3366 O   0  0  0  0  0  0  0  0  0  0  0  0
   20.6300  -21.4720  -11.0267 O   0  0  0  0  0  0  0  0  0  0  0  0
  2  3  1  0
  2  1  1  0
  3  4  1  0
  4  5  1  0
  5  7  1  0
  5  6  1  6
  7  8  2  0
  9 10  1  0
 10 11  1  0
 11 12  1  0
 13 12  1  1
 13 15  1  0
 14  7  1  0
 14 13  1  0
 15 16  2  0
 17 15  1  0
 17 18  1  0
 19 18  1  0
 19 20  1  0
 21 19  2  0
M  END
$$$$
