MMG.pdb
     RDKit          3D

 21 20  0  0  1  0  0  0  0  0999 V2000
   29.4195  -19.6191   -4.5973 C   0  0  0  0  0  0  0  0  0  0  0  0
   27.8291  -19.8751   -3.7473 S   0  0  0  0  0  0  0  0  0  0  0  0
   26.6132  -20.3380   -5.0151 C   0  0  0  0  0  0  0  0  0  0  0  0
   26.7894  -19.3622   -6.1698 C   0  0  0  0  0  0  0  0  0  0  0  0
   25.8952  -19.8587   -7.2946 C   0  0  2  0  0  0  0  0  0  0  0  0
   25.6292  -21.2664   -7.0738 N   0  0  0  0  0  0  0  0  0  0  0  0
   26.5499  -19.6627   -8.6164 C   0  0  0  0  0  0  0  0  0  0  0  0
   27.1143  -18.5602   -8.8249 O   0  0  0  0  0  0  0  0  0  0  0  0
   31.1633  -22.3801  -10.1605 C   0  0  0  0  0  0  0  0  0  0  0  0
   30.6738  -21.1385  -11.4052 S   0  0  0  0  0  0  0  0  0  0  0  0
   29.1191  -21.6744  -12.1293 C   0  0  0  0  0  0  0  0  0  0  0  0
   28.1019  -21.8503  -11.0208 C   0  0  0  0  0  0  0  0  0  0  0  0
   27.3481  -20.5410  -10.8439 C   0  0  2  0  0  0  0  0  0  0  0  0
   26.5716  -20.6336   -9.6340 N   0  0  0  0  0  0  0  0  0  0  0  0
   26.4085  -20.4338  -11.9837 C   0  0  0  0  0  0  0  0  0  0  0  0
   26.8878  -20.2641  -13.1307 O   0  0  0  0  0  0  0  0  0  0  0  0
   25.0072  -20.5143  -11.8338 N   0  0  0  0  0  0  0  0  0  0  0  0
   24.1812  -20.3689  -13.0097 C   0  0  0  0  0  0  0  0  0  0  0  0
   23.7632  -21.7325  -13.4711 C   0  0  0  0  0  0  0  0  0  0  0  0
   22.4147  -22.0310  -13.6411 O   0  0  0  0  0  0  0  0  0  0  0  0
   24.5924  -22.6440  -13.7181 O   0  0  0  0  0  0  0  0  0  0  0  0
  2  3  1  0
  2  1  1  0
  3  4  1  0
  4  5  1  0
  5  7  1  0
  5  6  1  1
  7  8  2  0
  9 10  1  0
 10 11  1  0
 11 12  1  0
 13 12  1  6
 13 15  1  0
 14  7  1  0
 14 13  1  0
 15 16  2  0
 17 15  1  0
 17 18  1  0
 19 18  1  0
 19 20  1  0
 21 19  2  0
M  END
$$$$
