MMG.pdb
     RDKit          3D

 21 20  0  0  1  0  0  0  0  0999 V2000
   21.7244  -24.0843  -15.2327 C   0  0  0  0  0  0  0  0  0  0  0  0
   20.0589  -23.6500  -14.6368 S   0  0  0  0  0  0  0  0  0  0  0  0
   20.2464  -22.2443  -13.5016 C   0  0  0  0  0  0  0  0  0  0  0  0
   21.7075  -21.8224  -13.5625 C   0  0  0  0  0  0  0  0  0  0  0  0
   21.8650  -20.6698  -12.5836 C   0  0  2  0  0  0  0  0  0  0  0  0
   21.0736  -19.5551  -13.0655 N   0  0  0  0  0  0  0  0  0  0  0  0
   23.2931  -20.2696  -12.4634 C   0  0  0  0  0  0  0  0  0  0  0  0
   23.7169  -19.3918  -13.2556 O   0  0  0  0  0  0  0  0  0  0  0  0
   27.6280  -19.6265   -7.1680 C   0  0  0  0  0  0  0  0  0  0  0  0
   26.1181  -20.6224   -7.4113 S   0  0  0  0  0  0  0  0  0  0  0  0
   25.4131  -20.1663   -8.9999 C   0  0  0  0  0  0  0  0  0  0  0  0
   26.0967  -20.9731  -10.0845 C   0  0  0  0  0  0  0  0  0  0  0  0
   25.5874  -20.4957  -11.4359 C   0  0  2  0  0  0  0  0  0  0  0  0
   24.1849  -20.8139  -11.5216 N   0  0  0  0  0  0  0  0  0  0  0  0
   26.3003  -21.2888  -12.4636 C   0  0  0  0  0  0  0  0  0  0  0  0
   26.0279  -22.5094  -12.5621 O   0  0  0  0  0  0  0  0  0  0  0  0
   27.2657  -20.7320  -13.3300 N   0  0  0  0  0  0  0  0  0  0  0  0
   27.8930  -21.5945  -14.3043 C   0  0  0  0  0  0  0  0  0  0  0  0
   27.4073  -21.2065  -15.6683 C   0  0  0  0  0  0  0  0  0  0  0  0
   28.2773  -21.2306  -16.7541 O   0  0  0  0  0  0  0  0  0  0  0  0
   26.2217  -20.8504  -15.8856 O   0  0  0  0  0  0  0  0  0  0  0  0
  2  3  1  0
  2  1  1  0
  3  4  1  0
  4  5  1  0
  5  7  1  0
  5  6  1  6
  7  8  2  0
  9 10  1  0
 10 11  1  0
 11 12  1  0
 13 12  1  1
 13 15  1  0
 14  7  1  0
 14 13  1  0
 15 16  2  0
 17 15  1  0
 17 18  1  0
 19 18  1  0
 19 20  1  0
 21 19  2  0
M  END
$$$$
