MMG.pdb
     RDKit          3D

 21 20  0  0  1  0  0  0  0  0999 V2000
   25.8268  -21.7052  -16.9681 C   0  0  0  0  0  0  0  0  0  0  0  0
   26.8612  -20.3514  -17.6120 S   0  0  0  0  0  0  0  0  0  0  0  0
   28.0908  -19.9624  -16.3326 C   0  0  0  0  0  0  0  0  0  0  0  0
   27.8703  -20.9509  -15.1965 C   0  0  0  0  0  0  0  0  0  0  0  0
   27.0466  -20.2237  -14.1457 C   0  0  2  0  0  0  0  0  0  0  0  0
   27.7422  -19.0026  -13.7904 N   0  0  0  0  0  0  0  0  0  0  0  0
   26.8579  -21.0747  -12.9397 C   0  0  0  0  0  0  0  0  0  0  0  0
   26.4397  -22.2457  -13.1173 O   0  0  0  0  0  0  0  0  0  0  0  0
   28.1602  -18.8106   -7.0893 C   0  0  0  0  0  0  0  0  0  0  0  0
   27.1020  -20.2046   -6.5720 S   0  0  0  0  0  0  0  0  0  0  0  0
   26.2056  -20.7767   -8.0203 C   0  0  0  0  0  0  0  0  0  0  0  0
   26.9336  -20.3023   -9.2610 C   0  0  0  0  0  0  0  0  0  0  0  0
   26.3435  -21.0131  -10.4694 C   0  0  2  0  0  0  0  0  0  0  0  0
   27.1193  -20.6448  -11.6261 N   0  0  0  0  0  0  0  0  0  0  0  0
   24.9732  -20.4806  -10.6489 C   0  0  0  0  0  0  0  0  0  0  0  0
   24.8430  -19.3494  -11.1756 O   0  0  0  0  0  0  0  0  0  0  0  0
   23.8169  -21.1881  -10.2553 N   0  0  0  0  0  0  0  0  0  0  0  0
   22.5286  -20.5685  -10.4628 C   0  0  0  0  0  0  0  0  0  0  0  0
   21.9315  -21.1191  -11.7226 C   0  0  0  0  0  0  0  0  0  0  0  0
   20.6015  -20.8588  -12.0387 O   0  0  0  0  0  0  0  0  0  0  0  0
   22.5898  -21.8235  -12.5289 O   0  0  0  0  0  0  0  0  0  0  0  0
  2  3  1  0
  2  1  1  0
  3  4  1  0
  4  5  1  0
  5  7  1  0
  5  6  1  1
  7  8  2  0
  9 10  1  0
 10 11  1  0
 11 12  1  0
 13 12  1  1
 13 15  1  0
 14  7  1  0
 14 13  1  0
 15 16  2  0
 17 15  1  0
 17 18  1  0
 19 18  1  0
 19 20  1  0
 21 19  2  0
M  END
$$$$
