ALW.pdb
     RDKit          3D

 28 29  0  0  1  0  0  0  0  0999 V2000
   30.2245   -9.5138  -19.0771 C   0  0  0  0  0  0  0  0  0  0  0  0
   29.2863  -10.1021  -18.0242 C   0  0  2  0  0  0  0  0  0  0  0  0
   29.4910  -11.5323  -18.0055 N   0  0  0  0  0  0  0  0  0  0  0  0
   27.8709   -9.8072  -18.3552 C   0  0  0  0  0  0  0  0  0  0  0  0
   27.4830   -8.6041  -18.3177 O   0  0  0  0  0  0  0  0  0  0  0  0
   24.9447   -9.3255  -21.4835 C   0  0  0  0  0  0  0  0  0  0  0  0
   25.2767  -10.8056  -21.4253 C   0  0  2  0  0  0  0  0  0  0  0  0
   24.8714  -11.6048  -22.5894 C   0  0  0  0  0  0  0  0  0  0  0  0
   25.0046  -11.2977  -20.0675 C   0  0  0  0  0  0  0  0  0  0  0  0
   25.5333  -10.5732  -18.8902 C   0  0  2  0  0  0  0  0  0  0  0  0
   26.9690  -10.8488  -18.7077 N   0  0  0  0  0  0  0  0  0  0  0  0
   24.8143  -10.8350  -17.6130 C   0  0  0  0  0  0  0  0  0  0  0  0
   25.1629  -11.7470  -16.8209 O   0  0  0  0  0  0  0  0  0  0  0  0
   23.6911  -10.0702  -17.2087 N   0  0  0  0  0  0  0  0  0  0  0  0
   23.0029  -10.2853  -15.9395 C   0  0  1  0  0  0  0  0  0  0  0  0
   23.7452   -9.6898  -14.8077 C   0  0  0  0  0  0  0  0  0  0  0  0
   23.5852   -8.2317  -14.7294 C   0  0  0  0  0  0  0  0  0  0  0  0
   22.6051   -7.5207  -14.0176 C   0  0  0  0  0  0  0  0  0  0  0  0
   22.7334   -6.2113  -14.1981 N   0  0  0  0  0  0  0  0  0  0  0  0
   23.7681   -6.0141  -15.0072 C   0  0  0  0  0  0  0  0  0  0  0  0
   24.2931   -4.8043  -15.4613 C   0  0  0  0  0  0  0  0  0  0  0  0
   25.3981   -4.8163  -16.2837 C   0  0  0  0  0  0  0  0  0  0  0  0
   25.9395   -6.0307  -16.6240 C   0  0  0  0  0  0  0  0  0  0  0  0
   25.4201   -7.2248  -16.1759 C   0  0  0  0  0  0  0  0  0  0  0  0
   24.3200   -7.2281  -15.3569 C   0  0  0  0  0  0  0  0  0  0  0  0
   21.6037   -9.9308  -15.9994 C   0  0  0  0  0  0  0  0  0  0  0  0
   20.7552  -10.5155  -15.0357 O   0  0  0  0  0  0  0  0  0  0  0  0
   21.0860   -9.1506  -16.8336 O   0  0  0  0  0  0  0  0  0  0  0  0
  2  1  1  6
  2  3  1  0
  4  2  1  0
  5  4  2  0
  7  6  1  6
  7  8  1  0
  9  7  1  0
 10  9  1  6
 10 11  1  0
 11  4  1  0
 12 14  1  0
 12 10  1  0
 13 12  2  0
 15 14  1  0
 15 16  1  1
 16 17  1  0
 17 18  2  0
 18 19  1  0
 20 19  1  0
 21 20  2  0
 22 21  1  0
 23 24  1  0
 23 22  2  0
 24 25  2  0
 25 17  1  0
 25 20  1  0
 26 15  1  0
 27 26  1  0
 28 26  2  0
M  END
$$$$
