ALW.pdb
     RDKit          3D

 28 29  0  0  1  0  0  0  0  0999 V2000
   27.4406  -18.8888  -15.1518 C   0  0  0  0  0  0  0  0  0  0  0  0
   27.8339  -20.2022  -14.4770 C   0  0  2  0  0  0  0  0  0  0  0  0
   28.1164  -21.1623  -15.5191 N   0  0  0  0  0  0  0  0  0  0  0  0
   26.7318  -20.7068  -13.6222 C   0  0  0  0  0  0  0  0  0  0  0  0
   25.9283  -21.5508  -14.1135 O   0  0  0  0  0  0  0  0  0  0  0  0
   27.2502  -20.6228   -8.0196 C   0  0  0  0  0  0  0  0  0  0  0  0
   27.0550  -21.1769   -9.4193 C   0  0  2  0  0  0  0  0  0  0  0  0
   28.2666  -21.2962  -10.2415 C   0  0  0  0  0  0  0  0  0  0  0  0
   25.8345  -20.5926   -9.9927 C   0  0  0  0  0  0  0  0  0  0  0  0
   25.5103  -20.7937  -11.4227 C   0  0  2  0  0  0  0  0  0  0  0  0
   26.5792  -20.2557  -12.2821 N   0  0  0  0  0  0  0  0  0  0  0  0
   24.2001  -20.2358  -11.8572 C   0  0  0  0  0  0  0  0  0  0  0  0
   23.9451  -19.0056  -11.8096 O   0  0  0  0  0  0  0  0  0  0  0  0
   23.1572  -21.0577  -12.3539 N   0  0  0  0  0  0  0  0  0  0  0  0
   21.8837  -20.5218  -12.8249 C   0  0  1  0  0  0  0  0  0  0  0  0
   22.0769  -19.4896  -13.8660 C   0  0  0  0  0  0  0  0  0  0  0  0
   22.5656  -20.0478  -15.1339 C   0  0  0  0  0  0  0  0  0  0  0  0
   22.0294  -21.1314  -15.8487 C   0  0  0  0  0  0  0  0  0  0  0  0
   22.7444  -21.3916  -16.9372 N   0  0  0  0  0  0  0  0  0  0  0  0
   23.7450  -20.5193  -16.9819 C   0  0  0  0  0  0  0  0  0  0  0  0
   24.7400  -20.3928  -17.9510 C   0  0  0  0  0  0  0  0  0  0  0  0
   25.6814  -19.3953  -17.8234 C   0  0  0  0  0  0  0  0  0  0  0  0
   25.5982  -18.5609  -16.7368 C   0  0  0  0  0  0  0  0  0  0  0  0
   24.6159  -18.6869  -15.7798 C   0  0  0  0  0  0  0  0  0  0  0  0
   23.6724  -19.6757  -15.8937 C   0  0  0  0  0  0  0  0  0  0  0  0
   20.9380  -21.5584  -13.1684 C   0  0  0  0  0  0  0  0  0  0  0  0
   21.4405  -22.8730  -13.2694 O   0  0  0  0  0  0  0  0  0  0  0  0
   19.7146  -21.3852  -13.3829 O   0  0  0  0  0  0  0  0  0  0  0  0
  2  1  1  6
  2  3  1  0
  4  2  1  0
  5  4  2  0
  7  6  1  1
  7  8  1  0
  9  7  1  0
 10  9  1  1
 10 11  1  0
 11  4  1  0
 12 14  1  0
 12 10  1  0
 13 12  2  0
 15 14  1  0
 15 16  1  6
 16 17  1  0
 17 18  2  0
 18 19  1  0
 20 19  1  0
 21 20  2  0
 22 21  1  0
 23 24  1  0
 23 22  2  0
 24 25  2  0
 25 17  1  0
 25 20  1  0
 26 15  1  0
 27 26  1  0
 28 26  2  0
M  END
$$$$
