ALW.pdb
     RDKit          3D

 28 29  0  0  1  0  0  0  0  0999 V2000
   29.3125  -20.9975  -13.8410 C   0  0  0  0  0  0  0  0  0  0  0  0
   27.9036  -20.4276  -14.0003 C   0  0  2  0  0  0  0  0  0  0  0  0
   27.9983  -18.9898  -13.8932 N   0  0  0  0  0  0  0  0  0  0  0  0
   27.0022  -20.9462  -12.9428 C   0  0  0  0  0  0  0  0  0  0  0  0
   26.6417  -22.1570  -13.0008 O   0  0  0  0  0  0  0  0  0  0  0  0
   26.9777  -19.5569   -7.3977 C   0  0  0  0  0  0  0  0  0  0  0  0
   26.9160  -20.4698   -8.6090 C   0  0  2  0  0  0  0  0  0  0  0  0
   28.2050  -20.9620   -9.1132 C   0  0  0  0  0  0  0  0  0  0  0  0
   25.9147  -19.9430   -9.5469 C   0  0  0  0  0  0  0  0  0  0  0  0
   25.6637  -20.6282  -10.8345 C   0  0  2  0  0  0  0  0  0  0  0  0
   26.5526  -20.1061  -11.8870 N   0  0  0  0  0  0  0  0  0  0  0  0
   24.2538  -20.5799  -11.3106 C   0  0  0  0  0  0  0  0  0  0  0  0
   23.2894  -20.9465  -10.5921 O   0  0  0  0  0  0  0  0  0  0  0  0
   23.9098  -20.1152  -12.6051 N   0  0  0  0  0  0  0  0  0  0  0  0
   22.5284  -19.9920  -13.0602 C   0  0  1  0  0  0  0  0  0  0  0  0
   22.3311  -18.7815  -13.8862 C   0  0  0  0  0  0  0  0  0  0  0  0
   21.2214  -18.9199  -14.8388 C   0  0  0  0  0  0  0  0  0  0  0  0
   19.8675  -18.6189  -14.6167 C   0  0  0  0  0  0  0  0  0  0  0  0
   19.1301  -18.8994  -15.6850 N   0  0  0  0  0  0  0  0  0  0  0  0
   19.9409  -19.3788  -16.6215 C   0  0  0  0  0  0  0  0  0  0  0  0
   19.6211  -19.7886  -17.9158 C   0  0  0  0  0  0  0  0  0  0  0  0
   20.6239  -20.2360  -18.7475 C   0  0  0  0  0  0  0  0  0  0  0  0
   21.9071  -20.2593  -18.2612 C   0  0  0  0  0  0  0  0  0  0  0  0
   22.2220  -19.8552  -16.9828 C   0  0  0  0  0  0  0  0  0  0  0  0
   21.2338  -19.4080  -16.1435 C   0  0  0  0  0  0  0  0  0  0  0  0
   22.0258  -21.2132  -13.6461 C   0  0  0  0  0  0  0  0  0  0  0  0
   20.6464  -21.4711  -13.4995 O   0  0  0  0  0  0  0  0  0  0  0  0
   22.7123  -22.0571  -14.2700 O   0  0  0  0  0  0  0  0  0  0  0  0
  2  1  1  1
  2  3  1  0
  4  2  1  0
  5  4  2  0
  7  6  1  1
  7  8  1  0
  9  7  1  0
 10  9  1  1
 10 11  1  0
 11  4  1  0
 12 14  1  0
 12 10  1  0
 13 12  2  0
 15 14  1  0
 15 16  1  6
 16 17  1  0
 17 18  2  0
 18 19  1  0
 20 19  1  0
 21 20  2  0
 22 21  1  0
 23 24  1  0
 23 22  2  0
 24 25  2  0
 25 17  1  0
 25 20  1  0
 26 15  1  0
 27 26  1  0
 28 26  2  0
M  END
$$$$
