ALW.pdb
     RDKit          3D

 28 29  0  0  1  0  0  0  0  0999 V2000
   23.6402  -16.9742  -16.7213 C   0  0  0  0  0  0  0  0  0  0  0  0
   24.8104  -17.5660  -17.5057 C   0  0  2  0  0  0  0  0  0  0  0  0
   24.6194  -17.2291  -18.8977 N   0  0  0  0  0  0  0  0  0  0  0  0
   24.8556  -19.0407  -17.3532 C   0  0  0  0  0  0  0  0  0  0  0  0
   23.9524  -19.7302  -17.9079 O   0  0  0  0  0  0  0  0  0  0  0  0
   28.3350  -19.5020  -16.0682 C   0  0  0  0  0  0  0  0  0  0  0  0
   28.4017  -21.0000  -15.8312 C   0  0  2  0  0  0  0  0  0  0  0  0
   29.7438  -21.5973  -15.8469 C   0  0  0  0  0  0  0  0  0  0  0  0
   27.3041  -21.6438  -16.5663 C   0  0  0  0  0  0  0  0  0  0  0  0
   25.9208  -21.1321  -16.4428 C   0  0  2  0  0  0  0  0  0  0  0  0
   25.8884  -19.6680  -16.6030 N   0  0  0  0  0  0  0  0  0  0  0  0
   25.2197  -21.5064  -15.1838 C   0  0  0  0  0  0  0  0  0  0  0  0
   24.8872  -22.6914  -14.9270 O   0  0  0  0  0  0  0  0  0  0  0  0
   24.8842  -20.5489  -14.1935 N   0  0  0  0  0  0  0  0  0  0  0  0
   24.1603  -20.8930  -12.9735 C   0  0  1  0  0  0  0  0  0  0  0  0
   24.4793  -19.9638  -11.8684 C   0  0  0  0  0  0  0  0  0  0  0  0
   23.8105  -20.3265  -10.6118 C   0  0  0  0  0  0  0  0  0  0  0  0
   24.3552  -21.0462   -9.5355 C   0  0  0  0  0  0  0  0  0  0  0  0
   23.4576  -21.2273   -8.5737 N   0  0  0  0  0  0  0  0  0  0  0  0
   22.3252  -20.6533   -8.9639 C   0  0  0  0  0  0  0  0  0  0  0  0
   21.1153  -20.5697   -8.2750 C   0  0  0  0  0  0  0  0  0  0  0  0
   20.0572  -19.9018   -8.8512 C   0  0  0  0  0  0  0  0  0  0  0  0
   20.2417  -19.3422  -10.0907 C   0  0  0  0  0  0  0  0  0  0  0  0
   21.4364  -19.4258  -10.7707 C   0  0  0  0  0  0  0  0  0  0  0  0
   22.4982  -20.0881  -10.2095 C   0  0  0  0  0  0  0  0  0  0  0  0
   22.7489  -21.0975  -13.2042 C   0  0  0  0  0  0  0  0  0  0  0  0
   22.1012  -20.1768  -14.0549 O   0  0  0  0  0  0  0  0  0  0  0  0
   22.0576  -22.0210  -12.7124 O   0  0  0  0  0  0  0  0  0  0  0  0
  2  1  1  1
  2  3  1  0
  4  2  1  0
  5  4  2  0
  7  6  1  6
  7  8  1  0
  9  7  1  0
 10  9  1  1
 10 11  1  0
 11  4  1  0
 12 14  1  0
 12 10  1  0
 13 12  2  0
 15 14  1  0
 15 16  1  1
 16 17  1  0
 17 18  2  0
 18 19  1  0
 20 19  1  0
 21 20  2  0
 22 21  1  0
 23 24  1  0
 23 22  2  0
 24 25  2  0
 25 17  1  0
 25 20  1  0
 26 15  1  0
 27 26  1  0
 28 26  2  0
M  END
$$$$
