ALW.pdb
     RDKit          3D

 28 29  0  0  1  0  0  0  0  0999 V2000
   26.8873  -24.5343  -16.2249 C   0  0  0  0  0  0  0  0  0  0  0  0
   26.7478  -23.0668  -16.6275 C   0  0  2  0  0  0  0  0  0  0  0  0
   27.5942  -22.8460  -17.7774 N   0  0  0  0  0  0  0  0  0  0  0  0
   27.1701  -22.1740  -15.5210 C   0  0  0  0  0  0  0  0  0  0  0  0
   28.2762  -22.4032  -14.9525 O   0  0  0  0  0  0  0  0  0  0  0  0
   28.4195  -18.1695  -15.2826 C   0  0  0  0  0  0  0  0  0  0  0  0
   26.9098  -18.0165  -15.3250 C   0  0  2  0  0  0  0  0  0  0  0  0
   26.4050  -16.6636  -15.5953 C   0  0  0  0  0  0  0  0  0  0  0  0
   26.3235  -18.8144  -14.2390 C   0  0  0  0  0  0  0  0  0  0  0  0
   26.7764  -20.2037  -14.0042 C   0  0  2  0  0  0  0  0  0  0  0  0
   26.3545  -21.0849  -15.1069 N   0  0  0  0  0  0  0  0  0  0  0  0
   26.3477  -20.7964  -12.7073 C   0  0  0  0  0  0  0  0  0  0  0  0
   25.2319  -21.3572  -12.5615 O   0  0  0  0  0  0  0  0  0  0  0  0
   27.1727  -20.7671  -11.5548 N   0  0  0  0  0  0  0  0  0  0  0  0
   26.6441  -20.8950  -10.2001 C   0  0  1  0  0  0  0  0  0  0  0  0
   27.6636  -20.5622   -9.1821 C   0  0  0  0  0  0  0  0  0  0  0  0
   27.1058  -20.4851   -7.8253 C   0  0  0  0  0  0  0  0  0  0  0  0
   25.7883  -20.7693   -7.4301 C   0  0  0  0  0  0  0  0  0  0  0  0
   25.6193  -20.5583   -6.1299 N   0  0  0  0  0  0  0  0  0  0  0  0
   26.7789  -20.1421   -5.6336 C   0  0  0  0  0  0  0  0  0  0  0  0
   27.0881  -19.8174   -4.3129 C   0  0  0  0  0  0  0  0  0  0  0  0
   28.3710  -19.4266   -3.9983 C   0  0  0  0  0  0  0  0  0  0  0  0
   29.2983  -19.3731   -5.0087 C   0  0  0  0  0  0  0  0  0  0  0  0
   28.9920  -19.6931   -6.3127 C   0  0  0  0  0  0  0  0  0  0  0  0
   27.7188  -20.0834   -6.6406 C   0  0  0  0  0  0  0  0  0  0  0  0
   25.3779  -20.2199  -10.0321 C   0  0  0  0  0  0  0  0  0  0  0  0
   24.2963  -20.9980   -9.5677 O   0  0  0  0  0  0  0  0  0  0  0  0
   25.1639  -19.0064  -10.2646 O   0  0  0  0  0  0  0  0  0  0  0  0
  2  1  1  1
  2  3  1  0
  4  2  1  0
  5  4  2  0
  7  6  1  1
  7  8  1  0
  9  7  1  0
 10  9  1  6
 10 11  1  0
 11  4  1  0
 12 14  1  0
 12 10  1  0
 13 12  2  0
 15 14  1  0
 15 16  1  1
 16 17  1  0
 17 18  2  0
 18 19  1  0
 20 19  1  0
 21 20  2  0
 22 21  1  0
 23 24  1  0
 23 22  2  0
 24 25  2  0
 25 17  1  0
 25 20  1  0
 26 15  1  0
 27 26  1  0
 28 26  2  0
M  END
$$$$
