ALW.pdb
     RDKit          3D

 28 29  0  0  1  0  0  0  0  0999 V2000
    8.4286  -22.7924   -1.7526 C   0  0  0  0  0  0  0  0  0  0  0  0
    9.6463  -22.3800   -0.9268 C   0  0  2  0  0  0  0  0  0  0  0  0
    9.3292  -21.1312   -0.2728 N   0  0  0  0  0  0  0  0  0  0  0  0
   10.8352  -22.1981   -1.7949 C   0  0  0  0  0  0  0  0  0  0  0  0
   10.9748  -21.0965   -2.3999 O   0  0  0  0  0  0  0  0  0  0  0  0
   14.8905  -21.5104   -0.7978 C   0  0  0  0  0  0  0  0  0  0  0  0
   14.5263  -22.9790   -0.6750 C   0  0  2  0  0  0  0  0  0  0  0  0
   15.3482  -23.7733    0.2480 C   0  0  0  0  0  0  0  0  0  0  0  0
   14.2129  -23.5014   -2.0124 C   0  0  0  0  0  0  0  0  0  0  0  0
   13.0183  -23.0200   -2.7415 C   0  0  2  0  0  0  0  0  0  0  0  0
   11.7976  -23.2345   -1.9450 N   0  0  0  0  0  0  0  0  0  0  0  0
   12.8305  -23.6021   -4.0989 C   0  0  0  0  0  0  0  0  0  0  0  0
   12.5052  -24.8038   -4.2751 O   0  0  0  0  0  0  0  0  0  0  0  0
   13.0053  -22.8366   -5.2793 N   0  0  0  0  0  0  0  0  0  0  0  0
   12.8461  -23.3981   -6.6172 C   0  0  1  0  0  0  0  0  0  0  0  0
   11.5515  -23.0149   -7.2202 C   0  0  0  0  0  0  0  0  0  0  0  0
   11.5462  -21.6340   -7.7212 C   0  0  0  0  0  0  0  0  0  0  0  0
   12.3022  -21.1120   -8.7838 C   0  0  0  0  0  0  0  0  0  0  0  0
   12.0775  -19.8128   -8.9422 N   0  0  0  0  0  0  0  0  0  0  0  0
   11.1943  -19.4400   -8.0228 C   0  0  0  0  0  0  0  0  0  0  0  0
   10.6421  -18.1761   -7.8157 C   0  0  0  0  0  0  0  0  0  0  0  0
    9.7138  -18.0030   -6.8128 C   0  0  0  0  0  0  0  0  0  0  0  0
    9.3695  -19.0930   -6.0532 C   0  0  0  0  0  0  0  0  0  0  0  0
    9.9158  -20.3406   -6.2577 C   0  0  0  0  0  0  0  0  0  0  0  0
   10.8415  -20.5275   -7.2523 C   0  0  0  0  0  0  0  0  0  0  0  0
   13.9979  -23.1656   -7.4577 C   0  0  0  0  0  0  0  0  0  0  0  0
   14.9357  -22.2129   -7.0062 O   0  0  0  0  0  0  0  0  0  0  0  0
   14.2297  -23.7380   -8.5491 O   0  0  0  0  0  0  0  0  0  0  0  0
  2  1  1  6
  2  3  1  0
  4  2  1  0
  5  4  2  0
  7  6  1  6
  7  8  1  0
  9  7  1  0
 10  9  1  1
 10 11  1  0
 11  4  1  0
 12 14  1  0
 12 10  1  0
 13 12  2  0
 15 14  1  0
 15 16  1  6
 16 17  1  0
 17 18  2  0
 18 19  1  0
 20 19  1  0
 21 20  2  0
 22 21  1  0
 23 24  1  0
 23 22  2  0
 24 25  2  0
 25 17  1  0
 25 20  1  0
 26 15  1  0
 27 26  1  0
 28 26  2  0
M  END
$$$$
