ALW.pdb
     RDKit          3D

 28 29  0  0  1  0  0  0  0  0999 V2000
   24.4892  -18.1408  -15.9471 C   0  0  0  0  0  0  0  0  0  0  0  0
   24.2834  -18.5434  -14.4875 C   0  0  2  0  0  0  0  0  0  0  0  0
   24.6985  -17.4312  -13.6638 N   0  0  0  0  0  0  0  0  0  0  0  0
   25.0930  -19.7399  -14.1512 C   0  0  0  0  0  0  0  0  0  0  0  0
   24.7681  -20.8491  -14.6644 O   0  0  0  0  0  0  0  0  0  0  0  0
   28.9691  -20.5319  -15.2113 C   0  0  0  0  0  0  0  0  0  0  0  0
   29.1940  -19.7481  -13.9310 C   0  0  2  0  0  0  0  0  0  0  0  0
   30.5571  -19.2459  -13.7121 C   0  0  0  0  0  0  0  0  0  0  0  0
   28.4735  -20.4139  -12.8368 C   0  0  0  0  0  0  0  0  0  0  0  0
   27.0605  -20.8189  -13.0101 C   0  0  2  0  0  0  0  0  0  0  0  0
   26.2088  -19.6462  -13.2743 N   0  0  0  0  0  0  0  0  0  0  0  0
   26.4857  -21.6021  -11.8819 C   0  0  0  0  0  0  0  0  0  0  0  0
   27.0292  -22.6483  -11.4450 O   0  0  0  0  0  0  0  0  0  0  0  0
   25.2888  -21.2158  -11.2276 N   0  0  0  0  0  0  0  0  0  0  0  0
   25.1649  -21.1582   -9.7743 C   0  0  1  0  0  0  0  0  0  0  0  0
   26.3672  -20.5695   -9.1463 C   0  0  0  0  0  0  0  0  0  0  0  0
   26.3184  -20.6115   -7.6787 C   0  0  0  0  0  0  0  0  0  0  0  0
   25.3511  -21.2404   -6.8777 C   0  0  0  0  0  0  0  0  0  0  0  0
   25.5951  -21.0471   -5.5866 N   0  0  0  0  0  0  0  0  0  0  0  0
   26.6953  -20.3094   -5.4890 C   0  0  0  0  0  0  0  0  0  0  0  0
   27.3446  -19.8728   -4.3344 C   0  0  0  0  0  0  0  0  0  0  0  0
   28.4990  -19.1304   -4.4510 C   0  0  0  0  0  0  0  0  0  0  0  0
   28.9646  -18.8498   -5.7112 C   0  0  0  0  0  0  0  0  0  0  0  0
   28.3225  -19.2805   -6.8509 C   0  0  0  0  0  0  0  0  0  0  0  0
   27.1719  -20.0201   -6.7499 C   0  0  0  0  0  0  0  0  0  0  0  0
   23.9128  -20.5782   -9.3463 C   0  0  0  0  0  0  0  0  0  0  0  0
   23.1533  -21.3159   -8.4137 O   0  0  0  0  0  0  0  0  0  0  0  0
   23.4496  -19.4794   -9.7346 O   0  0  0  0  0  0  0  0  0  0  0  0
  2  1  1  6
  2  3  1  0
  4  2  1  0
  5  4  2  0
  7  6  1  6
  7  8  1  0
  9  7  1  0
 10  9  1  1
 10 11  1  0
 11  4  1  0
 12 14  1  0
 12 10  1  0
 13 12  2  0
 15 14  1  0
 15 16  1  6
 16 17  1  0
 17 18  2  0
 18 19  1  0
 20 19  1  0
 21 20  2  0
 22 21  1  0
 23 24  1  0
 23 22  2  0
 24 25  2  0
 25 17  1  0
 25 20  1  0
 26 15  1  0
 27 26  1  0
 28 26  2  0
M  END
$$$$
