ALW.pdb
     RDKit          3D

 28 29  0  0  1  0  0  0  0  0999 V2000
   27.6308  -19.0128  -15.4265 C   0  0  0  0  0  0  0  0  0  0  0  0
   28.1587  -20.1056  -14.4981 C   0  0  2  0  0  0  0  0  0  0  0  0
   28.6476  -21.1845  -15.3256 N   0  0  0  0  0  0  0  0  0  0  0  0
   27.0824  -20.6089  -13.6104 C   0  0  0  0  0  0  0  0  0  0  0  0
   26.3968  -21.5982  -13.9984 O   0  0  0  0  0  0  0  0  0  0  0  0
   26.1605  -19.9309   -7.7288 C   0  0  0  0  0  0  0  0  0  0  0  0
   26.1195  -20.7756   -8.9895 C   0  0  2  0  0  0  0  0  0  0  0  0
   27.1489  -21.8177   -9.1024 C   0  0  0  0  0  0  0  0  0  0  0  0
   25.8330  -19.9009  -10.1351 C   0  0  0  0  0  0  0  0  0  0  0  0
   25.7205  -20.4672  -11.4979 C   0  0  2  0  0  0  0  0  0  0  0  0
   26.8248  -19.9975  -12.3524 N   0  0  0  0  0  0  0  0  0  0  0  0
   24.4234  -20.2110  -12.1825 C   0  0  0  0  0  0  0  0  0  0  0  0
   24.1383  -19.0942  -12.6848 O   0  0  0  0  0  0  0  0  0  0  0  0
   23.4280  -21.2120  -12.3126 N   0  0  0  0  0  0  0  0  0  0  0  0
   22.1319  -20.9626  -12.9360 C   0  0  1  0  0  0  0  0  0  0  0  0
   22.0098  -21.6534  -14.2377 C   0  0  0  0  0  0  0  0  0  0  0  0
   21.3838  -20.8144  -15.2683 C   0  0  0  0  0  0  0  0  0  0  0  0
   20.0102  -20.6439  -15.5073 C   0  0  0  0  0  0  0  0  0  0  0  0
   19.7976  -19.8414  -16.5438 N   0  0  0  0  0  0  0  0  0  0  0  0
   20.9816  -19.4633  -17.0122 C   0  0  0  0  0  0  0  0  0  0  0  0
   21.2572  -18.6066  -18.0778 C   0  0  0  0  0  0  0  0  0  0  0  0
   22.5680  -18.3204  -18.3900 C   0  0  0  0  0  0  0  0  0  0  0  0
   23.5556  -18.8969  -17.6312 C   0  0  0  0  0  0  0  0  0  0  0  0
   23.2828  -19.7434  -16.5797 C   0  0  0  0  0  0  0  0  0  0  0  0
   21.9825  -20.0376  -16.2577 C   0  0  0  0  0  0  0  0  0  0  0  0
   21.0285  -21.1802  -12.0293 C   0  0  0  0  0  0  0  0  0  0  0  0
   19.7359  -20.8914  -12.5159 O   0  0  0  0  0  0  0  0  0  0  0  0
   21.1262  -21.6018  -10.8523 O   0  0  0  0  0  0  0  0  0  0  0  0
  2  1  1  6
  2  3  1  0
  4  2  1  0
  5  4  2  0
  7  6  1  1
  7  8  1  0
  9  7  1  0
 10  9  1  1
 10 11  1  0
 11  4  1  0
 12 14  1  0
 12 10  1  0
 13 12  2  0
 15 14  1  0
 15 16  1  6
 16 17  1  0
 17 18  2  0
 18 19  1  0
 20 19  1  0
 21 20  2  0
 22 21  1  0
 23 24  1  0
 23 22  2  0
 24 25  2  0
 25 17  1  0
 25 20  1  0
 26 15  1  0
 27 26  1  0
 28 26  2  0
M  END
$$$$
