EHV.pdb
     RDKit          3D

 27 27  0  0  1  0  0  0  0  0999 V2000
   23.9027  -20.6114  -16.6511 N   0  0  0  0  0  0  0  0  0  0  0  0
   24.4815  -19.5687  -15.8051 C   0  0  1  0  0  0  0  0  0  0  0  0
   23.3777  -18.6982  -15.2942 C   0  0  0  0  0  0  0  0  0  0  0  0
   22.5009  -18.1041  -16.3633 C   0  0  0  0  0  0  0  0  0  0  0  0
   21.2700  -18.9366  -16.5573 C   0  0  0  0  0  0  0  0  0  0  0  0
   20.9416  -19.8628  -15.7720 O   0  0  0  0  0  0  0  0  0  0  0  0
   25.2031  -20.1947  -14.6575 C   0  0  0  0  0  0  0  0  0  0  0  0
   24.6808  -20.9693  -13.8256 O   0  0  0  0  0  0  0  0  0  0  0  0
   20.4034  -18.7258  -17.6410 O   0  0  0  0  0  0  0  0  0  0  0  0
   26.6015  -19.9279  -14.4365 N   0  0  0  0  0  0  0  0  0  0  0  0
   27.2996  -20.4773  -13.2939 C   0  0  1  0  0  0  0  0  0  0  0  0
   28.7707  -20.2707  -13.4497 C   0  0  0  0  0  0  0  0  0  0  0  0
   29.5494  -20.8828  -12.3416 C   0  0  0  0  0  0  0  0  0  0  0  0
   29.1372  -21.5756  -11.2318 C   0  0  0  0  0  0  0  0  0  0  0  0
   30.2099  -21.9424  -10.5004 N   0  0  0  0  0  0  0  0  0  0  0  0
   31.2923  -21.4950  -11.1265 C   0  0  0  0  0  0  0  0  0  0  0  0
   30.9109  -20.8542  -12.2380 N   0  0  0  0  0  0  0  0  0  0  0  0
   26.7174  -19.9409  -12.0739 C   0  0  0  0  0  0  0  0  0  0  0  0
   26.3806  -18.7319  -12.0290 O   0  0  0  0  0  0  0  0  0  0  0  0
   23.5828  -20.5613  -10.6825 C   0  0  0  0  0  0  0  0  0  0  0  0
   24.5003  -20.7375   -9.5066 C   0  0  2  0  0  0  0  0  0  0  0  0
   23.8481  -20.2559   -8.2349 C   0  0  0  0  0  0  0  0  0  0  0  0
   25.8611  -20.1121   -9.7286 C   0  0  2  0  0  0  0  0  0  0  0  0
   26.4903  -20.6988  -10.8878 N   0  0  0  0  0  0  0  0  0  0  0  0
   26.6644  -20.2941   -8.5012 C   0  0  0  0  0  0  0  0  0  0  0  0
   26.6411  -19.3837   -7.4561 O   0  0  0  0  0  0  0  0  0  0  0  0
   27.4210  -21.3050   -8.3474 O   0  0  0  0  0  0  0  0  0  0  0  0
  2  1  1  6
  2  3  1  0
  4  5  1  0
  4  3  1  0
  5  6  2  0
  7  2  1  0
  7 10  1  0
  8  7  2  0
  9  5  1  0
 11 10  1  0
 12 13  1  0
 11 12  1  6
 13 17  1  0
 13 14  2  0
 14 15  1  0
 16 15  1  0
 17 16  2  0
 18 11  1  0
 19 18  2  0
 21 20  1  6
 21 23  1  0
 22 21  1  0
 23 24  1  6
 23 25  1  0
 24 18  1  0
 25 26  1  0
 27 25  2  0
M  END
$$$$
