EHV.pdb
     RDKit          3D

 27 27  0  0  1  0  0  0  0  0999 V2000
   27.8464  -20.1469  -16.2090 N   0  0  0  0  0  0  0  0  0  0  0  0
   27.5637  -18.7547  -15.8628 C   0  0  1  0  0  0  0  0  0  0  0  0
   27.9701  -17.8837  -17.0088 C   0  0  0  0  0  0  0  0  0  0  0  0
   27.6887  -18.4639  -18.3686 C   0  0  0  0  0  0  0  0  0  0  0  0
   28.0240  -17.4741  -19.4427 C   0  0  0  0  0  0  0  0  0  0  0  0
   27.1495  -16.9169  -20.1548 O   0  0  0  0  0  0  0  0  0  0  0  0
   26.1040  -18.5890  -15.5958 C   0  0  0  0  0  0  0  0  0  0  0  0
   25.5650  -17.5231  -15.2241 O   0  0  0  0  0  0  0  0  0  0  0  0
   29.3512  -17.1089  -19.7173 O   0  0  0  0  0  0  0  0  0  0  0  0
   25.1978  -19.6972  -15.7587 N   0  0  0  0  0  0  0  0  0  0  0  0
   23.7938  -19.5738  -15.4297 C   0  0  1  0  0  0  0  0  0  0  0  0
   22.9624  -19.8504  -16.6394 C   0  0  0  0  0  0  0  0  0  0  0  0
   21.5088  -19.6824  -16.3784 C   0  0  0  0  0  0  0  0  0  0  0  0
   20.8383  -19.3234  -15.2371 C   0  0  0  0  0  0  0  0  0  0  0  0
   19.5109  -19.3017  -15.4773 N   0  0  0  0  0  0  0  0  0  0  0  0
   19.3293  -19.6400  -16.7486 C   0  0  0  0  0  0  0  0  0  0  0  0
   20.5241  -19.8725  -17.3055 N   0  0  0  0  0  0  0  0  0  0  0  0
   23.5006  -20.3961  -14.2666 C   0  0  0  0  0  0  0  0  0  0  0  0
   23.8009  -21.6154  -14.2795 O   0  0  0  0  0  0  0  0  0  0  0  0
   24.8656  -20.3751  -10.9308 C   0  0  0  0  0  0  0  0  0  0  0  0
   23.3770  -20.3237  -10.7392 C   0  0  2  0  0  0  0  0  0  0  0  0
   22.9669  -21.0598   -9.4885 C   0  0  0  0  0  0  0  0  0  0  0  0
   22.6144  -20.7931  -11.9600 C   0  0  2  0  0  0  0  0  0  0  0  0
   22.8811  -19.9164  -13.0754 N   0  0  0  0  0  0  0  0  0  0  0  0
   21.1769  -20.8479  -11.6201 C   0  0  0  0  0  0  0  0  0  0  0  0
   20.2534  -19.9611  -12.1517 O   0  0  0  0  0  0  0  0  0  0  0  0
   20.7181  -21.7204  -10.8162 O   0  0  0  0  0  0  0  0  0  0  0  0
  2  1  1  6
  2  3  1  0
  4  5  1  0
  4  3  1  0
  5  6  2  0
  7  2  1  0
  7 10  1  0
  8  7  2  0
  9  5  1  0
 11 10  1  0
 12 13  1  0
 11 12  1  6
 13 17  1  0
 13 14  2  0
 14 15  1  0
 16 15  1  0
 17 16  2  0
 18 11  1  0
 19 18  2  0
 21 20  1  6
 21 23  1  0
 22 21  1  0
 23 24  1  6
 23 25  1  0
 24 18  1  0
 25 26  1  0
 27 25  2  0
M  END
$$$$
