EHV.pdb
     RDKit          3D

 27 27  0  0  1  0  0  0  0  0999 V2000
   19.9251  -18.0524  -17.6841 N   0  0  0  0  0  0  0  0  0  0  0  0
   20.6065  -17.5401  -16.4962 C   0  0  1  0  0  0  0  0  0  0  0  0
   19.7116  -16.5512  -15.8192 C   0  0  0  0  0  0  0  0  0  0  0  0
   18.3097  -17.0397  -15.5723 C   0  0  0  0  0  0  0  0  0  0  0  0
   17.3968  -16.5990  -16.6761 C   0  0  0  0  0  0  0  0  0  0  0  0
   17.0318  -15.4044  -16.8241 O   0  0  0  0  0  0  0  0  0  0  0  0
   20.9095  -18.6671  -15.5646 C   0  0  0  0  0  0  0  0  0  0  0  0
   20.0735  -19.5114  -15.1734 O   0  0  0  0  0  0  0  0  0  0  0  0
   16.8917  -17.5077  -17.6189 O   0  0  0  0  0  0  0  0  0  0  0  0
   22.2398  -18.8502  -15.0427 N   0  0  0  0  0  0  0  0  0  0  0  0
   22.6952  -20.1456  -14.5849 C   0  0  1  0  0  0  0  0  0  0  0  0
   22.4946  -21.1634  -15.6596 C   0  0  0  0  0  0  0  0  0  0  0  0
   22.9099  -22.5257  -15.2344 C   0  0  0  0  0  0  0  0  0  0  0  0
   23.3502  -22.9914  -14.0217 C   0  0  0  0  0  0  0  0  0  0  0  0
   23.6128  -24.3117  -14.1098 N   0  0  0  0  0  0  0  0  0  0  0  0
   23.3470  -24.6898  -15.3547 C   0  0  0  0  0  0  0  0  0  0  0  0
   22.9223  -23.6247  -16.0451 N   0  0  0  0  0  0  0  0  0  0  0  0
   24.0545  -20.0249  -14.0822 C   0  0  0  0  0  0  0  0  0  0  0  0
   24.8661  -19.2675  -14.6693 O   0  0  0  0  0  0  0  0  0  0  0  0
   24.9764  -20.6895  -10.1125 C   0  0  0  0  0  0  0  0  0  0  0  0
   26.0506  -21.1082  -11.0748 C   0  0  2  0  0  0  0  0  0  0  0  0
   27.4212  -20.8717  -10.4917 C   0  0  0  0  0  0  0  0  0  0  0  0
   25.8893  -20.4766  -12.4413 C   0  0  2  0  0  0  0  0  0  0  0  0
   24.5568  -20.7174  -12.9416 N   0  0  0  0  0  0  0  0  0  0  0  0
   26.9319  -21.0239  -13.3347 C   0  0  0  0  0  0  0  0  0  0  0  0
   28.0928  -20.3284  -13.6353 O   0  0  0  0  0  0  0  0  0  0  0  0
   26.8094  -22.1697  -13.8733 O   0  0  0  0  0  0  0  0  0  0  0  0
  2  1  1  6
  2  3  1  0
  4  5  1  0
  4  3  1  0
  5  6  2  0
  7  2  1  0
  7 10  1  0
  8  7  2  0
  9  5  1  0
 11 10  1  0
 12 13  1  0
 11 12  1  6
 13 17  1  0
 13 14  2  0
 14 15  1  0
 16 15  1  0
 17 16  2  0
 18 11  1  0
 19 18  2  0
 21 20  1  1
 21 23  1  0
 22 21  1  0
 23 24  1  6
 23 25  1  0
 24 18  1  0
 25 26  1  0
 27 25  2  0
M  END
$$$$
