EHV.pdb
     RDKit          3D

 27 27  0  0  1  0  0  0  0  0999 V2000
   16.8817  -11.0972  -15.1655 N   0  0  0  0  0  0  0  0  0  0  0  0
   18.2266  -10.7166  -14.7363 C   0  0  1  0  0  0  0  0  0  0  0  0
   19.1460  -10.7964  -15.9133 C   0  0  0  0  0  0  0  0  0  0  0  0
   18.6434  -10.1022  -17.1504 C   0  0  0  0  0  0  0  0  0  0  0  0
   19.6054   -9.0382  -17.5844 C   0  0  0  0  0  0  0  0  0  0  0  0
   20.7208   -8.8595  -17.0312 O   0  0  0  0  0  0  0  0  0  0  0  0
   18.2088   -9.3219  -14.2033 C   0  0  0  0  0  0  0  0  0  0  0  0
   17.4338   -8.4208  -14.5933 O   0  0  0  0  0  0  0  0  0  0  0  0
   19.3107   -8.1702  -18.6473 O   0  0  0  0  0  0  0  0  0  0  0  0
   19.1245   -8.9212  -13.1656 N   0  0  0  0  0  0  0  0  0  0  0  0
   19.1016   -7.5807  -12.6203 C   0  0  1  0  0  0  0  0  0  0  0  0
   18.9318   -7.6383  -11.1374 C   0  0  0  0  0  0  0  0  0  0  0  0
   17.5022   -7.6550  -10.7311 C   0  0  0  0  0  0  0  0  0  0  0  0
   16.3567   -7.7112  -11.4834 C   0  0  0  0  0  0  0  0  0  0  0  0
   15.2789   -7.7037  -10.6719 N   0  0  0  0  0  0  0  0  0  0  0  0
   15.7210   -7.6440   -9.4211 C   0  0  0  0  0  0  0  0  0  0  0  0
   17.0590   -7.6141   -9.4399 N   0  0  0  0  0  0  0  0  0  0  0  0
   20.2703   -6.8532  -13.0893 C   0  0  0  0  0  0  0  0  0  0  0  0
   21.4108   -7.3606  -12.9521 O   0  0  0  0  0  0  0  0  0  0  0  0
   21.4977   -6.1560  -16.2736 C   0  0  0  0  0  0  0  0  0  0  0  0
   21.5071   -4.8042  -15.6194 C   0  0  2  0  0  0  0  0  0  0  0  0
   22.6802   -3.9827  -16.0922 C   0  0  0  0  0  0  0  0  0  0  0  0
   21.4322   -4.8854  -14.1095 C   0  0  2  0  0  0  0  0  0  0  0  0
   20.2259   -5.5713  -13.7117 N   0  0  0  0  0  0  0  0  0  0  0  0
   21.5040   -3.5135  -13.5638 C   0  0  0  0  0  0  0  0  0  0  0  0
   22.7082   -2.8932  -13.2691 O   0  0  0  0  0  0  0  0  0  0  0  0
   20.4530   -2.8335  -13.3381 O   0  0  0  0  0  0  0  0  0  0  0  0
  2  1  1  6
  2  3  1  0
  4  5  1  0
  4  3  1  0
  5  6  2  0
  7  2  1  0
  7 10  1  0
  8  7  2  0
  9  5  1  0
 11 10  1  0
 12 13  1  0
 11 12  1  1
 13 17  1  0
 13 14  2  0
 14 15  1  0
 16 15  1  0
 17 16  2  0
 18 11  1  0
 19 18  2  0
 21 20  1  6
 21 23  1  0
 22 21  1  0
 23 24  1  6
 23 25  1  0
 24 18  1  0
 25 26  1  0
 27 25  2  0
M  END
$$$$
