EHV.pdb
     RDKit          3D

 27 27  0  0  1  0  0  0  0  0999 V2000
   23.9688  -14.9123  -19.3489 N   0  0  0  0  0  0  0  0  0  0  0  0
   23.6821  -13.5129  -19.6605 C   0  0  1  0  0  0  0  0  0  0  0  0
   22.2977  -13.4199  -20.2190 C   0  0  0  0  0  0  0  0  0  0  0  0
   22.1628  -13.8877  -21.6431 C   0  0  0  0  0  0  0  0  0  0  0  0
   22.5403  -15.3333  -21.7601 C   0  0  0  0  0  0  0  0  0  0  0  0
   21.9692  -16.2431  -21.1058 O   0  0  0  0  0  0  0  0  0  0  0  0
   23.7815  -12.6902  -18.4183 C   0  0  0  0  0  0  0  0  0  0  0  0
   23.3553  -13.0416  -17.2960 O   0  0  0  0  0  0  0  0  0  0  0  0
   23.5665  -15.7577  -22.6185 O   0  0  0  0  0  0  0  0  0  0  0  0
   24.4005  -11.3896  -18.4472 N   0  0  0  0  0  0  0  0  0  0  0  0
   24.4543  -10.5570  -17.2645 C   0  0  1  0  0  0  0  0  0  0  0  0
   25.8677  -10.1630  -16.9845 C   0  0  0  0  0  0  0  0  0  0  0  0
   26.6759  -11.2916  -16.4535 C   0  0  0  0  0  0  0  0  0  0  0  0
   26.3194  -12.5763  -16.1312 C   0  0  0  0  0  0  0  0  0  0  0  0
   27.3994  -13.2489  -15.6826 N   0  0  0  0  0  0  0  0  0  0  0  0
   28.4319  -12.4144  -15.7152 C   0  0  0  0  0  0  0  0  0  0  0  0
   28.0121  -11.2305  -16.1776 N   0  0  0  0  0  0  0  0  0  0  0  0
   23.5144   -9.4569  -17.4104 C   0  0  0  0  0  0  0  0  0  0  0  0
   23.4967   -8.7960  -18.4780 O   0  0  0  0  0  0  0  0  0  0  0  0
   19.7272   -9.5465  -15.8979 C   0  0  0  0  0  0  0  0  0  0  0  0
   20.2637   -8.7004  -17.0167 C   0  0  2  0  0  0  0  0  0  0  0  0
   20.3306   -9.4844  -18.3033 C   0  0  0  0  0  0  0  0  0  0  0  0
   21.5843   -8.0452  -16.6721 C   0  0  2  0  0  0  0  0  0  0  0  0
   22.5821   -9.0548  -16.4095 N   0  0  0  0  0  0  0  0  0  0  0  0
   21.3735   -7.1498  -15.5151 C   0  0  0  0  0  0  0  0  0  0  0  0
   20.8023   -5.8931  -15.6426 O   0  0  0  0  0  0  0  0  0  0  0  0
   21.7101   -7.4959  -14.3383 O   0  0  0  0  0  0  0  0  0  0  0  0
  2  1  1  1
  2  3  1  0
  4  5  1  0
  4  3  1  0
  5  6  2  0
  7  2  1  0
  7 10  1  0
  8  7  2  0
  9  5  1  0
 11 10  1  0
 12 13  1  0
 11 12  1  6
 13 17  1  0
 13 14  2  0
 14 15  1  0
 16 15  1  0
 17 16  2  0
 18 11  1  0
 19 18  2  0
 21 20  1  1
 21 23  1  0
 22 21  1  0
 23 24  1  1
 23 25  1  0
 24 18  1  0
 25 26  1  0
 27 25  2  0
M  END
$$$$
