EHV.pdb
     RDKit          3D

 27 27  0  0  1  0  0  0  0  0999 V2000
   22.3931  -19.2280  -14.9464 N   0  0  0  0  0  0  0  0  0  0  0  0
   21.2104  -18.7712  -14.2182 C   0  0  1  0  0  0  0  0  0  0  0  0
   20.5551  -17.6804  -15.0042 C   0  0  0  0  0  0  0  0  0  0  0  0
   20.9848  -17.5993  -16.4442 C   0  0  0  0  0  0  0  0  0  0  0  0
   21.8260  -16.3807  -16.6746 C   0  0  0  0  0  0  0  0  0  0  0  0
   22.1653  -15.6003  -15.7482 O   0  0  0  0  0  0  0  0  0  0  0  0
   20.2582  -19.9078  -14.0413 C   0  0  0  0  0  0  0  0  0  0  0  0
   19.0144  -19.8157  -14.1374 O   0  0  0  0  0  0  0  0  0  0  0  0
   22.2884  -16.0381  -17.9547 O   0  0  0  0  0  0  0  0  0  0  0  0
   20.7424  -21.2300  -13.7364 N   0  0  0  0  0  0  0  0  0  0  0  0
   19.8420  -22.3606  -13.6602 C   0  0  1  0  0  0  0  0  0  0  0  0
   20.1525  -23.3318  -14.7517 C   0  0  0  0  0  0  0  0  0  0  0  0
   19.8014  -22.8045  -16.0962 C   0  0  0  0  0  0  0  0  0  0  0  0
   20.5967  -22.3483  -17.1164 C   0  0  0  0  0  0  0  0  0  0  0  0
   19.8273  -21.9666  -18.1568 N   0  0  0  0  0  0  0  0  0  0  0  0
   18.5610  -22.1728  -17.8142 C   0  0  0  0  0  0  0  0  0  0  0  0
   18.5286  -22.6777  -16.5750 N   0  0  0  0  0  0  0  0  0  0  0  0
   19.8690  -22.9040  -12.3116 C   0  0  0  0  0  0  0  0  0  0  0  0
   20.8924  -22.7457  -11.6013 O   0  0  0  0  0  0  0  0  0  0  0  0
   18.7703  -21.7772   -9.4433 C   0  0  0  0  0  0  0  0  0  0  0  0
   18.1795  -23.1576   -9.4145 C   0  0  2  0  0  0  0  0  0  0  0  0
   18.1113  -23.6874   -8.0042 C   0  0  0  0  0  0  0  0  0  0  0  0
   18.8819  -24.1134  -10.3554 C   0  0  2  0  0  0  0  0  0  0  0  0
   18.7951  -23.6242  -11.7108 N   0  0  0  0  0  0  0  0  0  0  0  0
   18.2736  -25.4517  -10.2015 C   0  0  0  0  0  0  0  0  0  0  0  0
   17.3963  -25.9810  -11.1352 O   0  0  0  0  0  0  0  0  0  0  0  0
   18.5308  -26.1855   -9.1948 O   0  0  0  0  0  0  0  0  0  0  0  0
  2  1  1  6
  2  3  1  0
  4  5  1  0
  4  3  1  0
  5  6  2  0
  7  2  1  0
  7 10  1  0
  8  7  2  0
  9  5  1  0
 11 10  1  0
 12 13  1  0
 11 12  1  6
 13 17  1  0
 13 14  2  0
 14 15  1  0
 16 15  1  0
 17 16  2  0
 18 11  1  0
 19 18  2  0
 21 20  1  1
 21 23  1  0
 22 21  1  0
 23 24  1  6
 23 25  1  0
 24 18  1  0
 25 26  1  0
 27 25  2  0
M  END
$$$$
