EHV.pdb
     RDKit          3D

 27 27  0  0  1  0  0  0  0  0999 V2000
   27.8561  -24.8755  -19.2594 N   0  0  0  0  0  0  0  0  0  0  0  0
   27.3276  -26.0769  -19.9037 C   0  0  1  0  0  0  0  0  0  0  0  0
   27.7441  -26.0732  -21.3402 C   0  0  0  0  0  0  0  0  0  0  0  0
   27.3800  -27.3188  -22.1024 C   0  0  0  0  0  0  0  0  0  0  0  0
   27.9483  -27.2728  -23.4883 C   0  0  0  0  0  0  0  0  0  0  0  0
   28.4672  -26.2375  -23.9792 O   0  0  0  0  0  0  0  0  0  0  0  0
   27.8686  -27.2916  -19.2244 C   0  0  0  0  0  0  0  0  0  0  0  0
   28.9986  -27.3660  -18.6930 O   0  0  0  0  0  0  0  0  0  0  0  0
   27.9327  -28.3982  -24.3268 O   0  0  0  0  0  0  0  0  0  0  0  0
   27.0836  -28.4968  -19.1414 N   0  0  0  0  0  0  0  0  0  0  0  0
   27.5720  -29.6644  -18.4392 C   0  0  1  0  0  0  0  0  0  0  0  0
   27.1016  -29.6385  -17.0218 C   0  0  0  0  0  0  0  0  0  0  0  0
   27.4596  -30.8776  -16.2832 C   0  0  0  0  0  0  0  0  0  0  0  0
   28.1263  -32.0044  -16.6921 C   0  0  0  0  0  0  0  0  0  0  0  0
   28.2183  -32.8757  -15.6663 N   0  0  0  0  0  0  0  0  0  0  0  0
   27.6227  -32.3215  -14.6166 C   0  0  0  0  0  0  0  0  0  0  0  0
   27.1602  -31.1169  -14.9723 N   0  0  0  0  0  0  0  0  0  0  0  0
   27.2226  -30.8576  -19.1936 C   0  0  0  0  0  0  0  0  0  0  0  0
   26.1814  -30.8628  -19.8956 O   0  0  0  0  0  0  0  0  0  0  0  0
   29.9219  -34.1289  -19.8360 C   0  0  0  0  0  0  0  0  0  0  0  0
   28.7927  -33.7431  -20.7479 C   0  0  2  0  0  0  0  0  0  0  0  0
   29.2673  -32.8055  -21.8297 C   0  0  0  0  0  0  0  0  0  0  0  0
   27.5961  -33.1980  -19.9976 C   0  0  2  0  0  0  0  0  0  0  0  0
   27.9895  -32.0596  -19.2020 N   0  0  0  0  0  0  0  0  0  0  0  0
   27.0243  -34.2862  -19.1767 C   0  0  0  0  0  0  0  0  0  0  0  0
   26.2208  -35.2794  -19.7149 O   0  0  0  0  0  0  0  0  0  0  0  0
   27.2465  -34.3608  -17.9264 O   0  0  0  0  0  0  0  0  0  0  0  0
  2  1  1  1
  2  3  1  0
  4  5  1  0
  4  3  1  0
  5  6  2  0
  7  2  1  0
  7 10  1  0
  8  7  2  0
  9  5  1  0
 11 10  1  0
 12 13  1  0
 11 12  1  1
 13 17  1  0
 13 14  2  0
 14 15  1  0
 16 15  1  0
 17 16  2  0
 18 11  1  0
 19 18  2  0
 21 20  1  1
 21 23  1  0
 22 21  1  0
 23 24  1  1
 23 25  1  0
 24 18  1  0
 25 26  1  0
 27 25  2  0
M  END
$$$$
