EHV.pdb
     RDKit          3D

 27 27  0  0  1  0  0  0  0  0999 V2000
   19.5186  -14.6721  -17.4461 N   0  0  0  0  0  0  0  0  0  0  0  0
   19.4996  -13.3259  -18.0165 C   0  0  1  0  0  0  0  0  0  0  0  0
   18.0800  -12.8641  -18.1084 C   0  0  0  0  0  0  0  0  0  0  0  0
   17.3143  -13.4185  -19.2795 C   0  0  0  0  0  0  0  0  0  0  0  0
   17.7266  -12.7361  -20.5484 C   0  0  0  0  0  0  0  0  0  0  0  0
   17.4029  -11.5520  -20.8229 O   0  0  0  0  0  0  0  0  0  0  0  0
   20.2766  -12.3978  -17.1420 C   0  0  0  0  0  0  0  0  0  0  0  0
   20.3660  -12.4994  -15.8984 O   0  0  0  0  0  0  0  0  0  0  0  0
   18.5077  -13.3897  -21.5141 O   0  0  0  0  0  0  0  0  0  0  0  0
   20.9966  -11.2860  -17.7088 N   0  0  0  0  0  0  0  0  0  0  0  0
   21.8921  -10.4826  -16.9042 C   0  0  1  0  0  0  0  0  0  0  0  0
   23.2125  -10.3523  -17.5902 C   0  0  0  0  0  0  0  0  0  0  0  0
   24.1656  -11.4212  -17.1924 C   0  0  0  0  0  0  0  0  0  0  0  0
   24.0434  -12.4372  -16.2792 C   0  0  0  0  0  0  0  0  0  0  0  0
   25.1771  -13.1683  -16.2580 N   0  0  0  0  0  0  0  0  0  0  0  0
   26.0135  -12.6342  -17.1404 C   0  0  0  0  0  0  0  0  0  0  0  0
   25.4186  -11.5802  -17.7120 N   0  0  0  0  0  0  0  0  0  0  0  0
   21.2364   -9.2298  -16.5642 C   0  0  0  0  0  0  0  0  0  0  0  0
   20.8244   -8.4784  -17.4821 O   0  0  0  0  0  0  0  0  0  0  0  0
   19.0148   -8.5286  -13.0931 C   0  0  0  0  0  0  0  0  0  0  0  0
   18.9675   -7.7835  -14.3962 C   0  0  2  0  0  0  0  0  0  0  0  0
   18.0585   -8.4744  -15.3815 C   0  0  0  0  0  0  0  0  0  0  0  0
   20.3440   -7.5204  -14.9690 C   0  0  2  0  0  0  0  0  0  0  0  0
   21.0157   -8.7707  -15.2326 N   0  0  0  0  0  0  0  0  0  0  0  0
   21.0912   -6.6713  -14.0174 C   0  0  0  0  0  0  0  0  0  0  0  0
   20.8425   -5.3146  -13.8786 O   0  0  0  0  0  0  0  0  0  0  0  0
   22.0055   -7.1525  -13.2755 O   0  0  0  0  0  0  0  0  0  0  0  0
  2  1  1  1
  2  3  1  0
  4  5  1  0
  4  3  1  0
  5  6  2  0
  7  2  1  0
  7 10  1  0
  8  7  2  0
  9  5  1  0
 11 10  1  0
 12 13  1  0
 11 12  1  6
 13 17  1  0
 13 14  2  0
 14 15  1  0
 16 15  1  0
 17 16  2  0
 18 11  1  0
 19 18  2  0
 21 20  1  1
 21 23  1  0
 22 21  1  0
 23 24  1  1
 23 25  1  0
 24 18  1  0
 25 26  1  0
 27 25  2  0
M  END
$$$$
