EHV.pdb
     RDKit          3D

 27 27  0  0  1  0  0  0  0  0999 V2000
   23.0835  -21.7377  -18.1707 N   0  0  0  0  0  0  0  0  0  0  0  0
   22.8933  -20.8525  -17.0226 C   0  0  1  0  0  0  0  0  0  0  0  0
   21.5437  -21.1144  -16.4336 C   0  0  0  0  0  0  0  0  0  0  0  0
   20.5023  -20.0801  -16.7663 C   0  0  0  0  0  0  0  0  0  0  0  0
   20.6150  -18.9043  -15.8441 C   0  0  0  0  0  0  0  0  0  0  0  0
   20.4884  -19.0007  -14.5963 O   0  0  0  0  0  0  0  0  0  0  0  0
   23.9499  -21.1185  -16.0016 C   0  0  0  0  0  0  0  0  0  0  0  0
   23.9934  -22.1323  -15.2699 O   0  0  0  0  0  0  0  0  0  0  0  0
   20.8719  -17.6123  -16.3285 O   0  0  0  0  0  0  0  0  0  0  0  0
   25.0234  -20.1801  -15.7948 N   0  0  0  0  0  0  0  0  0  0  0  0
   26.0828  -20.4480  -14.8457 C   0  0  1  0  0  0  0  0  0  0  0  0
   27.3564  -19.8262  -15.3172 C   0  0  0  0  0  0  0  0  0  0  0  0
   28.0567  -20.6640  -16.3255 C   0  0  0  0  0  0  0  0  0  0  0  0
   27.7176  -21.8724  -16.8788 C   0  0  0  0  0  0  0  0  0  0  0  0
   28.6674  -22.2522  -17.7585 N   0  0  0  0  0  0  0  0  0  0  0  0
   29.6002  -21.3071  -17.7722 C   0  0  0  0  0  0  0  0  0  0  0  0
   29.2467  -20.3429  -16.9138 N   0  0  0  0  0  0  0  0  0  0  0  0
   25.6463  -20.0512  -13.5165 C   0  0  0  0  0  0  0  0  0  0  0  0
   24.9644  -19.0061  -13.3757 O   0  0  0  0  0  0  0  0  0  0  0  0
   23.1227  -20.1740   -9.8897 C   0  0  0  0  0  0  0  0  0  0  0  0
   23.8263  -20.5905  -11.1493 C   0  0  2  0  0  0  0  0  0  0  0  0
   23.4274  -21.9872  -11.5551 C   0  0  0  0  0  0  0  0  0  0  0  0
   25.3285  -20.4230  -11.0621 C   0  0  2  0  0  0  0  0  0  0  0  0
   25.9379  -20.7741  -12.3227 N   0  0  0  0  0  0  0  0  0  0  0  0
   25.8271  -21.2547   -9.9464 C   0  0  0  0  0  0  0  0  0  0  0  0
   26.6442  -22.3562  -10.1482 O   0  0  0  0  0  0  0  0  0  0  0  0
   25.5256  -20.9940   -8.7384 O   0  0  0  0  0  0  0  0  0  0  0  0
  2  1  1  6
  2  3  1  0
  4  5  1  0
  4  3  1  0
  5  6  2  0
  7  2  1  0
  7 10  1  0
  8  7  2  0
  9  5  1  0
 11 10  1  0
 12 13  1  0
 11 12  1  6
 13 17  1  0
 13 14  2  0
 14 15  1  0
 16 15  1  0
 17 16  2  0
 18 11  1  0
 19 18  2  0
 21 20  1  1
 21 23  1  0
 22 21  1  0
 23 24  1  6
 23 25  1  0
 24 18  1  0
 25 26  1  0
 27 25  2  0
M  END
$$$$
