EHV.pdb
     RDKit          3D

 27 27  0  0  1  0  0  0  0  0999 V2000
   12.1963  -25.8620   -6.6912 N   0  0  0  0  0  0  0  0  0  0  0  0
   13.5619  -25.7506   -6.1805 C   0  0  1  0  0  0  0  0  0  0  0  0
   14.1614  -24.4780   -6.6886 C   0  0  0  0  0  0  0  0  0  0  0  0
   13.2713  -23.2710   -6.5630 C   0  0  0  0  0  0  0  0  0  0  0  0
   13.9303  -22.0664   -7.1636 C   0  0  0  0  0  0  0  0  0  0  0  0
   15.0860  -22.0965   -7.6594 O   0  0  0  0  0  0  0  0  0  0  0  0
   13.5413  -25.7380   -4.6875 C   0  0  0  0  0  0  0  0  0  0  0  0
   12.7151  -25.1063   -3.9924 O   0  0  0  0  0  0  0  0  0  0  0  0
   13.2852  -20.8207   -7.2068 O   0  0  0  0  0  0  0  0  0  0  0  0
   14.5155  -26.4856   -3.9340 N   0  0  0  0  0  0  0  0  0  0  0  0
   14.4841  -26.5155   -2.4873 C   0  0  1  0  0  0  0  0  0  0  0  0
   15.2151  -27.7187   -1.9881 C   0  0  0  0  0  0  0  0  0  0  0  0
   15.2042  -27.8134   -0.5049 C   0  0  0  0  0  0  0  0  0  0  0  0
   16.0580  -27.2917    0.4334 C   0  0  0  0  0  0  0  0  0  0  0  0
   15.6454  -27.6431    1.6689 N   0  0  0  0  0  0  0  0  0  0  0  0
   14.5471  -28.3767    1.5298 C   0  0  0  0  0  0  0  0  0  0  0  0
   14.2681  -28.4884    0.2255 N   0  0  0  0  0  0  0  0  0  0  0  0
   14.9529  -25.2390   -1.9718 C   0  0  0  0  0  0  0  0  0  0  0  0
   15.9103  -24.6570   -2.5389 O   0  0  0  0  0  0  0  0  0  0  0  0
   13.0325  -22.1051   -1.4283 C   0  0  0  0  0  0  0  0  0  0  0  0
   13.8368  -22.3115   -0.1770 C   0  0  2  0  0  0  0  0  0  0  0  0
   14.3455  -20.9979    0.3617 C   0  0  0  0  0  0  0  0  0  0  0  0
   14.9441  -23.3284   -0.3554 C   0  0  2  0  0  0  0  0  0  0  0  0
   14.3971  -24.5733   -0.8401 N   0  0  0  0  0  0  0  0  0  0  0  0
   15.6443  -23.4880    0.9366 C   0  0  0  0  0  0  0  0  0  0  0  0
   16.5287  -22.5386    1.4247 O   0  0  0  0  0  0  0  0  0  0  0  0
   15.4646  -24.5144    1.6662 O   0  0  0  0  0  0  0  0  0  0  0  0
  2  1  1  6
  2  3  1  0
  4  5  1  0
  4  3  1  0
  5  6  2  0
  7  2  1  0
  7 10  1  0
  8  7  2  0
  9  5  1  0
 11 10  1  0
 12 13  1  0
 11 12  1  1
 13 17  1  0
 13 14  2  0
 14 15  1  0
 16 15  1  0
 17 16  2  0
 18 11  1  0
 19 18  2  0
 21 20  1  6
 21 23  1  0
 22 21  1  0
 23 24  1  1
 23 25  1  0
 24 18  1  0
 25 26  1  0
 27 25  2  0
M  END
$$$$
