EHV.pdb
     RDKit          3D

 27 27  0  0  1  0  0  0  0  0999 V2000
   24.9998  -19.4442  -20.6940 N   0  0  0  0  0  0  0  0  0  0  0  0
   24.7336  -18.6135  -19.5206 C   0  0  1  0  0  0  0  0  0  0  0  0
   23.5521  -17.7425  -19.8079 C   0  0  0  0  0  0  0  0  0  0  0  0
   23.8041  -16.6565  -20.8189 C   0  0  0  0  0  0  0  0  0  0  0  0
   24.7567  -15.6378  -20.2705 C   0  0  0  0  0  0  0  0  0  0  0  0
   24.6909  -15.2073  -19.0905 O   0  0  0  0  0  0  0  0  0  0  0  0
   24.4441  -19.4843  -18.3426 C   0  0  0  0  0  0  0  0  0  0  0  0
   23.7286  -20.5099  -18.3745 O   0  0  0  0  0  0  0  0  0  0  0  0
   25.7894  -15.1002  -21.0545 O   0  0  0  0  0  0  0  0  0  0  0  0
   24.9974  -19.1760  -17.0486 N   0  0  0  0  0  0  0  0  0  0  0  0
   24.8051  -20.0608  -15.9194 C   0  0  1  0  0  0  0  0  0  0  0  0
   26.0959  -20.2413  -15.1899 C   0  0  0  0  0  0  0  0  0  0  0  0
   26.9626  -21.2722  -15.8185 C   0  0  0  0  0  0  0  0  0  0  0  0
   26.7514  -22.0786  -16.9077 C   0  0  0  0  0  0  0  0  0  0  0  0
   27.8294  -22.8648  -17.1073 N   0  0  0  0  0  0  0  0  0  0  0  0
   28.7181  -22.5710  -16.1653 C   0  0  0  0  0  0  0  0  0  0  0  0
   28.2107  -21.6128  -15.3805 N   0  0  0  0  0  0  0  0  0  0  0  0
   23.6937  -19.5768  -15.1160 C   0  0  0  0  0  0  0  0  0  0  0  0
   23.6746  -18.3770  -14.7457 O   0  0  0  0  0  0  0  0  0  0  0  0
   19.7769  -20.9188  -15.3762 C   0  0  0  0  0  0  0  0  0  0  0  0
   20.2873  -19.6293  -14.8000 C   0  0  2  0  0  0  0  0  0  0  0  0
   20.5161  -18.6058  -15.8838 C   0  0  0  0  0  0  0  0  0  0  0  0
   21.5069  -19.8231  -13.9241 C   0  0  2  0  0  0  0  0  0  0  0  0
   22.5894  -20.3778  -14.7015 N   0  0  0  0  0  0  0  0  0  0  0  0
   21.1318  -20.6888  -12.7862 C   0  0  0  0  0  0  0  0  0  0  0  0
   20.4436  -20.2087  -11.6826 O   0  0  0  0  0  0  0  0  0  0  0  0
   21.4266  -21.9260  -12.7685 O   0  0  0  0  0  0  0  0  0  0  0  0
  2  1  1  6
  2  3  1  0
  4  5  1  0
  4  3  1  0
  5  6  2  0
  7  2  1  0
  7 10  1  0
  8  7  2  0
  9  5  1  0
 11 10  1  0
 12 13  1  0
 11 12  1  1
 13 17  1  0
 13 14  2  0
 14 15  1  0
 16 15  1  0
 17 16  2  0
 18 11  1  0
 19 18  2  0
 21 20  1  6
 21 23  1  0
 22 21  1  0
 23 24  1  6
 23 25  1  0
 24 18  1  0
 25 26  1  0
 27 25  2  0
M  END
$$$$
