EHV.pdb
     RDKit          3D

 27 27  0  0  1  0  0  0  0  0999 V2000
   20.9403  -14.5697  -19.0845 N   0  0  0  0  0  0  0  0  0  0  0  0
   20.0163  -13.4650  -18.8322 C   0  0  1  0  0  0  0  0  0  0  0  0
   19.0094  -13.9045  -17.8172 C   0  0  0  0  0  0  0  0  0  0  0  0
   17.8992  -14.7606  -18.3645 C   0  0  0  0  0  0  0  0  0  0  0  0
   16.8563  -13.9111  -19.0251 C   0  0  0  0  0  0  0  0  0  0  0  0
   17.0622  -13.2891  -20.0988 O   0  0  0  0  0  0  0  0  0  0  0  0
   20.7717  -12.2851  -18.3157 C   0  0  0  0  0  0  0  0  0  0  0  0
   21.8268  -12.3526  -17.6472 O   0  0  0  0  0  0  0  0  0  0  0  0
   15.5741  -13.7604  -18.4743 O   0  0  0  0  0  0  0  0  0  0  0  0
   20.3047  -10.9461  -18.5703 N   0  0  0  0  0  0  0  0  0  0  0  0
   21.1043   -9.7922  -18.2181 C   0  0  1  0  0  0  0  0  0  0  0  0
   21.1872   -8.8577  -19.3804 C   0  0  0  0  0  0  0  0  0  0  0  0
   22.0962   -9.3568  -20.4451 C   0  0  0  0  0  0  0  0  0  0  0  0
   23.4509   -9.2154  -20.6066 C   0  0  0  0  0  0  0  0  0  0  0  0
   23.8427   -9.8456  -21.7333 N   0  0  0  0  0  0  0  0  0  0  0  0
   22.7619  -10.3829  -22.2871 C   0  0  0  0  0  0  0  0  0  0  0  0
   21.7010  -10.0972  -21.5226 N   0  0  0  0  0  0  0  0  0  0  0  0
   20.5939   -9.2146  -16.9849 C   0  0  0  0  0  0  0  0  0  0  0  0
   19.3542   -9.0937  -16.8252 O   0  0  0  0  0  0  0  0  0  0  0  0
   22.7430   -9.3057  -13.3114 C   0  0  0  0  0  0  0  0  0  0  0  0
   21.2615   -9.3230  -13.5569 C   0  0  2  0  0  0  0  0  0  0  0  0
   20.7718  -10.7267  -13.8108 C   0  0  0  0  0  0  0  0  0  0  0  0
   20.8385   -8.3597  -14.6455 C   0  0  2  0  0  0  0  0  0  0  0  0
   21.4113   -8.7603  -15.9086 N   0  0  0  0  0  0  0  0  0  0  0  0
   21.2508   -6.9967  -14.2491 C   0  0  0  0  0  0  0  0  0  0  0  0
   20.6108   -6.2899  -13.2429 O   0  0  0  0  0  0  0  0  0  0  0  0
   22.2218   -6.4052  -14.8195 O   0  0  0  0  0  0  0  0  0  0  0  0
  2  1  1  1
  2  3  1  0
  4  5  1  0
  4  3  1  0
  5  6  2  0
  7  2  1  0
  7 10  1  0
  8  7  2  0
  9  5  1  0
 11 10  1  0
 12 13  1  0
 11 12  1  6
 13 17  1  0
 13 14  2  0
 14 15  1  0
 16 15  1  0
 17 16  2  0
 18 11  1  0
 19 18  2  0
 21 20  1  6
 21 23  1  0
 22 21  1  0
 23 24  1  6
 23 25  1  0
 24 18  1  0
 25 26  1  0
 27 25  2  0
M  END
$$$$
