WSE.pdb
     RDKit          3D

 30 31  0  0  1  0  0  0  0  0999 V2000
   25.5030  -21.2957  -17.1110 N   0  0  0  0  0  0  0  0  0  0  0  0
   25.2279  -22.2038  -16.0211 C   0  0  1  0  0  0  0  0  0  0  0  0
   26.3890  -22.4702  -15.1233 C   0  0  0  0  0  0  0  0  0  0  0  0
   27.4983  -23.0934  -15.8738 C   0  0  0  0  0  0  0  0  0  0  0  0
   28.5879  -22.4565  -16.4190 C   0  0  0  0  0  0  0  0  0  0  0  0
   29.3243  -23.3987  -17.0243 N   0  0  0  0  0  0  0  0  0  0  0  0
   28.7483  -24.6015  -16.8852 C   0  0  0  0  0  0  0  0  0  0  0  0
   29.1344  -25.8423  -17.3192 C   0  0  0  0  0  0  0  0  0  0  0  0
   28.3600  -26.9438  -17.0300 C   0  0  0  0  0  0  0  0  0  0  0  0
   27.2015  -26.7880  -16.3053 C   0  0  0  0  0  0  0  0  0  0  0  0
   26.8120  -25.5335  -15.8677 C   0  0  0  0  0  0  0  0  0  0  0  0
   27.5764  -24.4429  -16.1530 C   0  0  0  0  0  0  0  0  0  0  0  0
   24.1016  -21.6589  -15.2309 C   0  0  0  0  0  0  0  0  0  0  0  0
   23.7543  -22.2585  -14.1644 O   0  0  0  0  0  0  0  0  0  0  0  0
   22.1317  -18.1921  -16.4162 O   0  0  0  0  0  0  0  0  0  0  0  0
   22.0140  -18.6137  -15.1210 C   0  0  0  0  0  0  0  0  0  0  0  0
   22.2141  -20.1180  -14.9841 C   0  0  2  0  0  0  0  0  0  0  0  0
   23.4248  -20.4792  -15.6607 N   0  0  0  0  0  0  0  0  0  0  0  0
   21.0318  -20.8512  -15.4584 C   0  0  0  0  0  0  0  0  0  0  0  0
   21.1451  -21.6127  -16.4628 O   0  0  0  0  0  0  0  0  0  0  0  0
   19.7465  -20.7760  -14.8715 N   0  0  0  0  0  0  0  0  0  0  0  0
   18.5704  -21.4814  -15.3889 C   0  0  1  0  0  0  0  0  0  0  0  0
   18.8383  -22.9471  -15.1641 C   0  0  0  0  0  0  0  0  0  0  0  0
   18.6192  -23.3940  -13.7393 C   0  0  0  0  0  0  0  0  0  0  0  0
   19.6547  -24.3920  -13.3352 C   0  0  0  0  0  0  0  0  0  0  0  0
   20.4215  -24.1916  -12.3611 O   0  0  0  0  0  0  0  0  0  0  0  0
   17.3443  -20.9852  -14.7372 C   0  0  0  0  0  0  0  0  0  0  0  0
   17.4312  -20.0434  -13.8749 O   0  0  0  0  0  0  0  0  0  0  0  0
   19.7742  -25.5720  -14.0525 O   0  0  0  0  0  0  0  0  0  0  0  0
   16.0793  -21.4605  -14.9844 O   0  0  0  0  0  0  0  0  0  0  0  0
  2  1  1  6
  2 13  1  0
  3  2  1  0
  3  4  1  0
  4 12  1  0
  4  5  2  0
  5  6  1  0
  7  6  1  0
  7  8  2  0
  9  8  1  0
 10  9  2  0
 11 12  2  0
 11 10  1  0
 12  7  1  0
 13 14  2  0
 16 15  1  0
 17 16  1  6
 18 13  1  0
 18 17  1  0
 19 17  1  0
 19 20  2  0
 21 19  1  0
 22 21  1  0
 22 27  1  0
 22 23  1  1
 24 23  1  0
 24 25  1  0
 25 26  2  0
 25 29  1  0
 27 28  2  0
 27 30  1  0
M  END
$$$$
