WSE.pdb
     RDKit          3D

 30 31  0  0  1  0  0  0  0  0999 V2000
   27.2750  -23.4908  -13.8776 N   0  0  0  0  0  0  0  0  0  0  0  0
   27.2355  -22.4390  -12.8876 C   0  0  1  0  0  0  0  0  0  0  0  0
   28.0226  -21.2217  -13.2394 C   0  0  0  0  0  0  0  0  0  0  0  0
   29.4705  -21.5151  -13.2328 C   0  0  0  0  0  0  0  0  0  0  0  0
   30.2885  -21.6640  -14.3277 C   0  0  0  0  0  0  0  0  0  0  0  0
   31.5137  -21.9419  -13.8606 N   0  0  0  0  0  0  0  0  0  0  0  0
   31.5054  -21.9745  -12.5202 C   0  0  0  0  0  0  0  0  0  0  0  0
   32.5095  -22.2051  -11.6171 C   0  0  0  0  0  0  0  0  0  0  0  0
   32.2413  -22.1702  -10.2667 C   0  0  0  0  0  0  0  0  0  0  0  0
   30.9632  -21.9030   -9.8350 C   0  0  0  0  0  0  0  0  0  0  0  0
   29.9491  -21.6707  -10.7486 C   0  0  0  0  0  0  0  0  0  0  0  0
   30.2122  -21.7052  -12.0845 C   0  0  0  0  0  0  0  0  0  0  0  0
   25.8219  -22.0683  -12.6546 C   0  0  0  0  0  0  0  0  0  0  0  0
   24.9398  -22.4662  -13.4799 O   0  0  0  0  0  0  0  0  0  0  0  0
   24.4743  -19.2942   -9.7414 O   0  0  0  0  0  0  0  0  0  0  0  0
   23.9320  -20.5465   -9.8228 C   0  0  0  0  0  0  0  0  0  0  0  0
   24.0672  -21.1436  -11.2181 C   0  0  2  0  0  0  0  0  0  0  0  0
   25.4613  -21.2825  -11.5202 N   0  0  0  0  0  0  0  0  0  0  0  0
   23.3260  -20.3461  -12.2055 C   0  0  0  0  0  0  0  0  0  0  0  0
   23.8612  -19.2993  -12.6740 O   0  0  0  0  0  0  0  0  0  0  0  0
   22.0333  -20.6584  -12.6887 N   0  0  0  0  0  0  0  0  0  0  0  0
   21.2628  -19.7872  -13.5807 C   0  0  1  0  0  0  0  0  0  0  0  0
   20.0667  -20.5955  -14.0126 C   0  0  0  0  0  0  0  0  0  0  0  0
   19.1012  -19.8336  -14.8872 C   0  0  0  0  0  0  0  0  0  0  0  0
   17.9384  -20.6934  -15.2615 C   0  0  0  0  0  0  0  0  0  0  0  0
   17.9034  -21.3220  -16.3480 O   0  0  0  0  0  0  0  0  0  0  0  0
   20.9234  -18.5240  -12.8999 C   0  0  0  0  0  0  0  0  0  0  0  0
   20.6588  -17.4866  -13.6012 O   0  0  0  0  0  0  0  0  0  0  0  0
   16.8681  -20.8025  -14.3875 O   0  0  0  0  0  0  0  0  0  0  0  0
   20.8639  -18.3608  -11.5372 O   0  0  0  0  0  0  0  0  0  0  0  0
  2  1  1  6
  2 13  1  0
  3  2  1  0
  3  4  1  0
  4 12  1  0
  4  5  2  0
  5  6  1  0
  7  6  1  0
  7  8  2  0
  9  8  1  0
 10  9  2  0
 11 12  2  0
 11 10  1  0
 12  7  1  0
 13 14  2  0
 16 15  1  0
 17 16  1  1
 18 13  1  0
 18 17  1  0
 19 17  1  0
 19 20  2  0
 21 19  1  0
 22 21  1  0
 22 27  1  0
 22 23  1  1
 24 23  1  0
 24 25  1  0
 25 26  2  0
 25 29  1  0
 27 28  2  0
 27 30  1  0
M  END
$$$$
