WSE.pdb
     RDKit          3D

 30 31  0  0  1  0  0  0  0  0999 V2000
   24.7844  -19.3725   -8.9206 N   0  0  0  0  0  0  0  0  0  0  0  0
   26.0217  -19.9382   -9.4077 C   0  0  1  0  0  0  0  0  0  0  0  0
   26.3961  -21.2436   -8.7907 C   0  0  0  0  0  0  0  0  0  0  0  0
   26.4933  -21.1192   -7.3219 C   0  0  0  0  0  0  0  0  0  0  0  0
   25.6136  -21.6173   -6.3902 C   0  0  0  0  0  0  0  0  0  0  0  0
   26.0776  -21.2538   -5.1864 N   0  0  0  0  0  0  0  0  0  0  0  0
   27.2107  -20.5490   -5.3169 C   0  0  0  0  0  0  0  0  0  0  0  0
   28.0361  -19.9862   -4.3794 C   0  0  0  0  0  0  0  0  0  0  0  0
   29.1687  -19.3108   -4.7769 C   0  0  0  0  0  0  0  0  0  0  0  0
   29.4623  -19.2071   -6.1165 C   0  0  0  0  0  0  0  0  0  0  0  0
   28.6271  -19.7758   -7.0631 C   0  0  0  0  0  0  0  0  0  0  0  0
   27.5064  -20.4437   -6.6719 C   0  0  0  0  0  0  0  0  0  0  0  0
   25.9201  -20.0918  -10.8760 C   0  0  0  0  0  0  0  0  0  0  0  0
   24.7799  -19.9744  -11.4272 O   0  0  0  0  0  0  0  0  0  0  0  0
   28.8950  -21.7148  -13.3700 O   0  0  0  0  0  0  0  0  0  0  0  0
   28.3437  -20.5060  -13.6925 C   0  0  0  0  0  0  0  0  0  0  0  0
   26.9602  -20.3221  -13.0812 C   0  0  2  0  0  0  0  0  0  0  0  0
   27.0846  -20.3621  -11.6540 N   0  0  0  0  0  0  0  0  0  0  0  0
   26.0124  -21.3084  -13.6188 C   0  0  0  0  0  0  0  0  0  0  0  0
   25.8861  -22.4214  -13.0297 O   0  0  0  0  0  0  0  0  0  0  0  0
   25.2090  -21.1131  -14.7671 N   0  0  0  0  0  0  0  0  0  0  0  0
   23.8897  -21.7238  -14.9538 C   0  0  1  0  0  0  0  0  0  0  0  0
   23.0684  -21.3002  -13.7635 C   0  0  0  0  0  0  0  0  0  0  0  0
   21.6433  -21.7955  -13.8004 C   0  0  0  0  0  0  0  0  0  0  0  0
   20.8863  -21.3109  -12.6073 C   0  0  0  0  0  0  0  0  0  0  0  0
   21.4057  -20.5402  -11.7628 O   0  0  0  0  0  0  0  0  0  0  0  0
   23.3177  -21.3267  -16.2536 C   0  0  0  0  0  0  0  0  0  0  0  0
   23.5271  -20.1435  -16.6942 O   0  0  0  0  0  0  0  0  0  0  0  0
   19.5747  -21.7208  -12.4253 O   0  0  0  0  0  0  0  0  0  0  0  0
   22.5579  -22.1425  -17.0563 O   0  0  0  0  0  0  0  0  0  0  0  0
  2  1  1  1
  2 13  1  0
  3  2  1  0
  3  4  1  0
  4 12  1  0
  4  5  2  0
  5  6  1  0
  7  6  1  0
  7  8  2  0
  9  8  1  0
 10  9  2  0
 11 12  2  0
 11 10  1  0
 12  7  1  0
 13 14  2  0
 16 15  1  0
 17 16  1  6
 18 13  1  0
 18 17  1  0
 19 17  1  0
 19 20  2  0
 21 19  1  0
 22 21  1  0
 22 27  1  0
 22 23  1  1
 24 23  1  0
 24 25  1  0
 25 26  2  0
 25 29  1  0
 27 28  2  0
 27 30  1  0
M  END
$$$$
