WSE.pdb
     RDKit          3D

 30 31  0  0  1  0  0  0  0  0999 V2000
   26.5635  -22.2284  -12.1099 N   0  0  0  0  0  0  0  0  0  0  0  0
   25.8343  -21.3281  -11.2463 C   0  0  1  0  0  0  0  0  0  0  0  0
   26.5230  -20.0340  -10.9704 C   0  0  0  0  0  0  0  0  0  0  0  0
   27.7952  -20.2608  -10.2545 C   0  0  0  0  0  0  0  0  0  0  0  0
   29.0331  -20.4700  -10.8151 C   0  0  0  0  0  0  0  0  0  0  0  0
   29.8914  -20.6503   -9.8016 N   0  0  0  0  0  0  0  0  0  0  0  0
   29.2507  -20.5640   -8.6269 C   0  0  0  0  0  0  0  0  0  0  0  0
   29.7084  -20.6683   -7.3398 C   0  0  0  0  0  0  0  0  0  0  0  0
   28.8342  -20.5254   -6.2853 C   0  0  0  0  0  0  0  0  0  0  0  0
   27.5044  -20.2782   -6.5344 C   0  0  0  0  0  0  0  0  0  0  0  0
   27.0430  -20.1735   -7.8356 C   0  0  0  0  0  0  0  0  0  0  0  0
   27.9059  -20.3148   -8.8798 C   0  0  0  0  0  0  0  0  0  0  0  0
   24.5096  -21.0683  -11.8526 C   0  0  0  0  0  0  0  0  0  0  0  0
   24.4384  -20.8641  -13.1060 O   0  0  0  0  0  0  0  0  0  0  0  0
   20.9099  -20.2706   -9.7228 O   0  0  0  0  0  0  0  0  0  0  0  0
   20.9729  -21.2507  -10.6738 C   0  0  0  0  0  0  0  0  0  0  0  0
   22.0666  -20.9870  -11.7015 C   0  0  2  0  0  0  0  0  0  0  0  0
   23.3368  -21.0531  -11.0410 N   0  0  0  0  0  0  0  0  0  0  0  0
   21.8324  -19.7179  -12.4049 C   0  0  0  0  0  0  0  0  0  0  0  0
   22.1749  -18.6353  -11.8460 O   0  0  0  0  0  0  0  0  0  0  0  0
   21.2426  -19.6021  -13.6858 N   0  0  0  0  0  0  0  0  0  0  0  0
   20.9841  -18.3226  -14.3527 C   0  0  1  0  0  0  0  0  0  0  0  0
   21.4133  -18.5114  -15.7848 C   0  0  0  0  0  0  0  0  0  0  0  0
   22.8810  -18.8248  -15.9438 C   0  0  0  0  0  0  0  0  0  0  0  0
   23.2261  -19.0140  -17.3848 C   0  0  0  0  0  0  0  0  0  0  0  0
   22.3620  -18.9129  -18.2904 O   0  0  0  0  0  0  0  0  0  0  0  0
   19.5706  -17.9347  -14.1925 C   0  0  0  0  0  0  0  0  0  0  0  0
   19.2309  -16.7153  -14.3820 O   0  0  0  0  0  0  0  0  0  0  0  0
   24.5346  -19.3086  -17.7346 O   0  0  0  0  0  0  0  0  0  0  0  0
   18.5569  -18.7956  -13.8485 O   0  0  0  0  0  0  0  0  0  0  0  0
  2  1  1  6
  2 13  1  0
  3  2  1  0
  3  4  1  0
  4 12  1  0
  4  5  2  0
  5  6  1  0
  7  6  1  0
  7  8  2  0
  9  8  1  0
 10  9  2  0
 11 12  2  0
 11 10  1  0
 12  7  1  0
 13 14  2  0
 16 15  1  0
 17 16  1  1
 18 13  1  0
 18 17  1  0
 19 17  1  0
 19 20  2  0
 21 19  1  0
 22 21  1  0
 22 27  1  0
 22 23  1  6
 24 23  1  0
 24 25  1  0
 25 26  2  0
 25 29  1  0
 27 28  2  0
 27 30  1  0
M  END
$$$$
