WSE.pdb
     RDKit          3D

 30 31  0  0  1  0  0  0  0  0999 V2000
   22.4895  -20.7407  -14.4428 N   0  0  0  0  0  0  0  0  0  0  0  0
   21.8040  -20.0632  -13.3662 C   0  0  1  0  0  0  0  0  0  0  0  0
   20.4586  -19.5270  -13.7234 C   0  0  0  0  0  0  0  0  0  0  0  0
   20.5583  -18.5662  -14.8412 C   0  0  0  0  0  0  0  0  0  0  0  0
   21.2420  -17.3734  -14.8472 C   0  0  0  0  0  0  0  0  0  0  0  0
   21.0449  -16.8204  -16.0522 N   0  0  0  0  0  0  0  0  0  0  0  0
   20.2679  -17.6110  -16.8066 C   0  0  0  0  0  0  0  0  0  0  0  0
   19.8134  -17.4685  -18.0911 C   0  0  0  0  0  0  0  0  0  0  0  0
   19.0242  -18.4469  -18.6539 C   0  0  0  0  0  0  0  0  0  0  0  0
   18.6981  -19.5625  -17.9187 C   0  0  0  0  0  0  0  0  0  0  0  0
   19.1576  -19.7051  -16.6204 C   0  0  0  0  0  0  0  0  0  0  0  0
   19.9379  -18.7385  -16.0620 C   0  0  0  0  0  0  0  0  0  0  0  0
   21.6809  -20.9996  -12.2270 C   0  0  0  0  0  0  0  0  0  0  0  0
   21.0751  -22.1039  -12.4039 O   0  0  0  0  0  0  0  0  0  0  0  0
   22.7815  -20.0266   -8.2374 O   0  0  0  0  0  0  0  0  0  0  0  0
   23.0847  -21.2415   -8.7862 C   0  0  0  0  0  0  0  0  0  0  0  0
   22.1203  -21.6273   -9.9010 C   0  0  2  0  0  0  0  0  0  0  0  0
   22.2380  -20.6657  -10.9571 N   0  0  0  0  0  0  0  0  0  0  0  0
   20.7517  -21.7730   -9.3853 C   0  0  0  0  0  0  0  0  0  0  0  0
   19.9500  -20.7995   -9.4914 O   0  0  0  0  0  0  0  0  0  0  0  0
   20.2425  -22.9388   -8.7659 N   0  0  0  0  0  0  0  0  0  0  0  0
   18.8991  -23.0355   -8.1876 C   0  0  1  0  0  0  0  0  0  0  0  0
   18.1745  -24.0756   -9.0025 C   0  0  0  0  0  0  0  0  0  0  0  0
   16.7555  -24.3217   -8.5516 C   0  0  0  0  0  0  0  0  0  0  0  0
   16.1197  -25.3938   -9.3748 C   0  0  0  0  0  0  0  0  0  0  0  0
   16.7550  -26.0054  -10.2688 O   0  0  0  0  0  0  0  0  0  0  0  0
   18.9792  -23.3450   -6.7481 C   0  0  0  0  0  0  0  0  0  0  0  0
   20.0801  -23.7803   -6.2619 O   0  0  0  0  0  0  0  0  0  0  0  0
   14.7931  -25.7250   -9.1474 O   0  0  0  0  0  0  0  0  0  0  0  0
   17.9430  -23.2006   -5.8577 O   0  0  0  0  0  0  0  0  0  0  0  0
  2  1  1  6
  2 13  1  0
  3  2  1  0
  3  4  1  0
  4 12  1  0
  4  5  2  0
  5  6  1  0
  7  6  1  0
  7  8  2  0
  9  8  1  0
 10  9  2  0
 11 12  2  0
 11 10  1  0
 12  7  1  0
 13 14  2  0
 16 15  1  0
 17 16  1  1
 18 13  1  0
 18 17  1  0
 19 17  1  0
 19 20  2  0
 21 19  1  0
 22 21  1  0
 22 27  1  0
 22 23  1  6
 24 23  1  0
 24 25  1  0
 25 26  2  0
 25 29  1  0
 27 28  2  0
 27 30  1  0
M  END
$$$$
