WSE.pdb
     RDKit          3D

 30 31  0  0  1  0  0  0  0  0999 V2000
   23.6153  -10.7871  -16.8312 N   0  0  0  0  0  0  0  0  0  0  0  0
   23.8167   -9.8695  -15.7333 C   0  0  1  0  0  0  0  0  0  0  0  0
   25.2023   -9.3291  -15.6184 C   0  0  0  0  0  0  0  0  0  0  0  0
   26.1975  -10.4168  -15.7127 C   0  0  0  0  0  0  0  0  0  0  0  0
   26.1046  -11.6722  -15.1599 C   0  0  0  0  0  0  0  0  0  0  0  0
   27.2350  -12.3191  -15.4764 N   0  0  0  0  0  0  0  0  0  0  0  0
   28.0366  -11.5283  -16.2043 C   0  0  0  0  0  0  0  0  0  0  0  0
   29.2703  -11.7561  -16.7547 C   0  0  0  0  0  0  0  0  0  0  0  0
   29.8914  -10.7665  -17.4839 C   0  0  0  0  0  0  0  0  0  0  0  0
   29.2652   -9.5538  -17.6539 C   0  0  0  0  0  0  0  0  0  0  0  0
   28.0186   -9.3247  -17.0966 C   0  0  0  0  0  0  0  0  0  0  0  0
   27.4030  -10.3019  -16.3749 C   0  0  0  0  0  0  0  0  0  0  0  0
   22.8562   -8.7526  -15.8745 C   0  0  0  0  0  0  0  0  0  0  0  0
   22.5026   -8.3921  -17.0418 O   0  0  0  0  0  0  0  0  0  0  0  0
   19.2119   -6.4101  -14.0290 O   0  0  0  0  0  0  0  0  0  0  0  0
   20.2789   -7.2409  -13.8286 C   0  0  0  0  0  0  0  0  0  0  0  0
   21.3397   -7.0881  -14.9118 C   0  0  2  0  0  0  0  0  0  0  0  0
   22.3365   -8.0994  -14.7180 N   0  0  0  0  0  0  0  0  0  0  0  0
   21.8808   -5.7217  -14.9289 C   0  0  0  0  0  0  0  0  0  0  0  0
   22.8076   -5.4194  -14.1218 O   0  0  0  0  0  0  0  0  0  0  0  0
   21.4425   -4.6908  -15.7934 N   0  0  0  0  0  0  0  0  0  0  0  0
   22.0474   -3.3567  -15.8453 C   0  0  1  0  0  0  0  0  0  0  0  0
   22.3404   -3.0945  -17.2999 C   0  0  0  0  0  0  0  0  0  0  0  0
   23.0521   -1.7875  -17.5512 C   0  0  0  0  0  0  0  0  0  0  0  0
   23.2651   -1.5766  -19.0145 C   0  0  0  0  0  0  0  0  0  0  0  0
   22.8662   -2.4075  -19.8674 O   0  0  0  0  0  0  0  0  0  0  0  0
   21.1557   -2.3623  -15.2206 C   0  0  0  0  0  0  0  0  0  0  0  0
   21.6534   -1.2760  -14.7620 O   0  0  0  0  0  0  0  0  0  0  0  0
   23.9201   -0.4335  -19.4456 O   0  0  0  0  0  0  0  0  0  0  0  0
   19.7961   -2.5056  -15.0859 O   0  0  0  0  0  0  0  0  0  0  0  0
  2  1  1  6
  2 13  1  0
  3  2  1  0
  3  4  1  0
  4 12  1  0
  4  5  2  0
  5  6  1  0
  7  6  1  0
  7  8  2  0
  9  8  1  0
 10  9  2  0
 11 12  2  0
 11 10  1  0
 12  7  1  0
 13 14  2  0
 16 15  1  0
 17 16  1  1
 18 13  1  0
 18 17  1  0
 19 17  1  0
 19 20  2  0
 21 19  1  0
 22 21  1  0
 22 27  1  0
 22 23  1  6
 24 23  1  0
 24 25  1  0
 25 26  2  0
 25 29  1  0
 27 28  2  0
 27 30  1  0
M  END
$$$$
