WSE.pdb
     RDKit          3D

 30 31  0  0  1  0  0  0  0  0999 V2000
   24.7068  -19.1412  -11.4360 N   0  0  0  0  0  0  0  0  0  0  0  0
   25.8956  -19.9242  -11.6848 C   0  0  1  0  0  0  0  0  0  0  0  0
   26.0534  -21.1161  -10.8019 C   0  0  0  0  0  0  0  0  0  0  0  0
   26.2299  -20.7045   -9.3941 C   0  0  0  0  0  0  0  0  0  0  0  0
   25.2444  -20.3217   -8.5152 C   0  0  0  0  0  0  0  0  0  0  0  0
   25.8530  -20.0144   -7.3612 N   0  0  0  0  0  0  0  0  0  0  0  0
   27.1781  -20.1864   -7.4726 C   0  0  0  0  0  0  0  0  0  0  0  0
   28.1900  -20.0107   -6.5659 C   0  0  0  0  0  0  0  0  0  0  0  0
   29.4923  -20.2730   -6.9293 C   0  0  0  0  0  0  0  0  0  0  0  0
   29.7665  -20.7108   -8.2040 C   0  0  0  0  0  0  0  0  0  0  0  0
   28.7430  -20.8874   -9.1196 C   0  0  0  0  0  0  0  0  0  0  0  0
   27.4545  -20.6283   -8.7622 C   0  0  0  0  0  0  0  0  0  0  0  0
   25.8868  -20.3511  -13.1017 C   0  0  0  0  0  0  0  0  0  0  0  0
   24.7713  -20.4560  -13.7035 O   0  0  0  0  0  0  0  0  0  0  0  0
   29.1627  -22.0664  -15.1984 O   0  0  0  0  0  0  0  0  0  0  0  0
   28.4758  -21.0037  -15.7160 C   0  0  0  0  0  0  0  0  0  0  0  0
   27.0522  -20.9208  -15.1789 C   0  0  2  0  0  0  0  0  0  0  0  0
   27.1114  -20.6340  -13.7760 N   0  0  0  0  0  0  0  0  0  0  0  0
   26.2969  -22.1399  -15.5007 C   0  0  0  0  0  0  0  0  0  0  0  0
   26.3924  -23.1408  -14.7321 O   0  0  0  0  0  0  0  0  0  0  0  0
   25.4508  -22.2920  -16.6246 N   0  0  0  0  0  0  0  0  0  0  0  0
   24.4889  -23.3870  -16.7798 C   0  0  1  0  0  0  0  0  0  0  0  0
   23.5957  -23.3245  -15.5678 C   0  0  0  0  0  0  0  0  0  0  0  0
   22.2399  -22.7209  -15.8417 C   0  0  0  0  0  0  0  0  0  0  0  0
   21.3945  -22.7442  -14.6104 C   0  0  0  0  0  0  0  0  0  0  0  0
   21.4215  -21.8098  -13.7719 O   0  0  0  0  0  0  0  0  0  0  0  0
   23.7734  -23.2658  -18.0634 C   0  0  0  0  0  0  0  0  0  0  0  0
   23.6630  -22.1147  -18.6121 O   0  0  0  0  0  0  0  0  0  0  0  0
   20.5562  -23.8249  -14.3851 O   0  0  0  0  0  0  0  0  0  0  0  0
   23.1992  -24.3136  -18.7414 O   0  0  0  0  0  0  0  0  0  0  0  0
  2  1  1  1
  2 13  1  0
  3  2  1  0
  3  4  1  0
  4 12  1  0
  4  5  2  0
  5  6  1  0
  7  6  1  0
  7  8  2  0
  9  8  1  0
 10  9  2  0
 11 12  2  0
 11 10  1  0
 12  7  1  0
 13 14  2  0
 16 15  1  0
 17 16  1  1
 18 13  1  0
 18 17  1  0
 19 17  1  0
 19 20  2  0
 21 19  1  0
 22 21  1  0
 22 27  1  0
 22 23  1  1
 24 23  1  0
 24 25  1  0
 25 26  2  0
 25 29  1  0
 27 28  2  0
 27 30  1  0
M  END
$$$$
