WSE.pdb
     RDKit          3D

 30 31  0  0  1  0  0  0  0  0999 V2000
   25.8327  -22.3008  -11.6306 N   0  0  0  0  0  0  0  0  0  0  0  0
   25.4452  -21.2074  -10.7689 C   0  0  1  0  0  0  0  0  0  0  0  0
   26.3968  -20.0587  -10.7528 C   0  0  0  0  0  0  0  0  0  0  0  0
   27.6683  -20.4419  -10.1058 C   0  0  0  0  0  0  0  0  0  0  0  0
   28.6886  -21.1782  -10.6600 C   0  0  0  0  0  0  0  0  0  0  0  0
   29.6322  -21.3036   -9.7163 N   0  0  0  0  0  0  0  0  0  0  0  0
   29.2531  -20.6794   -8.5919 C   0  0  0  0  0  0  0  0  0  0  0  0
   29.8847  -20.5317   -7.3852 C   0  0  0  0  0  0  0  0  0  0  0  0
   29.2782  -19.8202   -6.3739 C   0  0  0  0  0  0  0  0  0  0  0  0
   28.0391  -19.2620   -6.5852 C   0  0  0  0  0  0  0  0  0  0  0  0
   27.4015  -19.4124   -7.8050 C   0  0  0  0  0  0  0  0  0  0  0  0
   27.9996  -20.1160   -8.8062 C   0  0  0  0  0  0  0  0  0  0  0  0
   24.1042  -20.7379  -11.1828 C   0  0  0  0  0  0  0  0  0  0  0  0
   23.5476  -19.8082  -10.5169 O   0  0  0  0  0  0  0  0  0  0  0  0
   22.4970  -21.5361  -14.8204 O   0  0  0  0  0  0  0  0  0  0  0  0
   21.8603  -20.6635  -13.9824 C   0  0  0  0  0  0  0  0  0  0  0  0
   22.0685  -21.0178  -12.5151 C   0  0  2  0  0  0  0  0  0  0  0  0
   23.4550  -21.3187  -12.3122 N   0  0  0  0  0  0  0  0  0  0  0  0
   21.1632  -22.0993  -12.1017 C   0  0  0  0  0  0  0  0  0  0  0  0
   21.4305  -23.2875  -12.4461 O   0  0  0  0  0  0  0  0  0  0  0  0
   19.9899  -21.9195  -11.3316 N   0  0  0  0  0  0  0  0  0  0  0  0
   19.0234  -22.9864  -11.0553 C   0  0  1  0  0  0  0  0  0  0  0  0
   19.1431  -23.2780   -9.5818 C   0  0  0  0  0  0  0  0  0  0  0  0
   18.2574  -24.4056   -9.1109 C   0  0  0  0  0  0  0  0  0  0  0  0
   18.5085  -24.7058   -7.6693 C   0  0  0  0  0  0  0  0  0  0  0  0
   19.2970  -24.0153   -6.9777 O   0  0  0  0  0  0  0  0  0  0  0  0
   17.6718  -22.5800  -11.4821 C   0  0  0  0  0  0  0  0  0  0  0  0
   17.3561  -21.3398  -11.4637 O   0  0  0  0  0  0  0  0  0  0  0  0
   17.8543  -25.7743   -7.0763 O   0  0  0  0  0  0  0  0  0  0  0  0
   16.6938  -23.4439  -11.9117 O   0  0  0  0  0  0  0  0  0  0  0  0
  2  1  1  6
  2 13  1  0
  3  2  1  0
  3  4  1  0
  4 12  1  0
  4  5  2  0
  5  6  1  0
  7  6  1  0
  7  8  2  0
  9  8  1  0
 10  9  2  0
 11 12  2  0
 11 10  1  0
 12  7  1  0
 13 14  2  0
 16 15  1  0
 17 16  1  6
 18 13  1  0
 18 17  1  0
 19 17  1  0
 19 20  2  0
 21 19  1  0
 22 21  1  0
 22 27  1  0
 22 23  1  1
 24 23  1  0
 24 25  1  0
 25 26  2  0
 25 29  1  0
 27 28  2  0
 27 30  1  0
M  END
$$$$
