WSE.pdb
     RDKit          3D

 30 31  0  0  1  0  0  0  0  0999 V2000
   25.9251  -22.0225   -8.1127 N   0  0  0  0  0  0  0  0  0  0  0  0
   25.8676  -20.8694   -8.9816 C   0  0  1  0  0  0  0  0  0  0  0  0
   27.1901  -20.2471   -9.2802 C   0  0  0  0  0  0  0  0  0  0  0  0
   28.1444  -20.4933   -8.1797 C   0  0  0  0  0  0  0  0  0  0  0  0
   29.0289  -21.5403   -8.0715 C   0  0  0  0  0  0  0  0  0  0  0  0
   29.6788  -21.3795   -6.9104 N   0  0  0  0  0  0  0  0  0  0  0  0
   29.2442  -20.2780   -6.2814 C   0  0  0  0  0  0  0  0  0  0  0  0
   29.6162  -19.7135   -5.0898 C   0  0  0  0  0  0  0  0  0  0  0  0
   29.0153  -18.5503   -4.6625 C   0  0  0  0  0  0  0  0  0  0  0  0
   28.0435  -17.9632   -5.4388 C   0  0  0  0  0  0  0  0  0  0  0  0
   27.6681  -18.5350   -6.6426 C   0  0  0  0  0  0  0  0  0  0  0  0
   28.2610  -19.6855   -7.0667 C   0  0  0  0  0  0  0  0  0  0  0  0
   25.2076  -21.2676  -10.2449 C   0  0  0  0  0  0  0  0  0  0  0  0
   25.2428  -22.4894  -10.5962 O   0  0  0  0  0  0  0  0  0  0  0  0
   21.8091  -21.1837  -10.8628 O   0  0  0  0  0  0  0  0  0  0  0  0
   22.7486  -21.7640  -11.6688 C   0  0  0  0  0  0  0  0  0  0  0  0
   23.7794  -20.7592  -12.1682 C   0  0  2  0  0  0  0  0  0  0  0  0
   24.5416  -20.2943  -11.0471 N   0  0  0  0  0  0  0  0  0  0  0  0
   23.1357  -19.6810  -12.9321 C   0  0  0  0  0  0  0  0  0  0  0  0
   22.4846  -18.7927  -12.3088 O   0  0  0  0  0  0  0  0  0  0  0  0
   23.1848  -19.5492  -14.3400 N   0  0  0  0  0  0  0  0  0  0  0  0
   22.5826  -18.4343  -15.0769 C   0  0  1  0  0  0  0  0  0  0  0  0
   23.1616  -18.4995  -16.4666 C   0  0  0  0  0  0  0  0  0  0  0  0
   22.6875  -19.6873  -17.2680 C   0  0  0  0  0  0  0  0  0  0  0  0
   23.4523  -19.7993  -18.5462 C   0  0  0  0  0  0  0  0  0  0  0  0
   24.6130  -20.2774  -18.5826 O   0  0  0  0  0  0  0  0  0  0  0  0
   21.1114  -18.5219  -15.0315 C   0  0  0  0  0  0  0  0  0  0  0  0
   20.5599  -19.6360  -14.7268 O   0  0  0  0  0  0  0  0  0  0  0  0
   22.8673  -19.3652  -19.7255 O   0  0  0  0  0  0  0  0  0  0  0  0
   20.2567  -17.4791  -15.2948 O   0  0  0  0  0  0  0  0  0  0  0  0
  2  1  1  1
  2 13  1  0
  3  2  1  0
  3  4  1  0
  4 12  1  0
  4  5  2  0
  5  6  1  0
  7  6  1  0
  7  8  2  0
  9  8  1  0
 10  9  2  0
 11 12  2  0
 11 10  1  0
 12  7  1  0
 13 14  2  0
 16 15  1  0
 17 16  1  1
 18 13  1  0
 18 17  1  0
 19 17  1  0
 19 20  2  0
 21 19  1  0
 22 21  1  0
 22 27  1  0
 22 23  1  6
 24 23  1  0
 24 25  1  0
 25 26  2  0
 25 29  1  0
 27 28  2  0
 27 30  1  0
M  END
$$$$
