WSE.pdb
     RDKit          3D

 30 31  0  0  1  0  0  0  0  0999 V2000
   20.5879  -32.7647    1.8219 N   0  0  0  0  0  0  0  0  0  0  0  0
   21.9477  -32.2759    1.8270 C   0  0  1  0  0  0  0  0  0  0  0  0
   22.0901  -30.8251    1.5107 C   0  0  0  0  0  0  0  0  0  0  0  0
   22.2143  -30.6173    0.0534 C   0  0  0  0  0  0  0  0  0  0  0  0
   21.2457  -30.1434   -0.7994 C   0  0  0  0  0  0  0  0  0  0  0  0
   21.7811  -30.1374   -2.0282 N   0  0  0  0  0  0  0  0  0  0  0  0
   23.0440  -30.5859   -1.9887 C   0  0  0  0  0  0  0  0  0  0  0  0
   23.9761  -30.7453   -2.9801 C   0  0  0  0  0  0  0  0  0  0  0  0
   25.2316  -31.2212   -2.6735 C   0  0  0  0  0  0  0  0  0  0  0  0
   25.5398  -31.5335   -1.3700 C   0  0  0  0  0  0  0  0  0  0  0  0
   24.5967  -31.3725   -0.3691 C   0  0  0  0  0  0  0  0  0  0  0  0
   23.3545  -30.9023   -0.6704 C   0  0  0  0  0  0  0  0  0  0  0  0
   22.5413  -32.5575    3.1530 C   0  0  0  0  0  0  0  0  0  0  0  0
   21.7888  -32.5377    4.1782 O   0  0  0  0  0  0  0  0  0  0  0  0
   26.6918  -32.7561    3.7579 O   0  0  0  0  0  0  0  0  0  0  0  0
   25.8795  -33.6085    4.4526 C   0  0  0  0  0  0  0  0  0  0  0  0
   24.4598  -33.0714    4.5858 C   0  0  2  0  0  0  0  0  0  0  0  0
   23.9323  -32.8496    3.2718 N   0  0  0  0  0  0  0  0  0  0  0  0
   24.4272  -31.8786    5.4439 C   0  0  0  0  0  0  0  0  0  0  0  0
   24.2569  -30.7440    4.9099 O   0  0  0  0  0  0  0  0  0  0  0  0
   24.5729  -31.8927    6.8513 N   0  0  0  0  0  0  0  0  0  0  0  0
   24.6126  -30.6842    7.6799 C   0  0  1  0  0  0  0  0  0  0  0  0
   23.1936  -30.4458    8.1275 C   0  0  0  0  0  0  0  0  0  0  0  0
   23.0469  -29.3022    9.1012 C   0  0  0  0  0  0  0  0  0  0  0  0
   21.7364  -28.6115    8.9089 C   0  0  0  0  0  0  0  0  0  0  0  0
   20.8318  -29.0987    8.1869 O   0  0  0  0  0  0  0  0  0  0  0  0
   25.5743  -30.8493    8.7854 C   0  0  0  0  0  0  0  0  0  0  0  0
   25.7472  -29.8885    9.6131 O   0  0  0  0  0  0  0  0  0  0  0  0
   21.5098  -27.4003    9.5437 O   0  0  0  0  0  0  0  0  0  0  0  0
   26.3217  -31.9798    9.0105 O   0  0  0  0  0  0  0  0  0  0  0  0
  2  1  1  1
  2 13  1  0
  3  2  1  0
  3  4  1  0
  4 12  1  0
  4  5  2  0
  5  6  1  0
  7  6  1  0
  7  8  2  0
  9  8  1  0
 10  9  2  0
 11 12  2  0
 11 10  1  0
 12  7  1  0
 13 14  2  0
 16 15  1  0
 17 16  1  6
 18 13  1  0
 18 17  1  0
 19 17  1  0
 19 20  2  0
 21 19  1  0
 22 21  1  0
 22 27  1  0
 22 23  1  1
 24 23  1  0
 24 25  1  0
 25 26  2  0
 25 29  1  0
 27 28  2  0
 27 30  1  0
M  END
$$$$
