NGK.pdb
     RDKit          3D

 22 21  0  0  1  0  0  0  0  0999 V2000
    7.5906  -18.0808   15.1213 N   0  0  0  0  0  0  0  0  0  0  0  0
    8.2821  -17.1689   15.9799 C   0  0  0  0  0  0  0  0  0  0  0  0
    9.3653  -16.6782   15.6302 O   0  0  0  0  0  0  0  0  0  0  0  0
    7.6547  -16.8483   17.2760 C   0  0  0  0  0  0  0  0  0  0  0  0
    8.6382  -16.9191   18.4157 C   0  0  2  0  0  0  0  0  0  0  0  0
    9.0919  -18.2672   18.6224 N   0  0  0  0  0  0  0  0  0  0  0  0
    7.9935  -16.3175   19.5952 C   0  0  0  0  0  0  0  0  0  0  0  0
    7.7065  -15.0883   19.5589 O   0  0  0  0  0  0  0  0  0  0  0  0
    7.6587  -16.9996   20.7890 N   0  0  0  0  0  0  0  0  0  0  0  0
    7.0878  -16.3155   21.9339 C   0  0  0  0  0  0  0  0  0  0  0  0
    8.1445  -15.9522   22.9187 C   0  0  0  0  0  0  0  0  0  0  0  0
    9.3440  -16.2593   22.6946 O   0  0  0  0  0  0  0  0  0  0  0  0
    7.7950  -15.2638   24.1010 N   0  0  0  0  0  0  0  0  0  0  0  0
    8.7300  -14.8592   25.1300 C   0  0  1  0  0  0  0  0  0  0  0  0
    8.0173  -14.0872   26.1709 C   0  0  0  0  0  0  0  0  0  0  0  0
    7.3530  -12.8288   25.7403 C   0  0  0  0  0  0  0  0  0  0  0  0
    6.6102  -12.0782   26.7879 C   0  0  0  0  0  0  0  0  0  0  0  0
    5.8901  -10.8538   26.3302 C   0  0  0  0  0  0  0  0  0  0  0  0
    5.1515  -10.1853   27.3483 N   0  0  0  0  0  0  0  0  0  0  0  0
    9.5547  -15.9926   25.6289 C   0  0  0  0  0  0  0  0  0  0  0  0
   10.8252  -15.8708   26.1193 O   0  0  0  0  0  0  0  0  0  0  0  0
    9.0582  -17.1458   25.6011 O   0  0  0  0  0  0  0  0  0  0  0  0
  1  2  1  0
  2  3  2  0
  4  2  1  0
  5  4  1  0
  5  6  1  1
  7  5  1  0
  7  8  2  0
  9  7  1  0
 10  9  1  0
 10 11  1  0
 11 13  1  0
 12 11  2  0
 13 14  1  0
 14 15  1  1
 15 16  1  0
 16 17  1  0
 17 18  1  0
 18 19  1  0
 20 14  1  0
 20 21  1  0
 22 20  2  0
M  END
$$$$
