NGK.pdb
     RDKit          3D

 22 21  0  0  1  0  0  0  0  0999 V2000
    7.6790  -11.9002   19.7841 N   0  0  0  0  0  0  0  0  0  0  0  0
    8.1004  -13.2567   19.6130 C   0  0  0  0  0  0  0  0  0  0  0  0
    9.2639  -13.5898   19.8811 O   0  0  0  0  0  0  0  0  0  0  0  0
    7.1016  -14.2198   19.1120 C   0  0  0  0  0  0  0  0  0  0  0  0
    6.7217  -15.2382   20.1558 C   0  0  2  0  0  0  0  0  0  0  0  0
    6.3836  -14.6011   21.3990 N   0  0  0  0  0  0  0  0  0  0  0  0
    7.8310  -16.2013   20.2595 C   0  0  0  0  0  0  0  0  0  0  0  0
    8.1835  -16.8229   19.2184 O   0  0  0  0  0  0  0  0  0  0  0  0
    8.5534  -16.5023   21.4385 N   0  0  0  0  0  0  0  0  0  0  0  0
    9.6907  -17.4032   21.4373 C   0  0  0  0  0  0  0  0  0  0  0  0
   10.8964  -16.7396   22.0065 C   0  0  0  0  0  0  0  0  0  0  0  0
   11.3926  -15.7371   21.4301 O   0  0  0  0  0  0  0  0  0  0  0  0
   11.4782  -17.2389   23.1923 N   0  0  0  0  0  0  0  0  0  0  0  0
   12.6621  -16.6962   23.8253 C   0  0  1  0  0  0  0  0  0  0  0  0
   12.8400  -17.3158   25.1564 C   0  0  0  0  0  0  0  0  0  0  0  0
   11.6304  -17.4322   26.0128 C   0  0  0  0  0  0  0  0  0  0  0  0
   11.7855  -18.1943   27.2809 C   0  0  0  0  0  0  0  0  0  0  0  0
   10.5717  -18.2827   28.1447 C   0  0  0  0  0  0  0  0  0  0  0  0
   10.7511  -19.0299   29.3440 N   0  0  0  0  0  0  0  0  0  0  0  0
   13.8547  -16.7397   22.9369 C   0  0  0  0  0  0  0  0  0  0  0  0
   14.9915  -16.0043   23.1276 O   0  0  0  0  0  0  0  0  0  0  0  0
   13.8247  -17.5016   21.9390 O   0  0  0  0  0  0  0  0  0  0  0  0
  1  2  1  0
  2  3  2  0
  4  2  1  0
  5  4  1  0
  5  6  1  1
  7  5  1  0
  7  8  2  0
  9  7  1  0
 10  9  1  0
 10 11  1  0
 11 13  1  0
 12 11  2  0
 13 14  1  0
 14 15  1  1
 15 16  1  0
 16 17  1  0
 17 18  1  0
 18 19  1  0
 20 14  1  0
 20 21  1  0
 22 20  2  0
M  END
$$$$
