NGK.pdb
     RDKit          3D

 22 21  0  0  1  0  0  0  0  0999 V2000
    7.9575  -12.3175   15.7862 N   0  0  0  0  0  0  0  0  0  0  0  0
    7.6702  -13.7035   15.9947 C   0  0  0  0  0  0  0  0  0  0  0  0
    7.5881  -14.4782   15.0305 O   0  0  0  0  0  0  0  0  0  0  0  0
    7.4804  -14.1557   17.3859 C   0  0  0  0  0  0  0  0  0  0  0  0
    8.7256  -14.7883   17.9521 C   0  0  2  0  0  0  0  0  0  0  0  0
    9.1204  -15.9329   17.1776 N   0  0  0  0  0  0  0  0  0  0  0  0
    8.4651  -15.0868   19.3705 C   0  0  0  0  0  0  0  0  0  0  0  0
    8.2737  -14.1204   20.1604 O   0  0  0  0  0  0  0  0  0  0  0  0
    8.4082  -16.3795   19.9436 N   0  0  0  0  0  0  0  0  0  0  0  0
    8.0829  -16.5895   21.3418 C   0  0  0  0  0  0  0  0  0  0  0  0
    9.2512  -16.2814   22.2126 C   0  0  0  0  0  0  0  0  0  0  0  0
   10.3973  -16.1625   21.7069 O   0  0  0  0  0  0  0  0  0  0  0  0
    9.0673  -16.1238   23.6037 N   0  0  0  0  0  0  0  0  0  0  0  0
   10.1351  -15.9341   24.5632 C   0  0  1  0  0  0  0  0  0  0  0  0
    9.5699  -15.4641   25.8466 C   0  0  0  0  0  0  0  0  0  0  0  0
   10.5212  -15.2763   26.9735 C   0  0  0  0  0  0  0  0  0  0  0  0
    9.9312  -14.8890   28.2829 C   0  0  0  0  0  0  0  0  0  0  0  0
   10.9005  -14.6378   29.3896 C   0  0  0  0  0  0  0  0  0  0  0  0
   10.3016  -14.2922   30.6348 N   0  0  0  0  0  0  0  0  0  0  0  0
   11.0342  -17.1158   24.6570 C   0  0  0  0  0  0  0  0  0  0  0  0
   12.3932  -17.0480   24.7910 O   0  0  0  0  0  0  0  0  0  0  0  0
   10.5185  -18.2599   24.6099 O   0  0  0  0  0  0  0  0  0  0  0  0
  1  2  1  0
  2  3  2  0
  4  2  1  0
  5  4  1  0
  5  6  1  6
  7  5  1  0
  7  8  2  0
  9  7  1  0
 10  9  1  0
 10 11  1  0
 11 13  1  0
 12 11  2  0
 13 14  1  0
 14 15  1  1
 15 16  1  0
 16 17  1  0
 17 18  1  0
 18 19  1  0
 20 14  1  0
 20 21  1  0
 22 20  2  0
M  END
$$$$
