NGK.pdb
     RDKit          3D

 22 21  0  0  1  0  0  0  0  0999 V2000
    6.8808  -11.9735   17.8657 N   0  0  0  0  0  0  0  0  0  0  0  0
    7.5273  -13.2295   18.0923 C   0  0  0  0  0  0  0  0  0  0  0  0
    7.8813  -13.9335   17.1354 O   0  0  0  0  0  0  0  0  0  0  0  0
    7.7474  -13.6369   19.4929 C   0  0  0  0  0  0  0  0  0  0  0  0
    8.5961  -14.8779   19.5964 C   0  0  2  0  0  0  0  0  0  0  0  0
    8.0929  -15.9195   18.7433 N   0  0  0  0  0  0  0  0  0  0  0  0
    8.6639  -15.2508   21.0195 C   0  0  0  0  0  0  0  0  0  0  0  0
    9.3504  -14.5289   21.7955 O   0  0  0  0  0  0  0  0  0  0  0  0
    8.0201  -16.3634   21.6115 N   0  0  0  0  0  0  0  0  0  0  0  0
    8.7634  -17.4502   22.2207 C   0  0  0  0  0  0  0  0  0  0  0  0
    9.7515  -16.9322   23.2075 C   0  0  0  0  0  0  0  0  0  0  0  0
   10.8157  -16.3934   22.8068 O   0  0  0  0  0  0  0  0  0  0  0  0
    9.4893  -17.0483   24.5901 N   0  0  0  0  0  0  0  0  0  0  0  0
   10.4682  -16.8460   25.6377 C   0  0  1  0  0  0  0  0  0  0  0  0
    9.8974  -15.9740   26.6871 C   0  0  0  0  0  0  0  0  0  0  0  0
   10.7547  -15.6912   27.8684 C   0  0  0  0  0  0  0  0  0  0  0  0
   10.1316  -14.9078   28.9686 C   0  0  0  0  0  0  0  0  0  0  0  0
   11.0175  -14.5834   30.1250 C   0  0  0  0  0  0  0  0  0  0  0  0
   10.4162  -13.7597   31.1194 N   0  0  0  0  0  0  0  0  0  0  0  0
   11.0586  -18.1232   26.1211 C   0  0  0  0  0  0  0  0  0  0  0  0
   12.3507  -18.2700   26.5434 O   0  0  0  0  0  0  0  0  0  0  0  0
   10.3271  -19.1438   26.1462 O   0  0  0  0  0  0  0  0  0  0  0  0
  1  2  1  0
  2  3  2  0
  4  2  1  0
  5  4  1  0
  5  6  1  6
  7  5  1  0
  7  8  2  0
  9  7  1  0
 10  9  1  0
 10 11  1  0
 11 13  1  0
 12 11  2  0
 13 14  1  0
 14 15  1  1
 15 16  1  0
 16 17  1  0
 17 18  1  0
 18 19  1  0
 20 14  1  0
 20 21  1  0
 22 20  2  0
M  END
$$$$
