NGK.pdb
     RDKit          3D

 22 21  0  0  1  0  0  0  0  0999 V2000
    9.5878  -21.0518   15.9681 N   0  0  0  0  0  0  0  0  0  0  0  0
   10.2354  -20.6583   17.1817 C   0  0  0  0  0  0  0  0  0  0  0  0
   11.3875  -21.0423   17.4299 O   0  0  0  0  0  0  0  0  0  0  0  0
    9.4791  -19.7906   18.1043 C   0  0  0  0  0  0  0  0  0  0  0  0
   10.0731  -18.4088   18.1992 C   0  0  2  0  0  0  0  0  0  0  0  0
   11.3559  -18.4423   18.8466 N   0  0  0  0  0  0  0  0  0  0  0  0
    9.0859  -17.5475   18.8718 C   0  0  0  0  0  0  0  0  0  0  0  0
    7.9209  -17.4820   18.3891 O   0  0  0  0  0  0  0  0  0  0  0  0
    9.3238  -16.7707   20.0306 N   0  0  0  0  0  0  0  0  0  0  0  0
    8.2605  -16.4119   20.9501 C   0  0  0  0  0  0  0  0  0  0  0  0
    8.7782  -15.5599   22.0566 C   0  0  0  0  0  0  0  0  0  0  0  0
    9.9938  -15.6166   22.3768 O   0  0  0  0  0  0  0  0  0  0  0  0
    7.9014  -14.6911   22.7424 N   0  0  0  0  0  0  0  0  0  0  0  0
    8.0742  -14.2526   24.1116 C   0  0  1  0  0  0  0  0  0  0  0  0
    6.8139  -13.6547   24.6028 C   0  0  0  0  0  0  0  0  0  0  0  0
    6.8094  -13.1442   25.9991 C   0  0  0  0  0  0  0  0  0  0  0  0
    6.1146  -11.8495   26.2305 C   0  0  0  0  0  0  0  0  0  0  0  0
    6.0890  -11.3627   27.6410 C   0  0  0  0  0  0  0  0  0  0  0  0
    5.5379  -10.0600   27.8084 N   0  0  0  0  0  0  0  0  0  0  0  0
    8.6594  -15.3099   24.9795 C   0  0  0  0  0  0  0  0  0  0  0  0
    8.3701  -16.6426   24.8811 O   0  0  0  0  0  0  0  0  0  0  0  0
    9.4767  -14.9641   25.8681 O   0  0  0  0  0  0  0  0  0  0  0  0
  1  2  1  0
  2  3  2  0
  4  2  1  0
  5  4  1  0
  5  6  1  1
  7  5  1  0
  7  8  2  0
  9  7  1  0
 10  9  1  0
 10 11  1  0
 11 13  1  0
 12 11  2  0
 13 14  1  0
 14 15  1  1
 15 16  1  0
 16 17  1  0
 17 18  1  0
 18 19  1  0
 20 14  1  0
 20 21  1  0
 22 20  2  0
M  END
$$$$
