NGK.pdb
     RDKit          3D

 22 21  0  0  1  0  0  0  0  0999 V2000
    7.0753  -20.4429   13.4346 N   0  0  0  0  0  0  0  0  0  0  0  0
    7.9840  -19.5076   14.0233 C   0  0  0  0  0  0  0  0  0  0  0  0
    8.5650  -18.6700   13.3180 O   0  0  0  0  0  0  0  0  0  0  0  0
    8.1909  -19.5879   15.4816 C   0  0  0  0  0  0  0  0  0  0  0  0
    7.8488  -18.2946   16.1755 C   0  0  2  0  0  0  0  0  0  0  0  0
    8.6778  -17.2202   15.7020 N   0  0  0  0  0  0  0  0  0  0  0  0
    7.9463  -18.5308   17.6259 C   0  0  0  0  0  0  0  0  0  0  0  0
    7.0317  -19.1965   18.1869 O   0  0  0  0  0  0  0  0  0  0  0  0
    8.9883  -18.0733   18.4671 N   0  0  0  0  0  0  0  0  0  0  0  0
    9.0324  -18.3901   19.8822 C   0  0  0  0  0  0  0  0  0  0  0  0
   10.2988  -17.9047   20.4975 C   0  0  0  0  0  0  0  0  0  0  0  0
   11.3464  -17.8321   19.8042 O   0  0  0  0  0  0  0  0  0  0  0  0
   10.3184  -17.5276   21.8581 N   0  0  0  0  0  0  0  0  0  0  0  0
   11.1089  -18.1741   22.8847 C   0  0  1  0  0  0  0  0  0  0  0  0
   10.9664  -19.6416   22.7688 C   0  0  0  0  0  0  0  0  0  0  0  0
   10.8526  -20.4099   24.0365 C   0  0  0  0  0  0  0  0  0  0  0  0
    9.6317  -21.2438   24.2000 C   0  0  0  0  0  0  0  0  0  0  0  0
    9.6318  -22.1853   25.3579 C   0  0  0  0  0  0  0  0  0  0  0  0
    8.4679  -23.0001   25.4593 N   0  0  0  0  0  0  0  0  0  0  0  0
   12.5083  -17.6706   22.9286 C   0  0  0  0  0  0  0  0  0  0  0  0
   12.8760  -16.4406   23.3991 O   0  0  0  0  0  0  0  0  0  0  0  0
   13.4229  -18.4202   22.5056 O   0  0  0  0  0  0  0  0  0  0  0  0
  1  2  1  0
  2  3  2  0
  4  2  1  0
  5  4  1  0
  5  6  1  6
  7  5  1  0
  7  8  2  0
  9  7  1  0
 10  9  1  0
 10 11  1  0
 11 13  1  0
 12 11  2  0
 13 14  1  0
 14 15  1  6
 15 16  1  0
 16 17  1  0
 17 18  1  0
 18 19  1  0
 20 14  1  0
 20 21  1  0
 22 20  2  0
M  END
$$$$
