NGK.pdb
     RDKit          3D

 22 21  0  0  1  0  0  0  0  0999 V2000
    5.2368  -19.5302   13.0010 N   0  0  0  0  0  0  0  0  0  0  0  0
    6.1941  -18.8768   13.8398 C   0  0  0  0  0  0  0  0  0  0  0  0
    7.3959  -19.1714   13.7663 O   0  0  0  0  0  0  0  0  0  0  0  0
    5.6900  -17.8556   14.7775 C   0  0  0  0  0  0  0  0  0  0  0  0
    6.7959  -17.2433   15.5980 C   0  0  2  0  0  0  0  0  0  0  0  0
    7.8866  -16.8229   14.7616 N   0  0  0  0  0  0  0  0  0  0  0  0
    7.1765  -18.2229   16.6297 C   0  0  0  0  0  0  0  0  0  0  0  0
    6.3081  -18.5642   17.4805 O   0  0  0  0  0  0  0  0  0  0  0  0
    8.4482  -18.8297   16.7608 N   0  0  0  0  0  0  0  0  0  0  0  0
    8.7321  -19.8104   17.7916 C   0  0  0  0  0  0  0  0  0  0  0  0
    9.5711  -19.2204   18.8715 C   0  0  0  0  0  0  0  0  0  0  0  0
    9.8213  -17.9872   18.8695 O   0  0  0  0  0  0  0  0  0  0  0  0
   10.0829  -20.0487   19.8942 N   0  0  0  0  0  0  0  0  0  0  0  0
   10.8759  -19.5865   21.0141 C   0  0  1  0  0  0  0  0  0  0  0  0
   10.7114  -20.5145   22.1538 C   0  0  0  0  0  0  0  0  0  0  0  0
    9.3740  -21.1408   22.3254 C   0  0  0  0  0  0  0  0  0  0  0  0
    9.2642  -22.1970   23.3671 C   0  0  0  0  0  0  0  0  0  0  0  0
    7.9822  -22.9606   23.3932 C   0  0  0  0  0  0  0  0  0  0  0  0
    7.9892  -24.1013   24.2462 N   0  0  0  0  0  0  0  0  0  0  0  0
   12.2826  -19.2882   20.6323 C   0  0  0  0  0  0  0  0  0  0  0  0
   13.1259  -18.4821   21.3455 O   0  0  0  0  0  0  0  0  0  0  0  0
   12.7363  -19.8080   19.5829 O   0  0  0  0  0  0  0  0  0  0  0  0
  1  2  1  0
  2  3  2  0
  4  2  1  0
  5  4  1  0
  5  6  1  6
  7  5  1  0
  7  8  2  0
  9  7  1  0
 10  9  1  0
 10 11  1  0
 11 13  1  0
 12 11  2  0
 13 14  1  0
 14 15  1  1
 15 16  1  0
 16 17  1  0
 17 18  1  0
 18 19  1  0
 20 14  1  0
 20 21  1  0
 22 20  2  0
M  END
$$$$
