DML.pdb
     RDKit          3D

 25 24  0  0  1  0  0  0  0  0999 V2000
   10.2116  -19.1477   20.2359 N   0  0  0  0  0  0  0  0  0  0  0  0
   11.2909  -18.1783   20.2139 C   0  0  1  0  0  0  0  0  0  0  0  0
   11.5117  -17.7868   18.7625 C   0  0  0  0  0  0  0  0  0  0  0  0
   12.9108  -17.4266   18.5103 C   0  0  0  0  0  0  0  0  0  0  0  0
   13.7754  -17.8396   19.3358 O   0  0  0  0  0  0  0  0  0  0  0  0
   10.9439  -16.9747   21.0163 C   0  0  0  0  0  0  0  0  0  0  0  0
   11.7304  -16.0142   21.1179 O   0  0  0  0  0  0  0  0  0  0  0  0
   13.3651  -16.6742   17.4475 O   0  0  0  0  0  0  0  0  0  0  0  0
    7.1583  -12.3535   20.1196 C   0  0  0  0  0  0  0  0  0  0  0  0
    7.9599  -13.4169   21.3329 S   0  0  0  0  0  0  0  0  0  0  0  0
    7.2039  -15.0635   21.3432 C   0  0  0  0  0  0  0  0  0  0  0  0
    7.7394  -15.8071   22.5397 C   0  0  0  0  0  0  0  0  0  0  0  0
    9.2733  -15.8408   22.5197 C   0  0  2  0  0  0  0  0  0  0  0  0
    9.7076  -16.9107   21.6759 N   0  0  0  0  0  0  0  0  0  0  0  0
    9.7155  -16.1255   23.9096 C   0  0  0  0  0  0  0  0  0  0  0  0
   10.0988  -17.2875   24.2257 O   0  0  0  0  0  0  0  0  0  0  0  0
    9.6604  -13.2605   29.4287 C   0  0  0  0  0  0  0  0  0  0  0  0
   10.0373  -14.5235   28.6375 C   0  0  2  0  0  0  0  0  0  0  0  0
   11.4434  -14.8752   29.0213 C   0  0  0  0  0  0  0  0  0  0  0  0
    9.8355  -14.3115   27.1850 C   0  0  0  0  0  0  0  0  0  0  0  0
   10.0603  -15.4876   26.2993 C   0  0  2  0  0  0  0  0  0  0  0  0
    9.7241  -15.1272   24.9107 N   0  0  0  0  0  0  0  0  0  0  0  0
    9.1859  -16.6254   26.7081 C   0  0  0  0  0  0  0  0  0  0  0  0
    9.5701  -17.5248   27.4783 O   0  0  0  0  0  0  0  0  0  0  0  0
    7.8738  -16.7211   26.2277 O   0  0  0  0  0  0  0  0  0  0  0  0
  2  1  1  6
  2  3  1  0
  3  4  1  0
  4  5  2  0
  6  2  1  0
  6  7  2  0
  8  4  1  0
  9 10  1  0
 10 11  1  0
 11 12  1  0
 13 12  1  1
 13 14  1  0
 14  6  1  0
 15 22  1  0
 15 13  1  0
 16 15  2  0
 18 20  1  0
 18 17  1  1
 19 18  1  0
 21 22  1  0
 21 20  1  1
 23 21  1  0
 24 23  2  0
 25 23  1  0
M  END
$$$$
