DML.pdb
     RDKit          3D

 25 24  0  0  1  0  0  0  0  0999 V2000
   10.1438  -16.6280   19.2597 N   0  0  0  0  0  0  0  0  0  0  0  0
   10.6945  -17.2255   20.4616 C   0  0  1  0  0  0  0  0  0  0  0  0
   12.1583  -17.5231   20.1838 C   0  0  0  0  0  0  0  0  0  0  0  0
   12.3105  -18.5421   19.1402 C   0  0  0  0  0  0  0  0  0  0  0  0
   11.6199  -19.5958   19.2513 O   0  0  0  0  0  0  0  0  0  0  0  0
   10.5765  -16.3000   21.6203 C   0  0  0  0  0  0  0  0  0  0  0  0
   11.4522  -15.4474   21.8610 O   0  0  0  0  0  0  0  0  0  0  0  0
   13.1445  -18.4494   18.0457 O   0  0  0  0  0  0  0  0  0  0  0  0
    6.1592  -12.5221   26.5017 C   0  0  0  0  0  0  0  0  0  0  0  0
    6.3688  -13.9843   25.4704 S   0  0  0  0  0  0  0  0  0  0  0  0
    7.5501  -13.6641   24.1343 C   0  0  0  0  0  0  0  0  0  0  0  0
    7.7366  -14.9488   23.3687 C   0  0  0  0  0  0  0  0  0  0  0  0
    9.1653  -15.4823   23.5376 C   0  0  2  0  0  0  0  0  0  0  0  0
    9.4597  -16.3813   22.4651 N   0  0  0  0  0  0  0  0  0  0  0  0
    9.1919  -16.2438   24.8135 C   0  0  0  0  0  0  0  0  0  0  0  0
    8.8958  -17.4723   24.8230 O   0  0  0  0  0  0  0  0  0  0  0  0
   11.8569  -14.1818   27.9028 C   0  0  0  0  0  0  0  0  0  0  0  0
   10.3548  -14.2170   28.2270 C   0  0  2  0  0  0  0  0  0  0  0  0
   10.1417  -13.3154   29.4060 C   0  0  0  0  0  0  0  0  0  0  0  0
    9.8957  -15.6106   28.4331 C   0  0  0  0  0  0  0  0  0  0  0  0
    9.8107  -16.4734   27.2220 C   0  0  2  0  0  0  0  0  0  0  0  0
    9.5426  -15.6349   26.0404 N   0  0  0  0  0  0  0  0  0  0  0  0
    8.6957  -17.4558   27.3566 C   0  0  0  0  0  0  0  0  0  0  0  0
    7.5724  -17.2700   26.8533 O   0  0  0  0  0  0  0  0  0  0  0  0
    8.8807  -18.6468   28.0700 O   0  0  0  0  0  0  0  0  0  0  0  0
  2  1  1  6
  2  3  1  0
  3  4  1  0
  4  5  2  0
  6  2  1  0
  6  7  2  0
  8  4  1  0
  9 10  1  0
 10 11  1  0
 11 12  1  0
 13 12  1  6
 13 14  1  0
 14  6  1  0
 15 22  1  0
 15 13  1  0
 16 15  2  0
 18 20  1  0
 18 17  1  1
 19 18  1  0
 21 22  1  0
 21 20  1  1
 23 21  1  0
 24 23  2  0
 25 23  1  0
M  END
$$$$
