DML.pdb
     RDKit          3D

 25 24  0  0  1  0  0  0  0  0999 V2000
    7.2595  -17.6882   21.8591 N   0  0  0  0  0  0  0  0  0  0  0  0
    8.6570  -17.6716   21.4693 C   0  0  1  0  0  0  0  0  0  0  0  0
    8.6987  -17.5269   19.9574 C   0  0  0  0  0  0  0  0  0  0  0  0
    8.1855  -18.7268   19.2886 C   0  0  0  0  0  0  0  0  0  0  0  0
    8.5246  -19.8481   19.7653 O   0  0  0  0  0  0  0  0  0  0  0  0
    9.3758  -16.5361   22.1072 C   0  0  0  0  0  0  0  0  0  0  0  0
   10.5219  -16.2088   21.7454 O   0  0  0  0  0  0  0  0  0  0  0  0
    7.3629  -18.7369   18.1817 O   0  0  0  0  0  0  0  0  0  0  0  0
    6.1782  -11.7110   25.2171 C   0  0  0  0  0  0  0  0  0  0  0  0
    5.6286  -13.4082   24.9661 S   0  0  0  0  0  0  0  0  0  0  0  0
    6.8737  -14.3587   24.0554 C   0  0  0  0  0  0  0  0  0  0  0  0
    8.2318  -13.9080   24.5284 C   0  0  0  0  0  0  0  0  0  0  0  0
    9.3433  -14.7166   23.8464 C   0  0  2  0  0  0  0  0  0  0  0  0
    8.7584  -15.8128   23.1383 N   0  0  0  0  0  0  0  0  0  0  0  0
   10.2062  -15.2589   24.9280 C   0  0  0  0  0  0  0  0  0  0  0  0
   11.3633  -14.7850   25.1113 O   0  0  0  0  0  0  0  0  0  0  0  0
   10.9783  -13.9836   28.6401 C   0  0  0  0  0  0  0  0  0  0  0  0
    9.7102  -14.7663   28.2631 C   0  0  2  0  0  0  0  0  0  0  0  0
    8.6563  -14.3975   29.2638 C   0  0  0  0  0  0  0  0  0  0  0  0
    9.9951  -16.2182   28.1830 C   0  0  0  0  0  0  0  0  0  0  0  0
   10.6099  -16.7110   26.9192 C   0  0  2  0  0  0  0  0  0  0  0  0
    9.7739  -16.3043   25.7759 N   0  0  0  0  0  0  0  0  0  0  0  0
   10.6952  -18.2007   26.9249 C   0  0  0  0  0  0  0  0  0  0  0  0
   10.0939  -18.9112   26.0983 O   0  0  0  0  0  0  0  0  0  0  0  0
   11.4727  -18.8638   27.8827 O   0  0  0  0  0  0  0  0  0  0  0  0
  2  1  1  1
  2  3  1  0
  3  4  1  0
  4  5  2  0
  6  2  1  0
  6  7  2  0
  8  4  1  0
  9 10  1  0
 10 11  1  0
 11 12  1  0
 13 12  1  1
 13 14  1  0
 14  6  1  0
 15 22  1  0
 15 13  1  0
 16 15  2  0
 18 20  1  0
 18 17  1  1
 19 18  1  0
 21 22  1  0
 21 20  1  1
 23 21  1  0
 24 23  2  0
 25 23  1  0
M  END
$$$$
