DML.pdb
     RDKit          3D

 25 24  0  0  1  0  0  0  0  0999 V2000
    8.9298  -17.2125   19.7155 N   0  0  0  0  0  0  0  0  0  0  0  0
   10.2119  -17.0627   20.3779 C   0  0  1  0  0  0  0  0  0  0  0  0
   11.1792  -16.4881   19.3568 C   0  0  0  0  0  0  0  0  0  0  0  0
   11.7596  -17.5399   18.5155 C   0  0  0  0  0  0  0  0  0  0  0  0
   12.2351  -18.5557   19.1000 O   0  0  0  0  0  0  0  0  0  0  0  0
   10.1057  -16.1479   21.5461 C   0  0  0  0  0  0  0  0  0  0  0  0
   10.5451  -14.9832   21.4998 O   0  0  0  0  0  0  0  0  0  0  0  0
   11.8312  -17.5157   17.1385 O   0  0  0  0  0  0  0  0  0  0  0  0
    6.0561  -12.2408   25.9559 C   0  0  0  0  0  0  0  0  0  0  0  0
    6.6152  -13.9474   25.8129 S   0  0  0  0  0  0  0  0  0  0  0  0
    7.2844  -14.2679   24.1598 C   0  0  0  0  0  0  0  0  0  0  0  0
    7.7351  -15.7054   24.1178 C   0  0  0  0  0  0  0  0  0  0  0  0
    9.2493  -15.7960   23.8869 C   0  0  2  0  0  0  0  0  0  0  0  0
    9.4998  -16.5969   22.7288 N   0  0  0  0  0  0  0  0  0  0  0  0
    9.8245  -16.4849   25.0715 C   0  0  0  0  0  0  0  0  0  0  0  0
   10.3270  -17.6381   24.9502 O   0  0  0  0  0  0  0  0  0  0  0  0
   11.7041  -13.8588   27.7325 C   0  0  0  0  0  0  0  0  0  0  0  0
   10.4167  -14.2765   28.4614 C   0  0  2  0  0  0  0  0  0  0  0  0
   10.3320  -13.4466   29.7073 C   0  0  0  0  0  0  0  0  0  0  0  0
   10.4003  -15.7389   28.6993 C   0  0  0  0  0  0  0  0  0  0  0  0
   10.4178  -16.6134   27.4938 C   0  0  2  0  0  0  0  0  0  0  0  0
    9.8314  -15.8881   26.3531 N   0  0  0  0  0  0  0  0  0  0  0  0
    9.6067  -17.8437   27.7280 C   0  0  0  0  0  0  0  0  0  0  0  0
    8.4324  -17.9597   27.3313 O   0  0  0  0  0  0  0  0  0  0  0  0
   10.1525  -18.9336   28.4178 O   0  0  0  0  0  0  0  0  0  0  0  0
  2  1  1  6
  2  3  1  0
  3  4  1  0
  4  5  2  0
  6  2  1  0
  6  7  2  0
  8  4  1  0
  9 10  1  0
 10 11  1  0
 11 12  1  0
 13 12  1  1
 13 14  1  0
 14  6  1  0
 15 22  1  0
 15 13  1  0
 16 15  2  0
 18 20  1  0
 18 17  1  1
 19 18  1  0
 21 22  1  0
 21 20  1  1
 23 21  1  0
 24 23  2  0
 25 23  1  0
M  END
$$$$
