EAT.pdb
     RDKit          3D

 22 21  0  0  1  0  0  0  0  0999 V2000
   16.2833  -11.1958  -17.0278 N   0  0  0  0  0  0  0  0  0  0  0  0
   17.0049  -10.8386  -15.8290 C   0  0  1  0  0  0  0  0  0  0  0  0
   17.9965  -11.9406  -15.5373 C   0  0  0  0  0  0  0  0  0  0  0  0
   18.3432  -12.7264  -16.7802 C   0  0  0  0  0  0  0  0  0  0  0  0
   19.3948  -13.7303  -16.5693 C   0  0  0  0  0  0  0  0  0  0  0  0
   19.9432  -13.9021  -15.4443 O   0  0  0  0  0  0  0  0  0  0  0  0
   17.6643   -9.5197  -15.9499 C   0  0  0  0  0  0  0  0  0  0  0  0
   18.4699   -9.2823  -16.8787 O   0  0  0  0  0  0  0  0  0  0  0  0
   19.8298  -14.5390  -17.6197 O   0  0  0  0  0  0  0  0  0  0  0  0
   17.0577   -6.2852  -14.1893 C   0  0  0  0  0  0  0  0  0  0  0  0
   17.9219   -7.1719  -15.0782 C   0  0  2  0  0  0  0  0  0  0  0  0
   17.3823   -8.5028  -14.9993 N   0  0  0  0  0  0  0  0  0  0  0  0
   19.3272   -7.1048  -14.6074 C   0  0  0  0  0  0  0  0  0  0  0  0
   19.7415   -7.9656  -13.7936 O   0  0  0  0  0  0  0  0  0  0  0  0
   23.9300   -5.8427  -15.6662 C   0  0  0  0  0  0  0  0  0  0  0  0
   22.4630   -5.9626  -15.9165 C   0  0  1  0  0  0  0  0  0  0  0  0
   22.2535   -7.0241  -16.7957 O   0  0  0  0  0  0  0  0  0  0  0  0
   21.6392   -6.1034  -14.6711 C   0  0  2  0  0  0  0  0  0  0  0  0
   20.2387   -6.1031  -15.0363 N   0  0  0  0  0  0  0  0  0  0  0  0
   21.8893   -5.0954  -13.6566 C   0  0  0  0  0  0  0  0  0  0  0  0
   21.2761   -3.9999  -13.7144 O   0  0  0  0  0  0  0  0  0  0  0  0
   22.7762   -5.2394  -12.5921 O   0  0  0  0  0  0  0  0  0  0  0  0
  2  7  1  0
  2  1  1  6
  3  2  1  0
  4  5  1  0
  4  3  1  0
  5  9  1  0
  6  5  2  0
  7 12  1  0
  8  7  2  0
 11 10  1  1
 11 13  1  0
 12 11  1  0
 13 14  2  0
 13 19  1  0
 16 15  1  1
 17 16  1  0
 18 20  1  0
 18 16  1  0
 18 19  1  6
 20 22  1  0
 21 20  2  0
M  END
$$$$
