EAT.pdb
     RDKit          3D

 22 21  0  0  1  0  0  0  0  0999 V2000
   18.7578  -12.0819  -17.1822 N   0  0  0  0  0  0  0  0  0  0  0  0
   20.0385  -11.4151  -17.1547 C   0  0  1  0  0  0  0  0  0  0  0  0
   20.2091  -10.6814  -18.4645 C   0  0  0  0  0  0  0  0  0  0  0  0
   18.9040  -10.1000  -18.9555 C   0  0  0  0  0  0  0  0  0  0  0  0
   19.0641   -9.1283  -20.0458 C   0  0  0  0  0  0  0  0  0  0  0  0
   18.8918   -9.4437  -21.2569 O   0  0  0  0  0  0  0  0  0  0  0  0
   20.1678  -10.5086  -15.9927 C   0  0  0  0  0  0  0  0  0  0  0  0
   19.1708   -9.9161  -15.5208 O   0  0  0  0  0  0  0  0  0  0  0  0
   19.4173   -7.8058  -19.7763 O   0  0  0  0  0  0  0  0  0  0  0  0
   23.0323   -9.7586  -13.7102 C   0  0  0  0  0  0  0  0  0  0  0  0
   21.6671   -9.4125  -14.2928 C   0  0  2  0  0  0  0  0  0  0  0  0
   21.4418  -10.3036  -15.3992 N   0  0  0  0  0  0  0  0  0  0  0  0
   21.6656   -7.9880  -14.7074 C   0  0  0  0  0  0  0  0  0  0  0  0
   22.1376   -7.6765  -15.8277 O   0  0  0  0  0  0  0  0  0  0  0  0
   19.8178   -3.4616  -14.2934 C   0  0  0  0  0  0  0  0  0  0  0  0
   19.8563   -4.9383  -14.0767 C   0  0  1  0  0  0  0  0  0  0  0  0
   18.9073   -5.5287  -14.9099 O   0  0  0  0  0  0  0  0  0  0  0  0
   21.2136   -5.5488  -14.2624 C   0  0  2  0  0  0  0  0  0  0  0  0
   21.1509   -6.9461  -13.8903 N   0  0  0  0  0  0  0  0  0  0  0  0
   22.2844   -4.8883  -13.5378 C   0  0  0  0  0  0  0  0  0  0  0  0
   22.8866   -3.9247  -14.0746 O   0  0  0  0  0  0  0  0  0  0  0  0
   22.7166   -5.2390  -12.2607 O   0  0  0  0  0  0  0  0  0  0  0  0
  2  7  1  0
  2  1  1  6
  3  2  1  0
  4  5  1  0
  4  3  1  0
  5  9  1  0
  6  5  2  0
  7 12  1  0
  8  7  2  0
 11 10  1  6
 11 13  1  0
 12 11  1  0
 13 14  2  0
 13 19  1  0
 16 15  1  6
 17 16  1  0
 18 20  1  0
 18 16  1  0
 18 19  1  1
 20 22  1  0
 21 20  2  0
M  END
$$$$
