EAT.pdb
     RDKit          3D

 22 21  0  0  1  0  0  0  0  0999 V2000
   19.5926  -17.5860  -15.4661 N   0  0  0  0  0  0  0  0  0  0  0  0
   19.9996  -18.9657  -15.3388 C   0  0  1  0  0  0  0  0  0  0  0  0
   19.5609  -19.6971  -16.5859 C   0  0  0  0  0  0  0  0  0  0  0  0
   18.0560  -19.7944  -16.6787 C   0  0  0  0  0  0  0  0  0  0  0  0
   17.4441  -18.7264  -17.4808 C   0  0  0  0  0  0  0  0  0  0  0  0
   17.8426  -18.4506  -18.6474 O   0  0  0  0  0  0  0  0  0  0  0  0
   21.4546  -19.0961  -15.1048 C   0  0  0  0  0  0  0  0  0  0  0  0
   22.2796  -18.4413  -15.7819 O   0  0  0  0  0  0  0  0  0  0  0  0
   16.3874  -17.9698  -16.9735 O   0  0  0  0  0  0  0  0  0  0  0  0
   23.4033  -20.8647  -12.4485 C   0  0  0  0  0  0  0  0  0  0  0  0
   23.3233  -20.1678  -13.8016 C   0  0  2  0  0  0  0  0  0  0  0  0
   21.9285  -19.9774  -14.0969 N   0  0  0  0  0  0  0  0  0  0  0  0
   24.0051  -21.0062  -14.8181 C   0  0  0  0  0  0  0  0  0  0  0  0
   23.4394  -22.0473  -15.2316 O   0  0  0  0  0  0  0  0  0  0  0  0
   24.6273  -20.3048  -18.1988 C   0  0  0  0  0  0  0  0  0  0  0  0
   25.9698  -20.6571  -17.6485 C   0  0  1  0  0  0  0  0  0  0  0  0
   26.6949  -19.4793  -17.4738 O   0  0  0  0  0  0  0  0  0  0  0  0
   25.9207  -21.4699  -16.3890 C   0  0  2  0  0  0  0  0  0  0  0  0
   25.2816  -20.6864  -15.3534 N   0  0  0  0  0  0  0  0  0  0  0  0
   27.2083  -21.9535  -15.9240 C   0  0  0  0  0  0  0  0  0  0  0  0
   27.6905  -21.4913  -14.8594 O   0  0  0  0  0  0  0  0  0  0  0  0
   27.9802  -22.9142  -16.5735 O   0  0  0  0  0  0  0  0  0  0  0  0
  2  7  1  0
  2  1  1  6
  3  2  1  0
  4  5  1  0
  4  3  1  0
  5  9  1  0
  6  5  2  0
  7 12  1  0
  8  7  2  0
 11 10  1  1
 11 13  1  0
 12 11  1  0
 13 14  2  0
 13 19  1  0
 16 15  1  1
 17 16  1  0
 18 20  1  0
 18 16  1  0
 18 19  1  1
 20 22  1  0
 21 20  2  0
M  END
$$$$
