EAT.pdb
     RDKit          3D

 22 21  0  0  1  0  0  0  0  0999 V2000
   15.3617  -10.5934  -16.3866 N   0  0  0  0  0  0  0  0  0  0  0  0
   16.5597  -10.4411  -15.5946 C   0  0  1  0  0  0  0  0  0  0  0  0
   17.4875  -11.5855  -15.9299 C   0  0  0  0  0  0  0  0  0  0  0  0
   17.0044  -12.8900  -15.3405 C   0  0  0  0  0  0  0  0  0  0  0  0
   17.8673  -14.0360  -15.6574 C   0  0  0  0  0  0  0  0  0  0  0  0
   18.8036  -13.9582  -16.5019 O   0  0  0  0  0  0  0  0  0  0  0  0
   17.2038   -9.1266  -15.8092 C   0  0  0  0  0  0  0  0  0  0  0  0
   17.6443   -8.7983  -16.9344 O   0  0  0  0  0  0  0  0  0  0  0  0
   17.6786  -15.2666  -15.0277 O   0  0  0  0  0  0  0  0  0  0  0  0
   16.9841   -5.9235  -14.1816 C   0  0  0  0  0  0  0  0  0  0  0  0
   17.9308   -6.9184  -14.8426 C   0  0  2  0  0  0  0  0  0  0  0  0
   17.3272   -8.2186  -14.7240 N   0  0  0  0  0  0  0  0  0  0  0  0
   19.2521   -6.8473  -14.1715 C   0  0  0  0  0  0  0  0  0  0  0  0
   19.4168   -7.4446  -13.0802 O   0  0  0  0  0  0  0  0  0  0  0  0
   22.6824   -7.8403  -15.5289 C   0  0  0  0  0  0  0  0  0  0  0  0
   22.7031   -6.4164  -15.0802 C   0  0  1  0  0  0  0  0  0  0  0  0
   22.6145   -5.6003  -16.2070 O   0  0  0  0  0  0  0  0  0  0  0  0
   21.6501   -6.0788  -14.0670 C   0  0  2  0  0  0  0  0  0  0  0  0
   20.3535   -6.1283  -14.7082 N   0  0  0  0  0  0  0  0  0  0  0  0
   21.8288   -4.7996  -13.4038 C   0  0  0  0  0  0  0  0  0  0  0  0
   21.0993   -3.8302  -13.7316 O   0  0  0  0  0  0  0  0  0  0  0  0
   22.7663   -4.5439  -12.4056 O   0  0  0  0  0  0  0  0  0  0  0  0
  2  7  1  0
  2  1  1  6
  3  2  1  0
  4  5  1  0
  4  3  1  0
  5  9  1  0
  6  5  2  0
  7 12  1  0
  8  7  2  0
 11 10  1  1
 11 13  1  0
 12 11  1  0
 13 14  2  0
 13 19  1  0
 16 15  1  6
 17 16  1  0
 18 20  1  0
 18 16  1  0
 18 19  1  6
 20 22  1  0
 21 20  2  0
M  END
$$$$
