EAT.pdb
     RDKit          3D

 22 21  0  0  1  0  0  0  0  0999 V2000
   26.7094  -21.3845  -10.7813 N   0  0  0  0  0  0  0  0  0  0  0  0
   26.0664  -20.2536  -11.4084 C   0  0  1  0  0  0  0  0  0  0  0  0
   26.9911  -19.7293  -12.4821 C   0  0  0  0  0  0  0  0  0  0  0  0
   27.4870  -20.8352  -13.3841 C   0  0  0  0  0  0  0  0  0  0  0  0
   27.3680  -20.5270  -14.8156 C   0  0  0  0  0  0  0  0  0  0  0  0
   27.9683  -19.5490  -15.3440 O   0  0  0  0  0  0  0  0  0  0  0  0
   24.7338  -20.6018  -11.9487 C   0  0  0  0  0  0  0  0  0  0  0  0
   24.5872  -20.9247  -13.1496 O   0  0  0  0  0  0  0  0  0  0  0  0
   26.5764  -21.3150  -15.6516 O   0  0  0  0  0  0  0  0  0  0  0  0
   21.3858  -20.9241  -10.2851 C   0  0  0  0  0  0  0  0  0  0  0  0
   22.2744  -20.9324  -11.5234 C   0  0  2  0  0  0  0  0  0  0  0  0
   23.5990  -20.5706  -11.0952 N   0  0  0  0  0  0  0  0  0  0  0  0
   21.7244  -19.9802  -12.5193 C   0  0  0  0  0  0  0  0  0  0  0  0
   22.0474  -18.7695  -12.4514 O   0  0  0  0  0  0  0  0  0  0  0  0
   20.2654  -19.0033  -17.0047 C   0  0  0  0  0  0  0  0  0  0  0  0
   20.8391  -19.8107  -15.8875 C   0  0  1  0  0  0  0  0  0  0  0  0
   22.2283  -19.7067  -15.9397 O   0  0  0  0  0  0  0  0  0  0  0  0
   20.3063  -19.4472  -14.5335 C   0  0  2  0  0  0  0  0  0  0  0  0
   20.8397  -20.3744  -13.5586 N   0  0  0  0  0  0  0  0  0  0  0  0
   18.8582  -19.4037  -14.4388 C   0  0  0  0  0  0  0  0  0  0  0  0
   18.2304  -20.4494  -14.1357 O   0  0  0  0  0  0  0  0  0  0  0  0
   18.0790  -18.2705  -14.6611 O   0  0  0  0  0  0  0  0  0  0  0  0
  2  7  1  0
  2  1  1  6
  3  2  1  0
  4  5  1  0
  4  3  1  0
  5  9  1  0
  6  5  2  0
  7 12  1  0
  8  7  2  0
 11 10  1  1
 11 13  1  0
 12 11  1  0
 13 14  2  0
 13 19  1  0
 16 15  1  6
 17 16  1  0
 18 20  1  0
 18 16  1  0
 18 19  1  1
 20 22  1  0
 21 20  2  0
M  END
$$$$
