EAT.pdb
     RDKit          3D

 22 21  0  0  1  0  0  0  0  0999 V2000
   13.8243  -12.8893  -10.2901 N   0  0  0  0  0  0  0  0  0  0  0  0
   13.5971  -11.5920  -10.8824 C   0  0  1  0  0  0  0  0  0  0  0  0
   12.3926  -10.9774  -10.2083 C   0  0  0  0  0  0  0  0  0  0  0  0
   11.1674  -11.8508  -10.3447 C   0  0  0  0  0  0  0  0  0  0  0  0
    9.9731  -11.2978   -9.6917 C   0  0  0  0  0  0  0  0  0  0  0  0
    9.9788  -10.1674   -9.1277 O   0  0  0  0  0  0  0  0  0  0  0  0
   14.7889  -10.7208  -10.7854 C   0  0  0  0  0  0  0  0  0  0  0  0
   15.2018  -10.3111   -9.6765 O   0  0  0  0  0  0  0  0  0  0  0  0
    8.7754  -12.0131   -9.6719 O   0  0  0  0  0  0  0  0  0  0  0  0
   17.2068   -9.5019  -13.3785 C   0  0  0  0  0  0  0  0  0  0  0  0
   16.6254   -9.4706  -11.9699 C   0  0  2  0  0  0  0  0  0  0  0  0
   15.4796  -10.3401  -11.9666 N   0  0  0  0  0  0  0  0  0  0  0  0
   16.2723   -8.0719  -11.6238 C   0  0  0  0  0  0  0  0  0  0  0  0
   15.1411   -7.6303  -11.9405 O   0  0  0  0  0  0  0  0  0  0  0  0
   16.9492   -4.1957   -8.6996 C   0  0  0  0  0  0  0  0  0  0  0  0
   17.1451   -5.6047   -9.1526 C   0  0  1  0  0  0  0  0  0  0  0  0
   16.4081   -6.4410   -8.3154 O   0  0  0  0  0  0  0  0  0  0  0  0
   16.8137   -5.8347  -10.5972 C   0  0  2  0  0  0  0  0  0  0  0  0
   17.1607   -7.1964  -10.9438 N   0  0  0  0  0  0  0  0  0  0  0  0
   17.4430   -4.9097  -11.5226 C   0  0  0  0  0  0  0  0  0  0  0  0
   18.5813   -5.1793  -11.9821 O   0  0  0  0  0  0  0  0  0  0  0  0
   16.8794   -3.7131  -11.9596 O   0  0  0  0  0  0  0  0  0  0  0  0
  2  7  1  0
  2  1  1  1
  3  2  1  0
  4  5  1  0
  4  3  1  0
  5  9  1  0
  6  5  2  0
  7 12  1  0
  8  7  2  0
 11 10  1  6
 11 13  1  0
 12 11  1  0
 13 14  2  0
 13 19  1  0
 16 15  1  1
 17 16  1  0
 18 20  1  0
 18 16  1  0
 18 19  1  6
 20 22  1  0
 21 20  2  0
M  END
$$$$
