EAT.pdb
     RDKit          3D

 22 21  0  0  1  0  0  0  0  0999 V2000
   20.5303  -11.5663  -18.2692 N   0  0  0  0  0  0  0  0  0  0  0  0
   19.4058  -10.7906  -17.8010 C   0  0  1  0  0  0  0  0  0  0  0  0
   18.2417  -11.7328  -17.6013 C   0  0  0  0  0  0  0  0  0  0  0  0
   18.6901  -13.1746  -17.5480 C   0  0  0  0  0  0  0  0  0  0  0  0
   18.1584  -13.9156  -16.3963 C   0  0  0  0  0  0  0  0  0  0  0  0
   17.2130  -14.7457  -16.5104 O   0  0  0  0  0  0  0  0  0  0  0  0
   19.7253  -10.0379  -16.5680 C   0  0  0  0  0  0  0  0  0  0  0  0
   18.8449   -9.3850  -15.9626 O   0  0  0  0  0  0  0  0  0  0  0  0
   18.6872  -13.7245  -15.1194 O   0  0  0  0  0  0  0  0  0  0  0  0
   22.8096   -9.8858  -14.4590 C   0  0  0  0  0  0  0  0  0  0  0  0
   21.4589   -9.3245  -14.8874 C   0  0  2  0  0  0  0  0  0  0  0  0
   21.0510  -10.0529  -16.0587 N   0  0  0  0  0  0  0  0  0  0  0  0
   21.6005   -7.8709  -15.1488 C   0  0  0  0  0  0  0  0  0  0  0  0
   22.0566   -7.4898  -16.2540 O   0  0  0  0  0  0  0  0  0  0  0  0
   20.0580   -3.3255  -14.4712 C   0  0  0  0  0  0  0  0  0  0  0  0
   20.0325   -4.8136  -14.3527 C   0  0  1  0  0  0  0  0  0  0  0  0
   19.1504   -5.3146  -15.3089 O   0  0  0  0  0  0  0  0  0  0  0  0
   21.3829   -5.4586  -14.4522 C   0  0  2  0  0  0  0  0  0  0  0  0
   21.2417   -6.8767  -14.1996 N   0  0  0  0  0  0  0  0  0  0  0  0
   22.3945   -4.8953  -13.5762 C   0  0  0  0  0  0  0  0  0  0  0  0
   22.5288   -5.3577  -12.4153 O   0  0  0  0  0  0  0  0  0  0  0  0
   23.2558   -3.8556  -13.9192 O   0  0  0  0  0  0  0  0  0  0  0  0
  2  7  1  0
  2  1  1  1
  3  2  1  0
  4  5  1  0
  4  3  1  0
  5  9  1  0
  6  5  2  0
  7 12  1  0
  8  7  2  0
 11 10  1  6
 11 13  1  0
 12 11  1  0
 13 14  2  0
 13 19  1  0
 16 15  1  6
 17 16  1  0
 18 20  1  0
 18 16  1  0
 18 19  1  1
 20 22  1  0
 21 20  2  0
M  END
$$$$
