EAT.pdb
     RDKit          3D

 22 21  0  0  1  0  0  0  0  0999 V2000
   27.1730  -11.3524  -18.7500 N   0  0  0  0  0  0  0  0  0  0  0  0
   27.0913  -10.6434  -17.4945 C   0  0  1  0  0  0  0  0  0  0  0  0
   28.0187   -9.4531  -17.5713 C   0  0  0  0  0  0  0  0  0  0  0  0
   29.4638   -9.8755  -17.6973 C   0  0  0  0  0  0  0  0  0  0  0  0
   30.4104   -8.7520  -17.6804 C   0  0  0  0  0  0  0  0  0  0  0  0
   30.0251   -7.5501  -17.6274 O   0  0  0  0  0  0  0  0  0  0  0  0
   25.7040  -10.2431  -17.1721 C   0  0  0  0  0  0  0  0  0  0  0  0
   24.9659   -9.7161  -18.0354 O   0  0  0  0  0  0  0  0  0  0  0  0
   31.7865   -8.9781  -17.7234 O   0  0  0  0  0  0  0  0  0  0  0  0
   23.6669  -10.6655  -14.0474 C   0  0  0  0  0  0  0  0  0  0  0  0
   23.8310  -10.2022  -15.4901 C   0  0  2  0  0  0  0  0  0  0  0  0
   25.1964  -10.4579  -15.8631 N   0  0  0  0  0  0  0  0  0  0  0  0
   23.4830   -8.7626  -15.5779 C   0  0  0  0  0  0  0  0  0  0  0  0
   24.3373   -7.9054  -15.2456 O   0  0  0  0  0  0  0  0  0  0  0  0
   20.1841   -7.4530  -17.9383 C   0  0  0  0  0  0  0  0  0  0  0  0
   21.4151   -6.6798  -17.5978 C   0  0  1  0  0  0  0  0  0  0  0  0
   21.1713   -5.3316  -17.8554 O   0  0  0  0  0  0  0  0  0  0  0  0
   21.9061   -6.8967  -16.1973 C   0  0  2  0  0  0  0  0  0  0  0  0
   22.2163   -8.2998  -16.0244 N   0  0  0  0  0  0  0  0  0  0  0  0
   20.9952   -6.4563  -15.1560 C   0  0  0  0  0  0  0  0  0  0  0  0
   20.4653   -7.3104  -14.4014 O   0  0  0  0  0  0  0  0  0  0  0  0
   20.6458   -5.1301  -14.9118 O   0  0  0  0  0  0  0  0  0  0  0  0
  2  7  1  0
  2  1  1  6
  3  2  1  0
  4  5  1  0
  4  3  1  0
  5  9  1  0
  6  5  2  0
  7 12  1  0
  8  7  2  0
 11 10  1  1
 11 13  1  0
 12 11  1  0
 13 14  2  0
 13 19  1  0
 16 15  1  1
 17 16  1  0
 18 20  1  0
 18 16  1  0
 18 19  1  1
 20 22  1  0
 21 20  2  0
M  END
$$$$
