TWC.pdb
     RDKit          3D

 28 29  0  0  1  0  0  0  0  0999 V2000
   11.6559  -16.9414   19.3607 C   0  0  0  0  0  0  0  0  0  0  0  0
   10.3339  -17.5732   18.9207 C   0  0  1  0  0  0  0  0  0  0  0  0
   10.6116  -18.6094   18.0646 O   0  0  0  0  0  0  0  0  0  0  0  0
    9.4776  -17.9431   20.1070 C   0  0  2  0  0  0  0  0  0  0  0  0
    8.3641  -18.8009   19.6865 N   0  0  0  0  0  0  0  0  0  0  0  0
    8.9896  -16.8065   20.8830 C   0  0  0  0  0  0  0  0  0  0  0  0
    7.7709  -16.4506   20.7046 O   0  0  0  0  0  0  0  0  0  0  0  0
    9.8150  -16.1124   21.8019 N   0  0  0  0  0  0  0  0  0  0  0  0
    9.2023  -15.4551   22.9376 C   0  0  1  0  0  0  0  0  0  0  0  0
    7.8958  -16.1081   23.3366 C   0  0  0  0  0  0  0  0  0  0  0  0
    7.1747  -15.4178   24.3956 C   0  0  0  0  0  0  0  0  0  0  0  0
    6.1192  -15.9092   25.1220 C   0  0  0  0  0  0  0  0  0  0  0  0
    5.7022  -15.0107   26.0085 N   0  0  0  0  0  0  0  0  0  0  0  0
    6.4590  -13.9118   25.8974 C   0  0  0  0  0  0  0  0  0  0  0  0
    6.4070  -12.7277   26.5961 C   0  0  0  0  0  0  0  0  0  0  0  0
    7.3018  -11.7312   26.2986 C   0  0  0  0  0  0  0  0  0  0  0  0
    8.2321  -11.9403   25.3060 C   0  0  0  0  0  0  0  0  0  0  0  0
    8.2758  -13.1344   24.6095 C   0  0  0  0  0  0  0  0  0  0  0  0
    7.3856  -14.1499   24.8922 C   0  0  0  0  0  0  0  0  0  0  0  0
   10.1166  -15.5854   24.0935 C   0  0  0  0  0  0  0  0  0  0  0  0
   10.8246  -14.6092   24.4268 O   0  0  0  0  0  0  0  0  0  0  0  0
   10.2295  -16.7809   24.8517 N   0  0  0  0  0  0  0  0  0  0  0  0
   11.1102  -16.8486   25.9925 C   0  0  1  0  0  0  0  0  0  0  0  0
   10.6961  -15.8771   27.0791 C   0  0  0  0  0  0  0  0  0  0  0  0
    9.1003  -16.3740   27.7979 S   0  0  0  0  0  0  0  0  0  0  0  0
   11.2022  -18.2364   26.5266 C   0  0  0  0  0  0  0  0  0  0  0  0
   11.9698  -18.5210   27.4776 O   0  0  0  0  0  0  0  0  0  0  0  0
   10.4408  -19.2865   25.9967 O   0  0  0  0  0  0  0  0  0  0  0  0
  2  1  1  1
  2  3  1  0
  2  4  1  0
  4  6  1  0
  4  5  1  6
  6  7  2  0
  8  9  1  0
  8  6  1  0
 10 11  1  0
  9 10  1  1
 11 12  2  0
 13 12  1  0
 14 13  1  0
 15 14  2  0
 16 15  1  0
 17 18  1  0
 17 16  2  0
 18 19  2  0
 19 14  1  0
 19 11  1  0
 20  9  1  0
 20 21  2  0
 22 20  1  0
 23 22  1  0
 23 26  1  0
 23 24  1  1
 25 24  1  0
 26 28  1  0
 27 26  2  0
M  END
$$$$
