TWC.pdb
     RDKit          3D

 28 29  0  0  1  0  0  0  0  0999 V2000
    6.6800  -15.7458   18.4311 C   0  0  0  0  0  0  0  0  0  0  0  0
    7.7149  -15.7686   19.5575 C   0  0  1  0  0  0  0  0  0  0  0  0
    8.9675  -15.7450   18.9968 O   0  0  0  0  0  0  0  0  0  0  0  0
    7.4527  -14.6804   20.5696 C   0  0  2  0  0  0  0  0  0  0  0  0
    7.3707  -13.3742   19.9065 N   0  0  0  0  0  0  0  0  0  0  0  0
    8.4027  -14.6385   21.6777 C   0  0  0  0  0  0  0  0  0  0  0  0
    9.3115  -13.7348   21.6412 O   0  0  0  0  0  0  0  0  0  0  0  0
    8.3383  -15.5513   22.7594 N   0  0  0  0  0  0  0  0  0  0  0  0
    9.3013  -15.4343   23.8345 C   0  0  1  0  0  0  0  0  0  0  0  0
    8.6899  -15.7500   25.1833 C   0  0  0  0  0  0  0  0  0  0  0  0
    7.5278  -14.9427   25.5232 C   0  0  0  0  0  0  0  0  0  0  0  0
    6.2188  -15.3544   25.5304 C   0  0  0  0  0  0  0  0  0  0  0  0
    5.4163  -14.3576   25.8902 N   0  0  0  0  0  0  0  0  0  0  0  0
    6.1598  -13.2701   26.1290 C   0  0  0  0  0  0  0  0  0  0  0  0
    5.7798  -12.0082   26.5240 C   0  0  0  0  0  0  0  0  0  0  0  0
    6.7380  -11.0437   26.7075 C   0  0  0  0  0  0  0  0  0  0  0  0
    8.0595  -11.3621   26.4914 C   0  0  0  0  0  0  0  0  0  0  0  0
    8.4309  -12.6339   26.0943 C   0  0  0  0  0  0  0  0  0  0  0  0
    7.4840  -13.6191   25.9039 C   0  0  0  0  0  0  0  0  0  0  0  0
   10.3708  -16.4308   23.6055 C   0  0  0  0  0  0  0  0  0  0  0  0
   10.1047  -17.4813   22.9802 O   0  0  0  0  0  0  0  0  0  0  0  0
   11.7012  -16.2485   24.0676 N   0  0  0  0  0  0  0  0  0  0  0  0
   12.7211  -17.2274   23.7791 C   0  0  1  0  0  0  0  0  0  0  0  0
   13.9696  -16.5852   23.2089 C   0  0  0  0  0  0  0  0  0  0  0  0
   14.4769  -15.1692   24.2324 S   0  0  0  0  0  0  0  0  0  0  0  0
   13.0454  -18.0451   24.9816 C   0  0  0  0  0  0  0  0  0  0  0  0
   12.5320  -17.7957   26.0992 O   0  0  0  0  0  0  0  0  0  0  0  0
   13.9343  -19.1266   24.9248 O   0  0  0  0  0  0  0  0  0  0  0  0
  2  1  1  6
  2  3  1  0
  2  4  1  0
  4  6  1  0
  4  5  1  6
  6  7  2  0
  8  9  1  0
  8  6  1  0
 10 11  1  0
  9 10  1  1
 11 12  2  0
 13 12  1  0
 14 13  1  0
 15 14  2  0
 16 15  1  0
 17 18  1  0
 17 16  2  0
 18 19  2  0
 19 14  1  0
 19 11  1  0
 20  9  1  0
 20 21  2  0
 22 20  1  0
 23 22  1  0
 23 26  1  0
 23 24  1  1
 25 24  1  0
 26 28  1  0
 27 26  2  0
M  END
$$$$
