TWC.pdb
     RDKit          3D

 28 29  0  0  1  0  0  0  0  0999 V2000
    6.3938  -17.5964   19.4334 C   0  0  0  0  0  0  0  0  0  0  0  0
    7.3368  -17.6203   20.6378 C   0  0  1  0  0  0  0  0  0  0  0  0
    7.7580  -18.9118   20.8338 O   0  0  0  0  0  0  0  0  0  0  0  0
    8.4455  -16.6073   20.4905 C   0  0  2  0  0  0  0  0  0  0  0  0
    9.1852  -16.8361   19.2442 N   0  0  0  0  0  0  0  0  0  0  0  0
    9.3589  -16.5354   21.6275 C   0  0  0  0  0  0  0  0  0  0  0  0
   10.5152  -17.0719   21.4896 O   0  0  0  0  0  0  0  0  0  0  0  0
    8.9998  -15.9015   22.8427 N   0  0  0  0  0  0  0  0  0  0  0  0
    9.9352  -15.9221   23.9479 C   0  0  1  0  0  0  0  0  0  0  0  0
    9.7474  -14.7396   24.8748 C   0  0  0  0  0  0  0  0  0  0  0  0
    8.3630  -14.4645   25.2294 C   0  0  0  0  0  0  0  0  0  0  0  0
    7.3331  -15.3704   25.2708 C   0  0  0  0  0  0  0  0  0  0  0  0
    6.2012  -14.7761   25.6349 N   0  0  0  0  0  0  0  0  0  0  0  0
    6.4441  -13.4761   25.8430 C   0  0  0  0  0  0  0  0  0  0  0  0
    5.5916  -12.4678   26.2297 C   0  0  0  0  0  0  0  0  0  0  0  0
    6.0798  -11.1945   26.3794 C   0  0  0  0  0  0  0  0  0  0  0  0
    7.4138  -10.9555   26.1386 C   0  0  0  0  0  0  0  0  0  0  0  0
    8.2623  -11.9763   25.7502 C   0  0  0  0  0  0  0  0  0  0  0  0
    7.7927  -13.2641   25.5935 C   0  0  0  0  0  0  0  0  0  0  0  0
    9.6758  -17.1390   24.7485 C   0  0  0  0  0  0  0  0  0  0  0  0
    8.8784  -17.9993   24.3133 O   0  0  0  0  0  0  0  0  0  0  0  0
   10.2968  -17.3792   26.0028 N   0  0  0  0  0  0  0  0  0  0  0  0
   10.5377  -18.7267   26.4588 C   0  0  1  0  0  0  0  0  0  0  0  0
   11.3570  -19.5187   25.4600 C   0  0  0  0  0  0  0  0  0  0  0  0
   13.0121  -18.7859   25.2761 S   0  0  0  0  0  0  0  0  0  0  0  0
   11.1807  -18.7389   27.8028 C   0  0  0  0  0  0  0  0  0  0  0  0
   11.5667  -17.6788   28.3521 O   0  0  0  0  0  0  0  0  0  0  0  0
   11.3851  -19.9276   28.5158 O   0  0  0  0  0  0  0  0  0  0  0  0
  2  1  1  6
  2  3  1  0
  2  4  1  0
  4  6  1  0
  4  5  1  6
  6  7  2  0
  8  9  1  0
  8  6  1  0
 10 11  1  0
  9 10  1  1
 11 12  2  0
 13 12  1  0
 14 13  1  0
 15 14  2  0
 16 15  1  0
 17 18  1  0
 17 16  2  0
 18 19  2  0
 19 14  1  0
 19 11  1  0
 20  9  1  0
 20 21  2  0
 22 20  1  0
 23 22  1  0
 23 26  1  0
 23 24  1  6
 25 24  1  0
 26 28  1  0
 27 26  2  0
M  END
$$$$
