TWC.pdb
     RDKit          3D

 28 29  0  0  1  0  0  0  0  0999 V2000
    6.6410  -17.6696   19.0076 C   0  0  0  0  0  0  0  0  0  0  0  0
    7.7203  -17.3912   20.0555 C   0  0  1  0  0  0  0  0  0  0  0  0
    8.9482  -17.4863   19.4499 O   0  0  0  0  0  0  0  0  0  0  0  0
    7.4675  -16.0891   20.7752 C   0  0  2  0  0  0  0  0  0  0  0  0
    7.3984  -14.9801   19.8171 N   0  0  0  0  0  0  0  0  0  0  0  0
    8.4168  -15.7902   21.8437 C   0  0  0  0  0  0  0  0  0  0  0  0
    9.3367  -14.9332   21.5922 O   0  0  0  0  0  0  0  0  0  0  0  0
    8.3403  -16.4120   23.1144 N   0  0  0  0  0  0  0  0  0  0  0  0
    9.2994  -16.0435   24.1349 C   0  0  1  0  0  0  0  0  0  0  0  0
    8.7170  -16.1497   25.5285 C   0  0  0  0  0  0  0  0  0  0  0  0
    7.6238  -15.2277   25.7979 C   0  0  0  0  0  0  0  0  0  0  0  0
    6.2842  -15.5257   25.8038 C   0  0  0  0  0  0  0  0  0  0  0  0
    5.5653  -14.4446   26.0889 N   0  0  0  0  0  0  0  0  0  0  0  0
    6.3960  -13.4117   26.2779 C   0  0  0  0  0  0  0  0  0  0  0  0
    6.1201  -12.1007   26.5908 C   0  0  0  0  0  0  0  0  0  0  0  0
    7.1549  -11.2117   26.7359 C   0  0  0  0  0  0  0  0  0  0  0  0
    8.4471  -11.6535   26.5645 C   0  0  0  0  0  0  0  0  0  0  0  0
    8.7135  -12.9738   26.2500 C   0  0  0  0  0  0  0  0  0  0  0  0
    7.6883  -13.8847   26.0993 C   0  0  0  0  0  0  0  0  0  0  0  0
   10.4301  -16.9955   24.0697 C   0  0  0  0  0  0  0  0  0  0  0  0
   10.1948  -18.2168   23.9343 O   0  0  0  0  0  0  0  0  0  0  0  0
   11.7863  -16.5830   24.1544 N   0  0  0  0  0  0  0  0  0  0  0  0
   12.8542  -17.5526   24.1181 C   0  0  1  0  0  0  0  0  0  0  0  0
   14.1060  -16.9847   23.4806 C   0  0  0  0  0  0  0  0  0  0  0  0
   14.0185  -15.1684   23.4223 S   0  0  0  0  0  0  0  0  0  0  0  0
   13.1462  -18.0907   25.4765 C   0  0  0  0  0  0  0  0  0  0  0  0
   12.5606  -17.6481   26.4944 O   0  0  0  0  0  0  0  0  0  0  0  0
   14.0834  -19.1113   25.6837 O   0  0  0  0  0  0  0  0  0  0  0  0
  2  1  1  6
  2  3  1  0
  2  4  1  0
  4  6  1  0
  4  5  1  6
  6  7  2  0
  8  9  1  0
  8  6  1  0
 10 11  1  0
  9 10  1  1
 11 12  2  0
 13 12  1  0
 14 13  1  0
 15 14  2  0
 16 15  1  0
 17 18  1  0
 17 16  2  0
 18 19  2  0
 19 14  1  0
 19 11  1  0
 20  9  1  0
 20 21  2  0
 22 20  1  0
 23 22  1  0
 23 26  1  0
 23 24  1  1
 25 24  1  0
 26 28  1  0
 27 26  2  0
M  END
$$$$
