TWC.pdb
     RDKit          3D

 28 29  0  0  1  0  0  0  0  0999 V2000
    8.4318  -20.1473   20.9728 C   0  0  0  0  0  0  0  0  0  0  0  0
    9.2026  -19.7293   19.7192 C   0  0  1  0  0  0  0  0  0  0  0  0
    8.9123  -20.6182   18.7145 O   0  0  0  0  0  0  0  0  0  0  0  0
    8.9537  -18.2810   19.3759 C   0  0  2  0  0  0  0  0  0  0  0  0
    9.6510  -17.9221   18.1360 N   0  0  0  0  0  0  0  0  0  0  0  0
    9.2787  -17.3385   20.4428 C   0  0  0  0  0  0  0  0  0  0  0  0
   10.5181  -17.0763   20.6405 O   0  0  0  0  0  0  0  0  0  0  0  0
    8.2780  -16.7273   21.2380 N   0  0  0  0  0  0  0  0  0  0  0  0
    8.6765  -15.8045   22.2805 C   0  0  1  0  0  0  0  0  0  0  0  0
    7.5426  -14.8916   22.6968 C   0  0  0  0  0  0  0  0  0  0  0  0
    7.9140  -13.8706   23.6651 C   0  0  0  0  0  0  0  0  0  0  0  0
    8.9049  -12.9316   23.5252 C   0  0  0  0  0  0  0  0  0  0  0  0
    8.9708  -12.1563   24.6030 N   0  0  0  0  0  0  0  0  0  0  0  0
    8.0380  -12.5532   25.4775 C   0  0  0  0  0  0  0  0  0  0  0  0
    7.7268  -12.0598   26.7236 C   0  0  0  0  0  0  0  0  0  0  0  0
    6.7140  -12.6412   27.4436 C   0  0  0  0  0  0  0  0  0  0  0  0
    6.0319  -13.7065   26.9011 C   0  0  0  0  0  0  0  0  0  0  0  0
    6.3527  -14.1948   25.6474 C   0  0  0  0  0  0  0  0  0  0  0  0
    7.3675  -13.6255   24.9060 C   0  0  0  0  0  0  0  0  0  0  0  0
    9.0518  -16.5930   23.4748 C   0  0  0  0  0  0  0  0  0  0  0  0
    8.3214  -17.5426   23.8355 O   0  0  0  0  0  0  0  0  0  0  0  0
   10.2163  -16.3193   24.2402 N   0  0  0  0  0  0  0  0  0  0  0  0
   10.5427  -17.1197   25.3954 C   0  0  1  0  0  0  0  0  0  0  0  0
   11.9801  -17.5981   25.3584 C   0  0  0  0  0  0  0  0  0  0  0  0
   12.4391  -18.0930   23.6689 S   0  0  0  0  0  0  0  0  0  0  0  0
   10.2581  -16.3880   26.6617 C   0  0  0  0  0  0  0  0  0  0  0  0
    9.8776  -15.1922   26.6540 O   0  0  0  0  0  0  0  0  0  0  0  0
   10.4003  -16.9950   27.9165 O   0  0  0  0  0  0  0  0  0  0  0  0
  2  1  1  1
  2  3  1  0
  2  4  1  0
  4  6  1  0
  4  5  1  6
  6  7  2  0
  8  9  1  0
  8  6  1  0
 10 11  1  0
  9 10  1  1
 11 12  2  0
 13 12  1  0
 14 13  1  0
 15 14  2  0
 16 15  1  0
 17 18  1  0
 17 16  2  0
 18 19  2  0
 19 14  1  0
 19 11  1  0
 20  9  1  0
 20 21  2  0
 22 20  1  0
 23 22  1  0
 23 26  1  0
 23 24  1  6
 25 24  1  0
 26 28  1  0
 27 26  2  0
M  END
$$$$
