TWC.pdb
     RDKit          3D

 28 29  0  0  1  0  0  0  0  0999 V2000
    6.6753  -17.6404   19.0532 C   0  0  0  0  0  0  0  0  0  0  0  0
    7.6702  -17.3018   20.1649 C   0  0  1  0  0  0  0  0  0  0  0  0
    8.9407  -17.3973   19.6545 O   0  0  0  0  0  0  0  0  0  0  0  0
    7.3448  -15.9779   20.8120 C   0  0  2  0  0  0  0  0  0  0  0  0
    7.2734  -14.9179   19.8002 N   0  0  0  0  0  0  0  0  0  0  0  0
    8.2419  -15.5952   21.8988 C   0  0  0  0  0  0  0  0  0  0  0  0
    9.1237  -14.6991   21.6473 O   0  0  0  0  0  0  0  0  0  0  0  0
    8.1561  -16.1791   23.1868 N   0  0  0  0  0  0  0  0  0  0  0  0
    9.1602  -15.8472   24.1760 C   0  0  1  0  0  0  0  0  0  0  0  0
    8.6187  -15.9316   25.5875 C   0  0  0  0  0  0  0  0  0  0  0  0
    7.5326  -15.0062   25.8737 C   0  0  0  0  0  0  0  0  0  0  0  0
    6.1942  -15.3053   25.9238 C   0  0  0  0  0  0  0  0  0  0  0  0
    5.4825  -14.2203   26.2122 N   0  0  0  0  0  0  0  0  0  0  0  0
    6.3170  -13.1837   26.3598 C   0  0  0  0  0  0  0  0  0  0  0  0
    6.0487  -11.8679   26.6592 C   0  0  0  0  0  0  0  0  0  0  0  0
    7.0860  -10.9758   26.7593 C   0  0  0  0  0  0  0  0  0  0  0  0
    8.3733  -11.4192   26.5573 C   0  0  0  0  0  0  0  0  0  0  0  0
    8.6321  -12.7443   26.2567 C   0  0  0  0  0  0  0  0  0  0  0  0
    7.6042  -13.6584   26.1511 C   0  0  0  0  0  0  0  0  0  0  0  0
   10.2515  -16.8413   24.0760 C   0  0  0  0  0  0  0  0  0  0  0  0
   10.0167  -17.9586   23.5642 O   0  0  0  0  0  0  0  0  0  0  0  0
   11.5690  -16.5837   24.5393 N   0  0  0  0  0  0  0  0  0  0  0  0
   12.6770  -17.3941   24.0952 C   0  0  1  0  0  0  0  0  0  0  0  0
   12.7961  -17.4021   22.5846 C   0  0  0  0  0  0  0  0  0  0  0  0
   13.3310  -15.7704   21.9833 S   0  0  0  0  0  0  0  0  0  0  0  0
   13.9548  -16.9611   24.7272 C   0  0  0  0  0  0  0  0  0  0  0  0
   15.0345  -17.5562   24.4925 O   0  0  0  0  0  0  0  0  0  0  0  0
   14.0143  -15.8745   25.6098 O   0  0  0  0  0  0  0  0  0  0  0  0
  2  1  1  6
  2  3  1  0
  2  4  1  0
  4  6  1  0
  4  5  1  6
  6  7  2  0
  8  9  1  0
  8  6  1  0
 10 11  1  0
  9 10  1  1
 11 12  2  0
 13 12  1  0
 14 13  1  0
 15 14  2  0
 16 15  1  0
 17 18  1  0
 17 16  2  0
 18 19  2  0
 19 14  1  0
 19 11  1  0
 20  9  1  0
 20 21  2  0
 22 20  1  0
 23 22  1  0
 23 26  1  0
 23 24  1  6
 25 24  1  0
 26 28  1  0
 27 26  2  0
M  END
$$$$
