TWC.pdb
     RDKit          3D

 28 29  0  0  1  0  0  0  0  0999 V2000
    6.7113  -15.8160   18.2536 C   0  0  0  0  0  0  0  0  0  0  0  0
    7.6931  -15.9199   19.4223 C   0  0  1  0  0  0  0  0  0  0  0  0
    8.9665  -15.9880   18.9148 O   0  0  0  0  0  0  0  0  0  0  0  0
    7.4700  -14.8186   20.4296 C   0  0  2  0  0  0  0  0  0  0  0  0
    7.5346  -13.5067   19.7759 N   0  0  0  0  0  0  0  0  0  0  0  0
    8.3594  -14.8634   21.5869 C   0  0  0  0  0  0  0  0  0  0  0  0
    9.3808  -14.0886   21.5757 O   0  0  0  0  0  0  0  0  0  0  0  0
    8.1192  -15.7219   22.6881 N   0  0  0  0  0  0  0  0  0  0  0  0
    9.0137  -15.6710   23.8257 C   0  0  1  0  0  0  0  0  0  0  0  0
    8.3317  -16.1046   25.1061 C   0  0  0  0  0  0  0  0  0  0  0  0
    7.3083  -15.1877   25.5854 C   0  0  0  0  0  0  0  0  0  0  0  0
    5.9806  -15.4733   25.7825 C   0  0  0  0  0  0  0  0  0  0  0  0
    5.3322  -14.4017   26.2277 N   0  0  0  0  0  0  0  0  0  0  0  0
    6.1993  -13.3876   26.3374 C   0  0  0  0  0  0  0  0  0  0  0  0
    5.9969  -12.0918   26.7534 C   0  0  0  0  0  0  0  0  0  0  0  0
    7.0566  -11.2210   26.7814 C   0  0  0  0  0  0  0  0  0  0  0  0
    8.2997  -11.6652   26.3918 C   0  0  0  0  0  0  0  0  0  0  0  0
    8.4924  -12.9700   25.9753 C   0  0  0  0  0  0  0  0  0  0  0  0
    7.4410  -13.8626   25.9393 C   0  0  0  0  0  0  0  0  0  0  0  0
   10.1193  -16.6244   23.5855 C   0  0  0  0  0  0  0  0  0  0  0  0
    9.9976  -17.4896   22.6899 O   0  0  0  0  0  0  0  0  0  0  0  0
   11.3268  -16.6033   24.3326 N   0  0  0  0  0  0  0  0  0  0  0  0
   12.3429  -17.6049   24.1178 C   0  0  1  0  0  0  0  0  0  0  0  0
   13.3690  -17.1533   23.0983 C   0  0  0  0  0  0  0  0  0  0  0  0
   14.0320  -15.5200   23.5484 S   0  0  0  0  0  0  0  0  0  0  0  0
   13.0000  -17.9955   25.3967 C   0  0  0  0  0  0  0  0  0  0  0  0
   12.7446  -17.3997   26.4711 O   0  0  0  0  0  0  0  0  0  0  0  0
   13.9301  -19.0413   25.4628 O   0  0  0  0  0  0  0  0  0  0  0  0
  2  1  1  6
  2  3  1  0
  2  4  1  0
  4  6  1  0
  4  5  1  6
  6  7  2  0
  8  9  1  0
  8  6  1  0
 10 11  1  0
  9 10  1  1
 11 12  2  0
 13 12  1  0
 14 13  1  0
 15 14  2  0
 16 15  1  0
 17 18  1  0
 17 16  2  0
 18 19  2  0
 19 14  1  0
 19 11  1  0
 20  9  1  0
 20 21  2  0
 22 20  1  0
 23 22  1  0
 23 26  1  0
 23 24  1  6
 25 24  1  0
 26 28  1  0
 27 26  2  0
M  END
$$$$
