TWC.pdb
     RDKit          3D

 28 29  0  0  1  0  0  0  0  0999 V2000
    9.4511  -17.7626   18.4550 C   0  0  0  0  0  0  0  0  0  0  0  0
    9.9349  -17.4241   19.8663 C   0  0  1  0  0  0  0  0  0  0  0  0
   11.2929  -17.2290   19.8246 O   0  0  0  0  0  0  0  0  0  0  0  0
    9.1482  -16.2813   20.4598 C   0  0  2  0  0  0  0  0  0  0  0  0
    9.2596  -15.0889   19.6122 N   0  0  0  0  0  0  0  0  0  0  0  0
    9.4865  -15.9642   21.8445 C   0  0  0  0  0  0  0  0  0  0  0  0
   10.2388  -14.9464   22.0492 O   0  0  0  0  0  0  0  0  0  0  0  0
    9.0112  -16.7383   22.9317 N   0  0  0  0  0  0  0  0  0  0  0  0
    9.4076  -16.3767   24.2768 C   0  0  1  0  0  0  0  0  0  0  0  0
    8.2520  -16.4570   25.2519 C   0  0  0  0  0  0  0  0  0  0  0  0
    7.3366  -15.3269   25.1975 C   0  0  0  0  0  0  0  0  0  0  0  0
    6.1299  -15.2815   24.5455 C   0  0  0  0  0  0  0  0  0  0  0  0
    5.5562  -14.0931   24.7045 N   0  0  0  0  0  0  0  0  0  0  0  0
    6.3549  -13.3257   25.4566 C   0  0  0  0  0  0  0  0  0  0  0  0
    6.1882  -12.0290   25.8852 C   0  0  0  0  0  0  0  0  0  0  0  0
    7.1595  -11.4461   26.6590 C   0  0  0  0  0  0  0  0  0  0  0  0
    8.2802  -12.1740   26.9889 C   0  0  0  0  0  0  0  0  0  0  0  0
    8.4380  -13.4770   26.5528 C   0  0  0  0  0  0  0  0  0  0  0  0
    7.4739  -14.0828   25.7737 C   0  0  0  0  0  0  0  0  0  0  0  0
   10.4229  -17.3503   24.7353 C   0  0  0  0  0  0  0  0  0  0  0  0
   10.3050  -18.5541   24.4151 O   0  0  0  0  0  0  0  0  0  0  0  0
   11.5386  -16.9782   25.5312 N   0  0  0  0  0  0  0  0  0  0  0  0
   12.4867  -17.9693   25.9789 C   0  0  1  0  0  0  0  0  0  0  0  0
   13.9077  -17.4445   25.9389 C   0  0  0  0  0  0  0  0  0  0  0  0
   14.1178  -16.2919   24.5470 S   0  0  0  0  0  0  0  0  0  0  0  0
   12.1442  -18.4743   27.3381 C   0  0  0  0  0  0  0  0  0  0  0  0
   11.1645  -18.0191   27.9766 O   0  0  0  0  0  0  0  0  0  0  0  0
   12.8945  -19.4764   27.9673 O   0  0  0  0  0  0  0  0  0  0  0  0
  2  1  1  6
  2  3  1  0
  2  4  1  0
  4  6  1  0
  4  5  1  6
  6  7  2  0
  8  9  1  0
  8  6  1  0
 10 11  1  0
  9 10  1  1
 11 12  2  0
 13 12  1  0
 14 13  1  0
 15 14  2  0
 16 15  1  0
 17 18  1  0
 17 16  2  0
 18 19  2  0
 19 14  1  0
 19 11  1  0
 20  9  1  0
 20 21  2  0
 22 20  1  0
 23 22  1  0
 23 26  1  0
 23 24  1  1
 25 24  1  0
 26 28  1  0
 27 26  2  0
M  END
$$$$
