IEV.pdb
     RDKit          3D

 25 24  0  0  1  0  0  0  0  0999 V2000
   25.5400  -20.4286   -8.7774 C   0  0  0  0  0  0  0  0  0  0  0  0
   25.0877  -21.6312   -9.5761 C   0  0  0  0  0  0  0  0  0  0  0  0
   25.2263  -21.3745  -11.0417 C   0  0  2  0  0  0  0  0  0  0  0  0
   26.6849  -21.0859  -11.3309 C   0  0  0  0  0  0  0  0  0  0  0  0
   24.3302  -20.2686  -11.5555 C   0  0  2  0  0  0  0  0  0  0  0  0
   22.9408  -20.6119  -11.3302 N   0  0  0  0  0  0  0  0  0  0  0  0
   24.5299  -19.9933  -12.9842 C   0  0  0  0  0  0  0  0  0  0  0  0
   25.6741  -19.7419  -13.4811 O   0  0  0  0  0  0  0  0  0  0  0  0
   23.4217  -20.0022  -13.8626 N   0  0  0  0  0  0  0  0  0  0  0  0
   23.6172  -19.8248  -15.2942 C   0  0  1  0  0  0  0  0  0  0  0  0
   22.4119  -20.4182  -15.9618 C   0  0  0  0  0  0  0  0  0  0  0  0
   22.5343  -21.8585  -16.3293 C   0  0  0  0  0  0  0  0  0  0  0  0
   21.4089  -22.6535  -15.7668 C   0  0  0  0  0  0  0  0  0  0  0  0
   20.5072  -22.0326  -15.1492 O   0  0  0  0  0  0  0  0  0  0  0  0
   23.8118  -18.3909  -15.6075 C   0  0  0  0  0  0  0  0  0  0  0  0
   23.0450  -17.5200  -15.1614 O   0  0  0  0  0  0  0  0  0  0  0  0
   21.3339  -24.0316  -15.9051 O   0  0  0  0  0  0  0  0  0  0  0  0
   27.5116  -16.8042  -16.8079 C   0  0  0  0  0  0  0  0  0  0  0  0
   26.3626  -15.9796  -16.2495 C   0  0  2  0  0  0  0  0  0  0  0  0
   26.4040  -16.1443  -14.7489 C   0  0  0  0  0  0  0  0  0  0  0  0
   25.0269  -16.5107  -16.7244 C   0  0  2  0  0  0  0  0  0  0  0  0
   24.8832  -17.9259  -16.4344 N   0  0  0  0  0  0  0  0  0  0  0  0
   24.9385  -16.3313  -18.1824 C   0  0  0  0  0  0  0  0  0  0  0  0
   24.8517  -15.0641  -18.7138 O   0  0  0  0  0  0  0  0  0  0  0  0
   24.9414  -17.3177  -18.9399 O   0  0  0  0  0  0  0  0  0  0  0  0
  2  1  1  0
  3  2  1  0
  3  4  1  1
  5  3  1  0
  5  6  1  6
  7  9  1  0
  7  5  1  0
  8  7  2  0
 10  9  1  0
 10 11  1  6
 12 11  1  0
 13 14  2  0
 13 12  1  0
 15 16  2  0
 15 10  1  0
 17 13  1  0
 19 18  1  6
 20 19  1  0
 21 22  1  6
 21 19  1  0
 22 15  1  0
 23 21  1  0
 24 23  1  0
 25 23  2  0
M  END
$$$$
