IEV.pdb
     RDKit          3D

 25 24  0  0  1  0  0  0  0  0999 V2000
   16.3598  -14.0435  -18.5254 C   0  0  0  0  0  0  0  0  0  0  0  0
   16.4879  -13.3289  -17.1981 C   0  0  0  0  0  0  0  0  0  0  0  0
   17.3181  -12.0946  -17.3406 C   0  0  2  0  0  0  0  0  0  0  0  0
   18.6815  -12.5042  -17.8581 C   0  0  0  0  0  0  0  0  0  0  0  0
   17.4293  -11.2831  -16.0681 C   0  0  2  0  0  0  0  0  0  0  0  0
   16.1151  -10.8457  -15.6430 N   0  0  0  0  0  0  0  0  0  0  0  0
   18.2997  -10.1096  -16.2170 C   0  0  0  0  0  0  0  0  0  0  0  0
   19.5348  -10.2040  -16.5084 O   0  0  0  0  0  0  0  0  0  0  0  0
   17.7669   -8.8126  -16.0340 N   0  0  0  0  0  0  0  0  0  0  0  0
   18.6152   -7.6403  -16.1941 C   0  0  1  0  0  0  0  0  0  0  0  0
   17.6967   -6.4917  -16.4900 C   0  0  0  0  0  0  0  0  0  0  0  0
   17.1732   -6.4407  -17.8857 C   0  0  0  0  0  0  0  0  0  0  0  0
   16.3050   -5.2493  -18.0901 C   0  0  0  0  0  0  0  0  0  0  0  0
   16.1460   -4.4693  -17.1174 O   0  0  0  0  0  0  0  0  0  0  0  0
   19.4343   -7.4349  -14.9779 C   0  0  0  0  0  0  0  0  0  0  0  0
   18.9321   -7.4858  -13.8419 O   0  0  0  0  0  0  0  0  0  0  0  0
   15.6821   -4.9860  -19.3011 O   0  0  0  0  0  0  0  0  0  0  0  0
   23.5605   -8.0540  -15.0216 C   0  0  0  0  0  0  0  0  0  0  0  0
   22.7228   -8.0705  -13.7527 C   0  0  2  0  0  0  0  0  0  0  0  0
   22.0698   -9.4305  -13.6856 C   0  0  0  0  0  0  0  0  0  0  0  0
   21.6145   -7.0412  -13.8158 C   0  0  2  0  0  0  0  0  0  0  0  0
   20.8390   -7.1681  -15.0364 N   0  0  0  0  0  0  0  0  0  0  0  0
   22.2154   -5.6980  -13.7931 C   0  0  0  0  0  0  0  0  0  0  0  0
   22.1186   -4.8843  -14.8996 O   0  0  0  0  0  0  0  0  0  0  0  0
   22.8113   -5.2914  -12.7800 O   0  0  0  0  0  0  0  0  0  0  0  0
  2  1  1  0
  3  2  1  0
  3  4  1  1
  5  3  1  0
  5  6  1  6
  7  9  1  0
  7  5  1  0
  8  7  2  0
 10  9  1  0
 10 11  1  1
 12 11  1  0
 13 14  2  0
 13 12  1  0
 15 16  2  0
 15 10  1  0
 17 13  1  0
 19 18  1  6
 20 19  1  0
 21 22  1  6
 21 19  1  0
 22 15  1  0
 23 21  1  0
 24 23  1  0
 25 23  2  0
M  END
$$$$
