IEV.pdb
     RDKit          3D

 25 24  0  0  1  0  0  0  0  0999 V2000
   26.0583  -15.0579  -18.4845 C   0  0  0  0  0  0  0  0  0  0  0  0
   26.0324  -16.5454  -18.2104 C   0  0  0  0  0  0  0  0  0  0  0  0
   25.6608  -16.8142  -16.7882 C   0  0  2  0  0  0  0  0  0  0  0  0
   26.6390  -16.0730  -15.9004 C   0  0  0  0  0  0  0  0  0  0  0  0
   25.6018  -18.2857  -16.4400 C   0  0  2  0  0  0  0  0  0  0  0  0
   24.9166  -19.0156  -17.4872 N   0  0  0  0  0  0  0  0  0  0  0  0
   24.9285  -18.5400  -15.1598 C   0  0  0  0  0  0  0  0  0  0  0  0
   25.2364  -17.9256  -14.0887 O   0  0  0  0  0  0  0  0  0  0  0  0
   23.8938  -19.5012  -15.0894 N   0  0  0  0  0  0  0  0  0  0  0  0
   23.2505  -19.7968  -13.8174 C   0  0  1  0  0  0  0  0  0  0  0  0
   21.9399  -20.4477  -14.1481 C   0  0  0  0  0  0  0  0  0  0  0  0
   21.1165  -20.8506  -12.9716 C   0  0  0  0  0  0  0  0  0  0  0  0
   19.8734  -21.5478  -13.4000 C   0  0  0  0  0  0  0  0  0  0  0  0
   19.6488  -21.6351  -14.6337 O   0  0  0  0  0  0  0  0  0  0  0  0
   24.1323  -20.6481  -12.9867 C   0  0  0  0  0  0  0  0  0  0  0  0
   24.5988  -21.7156  -13.4205 O   0  0  0  0  0  0  0  0  0  0  0  0
   18.9779  -22.0908  -12.4906 O   0  0  0  0  0  0  0  0  0  0  0  0
   25.2935  -19.7686   -8.7931 C   0  0  0  0  0  0  0  0  0  0  0  0
   26.1754  -20.3913   -9.8638 C   0  0  2  0  0  0  0  0  0  0  0  0
   26.8222  -19.2472  -10.6077 C   0  0  0  0  0  0  0  0  0  0  0  0
   25.3511  -21.1715  -10.8656 C   0  0  2  0  0  0  0  0  0  0  0  0
   24.4968  -20.2968  -11.6482 N   0  0  0  0  0  0  0  0  0  0  0  0
   24.4916  -22.1171  -10.1358 C   0  0  0  0  0  0  0  0  0  0  0  0
   25.0390  -23.2486   -9.5736 O   0  0  0  0  0  0  0  0  0  0  0  0
   23.2719  -21.9018  -10.0228 O   0  0  0  0  0  0  0  0  0  0  0  0
  2  1  1  0
  3  2  1  0
  3  4  1  1
  5  3  1  0
  5  6  1  6
  7  9  1  0
  7  5  1  0
  8  7  2  0
 10  9  1  0
 10 11  1  6
 12 11  1  0
 13 14  2  0
 13 12  1  0
 15 16  2  0
 15 10  1  0
 17 13  1  0
 19 18  1  1
 20 19  1  0
 21 22  1  1
 21 19  1  0
 22 15  1  0
 23 21  1  0
 24 23  1  0
 25 23  2  0
M  END
$$$$
