IEV.pdb
     RDKit          3D

 25 24  0  0  1  0  0  0  0  0999 V2000
   11.7169  -14.1076  -13.0193 C   0  0  0  0  0  0  0  0  0  0  0  0
   13.0121  -13.6636  -13.6626 C   0  0  0  0  0  0  0  0  0  0  0  0
   13.6718  -12.6018  -12.8439 C   0  0  2  0  0  0  0  0  0  0  0  0
   12.7120  -11.4357  -12.7278 C   0  0  0  0  0  0  0  0  0  0  0  0
   15.0157  -12.1618  -13.3827 C   0  0  2  0  0  0  0  0  0  0  0  0
   15.9118  -13.2971  -13.4662 N   0  0  0  0  0  0  0  0  0  0  0  0
   15.6420  -11.1168  -12.5626 C   0  0  0  0  0  0  0  0  0  0  0  0
   16.2163  -11.3662  -11.4547 O   0  0  0  0  0  0  0  0  0  0  0  0
   15.6188   -9.7724  -13.0005 N   0  0  0  0  0  0  0  0  0  0  0  0
   16.3837   -8.7557  -12.2930 C   0  0  1  0  0  0  0  0  0  0  0  0
   17.2597   -8.0972  -13.3175 C   0  0  0  0  0  0  0  0  0  0  0  0
   18.0688   -6.9486  -12.8170 C   0  0  0  0  0  0  0  0  0  0  0  0
   18.9344   -6.3928  -13.8926 C   0  0  0  0  0  0  0  0  0  0  0  0
   18.8611   -5.1591  -14.1217 O   0  0  0  0  0  0  0  0  0  0  0  0
   15.4683   -7.8111  -11.6133 C   0  0  0  0  0  0  0  0  0  0  0  0
   14.4867   -7.3239  -12.2002 O   0  0  0  0  0  0  0  0  0  0  0  0
   19.8000   -7.1863  -14.6307 O   0  0  0  0  0  0  0  0  0  0  0  0
   15.6658   -7.1434   -7.4174 C   0  0  0  0  0  0  0  0  0  0  0  0
   14.4137   -6.8291   -8.2207 C   0  0  2  0  0  0  0  0  0  0  0  0
   13.6113   -8.1068   -8.2848 C   0  0  0  0  0  0  0  0  0  0  0  0
   14.7592   -6.4422   -9.6429 C   0  0  2  0  0  0  0  0  0  0  0  0
   15.6566   -7.4062  -10.2537 N   0  0  0  0  0  0  0  0  0  0  0  0
   15.4350   -5.1350   -9.6261 C   0  0  0  0  0  0  0  0  0  0  0  0
   14.7234   -3.9988   -9.3124 O   0  0  0  0  0  0  0  0  0  0  0  0
   16.6464   -5.0485   -9.8937 O   0  0  0  0  0  0  0  0  0  0  0  0
  2  1  1  0
  3  2  1  0
  3  4  1  6
  5  3  1  0
  5  6  1  1
  7  9  1  0
  7  5  1  0
  8  7  2  0
 10  9  1  0
 10 11  1  6
 12 11  1  0
 13 14  2  0
 13 12  1  0
 15 16  2  0
 15 10  1  0
 17 13  1  0
 19 18  1  1
 20 19  1  0
 21 22  1  1
 21 19  1  0
 22 15  1  0
 23 21  1  0
 24 23  1  0
 25 23  2  0
M  END
$$$$
