IEV.pdb
     RDKit          3D

 25 24  0  0  1  0  0  0  0  0999 V2000
   11.4072  -12.9807  -13.5831 C   0  0  0  0  0  0  0  0  0  0  0  0
   12.8519  -12.9272  -14.0286 C   0  0  0  0  0  0  0  0  0  0  0  0
   13.6674  -12.1101  -13.0799 C   0  0  2  0  0  0  0  0  0  0  0  0
   13.0440  -10.7323  -12.9927 C   0  0  0  0  0  0  0  0  0  0  0  0
   15.1339  -12.0326  -13.4452 C   0  0  2  0  0  0  0  0  0  0  0  0
   15.7076  -13.3626  -13.4767 N   0  0  0  0  0  0  0  0  0  0  0  0
   15.9076  -11.1993  -12.5158 C   0  0  0  0  0  0  0  0  0  0  0  0
   16.3084  -11.6235  -11.3849 O   0  0  0  0  0  0  0  0  0  0  0  0
   16.2325   -9.8692  -12.8692 N   0  0  0  0  0  0  0  0  0  0  0  0
   17.0144   -9.0385  -11.9648 C   0  0  1  0  0  0  0  0  0  0  0  0
   18.2521   -8.6456  -12.7160 C   0  0  0  0  0  0  0  0  0  0  0  0
   19.2254   -7.8174  -11.9469 C   0  0  0  0  0  0  0  0  0  0  0  0
   20.4809   -7.6096  -12.7187 C   0  0  0  0  0  0  0  0  0  0  0  0
   21.3629   -6.8722  -12.2106 O   0  0  0  0  0  0  0  0  0  0  0  0
   16.2107   -7.8788  -11.5160 C   0  0  0  0  0  0  0  0  0  0  0  0
   15.5998   -7.1608  -12.3263 O   0  0  0  0  0  0  0  0  0  0  0  0
   20.6949   -8.1971  -13.9568 O   0  0  0  0  0  0  0  0  0  0  0  0
   15.3893   -7.1536   -7.3878 C   0  0  0  0  0  0  0  0  0  0  0  0
   14.5399   -6.5563   -8.4986 C   0  0  2  0  0  0  0  0  0  0  0  0
   13.4868   -7.5848   -8.8356 C   0  0  0  0  0  0  0  0  0  0  0  0
   15.3601   -6.3246   -9.7497 C   0  0  2  0  0  0  0  0  0  0  0  0
   16.0901   -7.5184  -10.1363 N   0  0  0  0  0  0  0  0  0  0  0  0
   16.3374   -5.2571   -9.4829 C   0  0  0  0  0  0  0  0  0  0  0  0
   15.9048   -3.9658   -9.2802 O   0  0  0  0  0  0  0  0  0  0  0  0
   17.5537   -5.5130   -9.4393 O   0  0  0  0  0  0  0  0  0  0  0  0
  2  1  1  0
  3  2  1  0
  3  4  1  6
  5  3  1  0
  5  6  1  1
  7  9  1  0
  7  5  1  0
  8  7  2  0
 10  9  1  0
 10 11  1  6
 12 11  1  0
 13 14  2  0
 13 12  1  0
 15 16  2  0
 15 10  1  0
 17 13  1  0
 19 18  1  1
 20 19  1  0
 21 22  1  1
 21 19  1  0
 22 15  1  0
 23 21  1  0
 24 23  1  0
 25 23  2  0
M  END
$$$$
