IEV.pdb
     RDKit          3D

 25 24  0  0  1  0  0  0  0  0999 V2000
   24.6275  -15.1741  -18.6073 C   0  0  0  0  0  0  0  0  0  0  0  0
   24.8472  -14.1454  -17.5200 C   0  0  0  0  0  0  0  0  0  0  0  0
   23.9389  -12.9741  -17.7096 C   0  0  2  0  0  0  0  0  0  0  0  0
   24.1813  -12.4129  -19.0955 C   0  0  0  0  0  0  0  0  0  0  0  0
   24.0873  -11.9076  -16.6463 C   0  0  2  0  0  0  0  0  0  0  0  0
   23.9123  -12.4911  -15.3317 N   0  0  0  0  0  0  0  0  0  0  0  0
   23.1325  -10.8041  -16.8113 C   0  0  0  0  0  0  0  0  0  0  0  0
   23.1613  -10.0154  -17.8096 O   0  0  0  0  0  0  0  0  0  0  0  0
   22.1321  -10.5892  -15.8353 N   0  0  0  0  0  0  0  0  0  0  0  0
   21.2401   -9.4432  -15.9370 C   0  0  1  0  0  0  0  0  0  0  0  0
   19.8898   -9.9179  -15.4879 C   0  0  0  0  0  0  0  0  0  0  0  0
   18.8434   -8.8591  -15.3943 C   0  0  0  0  0  0  0  0  0  0  0  0
   17.5606   -9.4159  -14.8849 C   0  0  0  0  0  0  0  0  0  0  0  0
   17.5354  -10.6334  -14.5740 O   0  0  0  0  0  0  0  0  0  0  0  0
   21.7625   -8.3182  -15.1284 C   0  0  0  0  0  0  0  0  0  0  0  0
   22.2281   -8.4993  -13.9901 O   0  0  0  0  0  0  0  0  0  0  0  0
   16.4189   -8.6401  -14.7487 O   0  0  0  0  0  0  0  0  0  0  0  0
   21.9316   -4.2729  -16.6581 C   0  0  0  0  0  0  0  0  0  0  0  0
   22.9776   -4.8416  -15.7123 C   0  0  2  0  0  0  0  0  0  0  0  0
   24.0257   -5.5016  -16.5763 C   0  0  0  0  0  0  0  0  0  0  0  0
   22.3856   -5.9145  -14.8235 C   0  0  2  0  0  0  0  0  0  0  0  0
   21.7628   -6.9684  -15.6038 N   0  0  0  0  0  0  0  0  0  0  0  0
   21.3523   -5.3048  -13.9712 C   0  0  0  0  0  0  0  0  0  0  0  0
   21.7157   -4.4326  -12.9697 O   0  0  0  0  0  0  0  0  0  0  0  0
   20.1507   -5.5722  -14.1489 O   0  0  0  0  0  0  0  0  0  0  0  0
  2  1  1  0
  3  2  1  0
  3  4  1  6
  5  3  1  0
  5  6  1  1
  7  9  1  0
  7  5  1  0
  8  7  2  0
 10  9  1  0
 10 11  1  1
 12 11  1  0
 13 14  2  0
 13 12  1  0
 15 16  2  0
 15 10  1  0
 17 13  1  0
 19 18  1  6
 20 19  1  0
 21 22  1  6
 21 19  1  0
 22 15  1  0
 23 21  1  0
 24 23  1  0
 25 23  2  0
M  END
$$$$
