IEV.pdb
     RDKit          3D

 25 24  0  0  1  0  0  0  0  0999 V2000
   16.9463  -14.7261  -18.4740 C   0  0  0  0  0  0  0  0  0  0  0  0
   16.9629  -13.9302  -17.1876 C   0  0  0  0  0  0  0  0  0  0  0  0
   17.7069  -12.6471  -17.3697 C   0  0  2  0  0  0  0  0  0  0  0  0
   19.0913  -12.9779  -17.8878 C   0  0  0  0  0  0  0  0  0  0  0  0
   17.7716  -11.7960  -16.1201 C   0  0  2  0  0  0  0  0  0  0  0  0
   16.4335  -11.4430  -15.6912 N   0  0  0  0  0  0  0  0  0  0  0  0
   18.5534  -10.5673  -16.3096 C   0  0  0  0  0  0  0  0  0  0  0  0
   19.7737  -10.5793  -16.6705 O   0  0  0  0  0  0  0  0  0  0  0  0
   17.9481   -9.3087  -16.0882 N   0  0  0  0  0  0  0  0  0  0  0  0
   18.7018   -8.0822  -16.3051 C   0  0  1  0  0  0  0  0  0  0  0  0
   17.7004   -7.0335  -16.6898 C   0  0  0  0  0  0  0  0  0  0  0  0
   16.7434   -7.4325  -17.7619 C   0  0  0  0  0  0  0  0  0  0  0  0
   15.3437   -7.0959  -17.3844 C   0  0  0  0  0  0  0  0  0  0  0  0
   15.0336   -5.8796  -17.3177 O   0  0  0  0  0  0  0  0  0  0  0  0
   19.4719   -7.7362  -15.0888 C   0  0  0  0  0  0  0  0  0  0  0  0
   18.9515   -7.7705  -13.9604 O   0  0  0  0  0  0  0  0  0  0  0  0
   14.3956   -8.0707  -17.1108 O   0  0  0  0  0  0  0  0  0  0  0  0
   23.6498   -7.9546  -14.9450 C   0  0  0  0  0  0  0  0  0  0  0  0
   22.7544   -7.9388  -13.7162 C   0  0  2  0  0  0  0  0  0  0  0  0
   22.2201   -9.3421  -13.5548 C   0  0  0  0  0  0  0  0  0  0  0  0
   21.5651   -7.0242  -13.9179 C   0  0  2  0  0  0  0  0  0  0  0  0
   20.8477   -7.3454  -15.1385 N   0  0  0  0  0  0  0  0  0  0  0  0
   22.0475   -5.6379  -14.0221 C   0  0  0  0  0  0  0  0  0  0  0  0
   22.5188   -4.9893  -12.9027 O   0  0  0  0  0  0  0  0  0  0  0  0
   22.0326   -5.0461  -15.1160 O   0  0  0  0  0  0  0  0  0  0  0  0
  2  1  1  0
  3  2  1  0
  3  4  1  1
  5  3  1  0
  5  6  1  6
  7  9  1  0
  7  5  1  0
  8  7  2  0
 10  9  1  0
 10 11  1  1
 12 11  1  0
 13 14  2  0
 13 12  1  0
 15 16  2  0
 15 10  1  0
 17 13  1  0
 19 18  1  6
 20 19  1  0
 21 22  1  6
 21 19  1  0
 22 15  1  0
 23 21  1  0
 24 23  1  0
 25 23  2  0
M  END
$$$$
