IEV.pdb
     RDKit          3D

 25 24  0  0  1  0  0  0  0  0999 V2000
   28.0745  -10.8501  -16.2598 C   0  0  0  0  0  0  0  0  0  0  0  0
   26.7440  -11.5669  -16.3270 C   0  0  0  0  0  0  0  0  0  0  0  0
   25.6419  -10.6071  -16.6389 C   0  0  2  0  0  0  0  0  0  0  0  0
   25.5633   -9.6011  -15.5092 C   0  0  0  0  0  0  0  0  0  0  0  0
   24.3044  -11.2713  -16.8834 C   0  0  2  0  0  0  0  0  0  0  0  0
   24.4276  -12.2614  -17.9339 N   0  0  0  0  0  0  0  0  0  0  0  0
   23.2528  -10.3136  -17.2489 C   0  0  0  0  0  0  0  0  0  0  0  0
   23.2196   -9.7292  -18.3789 O   0  0  0  0  0  0  0  0  0  0  0  0
   22.2254  -10.0124  -16.3252 N   0  0  0  0  0  0  0  0  0  0  0  0
   21.2154   -9.0151  -16.6486 C   0  0  1  0  0  0  0  0  0  0  0  0
   19.9258   -9.7613  -16.8234 C   0  0  0  0  0  0  0  0  0  0  0  0
   18.7324   -8.9104  -17.0997 C   0  0  0  0  0  0  0  0  0  0  0  0
   17.8911   -8.7541  -15.8819 C   0  0  0  0  0  0  0  0  0  0  0  0
   17.4011   -7.6196  -15.6528 O   0  0  0  0  0  0  0  0  0  0  0  0
   21.1559   -7.9873  -15.5844 C   0  0  0  0  0  0  0  0  0  0  0  0
   21.1922   -8.2972  -14.3811 O   0  0  0  0  0  0  0  0  0  0  0  0
   17.6413   -9.8071  -15.0143 O   0  0  0  0  0  0  0  0  0  0  0  0
   22.0873   -3.9470  -16.3971 C   0  0  0  0  0  0  0  0  0  0  0  0
   22.2137   -4.6012  -15.0303 C   0  0  2  0  0  0  0  0  0  0  0  0
   23.5206   -5.3579  -15.0344 C   0  0  0  0  0  0  0  0  0  0  0  0
   21.1091   -5.6111  -14.8032 C   0  0  2  0  0  0  0  0  0  0  0  0
   21.0540   -6.5896  -15.8742 N   0  0  0  0  0  0  0  0  0  0  0  0
   19.8205   -4.9013  -14.7653 C   0  0  0  0  0  0  0  0  0  0  0  0
   18.9167   -5.0647  -15.7912 O   0  0  0  0  0  0  0  0  0  0  0  0
   19.5410   -4.1532  -13.8119 O   0  0  0  0  0  0  0  0  0  0  0  0
  2  1  1  0
  3  2  1  0
  3  4  1  1
  5  3  1  0
  5  6  1  6
  7  9  1  0
  7  5  1  0
  8  7  2  0
 10  9  1  0
 10 11  1  1
 12 11  1  0
 13 14  2  0
 13 12  1  0
 15 16  2  0
 15 10  1  0
 17 13  1  0
 19 18  1  6
 20 19  1  0
 21 22  1  6
 21 19  1  0
 22 15  1  0
 23 21  1  0
 24 23  1  0
 25 23  2  0
M  END
$$$$
