IEV.pdb
     RDKit          3D

 25 24  0  0  1  0  0  0  0  0999 V2000
   19.6055  -14.3428    1.1823 C   0  0  0  0  0  0  0  0  0  0  0  0
   18.3446  -14.0976    1.9813 C   0  0  0  0  0  0  0  0  0  0  0  0
   18.4282  -14.7614    3.3174 C   0  0  2  0  0  0  0  0  0  0  0  0
   18.6055  -16.2486    3.0913 C   0  0  0  0  0  0  0  0  0  0  0  0
   17.2456  -14.4748    4.2170 C   0  0  2  0  0  0  0  0  0  0  0  0
   17.1288  -13.0484    4.4425 N   0  0  0  0  0  0  0  0  0  0  0  0
   17.3391  -15.1584    5.5134 C   0  0  0  0  0  0  0  0  0  0  0  0
   17.9729  -14.6696    6.5027 O   0  0  0  0  0  0  0  0  0  0  0  0
   16.7080  -16.4109    5.6938 N   0  0  0  0  0  0  0  0  0  0  0  0
   16.8399  -17.1254    6.9553 C   0  0  1  0  0  0  0  0  0  0  0  0
   15.6167  -17.9843    7.0842 C   0  0  0  0  0  0  0  0  0  0  0  0
   15.5812  -18.8618    8.2897 C   0  0  0  0  0  0  0  0  0  0  0  0
   15.2017  -18.0901    9.5044 C   0  0  0  0  0  0  0  0  0  0  0  0
   14.8265  -16.9009    9.3467 O   0  0  0  0  0  0  0  0  0  0  0  0
   18.1017  -17.8999    6.9720 C   0  0  0  0  0  0  0  0  0  0  0  0
   18.5042  -18.5052    5.9636 O   0  0  0  0  0  0  0  0  0  0  0  0
   15.2515  -18.6401   10.7767 O   0  0  0  0  0  0  0  0  0  0  0  0
   21.9035  -17.0511    8.3463 C   0  0  0  0  0  0  0  0  0  0  0  0
   21.2031  -18.2221    9.0172 C   0  0  2  0  0  0  0  0  0  0  0  0
   22.2503  -19.2912    9.2198 C   0  0  0  0  0  0  0  0  0  0  0  0
   20.1316  -18.8050    8.1206 C   0  0  2  0  0  0  0  0  0  0  0  0
   18.9255  -17.9973    8.1381 N   0  0  0  0  0  0  0  0  0  0  0  0
   19.7883  -20.1505    8.6080 C   0  0  0  0  0  0  0  0  0  0  0  0
   20.3180  -21.2604    7.9889 O   0  0  0  0  0  0  0  0  0  0  0  0
   19.0215  -20.2929    9.5768 O   0  0  0  0  0  0  0  0  0  0  0  0
  2  1  1  0
  3  2  1  0
  3  4  1  6
  5  3  1  0
  5  6  1  1
  7  9  1  0
  7  5  1  0
  8  7  2  0
 10  9  1  0
 10 11  1  6
 12 11  1  0
 13 14  2  0
 13 12  1  0
 15 16  2  0
 15 10  1  0
 17 13  1  0
 19 18  1  6
 20 19  1  0
 21 22  1  1
 21 19  1  0
 22 15  1  0
 23 21  1  0
 24 23  1  0
 25 23  2  0
M  END
$$$$
