IEV.pdb
     RDKit          3D

 25 24  0  0  1  0  0  0  0  0999 V2000
   22.3271  -17.6466  -19.7629 C   0  0  0  0  0  0  0  0  0  0  0  0
   21.2884  -16.8059  -19.0537 C   0  0  0  0  0  0  0  0  0  0  0  0
   21.8276  -15.4459  -18.7494 C   0  0  2  0  0  0  0  0  0  0  0  0
   23.0432  -15.6119  -17.8610 C   0  0  0  0  0  0  0  0  0  0  0  0
   20.8119  -14.5108  -18.1296 C   0  0  2  0  0  0  0  0  0  0  0  0
   19.6599  -14.3842  -18.9989 N   0  0  0  0  0  0  0  0  0  0  0  0
   21.3590  -13.1745  -17.8619 C   0  0  0  0  0  0  0  0  0  0  0  0
   22.3776  -12.9856  -17.1228 O   0  0  0  0  0  0  0  0  0  0  0  0
   20.7469  -12.0370  -18.4372 N   0  0  0  0  0  0  0  0  0  0  0  0
   21.3127  -10.7123  -18.2264 C   0  0  1  0  0  0  0  0  0  0  0  0
   20.8451   -9.8660  -19.3735 C   0  0  0  0  0  0  0  0  0  0  0  0
   21.2291   -8.4268  -19.2984 C   0  0  0  0  0  0  0  0  0  0  0  0
   20.6398   -7.6545  -20.4260 C   0  0  0  0  0  0  0  0  0  0  0  0
   19.4082   -7.7842  -20.6414 O   0  0  0  0  0  0  0  0  0  0  0  0
   20.8988  -10.1863  -16.9057 C   0  0  0  0  0  0  0  0  0  0  0  0
   19.7383  -10.3321  -16.4846 O   0  0  0  0  0  0  0  0  0  0  0  0
   21.4005   -6.8147  -21.2259 O   0  0  0  0  0  0  0  0  0  0  0  0
   23.5533   -9.7208  -13.8512 C   0  0  0  0  0  0  0  0  0  0  0  0
   22.0536   -9.6519  -13.6105 C   0  0  2  0  0  0  0  0  0  0  0  0
   21.5603  -11.0783  -13.5567 C   0  0  0  0  0  0  0  0  0  0  0  0
   21.3452   -8.9734  -14.7636 C   0  0  2  0  0  0  0  0  0  0  0  0
   21.8006   -9.4855  -16.0434 N   0  0  0  0  0  0  0  0  0  0  0  0
   21.6395   -7.5323  -14.7166 C   0  0  0  0  0  0  0  0  0  0  0  0
   22.4105   -6.9570  -15.7016 O   0  0  0  0  0  0  0  0  0  0  0  0
   21.1962   -6.8286  -13.7919 O   0  0  0  0  0  0  0  0  0  0  0  0
  2  1  1  0
  3  2  1  0
  3  4  1  1
  5  3  1  0
  5  6  1  6
  7  9  1  0
  7  5  1  0
  8  7  2  0
 10  9  1  0
 10 11  1  6
 12 11  1  0
 13 14  2  0
 13 12  1  0
 15 16  2  0
 15 10  1  0
 17 13  1  0
 19 18  1  6
 20 19  1  0
 21 22  1  6
 21 19  1  0
 22 15  1  0
 23 21  1  0
 24 23  1  0
 25 23  2  0
M  END
$$$$
