IEV.pdb
     RDKit          3D

 25 24  0  0  1  0  0  0  0  0999 V2000
   30.9932  -20.1901  -12.3083 C   0  0  0  0  0  0  0  0  0  0  0  0
   29.8362  -21.1551  -12.4462 C   0  0  0  0  0  0  0  0  0  0  0  0
   28.5400  -20.4168  -12.5337 C   0  0  2  0  0  0  0  0  0  0  0  0
   28.4240  -19.5276  -11.3129 C   0  0  0  0  0  0  0  0  0  0  0  0
   27.3328  -21.3174  -12.6800 C   0  0  2  0  0  0  0  0  0  0  0  0
   27.5032  -22.1928  -13.8218 N   0  0  0  0  0  0  0  0  0  0  0  0
   26.0797  -20.5672  -12.8347 C   0  0  0  0  0  0  0  0  0  0  0  0
   25.5941  -19.8440  -11.9070 O   0  0  0  0  0  0  0  0  0  0  0  0
   25.3664  -20.6354  -14.0537 N   0  0  0  0  0  0  0  0  0  0  0  0
   24.1306  -19.8853  -14.2250 C   0  0  1  0  0  0  0  0  0  0  0  0
   23.9603  -19.6833  -15.7018 C   0  0  0  0  0  0  0  0  0  0  0  0
   22.7363  -18.9313  -16.1028 C   0  0  0  0  0  0  0  0  0  0  0  0
   21.6643  -19.8563  -16.5614 C   0  0  0  0  0  0  0  0  0  0  0  0
   22.0078  -21.0019  -16.9478 O   0  0  0  0  0  0  0  0  0  0  0  0
   23.0024  -20.6137  -13.6013 C   0  0  0  0  0  0  0  0  0  0  0  0
   22.8654  -21.8410  -13.7435 O   0  0  0  0  0  0  0  0  0  0  0  0
   20.3261  -19.4916  -16.5719 O   0  0  0  0  0  0  0  0  0  0  0  0
   20.8665  -18.9141  -10.3850 C   0  0  0  0  0  0  0  0  0  0  0  0
   20.9837  -20.4107  -10.6268 C   0  0  2  0  0  0  0  0  0  0  0  0
   22.3192  -20.8345  -10.0634 C   0  0  0  0  0  0  0  0  0  0  0  0
   20.9987  -20.7259  -12.1074 C   0  0  2  0  0  0  0  0  0  0  0  0
   22.0120  -19.9553  -12.8054 N   0  0  0  0  0  0  0  0  0  0  0  0
   19.6871  -20.3794  -12.6776 C   0  0  0  0  0  0  0  0  0  0  0  0
   18.5724  -21.1075  -12.3266 O   0  0  0  0  0  0  0  0  0  0  0  0
   19.5775  -19.4320  -13.4759 O   0  0  0  0  0  0  0  0  0  0  0  0
  2  1  1  0
  3  2  1  0
  3  4  1  1
  5  3  1  0
  5  6  1  6
  7  9  1  0
  7  5  1  0
  8  7  2  0
 10  9  1  0
 10 11  1  6
 12 11  1  0
 13 14  2  0
 13 12  1  0
 15 16  2  0
 15 10  1  0
 17 13  1  0
 19 18  1  6
 20 19  1  0
 21 22  1  6
 21 19  1  0
 22 15  1  0
 23 21  1  0
 24 23  1  0
 25 23  2  0
M  END
$$$$
