ARG.pdb
     RDKit          3D

 21 20  0  0  1  0  0  0  0  0999 V2000
   27.2406  -22.8011  -19.2568 C   0  0  0  0  0  0  0  0  0  0  0  0
   27.1401  -21.4455  -18.6123 C   0  0  2  0  0  0  0  0  0  0  0  0
   28.4428  -20.9460  -18.2840 N   0  0  0  0  0  0  0  0  0  0  0  0
   26.2538  -21.4934  -17.4238 C   0  0  0  0  0  0  0  0  0  0  0  0
   25.0776  -21.9326  -17.5597 O   0  0  0  0  0  0  0  0  0  0  0  0
   26.3146  -19.6392   -8.8076 N   0  0  0  0  0  0  0  0  0  0  0  0
   25.2716  -20.6231   -8.9610 C   0  0  0  0  0  0  0  0  0  0  0  0
   24.3967  -20.8110   -8.0336 N   0  0  0  0  0  0  0  0  0  0  0  0
   25.1698  -21.4174  -10.1319 N   0  0  0  0  0  0  0  0  0  0  0  0
   26.0255  -21.2823  -11.2843 C   0  0  0  0  0  0  0  0  0  0  0  0
   25.2608  -21.1222  -12.5879 C   0  0  0  0  0  0  0  0  0  0  0  0
   26.2831  -21.1218  -13.6962 C   0  0  0  0  0  0  0  0  0  0  0  0
   25.7061  -20.9754  -15.0552 C   0  0  2  0  0  0  0  0  0  0  0  0
   26.6343  -21.0786  -16.1399 N   0  0  0  0  0  0  0  0  0  0  0  0
   24.9408  -19.6809  -15.1232 C   0  0  0  0  0  0  0  0  0  0  0  0
   25.5275  -18.5796  -15.2343 O   0  0  0  0  0  0  0  0  0  0  0  0
   23.5728  -21.4504   -8.1652 N   0  0  0  0  0  0  0  0  0  0  0  0
   23.5126  -19.6587  -15.0627 C   0  0  0  0  0  0  0  0  0  0  0  0
   22.7747  -18.3906  -15.0926 C   0  0  0  0  0  0  0  0  0  0  0  0
   22.0992  -18.1926  -16.3786 O   0  0  0  0  0  0  0  0  0  0  0  0
   22.3168  -18.9579  -17.3392 O   0  0  0  0  0  0  0  0  0  0  0  0
  2  1  1  1
  3  2  1  0
  4  5  2  0
  4  2  1  0
  7  6  1  0
  8  7  2  0
  9  7  1  0
 10  9  1  0
 10 11  1  0
 11 12  1  0
 13 12  1  1
 13 14  1  0
 14  4  1  0
 15 13  1  0
 15 17  1  0
 16 15  2  0
 18 17  1  0
 18 19  1  0
 19 21  1  0
 20 19  2  0
M  END
$$$$
