ARG.pdb
     RDKit          3D

 21 20  0  0  1  0  0  0  0  0999 V2000
   16.1757   -7.5057  -16.7114 C   0  0  0  0  0  0  0  0  0  0  0  0
   17.0992   -6.4788  -16.1151 C   0  0  2  0  0  0  0  0  0  0  0  0
   17.7057   -5.6881  -17.1452 N   0  0  0  0  0  0  0  0  0  0  0  0
   18.1146   -7.1257  -15.2486 C   0  0  0  0  0  0  0  0  0  0  0  0
   17.7242   -7.8236  -14.2712 O   0  0  0  0  0  0  0  0  0  0  0  0
   23.4715  -12.3023  -18.3410 N   0  0  0  0  0  0  0  0  0  0  0  0
   22.0388  -12.4543  -18.2789 C   0  0  0  0  0  0  0  0  0  0  0  0
   21.4359  -13.3450  -18.9885 N   0  0  0  0  0  0  0  0  0  0  0  0
   21.2431  -11.6331  -17.4393 N   0  0  0  0  0  0  0  0  0  0  0  0
   21.7634  -10.5898  -16.5912 C   0  0  0  0  0  0  0  0  0  0  0  0
   20.6800   -9.7622  -15.9194 C   0  0  0  0  0  0  0  0  0  0  0  0
   21.3720   -8.6111  -15.2341 C   0  0  0  0  0  0  0  0  0  0  0  0
   20.4502   -7.6507  -14.5792 C   0  0  2  0  0  0  0  0  0  0  0  0
   19.4991   -7.0154  -15.4397 N   0  0  0  0  0  0  0  0  0  0  0  0
   21.2625   -6.6298  -13.8283 C   0  0  0  0  0  0  0  0  0  0  0  0
   22.1350   -6.9716  -12.9968 O   0  0  0  0  0  0  0  0  0  0  0  0
   20.4010  -13.5130  -18.9116 N   0  0  0  0  0  0  0  0  0  0  0  0
   21.0685   -5.2285  -14.0352 C   0  0  0  0  0  0  0  0  0  0  0  0
   21.9818   -4.2438  -13.4438 C   0  0  0  0  0  0  0  0  0  0  0  0
   21.6397   -2.8790  -13.8555 O   0  0  0  0  0  0  0  0  0  0  0  0
   20.6566   -2.6610  -14.5916 O   0  0  0  0  0  0  0  0  0  0  0  0
  2  1  1  6
  3  2  1  0
  4  5  2  0
  4  2  1  0
  7  6  1  0
  8  7  2  0
  9  7  1  0
 10  9  1  0
 10 11  1  0
 11 12  1  0
 13 12  1  6
 13 14  1  0
 14  4  1  0
 15 13  1  0
 15 17  1  0
 16 15  2  0
 18 17  1  0
 18 19  1  0
 19 21  1  0
 20 19  2  0
M  END
$$$$
