ARG.pdb
     RDKit          3D

 21 20  0  0  1  0  0  0  0  0999 V2000
   26.9073  -16.7113  -16.5104 C   0  0  0  0  0  0  0  0  0  0  0  0
   27.7270  -17.8173  -15.9038 C   0  0  2  0  0  0  0  0  0  0  0  0
   28.6402  -18.3550  -16.8688 N   0  0  0  0  0  0  0  0  0  0  0  0
   26.8499  -18.8679  -15.3317 C   0  0  0  0  0  0  0  0  0  0  0  0
   26.6194  -19.9055  -16.0137 O   0  0  0  0  0  0  0  0  0  0  0  0
   24.7654  -20.9615   -7.2714 N   0  0  0  0  0  0  0  0  0  0  0  0
   25.9380  -20.4679   -7.9504 C   0  0  0  0  0  0  0  0  0  0  0  0
   26.9126  -19.9418   -7.2918 N   0  0  0  0  0  0  0  0  0  0  0  0
   26.0621  -20.5419   -9.3616 N   0  0  0  0  0  0  0  0  0  0  0  0
   25.3379  -21.4690  -10.1951 C   0  0  0  0  0  0  0  0  0  0  0  0
   25.6985  -21.3645  -11.6679 C   0  0  0  0  0  0  0  0  0  0  0  0
   25.3155  -19.9759  -12.1134 C   0  0  0  0  0  0  0  0  0  0  0  0
   25.3368  -19.7819  -13.5841 C   0  0  2  0  0  0  0  0  0  0  0  0
   26.2481  -18.7898  -14.0679 N   0  0  0  0  0  0  0  0  0  0  0  0
   23.9360  -19.5034  -14.0596 C   0  0  0  0  0  0  0  0  0  0  0  0
   23.4155  -18.3710  -13.9327 O   0  0  0  0  0  0  0  0  0  0  0  0
   27.7449  -19.5157   -7.7721 N   0  0  0  0  0  0  0  0  0  0  0  0
   23.1443  -20.5228  -14.6748 C   0  0  0  0  0  0  0  0  0  0  0  0
   21.7861  -20.2393  -15.1526 C   0  0  0  0  0  0  0  0  0  0  0  0
   20.7763  -20.6367  -14.1669 O   0  0  0  0  0  0  0  0  0  0  0  0
   21.1120  -21.1271  -13.0702 O   0  0  0  0  0  0  0  0  0  0  0  0
  2  1  1  6
  3  2  1  0
  4  5  2  0
  4  2  1  0
  7  6  1  0
  8  7  2  0
  9  7  1  0
 10  9  1  0
 10 11  1  0
 11 12  1  0
 13 12  1  1
 13 14  1  0
 14  4  1  0
 15 13  1  0
 15 17  1  0
 16 15  2  0
 18 17  1  0
 18 19  1  0
 19 21  1  0
 20 19  2  0
M  END
$$$$
