ARG.pdb
     RDKit          3D

 21 20  0  0  1  0  0  0  0  0999 V2000
   19.3908  -13.6383  -17.7908 C   0  0  0  0  0  0  0  0  0  0  0  0
   20.3513  -12.6355  -17.2122 C   0  0  2  0  0  0  0  0  0  0  0  0
   21.0771  -13.2072  -16.1165 N   0  0  0  0  0  0  0  0  0  0  0  0
   19.6402  -11.3961  -16.8140 C   0  0  0  0  0  0  0  0  0  0  0  0
   18.9990  -10.7541  -17.6923 O   0  0  0  0  0  0  0  0  0  0  0  0
   13.4843  -11.0711  -11.5800 N   0  0  0  0  0  0  0  0  0  0  0  0
   13.4223  -11.5377  -12.9431 C   0  0  0  0  0  0  0  0  0  0  0  0
   12.4103  -12.2140  -13.3664 N   0  0  0  0  0  0  0  0  0  0  0  0
   14.4675  -11.2719  -13.8646 N   0  0  0  0  0  0  0  0  0  0  0  0
   15.6914  -10.5863  -13.5319 C   0  0  0  0  0  0  0  0  0  0  0  0
   16.6773  -10.5177  -14.6867 C   0  0  0  0  0  0  0  0  0  0  0  0
   17.8751   -9.7467  -14.1924 C   0  0  0  0  0  0  0  0  0  0  0  0
   18.9813   -9.6464  -15.1759 C   0  0  2  0  0  0  0  0  0  0  0  0
   19.6294  -10.8777  -15.5114 N   0  0  0  0  0  0  0  0  0  0  0  0
   19.9779   -8.6297  -14.6869 C   0  0  0  0  0  0  0  0  0  0  0  0
   20.6624   -8.8282  -13.6566 O   0  0  0  0  0  0  0  0  0  0  0  0
   12.3218  -12.5173  -14.3689 N   0  0  0  0  0  0  0  0  0  0  0  0
   20.1812   -7.3961  -15.3805 C   0  0  0  0  0  0  0  0  0  0  0  0
   21.2504   -6.4730  -14.9827 C   0  0  0  0  0  0  0  0  0  0  0  0
   20.7642   -5.4636  -14.0372 O   0  0  0  0  0  0  0  0  0  0  0  0
   19.5830   -5.4796  -13.6367 O   0  0  0  0  0  0  0  0  0  0  0  0
  2  1  1  1
  3  2  1  0
  4  5  2  0
  4  2  1  0
  7  6  1  0
  8  7  2  0
  9  7  1  0
 10  9  1  0
 10 11  1  0
 11 12  1  0
 13 12  1  1
 13 14  1  0
 14  4  1  0
 15 13  1  0
 15 17  1  0
 16 15  2  0
 18 17  1  0
 18 19  1  0
 19 21  1  0
 20 19  2  0
M  END
$$$$
