ARG.pdb
     RDKit          3D

 21 20  0  0  1  0  0  0  0  0999 V2000
   26.0191  -25.4081  -16.8589 C   0  0  0  0  0  0  0  0  0  0  0  0
   25.5383  -24.0188  -17.1773 C   0  0  2  0  0  0  0  0  0  0  0  0
   26.6246  -23.2013  -17.6311 N   0  0  0  0  0  0  0  0  0  0  0  0
   24.8508  -23.4199  -16.0072 C   0  0  0  0  0  0  0  0  0  0  0  0
   23.8451  -24.0117  -15.5244 O   0  0  0  0  0  0  0  0  0  0  0  0
   23.3046  -20.2583   -9.5913 N   0  0  0  0  0  0  0  0  0  0  0  0
   24.4642  -20.7522   -8.8907 C   0  0  0  0  0  0  0  0  0  0  0  0
   24.3908  -21.1026   -7.6528 N   0  0  0  0  0  0  0  0  0  0  0  0
   25.7230  -20.8701   -9.5341 N   0  0  0  0  0  0  0  0  0  0  0  0
   25.9498  -20.6080  -10.9335 C   0  0  0  0  0  0  0  0  0  0  0  0
   24.9230  -21.2616  -11.8437 C   0  0  0  0  0  0  0  0  0  0  0  0
   25.3527  -20.9778  -13.2608 C   0  0  0  0  0  0  0  0  0  0  0  0
   24.5252  -21.6497  -14.2929 C   0  0  2  0  0  0  0  0  0  0  0  0
   25.2436  -22.2242  -15.3895 N   0  0  0  0  0  0  0  0  0  0  0  0
   23.4779  -20.6853  -14.7819 C   0  0  0  0  0  0  0  0  0  0  0  0
   23.6860  -19.9373  -15.7650 O   0  0  0  0  0  0  0  0  0  0  0  0
   25.2211  -21.4786   -7.1292 N   0  0  0  0  0  0  0  0  0  0  0  0
   22.2035  -20.5857  -14.1415 C   0  0  0  0  0  0  0  0  0  0  0  0
   21.0353  -21.3010  -14.6680 C   0  0  0  0  0  0  0  0  0  0  0  0
   20.4022  -20.5617  -15.7644 O   0  0  0  0  0  0  0  0  0  0  0  0
   20.2606  -19.3240  -15.7025 O   0  0  0  0  0  0  0  0  0  0  0  0
  2  1  1  1
  3  2  1  0
  4  5  2  0
  4  2  1  0
  7  6  1  0
  8  7  2  0
  9  7  1  0
 10  9  1  0
 10 11  1  0
 11 12  1  0
 13 12  1  1
 13 14  1  0
 14  4  1  0
 15 13  1  0
 15 17  1  0
 16 15  2  0
 18 17  1  0
 18 19  1  0
 19 21  1  0
 20 19  2  0
M  END
$$$$
