ARG.pdb
     RDKit          3D

 21 20  0  0  1  0  0  0  0  0999 V2000
    8.3872  -21.6329    6.4552 C   0  0  0  0  0  0  0  0  0  0  0  0
    7.9423  -20.5941    5.4622 C   0  0  2  0  0  0  0  0  0  0  0  0
    6.5137  -20.5873    5.3463 N   0  0  0  0  0  0  0  0  0  0  0  0
    8.5996  -20.8067    4.1496 C   0  0  0  0  0  0  0  0  0  0  0  0
    7.9459  -21.3671    3.2259 O   0  0  0  0  0  0  0  0  0  0  0  0
   10.5007  -17.1596   -2.5611 N   0  0  0  0  0  0  0  0  0  0  0  0
   10.1837  -18.4910   -3.0155 C   0  0  0  0  0  0  0  0  0  0  0  0
   10.5816  -18.9102   -4.1672 N   0  0  0  0  0  0  0  0  0  0  0  0
    9.4254  -19.3847   -2.2163 N   0  0  0  0  0  0  0  0  0  0  0  0
    9.1582  -19.1949   -0.8123 C   0  0  0  0  0  0  0  0  0  0  0  0
   10.1376  -19.9247    0.0921 C   0  0  0  0  0  0  0  0  0  0  0  0
    9.6750  -19.6982    1.5092 C   0  0  0  0  0  0  0  0  0  0  0  0
   10.4495  -20.4479    2.5285 C   0  0  2  0  0  0  0  0  0  0  0  0
    9.9163  -20.4246    3.8566 N   0  0  0  0  0  0  0  0  0  0  0  0
   11.8745  -19.9628    2.5123 C   0  0  0  0  0  0  0  0  0  0  0  0
   12.1797  -18.8171    2.9165 O   0  0  0  0  0  0  0  0  0  0  0  0
   10.3703  -19.8807   -4.5112 N   0  0  0  0  0  0  0  0  0  0  0  0
   12.9358  -20.7925    2.0333 C   0  0  0  0  0  0  0  0  0  0  0  0
   14.3284  -20.3310    2.0642 C   0  0  0  0  0  0  0  0  0  0  0  0
   15.2461  -21.3590    1.5638 O   0  0  0  0  0  0  0  0  0  0  0  0
   14.8227  -22.4806    1.2195 O   0  0  0  0  0  0  0  0  0  0  0  0
  2  1  1  1
  3  2  1  0
  4  5  2  0
  4  2  1  0
  7  6  1  0
  8  7  2  0
  9  7  1  0
 10  9  1  0
 10 11  1  0
 11 12  1  0
 13 12  1  6
 13 14  1  0
 14  4  1  0
 15 13  1  0
 15 17  1  0
 16 15  2  0
 18 17  1  0
 18 19  1  0
 19 21  1  0
 20 19  2  0
M  END
$$$$
