GCH.pdb
     RDKit          3D

 21 21  0  0  1  0  0  0  0  0999 V2000
   17.4824  -14.7415  -16.1547 N   0  0  0  0  0  0  0  0  0  0  0  0
   17.9304  -13.7106  -15.2755 C   0  0  0  0  0  0  0  0  0  0  0  0
   18.2780  -12.4522  -15.9902 C   0  0  0  0  0  0  0  0  0  0  0  0
   19.1593  -12.4678  -16.8873 O   0  0  0  0  0  0  0  0  0  0  0  0
   17.6601  -11.2010  -15.7153 N   0  0  0  0  0  0  0  0  0  0  0  0
   18.0633   -9.9806  -16.3837 C   0  0  1  0  0  0  0  0  0  0  0  0
   16.8149   -9.2228  -16.8163 C   0  0  0  0  0  0  0  0  0  0  0  0
   15.8708  -10.2337  -17.9902 S   0  0  0  0  0  0  0  0  0  0  0  0
   18.9481   -9.1456  -15.5538 C   0  0  0  0  0  0  0  0  0  0  0  0
   18.6626   -8.9838  -14.3396 O   0  0  0  0  0  0  0  0  0  0  0  0
   20.1162   -8.5033  -16.0384 N   0  0  0  0  0  0  0  0  0  0  0  0
   20.9527   -7.6435  -15.2393 C   0  0  1  0  0  0  0  0  0  0  0  0
   22.3746   -7.8050  -15.6712 C   0  0  0  0  0  0  0  0  0  0  0  0
   22.8963   -9.1660  -15.4616 C   0  0  0  0  0  0  0  0  0  0  0  0
   22.1957  -10.1527  -14.8000 C   0  0  0  0  0  0  0  0  0  0  0  0
   22.9220  -11.2730  -14.7678 N   0  0  0  0  0  0  0  0  0  0  0  0
   24.0732  -11.0111  -15.3994 C   0  0  0  0  0  0  0  0  0  0  0  0
   24.0529   -9.7371  -15.8167 N   0  0  0  0  0  0  0  0  0  0  0  0
   20.4946   -6.2393  -15.2445 C   0  0  0  0  0  0  0  0  0  0  0  0
   21.1247   -5.3568  -14.3776 O   0  0  0  0  0  0  0  0  0  0  0  0
   19.5843   -5.7860  -15.9688 O   0  0  0  0  0  0  0  0  0  0  0  0
  1  2  1  0
  3  4  2  0
  3  2  1  0
  5  3  1  0
  6  5  1  0
  6  7  1  1
  8  7  1  0
  9  6  1  0
  9 11  1  0
 10  9  2  0
 12 19  1  0
 12 11  1  0
 13 14  1  0
 12 13  1  6
 14 18  1  0
 15 14  2  0
 15 16  1  0
 16 17  1  0
 18 17  2  0
 19 20  1  0
 21 19  2  0
M  END
$$$$
