GCH.pdb
     RDKit          3D

 21 21  0  0  1  0  0  0  0  0999 V2000
   29.9641  -13.1152  -16.1987 N   0  0  0  0  0  0  0  0  0  0  0  0
   28.6333  -13.4451  -16.5944 C   0  0  0  0  0  0  0  0  0  0  0  0
   28.0399  -12.4416  -17.5196 C   0  0  0  0  0  0  0  0  0  0  0  0
   28.6482  -11.3638  -17.7435 O   0  0  0  0  0  0  0  0  0  0  0  0
   26.7962  -12.6299  -18.1834 N   0  0  0  0  0  0  0  0  0  0  0  0
   26.2218  -11.6151  -19.0430 C   0  0  1  0  0  0  0  0  0  0  0  0
   25.8796  -12.2463  -20.3863 C   0  0  0  0  0  0  0  0  0  0  0  0
   27.3975  -12.8541  -21.1725 S   0  0  0  0  0  0  0  0  0  0  0  0
   25.0533  -10.9543  -18.4374 C   0  0  0  0  0  0  0  0  0  0  0  0
   24.1991  -11.6617  -17.8439 O   0  0  0  0  0  0  0  0  0  0  0  0
   24.8234   -9.5553  -18.4789 N   0  0  0  0  0  0  0  0  0  0  0  0
   23.6564   -8.9142  -17.9271 C   0  0  1  0  0  0  0  0  0  0  0  0
   23.9403   -8.5121  -16.5156 C   0  0  0  0  0  0  0  0  0  0  0  0
   22.8319   -7.7755  -15.8854 C   0  0  0  0  0  0  0  0  0  0  0  0
   21.5826   -8.3205  -15.6745 C   0  0  0  0  0  0  0  0  0  0  0  0
   20.7929   -7.4173  -15.0880 N   0  0  0  0  0  0  0  0  0  0  0  0
   21.5232   -6.3071  -14.9238 C   0  0  0  0  0  0  0  0  0  0  0  0
   22.7542   -6.5285  -15.4070 N   0  0  0  0  0  0  0  0  0  0  0  0
   23.1682   -7.8013  -18.7666 C   0  0  0  0  0  0  0  0  0  0  0  0
   21.8840   -7.3324  -18.5251 O   0  0  0  0  0  0  0  0  0  0  0  0
   23.8223   -7.2506  -19.6764 O   0  0  0  0  0  0  0  0  0  0  0  0
  1  2  1  0
  3  4  2  0
  3  2  1  0
  5  3  1  0
  6  5  1  0
  6  7  1  6
  8  7  1  0
  9  6  1  0
  9 11  1  0
 10  9  2  0
 12 19  1  0
 12 11  1  0
 13 14  1  0
 12 13  1  1
 14 18  1  0
 15 14  2  0
 15 16  1  0
 16 17  1  0
 18 17  2  0
 19 20  1  0
 21 19  2  0
M  END
$$$$
