GCH.pdb
     RDKit          3D

 21 21  0  0  1  0  0  0  0  0999 V2000
   19.0635  -14.6772  -16.7309 N   0  0  0  0  0  0  0  0  0  0  0  0
   18.4820  -13.8699  -15.7078 C   0  0  0  0  0  0  0  0  0  0  0  0
   18.4202  -12.4286  -16.0741 C   0  0  0  0  0  0  0  0  0  0  0  0
   18.8594  -12.0497  -17.1901 O   0  0  0  0  0  0  0  0  0  0  0  0
   17.8819  -11.4273  -15.2194 N   0  0  0  0  0  0  0  0  0  0  0  0
   17.7963  -10.0380  -15.6209 C   0  0  1  0  0  0  0  0  0  0  0  0
   16.4079   -9.5133  -15.2792 C   0  0  0  0  0  0  0  0  0  0  0  0
   15.1603  -10.4724  -16.1820 S   0  0  0  0  0  0  0  0  0  0  0  0
   18.8556   -9.2086  -15.0219 C   0  0  0  0  0  0  0  0  0  0  0  0
   19.0504   -9.2802  -13.7813 O   0  0  0  0  0  0  0  0  0  0  0  0
   19.6818   -8.3228  -15.7599 N   0  0  0  0  0  0  0  0  0  0  0  0
   20.6821   -7.4717  -15.1662 C   0  0  1  0  0  0  0  0  0  0  0  0
   21.9969   -7.7243  -15.8309 C   0  0  0  0  0  0  0  0  0  0  0  0
   22.4626   -9.1143  -15.6920 C   0  0  0  0  0  0  0  0  0  0  0  0
   22.3487  -10.0556  -16.6936 C   0  0  0  0  0  0  0  0  0  0  0  0
   22.8564  -11.2180  -16.2759 N   0  0  0  0  0  0  0  0  0  0  0  0
   23.2908  -11.0277  -15.0237 C   0  0  0  0  0  0  0  0  0  0  0  0
   23.0507   -9.7553  -14.6755 N   0  0  0  0  0  0  0  0  0  0  0  0
   20.2897   -6.0477  -15.1655 C   0  0  0  0  0  0  0  0  0  0  0  0
   21.1106   -5.1575  -14.4865 O   0  0  0  0  0  0  0  0  0  0  0  0
   19.2766   -5.5841  -15.7289 O   0  0  0  0  0  0  0  0  0  0  0  0
  1  2  1  0
  3  4  2  0
  3  2  1  0
  5  3  1  0
  6  5  1  0
  6  7  1  1
  8  7  1  0
  9  6  1  0
  9 11  1  0
 10  9  2  0
 12 19  1  0
 12 11  1  0
 13 14  1  0
 12 13  1  6
 14 18  1  0
 15 14  2  0
 15 16  1  0
 16 17  1  0
 18 17  2  0
 19 20  1  0
 21 19  2  0
M  END
$$$$
