GCH.pdb
     RDKit          3D

 21 21  0  0  1  0  0  0  0  0999 V2000
   14.6963  -11.7749  -13.5184 N   0  0  0  0  0  0  0  0  0  0  0  0
   16.0755  -11.5975  -13.8389 C   0  0  0  0  0  0  0  0  0  0  0  0
   16.7879  -10.7266  -12.8645 C   0  0  0  0  0  0  0  0  0  0  0  0
   16.8809  -11.0829  -11.6619 O   0  0  0  0  0  0  0  0  0  0  0  0
   17.3854   -9.4851  -13.2171 N   0  0  0  0  0  0  0  0  0  0  0  0
   18.0400   -8.6410  -12.2385 C   0  0  1  0  0  0  0  0  0  0  0  0
   19.2818   -8.0275  -12.8722 C   0  0  0  0  0  0  0  0  0  0  0  0
   20.0389   -6.8586  -11.7095 S   0  0  0  0  0  0  0  0  0  0  0  0
   17.1431   -7.6110  -11.6878 C   0  0  0  0  0  0  0  0  0  0  0  0
   16.4957   -6.8845  -12.4848 O   0  0  0  0  0  0  0  0  0  0  0  0
   16.9579   -7.3802  -10.3006 N   0  0  0  0  0  0  0  0  0  0  0  0
   16.1032   -6.3519   -9.7624 C   0  0  1  0  0  0  0  0  0  0  0  0
   15.4223   -6.8727   -8.5379 C   0  0  0  0  0  0  0  0  0  0  0  0
   14.3940   -7.8857   -8.8291 C   0  0  0  0  0  0  0  0  0  0  0  0
   13.0933   -7.5711   -9.1628 C   0  0  0  0  0  0  0  0  0  0  0  0
   12.3997   -8.6936   -9.3689 N   0  0  0  0  0  0  0  0  0  0  0  0
   13.2417   -9.7156   -9.1708 C   0  0  0  0  0  0  0  0  0  0  0  0
   14.4451   -9.2225   -8.8449 N   0  0  0  0  0  0  0  0  0  0  0  0
   16.8170   -5.0782   -9.5391 C   0  0  0  0  0  0  0  0  0  0  0  0
   16.0546   -3.9664   -9.2075 O   0  0  0  0  0  0  0  0  0  0  0  0
   18.0531   -4.9255   -9.6260 O   0  0  0  0  0  0  0  0  0  0  0  0
  1  2  1  0
  3  4  2  0
  3  2  1  0
  5  3  1  0
  6  5  1  0
  6  7  1  6
  8  7  1  0
  9  6  1  0
  9 11  1  0
 10  9  2  0
 12 19  1  0
 12 11  1  0
 13 14  1  0
 12 13  1  1
 14 18  1  0
 15 14  2  0
 15 16  1  0
 16 17  1  0
 18 17  2  0
 19 20  1  0
 21 19  2  0
M  END
$$$$
