GCH.pdb
     RDKit          3D

 21 21  0  0  1  0  0  0  0  0999 V2000
   13.8320   -6.9227   -8.5511 N   0  0  0  0  0  0  0  0  0  0  0  0
   15.1346   -7.3985   -8.2147 C   0  0  0  0  0  0  0  0  0  0  0  0
   15.9412   -7.7686   -9.4096 C   0  0  0  0  0  0  0  0  0  0  0  0
   16.9823   -8.4601   -9.2691 O   0  0  0  0  0  0  0  0  0  0  0  0
   15.5996   -7.3794  -10.7343 N   0  0  0  0  0  0  0  0  0  0  0  0
   16.3665   -7.8115  -11.8849 C   0  0  1  0  0  0  0  0  0  0  0  0
   15.4042   -8.1612  -13.0125 C   0  0  0  0  0  0  0  0  0  0  0  0
   14.4579   -9.6420  -12.5619 S   0  0  0  0  0  0  0  0  0  0  0  0
   17.3638   -6.8140  -12.3084 C   0  0  0  0  0  0  0  0  0  0  0  0
   17.0389   -5.5989  -12.3133 O   0  0  0  0  0  0  0  0  0  0  0  0
   18.6835   -7.1360  -12.7164 N   0  0  0  0  0  0  0  0  0  0  0  0
   19.5961   -6.1912  -13.3096 C   0  0  1  0  0  0  0  0  0  0  0  0
   20.9421   -6.8276  -13.4418 C   0  0  0  0  0  0  0  0  0  0  0  0
   21.9027   -6.0075  -14.1988 C   0  0  0  0  0  0  0  0  0  0  0  0
   22.3608   -6.3432  -15.4556 C   0  0  0  0  0  0  0  0  0  0  0  0
   23.2171   -5.4121  -15.8838 N   0  0  0  0  0  0  0  0  0  0  0  0
   23.3087   -4.4906  -14.9168 C   0  0  0  0  0  0  0  0  0  0  0  0
   22.5129   -4.8546  -13.9010 N   0  0  0  0  0  0  0  0  0  0  0  0
   19.0874   -5.6275  -14.5765 C   0  0  0  0  0  0  0  0  0  0  0  0
   18.4178   -6.4871  -15.4368 O   0  0  0  0  0  0  0  0  0  0  0  0
   19.2136   -4.4374  -14.9323 O   0  0  0  0  0  0  0  0  0  0  0  0
  1  2  1  0
  3  4  2  0
  3  2  1  0
  5  3  1  0
  6  5  1  0
  6  7  1  6
  8  7  1  0
  9  6  1  0
  9 11  1  0
 10  9  2  0
 12 19  1  0
 12 11  1  0
 13 14  1  0
 12 13  1  6
 14 18  1  0
 15 14  2  0
 15 16  1  0
 16 17  1  0
 18 17  2  0
 19 20  1  0
 21 19  2  0
M  END
$$$$
