GCH.pdb
     RDKit          3D

 21 21  0  0  1  0  0  0  0  0999 V2000
   18.3846  -13.8354  -16.3273 N   0  0  0  0  0  0  0  0  0  0  0  0
   17.7517  -12.5938  -16.6347 C   0  0  0  0  0  0  0  0  0  0  0  0
   18.3185  -11.4509  -15.8681 C   0  0  0  0  0  0  0  0  0  0  0  0
   17.6582  -10.9441  -14.9252 O   0  0  0  0  0  0  0  0  0  0  0  0
   19.5927  -10.8813  -16.1419 N   0  0  0  0  0  0  0  0  0  0  0  0
   20.1231   -9.7760  -15.3700 C   0  0  1  0  0  0  0  0  0  0  0  0
   21.6364   -9.9230  -15.2788 C   0  0  0  0  0  0  0  0  0  0  0  0
   22.3184   -8.5559  -14.3003 S   0  0  0  0  0  0  0  0  0  0  0  0
   19.7342   -8.4649  -15.9164 C   0  0  0  0  0  0  0  0  0  0  0  0
   19.9538   -8.2274  -17.1319 O   0  0  0  0  0  0  0  0  0  0  0  0
   19.1206   -7.4384  -15.1537 N   0  0  0  0  0  0  0  0  0  0  0  0
   18.7877   -6.1368  -15.6758 C   0  0  1  0  0  0  0  0  0  0  0  0
   17.3790   -5.8051  -15.3017 C   0  0  0  0  0  0  0  0  0  0  0  0
   16.9456   -4.4812  -15.7789 C   0  0  0  0  0  0  0  0  0  0  0  0
   16.8757   -4.1423  -17.1139 C   0  0  0  0  0  0  0  0  0  0  0  0
   16.4517   -2.8816  -17.2345 N   0  0  0  0  0  0  0  0  0  0  0  0
   16.2517   -2.4160  -15.9952 C   0  0  0  0  0  0  0  0  0  0  0  0
   16.5514   -3.3859  -15.1193 N   0  0  0  0  0  0  0  0  0  0  0  0
   19.7598   -5.0985  -15.2777 C   0  0  0  0  0  0  0  0  0  0  0  0
   20.7817   -5.4744  -14.4164 O   0  0  0  0  0  0  0  0  0  0  0  0
   19.7325   -3.9092  -15.6567 O   0  0  0  0  0  0  0  0  0  0  0  0
  1  2  1  0
  3  4  2  0
  3  2  1  0
  5  3  1  0
  6  5  1  0
  6  7  1  6
  8  7  1  0
  9  6  1  0
  9 11  1  0
 10  9  2  0
 12 19  1  0
 12 11  1  0
 13 14  1  0
 12 13  1  1
 14 18  1  0
 15 14  2  0
 15 16  1  0
 16 17  1  0
 18 17  2  0
 19 20  1  0
 21 19  2  0
M  END
$$$$
