GCH.pdb
     RDKit          3D

 21 21  0  0  1  0  0  0  0  0999 V2000
   25.8838  -14.8522  -17.3974 N   0  0  0  0  0  0  0  0  0  0  0  0
   24.8654  -13.9441  -17.8157 C   0  0  0  0  0  0  0  0  0  0  0  0
   24.7172  -12.7802  -16.9000 C   0  0  0  0  0  0  0  0  0  0  0  0
   24.0369  -12.8970  -15.8486 O   0  0  0  0  0  0  0  0  0  0  0  0
   25.3118  -11.5118  -17.1456 N   0  0  0  0  0  0  0  0  0  0  0  0
   25.0755  -10.3716  -16.2837 C   0  0  1  0  0  0  0  0  0  0  0  0
   26.2865   -9.4499  -16.3465 C   0  0  0  0  0  0  0  0  0  0  0  0
   27.6475  -10.1741  -15.3902 S   0  0  0  0  0  0  0  0  0  0  0  0
   23.8299   -9.6592  -16.6148 C   0  0  0  0  0  0  0  0  0  0  0  0
   23.6005   -9.3698  -17.8172 O   0  0  0  0  0  0  0  0  0  0  0  0
   22.8587   -9.2725  -15.6561 N   0  0  0  0  0  0  0  0  0  0  0  0
   21.6546   -8.5481  -15.9768 C   0  0  1  0  0  0  0  0  0  0  0  0
   20.4838   -9.2512  -15.3692 C   0  0  0  0  0  0  0  0  0  0  0  0
   19.2047   -8.5591  -15.5992 C   0  0  0  0  0  0  0  0  0  0  0  0
   18.2468   -9.0105  -16.4829 C   0  0  0  0  0  0  0  0  0  0  0  0
   17.2022   -8.1784  -16.4749 N   0  0  0  0  0  0  0  0  0  0  0  0
   17.4837   -7.2057  -15.5989 C   0  0  0  0  0  0  0  0  0  0  0  0
   18.6944   -7.4400  -15.0725 N   0  0  0  0  0  0  0  0  0  0  0  0
   21.7354   -7.1196  -15.6098 C   0  0  0  0  0  0  0  0  0  0  0  0
   22.6491   -6.7613  -14.6279 O   0  0  0  0  0  0  0  0  0  0  0  0
   21.0449   -6.2105  -16.1152 O   0  0  0  0  0  0  0  0  0  0  0  0
  1  2  1  0
  3  4  2  0
  3  2  1  0
  5  3  1  0
  6  5  1  0
  6  7  1  6
  8  7  1  0
  9  6  1  0
  9 11  1  0
 10  9  2  0
 12 19  1  0
 12 11  1  0
 13 14  1  0
 12 13  1  1
 14 18  1  0
 15 14  2  0
 15 16  1  0
 16 17  1  0
 18 17  2  0
 19 20  1  0
 21 19  2  0
M  END
$$$$
