QHC.pdb
     RDKit          3D

 26 26  0  0  1  0  0  0  0  0999 V2000
    7.7658  -12.4145   17.8149 N   0  0  0  0  0  0  0  0  0  0  0  0
    8.1055  -13.7857   18.0003 C   0  0  0  0  0  0  0  0  0  0  0  0
    8.6474  -14.3689   17.0430 O   0  0  0  0  0  0  0  0  0  0  0  0
    7.7976  -14.4102   19.2961 C   0  0  0  0  0  0  0  0  0  0  0  0
    9.0239  -14.5194   20.1293 C   0  0  0  0  0  0  0  0  0  0  0  0
    9.1436  -15.8747   20.7279 C   0  0  2  0  0  0  0  0  0  0  0  0
    8.6771  -16.9135   19.8293 N   0  0  0  0  0  0  0  0  0  0  0  0
    8.3047  -15.8681   21.9825 C   0  0  0  0  0  0  0  0  0  0  0  0
    7.2615  -15.1703   21.9690 O   0  0  0  0  0  0  0  0  0  0  0  0
    8.6419  -16.5969   23.1350 N   0  0  0  0  0  0  0  0  0  0  0  0
    7.8543  -16.4058   24.3380 C   0  0  1  0  0  0  0  0  0  0  0  0
    7.8120  -17.7038   25.0910 C   0  0  0  0  0  0  0  0  0  0  0  0
    6.9474  -18.6828   24.3636 C   0  0  0  0  0  0  0  0  0  0  0  0
    6.3163  -18.4264   23.1631 C   0  0  0  0  0  0  0  0  0  0  0  0
    5.6365  -19.5421   22.8298 N   0  0  0  0  0  0  0  0  0  0  0  0
    5.8122  -20.4797   23.7615 C   0  0  0  0  0  0  0  0  0  0  0  0
    6.6211  -19.9395   24.7011 N   0  0  0  0  0  0  0  0  0  0  0  0
    8.4770  -15.3184   25.1722 C   0  0  0  0  0  0  0  0  0  0  0  0
    9.7199  -15.1569   25.2428 O   0  0  0  0  0  0  0  0  0  0  0  0
    7.6567  -14.4324   25.9133 N   0  0  0  0  0  0  0  0  0  0  0  0
    8.2909  -13.4408   26.7537 C   0  0  1  0  0  0  0  0  0  0  0  0
    7.3277  -12.2879   26.9404 C   0  0  0  0  0  0  0  0  0  0  0  0
    5.6183  -12.7864   26.5887 S   0  0  0  0  0  0  0  0  0  0  0  0
    8.6075  -14.0972   28.0484 C   0  0  0  0  0  0  0  0  0  0  0  0
    8.2157  -15.2488   28.3372 O   0  0  0  0  0  0  0  0  0  0  0  0
    9.3683  -13.4173   28.9865 O   0  0  0  0  0  0  0  0  0  0  0  0
  2  1  1  0
  2  4  1  0
  3  2  2  0
  5  4  1  0
  5  6  1  0
  6  8  1  0
  6  7  1  6
  8 10  1  0
  9  8  2  0
 10 11  1  0
 11 18  1  0
 11 12  1  1
 13 12  1  0
 13 14  2  0
 15 14  1  0
 16 17  2  0
 16 15  1  0
 17 13  1  0
 18 20  1  0
 19 18  2  0
 20 21  1  0
 21 24  1  0
 21 22  1  1
 22 23  1  0
 24 25  2  0
 24 26  1  0
M  END
$$$$
