QHC.pdb
     RDKit          3D

 26 26  0  0  1  0  0  0  0  0999 V2000
   14.6155  -18.4776   20.9294 N   0  0  0  0  0  0  0  0  0  0  0  0
   13.8574  -17.3354   21.3175 C   0  0  0  0  0  0  0  0  0  0  0  0
   14.1335  -16.8197   22.4166 O   0  0  0  0  0  0  0  0  0  0  0  0
   12.8138  -16.8485   20.4023 C   0  0  0  0  0  0  0  0  0  0  0  0
   11.6376  -16.3538   21.1650 C   0  0  0  0  0  0  0  0  0  0  0  0
   10.7137  -17.4679   21.5035 C   0  0  2  0  0  0  0  0  0  0  0  0
    9.9539  -17.9182   20.3529 N   0  0  0  0  0  0  0  0  0  0  0  0
    9.7757  -16.9439   22.5634 C   0  0  0  0  0  0  0  0  0  0  0  0
    8.7629  -16.3153   22.1703 O   0  0  0  0  0  0  0  0  0  0  0  0
    9.9909  -17.1304   23.9389 N   0  0  0  0  0  0  0  0  0  0  0  0
    8.9479  -16.7406   24.8686 C   0  0  1  0  0  0  0  0  0  0  0  0
    8.6069  -17.9247   25.7259 C   0  0  0  0  0  0  0  0  0  0  0  0
    7.7583  -18.8821   24.9524 C   0  0  0  0  0  0  0  0  0  0  0  0
    7.3857  -18.7069   23.6349 C   0  0  0  0  0  0  0  0  0  0  0  0
    6.6305  -19.7709   23.2949 N   0  0  0  0  0  0  0  0  0  0  0  0
    6.5141  -20.5992   24.3334 C   0  0  0  0  0  0  0  0  0  0  0  0
    7.2126  -20.0418   25.3485 N   0  0  0  0  0  0  0  0  0  0  0  0
    9.4348  -15.5894   25.7076 C   0  0  0  0  0  0  0  0  0  0  0  0
   10.6493  -15.4251   25.9794 O   0  0  0  0  0  0  0  0  0  0  0  0
    8.5133  -14.6439   26.2214 N   0  0  0  0  0  0  0  0  0  0  0  0
    9.0166  -13.5545   27.0285 C   0  0  1  0  0  0  0  0  0  0  0  0
    7.9380  -12.4967   27.1272 C   0  0  0  0  0  0  0  0  0  0  0  0
    6.3407  -13.2183   27.5986 S   0  0  0  0  0  0  0  0  0  0  0  0
    9.3513  -14.1129   28.3640 C   0  0  0  0  0  0  0  0  0  0  0  0
    9.0701  -15.2845   28.6977 O   0  0  0  0  0  0  0  0  0  0  0  0
   10.0029  -13.3140   29.2903 O   0  0  0  0  0  0  0  0  0  0  0  0
  2  1  1  0
  2  4  1  0
  3  2  2  0
  5  4  1  0
  5  6  1  0
  6  8  1  0
  6  7  1  6
  8 10  1  0
  9  8  2  0
 10 11  1  0
 11 18  1  0
 11 12  1  1
 13 12  1  0
 13 14  2  0
 15 14  1  0
 16 17  2  0
 16 15  1  0
 17 13  1  0
 18 20  1  0
 19 18  2  0
 20 21  1  0
 21 24  1  0
 21 22  1  1
 22 23  1  0
 24 25  2  0
 24 26  1  0
M  END
$$$$
