QHC.pdb
     RDKit          3D

 26 26  0  0  1  0  0  0  0  0999 V2000
    6.4156  -13.1011   17.8771 N   0  0  0  0  0  0  0  0  0  0  0  0
    7.2609  -13.9524   17.1083 C   0  0  0  0  0  0  0  0  0  0  0  0
    7.2940  -13.7567   15.8792 O   0  0  0  0  0  0  0  0  0  0  0  0
    8.0288  -14.9909   17.8123 C   0  0  0  0  0  0  0  0  0  0  0  0
    7.7127  -14.9817   19.2649 C   0  0  0  0  0  0  0  0  0  0  0  0
    8.9202  -14.6655   20.0721 C   0  0  2  0  0  0  0  0  0  0  0  0
   10.1242  -15.2430   19.5057 N   0  0  0  0  0  0  0  0  0  0  0  0
    8.6791  -15.2330   21.4497 C   0  0  0  0  0  0  0  0  0  0  0  0
    7.5430  -15.0524   21.9516 O   0  0  0  0  0  0  0  0  0  0  0  0
    9.6567  -15.9379   22.1711 N   0  0  0  0  0  0  0  0  0  0  0  0
    9.3766  -16.3141   23.5438 C   0  0  1  0  0  0  0  0  0  0  0  0
   10.4801  -17.2097   24.0270 C   0  0  0  0  0  0  0  0  0  0  0  0
   10.3102  -18.5785   23.4503 C   0  0  0  0  0  0  0  0  0  0  0  0
    9.2352  -18.9735   22.6799 C   0  0  0  0  0  0  0  0  0  0  0  0
    9.4403  -20.2649   22.3509 N   0  0  0  0  0  0  0  0  0  0  0  0
   10.5880  -20.6937   22.8771 C   0  0  0  0  0  0  0  0  0  0  0  0
   11.1151  -19.6468   23.5520 N   0  0  0  0  0  0  0  0  0  0  0  0
    9.2801  -15.0725   24.3896 C   0  0  0  0  0  0  0  0  0  0  0  0
    9.6513  -13.9478   23.9734 O   0  0  0  0  0  0  0  0  0  0  0  0
    8.7566  -15.1460   25.7040 N   0  0  0  0  0  0  0  0  0  0  0  0
    8.3572  -13.9205   26.3599 C   0  0  1  0  0  0  0  0  0  0  0  0
    7.2049  -13.3185   25.5842 C   0  0  0  0  0  0  0  0  0  0  0  0
    6.4293  -11.9551   26.4974 S   0  0  0  0  0  0  0  0  0  0  0  0
    7.9519  -14.2734   27.7451 C   0  0  0  0  0  0  0  0  0  0  0  0
    7.4780  -15.3899   28.0480 O   0  0  0  0  0  0  0  0  0  0  0  0
    8.0992  -13.3362   28.7554 O   0  0  0  0  0  0  0  0  0  0  0  0
  2  1  1  0
  2  4  1  0
  3  2  2  0
  5  4  1  0
  5  6  1  0
  6  8  1  0
  6  7  1  6
  8 10  1  0
  9  8  2  0
 10 11  1  0
 11 18  1  0
 11 12  1  1
 13 12  1  0
 13 14  2  0
 15 14  1  0
 16 17  2  0
 16 15  1  0
 17 13  1  0
 18 20  1  0
 19 18  2  0
 20 21  1  0
 21 24  1  0
 21 22  1  6
 22 23  1  0
 24 25  2  0
 24 26  1  0
M  END
$$$$
