QHC.pdb
     RDKit          3D

 26 26  0  0  1  0  0  0  0  0999 V2000
    7.8932  -12.5671   17.5421 N   0  0  0  0  0  0  0  0  0  0  0  0
    7.9917  -13.9094   18.0096 C   0  0  0  0  0  0  0  0  0  0  0  0
    7.9150  -14.0873   19.2396 O   0  0  0  0  0  0  0  0  0  0  0  0
    8.1733  -14.9805   17.0179 C   0  0  0  0  0  0  0  0  0  0  0  0
    8.2174  -14.4186   15.6423 C   0  0  0  0  0  0  0  0  0  0  0  0
    8.2202  -15.5008   14.6234 C   0  0  2  0  0  0  0  0  0  0  0  0
    7.1732  -16.4770   14.8582 N   0  0  0  0  0  0  0  0  0  0  0  0
    9.5711  -16.1687   14.7069 C   0  0  0  0  0  0  0  0  0  0  0  0
    9.6447  -17.2280   15.3761 O   0  0  0  0  0  0  0  0  0  0  0  0
   10.7191  -15.6594   14.0779 N   0  0  0  0  0  0  0  0  0  0  0  0
   11.9510  -16.4221   14.1483 C   0  0  1  0  0  0  0  0  0  0  0  0
   12.9532  -15.7949   13.2233 C   0  0  0  0  0  0  0  0  0  0  0  0
   14.1595  -16.6714   13.1146 C   0  0  0  0  0  0  0  0  0  0  0  0
   14.1647  -18.0280   13.3688 C   0  0  0  0  0  0  0  0  0  0  0  0
   15.4249  -18.4617   13.1646 N   0  0  0  0  0  0  0  0  0  0  0  0
   16.2042  -17.4444   12.7963 C   0  0  0  0  0  0  0  0  0  0  0  0
   15.4144  -16.3469   12.7689 N   0  0  0  0  0  0  0  0  0  0  0  0
   12.4540  -16.4242   15.5672 C   0  0  0  0  0  0  0  0  0  0  0  0
   12.4123  -15.4016   16.2942 O   0  0  0  0  0  0  0  0  0  0  0  0
   12.9981  -17.6062   16.1273 N   0  0  0  0  0  0  0  0  0  0  0  0
   13.5116  -17.5595   17.4785 C   0  0  1  0  0  0  0  0  0  0  0  0
   12.6543  -18.4568   18.3455 C   0  0  0  0  0  0  0  0  0  0  0  0
   13.3191  -18.5863   20.0294 S   0  0  0  0  0  0  0  0  0  0  0  0
   14.9186  -18.0346   17.4324 C   0  0  0  0  0  0  0  0  0  0  0  0
   15.3107  -18.9125   16.6332 O   0  0  0  0  0  0  0  0  0  0  0  0
   15.8478  -17.4917   18.3057 O   0  0  0  0  0  0  0  0  0  0  0  0
  2  1  1  0
  2  4  1  0
  3  2  2  0
  5  4  1  0
  5  6  1  0
  6  8  1  0
  6  7  1  1
  8 10  1  0
  9  8  2  0
 10 11  1  0
 11 18  1  0
 11 12  1  6
 13 12  1  0
 13 14  2  0
 15 14  1  0
 16 17  2  0
 16 15  1  0
 17 13  1  0
 18 20  1  0
 19 18  2  0
 20 21  1  0
 21 24  1  0
 21 22  1  1
 22 23  1  0
 24 25  2  0
 24 26  1  0
M  END
$$$$
