QHC.pdb
     RDKit          3D

 26 26  0  0  1  0  0  0  0  0999 V2000
   10.7590  -19.9252   19.0435 N   0  0  0  0  0  0  0  0  0  0  0  0
    9.9409  -20.6980   19.9174 C   0  0  0  0  0  0  0  0  0  0  0  0
    9.9217  -21.9293   19.7333 O   0  0  0  0  0  0  0  0  0  0  0  0
    9.1853  -19.9958   20.9661 C   0  0  0  0  0  0  0  0  0  0  0  0
    9.4393  -18.5324   20.9038 C   0  0  0  0  0  0  0  0  0  0  0  0
    9.0029  -17.8611   22.1561 C   0  0  2  0  0  0  0  0  0  0  0  0
    7.6183  -18.1493   22.4783 N   0  0  0  0  0  0  0  0  0  0  0  0
    9.1794  -16.3785   21.9352 C   0  0  0  0  0  0  0  0  0  0  0  0
   10.3541  -15.9554   21.8070 O   0  0  0  0  0  0  0  0  0  0  0  0
    8.1026  -15.4789   21.8696 N   0  0  0  0  0  0  0  0  0  0  0  0
    8.3830  -14.0578   21.7925 C   0  0  1  0  0  0  0  0  0  0  0  0
    7.3805  -13.4235   20.8727 C   0  0  0  0  0  0  0  0  0  0  0  0
    7.7300  -13.7330   19.4524 C   0  0  0  0  0  0  0  0  0  0  0  0
    8.8776  -14.3895   19.0557 C   0  0  0  0  0  0  0  0  0  0  0  0
    8.8344  -14.4794   17.7111 N   0  0  0  0  0  0  0  0  0  0  0  0
    7.7188  -13.9126   17.2507 C   0  0  0  0  0  0  0  0  0  0  0  0
    7.0464  -13.4564   18.3318 N   0  0  0  0  0  0  0  0  0  0  0  0
    8.3033  -13.4599   23.1718 C   0  0  0  0  0  0  0  0  0  0  0  0
    8.3202  -12.2199   23.3664 O   0  0  0  0  0  0  0  0  0  0  0  0
    8.2052  -14.3013   24.3073 N   0  0  0  0  0  0  0  0  0  0  0  0
    8.0734  -13.6913   25.6120 C   0  0  1  0  0  0  0  0  0  0  0  0
    6.7306  -12.9952   25.6791 C   0  0  0  0  0  0  0  0  0  0  0  0
    6.4224  -12.3034   27.3286 S   0  0  0  0  0  0  0  0  0  0  0  0
    8.1705  -14.7790   26.6194 C   0  0  0  0  0  0  0  0  0  0  0  0
    8.1786  -14.5625   27.8507 O   0  0  0  0  0  0  0  0  0  0  0  0
    8.2563  -16.0947   26.1923 O   0  0  0  0  0  0  0  0  0  0  0  0
  2  1  1  0
  2  4  1  0
  3  2  2  0
  5  4  1  0
  5  6  1  0
  6  8  1  0
  6  7  1  6
  8 10  1  0
  9  8  2  0
 10 11  1  0
 11 18  1  0
 11 12  1  6
 13 12  1  0
 13 14  2  0
 15 14  1  0
 16 17  2  0
 16 15  1  0
 17 13  1  0
 18 20  1  0
 19 18  2  0
 20 21  1  0
 21 24  1  0
 21 22  1  6
 22 23  1  0
 24 25  2  0
 24 26  1  0
M  END
$$$$
