QHC.pdb
     RDKit          3D

 26 26  0  0  1  0  0  0  0  0999 V2000
   11.8377  -19.2493   16.3370 N   0  0  0  0  0  0  0  0  0  0  0  0
   10.4428  -19.5367   16.3788 C   0  0  0  0  0  0  0  0  0  0  0  0
   10.0115  -20.3680   15.5584 O   0  0  0  0  0  0  0  0  0  0  0  0
    9.6181  -18.8405   17.3783 C   0  0  0  0  0  0  0  0  0  0  0  0
   10.4523  -17.9227   18.1980 C   0  0  0  0  0  0  0  0  0  0  0  0
   10.1526  -18.0786   19.6455 C   0  0  2  0  0  0  0  0  0  0  0  0
    8.8700  -18.7164   19.8738 N   0  0  0  0  0  0  0  0  0  0  0  0
   10.1464  -16.6900   20.2370 C   0  0  0  0  0  0  0  0  0  0  0  0
   11.1935  -16.0097   20.1095 O   0  0  0  0  0  0  0  0  0  0  0  0
    9.0384  -16.1465   20.9077 N   0  0  0  0  0  0  0  0  0  0  0  0
    9.1501  -14.8179   21.4790 C   0  0  1  0  0  0  0  0  0  0  0  0
    7.9303  -14.0308   21.0966 C   0  0  0  0  0  0  0  0  0  0  0  0
    7.8758  -13.8717   19.6111 C   0  0  0  0  0  0  0  0  0  0  0  0
    6.7100  -13.7993   18.8756 C   0  0  0  0  0  0  0  0  0  0  0  0
    7.0682  -13.6587   17.5834 N   0  0  0  0  0  0  0  0  0  0  0  0
    8.3973  -13.6399   17.4770 C   0  0  0  0  0  0  0  0  0  0  0  0
    8.8841  -13.7718   18.7319 N   0  0  0  0  0  0  0  0  0  0  0  0
    9.2732  -14.9288   22.9752 C   0  0  0  0  0  0  0  0  0  0  0  0
    9.0610  -13.9554   23.7389 O   0  0  0  0  0  0  0  0  0  0  0  0
    9.6395  -16.1616   23.5694 N   0  0  0  0  0  0  0  0  0  0  0  0
    9.4915  -16.3118   25.0002 C   0  0  1  0  0  0  0  0  0  0  0  0
    8.0143  -16.2949   25.3309 C   0  0  0  0  0  0  0  0  0  0  0  0
    7.5456  -14.7732   26.2021 S   0  0  0  0  0  0  0  0  0  0  0  0
   10.1156  -17.6071   25.3747 C   0  0  0  0  0  0  0  0  0  0  0  0
   10.5304  -18.4284   24.5282 O   0  0  0  0  0  0  0  0  0  0  0  0
   10.2507  -17.9336   26.7148 O   0  0  0  0  0  0  0  0  0  0  0  0
  2  1  1  0
  2  4  1  0
  3  2  2  0
  5  4  1  0
  5  6  1  0
  6  8  1  0
  6  7  1  6
  8 10  1  0
  9  8  2  0
 10 11  1  0
 11 18  1  0
 11 12  1  1
 13 12  1  0
 13 14  2  0
 15 14  1  0
 16 17  2  0
 16 15  1  0
 17 13  1  0
 18 20  1  0
 19 18  2  0
 20 21  1  0
 21 24  1  0
 21 22  1  6
 22 23  1  0
 24 25  2  0
 24 26  1  0
M  END
$$$$
