QHC.pdb
     RDKit          3D

 26 26  0  0  1  0  0  0  0  0999 V2000
    1.7480  -27.7838   30.9329 N   0  0  0  0  0  0  0  0  0  0  0  0
    1.7500  -28.1664   29.5605 C   0  0  0  0  0  0  0  0  0  0  0  0
    2.8256  -28.5817   29.0903 O   0  0  0  0  0  0  0  0  0  0  0  0
    0.4949  -28.0476   28.8027 C   0  0  0  0  0  0  0  0  0  0  0  0
   -0.6014  -27.5571   29.6789 C   0  0  0  0  0  0  0  0  0  0  0  0
   -1.1962  -26.3059   29.1401 C   0  0  2  0  0  0  0  0  0  0  0  0
   -0.3300  -25.1590   29.3361 N   0  0  0  0  0  0  0  0  0  0  0  0
   -2.4980  -26.0958   29.8743 C   0  0  0  0  0  0  0  0  0  0  0  0
   -3.4276  -26.9036   29.6323 O   0  0  0  0  0  0  0  0  0  0  0  0
   -2.7003  -25.0547   30.7953 N   0  0  0  0  0  0  0  0  0  0  0  0
   -3.9506  -25.0037   31.5289 C   0  0  1  0  0  0  0  0  0  0  0  0
   -3.6424  -25.0251   32.9979 C   0  0  0  0  0  0  0  0  0  0  0  0
   -3.3298  -26.4221   33.4291 C   0  0  0  0  0  0  0  0  0  0  0  0
   -3.3919  -27.5266   32.6038 C   0  0  0  0  0  0  0  0  0  0  0  0
   -3.0427  -28.5947   33.3490 N   0  0  0  0  0  0  0  0  0  0  0  0
   -2.7665  -28.2113   34.5958 C   0  0  0  0  0  0  0  0  0  0  0  0
   -2.9466  -26.8714   34.6336 N   0  0  0  0  0  0  0  0  0  0  0  0
   -4.6970  -23.7517   31.1525 C   0  0  0  0  0  0  0  0  0  0  0  0
   -4.1357  -22.6306   31.0894 O   0  0  0  0  0  0  0  0  0  0  0  0
   -6.0807  -23.8109   30.8543 N   0  0  0  0  0  0  0  0  0  0  0  0
   -6.7274  -22.6281   30.3304 C   0  0  1  0  0  0  0  0  0  0  0  0
   -6.4291  -22.5384   28.8489 C   0  0  0  0  0  0  0  0  0  0  0  0
   -7.4106  -21.2368   28.0510 S   0  0  0  0  0  0  0  0  0  0  0  0
   -8.1844  -22.7741   30.5816 C   0  0  0  0  0  0  0  0  0  0  0  0
   -8.7335  -23.8839   30.7550 O   0  0  0  0  0  0  0  0  0  0  0  0
   -8.9824  -21.6419   30.6287 O   0  0  0  0  0  0  0  0  0  0  0  0
  2  1  1  0
  2  4  1  0
  3  2  2  0
  5  4  1  0
  5  6  1  0
  6  8  1  0
  6  7  1  1
  8 10  1  0
  9  8  2  0
 10 11  1  0
 11 18  1  0
 11 12  1  1
 13 12  1  0
 13 14  2  0
 15 14  1  0
 16 17  2  0
 16 15  1  0
 17 13  1  0
 18 20  1  0
 19 18  2  0
 20 21  1  0
 21 24  1  0
 21 22  1  6
 22 23  1  0
 24 25  2  0
 24 26  1  0
M  END
$$$$
