QHC.pdb
     RDKit          3D

 26 26  0  0  1  0  0  0  0  0999 V2000
   14.6090  -20.3242   22.5549 N   0  0  0  0  0  0  0  0  0  0  0  0
   13.4865  -19.9883   23.3657 C   0  0  0  0  0  0  0  0  0  0  0  0
   13.3550  -20.6110   24.4359 O   0  0  0  0  0  0  0  0  0  0  0  0
   12.5719  -18.9397   22.8887 C   0  0  0  0  0  0  0  0  0  0  0  0
   13.0394  -18.3884   21.5897 C   0  0  0  0  0  0  0  0  0  0  0  0
   11.9358  -17.6930   20.8768 C   0  0  2  0  0  0  0  0  0  0  0  0
   12.3742  -17.1132   19.6215 N   0  0  0  0  0  0  0  0  0  0  0  0
   11.4443  -16.6044   21.7996 C   0  0  0  0  0  0  0  0  0  0  0  0
   12.2412  -15.6693   22.0559 O   0  0  0  0  0  0  0  0  0  0  0  0
   10.1593  -16.6016   22.3669 N   0  0  0  0  0  0  0  0  0  0  0  0
    9.7505  -15.4617   23.1655 C   0  0  1  0  0  0  0  0  0  0  0  0
    8.2645  -15.2955   23.0331 C   0  0  0  0  0  0  0  0  0  0  0  0
    7.9505  -14.5171   21.7959 C   0  0  0  0  0  0  0  0  0  0  0  0
    8.8966  -14.0497   20.9061 C   0  0  0  0  0  0  0  0  0  0  0  0
    8.2311  -13.4018   19.9287 N   0  0  0  0  0  0  0  0  0  0  0  0
    6.9194  -13.4421   20.1648 C   0  0  0  0  0  0  0  0  0  0  0  0
    6.7583  -14.1314   21.3172 N   0  0  0  0  0  0  0  0  0  0  0  0
   10.1415  -15.6944   24.6005 C   0  0  0  0  0  0  0  0  0  0  0  0
   10.5615  -16.8047   25.0088 O   0  0  0  0  0  0  0  0  0  0  0  0
   10.0425  -14.6425   25.5443 N   0  0  0  0  0  0  0  0  0  0  0  0
   10.4690  -14.8897   26.9040 C   0  0  1  0  0  0  0  0  0  0  0  0
   10.3107  -13.6078   27.6936 C   0  0  0  0  0  0  0  0  0  0  0  0
   10.8933  -13.8029   29.4015 S   0  0  0  0  0  0  0  0  0  0  0  0
    9.6062  -15.9704   27.4473 C   0  0  0  0  0  0  0  0  0  0  0  0
    8.3911  -16.0700   27.1707 O   0  0  0  0  0  0  0  0  0  0  0  0
   10.1568  -16.9159   28.2981 O   0  0  0  0  0  0  0  0  0  0  0  0
  2  1  1  0
  2  4  1  0
  3  2  2  0
  5  4  1  0
  5  6  1  0
  6  8  1  0
  6  7  1  6
  8 10  1  0
  9  8  2  0
 10 11  1  0
 11 18  1  0
 11 12  1  1
 13 12  1  0
 13 14  2  0
 15 14  1  0
 16 17  2  0
 16 15  1  0
 17 13  1  0
 18 20  1  0
 19 18  2  0
 20 21  1  0
 21 24  1  0
 21 22  1  1
 22 23  1  0
 24 25  2  0
 24 26  1  0
M  END
$$$$
