EAS.pdb
     RDKit          3D

 21 20  0  0  1  0  0  0  0  0999 V2000
   11.1006  -18.8265   18.8377 N   0  0  0  0  0  0  0  0  0  0  0  0
   11.2395  -19.9357   19.7223 C   0  0  1  0  0  0  0  0  0  0  0  0
   12.4923  -20.7074   19.5079 C   0  0  0  0  0  0  0  0  0  0  0  0
   13.0366  -20.7609   18.1308 C   0  0  0  0  0  0  0  0  0  0  0  0
   14.2659  -21.5160   17.9072 C   0  0  0  0  0  0  0  0  0  0  0  0
   15.0928  -21.3025   17.0044 O   0  0  0  0  0  0  0  0  0  0  0  0
   11.2346  -19.4657   21.1290 C   0  0  0  0  0  0  0  0  0  0  0  0
   12.3386  -19.1343   21.6283 O   0  0  0  0  0  0  0  0  0  0  0  0
   14.5656  -22.5835   18.7741 O   0  0  0  0  0  0  0  0  0  0  0  0
    8.6376  -18.2883   23.4989 C   0  0  0  0  0  0  0  0  0  0  0  0
   10.0520  -18.8127   23.2459 C   0  0  2  0  0  0  0  0  0  0  0  0
   10.0783  -19.3792   21.9041 N   0  0  0  0  0  0  0  0  0  0  0  0
   10.4342  -19.8087   24.2764 C   0  0  0  0  0  0  0  0  0  0  0  0
   10.0542  -20.9975   24.1245 O   0  0  0  0  0  0  0  0  0  0  0  0
   13.9535  -19.8056   26.2108 O   0  0  0  0  0  0  0  0  0  0  0  0
   13.0443  -20.8373   26.1549 C   0  0  0  0  0  0  0  0  0  0  0  0
   11.6229  -20.3687   26.4158 C   0  0  2  0  0  0  0  0  0  0  0  0
   11.2090  -19.4360   25.4076 N   0  0  0  0  0  0  0  0  0  0  0  0
   11.4179  -19.9061   27.7894 C   0  0  0  0  0  0  0  0  0  0  0  0
   10.9207  -18.7611   27.9561 O   0  0  0  0  0  0  0  0  0  0  0  0
   11.7246  -20.6215   28.9333 O   0  0  0  0  0  0  0  0  0  0  0  0
  2  1  1  6
  3  2  1  0
  4  3  1  0
  4  5  1  0
  5  6  2  0
  7  2  1  0
  8  7  2  0
  9  5  1  0
 11 10  1  1
 11 13  1  0
 11 12  1  0
 12  7  1  0
 13 18  1  0
 14 13  2  0
 16 15  1  0
 17 16  1  6
 18 17  1  0
 19 21  1  0
 19 17  1  0
 20 19  2  0
M  END
$$$$
