EAS.pdb
     RDKit          3D

 21 20  0  0  1  0  0  0  0  0999 V2000
    8.3327  -17.1323   17.0499 N   0  0  0  0  0  0  0  0  0  0  0  0
    9.5041  -16.4072   16.6832 C   0  0  1  0  0  0  0  0  0  0  0  0
    9.5332  -16.0214   15.2475 C   0  0  0  0  0  0  0  0  0  0  0  0
    8.2333  -15.8055   14.5699 C   0  0  0  0  0  0  0  0  0  0  0  0
    8.2490  -15.4018   13.1669 C   0  0  0  0  0  0  0  0  0  0  0  0
    9.0206  -15.8389   12.2964 O   0  0  0  0  0  0  0  0  0  0  0  0
    9.6028  -15.1642   17.4863 C   0  0  0  0  0  0  0  0  0  0  0  0
   10.7070  -14.5654   17.4855 O   0  0  0  0  0  0  0  0  0  0  0  0
    7.3211  -14.4355   12.7355 O   0  0  0  0  0  0  0  0  0  0  0  0
    7.2255  -12.8932   19.2322 C   0  0  0  0  0  0  0  0  0  0  0  0
    8.6420  -13.4347   19.0328 C   0  0  2  0  0  0  0  0  0  0  0  0
    8.5418  -14.6445   18.2276 N   0  0  0  0  0  0  0  0  0  0  0  0
    9.2945  -13.6905   20.3400 C   0  0  0  0  0  0  0  0  0  0  0  0
    9.4457  -12.7231   21.1288 O   0  0  0  0  0  0  0  0  0  0  0  0
    9.3567  -17.4999   22.0199 O   0  0  0  0  0  0  0  0  0  0  0  0
    9.4787  -16.3176   22.7137 C   0  0  0  0  0  0  0  0  0  0  0  0
   10.3247  -15.2973   21.9712 C   0  0  2  0  0  0  0  0  0  0  0  0
    9.7393  -14.9917   20.6978 N   0  0  0  0  0  0  0  0  0  0  0  0
   11.7407  -15.6635   21.9143 C   0  0  0  0  0  0  0  0  0  0  0  0
   12.2450  -15.8881   20.7824 O   0  0  0  0  0  0  0  0  0  0  0  0
   12.5841  -15.7865   23.0042 O   0  0  0  0  0  0  0  0  0  0  0  0
  2  1  1  1
  3  2  1  0
  4  3  1  0
  4  5  1  0
  5  6  2  0
  7  2  1  0
  8  7  2  0
  9  5  1  0
 11 10  1  1
 11 13  1  0
 11 12  1  0
 12  7  1  0
 13 18  1  0
 14 13  2  0
 16 15  1  0
 17 16  1  6
 18 17  1  0
 19 21  1  0
 19 17  1  0
 20 19  2  0
M  END
$$$$
