EAS.pdb
     RDKit          3D

 21 20  0  0  1  0  0  0  0  0999 V2000
    9.8919  -15.7741   16.7272 N   0  0  0  0  0  0  0  0  0  0  0  0
   10.0756  -16.9274   17.5448 C   0  0  1  0  0  0  0  0  0  0  0  0
   10.9302  -17.9675   16.9134 C   0  0  0  0  0  0  0  0  0  0  0  0
   12.1878  -17.5219   16.2688 C   0  0  0  0  0  0  0  0  0  0  0  0
   13.0155  -18.5280   15.6099 C   0  0  0  0  0  0  0  0  0  0  0  0
   13.5265  -19.5184   16.1597 O   0  0  0  0  0  0  0  0  0  0  0  0
   10.7090  -16.5421   18.8294 C   0  0  0  0  0  0  0  0  0  0  0  0
   11.7062  -15.7804   18.7730 O   0  0  0  0  0  0  0  0  0  0  0  0
   13.2732  -18.3892   14.2332 O   0  0  0  0  0  0  0  0  0  0  0  0
    9.8522  -16.9957   22.4481 C   0  0  0  0  0  0  0  0  0  0  0  0
   10.7790  -16.4951   21.3392 C   0  0  2  0  0  0  0  0  0  0  0  0
   10.2524  -16.9826   20.0714 N   0  0  0  0  0  0  0  0  0  0  0  0
   12.1710  -16.9504   21.5737 C   0  0  0  0  0  0  0  0  0  0  0  0
   12.5349  -18.0395   21.0615 O   0  0  0  0  0  0  0  0  0  0  0  0
   15.3629  -14.3579   22.8134 O   0  0  0  0  0  0  0  0  0  0  0  0
   15.3864  -15.5064   22.0554 C   0  0  0  0  0  0  0  0  0  0  0  0
   14.4368  -16.5672   22.5853 C   0  0  2  0  0  0  0  0  0  0  0  0
   13.0745  -16.1812   22.3553 N   0  0  0  0  0  0  0  0  0  0  0  0
   14.7306  -16.9579   23.9650 C   0  0  0  0  0  0  0  0  0  0  0  0
   15.8900  -17.3761   24.2235 O   0  0  0  0  0  0  0  0  0  0  0  0
   13.8392  -16.9086   25.0222 O   0  0  0  0  0  0  0  0  0  0  0  0
  2  1  1  6
  3  2  1  0
  4  3  1  0
  4  5  1  0
  5  6  2  0
  7  2  1  0
  8  7  2  0
  9  5  1  0
 11 10  1  1
 11 13  1  0
 11 12  1  0
 12  7  1  0
 13 18  1  0
 14 13  2  0
 16 15  1  0
 17 16  1  1
 18 17  1  0
 19 21  1  0
 19 17  1  0
 20 19  2  0
M  END
$$$$
