EAS.pdb
     RDKit          3D

 21 20  0  0  1  0  0  0  0  0999 V2000
    8.8994  -18.3396   18.9469 N   0  0  0  0  0  0  0  0  0  0  0  0
    8.3172  -19.3508   19.7658 C   0  0  1  0  0  0  0  0  0  0  0  0
    8.9455  -20.6868   19.5889 C   0  0  0  0  0  0  0  0  0  0  0  0
   10.4242  -20.7614   19.6482 C   0  0  0  0  0  0  0  0  0  0  0  0
   11.0567  -22.0546   19.4051 C   0  0  0  0  0  0  0  0  0  0  0  0
   10.9485  -23.0606   20.1266 O   0  0  0  0  0  0  0  0  0  0  0  0
    8.4429  -18.9792   21.1962 C   0  0  0  0  0  0  0  0  0  0  0  0
    9.4679  -18.3372   21.5354 O   0  0  0  0  0  0  0  0  0  0  0  0
   11.8644  -22.2031   18.2621 O   0  0  0  0  0  0  0  0  0  0  0  0
    6.1998  -19.0833   24.1835 C   0  0  0  0  0  0  0  0  0  0  0  0
    7.5798  -18.8902   23.5527 C   0  0  2  0  0  0  0  0  0  0  0  0
    7.4897  -19.3075   22.1599 N   0  0  0  0  0  0  0  0  0  0  0  0
    8.6085  -19.6573   24.2965 C   0  0  0  0  0  0  0  0  0  0  0  0
    8.8857  -20.8184   23.9017 O   0  0  0  0  0  0  0  0  0  0  0  0
   12.0256  -18.8126   24.8648 O   0  0  0  0  0  0  0  0  0  0  0  0
   11.5838  -19.0460   26.1471 C   0  0  0  0  0  0  0  0  0  0  0  0
   10.2678  -19.8046   26.1750 C   0  0  2  0  0  0  0  0  0  0  0  0
    9.2671  -19.1009   25.4259 N   0  0  0  0  0  0  0  0  0  0  0  0
    9.8565  -20.1837   27.5277 C   0  0  0  0  0  0  0  0  0  0  0  0
    8.7603  -19.7357   27.9561 O   0  0  0  0  0  0  0  0  0  0  0  0
   10.5716  -20.9988   28.3871 O   0  0  0  0  0  0  0  0  0  0  0  0
  2  1  1  6
  3  2  1  0
  4  3  1  0
  4  5  1  0
  5  6  2  0
  7  2  1  0
  8  7  2  0
  9  5  1  0
 11 10  1  1
 11 13  1  0
 11 12  1  0
 12  7  1  0
 13 18  1  0
 14 13  2  0
 16 15  1  0
 17 16  1  1
 18 17  1  0
 19 21  1  0
 19 17  1  0
 20 19  2  0
M  END
$$$$
