EAS.pdb
     RDKit          3D

 21 20  0  0  1  0  0  0  0  0999 V2000
    9.1774  -14.6601   14.6179 N   0  0  0  0  0  0  0  0  0  0  0  0
    8.2242  -15.0339   15.6098 C   0  0  1  0  0  0  0  0  0  0  0  0
    7.8995  -16.4849   15.5982 C   0  0  0  0  0  0  0  0  0  0  0  0
    8.9549  -17.4192   15.1411 C   0  0  0  0  0  0  0  0  0  0  0  0
    8.9295  -18.7866   15.6520 C   0  0  0  0  0  0  0  0  0  0  0  0
    8.2559  -19.1868   16.6165 O   0  0  0  0  0  0  0  0  0  0  0  0
    8.7391  -14.6978   16.9595 C   0  0  0  0  0  0  0  0  0  0  0  0
    9.9377  -14.9823   17.2048 O   0  0  0  0  0  0  0  0  0  0  0  0
    9.7274  -19.7561   15.0162 O   0  0  0  0  0  0  0  0  0  0  0  0
    7.3622  -12.9888   20.0041 C   0  0  0  0  0  0  0  0  0  0  0  0
    8.4752  -13.7300   19.2617 C   0  0  2  0  0  0  0  0  0  0  0  0
    7.9625  -14.0922   17.9471 N   0  0  0  0  0  0  0  0  0  0  0  0
    8.9180  -14.9181   20.0313 C   0  0  0  0  0  0  0  0  0  0  0  0
    8.2840  -15.9936   19.8822 O   0  0  0  0  0  0  0  0  0  0  0  0
   12.6026  -14.9342   22.2263 O   0  0  0  0  0  0  0  0  0  0  0  0
   12.0297  -16.0285   21.6193 C   0  0  0  0  0  0  0  0  0  0  0  0
   10.5117  -15.9796   21.6553 C   0  0  2  0  0  0  0  0  0  0  0  0
   10.0284  -14.8498   20.9151 N   0  0  0  0  0  0  0  0  0  0  0  0
    9.9693  -16.0927   23.0101 C   0  0  0  0  0  0  0  0  0  0  0  0
   10.3253  -17.0805   23.7054 O   0  0  0  0  0  0  0  0  0  0  0  0
    9.0911  -15.2022   23.6019 O   0  0  0  0  0  0  0  0  0  0  0  0
  2  1  1  6
  3  2  1  0
  4  3  1  0
  4  5  1  0
  5  6  2  0
  7  2  1  0
  8  7  2  0
  9  5  1  0
 11 10  1  1
 11 13  1  0
 11 12  1  0
 12  7  1  0
 13 18  1  0
 14 13  2  0
 16 15  1  0
 17 16  1  1
 18 17  1  0
 19 21  1  0
 19 17  1  0
 20 19  2  0
M  END
$$$$
