EAS.pdb
     RDKit          3D

 21 20  0  0  1  0  0  0  0  0999 V2000
   -6.4457  -24.4632   26.6386 N   0  0  0  0  0  0  0  0  0  0  0  0
   -5.6219  -24.0065   27.7086 C   0  0  1  0  0  0  0  0  0  0  0  0
   -6.3928  -23.4249   28.8393 C   0  0  0  0  0  0  0  0  0  0  0  0
   -7.1461  -22.1749   28.5835 C   0  0  0  0  0  0  0  0  0  0  0  0
   -7.6941  -21.4565   29.7303 C   0  0  0  0  0  0  0  0  0  0  0  0
   -7.6088  -21.8147   30.9171 O   0  0  0  0  0  0  0  0  0  0  0  0
   -4.8162  -25.1311   28.2434 C   0  0  0  0  0  0  0  0  0  0  0  0
   -5.3266  -26.2779   28.1949 O   0  0  0  0  0  0  0  0  0  0  0  0
   -8.3834  -20.2511   29.5009 O   0  0  0  0  0  0  0  0  0  0  0  0
   -1.2925  -25.5978   29.3832 C   0  0  0  0  0  0  0  0  0  0  0  0
   -2.7433  -26.0752   29.3006 C   0  0  2  0  0  0  0  0  0  0  0  0
   -3.5420  -24.9704   28.7872 N   0  0  0  0  0  0  0  0  0  0  0  0
   -3.2204  -26.5353   30.6275 C   0  0  0  0  0  0  0  0  0  0  0  0
   -3.7319  -25.6876   31.4024 O   0  0  0  0  0  0  0  0  0  0  0  0
   -4.6845  -30.2845   31.2070 O   0  0  0  0  0  0  0  0  0  0  0  0
   -3.7954  -29.9083   32.1878 C   0  0  0  0  0  0  0  0  0  0  0  0
   -3.6188  -28.4011   32.2596 C   0  0  2  0  0  0  0  0  0  0  0  0
   -3.1056  -27.8964   31.0189 N   0  0  0  0  0  0  0  0  0  0  0  0
   -2.8735  -27.9698   33.4433 C   0  0  0  0  0  0  0  0  0  0  0  0
   -1.6574  -27.6766   33.2978 O   0  0  0  0  0  0  0  0  0  0  0  0
   -3.3906  -27.8542   34.7215 O   0  0  0  0  0  0  0  0  0  0  0  0
  2  1  1  6
  3  2  1  0
  4  3  1  0
  4  5  1  0
  5  6  2  0
  7  2  1  0
  8  7  2  0
  9  5  1  0
 11 10  1  1
 11 13  1  0
 11 12  1  0
 12  7  1  0
 13 18  1  0
 14 13  2  0
 16 15  1  0
 17 16  1  6
 18 17  1  0
 19 21  1  0
 19 17  1  0
 20 19  2  0
M  END
$$$$
