EAS.pdb
     RDKit          3D

 21 20  0  0  1  0  0  0  0  0999 V2000
    8.0439  -14.4907   19.3584 N   0  0  0  0  0  0  0  0  0  0  0  0
    7.3639  -15.1551   20.4207 C   0  0  1  0  0  0  0  0  0  0  0  0
    7.2636  -16.6260   20.2276 C   0  0  0  0  0  0  0  0  0  0  0  0
    6.7372  -17.1121   18.9306 C   0  0  0  0  0  0  0  0  0  0  0  0
    6.4817  -18.5422   18.7859 C   0  0  0  0  0  0  0  0  0  0  0  0
    6.0227  -19.0969   17.7730 O   0  0  0  0  0  0  0  0  0  0  0  0
    8.0706  -14.9158   21.7026 C   0  0  0  0  0  0  0  0  0  0  0  0
    9.2993  -15.1742   21.7387 O   0  0  0  0  0  0  0  0  0  0  0  0
    6.7709  -19.3895   19.8719 O   0  0  0  0  0  0  0  0  0  0  0  0
    7.1568  -13.5443   25.0710 C   0  0  0  0  0  0  0  0  0  0  0  0
    8.1008  -14.3045   24.1381 C   0  0  2  0  0  0  0  0  0  0  0  0
    7.4392  -14.4266   22.8459 N   0  0  0  0  0  0  0  0  0  0  0  0
    8.4501  -15.6278   24.7099 C   0  0  0  0  0  0  0  0  0  0  0  0
    7.6180  -16.5634   24.5958 O   0  0  0  0  0  0  0  0  0  0  0  0
   12.3584  -17.0017   25.1850 O   0  0  0  0  0  0  0  0  0  0  0  0
   11.1920  -17.7291   25.1182 C   0  0  0  0  0  0  0  0  0  0  0  0
   10.0733  -17.1021   25.9327 C   0  0  2  0  0  0  0  0  0  0  0  0
    9.6903  -15.8393   25.3703 N   0  0  0  0  0  0  0  0  0  0  0  0
   10.3648  -17.0628   27.3666 C   0  0  0  0  0  0  0  0  0  0  0  0
   10.2804  -15.9517   27.9535 O   0  0  0  0  0  0  0  0  0  0  0  0
   10.7286  -18.1483   28.1435 O   0  0  0  0  0  0  0  0  0  0  0  0
  2  1  1  6
  3  2  1  0
  4  3  1  0
  4  5  1  0
  5  6  2  0
  7  2  1  0
  8  7  2  0
  9  5  1  0
 11 10  1  1
 11 13  1  0
 11 12  1  0
 12  7  1  0
 13 18  1  0
 14 13  2  0
 16 15  1  0
 17 16  1  6
 18 17  1  0
 19 21  1  0
 19 17  1  0
 20 19  2  0
M  END
$$$$
