TRS.pdb
     RDKit          3D

 25 24  0  0  1  0  0  0  0  0999 V2000
    6.9018  -12.8315   19.3557 C   0  0  0  0  0  0  0  0  0  0  0  0
    7.7031  -13.5782   18.3417 C   0  0  1  0  0  0  0  0  0  0  0  0
    7.6136  -13.0936   17.0560 O   0  0  0  0  0  0  0  0  0  0  0  0
    9.1683  -13.7433   18.7563 C   0  0  2  0  0  0  0  0  0  0  0  0
    9.9660  -14.2450   17.6774 N   0  0  0  0  0  0  0  0  0  0  0  0
    9.1794  -14.7165   19.8620 C   0  0  0  0  0  0  0  0  0  0  0  0
    8.4924  -14.5265   20.8949 O   0  0  0  0  0  0  0  0  0  0  0  0
   14.1750  -20.7527   21.5954 N   0  0  0  0  0  0  0  0  0  0  0  0
   13.1538  -21.3742   22.3590 C   0  0  0  0  0  0  0  0  0  0  0  0
   13.4215  -22.0694   23.4070 N   0  0  0  0  0  0  0  0  0  0  0  0
   11.7672  -21.2563   21.9964 N   0  0  0  0  0  0  0  0  0  0  0  0
   11.2706  -20.3768   20.9918 C   0  0  0  0  0  0  0  0  0  0  0  0
   10.6058  -19.1318   21.4803 C   0  0  0  0  0  0  0  0  0  0  0  0
   10.7346  -18.1003   20.3596 C   0  0  0  0  0  0  0  0  0  0  0  0
    9.9904  -16.8502   20.8047 C   0  0  2  0  0  0  0  0  0  0  0  0
    9.9791  -15.8709   19.7392 N   0  0  0  0  0  0  0  0  0  0  0  0
   10.6345  -16.2790   22.0394 C   0  0  0  0  0  0  0  0  0  0  0  0
   11.7496  -15.7328   22.0124 O   0  0  0  0  0  0  0  0  0  0  0  0
   12.6613  -22.5720   23.8925 O   0  0  0  0  0  0  0  0  0  0  0  0
    8.1283  -15.9232   25.2743 C   0  0  0  0  0  0  0  0  0  0  0  0
    9.2691  -15.1221   25.1897 C   0  0  1  0  0  0  0  0  0  0  0  0
   10.4207  -15.8460   24.5151 N   0  0  0  0  0  0  0  0  0  0  0  0
    9.9527  -16.3652   23.2676 C   0  0  0  0  0  0  0  0  0  0  0  0
   10.9314  -16.8566   25.4379 O   0  0  0  0  0  0  0  0  0  0  0  0
   10.8288  -18.0735   25.1599 O   0  0  0  0  0  0  0  0  0  0  0  0
  2  1  1  1
  3  2  1  0
  4  2  1  0
  4  5  1  6
  6  7  2  0
  6  4  1  0
  9  8  1  0
  9 11  1  0
 10  9  2  0
 12 11  1  0
 13 14  1  0
 13 12  1  0
 15 14  1  6
 15 16  1  0
 16  6  1  0
 17 15  1  0
 18 17  2  0
 19 20  1  0
 21 20  1  6
 21 22  1  0
 22 17  1  0
 23 21  1  0
 24 23  2  0
 25 23  1  0
M  END
$$$$
