TRS.pdb
     RDKit          3D

 25 24  0  0  1  0  0  0  0  0999 V2000
   11.8167  -14.3035   18.7980 C   0  0  0  0  0  0  0  0  0  0  0  0
   10.7690  -13.2563   18.6151 C   0  0  1  0  0  0  0  0  0  0  0  0
   11.0705  -12.2864   17.6853 O   0  0  0  0  0  0  0  0  0  0  0  0
    9.3839  -13.8517   18.3453 C   0  0  2  0  0  0  0  0  0  0  0  0
    8.3940  -12.8283   18.1877 N   0  0  0  0  0  0  0  0  0  0  0  0
    9.0497  -14.6738   19.5210 C   0  0  0  0  0  0  0  0  0  0  0  0
    8.5880  -14.1499   20.5638 O   0  0  0  0  0  0  0  0  0  0  0  0
    8.0873  -22.7921   17.9077 N   0  0  0  0  0  0  0  0  0  0  0  0
    7.9100  -22.3199   19.2335 C   0  0  0  0  0  0  0  0  0  0  0  0
    7.7852  -23.1262   20.2274 N   0  0  0  0  0  0  0  0  0  0  0  0
    7.8610  -20.9135   19.5300 N   0  0  0  0  0  0  0  0  0  0  0  0
    7.8595  -19.8838   18.5457 C   0  0  0  0  0  0  0  0  0  0  0  0
    7.7792  -18.4841   19.0609 C   0  0  0  0  0  0  0  0  0  0  0  0
    8.8408  -18.3603   20.1537 C   0  0  0  0  0  0  0  0  0  0  0  0
    8.8884  -16.9000   20.5779 C   0  0  2  0  0  0  0  0  0  0  0  0
    9.2585  -16.0663   19.4543 N   0  0  0  0  0  0  0  0  0  0  0  0
    9.8648  -16.7236   21.7098 C   0  0  0  0  0  0  0  0  0  0  0  0
   11.0887  -16.6319   21.5205 O   0  0  0  0  0  0  0  0  0  0  0  0
    7.6773  -22.7458   21.1812 O   0  0  0  0  0  0  0  0  0  0  0  0
    8.0636  -16.4938   25.3838 C   0  0  0  0  0  0  0  0  0  0  0  0
    9.2494  -15.7700   25.2418 C   0  0  1  0  0  0  0  0  0  0  0  0
   10.1613  -16.3775   24.1907 N   0  0  0  0  0  0  0  0  0  0  0  0
    9.3774  -16.6602   23.0286 C   0  0  0  0  0  0  0  0  0  0  0  0
   10.8215  -17.5428   24.7737 O   0  0  0  0  0  0  0  0  0  0  0  0
   10.5647  -18.6920   24.3470 O   0  0  0  0  0  0  0  0  0  0  0  0
  2  1  1  6
  3  2  1  0
  4  2  1  0
  4  5  1  1
  6  7  2  0
  6  4  1  0
  9  8  1  0
  9 11  1  0
 10  9  2  0
 12 11  1  0
 13 14  1  0
 13 12  1  0
 15 14  1  6
 15 16  1  0
 16  6  1  0
 17 15  1  0
 18 17  2  0
 19 20  1  0
 21 20  1  6
 21 22  1  0
 22 17  1  0
 23 21  1  0
 24 23  2  0
 25 23  1  0
M  END
$$$$
