TRS.pdb
     RDKit          3D

 25 24  0  0  1  0  0  0  0  0999 V2000
   12.3086  -21.7569   17.7034 C   0  0  0  0  0  0  0  0  0  0  0  0
   12.6095  -20.5897   18.5835 C   0  0  1  0  0  0  0  0  0  0  0  0
   13.8958  -20.5450   19.0730 O   0  0  0  0  0  0  0  0  0  0  0  0
   12.2303  -19.2537   17.9377 C   0  0  2  0  0  0  0  0  0  0  0  0
   13.2220  -18.8247   16.9972 N   0  0  0  0  0  0  0  0  0  0  0  0
   12.1437  -18.2731   19.0335 C   0  0  0  0  0  0  0  0  0  0  0  0
   13.1512  -17.6161   19.3918 O   0  0  0  0  0  0  0  0  0  0  0  0
    7.5316  -12.0738   21.2602 N   0  0  0  0  0  0  0  0  0  0  0  0
    8.1064  -12.9964   20.3488 C   0  0  0  0  0  0  0  0  0  0  0  0
    8.2357  -12.7211   19.0994 N   0  0  0  0  0  0  0  0  0  0  0  0
    8.5728  -14.2867   20.7797 N   0  0  0  0  0  0  0  0  0  0  0  0
    8.7920  -14.6497   22.1396 C   0  0  0  0  0  0  0  0  0  0  0  0
    9.3255  -16.0250   22.3736 C   0  0  0  0  0  0  0  0  0  0  0  0
    9.4046  -16.7006   21.0047 C   0  0  0  0  0  0  0  0  0  0  0  0
   10.8228  -17.2258   20.8383 C   0  0  2  0  0  0  0  0  0  0  0  0
   10.9032  -18.0844   19.6761 N   0  0  0  0  0  0  0  0  0  0  0  0
   11.2447  -17.9719   22.0756 C   0  0  0  0  0  0  0  0  0  0  0  0
   10.6292  -18.9674   22.4909 O   0  0  0  0  0  0  0  0  0  0  0  0
    8.7507  -13.3720   18.4853 O   0  0  0  0  0  0  0  0  0  0  0  0
   14.3958  -16.2528   24.2376 C   0  0  0  0  0  0  0  0  0  0  0  0
   14.3163  -17.6457   24.1751 C   0  0  1  0  0  0  0  0  0  0  0  0
   12.8878  -18.1233   23.9834 N   0  0  0  0  0  0  0  0  0  0  0  0
   12.3745  -17.5288   22.7885 C   0  0  0  0  0  0  0  0  0  0  0  0
   12.1311  -17.8045   25.1914 O   0  0  0  0  0  0  0  0  0  0  0  0
   12.4906  -18.2633   26.3000 O   0  0  0  0  0  0  0  0  0  0  0  0
  2  1  1  6
  3  2  1  0
  4  2  1  0
  4  5  1  6
  6  7  2  0
  6  4  1  0
  9  8  1  0
  9 11  1  0
 10  9  2  0
 12 11  1  0
 13 14  1  0
 13 12  1  0
 15 14  1  1
 15 16  1  0
 16  6  1  0
 17 15  1  0
 18 17  2  0
 19 20  1  0
 21 20  1  6
 21 22  1  0
 22 17  1  0
 23 21  1  0
 24 23  2  0
 25 23  1  0
M  END
$$$$
