TRS.pdb
     RDKit          3D

 25 24  0  0  1  0  0  0  0  0999 V2000
   10.0158  -21.6529   11.3249 C   0  0  0  0  0  0  0  0  0  0  0  0
   10.1295  -21.8220   12.8034 C   0  0  1  0  0  0  0  0  0  0  0  0
   11.3945  -21.6381   13.3156 O   0  0  0  0  0  0  0  0  0  0  0  0
    9.1076  -20.9786   13.5716 C   0  0  2  0  0  0  0  0  0  0  0  0
    9.2056  -19.5917   13.2266 N   0  0  0  0  0  0  0  0  0  0  0  0
    9.4215  -21.1469   15.0010 C   0  0  0  0  0  0  0  0  0  0  0  0
    9.8880  -20.1964   15.6747 O   0  0  0  0  0  0  0  0  0  0  0  0
   10.6620  -27.9920   18.0496 N   0  0  0  0  0  0  0  0  0  0  0  0
    9.7351  -27.5837   19.0427 C   0  0  0  0  0  0  0  0  0  0  0  0
    9.8090  -28.0114   20.2531 N   0  0  0  0  0  0  0  0  0  0  0  0
    8.6659  -26.6701   18.7423 N   0  0  0  0  0  0  0  0  0  0  0  0
    8.3886  -26.1558   17.4432 C   0  0  0  0  0  0  0  0  0  0  0  0
    9.2432  -25.0168   16.9925 C   0  0  0  0  0  0  0  0  0  0  0  0
    8.6007  -23.7446   17.5448 C   0  0  0  0  0  0  0  0  0  0  0  0
    9.4071  -22.5646   17.0230 C   0  0  2  0  0  0  0  0  0  0  0  0
    9.1877  -22.4004   15.6019 N   0  0  0  0  0  0  0  0  0  0  0  0
   10.8699  -22.7726   17.3104 C   0  0  0  0  0  0  0  0  0  0  0  0
   11.6601  -23.1957   16.4509 O   0  0  0  0  0  0  0  0  0  0  0  0
    9.1880  -27.6099   20.9737 O   0  0  0  0  0  0  0  0  0  0  0  0
   14.6986  -21.0446   18.4184 C   0  0  0  0  0  0  0  0  0  0  0  0
   13.3312  -21.1929   18.1762 C   0  0  2  0  0  0  0  0  0  0  0  0
   12.7424  -22.3596   18.9491 N   0  0  0  0  0  0  0  0  0  0  0  0
   11.3619  -22.4785   18.5958 C   0  0  0  0  0  0  0  0  0  0  0  0
   12.9861  -22.1375   20.3721 O   0  0  0  0  0  0  0  0  0  0  0  0
   12.0445  -21.8070   21.1289 O   0  0  0  0  0  0  0  0  0  0  0  0
  2  1  1  6
  3  2  1  0
  4  2  1  0
  4  5  1  6
  6  7  2  0
  6  4  1  0
  9  8  1  0
  9 11  1  0
 10  9  2  0
 12 11  1  0
 13 14  1  0
 13 12  1  0
 15 14  1  6
 15 16  1  0
 16  6  1  0
 17 15  1  0
 18 17  2  0
 19 20  1  0
 21 20  1  6
 21 22  1  0
 22 17  1  0
 23 21  1  0
 24 23  2  0
 25 23  1  0
M  END
$$$$
