TRS.pdb
     RDKit          3D

 25 24  0  0  1  0  0  0  0  0999 V2000
    7.6851  -18.6222   25.5585 C   0  0  0  0  0  0  0  0  0  0  0  0
    7.3350  -19.7621   24.6608 C   0  0  1  0  0  0  0  0  0  0  0  0
    6.6702  -20.8020   25.2713 O   0  0  0  0  0  0  0  0  0  0  0  0
    6.5906  -19.3104   23.4007 C   0  0  2  0  0  0  0  0  0  0  0  0
    6.2725  -20.4200   22.5524 N   0  0  0  0  0  0  0  0  0  0  0  0
    7.5000  -18.3979   22.6864 C   0  0  0  0  0  0  0  0  0  0  0  0
    8.4992  -18.8377   22.0674 O   0  0  0  0  0  0  0  0  0  0  0  0
    6.9199  -12.8505   17.1650 N   0  0  0  0  0  0  0  0  0  0  0  0
    7.6716  -14.0120   17.4778 C   0  0  0  0  0  0  0  0  0  0  0  0
    8.0012  -14.8672   16.5760 N   0  0  0  0  0  0  0  0  0  0  0  0
    8.1015  -14.2894   18.8218 N   0  0  0  0  0  0  0  0  0  0  0  0
    8.0892  -13.3385   19.8825 C   0  0  0  0  0  0  0  0  0  0  0  0
    8.5411  -13.8374   21.2159 C   0  0  0  0  0  0  0  0  0  0  0  0
    7.4692  -14.8124   21.7026 C   0  0  0  0  0  0  0  0  0  0  0  0
    8.1772  -16.0883   22.1334 C   0  0  2  0  0  0  0  0  0  0  0  0
    7.2271  -17.0151   22.7103 N   0  0  0  0  0  0  0  0  0  0  0  0
    9.2657  -15.7653   23.1216 C   0  0  0  0  0  0  0  0  0  0  0  0
    9.0325  -15.2004   24.2027 O   0  0  0  0  0  0  0  0  0  0  0  0
    8.5781  -15.6835   16.8349 O   0  0  0  0  0  0  0  0  0  0  0  0
   11.4583  -18.2162   24.4440 C   0  0  0  0  0  0  0  0  0  0  0  0
   11.5645  -16.8857   24.8547 C   0  0  1  0  0  0  0  0  0  0  0  0
   11.7200  -15.9402   23.6769 N   0  0  0  0  0  0  0  0  0  0  0  0
   10.5939  -16.1138   22.8128 C   0  0  0  0  0  0  0  0  0  0  0  0
   13.0120  -16.1999   23.0470 O   0  0  0  0  0  0  0  0  0  0  0  0
   13.0649  -16.6890   21.8952 O   0  0  0  0  0  0  0  0  0  0  0  0
  2  1  1  1
  3  2  1  0
  4  2  1  0
  4  5  1  6
  6  7  2  0
  6  4  1  0
  9  8  1  0
  9 11  1  0
 10  9  2  0
 12 11  1  0
 13 14  1  0
 13 12  1  0
 15 14  1  1
 15 16  1  0
 16  6  1  0
 17 15  1  0
 18 17  2  0
 19 20  1  0
 21 20  1  1
 21 22  1  0
 22 17  1  0
 23 21  1  0
 24 23  2  0
 25 23  1  0
M  END
$$$$
