TRS.pdb
     RDKit          3D

 25 24  0  0  1  0  0  0  0  0999 V2000
    7.3701  -18.3359   27.2456 C   0  0  0  0  0  0  0  0  0  0  0  0
    7.4406  -19.7917   26.9240 C   0  0  1  0  0  0  0  0  0  0  0  0
    6.9244  -20.6275   27.8889 O   0  0  0  0  0  0  0  0  0  0  0  0
    6.8465  -20.1195   25.5510 C   0  0  2  0  0  0  0  0  0  0  0  0
    6.8610  -21.5290   25.2954 N   0  0  0  0  0  0  0  0  0  0  0  0
    7.6945  -19.4371   24.5584 C   0  0  0  0  0  0  0  0  0  0  0  0
    8.8298  -19.8839   24.2646 O   0  0  0  0  0  0  0  0  0  0  0  0
    7.2304  -12.0237   19.7761 N   0  0  0  0  0  0  0  0  0  0  0  0
    7.9065  -12.9590   18.9513 C   0  0  0  0  0  0  0  0  0  0  0  0
    8.4933  -12.6017   17.8645 N   0  0  0  0  0  0  0  0  0  0  0  0
    7.9676  -14.3548   19.2921 N   0  0  0  0  0  0  0  0  0  0  0  0
    7.3394  -14.9325   20.4327 C   0  0  0  0  0  0  0  0  0  0  0  0
    8.1828  -15.8564   21.2486 C   0  0  0  0  0  0  0  0  0  0  0  0
    7.2651  -16.4604   22.3113 C   0  0  0  0  0  0  0  0  0  0  0  0
    8.0725  -17.5034   23.0696 C   0  0  2  0  0  0  0  0  0  0  0  0
    7.2061  -18.2676   23.9412 N   0  0  0  0  0  0  0  0  0  0  0  0
    9.1623  -16.8343   23.8636 C   0  0  0  0  0  0  0  0  0  0  0  0
    8.9678  -16.3792   25.0026 O   0  0  0  0  0  0  0  0  0  0  0  0
    8.9164  -13.3195   17.2546 O   0  0  0  0  0  0  0  0  0  0  0  0
   11.5511  -17.3253   26.2645 C   0  0  0  0  0  0  0  0  0  0  0  0
   11.9301  -17.6029   24.9494 C   0  0  2  0  0  0  0  0  0  0  0  0
   11.6481  -16.4356   24.0202 N   0  0  0  0  0  0  0  0  0  0  0  0
   10.4463  -16.7190   23.2989 C   0  0  0  0  0  0  0  0  0  0  0  0
   12.8233  -16.2239   23.1791 O   0  0  0  0  0  0  0  0  0  0  0  0
   12.7748  -16.4756   21.9531 O   0  0  0  0  0  0  0  0  0  0  0  0
  2  1  1  1
  3  2  1  0
  4  2  1  0
  4  5  1  6
  6  7  2  0
  6  4  1  0
  9  8  1  0
  9 11  1  0
 10  9  2  0
 12 11  1  0
 13 14  1  0
 13 12  1  0
 15 14  1  1
 15 16  1  0
 16  6  1  0
 17 15  1  0
 18 17  2  0
 19 20  1  0
 21 20  1  1
 21 22  1  0
 22 17  1  0
 23 21  1  0
 24 23  2  0
 25 23  1  0
M  END
$$$$
