WWG.pdb
     RDKit          3D

 33 36  0  0  1  0  0  0  0  0999 V2000
   11.1075  -15.8186   21.3793 N   0  0  0  0  0  0  0  0  0  0  0  0
   10.1368  -16.1403   22.3866 C   0  0  1  0  0  0  0  0  0  0  0  0
    8.8916  -16.6835   21.7322 C   0  0  0  0  0  0  0  0  0  0  0  0
    8.1699  -15.6381   20.9813 C   0  0  0  0  0  0  0  0  0  0  0  0
    7.6324  -15.6711   19.7347 C   0  0  0  0  0  0  0  0  0  0  0  0
    7.0790  -14.4804   19.4423 N   0  0  0  0  0  0  0  0  0  0  0  0
    7.2608  -13.6805   20.5038 C   0  0  0  0  0  0  0  0  0  0  0  0
    6.8780  -12.3496   20.7022 C   0  0  0  0  0  0  0  0  0  0  0  0
    7.1968  -11.7581   21.8974 C   0  0  0  0  0  0  0  0  0  0  0  0
    7.8755  -12.4445   22.8842 C   0  0  0  0  0  0  0  0  0  0  0  0
    8.2493  -13.7485   22.6868 C   0  0  0  0  0  0  0  0  0  0  0  0
    7.9318  -14.3540   21.4836 C   0  0  0  0  0  0  0  0  0  0  0  0
   10.6462  -17.1699   23.3117 C   0  0  0  0  0  0  0  0  0  0  0  0
   11.8015  -17.6986   23.1323 O   0  0  0  0  0  0  0  0  0  0  0  0
    9.9361  -17.6768   24.4618 N   0  0  0  0  0  0  0  0  0  0  0  0
   10.4139  -17.3984   25.7922 C   0  0  1  0  0  0  0  0  0  0  0  0
    9.3793  -17.1546   26.8074 C   0  0  0  0  0  0  0  0  0  0  0  0
    8.4269  -16.0822   26.5724 C   0  0  0  0  0  0  0  0  0  0  0  0
    7.1723  -16.2743   25.9834 C   0  0  0  0  0  0  0  0  0  0  0  0
    6.5596  -15.0917   25.8814 N   0  0  0  0  0  0  0  0  0  0  0  0
    7.3529  -14.1076   26.3799 C   0  0  0  0  0  0  0  0  0  0  0  0
    7.1569  -12.7522   26.5039 C   0  0  0  0  0  0  0  0  0  0  0  0
    8.1392  -11.9908   27.0711 C   0  0  0  0  0  0  0  0  0  0  0  0
    9.2983  -12.5838   27.5055 C   0  0  0  0  0  0  0  0  0  0  0  0
    9.4699  -13.9336   27.3695 C   0  0  0  0  0  0  0  0  0  0  0  0
    8.5197  -14.7421   26.8096 C   0  0  0  0  0  0  0  0  0  0  0  0
   11.3496  -18.5186   26.2318 C   0  0  0  0  0  0  0  0  0  0  0  0
   11.7803  -18.4778   27.3961 O   0  0  0  0  0  0  0  0  0  0  0  0
   11.7102  -19.5572   25.3495 N   0  0  0  0  0  0  0  0  0  0  0  0
   12.4948  -20.7047   25.7249 C   0  0  0  0  0  0  0  0  0  0  0  0
   13.9284  -20.3888   25.8849 C   0  0  0  0  0  0  0  0  0  0  0  0
   14.3145  -19.2170   25.8645 O   0  0  0  0  0  0  0  0  0  0  0  0
   14.8300  -21.4172   26.0561 O   0  0  0  0  0  0  0  0  0  0  0  0
  2 13  1  0
  2  1  1  6
  3  2  1  0
  4  3  1  0
  5  4  2  0
  6  5  1  0
  7  6  1  0
  7 12  2  0
  8  7  1  0
  9  8  2  0
  9 10  1  0
 10 11  2  0
 11 12  1  0
 12  4  1  0
 13 14  2  0
 15 16  1  0
 15 13  1  0
 16 17  1  1
 18 17  1  0
 19 18  2  0
 20 19  1  0
 21 20  1  0
 21 26  2  0
 22 21  1  0
 23 22  2  0
 23 24  1  0
 24 25  2  0
 25 26  1  0
 26 18  1  0
 27 28  2  0
 27 16  1  0
 29 27  1  0
 30 29  1  0
 31 30  1  0
 32 31  2  0
 33 31  1  0
M  END
$$$$
