WWG.pdb
     RDKit          3D

 33 36  0  0  1  0  0  0  0  0999 V2000
    9.0430  -16.9853   21.7341 N   0  0  0  0  0  0  0  0  0  0  0  0
    9.3290  -15.6242   22.0889 C   0  0  1  0  0  0  0  0  0  0  0  0
    8.0868  -14.7866   21.9185 C   0  0  0  0  0  0  0  0  0  0  0  0
    7.5440  -14.8883   20.5501 C   0  0  0  0  0  0  0  0  0  0  0  0
    6.6693  -15.7824   20.0213 C   0  0  0  0  0  0  0  0  0  0  0  0
    6.4644  -15.5089   18.7203 N   0  0  0  0  0  0  0  0  0  0  0  0
    7.2088  -14.4361   18.4124 C   0  0  0  0  0  0  0  0  0  0  0  0
    7.3523  -13.7611   17.1955 C   0  0  0  0  0  0  0  0  0  0  0  0
    8.1939  -12.6794   17.1533 C   0  0  0  0  0  0  0  0  0  0  0  0
    8.8853  -12.2587   18.2715 C   0  0  0  0  0  0  0  0  0  0  0  0
    8.7427  -12.9223   19.4625 C   0  0  0  0  0  0  0  0  0  0  0  0
    7.8954  -14.0151   19.5148 C   0  0  0  0  0  0  0  0  0  0  0  0
    9.7565  -15.5163   23.4964 C   0  0  0  0  0  0  0  0  0  0  0  0
   10.2596  -14.4253   23.9469 O   0  0  0  0  0  0  0  0  0  0  0  0
    9.6666  -16.5741   24.4746 N   0  0  0  0  0  0  0  0  0  0  0  0
   10.1745  -16.3764   25.8083 C   0  0  1  0  0  0  0  0  0  0  0  0
    9.1641  -16.2710   26.8704 C   0  0  0  0  0  0  0  0  0  0  0  0
    7.9622  -15.4998   26.5996 C   0  0  0  0  0  0  0  0  0  0  0  0
    6.7194  -16.0755   26.3136 C   0  0  0  0  0  0  0  0  0  0  0  0
    5.8366  -15.0999   26.0826 N   0  0  0  0  0  0  0  0  0  0  0  0
    6.4361  -13.8865   26.2024 C   0  0  0  0  0  0  0  0  0  0  0  0
    5.9446  -12.6088   26.0725 C   0  0  0  0  0  0  0  0  0  0  0  0
    6.7881  -11.5523   26.2693 C   0  0  0  0  0  0  0  0  0  0  0  0
    8.1032  -11.7785   26.5909 C   0  0  0  0  0  0  0  0  0  0  0  0
    8.5682  -13.0586   26.7126 C   0  0  0  0  0  0  0  0  0  0  0  0
    7.7677  -14.1516   26.5268 C   0  0  0  0  0  0  0  0  0  0  0  0
   11.1820  -17.4751   26.1273 C   0  0  0  0  0  0  0  0  0  0  0  0
   11.6187  -17.5284   27.2889 O   0  0  0  0  0  0  0  0  0  0  0  0
   11.5994  -18.3917   25.1411 N   0  0  0  0  0  0  0  0  0  0  0  0
   12.4649  -19.5149   25.3920 C   0  0  0  0  0  0  0  0  0  0  0  0
   13.8697  -19.2468   25.0239 C   0  0  0  0  0  0  0  0  0  0  0  0
   14.4960  -20.0506   24.3283 O   0  0  0  0  0  0  0  0  0  0  0  0
   14.4731  -18.0897   25.4671 O   0  0  0  0  0  0  0  0  0  0  0  0
  2 13  1  0
  2  1  1  1
  3  2  1  0
  4  3  1  0
  5  4  2  0
  6  5  1  0
  7  6  1  0
  7 12  2  0
  8  7  1  0
  9  8  2  0
  9 10  1  0
 10 11  2  0
 11 12  1  0
 12  4  1  0
 13 14  2  0
 15 16  1  0
 15 13  1  0
 16 17  1  1
 18 17  1  0
 19 18  2  0
 20 19  1  0
 21 20  1  0
 21 26  2  0
 22 21  1  0
 23 22  2  0
 23 24  1  0
 24 25  2  0
 25 26  1  0
 26 18  1  0
 27 28  2  0
 27 16  1  0
 29 27  1  0
 30 29  1  0
 31 30  1  0
 32 31  2  0
 33 31  1  0
M  END
$$$$
