WWG.pdb
     RDKit          3D

 33 36  0  0  1  0  0  0  0  0999 V2000
   11.2167  -17.2660   21.1251 N   0  0  0  0  0  0  0  0  0  0  0  0
   10.2927  -16.4667   21.8786 C   0  0  1  0  0  0  0  0  0  0  0  0
    8.9009  -17.0271   21.7276 C   0  0  0  0  0  0  0  0  0  0  0  0
    8.0430  -16.1442   20.9139 C   0  0  0  0  0  0  0  0  0  0  0  0
    7.1876  -16.4462   19.9034 C   0  0  0  0  0  0  0  0  0  0  0  0
    6.6210  -15.3215   19.4306 N   0  0  0  0  0  0  0  0  0  0  0  0
    7.1131  -14.2942   20.1395 C   0  0  0  0  0  0  0  0  0  0  0  0
    6.8487  -12.9242   20.0385 C   0  0  0  0  0  0  0  0  0  0  0  0
    7.5009  -12.0765   20.8964 C   0  0  0  0  0  0  0  0  0  0  0  0
    8.3947  -12.5481   21.8366 C   0  0  0  0  0  0  0  0  0  0  0  0
    8.6518  -13.8913   21.9331 C   0  0  0  0  0  0  0  0  0  0  0  0
    7.9982  -14.7546   21.0715 C   0  0  0  0  0  0  0  0  0  0  0  0
   10.6278  -16.4718   23.3149 C   0  0  0  0  0  0  0  0  0  0  0  0
   11.8472  -16.3829   23.7039 O   0  0  0  0  0  0  0  0  0  0  0  0
    9.6703  -16.5775   24.3902 N   0  0  0  0  0  0  0  0  0  0  0  0
   10.0978  -16.4474   25.7599 C   0  0  1  0  0  0  0  0  0  0  0  0
    9.0463  -16.1133   26.7311 C   0  0  0  0  0  0  0  0  0  0  0  0
    7.9323  -15.2952   26.2816 C   0  0  0  0  0  0  0  0  0  0  0  0
    6.7332  -15.8212   25.7883 C   0  0  0  0  0  0  0  0  0  0  0  0
    5.9344  -14.8110   25.4332 N   0  0  0  0  0  0  0  0  0  0  0  0
    6.5486  -13.6221   25.6686 C   0  0  0  0  0  0  0  0  0  0  0  0
    6.1298  -12.3257   25.4817 C   0  0  0  0  0  0  0  0  0  0  0  0
    6.9665  -11.3035   25.8301 C   0  0  0  0  0  0  0  0  0  0  0  0
    8.2030  -11.5818   26.3569 C   0  0  0  0  0  0  0  0  0  0  0  0
    8.5969  -12.8795   26.5314 C   0  0  0  0  0  0  0  0  0  0  0  0
    7.7996  -13.9400   26.2003 C   0  0  0  0  0  0  0  0  0  0  0  0
   10.8353  -17.7150   26.1758 C   0  0  0  0  0  0  0  0  0  0  0  0
   11.3165  -17.7450   27.3205 O   0  0  0  0  0  0  0  0  0  0  0  0
   10.9647  -18.8071   25.2940 N   0  0  0  0  0  0  0  0  0  0  0  0
   11.5523  -20.0724   25.6505 C   0  0  0  0  0  0  0  0  0  0  0  0
   12.9927  -19.9666   25.9585 C   0  0  0  0  0  0  0  0  0  0  0  0
   13.3675  -19.4704   27.0241 O   0  0  0  0  0  0  0  0  0  0  0  0
   13.9132  -20.4273   25.0419 O   0  0  0  0  0  0  0  0  0  0  0  0
  2 13  1  0
  2  1  1  6
  3  2  1  0
  4  3  1  0
  5  4  2  0
  6  5  1  0
  7  6  1  0
  7 12  2  0
  8  7  1  0
  9  8  2  0
  9 10  1  0
 10 11  2  0
 11 12  1  0
 12  4  1  0
 13 14  2  0
 15 16  1  0
 15 13  1  0
 16 17  1  1
 18 17  1  0
 19 18  2  0
 20 19  1  0
 21 20  1  0
 21 26  2  0
 22 21  1  0
 23 22  2  0
 23 24  1  0
 24 25  2  0
 25 26  1  0
 26 18  1  0
 27 28  2  0
 27 16  1  0
 29 27  1  0
 30 29  1  0
 31 30  1  0
 32 31  2  0
 33 31  1  0
M  END
$$$$
