WWG.pdb
     RDKit          3D

 33 36  0  0  1  0  0  0  0  0999 V2000
    7.7361  -16.6002   21.7284 N   0  0  0  0  0  0  0  0  0  0  0  0
    9.0010  -17.1753   22.0885 C   0  0  1  0  0  0  0  0  0  0  0  0
    9.9728  -17.0118   20.9473 C   0  0  0  0  0  0  0  0  0  0  0  0
    9.6545  -15.8284   20.1252 C   0  0  0  0  0  0  0  0  0  0  0  0
   10.1540  -15.4389   18.9240 C   0  0  0  0  0  0  0  0  0  0  0  0
    9.5881  -14.2783   18.5467 N   0  0  0  0  0  0  0  0  0  0  0  0
    8.7225  -13.9215   19.5075 C   0  0  0  0  0  0  0  0  0  0  0  0
    7.8903  -12.8004   19.5962 C   0  0  0  0  0  0  0  0  0  0  0  0
    7.0945  -12.6741   20.7056 C   0  0  0  0  0  0  0  0  0  0  0  0
    7.1047  -13.6182   21.7125 C   0  0  0  0  0  0  0  0  0  0  0  0
    7.9213  -14.7156   21.6228 C   0  0  0  0  0  0  0  0  0  0  0  0
    8.7280  -14.8517   20.5067 C   0  0  0  0  0  0  0  0  0  0  0  0
    9.5762  -16.5063   23.2704 C   0  0  0  0  0  0  0  0  0  0  0  0
   10.0618  -15.3219   23.1818 O   0  0  0  0  0  0  0  0  0  0  0  0
    9.6584  -17.0817   24.5918 N   0  0  0  0  0  0  0  0  0  0  0  0
   10.3043  -16.3617   25.6596 C   0  0  1  0  0  0  0  0  0  0  0  0
    9.4408  -15.9677   26.7819 C   0  0  0  0  0  0  0  0  0  0  0  0
    8.1727  -15.3254   26.4790 C   0  0  0  0  0  0  0  0  0  0  0  0
    7.0263  -16.0217   26.0807 C   0  0  0  0  0  0  0  0  0  0  0  0
    6.0476  -15.1423   25.8498 N   0  0  0  0  0  0  0  0  0  0  0  0
    6.4895  -13.8779   26.0777 C   0  0  0  0  0  0  0  0  0  0  0  0
    5.8567  -12.6601   25.9903 C   0  0  0  0  0  0  0  0  0  0  0  0
    6.5549  -11.5279   26.3017 C   0  0  0  0  0  0  0  0  0  0  0  0
    7.8669  -11.6202   26.6938 C   0  0  0  0  0  0  0  0  0  0  0  0
    8.4743  -12.8429   26.7713 C   0  0  0  0  0  0  0  0  0  0  0  0
    7.8225  -14.0071   26.4716 C   0  0  0  0  0  0  0  0  0  0  0  0
   11.4999  -17.1678   26.1542 C   0  0  0  0  0  0  0  0  0  0  0  0
   12.0770  -16.7627   27.1768 O   0  0  0  0  0  0  0  0  0  0  0  0
   11.9311  -18.3255   25.4754 N   0  0  0  0  0  0  0  0  0  0  0  0
   13.0127  -19.1682   25.9151 C   0  0  0  0  0  0  0  0  0  0  0  0
   14.3319  -18.6921   25.4528 C   0  0  0  0  0  0  0  0  0  0  0  0
   14.4111  -17.8571   24.5479 O   0  0  0  0  0  0  0  0  0  0  0  0
   15.4731  -19.1918   26.0425 O   0  0  0  0  0  0  0  0  0  0  0  0
  2 13  1  0
  2  1  1  6
  3  2  1  0
  4  3  1  0
  5  4  2  0
  6  5  1  0
  7  6  1  0
  7 12  2  0
  8  7  1  0
  9  8  2  0
  9 10  1  0
 10 11  2  0
 11 12  1  0
 12  4  1  0
 13 14  2  0
 15 16  1  0
 15 13  1  0
 16 17  1  1
 18 17  1  0
 19 18  2  0
 20 19  1  0
 21 20  1  0
 21 26  2  0
 22 21  1  0
 23 22  2  0
 23 24  1  0
 24 25  2  0
 25 26  1  0
 26 18  1  0
 27 28  2  0
 27 16  1  0
 29 27  1  0
 30 29  1  0
 31 30  1  0
 32 31  2  0
 33 31  1  0
M  END
$$$$
