WWG.pdb
     RDKit          3D

 33 36  0  0  1  0  0  0  0  0999 V2000
   10.9636  -16.3492   20.7492 N   0  0  0  0  0  0  0  0  0  0  0  0
    9.8809  -16.0229   21.6332 C   0  0  1  0  0  0  0  0  0  0  0  0
    8.6352  -16.7511   21.1955 C   0  0  0  0  0  0  0  0  0  0  0  0
    7.9829  -16.0789   20.0551 C   0  0  0  0  0  0  0  0  0  0  0  0
    7.2193  -16.5943   19.0574 C   0  0  0  0  0  0  0  0  0  0  0  0
    6.8436  -15.6151   18.2151 N   0  0  0  0  0  0  0  0  0  0  0  0
    7.3666  -14.4676   18.6730 C   0  0  0  0  0  0  0  0  0  0  0  0
    7.2748  -13.1700   18.1586 C   0  0  0  0  0  0  0  0  0  0  0  0
    7.9181  -12.1627   18.8307 C   0  0  0  0  0  0  0  0  0  0  0  0
    8.6386  -12.4087   19.9821 C   0  0  0  0  0  0  0  0  0  0  0  0
    8.7268  -13.6814   20.4837 C   0  0  0  0  0  0  0  0  0  0  0  0
    8.0807  -14.7045   19.8122 C   0  0  0  0  0  0  0  0  0  0  0  0
   10.1792  -16.4314   23.0187 C   0  0  0  0  0  0  0  0  0  0  0  0
   11.2110  -17.1466   23.2836 O   0  0  0  0  0  0  0  0  0  0  0  0
    9.3812  -16.0941   24.1734 N   0  0  0  0  0  0  0  0  0  0  0  0
    9.8503  -16.4094   25.4987 C   0  0  1  0  0  0  0  0  0  0  0  0
    9.4117  -15.5008   26.5675 C   0  0  0  0  0  0  0  0  0  0  0  0
    8.1283  -14.8351   26.4182 C   0  0  0  0  0  0  0  0  0  0  0  0
    6.9641  -15.4825   25.9901 C   0  0  0  0  0  0  0  0  0  0  0  0
    5.9730  -14.5889   25.9288 N   0  0  0  0  0  0  0  0  0  0  0  0
    6.4238  -13.3620   26.3001 C   0  0  0  0  0  0  0  0  0  0  0  0
    5.7848  -12.1491   26.4080 C   0  0  0  0  0  0  0  0  0  0  0  0
    6.4961  -11.0621   26.8311 C   0  0  0  0  0  0  0  0  0  0  0  0
    7.8269  -11.1941   27.1397 C   0  0  0  0  0  0  0  0  0  0  0  0
    8.4399  -12.4108   27.0225 C   0  0  0  0  0  0  0  0  0  0  0  0
    7.7757  -13.5306   26.6043 C   0  0  0  0  0  0  0  0  0  0  0  0
    9.4818  -17.8512   25.8295 C   0  0  0  0  0  0  0  0  0  0  0  0
    8.3584  -18.0546   26.3187 O   0  0  0  0  0  0  0  0  0  0  0  0
   10.3826  -18.9085   25.5891 N   0  0  0  0  0  0  0  0  0  0  0  0
   11.5225  -19.2071   26.4167 C   0  0  0  0  0  0  0  0  0  0  0  0
   11.1551  -19.9082   27.6633 C   0  0  0  0  0  0  0  0  0  0  0  0
   10.6163  -21.0173   27.6191 O   0  0  0  0  0  0  0  0  0  0  0  0
   11.4197  -19.3094   28.8762 O   0  0  0  0  0  0  0  0  0  0  0  0
  2 13  1  0
  2  1  1  6
  3  2  1  0
  4  3  1  0
  5  4  2  0
  6  5  1  0
  7  6  1  0
  7 12  2  0
  8  7  1  0
  9  8  2  0
  9 10  1  0
 10 11  2  0
 11 12  1  0
 12  4  1  0
 13 14  2  0
 15 16  1  0
 15 13  1  0
 16 17  1  1
 18 17  1  0
 19 18  2  0
 20 19  1  0
 21 20  1  0
 21 26  2  0
 22 21  1  0
 23 22  2  0
 23 24  1  0
 24 25  2  0
 25 26  1  0
 26 18  1  0
 27 28  2  0
 27 16  1  0
 29 27  1  0
 30 29  1  0
 31 30  1  0
 32 31  2  0
 33 31  1  0
M  END
$$$$
