WWG.pdb
     RDKit          3D

 33 36  0  0  1  0  0  0  0  0999 V2000
    8.9423  -17.1986   21.9585 N   0  0  0  0  0  0  0  0  0  0  0  0
    9.0372  -15.8016   22.2743 C   0  0  1  0  0  0  0  0  0  0  0  0
    7.6999  -15.1418   22.0507 C   0  0  0  0  0  0  0  0  0  0  0  0
    7.3683  -15.0539   20.6155 C   0  0  0  0  0  0  0  0  0  0  0  0
    6.5739  -15.8476   19.8520 C   0  0  0  0  0  0  0  0  0  0  0  0
    6.5702  -15.4061   18.5813 N   0  0  0  0  0  0  0  0  0  0  0  0
    7.3639  -14.3258   18.5283 C   0  0  0  0  0  0  0  0  0  0  0  0
    7.6961  -13.5072   17.4436 C   0  0  0  0  0  0  0  0  0  0  0  0
    8.5459  -12.4545   17.6665 C   0  0  0  0  0  0  0  0  0  0  0  0
    9.0654  -12.1990   18.9196 C   0  0  0  0  0  0  0  0  0  0  0  0
    8.7380  -13.0030   19.9806 C   0  0  0  0  0  0  0  0  0  0  0  0
    7.8809  -14.0679   19.7652 C   0  0  0  0  0  0  0  0  0  0  0  0
    9.4116  -15.5960   23.6860 C   0  0  0  0  0  0  0  0  0  0  0  0
    9.7640  -14.4369   24.1086 O   0  0  0  0  0  0  0  0  0  0  0  0
    9.4279  -16.6247   24.6986 N   0  0  0  0  0  0  0  0  0  0  0  0
    9.9682  -16.3500   26.0057 C   0  0  1  0  0  0  0  0  0  0  0  0
    8.9902  -16.2677   27.0998 C   0  0  0  0  0  0  0  0  0  0  0  0
    7.8045  -15.4511   26.8999 C   0  0  0  0  0  0  0  0  0  0  0  0
    6.5923  -15.9505   26.4113 C   0  0  0  0  0  0  0  0  0  0  0  0
    5.7198  -14.9435   26.3154 N   0  0  0  0  0  0  0  0  0  0  0  0
    6.2969  -13.7824   26.7215 C   0  0  0  0  0  0  0  0  0  0  0  0
    5.8041  -12.5020   26.8146 C   0  0  0  0  0  0  0  0  0  0  0  0
    6.6202  -11.5114   27.2827 C   0  0  0  0  0  0  0  0  0  0  0  0
    7.9097  -11.8050   27.6502 C   0  0  0  0  0  0  0  0  0  0  0  0
    8.3766  -13.0860   27.5467 C   0  0  0  0  0  0  0  0  0  0  0  0
    7.6030  -14.1148   27.0852 C   0  0  0  0  0  0  0  0  0  0  0  0
   11.0512  -17.3745   26.3242 C   0  0  0  0  0  0  0  0  0  0  0  0
   11.7485  -17.1723   27.3319 O   0  0  0  0  0  0  0  0  0  0  0  0
   11.2508  -18.5044   25.5054 N   0  0  0  0  0  0  0  0  0  0  0  0
   12.2994  -19.4719   25.6998 C   0  0  0  0  0  0  0  0  0  0  0  0
   12.1288  -20.2580   26.9383 C   0  0  0  0  0  0  0  0  0  0  0  0
   11.1610  -20.0559   27.6764 O   0  0  0  0  0  0  0  0  0  0  0  0
   13.0631  -21.2186   27.2606 O   0  0  0  0  0  0  0  0  0  0  0  0
  2 13  1  0
  2  1  1  1
  3  2  1  0
  4  3  1  0
  5  4  2  0
  6  5  1  0
  7  6  1  0
  7 12  2  0
  8  7  1  0
  9  8  2  0
  9 10  1  0
 10 11  2  0
 11 12  1  0
 12  4  1  0
 13 14  2  0
 15 16  1  0
 15 13  1  0
 16 17  1  1
 18 17  1  0
 19 18  2  0
 20 19  1  0
 21 20  1  0
 21 26  2  0
 22 21  1  0
 23 22  2  0
 23 24  1  0
 24 25  2  0
 25 26  1  0
 26 18  1  0
 27 28  2  0
 27 16  1  0
 29 27  1  0
 30 29  1  0
 31 30  1  0
 32 31  2  0
 33 31  1  0
M  END
$$$$
