WWG.pdb
     RDKit          3D

 33 36  0  0  1  0  0  0  0  0999 V2000
    7.2645  -17.9364   24.7765 N   0  0  0  0  0  0  0  0  0  0  0  0
    7.9646  -16.8044   24.2391 C   0  0  1  0  0  0  0  0  0  0  0  0
    8.5227  -15.9741   25.3673 C   0  0  0  0  0  0  0  0  0  0  0  0
    7.5110  -15.0515   25.9176 C   0  0  0  0  0  0  0  0  0  0  0  0
    6.2748  -15.3079   26.4179 C   0  0  0  0  0  0  0  0  0  0  0  0
    5.6855  -14.1591   26.7951 N   0  0  0  0  0  0  0  0  0  0  0  0
    6.5453  -13.1620   26.5370 C   0  0  0  0  0  0  0  0  0  0  0  0
    6.4110  -11.7845   26.7405 C   0  0  0  0  0  0  0  0  0  0  0  0
    7.4565  -10.9742   26.3790 C   0  0  0  0  0  0  0  0  0  0  0  0
    8.6129  -11.4900   25.8294 C   0  0  0  0  0  0  0  0  0  0  0  0
    8.7414  -12.8404   25.6311 C   0  0  0  0  0  0  0  0  0  0  0  0
    7.6915  -13.6660   25.9930 C   0  0  0  0  0  0  0  0  0  0  0  0
    9.0932  -17.2272   23.3888 C   0  0  0  0  0  0  0  0  0  0  0  0
    9.6172  -18.3904   23.5253 O   0  0  0  0  0  0  0  0  0  0  0  0
    9.7076  -16.4186   22.3627 N   0  0  0  0  0  0  0  0  0  0  0  0
   10.6762  -16.9952   21.4653 C   0  0  1  0  0  0  0  0  0  0  0  0
   10.5943  -16.5561   20.0650 C   0  0  0  0  0  0  0  0  0  0  0  0
   10.1979  -15.1834   19.7986 C   0  0  0  0  0  0  0  0  0  0  0  0
   11.0979  -14.1695   19.4526 C   0  0  0  0  0  0  0  0  0  0  0  0
   10.4226  -13.0260   19.3081 N   0  0  0  0  0  0  0  0  0  0  0  0
    9.0998  -13.2293   19.5428 C   0  0  0  0  0  0  0  0  0  0  0  0
    8.0239  -12.3738   19.5040 C   0  0  0  0  0  0  0  0  0  0  0  0
    6.7779  -12.8653   19.7733 C   0  0  0  0  0  0  0  0  0  0  0  0
    6.6183  -14.1944   20.0765 C   0  0  0  0  0  0  0  0  0  0  0  0
    7.7044  -15.0244   20.1102 C   0  0  0  0  0  0  0  0  0  0  0  0
    8.9729  -14.5854   19.8489 C   0  0  0  0  0  0  0  0  0  0  0  0
   12.0754  -16.7631   22.0239 C   0  0  0  0  0  0  0  0  0  0  0  0
   13.0342  -17.1700   21.3472 O   0  0  0  0  0  0  0  0  0  0  0  0
   12.2697  -16.1131   23.2596 N   0  0  0  0  0  0  0  0  0  0  0  0
   13.5597  -15.8013   23.8181 C   0  0  0  0  0  0  0  0  0  0  0  0
   14.0951  -16.8891   24.6612 C   0  0  0  0  0  0  0  0  0  0  0  0
   13.5399  -17.9908   24.6840 O   0  0  0  0  0  0  0  0  0  0  0  0
   15.2207  -16.6596   25.4228 O   0  0  0  0  0  0  0  0  0  0  0  0
  2 13  1  0
  2  1  1  1
  3  2  1  0
  4  3  1  0
  5  4  2  0
  6  5  1  0
  7  6  1  0
  7 12  2  0
  8  7  1  0
  9  8  2  0
  9 10  1  0
 10 11  2  0
 11 12  1  0
 12  4  1  0
 13 14  2  0
 15 16  1  0
 15 13  1  0
 16 17  1  6
 18 17  1  0
 19 18  2  0
 20 19  1  0
 21 20  1  0
 21 26  2  0
 22 21  1  0
 23 22  2  0
 23 24  1  0
 24 25  2  0
 25 26  1  0
 26 18  1  0
 27 28  2  0
 27 16  1  0
 29 27  1  0
 30 29  1  0
 31 30  1  0
 32 31  2  0
 33 31  1  0
M  END
$$$$
