WWG.pdb
     RDKit          3D

 33 36  0  0  1  0  0  0  0  0999 V2000
    9.4753  -20.0167   25.9709 N   0  0  0  0  0  0  0  0  0  0  0  0
    9.5920  -18.5862   25.9596 C   0  0  1  0  0  0  0  0  0  0  0  0
   10.9886  -18.1905   26.3677 C   0  0  0  0  0  0  0  0  0  0  0  0
   10.9997  -17.4922   27.6676 C   0  0  0  0  0  0  0  0  0  0  0  0
   11.2342  -17.9730   28.9158 C   0  0  0  0  0  0  0  0  0  0  0  0
   11.1249  -16.9806   29.8174 N   0  0  0  0  0  0  0  0  0  0  0  0
   10.8201  -15.8593   29.1469 C   0  0  0  0  0  0  0  0  0  0  0  0
   10.5973  -14.5618   29.6200 C   0  0  0  0  0  0  0  0  0  0  0  0
   10.2929  -13.5856   28.7065 C   0  0  0  0  0  0  0  0  0  0  0  0
   10.2057  -13.8619   27.3568 C   0  0  0  0  0  0  0  0  0  0  0  0
   10.4245  -15.1344   26.8963 C   0  0  0  0  0  0  0  0  0  0  0  0
   10.7324  -16.1262   27.8108 C   0  0  0  0  0  0  0  0  0  0  0  0
    9.3434  -18.0393   24.6126 C   0  0  0  0  0  0  0  0  0  0  0  0
    9.2674  -18.8154   23.5937 O   0  0  0  0  0  0  0  0  0  0  0  0
    9.1717  -16.6395   24.3038 N   0  0  0  0  0  0  0  0  0  0  0  0
    8.6942  -16.2344   23.0063 C   0  0  1  0  0  0  0  0  0  0  0  0
    7.8821  -15.0097   22.9753 C   0  0  0  0  0  0  0  0  0  0  0  0
    7.1022  -14.6738   24.1549 C   0  0  0  0  0  0  0  0  0  0  0  0
    6.2925  -15.5895   24.8359 C   0  0  0  0  0  0  0  0  0  0  0  0
    5.6903  -14.9606   25.8490 N   0  0  0  0  0  0  0  0  0  0  0  0
    6.0632  -13.6543   25.8785 C   0  0  0  0  0  0  0  0  0  0  0  0
    5.7257  -12.6278   26.7289 C   0  0  0  0  0  0  0  0  0  0  0  0
    6.2766  -11.3939   26.5279 C   0  0  0  0  0  0  0  0  0  0  0  0
    7.1516  -11.1972   25.4888 C   0  0  0  0  0  0  0  0  0  0  0  0
    7.4700  -12.2339   24.6559 C   0  0  0  0  0  0  0  0  0  0  0  0
    6.9481  -13.4882   24.8117 C   0  0  0  0  0  0  0  0  0  0  0  0
    9.8768  -16.1235   22.0508 C   0  0  0  0  0  0  0  0  0  0  0  0
    9.6254  -15.8869   20.8576 O   0  0  0  0  0  0  0  0  0  0  0  0
   11.2010  -16.2842   22.5063 N   0  0  0  0  0  0  0  0  0  0  0  0
   12.3685  -16.1259   21.6784 C   0  0  0  0  0  0  0  0  0  0  0  0
   13.6283  -16.3112   22.4262 C   0  0  0  0  0  0  0  0  0  0  0  0
   14.7118  -16.0524   21.8958 O   0  0  0  0  0  0  0  0  0  0  0  0
   13.5801  -16.7773   23.7224 O   0  0  0  0  0  0  0  0  0  0  0  0
  2 13  1  0
  2  1  1  6
  3  2  1  0
  4  3  1  0
  5  4  2  0
  6  5  1  0
  7  6  1  0
  7 12  2  0
  8  7  1  0
  9  8  2  0
  9 10  1  0
 10 11  2  0
 11 12  1  0
 12  4  1  0
 13 14  2  0
 15 16  1  0
 15 13  1  0
 16 17  1  1
 18 17  1  0
 19 18  2  0
 20 19  1  0
 21 20  1  0
 21 26  2  0
 22 21  1  0
 23 22  2  0
 23 24  1  0
 24 25  2  0
 25 26  1  0
 26 18  1  0
 27 28  2  0
 27 16  1  0
 29 27  1  0
 30 29  1  0
 31 30  1  0
 32 31  2  0
 33 31  1  0
M  END
$$$$
