WWG.pdb
     RDKit          3D

 33 36  0  0  1  0  0  0  0  0999 V2000
    8.8671  -17.0309   21.9406 N   0  0  0  0  0  0  0  0  0  0  0  0
    9.1337  -15.6760   22.3321 C   0  0  1  0  0  0  0  0  0  0  0  0
    7.8752  -14.8558   22.2007 C   0  0  0  0  0  0  0  0  0  0  0  0
    7.4048  -14.7992   20.8031 C   0  0  0  0  0  0  0  0  0  0  0  0
    6.4106  -15.4893   20.1872 C   0  0  0  0  0  0  0  0  0  0  0  0
    6.3380  -15.1314   18.8925 N   0  0  0  0  0  0  0  0  0  0  0  0
    7.2875  -14.2087   18.6761 C   0  0  0  0  0  0  0  0  0  0  0  0
    7.6268  -13.5265   17.5029 C   0  0  0  0  0  0  0  0  0  0  0  0
    8.6576  -12.6239   17.5568 C   0  0  0  0  0  0  0  0  0  0  0  0
    9.3484  -12.3861   18.7280 C   0  0  0  0  0  0  0  0  0  0  0  0
    9.0135  -13.0563   19.8761 C   0  0  0  0  0  0  0  0  0  0  0  0
    7.9745  -13.9692   19.8313 C   0  0  0  0  0  0  0  0  0  0  0  0
    9.5759  -15.6019   23.7372 C   0  0  0  0  0  0  0  0  0  0  0  0
   10.0345  -14.5065   24.2233 O   0  0  0  0  0  0  0  0  0  0  0  0
    9.5489  -16.6992   24.6748 N   0  0  0  0  0  0  0  0  0  0  0  0
   10.0787  -16.5329   26.0043 C   0  0  1  0  0  0  0  0  0  0  0  0
    9.0848  -16.3822   27.0766 C   0  0  0  0  0  0  0  0  0  0  0  0
    7.8726  -15.6339   26.7880 C   0  0  0  0  0  0  0  0  0  0  0  0
    6.6586  -16.2315   26.4320 C   0  0  0  0  0  0  0  0  0  0  0  0
    5.7577  -15.2720   26.2034 N   0  0  0  0  0  0  0  0  0  0  0  0
    6.3174  -14.0484   26.3922 C   0  0  0  0  0  0  0  0  0  0  0  0
    5.7949  -12.7803   26.2914 C   0  0  0  0  0  0  0  0  0  0  0  0
    6.5997  -11.7098   26.5608 C   0  0  0  0  0  0  0  0  0  0  0  0
    7.9075  -11.9126   26.9250 C   0  0  0  0  0  0  0  0  0  0  0  0
    8.4038  -13.1834   27.0167 C   0  0  0  0  0  0  0  0  0  0  0  0
    7.6426  -14.2897   26.7585 C   0  0  0  0  0  0  0  0  0  0  0  0
   11.0332  -17.6817   26.3093 C   0  0  0  0  0  0  0  0  0  0  0  0
   11.4426  -17.7880   27.4771 O   0  0  0  0  0  0  0  0  0  0  0  0
   11.4337  -18.5847   25.3037 N   0  0  0  0  0  0  0  0  0  0  0  0
   12.3298  -19.6915   25.5173 C   0  0  0  0  0  0  0  0  0  0  0  0
   13.7475  -19.3225   25.3315 C   0  0  0  0  0  0  0  0  0  0  0  0
   14.3880  -19.7699   24.3766 O   0  0  0  0  0  0  0  0  0  0  0  0
   14.3471  -18.4740   26.2371 O   0  0  0  0  0  0  0  0  0  0  0  0
  2 13  1  0
  2  1  1  1
  3  2  1  0
  4  3  1  0
  5  4  2  0
  6  5  1  0
  7  6  1  0
  7 12  2  0
  8  7  1  0
  9  8  2  0
  9 10  1  0
 10 11  2  0
 11 12  1  0
 12  4  1  0
 13 14  2  0
 15 16  1  0
 15 13  1  0
 16 17  1  1
 18 17  1  0
 19 18  2  0
 20 19  1  0
 21 20  1  0
 21 26  2  0
 22 21  1  0
 23 22  2  0
 23 24  1  0
 24 25  2  0
 25 26  1  0
 26 18  1  0
 27 28  2  0
 27 16  1  0
 29 27  1  0
 30 29  1  0
 31 30  1  0
 32 31  2  0
 33 31  1  0
M  END
$$$$
