YKY.pdb
     RDKit          3D

 34 35  0  0  1  0  0  0  0  0999 V2000
    7.4279  -12.0623   16.9794 O   0  0  0  0  0  0  0  0  0  0  0  0
    7.7384  -12.9131   18.0176 C   0  0  0  0  0  0  0  0  0  0  0  0
    8.6332  -13.9318   17.8000 C   0  0  0  0  0  0  0  0  0  0  0  0
    8.9893  -14.8213   18.7973 C   0  0  0  0  0  0  0  0  0  0  0  0
    8.4277  -14.6788   20.0463 C   0  0  0  0  0  0  0  0  0  0  0  0
    8.7759  -15.6078   21.1542 C   0  0  0  0  0  0  0  0  0  0  0  0
    8.1540  -16.9835   20.9558 C   0  0  2  0  0  0  0  0  0  0  0  0
    6.7276  -16.8832   20.9324 N   0  0  0  0  0  0  0  0  0  0  0  0
    8.6573  -17.8352   22.0649 C   0  0  0  0  0  0  0  0  0  0  0  0
    8.0572  -17.7509   23.1664 O   0  0  0  0  0  0  0  0  0  0  0  0
    7.5348  -13.6749   20.2916 C   0  0  0  0  0  0  0  0  0  0  0  0
    7.1895  -12.7881   19.2699 C   0  0  0  0  0  0  0  0  0  0  0  0
    9.7588  -18.7087   21.9142 N   0  0  0  0  0  0  0  0  0  0  0  0
   10.3001  -19.4137   23.0340 C   0  0  1  0  0  0  0  0  0  0  0  0
   10.9034  -20.7364   22.6913 C   0  0  0  0  0  0  0  0  0  0  0  0
    9.9490  -21.5499   21.8676 C   0  0  0  0  0  0  0  0  0  0  0  0
   10.5000  -22.8977   21.5048 C   0  0  0  0  0  0  0  0  0  0  0  0
    9.6010  -23.6530   20.5576 C   0  0  0  0  0  0  0  0  0  0  0  0
   10.2725  -24.9034   20.2210 N   0  0  0  0  0  0  0  0  0  0  0  0
   11.3168  -18.5806   23.7713 C   0  0  0  0  0  0  0  0  0  0  0  0
   11.7983  -17.6132   23.1261 O   0  0  0  0  0  0  0  0  0  0  0  0
   10.1683  -12.9532   29.8156 O   0  0  0  0  0  0  0  0  0  0  0  0
   10.1658  -13.9702   28.8809 C   0  0  0  0  0  0  0  0  0  0  0  0
   10.5031  -15.2543   29.2909 C   0  0  0  0  0  0  0  0  0  0  0  0
   10.5027  -16.2860   28.3528 C   0  0  0  0  0  0  0  0  0  0  0  0
   10.1796  -16.0806   27.0303 C   0  0  0  0  0  0  0  0  0  0  0  0
   10.2332  -17.2034   26.0884 C   0  0  0  0  0  0  0  0  0  0  0  0
   11.6026  -17.8363   26.1159 C   0  0  2  0  0  0  0  0  0  0  0  0
   11.6843  -18.8945   25.1055 N   0  0  0  0  0  0  0  0  0  0  0  0
   11.8728  -18.3654   27.4578 C   0  0  0  0  0  0  0  0  0  0  0  0
   11.3262  -19.3995   27.8658 O   0  0  0  0  0  0  0  0  0  0  0  0
    9.8490  -14.8040   26.6430 C   0  0  0  0  0  0  0  0  0  0  0  0
    9.8415  -13.7651   27.5512 C   0  0  0  0  0  0  0  0  0  0  0  0
   12.7558  -17.6958   28.2840 O   0  0  0  0  0  0  0  0  0  0  0  0
  2 12  2  0
  2  1  1  0
  3  2  1  0
  4  5  1  0
  4  3  2  0
  5 11  2  0
  6  5  1  0
  7  9  1  0
  7  6  1  0
  7  8  1  1
  9 13  1  0
 10  9  2  0
 11 12  1  0
 13 14  1  0
 14 20  1  0
 14 15  1  6
 16 17  1  0
 16 15  1  0
 18 17  1  0
 19 18  1  0
 20 21  2  0
 20 29  1  0
 23 22  1  0
 23 24  2  0
 24 25  1  0
 26 25  2  0
 27 26  1  0
 28 27  1  1
 28 30  1  0
 29 28  1  0
 30 31  2  0
 30 34  1  0
 32 26  1  0
 33 32  2  0
 33 23  1  0
M  END
$$$$
