YKY.pdb
     RDKit          3D

 34 35  0  0  1  0  0  0  0  0999 V2000
    3.8745  -24.0200   26.6813 O   0  0  0  0  0  0  0  0  0  0  0  0
    4.5221  -22.9384   26.1255 C   0  0  0  0  0  0  0  0  0  0  0  0
    3.8043  -22.0529   25.3596 C   0  0  0  0  0  0  0  0  0  0  0  0
    4.3914  -20.9469   24.7724 C   0  0  0  0  0  0  0  0  0  0  0  0
    5.7375  -20.7292   24.9632 C   0  0  0  0  0  0  0  0  0  0  0  0
    6.4184  -19.5555   24.3546 C   0  0  0  0  0  0  0  0  0  0  0  0
    6.4633  -19.6522   22.8356 C   0  0  2  0  0  0  0  0  0  0  0  0
    7.1049  -20.8661   22.4356 N   0  0  0  0  0  0  0  0  0  0  0  0
    7.1732  -18.4367   22.3588 C   0  0  0  0  0  0  0  0  0  0  0  0
    8.4290  -18.4851   22.3270 O   0  0  0  0  0  0  0  0  0  0  0  0
    6.4763  -21.5932   25.7201 C   0  0  0  0  0  0  0  0  0  0  0  0
    5.8630  -22.7036   26.3037 C   0  0  0  0  0  0  0  0  0  0  0  0
    6.4910  -17.2664   21.9539 N   0  0  0  0  0  0  0  0  0  0  0  0
    7.2036  -16.0656   21.6470 C   0  0  1  0  0  0  0  0  0  0  0  0
    6.3571  -14.9843   21.0594 C   0  0  0  0  0  0  0  0  0  0  0  0
    7.2095  -13.8263   20.6308 C   0  0  0  0  0  0  0  0  0  0  0  0
    7.3897  -13.7590   19.1426 C   0  0  0  0  0  0  0  0  0  0  0  0
    8.1322  -12.5203   18.7064 C   0  0  0  0  0  0  0  0  0  0  0  0
    8.1425  -12.5077   17.2478 N   0  0  0  0  0  0  0  0  0  0  0  0
    7.9261  -15.5286   22.8557 C   0  0  0  0  0  0  0  0  0  0  0  0
    7.2260  -14.8485   23.6502 O   0  0  0  0  0  0  0  0  0  0  0  0
   10.9956  -14.3974   30.5176 O   0  0  0  0  0  0  0  0  0  0  0  0
   10.5131  -14.7887   29.2838 C   0  0  0  0  0  0  0  0  0  0  0  0
    9.8666  -13.8483   28.4912 C   0  0  0  0  0  0  0  0  0  0  0  0
    9.3770  -14.2360   27.2443 C   0  0  0  0  0  0  0  0  0  0  0  0
    9.5101  -15.5202   26.7664 C   0  0  0  0  0  0  0  0  0  0  0  0
    8.9409  -15.8702   25.4609 C   0  0  0  0  0  0  0  0  0  0  0  0
    9.8933  -15.4754   24.3592 C   0  0  2  0  0  0  0  0  0  0  0  0
    9.3063  -15.7917   23.0542 N   0  0  0  0  0  0  0  0  0  0  0  0
   11.1737  -16.1681   24.5443 C   0  0  0  0  0  0  0  0  0  0  0  0
   11.8909  -15.9457   25.5296 O   0  0  0  0  0  0  0  0  0  0  0  0
   10.1522  -16.4369   27.5643 C   0  0  0  0  0  0  0  0  0  0  0  0
   10.6461  -16.0793   28.8022 C   0  0  0  0  0  0  0  0  0  0  0  0
   11.5882  -17.0880   23.5996 O   0  0  0  0  0  0  0  0  0  0  0  0
  2 12  2  0
  2  1  1  0
  3  2  1  0
  4  5  1  0
  4  3  2  0
  5 11  2  0
  6  5  1  0
  7  9  1  0
  7  6  1  0
  7  8  1  1
  9 13  1  0
 10  9  2  0
 11 12  1  0
 13 14  1  0
 14 20  1  0
 14 15  1  1
 16 17  1  0
 16 15  1  0
 18 17  1  0
 19 18  1  0
 20 21  2  0
 20 29  1  0
 23 22  1  0
 23 24  2  0
 24 25  1  0
 26 25  2  0
 27 26  1  0
 28 27  1  1
 28 30  1  0
 29 28  1  0
 30 31  2  0
 30 34  1  0
 32 26  1  0
 33 32  2  0
 33 23  1  0
M  END
$$$$
