YKY.pdb
     RDKit          3D

 34 35  0  0  1  0  0  0  0  0999 V2000
    6.7739  -11.8566   15.6950 O   0  0  0  0  0  0  0  0  0  0  0  0
    7.1793  -12.6414   16.7523 C   0  0  0  0  0  0  0  0  0  0  0  0
    8.3092  -13.4101   16.6174 C   0  0  0  0  0  0  0  0  0  0  0  0
    8.7718  -14.2202   17.6384 C   0  0  0  0  0  0  0  0  0  0  0  0
    8.0760  -14.2552   18.8260 C   0  0  0  0  0  0  0  0  0  0  0  0
    8.5299  -15.1090   19.9559 C   0  0  0  0  0  0  0  0  0  0  0  0
    8.5610  -16.5829   19.5745 C   0  0  2  0  0  0  0  0  0  0  0  0
    7.2386  -17.0497   19.2941 N   0  0  0  0  0  0  0  0  0  0  0  0
    9.1992  -17.2968   20.7111 C   0  0  0  0  0  0  0  0  0  0  0  0
    8.4803  -17.5263   21.7166 O   0  0  0  0  0  0  0  0  0  0  0  0
    6.9489  -13.5012   18.9885 C   0  0  0  0  0  0  0  0  0  0  0  0
    6.4997  -12.6903   17.9443 C   0  0  0  0  0  0  0  0  0  0  0  0
   10.5512  -17.7096   20.6879 N   0  0  0  0  0  0  0  0  0  0  0  0
   11.1294  -18.4055   21.7949 C   0  0  1  0  0  0  0  0  0  0  0  0
   12.4334  -19.0667   21.4891 C   0  0  0  0  0  0  0  0  0  0  0  0
   12.2245  -20.2407   20.5785 C   0  0  0  0  0  0  0  0  0  0  0  0
   13.5108  -20.9095   20.1911 C   0  0  0  0  0  0  0  0  0  0  0  0
   13.3017  -22.0434   19.2181 C   0  0  0  0  0  0  0  0  0  0  0  0
   14.6182  -22.5542   18.8526 N   0  0  0  0  0  0  0  0  0  0  0  0
   11.2999  -17.5000   22.9875 C   0  0  0  0  0  0  0  0  0  0  0  0
   12.1198  -16.5564   22.8413 O   0  0  0  0  0  0  0  0  0  0  0  0
   10.8139  -13.7932   30.8508 O   0  0  0  0  0  0  0  0  0  0  0  0
   10.5016  -14.4946   29.7025 C   0  0  0  0  0  0  0  0  0  0  0  0
   10.6090  -15.8798   29.7166 C   0  0  0  0  0  0  0  0  0  0  0  0
   10.2952  -16.5946   28.5611 C   0  0  0  0  0  0  0  0  0  0  0  0
    9.8814  -15.9780   27.4018 C   0  0  0  0  0  0  0  0  0  0  0  0
    9.6009  -16.7870   26.2111 C   0  0  0  0  0  0  0  0  0  0  0  0
   10.8237  -16.8501   25.3293 C   0  0  2  0  0  0  0  0  0  0  0  0
   10.5678  -17.7252   24.1821 N   0  0  0  0  0  0  0  0  0  0  0  0
   11.9701  -17.3266   26.1117 C   0  0  0  0  0  0  0  0  0  0  0  0
   12.8793  -16.5592   26.4570 O   0  0  0  0  0  0  0  0  0  0  0  0
    9.7813  -14.6072   27.4064 C   0  0  0  0  0  0  0  0  0  0  0  0
   10.0857  -13.8761   28.5364 C   0  0  0  0  0  0  0  0  0  0  0  0
   12.0370  -18.6596   26.4710 O   0  0  0  0  0  0  0  0  0  0  0  0
  2 12  2  0
  2  1  1  0
  3  2  1  0
  4  5  1  0
  4  3  2  0
  5 11  2  0
  6  5  1  0
  7  9  1  0
  7  6  1  0
  7  8  1  1
  9 13  1  0
 10  9  2  0
 11 12  1  0
 13 14  1  0
 14 20  1  0
 14 15  1  6
 16 17  1  0
 16 15  1  0
 18 17  1  0
 19 18  1  0
 20 21  2  0
 20 29  1  0
 23 22  1  0
 23 24  2  0
 24 25  1  0
 26 25  2  0
 27 26  1  0
 28 27  1  1
 28 30  1  0
 29 28  1  0
 30 31  2  0
 30 34  1  0
 32 26  1  0
 33 32  2  0
 33 23  1  0
M  END
$$$$
