YKY.pdb
     RDKit          3D

 34 35  0  0  1  0  0  0  0  0999 V2000
   19.4364  -18.1664   12.4664 O   0  0  0  0  0  0  0  0  0  0  0  0
   18.4030  -18.0652   13.3719 C   0  0  0  0  0  0  0  0  0  0  0  0
   17.9305  -16.8204   13.7081 C   0  0  0  0  0  0  0  0  0  0  0  0
   16.8963  -16.6469   14.6097 C   0  0  0  0  0  0  0  0  0  0  0  0
   16.3242  -17.7585   15.1867 C   0  0  0  0  0  0  0  0  0  0  0  0
   15.2093  -17.6283   16.1622 C   0  0  0  0  0  0  0  0  0  0  0  0
   13.8585  -17.9110   15.5188 C   0  0  2  0  0  0  0  0  0  0  0  0
   13.5754  -16.9347   14.5128 N   0  0  0  0  0  0  0  0  0  0  0  0
   12.8614  -17.9139   16.6209 C   0  0  0  0  0  0  0  0  0  0  0  0
   12.4477  -16.7954   17.0188 O   0  0  0  0  0  0  0  0  0  0  0  0
   16.7737  -19.0090   14.8711 C   0  0  0  0  0  0  0  0  0  0  0  0
   17.8192  -19.1609   13.9581 C   0  0  0  0  0  0  0  0  0  0  0  0
   12.3838  -19.1060   17.2121 N   0  0  0  0  0  0  0  0  0  0  0  0
   11.4310  -19.0712   18.2774 C   0  0  1  0  0  0  0  0  0  0  0  0
   10.6723  -20.3445   18.4623 C   0  0  0  0  0  0  0  0  0  0  0  0
   11.6076  -21.5177   18.4521 C   0  0  0  0  0  0  0  0  0  0  0  0
   10.8907  -22.8312   18.5645 C   0  0  0  0  0  0  0  0  0  0  0  0
   11.8391  -24.0021   18.6380 C   0  0  0  0  0  0  0  0  0  0  0  0
   11.0319  -25.2132   18.7353 N   0  0  0  0  0  0  0  0  0  0  0  0
   12.0771  -18.6845   19.5828 C   0  0  0  0  0  0  0  0  0  0  0  0
   13.2341  -19.1417   19.7737 O   0  0  0  0  0  0  0  0  0  0  0  0
   14.6543  -13.6285   17.4626 O   0  0  0  0  0  0  0  0  0  0  0  0
   13.9914  -14.1862   18.5384 C   0  0  0  0  0  0  0  0  0  0  0  0
   14.7398  -14.7552   19.5615 C   0  0  0  0  0  0  0  0  0  0  0  0
   14.0773  -15.3200   20.6509 C   0  0  0  0  0  0  0  0  0  0  0  0
   12.7044  -15.3356   20.7523 C   0  0  0  0  0  0  0  0  0  0  0  0
   12.0705  -15.9775   21.9085 C   0  0  0  0  0  0  0  0  0  0  0  0
   12.0950  -17.4772   21.7451 C   0  0  2  0  0  0  0  0  0  0  0  0
   11.3971  -17.8571   20.5138 N   0  0  0  0  0  0  0  0  0  0  0  0
   11.4797  -18.1098   22.9177 C   0  0  0  0  0  0  0  0  0  0  0  0
   10.4142  -18.7353   22.8285 O   0  0  0  0  0  0  0  0  0  0  0  0
   11.9806  -14.7684   19.7308 C   0  0  0  0  0  0  0  0  0  0  0  0
   12.6114  -14.2027   18.6416 C   0  0  0  0  0  0  0  0  0  0  0  0
   12.1020  -18.0054   24.1474 O   0  0  0  0  0  0  0  0  0  0  0  0
  2 12  2  0
  2  1  1  0
  3  2  1  0
  4  5  1  0
  4  3  2  0
  5 11  2  0
  6  5  1  0
  7  9  1  0
  7  6  1  0
  7  8  1  6
  9 13  1  0
 10  9  2  0
 11 12  1  0
 13 14  1  0
 14 20  1  0
 14 15  1  1
 16 17  1  0
 16 15  1  0
 18 17  1  0
 19 18  1  0
 20 21  2  0
 20 29  1  0
 23 22  1  0
 23 24  2  0
 24 25  1  0
 26 25  2  0
 27 26  1  0
 28 27  1  1
 28 30  1  0
 29 28  1  0
 30 31  2  0
 30 34  1  0
 32 26  1  0
 33 32  2  0
 33 23  1  0
M  END
$$$$
