YKY.pdb
     RDKit          3D

 34 35  0  0  1  0  0  0  0  0999 V2000
    4.6429  -10.9276   28.8909 O   0  0  0  0  0  0  0  0  0  0  0  0
    5.3832  -11.6552   27.9849 C   0  0  0  0  0  0  0  0  0  0  0  0
    5.3274  -11.3183   26.6548 C   0  0  0  0  0  0  0  0  0  0  0  0
    6.0445  -12.0062   25.6929 C   0  0  0  0  0  0  0  0  0  0  0  0
    6.8382  -13.0613   26.0836 C   0  0  0  0  0  0  0  0  0  0  0  0
    7.6298  -13.8345   25.0902 C   0  0  0  0  0  0  0  0  0  0  0  0
    6.8203  -14.9729   24.4839 C   0  0  2  0  0  0  0  0  0  0  0  0
    6.5693  -15.9803   25.4674 N   0  0  0  0  0  0  0  0  0  0  0  0
    7.6050  -15.4754   23.3262 C   0  0  0  0  0  0  0  0  0  0  0  0
    8.1644  -16.5935   23.4583 O   0  0  0  0  0  0  0  0  0  0  0  0
    6.9129  -13.4188   27.3997 C   0  0  0  0  0  0  0  0  0  0  0  0
    6.1803  -12.7103   28.3541 C   0  0  0  0  0  0  0  0  0  0  0  0
    7.7326  -14.7487   22.1202 N   0  0  0  0  0  0  0  0  0  0  0  0
    8.5394  -15.2375   21.0459 C   0  0  1  0  0  0  0  0  0  0  0  0
    8.3888  -14.4744   19.7707 C   0  0  0  0  0  0  0  0  0  0  0  0
    8.9520  -15.2580   18.6217 C   0  0  0  0  0  0  0  0  0  0  0  0
    8.8014  -14.5491   17.3078 C   0  0  0  0  0  0  0  0  0  0  0  0
    9.2553  -15.3919   16.1417 C   0  0  0  0  0  0  0  0  0  0  0  0
    9.0830  -14.5943   14.9325 N   0  0  0  0  0  0  0  0  0  0  0  0
    9.9966  -15.2840   21.4272 C   0  0  0  0  0  0  0  0  0  0  0  0
   10.6408  -14.2182   21.2453 O   0  0  0  0  0  0  0  0  0  0  0  0
   11.7250  -15.4304   29.5408 O   0  0  0  0  0  0  0  0  0  0  0  0
   11.2688  -15.5662   28.2441 C   0  0  0  0  0  0  0  0  0  0  0  0
   10.6915  -16.7711   27.8624 C   0  0  0  0  0  0  0  0  0  0  0  0
   10.2286  -16.9154   26.5549 C   0  0  0  0  0  0  0  0  0  0  0  0
   10.3219  -15.9057   25.6237 C   0  0  0  0  0  0  0  0  0  0  0  0
    9.8470  -16.1358   24.2553 C   0  0  0  0  0  0  0  0  0  0  0  0
   11.0104  -16.4658   23.3531 C   0  0  2  0  0  0  0  0  0  0  0  0
   10.5729  -16.4688   21.9545 N   0  0  0  0  0  0  0  0  0  0  0  0
   11.5739  -17.7665   23.7330 C   0  0  0  0  0  0  0  0  0  0  0  0
   11.0143  -18.8274   23.4230 O   0  0  0  0  0  0  0  0  0  0  0  0
   10.8960  -14.7211   26.0191 C   0  0  0  0  0  0  0  0  0  0  0  0
   11.3620  -14.5521   27.3069 C   0  0  0  0  0  0  0  0  0  0  0  0
   12.7536  -17.8089   24.4519 O   0  0  0  0  0  0  0  0  0  0  0  0
  2 12  2  0
  2  1  1  0
  3  2  1  0
  4  5  1  0
  4  3  2  0
  5 11  2  0
  6  5  1  0
  7  9  1  0
  7  6  1  0
  7  8  1  1
  9 13  1  0
 10  9  2  0
 11 12  1  0
 13 14  1  0
 14 20  1  0
 14 15  1  6
 16 17  1  0
 16 15  1  0
 18 17  1  0
 19 18  1  0
 20 21  2  0
 20 29  1  0
 23 22  1  0
 23 24  2  0
 24 25  1  0
 26 25  2  0
 27 26  1  0
 28 27  1  1
 28 30  1  0
 29 28  1  0
 30 31  2  0
 30 34  1  0
 32 26  1  0
 33 32  2  0
 33 23  1  0
M  END
$$$$
