YKY.pdb
     RDKit          3D

 34 35  0  0  1  0  0  0  0  0999 V2000
    9.5659  -20.9970   29.4362 O   0  0  0  0  0  0  0  0  0  0  0  0
    8.8733  -20.2855   28.4810 C   0  0  0  0  0  0  0  0  0  0  0  0
    7.6621  -20.7617   28.0428 C   0  0  0  0  0  0  0  0  0  0  0  0
    6.9151  -20.0979   27.0868 C   0  0  0  0  0  0  0  0  0  0  0  0
    7.4032  -18.9234   26.5595 C   0  0  0  0  0  0  0  0  0  0  0  0
    6.6404  -18.1699   25.5290 C   0  0  0  0  0  0  0  0  0  0  0  0
    6.5782  -18.9235   24.2073 C   0  0  2  0  0  0  0  0  0  0  0  0
    7.2993  -20.1546   24.3051 N   0  0  0  0  0  0  0  0  0  0  0  0
    7.1318  -18.0076   23.1760 C   0  0  0  0  0  0  0  0  0  0  0  0
    8.1255  -18.4170   22.5236 O   0  0  0  0  0  0  0  0  0  0  0  0
    8.6050  -18.4261   26.9765 C   0  0  0  0  0  0  0  0  0  0  0  0
    9.3426  -19.1128   27.9429 C   0  0  0  0  0  0  0  0  0  0  0  0
    6.5846  -16.7292   22.9207 N   0  0  0  0  0  0  0  0  0  0  0  0
    7.3269  -15.7381   22.2062 C   0  0  1  0  0  0  0  0  0  0  0  0
    6.5299  -14.5344   21.8227 C   0  0  0  0  0  0  0  0  0  0  0  0
    7.3631  -13.5942   21.0022 C   0  0  0  0  0  0  0  0  0  0  0  0
    7.0809  -13.7024   19.5323 C   0  0  0  0  0  0  0  0  0  0  0  0
    7.9780  -12.8150   18.7054 C   0  0  0  0  0  0  0  0  0  0  0  0
    7.5896  -12.9801   17.3091 N   0  0  0  0  0  0  0  0  0  0  0  0
    8.5466  -15.3010   22.9759 C   0  0  0  0  0  0  0  0  0  0  0  0
    9.3177  -14.5116   22.3708 O   0  0  0  0  0  0  0  0  0  0  0  0
    5.4924  -10.7520   25.9155 O   0  0  0  0  0  0  0  0  0  0  0  0
    6.4901  -11.7025   26.0101 C   0  0  0  0  0  0  0  0  0  0  0  0
    6.1575  -12.9775   26.4512 C   0  0  0  0  0  0  0  0  0  0  0  0
    7.1595  -13.9424   26.5491 C   0  0  0  0  0  0  0  0  0  0  0  0
    8.4712  -13.6794   26.2242 C   0  0  0  0  0  0  0  0  0  0  0  0
    9.4819  -14.7300   26.3836 C   0  0  0  0  0  0  0  0  0  0  0  0
    9.9268  -15.2289   25.0309 C   0  0  2  0  0  0  0  0  0  0  0  0
    8.7799  -15.7683   24.2954 N   0  0  0  0  0  0  0  0  0  0  0  0
   10.9710  -16.2459   25.2009 C   0  0  0  0  0  0  0  0  0  0  0  0
   10.8245  -17.3989   24.7723 O   0  0  0  0  0  0  0  0  0  0  0  0
    8.7816  -12.4128   25.7899 C   0  0  0  0  0  0  0  0  0  0  0  0
    7.8091  -11.4396   25.6839 C   0  0  0  0  0  0  0  0  0  0  0  0
   12.1426  -15.9104   25.8530 O   0  0  0  0  0  0  0  0  0  0  0  0
  2 12  2  0
  2  1  1  0
  3  2  1  0
  4  5  1  0
  4  3  2  0
  5 11  2  0
  6  5  1  0
  7  9  1  0
  7  6  1  0
  7  8  1  1
  9 13  1  0
 10  9  2  0
 11 12  1  0
 13 14  1  0
 14 20  1  0
 14 15  1  1
 16 17  1  0
 16 15  1  0
 18 17  1  0
 19 18  1  0
 20 21  2  0
 20 29  1  0
 23 22  1  0
 23 24  2  0
 24 25  1  0
 26 25  2  0
 27 26  1  0
 28 27  1  1
 28 30  1  0
 29 28  1  0
 30 31  2  0
 30 34  1  0
 32 26  1  0
 33 32  2  0
 33 23  1  0
M  END
$$$$
