NMK.pdb
     RDKit          3D

 26 25  0  0  1  0  0  0  0  0999 V2000
    8.8243  -15.8127   16.8480 N   0  0  0  0  0  0  0  0  0  0  0  0
    9.5401  -16.3905   17.9137 C   0  0  0  0  0  0  0  0  0  0  0  0
   10.0795  -17.5022   17.7650 O   0  0  0  0  0  0  0  0  0  0  0  0
    9.6448  -15.6750   19.1945 C   0  0  0  0  0  0  0  0  0  0  0  0
    9.0287  -16.4446   20.3283 C   0  0  2  0  0  0  0  0  0  0  0  0
    7.6596  -16.7586   19.9717 N   0  0  0  0  0  0  0  0  0  0  0  0
    9.1218  -15.8029   21.6325 C   0  0  0  0  0  0  0  0  0  0  0  0
   10.2818  -15.5285   22.0758 O   0  0  0  0  0  0  0  0  0  0  0  0
    7.3708  -11.4836   27.3729 C   0  0  0  0  0  0  0  0  0  0  0  0
    7.7577  -12.3226   25.8649 S   0  0  0  0  0  0  0  0  0  0  0  0
    6.6312  -13.6399   25.4232 C   0  0  0  0  0  0  0  0  0  0  0  0
    6.8547  -14.2406   24.0901 C   0  0  0  0  0  0  0  0  0  0  0  0
    8.2237  -14.7730   23.7790 C   0  0  2  0  0  0  0  0  0  0  0  0
    8.0398  -15.4562   22.4527 N   0  0  0  0  0  0  0  0  0  0  0  0
    8.5220  -15.9535   24.6807 C   0  0  0  0  0  0  0  0  0  0  0  0
    7.7004  -16.9433   24.6892 O   0  0  0  0  0  0  0  0  0  0  0  0
    9.6539  -16.0093   25.5005 N   0  0  0  0  0  0  0  0  0  0  0  0
   10.0378  -17.3031   26.1120 C   0  0  1  0  0  0  0  0  0  0  0  0
   11.0911  -17.9659   25.3006 C   0  0  0  0  0  0  0  0  0  0  0  0
   11.0898  -19.4526   25.2906 C   0  0  0  0  0  0  0  0  0  0  0  0
   12.1697  -20.0671   24.4678 C   0  0  0  0  0  0  0  0  0  0  0  0
   12.1412  -21.5718   24.5997 C   0  0  0  0  0  0  0  0  0  0  0  0
   13.2732  -22.0624   23.8201 N   0  0  0  0  0  0  0  0  0  0  0  0
   10.2814  -17.0447   27.5229 C   0  0  0  0  0  0  0  0  0  0  0  0
   10.4629  -18.0365   28.4606 O   0  0  0  0  0  0  0  0  0  0  0  0
   10.3378  -15.8511   27.9779 O   0  0  0  0  0  0  0  0  0  0  0  0
  2  1  1  0
  2  3  2  0
  4  2  1  0
  5  4  1  0
  5  7  1  0
  5  6  1  6
  7  8  2  0
  9 10  1  0
 10 11  1  0
 11 12  1  0
 13 12  1  1
 14  7  1  0
 14 13  1  0
 15 13  1  0
 15 16  2  0
 17 15  1  0
 18 17  1  0
 18 24  1  0
 18 19  1  6
 20 21  1  0
 20 19  1  0
 22 21  1  0
 23 22  1  0
 24 25  1  0
 26 24  2  0
M  END
$$$$
