NMK.pdb
     RDKit          3D

 26 25  0  0  1  0  0  0  0  0999 V2000
    5.7886  -18.6958   19.4578 N   0  0  0  0  0  0  0  0  0  0  0  0
    6.6784  -17.8256   18.7997 C   0  0  0  0  0  0  0  0  0  0  0  0
    6.5266  -17.5873   17.5877 O   0  0  0  0  0  0  0  0  0  0  0  0
    7.7804  -17.2049   19.5506 C   0  0  0  0  0  0  0  0  0  0  0  0
    7.4895  -15.7756   19.9109 C   0  0  2  0  0  0  0  0  0  0  0  0
    7.7864  -14.9484   18.7586 N   0  0  0  0  0  0  0  0  0  0  0  0
    8.1523  -15.2955   21.1156 C   0  0  0  0  0  0  0  0  0  0  0  0
    9.4183  -15.1777   21.0879 O   0  0  0  0  0  0  0  0  0  0  0  0
    6.7904  -11.0971   27.7039 C   0  0  0  0  0  0  0  0  0  0  0  0
    6.2551  -12.1037   26.3518 S   0  0  0  0  0  0  0  0  0  0  0  0
    7.5482  -13.0498   25.5565 C   0  0  0  0  0  0  0  0  0  0  0  0
    7.1882  -13.6319   24.2452 C   0  0  0  0  0  0  0  0  0  0  0  0
    8.2618  -14.3423   23.4723 C   0  0  2  0  0  0  0  0  0  0  0  0
    7.5170  -14.9474   22.3152 N   0  0  0  0  0  0  0  0  0  0  0  0
    8.6902  -15.5830   24.2293 C   0  0  0  0  0  0  0  0  0  0  0  0
    7.8374  -16.5334   24.3843 O   0  0  0  0  0  0  0  0  0  0  0  0
    9.9743  -15.7351   24.7629 N   0  0  0  0  0  0  0  0  0  0  0  0
   10.3594  -17.0380   25.3539 C   0  0  1  0  0  0  0  0  0  0  0  0
   11.7060  -17.4444   24.8761 C   0  0  0  0  0  0  0  0  0  0  0  0
   11.7827  -18.0243   23.5093 C   0  0  0  0  0  0  0  0  0  0  0  0
   13.1580  -18.3935   23.0697 C   0  0  0  0  0  0  0  0  0  0  0  0
   13.1304  -18.9528   21.6666 C   0  0  0  0  0  0  0  0  0  0  0  0
   14.5203  -19.2343   21.3217 N   0  0  0  0  0  0  0  0  0  0  0  0
   10.1093  -16.9405   26.7838 C   0  0  0  0  0  0  0  0  0  0  0  0
    9.9125  -18.0314   27.6007 O   0  0  0  0  0  0  0  0  0  0  0  0
   10.0546  -15.8062   27.3713 O   0  0  0  0  0  0  0  0  0  0  0  0
  2  1  1  0
  2  3  2  0
  4  2  1  0
  5  4  1  0
  5  7  1  0
  5  6  1  6
  7  8  2  0
  9 10  1  0
 10 11  1  0
 11 12  1  0
 13 12  1  1
 14  7  1  0
 14 13  1  0
 15 13  1  0
 15 16  2  0
 17 15  1  0
 18 17  1  0
 18 24  1  0
 18 19  1  1
 20 21  1  0
 20 19  1  0
 22 21  1  0
 23 22  1  0
 24 25  1  0
 26 24  2  0
M  END
$$$$
