NMK.pdb
     RDKit          3D

 26 25  0  0  1  0  0  0  0  0999 V2000
    8.5759  -17.5600   18.2749 N   0  0  0  0  0  0  0  0  0  0  0  0
    8.6922  -18.4013   19.3976 C   0  0  0  0  0  0  0  0  0  0  0  0
    8.5450  -19.6301   19.2668 O   0  0  0  0  0  0  0  0  0  0  0  0
    8.9872  -17.8207   20.7164 C   0  0  0  0  0  0  0  0  0  0  0  0
    9.0614  -16.3207   20.6742 C   0  0  2  0  0  0  0  0  0  0  0  0
   10.1805  -15.9458   19.8331 N   0  0  0  0  0  0  0  0  0  0  0  0
    9.1111  -15.6682   21.9753 C   0  0  0  0  0  0  0  0  0  0  0  0
   10.2465  -15.5517   22.5362 O   0  0  0  0  0  0  0  0  0  0  0  0
    7.2569  -11.4445   27.7887 C   0  0  0  0  0  0  0  0  0  0  0  0
    7.6736  -12.1657   26.2285 S   0  0  0  0  0  0  0  0  0  0  0  0
    6.5077  -13.3792   25.6221 C   0  0  0  0  0  0  0  0  0  0  0  0
    6.7982  -13.9144   24.2741 C   0  0  0  0  0  0  0  0  0  0  0  0
    8.1437  -14.5385   24.0399 C   0  0  2  0  0  0  0  0  0  0  0  0
    8.0116  -15.1512   22.6736 N   0  0  0  0  0  0  0  0  0  0  0  0
    8.2835  -15.7740   24.9057 C   0  0  0  0  0  0  0  0  0  0  0  0
    7.4300  -16.7255   24.7610 O   0  0  0  0  0  0  0  0  0  0  0  0
    9.3029  -15.9203   25.8522 N   0  0  0  0  0  0  0  0  0  0  0  0
    9.5357  -17.2510   26.4608 C   0  0  1  0  0  0  0  0  0  0  0  0
   10.0423  -18.2045   25.4404 C   0  0  0  0  0  0  0  0  0  0  0  0
   11.5145  -18.2457   25.2377 C   0  0  0  0  0  0  0  0  0  0  0  0
   11.9695  -19.2120   24.1984 C   0  0  0  0  0  0  0  0  0  0  0  0
   13.4653  -19.1165   24.0088 C   0  0  0  0  0  0  0  0  0  0  0  0
   13.8060  -20.1231   23.0085 N   0  0  0  0  0  0  0  0  0  0  0  0
   10.3070  -17.0284   27.6742 C   0  0  0  0  0  0  0  0  0  0  0  0
   10.6960  -15.7829   28.1140 O   0  0  0  0  0  0  0  0  0  0  0  0
   10.6765  -18.0043   28.4130 O   0  0  0  0  0  0  0  0  0  0  0  0
  2  1  1  0
  2  3  2  0
  4  2  1  0
  5  4  1  0
  5  7  1  0
  5  6  1  6
  7  8  2  0
  9 10  1  0
 10 11  1  0
 11 12  1  0
 13 12  1  1
 14  7  1  0
 14 13  1  0
 15 13  1  0
 15 16  2  0
 17 15  1  0
 18 17  1  0
 18 24  1  0
 18 19  1  6
 20 21  1  0
 20 19  1  0
 22 21  1  0
 23 22  1  0
 24 25  1  0
 26 24  2  0
M  END
$$$$
