NMK.pdb
     RDKit          3D

 26 25  0  0  1  0  0  0  0  0999 V2000
    9.8117  -17.5855   17.4855 N   0  0  0  0  0  0  0  0  0  0  0  0
    9.0749  -16.4828   17.9578 C   0  0  0  0  0  0  0  0  0  0  0  0
    8.0806  -16.0864   17.3230 O   0  0  0  0  0  0  0  0  0  0  0  0
    9.4864  -15.8082   19.1984 C   0  0  0  0  0  0  0  0  0  0  0  0
    8.9546  -16.4962   20.4236 C   0  0  2  0  0  0  0  0  0  0  0  0
    7.5206  -16.6435   20.2742 N   0  0  0  0  0  0  0  0  0  0  0  0
    9.3120  -15.8683   21.6883 C   0  0  0  0  0  0  0  0  0  0  0  0
   10.5484  -15.7378   21.9559 O   0  0  0  0  0  0  0  0  0  0  0  0
    6.5710  -11.3432   27.6287 C   0  0  0  0  0  0  0  0  0  0  0  0
    6.4407  -12.1593   26.0651 S   0  0  0  0  0  0  0  0  0  0  0  0
    7.7121  -13.3746   25.7394 C   0  0  0  0  0  0  0  0  0  0  0  0
    7.6721  -13.9836   24.3920 C   0  0  0  0  0  0  0  0  0  0  0  0
    8.8643  -14.7789   23.9438 C   0  0  2  0  0  0  0  0  0  0  0  0
    8.4097  -15.3895   22.6476 N   0  0  0  0  0  0  0  0  0  0  0  0
    9.0061  -16.0093   24.8165 C   0  0  0  0  0  0  0  0  0  0  0  0
    8.0687  -16.8899   24.7942 O   0  0  0  0  0  0  0  0  0  0  0  0
   10.1147  -16.2249   25.6418 N   0  0  0  0  0  0  0  0  0  0  0  0
   10.2586  -17.5296   26.3291 C   0  0  1  0  0  0  0  0  0  0  0  0
   11.1332  -18.4354   25.5407 C   0  0  0  0  0  0  0  0  0  0  0  0
   11.2984  -19.8199   26.0564 C   0  0  0  0  0  0  0  0  0  0  0  0
   12.2246  -20.6716   25.2578 C   0  0  0  0  0  0  0  0  0  0  0  0
   12.4254  -22.0082   25.9326 C   0  0  0  0  0  0  0  0  0  0  0  0
   13.3234  -22.7629   25.0644 N   0  0  0  0  0  0  0  0  0  0  0  0
   10.5963  -17.2393   27.7142 C   0  0  0  0  0  0  0  0  0  0  0  0
   10.4484  -18.1438   28.7419 O   0  0  0  0  0  0  0  0  0  0  0  0
   11.0571  -16.0975   28.0587 O   0  0  0  0  0  0  0  0  0  0  0  0
  2  1  1  0
  2  3  2  0
  4  2  1  0
  5  4  1  0
  5  7  1  0
  5  6  1  6
  7  8  2  0
  9 10  1  0
 10 11  1  0
 11 12  1  0
 13 12  1  1
 14  7  1  0
 14 13  1  0
 15 13  1  0
 15 16  2  0
 17 15  1  0
 18 17  1  0
 18 24  1  0
 18 19  1  6
 20 21  1  0
 20 19  1  0
 22 21  1  0
 23 22  1  0
 24 25  1  0
 26 24  2  0
M  END
$$$$
