NMK.pdb
     RDKit          3D

 26 25  0  0  1  0  0  0  0  0999 V2000
    9.4367  -16.1870   16.5536 N   0  0  0  0  0  0  0  0  0  0  0  0
    8.3014  -16.3963   17.3594 C   0  0  0  0  0  0  0  0  0  0  0  0
    7.4636  -17.2574   17.0348 O   0  0  0  0  0  0  0  0  0  0  0  0
    8.1151  -15.5953   18.5788 C   0  0  0  0  0  0  0  0  0  0  0  0
    8.2224  -16.4251   19.8267 C   0  0  2  0  0  0  0  0  0  0  0  0
    6.9284  -17.0241   20.0854 N   0  0  0  0  0  0  0  0  0  0  0  0
    8.7442  -15.7236   20.9915 C   0  0  0  0  0  0  0  0  0  0  0  0
    9.9363  -15.2846   20.9335 O   0  0  0  0  0  0  0  0  0  0  0  0
    6.7171  -11.8540   27.6274 C   0  0  0  0  0  0  0  0  0  0  0  0
    6.3876  -12.6767   26.0969 S   0  0  0  0  0  0  0  0  0  0  0  0
    7.7964  -13.4994   25.3633 C   0  0  0  0  0  0  0  0  0  0  0  0
    7.5394  -14.1476   24.0588 C   0  0  0  0  0  0  0  0  0  0  0  0
    8.6889  -14.8274   23.3724 C   0  0  2  0  0  0  0  0  0  0  0  0
    8.0463  -15.4849   22.1831 N   0  0  0  0  0  0  0  0  0  0  0  0
    9.1166  -16.0345   24.1822 C   0  0  0  0  0  0  0  0  0  0  0  0
    8.3124  -17.0350   24.2653 O   0  0  0  0  0  0  0  0  0  0  0  0
   10.3494  -16.1034   24.8395 N   0  0  0  0  0  0  0  0  0  0  0  0
   10.7374  -17.3648   25.5131 C   0  0  1  0  0  0  0  0  0  0  0  0
   11.9183  -17.9668   24.8423 C   0  0  0  0  0  0  0  0  0  0  0  0
   11.7308  -18.4177   23.4381 C   0  0  0  0  0  0  0  0  0  0  0  0
   12.9394  -19.0308   22.8181 C   0  0  0  0  0  0  0  0  0  0  0  0
   12.6252  -19.5217   21.4244 C   0  0  0  0  0  0  0  0  0  0  0  0
   13.8574  -20.1246   20.9262 N   0  0  0  0  0  0  0  0  0  0  0  0
   10.7956  -17.0786   26.9384 C   0  0  0  0  0  0  0  0  0  0  0  0
   10.6540  -15.8164   27.4702 O   0  0  0  0  0  0  0  0  0  0  0  0
   10.9899  -18.0089   27.7937 O   0  0  0  0  0  0  0  0  0  0  0  0
  2  1  1  0
  2  3  2  0
  4  2  1  0
  5  4  1  0
  5  7  1  0
  5  6  1  1
  7  8  2  0
  9 10  1  0
 10 11  1  0
 11 12  1  0
 13 12  1  1
 14  7  1  0
 14 13  1  0
 15 13  1  0
 15 16  2  0
 17 15  1  0
 18 17  1  0
 18 24  1  0
 18 19  1  6
 20 21  1  0
 20 19  1  0
 22 21  1  0
 23 22  1  0
 24 25  1  0
 26 24  2  0
M  END
$$$$
