NMK.pdb
     RDKit          3D

 26 25  0  0  1  0  0  0  0  0999 V2000
   10.9941  -16.8742   17.6036 N   0  0  0  0  0  0  0  0  0  0  0  0
    9.7221  -16.5385   18.1048 C   0  0  0  0  0  0  0  0  0  0  0  0
    8.7020  -16.9944   17.5567 O   0  0  0  0  0  0  0  0  0  0  0  0
    9.6093  -15.6515   19.2726 C   0  0  0  0  0  0  0  0  0  0  0  0
    9.1428  -16.3825   20.4995 C   0  0  2  0  0  0  0  0  0  0  0  0
    7.8230  -16.9186   20.2332 N   0  0  0  0  0  0  0  0  0  0  0  0
    9.1808  -15.6071   21.7319 C   0  0  0  0  0  0  0  0  0  0  0  0
   10.2869  -15.0730   22.0614 O   0  0  0  0  0  0  0  0  0  0  0  0
    7.3299  -11.6146   27.6570 C   0  0  0  0  0  0  0  0  0  0  0  0
    7.7123  -12.3100   26.0765 S   0  0  0  0  0  0  0  0  0  0  0  0
    6.5997  -13.5994   25.5297 C   0  0  0  0  0  0  0  0  0  0  0  0
    6.8793  -14.1447   24.1834 C   0  0  0  0  0  0  0  0  0  0  0  0
    8.2534  -14.6875   23.9156 C   0  0  2  0  0  0  0  0  0  0  0  0
    8.0995  -15.3930   22.5972 N   0  0  0  0  0  0  0  0  0  0  0  0
    8.5243  -15.8533   24.8448 C   0  0  0  0  0  0  0  0  0  0  0  0
    7.7854  -16.9016   24.7470 O   0  0  0  0  0  0  0  0  0  0  0  0
    9.5452  -15.8343   25.8008 N   0  0  0  0  0  0  0  0  0  0  0  0
   10.0899  -17.1190   26.2990 C   0  0  1  0  0  0  0  0  0  0  0  0
   11.0059  -17.7166   25.2936 C   0  0  0  0  0  0  0  0  0  0  0  0
   11.6845  -18.9824   25.6776 C   0  0  0  0  0  0  0  0  0  0  0  0
   12.5508  -19.5673   24.6153 C   0  0  0  0  0  0  0  0  0  0  0  0
   13.1441  -20.8764   25.0806 C   0  0  0  0  0  0  0  0  0  0  0  0
   13.9259  -21.3823   23.9569 N   0  0  0  0  0  0  0  0  0  0  0  0
   10.5745  -16.8740   27.6488 C   0  0  0  0  0  0  0  0  0  0  0  0
   10.6330  -15.6243   28.2240 O   0  0  0  0  0  0  0  0  0  0  0  0
   10.9853  -17.8318   28.3895 O   0  0  0  0  0  0  0  0  0  0  0  0
  2  1  1  0
  2  3  2  0
  4  2  1  0
  5  4  1  0
  5  7  1  0
  5  6  1  6
  7  8  2  0
  9 10  1  0
 10 11  1  0
 11 12  1  0
 13 12  1  1
 14  7  1  0
 14 13  1  0
 15 13  1  0
 15 16  2  0
 17 15  1  0
 18 17  1  0
 18 24  1  0
 18 19  1  6
 20 21  1  0
 20 19  1  0
 22 21  1  0
 23 22  1  0
 24 25  1  0
 26 24  2  0
M  END
$$$$
