NMK.pdb
     RDKit          3D

 26 25  0  0  1  0  0  0  0  0999 V2000
   11.5609  -18.1008   19.6972 N   0  0  0  0  0  0  0  0  0  0  0  0
   10.4246  -17.2709   19.6535 C   0  0  0  0  0  0  0  0  0  0  0  0
    9.5960  -17.4057   18.7347 O   0  0  0  0  0  0  0  0  0  0  0  0
   10.2259  -16.2512   20.6946 C   0  0  0  0  0  0  0  0  0  0  0  0
    9.6634  -16.8326   21.9607 C   0  0  2  0  0  0  0  0  0  0  0  0
    8.4989  -17.6242   21.6177 N   0  0  0  0  0  0  0  0  0  0  0  0
    9.3781  -15.8647   23.0110 C   0  0  0  0  0  0  0  0  0  0  0  0
   10.3497  -15.1831   23.4678 O   0  0  0  0  0  0  0  0  0  0  0  0
    6.6307  -10.7471   26.0358 C   0  0  0  0  0  0  0  0  0  0  0  0
    6.9124  -12.3855   26.6394 S   0  0  0  0  0  0  0  0  0  0  0  0
    5.9060  -13.6537   25.8791 C   0  0  0  0  0  0  0  0  0  0  0  0
    6.5060  -14.3112   24.6977 C   0  0  0  0  0  0  0  0  0  0  0  0
    7.9386  -14.7513   24.7894 C   0  0  2  0  0  0  0  0  0  0  0  0
    8.1183  -15.6124   23.5705 N   0  0  0  0  0  0  0  0  0  0  0  0
    8.0813  -15.7744   25.8978 C   0  0  0  0  0  0  0  0  0  0  0  0
    8.1951  -15.3564   27.1089 O   0  0  0  0  0  0  0  0  0  0  0  0
    8.0920  -17.1520   25.6557 N   0  0  0  0  0  0  0  0  0  0  0  0
    8.2072  -18.0842   26.8016 C   0  0  1  0  0  0  0  0  0  0  0  0
    7.4702  -19.3430   26.5200 C   0  0  0  0  0  0  0  0  0  0  0  0
    7.5447  -20.4065   27.5561 C   0  0  0  0  0  0  0  0  0  0  0  0
    6.8513  -21.6746   27.1926 C   0  0  0  0  0  0  0  0  0  0  0  0
    6.8583  -22.6325   28.3607 C   0  0  0  0  0  0  0  0  0  0  0  0
    6.1174  -23.8090   27.9167 N   0  0  0  0  0  0  0  0  0  0  0  0
    9.6180  -18.1467   27.1515 C   0  0  0  0  0  0  0  0  0  0  0  0
   10.0786  -18.3499   28.4332 O   0  0  0  0  0  0  0  0  0  0  0  0
   10.5278  -18.0092   26.2638 O   0  0  0  0  0  0  0  0  0  0  0  0
  2  1  1  0
  2  3  2  0
  4  2  1  0
  5  4  1  0
  5  7  1  0
  5  6  1  6
  7  8  2  0
  9 10  1  0
 10 11  1  0
 11 12  1  0
 13 12  1  6
 14  7  1  0
 14 13  1  0
 15 13  1  0
 15 16  2  0
 17 15  1  0
 18 17  1  0
 18 24  1  0
 18 19  1  6
 20 21  1  0
 20 19  1  0
 22 21  1  0
 23 22  1  0
 24 25  1  0
 26 24  2  0
M  END
$$$$
