NMK.pdb
     RDKit          3D

 26 25  0  0  1  0  0  0  0  0999 V2000
    8.5214  -16.1245   16.9720 N   0  0  0  0  0  0  0  0  0  0  0  0
    8.2921  -16.7660   18.2040 C   0  0  0  0  0  0  0  0  0  0  0  0
    7.6156  -17.8099   18.2406 O   0  0  0  0  0  0  0  0  0  0  0  0
    8.8547  -16.1970   19.4382 C   0  0  0  0  0  0  0  0  0  0  0  0
    7.8173  -16.0295   20.5121 C   0  0  2  0  0  0  0  0  0  0  0  0
    6.7120  -15.2718   19.9603 N   0  0  0  0  0  0  0  0  0  0  0  0
    8.3062  -15.4566   21.7586 C   0  0  0  0  0  0  0  0  0  0  0  0
    9.5604  -15.2841   21.8792 O   0  0  0  0  0  0  0  0  0  0  0  0
    8.3054  -10.9635   26.6544 C   0  0  0  0  0  0  0  0  0  0  0  0
    6.8502  -11.9660   26.7277 S   0  0  0  0  0  0  0  0  0  0  0  0
    7.0972  -13.6871   26.3077 C   0  0  0  0  0  0  0  0  0  0  0  0
    6.9299  -14.0172   24.8756 C   0  0  0  0  0  0  0  0  0  0  0  0
    8.1073  -14.5954   24.1447 C   0  0  2  0  0  0  0  0  0  0  0  0
    7.5138  -15.0736   22.8491 N   0  0  0  0  0  0  0  0  0  0  0  0
    8.5056  -15.9074   24.7895 C   0  0  0  0  0  0  0  0  0  0  0  0
    7.6863  -16.8970   24.7258 O   0  0  0  0  0  0  0  0  0  0  0  0
    9.7271  -16.0841   25.4477 N   0  0  0  0  0  0  0  0  0  0  0  0
   10.1844  -17.4580   25.7615 C   0  0  1  0  0  0  0  0  0  0  0  0
   11.1869  -17.9099   24.7625 C   0  0  0  0  0  0  0  0  0  0  0  0
   11.0878  -19.3222   24.3089 C   0  0  0  0  0  0  0  0  0  0  0  0
   12.1467  -19.7391   23.3466 C   0  0  0  0  0  0  0  0  0  0  0  0
   11.9216  -21.1647   22.9004 C   0  0  0  0  0  0  0  0  0  0  0  0
   13.0104  -21.4711   21.9782 N   0  0  0  0  0  0  0  0  0  0  0  0
   10.5292  -17.4730   27.1749 C   0  0  0  0  0  0  0  0  0  0  0  0
   10.4785  -16.3607   27.9850 O   0  0  0  0  0  0  0  0  0  0  0  0
   10.9107  -18.5478   27.7527 O   0  0  0  0  0  0  0  0  0  0  0  0
  2  1  1  0
  2  3  2  0
  4  2  1  0
  5  4  1  0
  5  7  1  0
  5  6  1  6
  7  8  2  0
  9 10  1  0
 10 11  1  0
 11 12  1  0
 13 12  1  1
 14  7  1  0
 14 13  1  0
 15 13  1  0
 15 16  2  0
 17 15  1  0
 18 17  1  0
 18 24  1  0
 18 19  1  6
 20 21  1  0
 20 19  1  0
 22 21  1  0
 23 22  1  0
 24 25  1  0
 26 24  2  0
M  END
$$$$
