NMK.pdb
     RDKit          3D

 26 25  0  0  1  0  0  0  0  0999 V2000
    9.1277  -17.8805   18.2434 N   0  0  0  0  0  0  0  0  0  0  0  0
    9.9604  -16.7456   18.2666 C   0  0  0  0  0  0  0  0  0  0  0  0
   10.6573  -16.4701   17.2731 O   0  0  0  0  0  0  0  0  0  0  0  0
    9.9994  -15.8943   19.4655 C   0  0  0  0  0  0  0  0  0  0  0  0
    9.1578  -16.4445   20.5818 C   0  0  2  0  0  0  0  0  0  0  0  0
    7.8003  -16.5911   20.0961 N   0  0  0  0  0  0  0  0  0  0  0  0
    9.2159  -15.6919   21.8274 C   0  0  0  0  0  0  0  0  0  0  0  0
   10.3583  -15.3113   22.2364 O   0  0  0  0  0  0  0  0  0  0  0  0
    7.1313  -11.6415   27.7689 C   0  0  0  0  0  0  0  0  0  0  0  0
    7.5670  -12.2601   26.1703 S   0  0  0  0  0  0  0  0  0  0  0  0
    6.6145  -13.6710   25.6213 C   0  0  0  0  0  0  0  0  0  0  0  0
    6.9067  -14.1331   24.2469 C   0  0  0  0  0  0  0  0  0  0  0  0
    8.2754  -14.6827   23.9655 C   0  0  2  0  0  0  0  0  0  0  0  0
    8.1174  -15.3446   22.6252 N   0  0  0  0  0  0  0  0  0  0  0  0
    8.5307  -15.8800   24.8582 C   0  0  0  0  0  0  0  0  0  0  0  0
    7.6593  -16.8259   24.8818 O   0  0  0  0  0  0  0  0  0  0  0  0
    9.6752  -15.9971   25.6539 N   0  0  0  0  0  0  0  0  0  0  0  0
    9.9518  -17.2843   26.3335 C   0  0  1  0  0  0  0  0  0  0  0  0
   10.9645  -18.0623   25.5744 C   0  0  0  0  0  0  0  0  0  0  0  0
   11.2532  -19.4369   26.0616 C   0  0  0  0  0  0  0  0  0  0  0  0
   12.2809  -20.1710   25.2704 C   0  0  0  0  0  0  0  0  0  0  0  0
   12.4841  -21.5595   25.8299 C   0  0  0  0  0  0  0  0  0  0  0  0
   13.4534  -22.2061   24.9512 N   0  0  0  0  0  0  0  0  0  0  0  0
   10.1928  -16.9758   27.7347 C   0  0  0  0  0  0  0  0  0  0  0  0
   10.1467  -17.9136   28.7419 O   0  0  0  0  0  0  0  0  0  0  0  0
   10.4640  -15.7853   28.1141 O   0  0  0  0  0  0  0  0  0  0  0  0
  2  1  1  0
  2  3  2  0
  4  2  1  0
  5  4  1  0
  5  7  1  0
  5  6  1  6
  7  8  2  0
  9 10  1  0
 10 11  1  0
 11 12  1  0
 13 12  1  1
 14  7  1  0
 14 13  1  0
 15 13  1  0
 15 16  2  0
 17 15  1  0
 18 17  1  0
 18 24  1  0
 18 19  1  6
 20 21  1  0
 20 19  1  0
 22 21  1  0
 23 22  1  0
 24 25  1  0
 26 24  2  0
M  END
$$$$
