NMK.pdb
     RDKit          3D

 26 25  0  0  1  0  0  0  0  0999 V2000
    6.1672  -19.9702   20.4634 N   0  0  0  0  0  0  0  0  0  0  0  0
    5.5746  -18.7707   20.0254 C   0  0  0  0  0  0  0  0  0  0  0  0
    4.6563  -18.8057   19.1862 O   0  0  0  0  0  0  0  0  0  0  0  0
    6.0458  -17.4856   20.5637 C   0  0  0  0  0  0  0  0  0  0  0  0
    7.1267  -17.6613   21.5923 C   0  0  2  0  0  0  0  0  0  0  0  0
    6.5219  -18.1863   22.8001 N   0  0  0  0  0  0  0  0  0  0  0  0
    7.9299  -16.4746   21.8527 C   0  0  0  0  0  0  0  0  0  0  0  0
    8.6421  -16.0212   20.9017 O   0  0  0  0  0  0  0  0  0  0  0  0
    5.8040  -13.3007   26.8888 C   0  0  0  0  0  0  0  0  0  0  0  0
    6.2028  -12.2510   25.5224 S   0  0  0  0  0  0  0  0  0  0  0  0
    6.9200  -13.0864   24.1127 C   0  0  0  0  0  0  0  0  0  0  0  0
    8.1667  -13.8329   24.3891 C   0  0  0  0  0  0  0  0  0  0  0  0
    8.8295  -14.5438   23.2446 C   0  0  2  0  0  0  0  0  0  0  0  0
    7.9909  -15.7786   23.0675 N   0  0  0  0  0  0  0  0  0  0  0  0
   10.1403  -15.1414   23.7140 C   0  0  0  0  0  0  0  0  0  0  0  0
   11.0817  -14.3456   24.0816 O   0  0  0  0  0  0  0  0  0  0  0  0
   10.3648  -16.5211   23.7648 N   0  0  0  0  0  0  0  0  0  0  0  0
   11.0103  -17.1025   24.9651 C   0  0  1  0  0  0  0  0  0  0  0  0
   10.2333  -16.7634   26.1850 C   0  0  0  0  0  0  0  0  0  0  0  0
   10.9266  -15.9406   27.2110 C   0  0  0  0  0  0  0  0  0  0  0  0
   10.4618  -16.1721   28.6079 C   0  0  0  0  0  0  0  0  0  0  0  0
   11.0856  -15.1644   29.5447 C   0  0  0  0  0  0  0  0  0  0  0  0
   10.4236  -15.3525   30.8317 N   0  0  0  0  0  0  0  0  0  0  0  0
   11.2849  -18.4981   24.6594 C   0  0  0  0  0  0  0  0  0  0  0  0
   12.2567  -19.2413   25.2914 O   0  0  0  0  0  0  0  0  0  0  0  0
   10.6226  -19.1227   23.7616 O   0  0  0  0  0  0  0  0  0  0  0  0
  2  1  1  0
  2  3  2  0
  4  2  1  0
  5  4  1  0
  5  7  1  0
  5  6  1  1
  7  8  2  0
  9 10  1  0
 10 11  1  0
 11 12  1  0
 13 12  1  1
 14  7  1  0
 14 13  1  0
 15 13  1  0
 15 16  2  0
 17 15  1  0
 18 17  1  0
 18 24  1  0
 18 19  1  1
 20 21  1  0
 20 19  1  0
 22 21  1  0
 23 22  1  0
 24 25  1  0
 26 24  2  0
M  END
$$$$
