KVN.pdb
     RDKit          3D

 25 24  0  0  1  0  0  0  0  0999 V2000
   15.6169  -10.6718  -11.9251 N   0  0  0  0  0  0  0  0  0  0  0  0
   16.4249   -9.5965  -11.3246 C   0  0  1  0  0  0  0  0  0  0  0  0
   17.4440   -9.2414  -12.4087 C   0  0  0  0  0  0  0  0  0  0  0  0
   17.7367  -10.3616  -13.3352 C   0  0  0  0  0  0  0  0  0  0  0  0
   18.7801  -10.0953  -14.3648 C   0  0  0  0  0  0  0  0  0  0  0  0
   19.1287  -11.2120  -15.2863 C   0  0  0  0  0  0  0  0  0  0  0  0
   20.1725  -10.8797  -16.2181 N   0  0  0  0  0  0  0  0  0  0  0  0
   15.5886   -8.4080  -11.0663 C   0  0  0  0  0  0  0  0  0  0  0  0
   14.7056   -8.0599  -11.8549 O   0  0  0  0  0  0  0  0  0  0  0  0
   15.3783   -7.2775   -7.0555 C   0  0  0  0  0  0  0  0  0  0  0  0
   14.3725   -7.0453   -8.1220 C   0  0  2  0  0  0  0  0  0  0  0  0
   13.5057   -8.2812   -8.2319 C   0  0  0  0  0  0  0  0  0  0  0  0
   14.8951   -6.5922   -9.4480 C   0  0  2  0  0  0  0  0  0  0  0  0
   15.8137   -7.6596   -9.8860 N   0  0  0  0  0  0  0  0  0  0  0  0
   15.6241   -5.3254   -9.4459 C   0  0  0  0  0  0  0  0  0  0  0  0
   16.8009   -5.2692   -9.0144 O   0  0  0  0  0  0  0  0  0  0  0  0
   15.3025   -3.3572  -13.4548 N   0  0  0  0  0  0  0  0  0  0  0  0
   16.1327   -2.8949  -12.4055 C   0  0  0  0  0  0  0  0  0  0  0  0
   17.3990   -3.0358  -12.4481 O   0  0  0  0  0  0  0  0  0  0  0  0
   15.5923   -2.2345  -11.2256 C   0  0  0  0  0  0  0  0  0  0  0  0
   15.8920   -2.9046   -9.9096 C   0  0  2  0  0  0  0  0  0  0  0  0
   15.0512   -4.1222   -9.9214 N   0  0  0  0  0  0  0  0  0  0  0  0
   15.4451   -2.0236   -8.7945 C   0  0  0  0  0  0  0  0  0  0  0  0
   16.1555   -0.9691   -8.2690 O   0  0  0  0  0  0  0  0  0  0  0  0
   14.3058   -2.2333   -8.2497 O   0  0  0  0  0  0  0  0  0  0  0  0
  2  1  1  6
  3  2  1  0
  4  5  1  0
  4  3  1  0
  5  6  1  0
  6  7  1  0
  8  2  1  0
  8 14  1  0
  9  8  2  0
 11 13  1  0
 11 10  1  1
 12 11  1  0
 13 14  1  1
 15 13  1  0
 16 15  2  0
 17 18  1  0
 18 19  2  0
 20 18  1  0
 21 20  1  6
 21 22  1  0
 21 23  1  0
 22 15  1  0
 23 24  1  0
 25 23  2  0
M  END
$$$$
