KVN.pdb
     RDKit          3D

 25 24  0  0  1  0  0  0  0  0999 V2000
   17.2321  -23.7732  -14.9131 N   0  0  0  0  0  0  0  0  0  0  0  0
   18.1524  -22.9160  -14.1462 C   0  0  1  0  0  0  0  0  0  0  0  0
   17.8920  -23.2952  -12.6872 C   0  0  0  0  0  0  0  0  0  0  0  0
   16.4606  -23.2312  -12.3058 C   0  0  0  0  0  0  0  0  0  0  0  0
   16.1308  -23.7284  -10.9405 C   0  0  0  0  0  0  0  0  0  0  0  0
   14.7052  -23.6581  -10.5157 C   0  0  0  0  0  0  0  0  0  0  0  0
   14.4629  -24.2486   -9.2269 N   0  0  0  0  0  0  0  0  0  0  0  0
   19.5538  -23.2480  -14.4692 C   0  0  0  0  0  0  0  0  0  0  0  0
   19.9734  -24.4062  -14.3951 O   0  0  0  0  0  0  0  0  0  0  0  0
   21.5563  -20.7660  -17.1240 C   0  0  0  0  0  0  0  0  0  0  0  0
   21.8861  -22.1565  -16.7232 C   0  0  2  0  0  0  0  0  0  0  0  0
   21.0404  -23.1004  -17.5507 C   0  0  0  0  0  0  0  0  0  0  0  0
   21.8245  -22.4643  -15.2610 C   0  0  2  0  0  0  0  0  0  0  0  0
   20.4255  -22.2076  -14.8712 N   0  0  0  0  0  0  0  0  0  0  0  0
   22.6984  -21.6647  -14.4047 C   0  0  0  0  0  0  0  0  0  0  0  0
   22.3956  -20.4825  -14.1136 O   0  0  0  0  0  0  0  0  0  0  0  0
   26.2678  -21.7352   -9.6406 N   0  0  0  0  0  0  0  0  0  0  0  0
   25.8493  -21.1693  -10.8688 C   0  0  0  0  0  0  0  0  0  0  0  0
   26.2231  -20.0039  -11.2258 O   0  0  0  0  0  0  0  0  0  0  0  0
   24.9749  -21.8812  -11.7902 C   0  0  0  0  0  0  0  0  0  0  0  0
   24.7869  -21.2365  -13.1392 C   0  0  2  0  0  0  0  0  0  0  0  0
   23.9059  -22.1736  -13.8708 N   0  0  0  0  0  0  0  0  0  0  0  0
   26.0999  -21.1664  -13.8395 C   0  0  0  0  0  0  0  0  0  0  0  0
   26.9028  -20.0531  -13.9327 O   0  0  0  0  0  0  0  0  0  0  0  0
   26.5566  -22.2127  -14.4188 O   0  0  0  0  0  0  0  0  0  0  0  0
  2  1  1  6
  3  2  1  0
  4  5  1  0
  4  3  1  0
  5  6  1  0
  6  7  1  0
  8  2  1  0
  8 14  1  0
  9  8  2  0
 11 13  1  0
 11 10  1  1
 12 11  1  0
 13 14  1  1
 15 13  1  0
 16 15  2  0
 17 18  1  0
 18 19  2  0
 20 18  1  0
 21 20  1  1
 21 22  1  0
 21 23  1  0
 22 15  1  0
 23 24  1  0
 25 23  2  0
M  END
$$$$
