KVN.pdb
     RDKit          3D

 25 24  0  0  1  0  0  0  0  0999 V2000
   27.3342  -24.4728  -18.2888 N   0  0  0  0  0  0  0  0  0  0  0  0
   27.7194  -24.8174  -16.9094 C   0  0  1  0  0  0  0  0  0  0  0  0
   29.1880  -25.2308  -17.0211 C   0  0  0  0  0  0  0  0  0  0  0  0
   29.4102  -26.6836  -16.8246 C   0  0  0  0  0  0  0  0  0  0  0  0
   28.4160  -27.5847  -17.4722 C   0  0  0  0  0  0  0  0  0  0  0  0
   28.6295  -29.0514  -17.3267 C   0  0  0  0  0  0  0  0  0  0  0  0
   29.8030  -29.3855  -16.5656 N   0  0  0  0  0  0  0  0  0  0  0  0
   27.6368  -23.6276  -16.0399 C   0  0  0  0  0  0  0  0  0  0  0  0
   28.6438  -23.1433  -15.5162 O   0  0  0  0  0  0  0  0  0  0  0  0
   28.0571  -19.9482  -15.5074 C   0  0  0  0  0  0  0  0  0  0  0  0
   27.0225  -20.7969  -16.1494 C   0  0  2  0  0  0  0  0  0  0  0  0
   26.1467  -19.9082  -17.0063 C   0  0  0  0  0  0  0  0  0  0  0  0
   26.2278  -21.6836  -15.2446 C   0  0  2  0  0  0  0  0  0  0  0  0
   26.3705  -23.0385  -15.8092 N   0  0  0  0  0  0  0  0  0  0  0  0
   24.8035  -21.3731  -15.1390 C   0  0  0  0  0  0  0  0  0  0  0  0
   23.9900  -21.8230  -15.9816 O   0  0  0  0  0  0  0  0  0  0  0  0
   20.3738  -21.0072  -12.3261 N   0  0  0  0  0  0  0  0  0  0  0  0
   21.5192  -20.5734  -11.6164 C   0  0  0  0  0  0  0  0  0  0  0  0
   21.4549  -20.2467  -10.3859 O   0  0  0  0  0  0  0  0  0  0  0  0
   22.8288  -20.4778  -12.2460 C   0  0  0  0  0  0  0  0  0  0  0  0
   22.8615  -20.7563  -13.7265 C   0  0  2  0  0  0  0  0  0  0  0  0
   24.2802  -20.5659  -14.1014 N   0  0  0  0  0  0  0  0  0  0  0  0
   22.0366  -19.7401  -14.4379 C   0  0  0  0  0  0  0  0  0  0  0  0
   20.7212  -19.8911  -14.8117 O   0  0  0  0  0  0  0  0  0  0  0  0
   22.5609  -18.6138  -14.7471 O   0  0  0  0  0  0  0  0  0  0  0  0
  2  1  1  6
  3  2  1  0
  4  5  1  0
  4  3  1  0
  5  6  1  0
  6  7  1  0
  8  2  1  0
  8 14  1  0
  9  8  2  0
 11 13  1  0
 11 10  1  1
 12 11  1  0
 13 14  1  6
 15 13  1  0
 16 15  2  0
 17 18  1  0
 18 19  2  0
 20 18  1  0
 21 20  1  1
 21 22  1  0
 21 23  1  0
 22 15  1  0
 23 24  1  0
 25 23  2  0
M  END
$$$$
