KVN.pdb
     RDKit          3D

 25 24  0  0  1  0  0  0  0  0999 V2000
   14.8632  -14.3177  -15.3137 N   0  0  0  0  0  0  0  0  0  0  0  0
   15.1346  -13.1372  -16.1518 C   0  0  1  0  0  0  0  0  0  0  0  0
   13.7684  -12.4682  -16.3131 C   0  0  0  0  0  0  0  0  0  0  0  0
   12.7950  -13.2872  -17.0751 C   0  0  0  0  0  0  0  0  0  0  0  0
   11.4843  -12.6383  -17.3593 C   0  0  0  0  0  0  0  0  0  0  0  0
   10.5033  -13.4109  -18.1707 C   0  0  0  0  0  0  0  0  0  0  0  0
   10.1518  -14.6781  -17.5883 N   0  0  0  0  0  0  0  0  0  0  0  0
   16.0299  -12.2000  -15.4456 C   0  0  0  0  0  0  0  0  0  0  0  0
   16.0257  -12.1113  -14.2148 O   0  0  0  0  0  0  0  0  0  0  0  0
   19.6756  -11.2161  -17.2637 C   0  0  0  0  0  0  0  0  0  0  0  0
   19.2298  -11.1823  -15.8483 C   0  0  2  0  0  0  0  0  0  0  0  0
   19.2949  -12.5909  -15.2983 C   0  0  0  0  0  0  0  0  0  0  0  0
   17.9167  -10.5206  -15.5755 C   0  0  2  0  0  0  0  0  0  0  0  0
   16.9074  -11.3911  -16.2069 N   0  0  0  0  0  0  0  0  0  0  0  0
   17.7618   -9.1688  -16.1093 C   0  0  0  0  0  0  0  0  0  0  0  0
   17.4406   -8.9913  -17.3090 O   0  0  0  0  0  0  0  0  0  0  0  0
   16.4580   -4.6831  -17.8871 N   0  0  0  0  0  0  0  0  0  0  0  0
   15.8264   -5.3924  -16.8374 C   0  0  0  0  0  0  0  0  0  0  0  0
   14.7824   -4.9397  -16.2627 O   0  0  0  0  0  0  0  0  0  0  0  0
   16.3282   -6.6725  -16.3576 C   0  0  0  0  0  0  0  0  0  0  0  0
   17.7809   -6.6942  -15.9582 C   0  0  2  0  0  0  0  0  0  0  0  0
   17.9620   -8.0147  -15.3155 N   0  0  0  0  0  0  0  0  0  0  0  0
   18.0301   -5.6298  -14.9462 C   0  0  0  0  0  0  0  0  0  0  0  0
   18.3049   -4.3096  -15.2191 O   0  0  0  0  0  0  0  0  0  0  0  0
   17.9948   -5.9289  -13.7019 O   0  0  0  0  0  0  0  0  0  0  0  0
  2  1  1  1
  3  2  1  0
  4  5  1  0
  4  3  1  0
  5  6  1  0
  6  7  1  0
  8  2  1  0
  8 14  1  0
  9  8  2  0
 11 13  1  0
 11 10  1  6
 12 11  1  0
 13 14  1  6
 15 13  1  0
 16 15  2  0
 17 18  1  0
 18 19  2  0
 20 18  1  0
 21 20  1  1
 21 22  1  0
 21 23  1  0
 22 15  1  0
 23 24  1  0
 25 23  2  0
M  END
$$$$
