KVN.pdb
     RDKit          3D

 25 24  0  0  1  0  0  0  0  0999 V2000
   24.7782  -23.1438  -13.8266 N   0  0  0  0  0  0  0  0  0  0  0  0
   24.1555  -22.4026  -14.9368 C   0  0  1  0  0  0  0  0  0  0  0  0
   22.7302  -22.1284  -14.4536 C   0  0  0  0  0  0  0  0  0  0  0  0
   21.8984  -23.3507  -14.3408 C   0  0  0  0  0  0  0  0  0  0  0  0
   20.4337  -23.1258  -14.1856 C   0  0  0  0  0  0  0  0  0  0  0  0
   19.5500  -24.3227  -14.2499 C   0  0  0  0  0  0  0  0  0  0  0  0
   18.1502  -24.0054  -14.1597 N   0  0  0  0  0  0  0  0  0  0  0  0
   24.8354  -21.1078  -15.1360 C   0  0  0  0  0  0  0  0  0  0  0  0
   25.1922  -20.4154  -14.1789 O   0  0  0  0  0  0  0  0  0  0  0  0
   28.0222  -20.6877  -16.3192 C   0  0  0  0  0  0  0  0  0  0  0  0
   27.1689  -19.9273  -17.2661 C   0  0  2  0  0  0  0  0  0  0  0  0
   28.0023  -18.8146  -17.8648 C   0  0  0  0  0  0  0  0  0  0  0  0
   25.8555  -19.4410  -16.7416 C   0  0  2  0  0  0  0  0  0  0  0  0
   25.0778  -20.6613  -16.4573 N   0  0  0  0  0  0  0  0  0  0  0  0
   25.0800  -18.5982  -17.6497 C   0  0  0  0  0  0  0  0  0  0  0  0
   24.6437  -19.0613  -18.7310 O   0  0  0  0  0  0  0  0  0  0  0  0
   22.5390  -14.4573  -19.7604 N   0  0  0  0  0  0  0  0  0  0  0  0
   22.7691  -14.2982  -18.3727 C   0  0  0  0  0  0  0  0  0  0  0  0
   22.3690  -13.2622  -17.7467 O   0  0  0  0  0  0  0  0  0  0  0  0
   23.4698  -15.3025  -17.5848 C   0  0  0  0  0  0  0  0  0  0  0  0
   24.0097  -16.4773  -18.3589 C   0  0  2  0  0  0  0  0  0  0  0  0
   24.7874  -17.2443  -17.3607 N   0  0  0  0  0  0  0  0  0  0  0  0
   24.9374  -15.9868  -19.4163 C   0  0  0  0  0  0  0  0  0  0  0  0
   24.6569  -15.9141  -20.7612 O   0  0  0  0  0  0  0  0  0  0  0  0
   26.1086  -15.5893  -19.0858 O   0  0  0  0  0  0  0  0  0  0  0  0
  2  1  1  1
  3  2  1  0
  4  5  1  0
  4  3  1  0
  5  6  1  0
  6  7  1  0
  8  2  1  0
  8 14  1  0
  9  8  2  0
 11 13  1  0
 11 10  1  1
 12 11  1  0
 13 14  1  6
 15 13  1  0
 16 15  2  0
 17 18  1  0
 18 19  2  0
 20 18  1  0
 21 20  1  1
 21 22  1  0
 21 23  1  0
 22 15  1  0
 23 24  1  0
 25 23  2  0
M  END
$$$$
