KVN.pdb
     RDKit          3D

 25 24  0  0  1  0  0  0  0  0999 V2000
   24.5298  -20.8353   -8.7588 N   0  0  0  0  0  0  0  0  0  0  0  0
   23.8158  -21.2393   -9.9822 C   0  0  1  0  0  0  0  0  0  0  0  0
   22.3415  -20.9953   -9.6554 C   0  0  0  0  0  0  0  0  0  0  0  0
   21.7751  -21.9823   -8.7046 C   0  0  0  0  0  0  0  0  0  0  0  0
   20.3109  -21.8726   -8.4523 C   0  0  0  0  0  0  0  0  0  0  0  0
   19.7155  -22.8224   -7.4719 C   0  0  0  0  0  0  0  0  0  0  0  0
   18.2930  -22.6725   -7.3221 N   0  0  0  0  0  0  0  0  0  0  0  0
   24.1923  -20.3646  -11.1100 C   0  0  0  0  0  0  0  0  0  0  0  0
   24.4652  -19.1737  -10.9362 O   0  0  0  0  0  0  0  0  0  0  0  0
   25.8710  -22.1798  -14.4381 C   0  0  0  0  0  0  0  0  0  0  0  0
   25.9380  -20.7513  -14.0408 C   0  0  2  0  0  0  0  0  0  0  0  0
   27.0555  -20.5928  -13.0323 C   0  0  0  0  0  0  0  0  0  0  0  0
   24.6603  -20.1227  -13.5837 C   0  0  2  0  0  0  0  0  0  0  0  0
   24.2376  -20.9146  -12.4135 N   0  0  0  0  0  0  0  0  0  0  0  0
   23.5701  -20.1163  -14.5572 C   0  0  0  0  0  0  0  0  0  0  0  0
   22.7817  -21.0890  -14.6361 O   0  0  0  0  0  0  0  0  0  0  0  0
   20.7159  -15.7727  -15.1513 N   0  0  0  0  0  0  0  0  0  0  0  0
   20.8699  -17.1565  -15.4063 C   0  0  0  0  0  0  0  0  0  0  0  0
   20.2516  -18.0327  -14.7170 O   0  0  0  0  0  0  0  0  0  0  0  0
   21.7362  -17.6560  -16.4649 C   0  0  0  0  0  0  0  0  0  0  0  0
   22.1691  -19.0929  -16.3284 C   0  0  2  0  0  0  0  0  0  0  0  0
   23.3526  -19.0338  -15.4421 N   0  0  0  0  0  0  0  0  0  0  0  0
   22.5923  -19.6091  -17.6602 C   0  0  0  0  0  0  0  0  0  0  0  0
   21.7531  -20.0790  -18.6439 O   0  0  0  0  0  0  0  0  0  0  0  0
   23.8380  -19.6350  -17.9541 O   0  0  0  0  0  0  0  0  0  0  0  0
  2  1  1  1
  3  2  1  0
  4  5  1  0
  4  3  1  0
  5  6  1  0
  6  7  1  0
  8  2  1  0
  8 14  1  0
  9  8  2  0
 11 13  1  0
 11 10  1  1
 12 11  1  0
 13 14  1  1
 15 13  1  0
 16 15  2  0
 17 18  1  0
 18 19  2  0
 20 18  1  0
 21 20  1  6
 21 22  1  0
 21 23  1  0
 22 15  1  0
 23 24  1  0
 25 23  2  0
M  END
$$$$
