KVN.pdb
     RDKit          3D

 25 24  0  0  1  0  0  0  0  0999 V2000
   22.6073  -20.6974   -8.6218 N   0  0  0  0  0  0  0  0  0  0  0  0
   22.4882  -21.2278   -9.9908 C   0  0  1  0  0  0  0  0  0  0  0  0
   21.0089  -21.0481  -10.3366 C   0  0  0  0  0  0  0  0  0  0  0  0
   20.1481  -22.1504   -9.8441 C   0  0  0  0  0  0  0  0  0  0  0  0
   19.8906  -22.1653   -8.3767 C   0  0  0  0  0  0  0  0  0  0  0  0
   18.9636  -23.2092   -7.8582 C   0  0  0  0  0  0  0  0  0  0  0  0
   19.6233  -24.4401   -7.5147 N   0  0  0  0  0  0  0  0  0  0  0  0
   23.2864  -20.4144  -10.9287 C   0  0  0  0  0  0  0  0  0  0  0  0
   23.4217  -19.1981  -10.7700 O   0  0  0  0  0  0  0  0  0  0  0  0
   27.3266  -20.3994  -13.4046 C   0  0  0  0  0  0  0  0  0  0  0  0
   26.1609  -21.0106  -12.7187 C   0  0  2  0  0  0  0  0  0  0  0  0
   26.1285  -22.4840  -13.0634 C   0  0  0  0  0  0  0  0  0  0  0  0
   24.8378  -20.3446  -12.9251 C   0  0  2  0  0  0  0  0  0  0  0  0
   23.9049  -21.0539  -12.0298 N   0  0  0  0  0  0  0  0  0  0  0  0
   24.3044  -20.3958  -14.2849 C   0  0  0  0  0  0  0  0  0  0  0  0
   23.7595  -21.4406  -14.7157 O   0  0  0  0  0  0  0  0  0  0  0  0
   22.1820  -16.0396  -16.0992 N   0  0  0  0  0  0  0  0  0  0  0  0
   22.2956  -17.4371  -16.2944 C   0  0  0  0  0  0  0  0  0  0  0  0
   21.3800  -18.2383  -15.9140 O   0  0  0  0  0  0  0  0  0  0  0  0
   23.4562  -18.0361  -16.9384 C   0  0  0  0  0  0  0  0  0  0  0  0
   23.7816  -19.4448  -16.5141 C   0  0  2  0  0  0  0  0  0  0  0  0
   24.3738  -19.2914  -15.1667 N   0  0  0  0  0  0  0  0  0  0  0  0
   24.8119  -20.0101  -17.4296 C   0  0  0  0  0  0  0  0  0  0  0  0
   24.5616  -20.7376  -18.5701 O   0  0  0  0  0  0  0  0  0  0  0  0
   26.0512  -19.8252  -17.1670 O   0  0  0  0  0  0  0  0  0  0  0  0
  2  1  1  1
  3  2  1  0
  4  5  1  0
  4  3  1  0
  5  6  1  0
  6  7  1  0
  8  2  1  0
  8 14  1  0
  9  8  2  0
 11 13  1  0
 11 10  1  6
 12 11  1  0
 13 14  1  1
 15 13  1  0
 16 15  2  0
 17 18  1  0
 18 19  2  0
 20 18  1  0
 21 20  1  6
 21 22  1  0
 21 23  1  0
 22 15  1  0
 23 24  1  0
 25 23  2  0
M  END
$$$$
