WQG.pdb
     RDKit          3D

 28 29  0  0  1  0  0  0  0  0999 V2000
   17.7085   -9.1891  -10.9309 N   0  0  0  0  0  0  0  0  0  0  0  0
   18.0519   -7.8680  -10.4724 C   0  0  1  0  0  0  0  0  0  0  0  0
   18.9922   -7.2246  -11.4487 C   0  0  0  0  0  0  0  0  0  0  0  0
   20.3325   -7.8535  -11.3065 C   0  0  0  0  0  0  0  0  0  0  0  0
   20.9169   -8.6835  -12.2802 C   0  0  0  0  0  0  0  0  0  0  0  0
   22.1326   -9.0407  -11.8472 N   0  0  0  0  0  0  0  0  0  0  0  0
   22.3837   -8.4950  -10.6442 C   0  0  0  0  0  0  0  0  0  0  0  0
   23.4820   -8.5896   -9.8244 C   0  0  0  0  0  0  0  0  0  0  0  0
   23.4758   -7.9290   -8.6196 C   0  0  0  0  0  0  0  0  0  0  0  0
   22.3484   -7.1820   -8.2692 C   0  0  0  0  0  0  0  0  0  0  0  0
   21.2554   -7.1031   -9.1135 C   0  0  0  0  0  0  0  0  0  0  0  0
   21.2542   -7.7542  -10.3107 C   0  0  0  0  0  0  0  0  0  0  0  0
   16.7894   -7.0923  -10.3235 C   0  0  0  0  0  0  0  0  0  0  0  0
   15.9332   -7.1492  -11.2059 O   0  0  0  0  0  0  0  0  0  0  0  0
   12.1619   -6.5932   -8.7884 N   0  0  0  0  0  0  0  0  0  0  0  0
   12.9760   -7.6185   -8.2699 C   0  0  0  0  0  0  0  0  0  0  0  0
   12.5110   -8.8055   -8.3625 O   0  0  0  0  0  0  0  0  0  0  0  0
   14.3086   -7.3524   -7.6442 C   0  0  0  0  0  0  0  0  0  0  0  0
   14.5760   -5.8720   -7.7540 C   0  0  0  0  0  0  0  0  0  0  0  0
   15.3163   -5.5183   -9.0178 C   0  0  2  0  0  0  0  0  0  0  0  0
   16.5344   -6.2730   -9.1763 N   0  0  0  0  0  0  0  0  0  0  0  0
   15.6053   -4.0800   -9.1286 C   0  0  0  0  0  0  0  0  0  0  0  0
   16.6230   -3.6174   -8.5743 O   0  0  0  0  0  0  0  0  0  0  0  0
   14.7563   -3.1808   -9.8547 N   0  0  0  0  0  0  0  0  0  0  0  0
   15.0144   -1.7771   -9.9857 C   0  0  0  0  0  0  0  0  0  0  0  0
   14.5542   -0.9911   -8.8289 C   0  0  0  0  0  0  0  0  0  0  0  0
   14.7984    0.3744   -8.8262 O   0  0  0  0  0  0  0  0  0  0  0  0
   13.9516   -1.4739   -7.8370 O   0  0  0  0  0  0  0  0  0  0  0  0
  2  1  1  6
  3  4  1  0
  3  2  1  0
  4  5  2  0
  6  5  1  0
  7  6  1  0
  8  7  2  0
  9  8  1  0
 10 11  1  0
 10  9  2  0
 11 12  2  0
 12  7  1  0
 12  4  1  0
 13 21  1  0
 13  2  1  0
 14 13  2  0
 16 15  1  0
 17 16  2  0
 18 16  1  0
 20 19  1  1
 19 18  1  0
 20 22  1  0
 20 21  1  0
 22 23  2  0
 24 25  1  0
 24 22  1  0
 25 26  1  0
 26 28  2  0
 26 27  1  0
M  END
$$$$
