WQG.pdb
     RDKit          3D

 28 29  0  0  1  0  0  0  0  0999 V2000
   28.4873  -21.8081  -10.0554 N   0  0  0  0  0  0  0  0  0  0  0  0
   27.2911  -21.1376   -9.6160 C   0  0  1  0  0  0  0  0  0  0  0  0
   27.6555  -19.8471   -8.9429 C   0  0  0  0  0  0  0  0  0  0  0  0
   28.4925  -20.1495   -7.7512 C   0  0  0  0  0  0  0  0  0  0  0  0
   29.7730  -20.7276   -7.8181 C   0  0  0  0  0  0  0  0  0  0  0  0
   30.2524  -20.8224   -6.5715 N   0  0  0  0  0  0  0  0  0  0  0  0
   29.3622  -20.3411   -5.6861 C   0  0  0  0  0  0  0  0  0  0  0  0
   29.4169  -20.2439   -4.3169 C   0  0  0  0  0  0  0  0  0  0  0  0
   28.3450  -19.7126   -3.6411 C   0  0  0  0  0  0  0  0  0  0  0  0
   27.2329  -19.2887   -4.3729 C   0  0  0  0  0  0  0  0  0  0  0  0
   27.2037  -19.3977   -5.7517 C   0  0  0  0  0  0  0  0  0  0  0  0
   28.2632  -19.9222   -6.4295 C   0  0  0  0  0  0  0  0  0  0  0  0
   26.4253  -20.9175  -10.8075 C   0  0  0  0  0  0  0  0  0  0  0  0
   26.8879  -20.3548  -11.7996 O   0  0  0  0  0  0  0  0  0  0  0  0
   25.4949  -22.2534  -14.9709 N   0  0  0  0  0  0  0  0  0  0  0  0
   24.0967  -22.1845  -15.1232 C   0  0  0  0  0  0  0  0  0  0  0  0
   23.6698  -22.0092  -16.3152 O   0  0  0  0  0  0  0  0  0  0  0  0
   23.1521  -22.3069  -13.9695 C   0  0  0  0  0  0  0  0  0  0  0  0
   23.9789  -22.4885  -12.7211 C   0  0  0  0  0  0  0  0  0  0  0  0
   24.2237  -21.1858  -12.0047 C   0  0  2  0  0  0  0  0  0  0  0  0
   25.0576  -21.3425  -10.8391 N   0  0  0  0  0  0  0  0  0  0  0  0
   22.9795  -20.4928  -11.6356 C   0  0  0  0  0  0  0  0  0  0  0  0
   22.4368  -20.7533  -10.5425 O   0  0  0  0  0  0  0  0  0  0  0  0
   22.3603  -19.5214  -12.4896 N   0  0  0  0  0  0  0  0  0  0  0  0
   21.0824  -18.9296  -12.2228 C   0  0  0  0  0  0  0  0  0  0  0  0
   19.9531  -19.8252  -12.5231 C   0  0  0  0  0  0  0  0  0  0  0  0
   18.7037  -19.4952  -12.0189 O   0  0  0  0  0  0  0  0  0  0  0  0
   20.0424  -20.8749  -13.2089 O   0  0  0  0  0  0  0  0  0  0  0  0
  2  1  1  6
  3  4  1  0
  3  2  1  0
  4  5  2  0
  6  5  1  0
  7  6  1  0
  8  7  2  0
  9  8  1  0
 10 11  1  0
 10  9  2  0
 11 12  2  0
 12  7  1  0
 12  4  1  0
 13 21  1  0
 13  2  1  0
 14 13  2  0
 16 15  1  0
 17 16  2  0
 18 16  1  0
 20 19  1  1
 19 18  1  0
 20 22  1  0
 20 21  1  0
 22 23  2  0
 24 25  1  0
 24 22  1  0
 25 26  1  0
 26 28  2  0
 26 27  1  0
M  END
$$$$
