WQG.pdb
     RDKit          3D

 28 29  0  0  1  0  0  0  0  0999 V2000
   15.0241  -14.4997    4.1211 N   0  0  0  0  0  0  0  0  0  0  0  0
   16.1317  -15.4178    4.1829 C   0  0  1  0  0  0  0  0  0  0  0  0
   16.9334  -15.1570    5.4241 C   0  0  0  0  0  0  0  0  0  0  0  0
   17.7692  -13.9459    5.2072 C   0  0  0  0  0  0  0  0  0  0  0  0
   17.4450  -12.9212    4.2998 C   0  0  0  0  0  0  0  0  0  0  0  0
   18.3871  -11.9738    4.3882 N   0  0  0  0  0  0  0  0  0  0  0  0
   19.3142  -12.3144    5.3005 C   0  0  0  0  0  0  0  0  0  0  0  0
   20.4509  -11.6637    5.7149 C   0  0  0  0  0  0  0  0  0  0  0  0
   21.2447  -12.2486    6.6719 C   0  0  0  0  0  0  0  0  0  0  0  0
   20.8666  -13.4891    7.1916 C   0  0  0  0  0  0  0  0  0  0  0  0
   19.7163  -14.1230    6.7568 C   0  0  0  0  0  0  0  0  0  0  0  0
   18.9230  -13.5490    5.8091 C   0  0  0  0  0  0  0  0  0  0  0  0
   15.5816  -16.8015    4.1577 C   0  0  0  0  0  0  0  0  0  0  0  0
   14.6886  -17.1153    4.9445 O   0  0  0  0  0  0  0  0  0  0  0  0
   15.9788  -21.1027    0.0735 N   0  0  0  0  0  0  0  0  0  0  0  0
   15.8838  -21.9286    1.2101 C   0  0  0  0  0  0  0  0  0  0  0  0
   15.3806  -23.0883    1.0208 O   0  0  0  0  0  0  0  0  0  0  0  0
   16.3396  -21.4911    2.5662 C   0  0  0  0  0  0  0  0  0  0  0  0
   16.7065  -20.0309    2.4743 C   0  0  0  0  0  0  0  0  0  0  0  0
   16.0190  -19.2026    3.5287 C   0  0  2  0  0  0  0  0  0  0  0  0
   16.0613  -17.7909    3.2393 N   0  0  0  0  0  0  0  0  0  0  0  0
   16.5430  -19.4482    4.8814 C   0  0  0  0  0  0  0  0  0  0  0  0
   17.7226  -19.1377    5.1448 O   0  0  0  0  0  0  0  0  0  0  0  0
   15.7451  -20.0353    5.9181 N   0  0  0  0  0  0  0  0  0  0  0  0
   16.1213  -21.2172    6.6363 C   0  0  0  0  0  0  0  0  0  0  0  0
   17.2942  -21.0212    7.5045 C   0  0  0  0  0  0  0  0  0  0  0  0
   17.3228  -21.6798    8.7249 O   0  0  0  0  0  0  0  0  0  0  0  0
   18.2779  -20.2941    7.2152 O   0  0  0  0  0  0  0  0  0  0  0  0
  2  1  1  1
  3  4  1  0
  3  2  1  0
  4  5  2  0
  6  5  1  0
  7  6  1  0
  8  7  2  0
  9  8  1  0
 10 11  1  0
 10  9  2  0
 11 12  2  0
 12  7  1  0
 12  4  1  0
 13 21  1  0
 13  2  1  0
 14 13  2  0
 16 15  1  0
 17 16  2  0
 18 16  1  0
 20 19  1  6
 19 18  1  0
 20 22  1  0
 20 21  1  0
 22 23  2  0
 24 25  1  0
 24 22  1  0
 25 26  1  0
 26 28  2  0
 26 27  1  0
M  END
$$$$
