WQG.pdb
     RDKit          3D

 28 29  0  0  1  0  0  0  0  0999 V2000
   26.9052  -22.1590  -14.2305 N   0  0  0  0  0  0  0  0  0  0  0  0
   26.0848  -21.4969  -13.2496 C   0  0  1  0  0  0  0  0  0  0  0  0
   26.7093  -20.1857  -12.8729 C   0  0  0  0  0  0  0  0  0  0  0  0
   27.6326  -20.4077  -11.7281 C   0  0  0  0  0  0  0  0  0  0  0  0
   29.0058  -20.6779  -11.8689 C   0  0  0  0  0  0  0  0  0  0  0  0
   29.5368  -20.7831  -10.6441 N   0  0  0  0  0  0  0  0  0  0  0  0
   28.5934  -20.5987   -9.7038 C   0  0  0  0  0  0  0  0  0  0  0  0
   28.6724  -20.6237   -8.3326 C   0  0  0  0  0  0  0  0  0  0  0  0
   27.5337  -20.4111   -7.5935 C   0  0  0  0  0  0  0  0  0  0  0  0
   26.3312  -20.1765   -8.2650 C   0  0  0  0  0  0  0  0  0  0  0  0
   26.2794  -20.1564   -9.6473 C   0  0  0  0  0  0  0  0  0  0  0  0
   27.4044  -20.3649  -10.3876 C   0  0  0  0  0  0  0  0  0  0  0  0
   24.7267  -21.3178  -13.8339 C   0  0  0  0  0  0  0  0  0  0  0  0
   24.6094  -20.8607  -14.9707 O   0  0  0  0  0  0  0  0  0  0  0  0
   23.7141  -24.0896  -16.4895 N   0  0  0  0  0  0  0  0  0  0  0  0
   22.5233  -23.8374  -15.7814 C   0  0  0  0  0  0  0  0  0  0  0  0
   21.5106  -23.5049  -16.4869 O   0  0  0  0  0  0  0  0  0  0  0  0
   22.4310  -23.9472  -14.2923 C   0  0  0  0  0  0  0  0  0  0  0  0
   21.5114  -22.8528  -13.8110 C   0  0  0  0  0  0  0  0  0  0  0  0
   22.2202  -21.5299  -13.6772 C   0  0  2  0  0  0  0  0  0  0  0  0
   23.5392  -21.6627  -13.1106 N   0  0  0  0  0  0  0  0  0  0  0  0
   21.4472  -20.5413  -12.9093 C   0  0  0  0  0  0  0  0  0  0  0  0
   21.5894  -20.4834  -11.6709 O   0  0  0  0  0  0  0  0  0  0  0  0
   20.5287  -19.6336  -13.5331 N   0  0  0  0  0  0  0  0  0  0  0  0
   19.1068  -19.7040  -13.3667 C   0  0  0  0  0  0  0  0  0  0  0  0
   18.3775  -18.7109  -14.1728 C   0  0  0  0  0  0  0  0  0  0  0  0
   16.9985  -18.6441  -14.0387 O   0  0  0  0  0  0  0  0  0  0  0  0
   18.9205  -17.9142  -14.9793 O   0  0  0  0  0  0  0  0  0  0  0  0
  2  1  1  6
  3  4  1  0
  3  2  1  0
  4  5  2  0
  6  5  1  0
  7  6  1  0
  8  7  2  0
  9  8  1  0
 10 11  1  0
 10  9  2  0
 11 12  2  0
 12  7  1  0
 12  4  1  0
 13 21  1  0
 13  2  1  0
 14 13  2  0
 16 15  1  0
 17 16  2  0
 18 16  1  0
 20 19  1  1
 19 18  1  0
 20 22  1  0
 20 21  1  0
 22 23  2  0
 24 25  1  0
 24 22  1  0
 25 26  1  0
 26 28  2  0
 26 27  1  0
M  END
$$$$
