WQG.pdb
     RDKit          3D

 28 29  0  0  1  0  0  0  0  0999 V2000
   24.4213  -18.2938  -17.0186 N   0  0  0  0  0  0  0  0  0  0  0  0
   23.4331  -18.3886  -15.9756 C   0  0  1  0  0  0  0  0  0  0  0  0
   22.0657  -18.1797  -16.5568 C   0  0  0  0  0  0  0  0  0  0  0  0
   21.6756  -16.7578  -16.3613 C   0  0  0  0  0  0  0  0  0  0  0  0
   21.8904  -15.7471  -17.3157 C   0  0  0  0  0  0  0  0  0  0  0  0
   21.3855  -14.6048  -16.8328 N   0  0  0  0  0  0  0  0  0  0  0  0
   20.8510  -14.8031  -15.6150 C   0  0  0  0  0  0  0  0  0  0  0  0
   20.2371  -13.9315  -14.7486 C   0  0  0  0  0  0  0  0  0  0  0  0
   19.7828  -14.3999  -13.5394 C   0  0  0  0  0  0  0  0  0  0  0  0
   19.9622  -15.7511  -13.2323 C   0  0  0  0  0  0  0  0  0  0  0  0
   20.5837  -16.6077  -14.1232 C   0  0  0  0  0  0  0  0  0  0  0  0
   21.0358  -16.1513  -15.3250 C   0  0  0  0  0  0  0  0  0  0  0  0
   23.5670  -19.7278  -15.3380 C   0  0  0  0  0  0  0  0  0  0  0  0
   23.8447  -20.7061  -16.0312 O   0  0  0  0  0  0  0  0  0  0  0  0
   25.9366  -21.3755   -9.9363 N   0  0  0  0  0  0  0  0  0  0  0  0
   26.5215  -21.0571  -11.1771 C   0  0  0  0  0  0  0  0  0  0  0  0
   27.7835  -20.8541  -11.1672 O   0  0  0  0  0  0  0  0  0  0  0  0
   25.7282  -20.9579  -12.4416 C   0  0  0  0  0  0  0  0  0  0  0  0
   24.2938  -21.2820  -12.1061 C   0  0  0  0  0  0  0  0  0  0  0  0
   23.3977  -21.2228  -13.3160 C   0  0  2  0  0  0  0  0  0  0  0  0
   23.3814  -19.9187  -13.9303 N   0  0  0  0  0  0  0  0  0  0  0  0
   22.0205  -21.6542  -13.0301 C   0  0  0  0  0  0  0  0  0  0  0  0
   21.1797  -20.8085  -12.6627 O   0  0  0  0  0  0  0  0  0  0  0  0
   21.6024  -23.0200  -13.1580 N   0  0  0  0  0  0  0  0  0  0  0  0
   20.2304  -23.4254  -13.2445 C   0  0  0  0  0  0  0  0  0  0  0  0
   19.5041  -23.2941  -11.9704 C   0  0  0  0  0  0  0  0  0  0  0  0
   19.3642  -22.0267  -11.4241 O   0  0  0  0  0  0  0  0  0  0  0  0
   18.9986  -24.2562  -11.3389 O   0  0  0  0  0  0  0  0  0  0  0  0
  2  1  1  6
  3  4  1  0
  3  2  1  0
  4  5  2  0
  6  5  1  0
  7  6  1  0
  8  7  2  0
  9  8  1  0
 10 11  1  0
 10  9  2  0
 11 12  2  0
 12  7  1  0
 12  4  1  0
 13 21  1  0
 13  2  1  0
 14 13  2  0
 16 15  1  0
 17 16  2  0
 18 16  1  0
 20 19  1  1
 19 18  1  0
 20 22  1  0
 20 21  1  0
 22 23  2  0
 24 25  1  0
 24 22  1  0
 25 26  1  0
 26 28  2  0
 26 27  1  0
M  END
$$$$
