WQG.pdb
     RDKit          3D

 28 29  0  0  1  0  0  0  0  0999 V2000
   25.6686  -22.9478  -12.1727 N   0  0  0  0  0  0  0  0  0  0  0  0
   25.2112  -21.6819  -11.6611 C   0  0  1  0  0  0  0  0  0  0  0  0
   26.2602  -20.6351  -11.8957 C   0  0  0  0  0  0  0  0  0  0  0  0
   27.4004  -20.8862  -10.9742 C   0  0  0  0  0  0  0  0  0  0  0  0
   28.6647  -21.3365  -11.3950 C   0  0  0  0  0  0  0  0  0  0  0  0
   29.4572  -21.4170  -10.3187 N   0  0  0  0  0  0  0  0  0  0  0  0
   28.7888  -21.0466   -9.2123 C   0  0  0  0  0  0  0  0  0  0  0  0
   29.1879  -20.9801   -7.8995 C   0  0  0  0  0  0  0  0  0  0  0  0
   28.2861  -20.5722   -6.9465 C   0  0  0  0  0  0  0  0  0  0  0  0
   26.9900  -20.2386   -7.3476 C   0  0  0  0  0  0  0  0  0  0  0  0
   26.6139  -20.3141   -8.6767 C   0  0  0  0  0  0  0  0  0  0  0  0
   27.5028  -20.7164   -9.6282 C   0  0  0  0  0  0  0  0  0  0  0  0
   23.9306  -21.3476  -12.3437 C   0  0  0  0  0  0  0  0  0  0  0  0
   23.6091  -21.9554  -13.3645 O   0  0  0  0  0  0  0  0  0  0  0  0
   19.0871  -21.6875  -11.8488 N   0  0  0  0  0  0  0  0  0  0  0  0
   19.6767  -21.5890  -10.5738 C   0  0  0  0  0  0  0  0  0  0  0  0
   19.3422  -22.4887   -9.7297 O   0  0  0  0  0  0  0  0  0  0  0  0
   20.6393  -20.5027  -10.2114 C   0  0  0  0  0  0  0  0  0  0  0  0
   20.7573  -19.5829  -11.4011 C   0  0  0  0  0  0  0  0  0  0  0  0
   21.7483  -20.0888  -12.4171 C   0  0  2  0  0  0  0  0  0  0  0  0
   23.0504  -20.3318  -11.8479 N   0  0  0  0  0  0  0  0  0  0  0  0
   21.8743  -19.2024  -13.5845 C   0  0  0  0  0  0  0  0  0  0  0  0
   22.3152  -18.0455  -13.4280 O   0  0  0  0  0  0  0  0  0  0  0  0
   21.5074  -19.6188  -14.9068 N   0  0  0  0  0  0  0  0  0  0  0  0
   21.9700  -20.8318  -15.5141 C   0  0  0  0  0  0  0  0  0  0  0  0
   20.8786  -21.6861  -16.0110 C   0  0  0  0  0  0  0  0  0  0  0  0
   20.9899  -22.2133  -17.2891 O   0  0  0  0  0  0  0  0  0  0  0  0
   19.8462  -21.9730  -15.3537 O   0  0  0  0  0  0  0  0  0  0  0  0
  2  1  1  6
  3  4  1  0
  3  2  1  0
  4  5  2  0
  6  5  1  0
  7  6  1  0
  8  7  2  0
  9  8  1  0
 10 11  1  0
 10  9  2  0
 11 12  2  0
 12  7  1  0
 12  4  1  0
 13 21  1  0
 13  2  1  0
 14 13  2  0
 16 15  1  0
 17 16  2  0
 18 16  1  0
 20 19  1  1
 19 18  1  0
 20 22  1  0
 20 21  1  0
 22 23  2  0
 24 25  1  0
 24 22  1  0
 25 26  1  0
 26 28  2  0
 26 27  1  0
M  END
$$$$
