WQG.pdb
     RDKit          3D

 28 29  0  0  1  0  0  0  0  0999 V2000
   27.6288  -21.8471  -10.0388 N   0  0  0  0  0  0  0  0  0  0  0  0
   26.7065  -20.7956   -9.6963 C   0  0  1  0  0  0  0  0  0  0  0  0
   27.4625  -19.6212   -9.1482 C   0  0  0  0  0  0  0  0  0  0  0  0
   28.3933  -20.1027   -8.0926 C   0  0  0  0  0  0  0  0  0  0  0  0
   29.5649  -20.8355   -8.3547 C   0  0  0  0  0  0  0  0  0  0  0  0
   30.1794  -21.0689   -7.1880 N   0  0  0  0  0  0  0  0  0  0  0  0
   29.4807  -20.5332   -6.1717 C   0  0  0  0  0  0  0  0  0  0  0  0
   29.7191  -20.5296   -4.8188 C   0  0  0  0  0  0  0  0  0  0  0  0
   28.8223  -19.9081   -3.9837 C   0  0  0  0  0  0  0  0  0  0  0  0
   27.6952  -19.2997   -4.5418 C   0  0  0  0  0  0  0  0  0  0  0  0
   27.4790  -19.3177   -5.9081 C   0  0  0  0  0  0  0  0  0  0  0  0
   28.3643  -19.9308   -6.7433 C   0  0  0  0  0  0  0  0  0  0  0  0
   25.9413  -20.4399  -10.9234 C   0  0  0  0  0  0  0  0  0  0  0  0
   26.4489  -19.6957  -11.7621 O   0  0  0  0  0  0  0  0  0  0  0  0
   25.2987  -22.2140  -16.1247 N   0  0  0  0  0  0  0  0  0  0  0  0
   24.8928  -23.2032  -15.2085 C   0  0  0  0  0  0  0  0  0  0  0  0
   24.8156  -24.3943  -15.6660 O   0  0  0  0  0  0  0  0  0  0  0  0
   24.5672  -22.8964  -13.7809 C   0  0  0  0  0  0  0  0  0  0  0  0
   24.8331  -21.4284  -13.5584 C   0  0  0  0  0  0  0  0  0  0  0  0
   23.9827  -20.8558  -12.4542 C   0  0  2  0  0  0  0  0  0  0  0  0
   24.6202  -20.9392  -11.1638 N   0  0  0  0  0  0  0  0  0  0  0  0
   22.6450  -21.4645  -12.3874 C   0  0  0  0  0  0  0  0  0  0  0  0
   22.4327  -22.3840  -11.5710 O   0  0  0  0  0  0  0  0  0  0  0  0
   21.5659  -21.0393  -13.2308 N   0  0  0  0  0  0  0  0  0  0  0  0
   20.8447  -19.8153  -13.0407 C   0  0  0  0  0  0  0  0  0  0  0  0
   19.6496  -19.9703  -12.1949 C   0  0  0  0  0  0  0  0  0  0  0  0
   18.8402  -18.8615  -11.9957 O   0  0  0  0  0  0  0  0  0  0  0  0
   19.3090  -21.0440  -11.6370 O   0  0  0  0  0  0  0  0  0  0  0  0
  2  1  1  6
  3  4  1  0
  3  2  1  0
  4  5  2  0
  6  5  1  0
  7  6  1  0
  8  7  2  0
  9  8  1  0
 10 11  1  0
 10  9  2  0
 11 12  2  0
 12  7  1  0
 12  4  1  0
 13 21  1  0
 13  2  1  0
 14 13  2  0
 16 15  1  0
 17 16  2  0
 18 16  1  0
 20 19  1  6
 19 18  1  0
 20 22  1  0
 20 21  1  0
 22 23  2  0
 24 25  1  0
 24 22  1  0
 25 26  1  0
 26 28  2  0
 26 27  1  0
M  END
$$$$
