WQG.pdb
     RDKit          3D

 28 29  0  0  1  0  0  0  0  0999 V2000
   27.6785  -21.5110  -10.0415 N   0  0  0  0  0  0  0  0  0  0  0  0
   26.6935  -20.6481   -9.4426 C   0  0  1  0  0  0  0  0  0  0  0  0
   27.3742  -19.4717   -8.8070 C   0  0  0  0  0  0  0  0  0  0  0  0
   28.3598  -19.9707   -7.8111 C   0  0  0  0  0  0  0  0  0  0  0  0
   29.4991  -20.7250   -8.1449 C   0  0  0  0  0  0  0  0  0  0  0  0
   30.1805  -20.9702   -7.0186 N   0  0  0  0  0  0  0  0  0  0  0  0
   29.5564  -20.4220   -5.9612 C   0  0  0  0  0  0  0  0  0  0  0  0
   29.8786  -20.4233   -4.6258 C   0  0  0  0  0  0  0  0  0  0  0  0
   29.0471  -19.7856   -3.7369 C   0  0  0  0  0  0  0  0  0  0  0  0
   27.8989  -19.1562   -4.2243 C   0  0  0  0  0  0  0  0  0  0  0  0
   27.5979  -19.1697   -5.5745 C   0  0  0  0  0  0  0  0  0  0  0  0
   28.4180  -19.7988   -6.4627 C   0  0  0  0  0  0  0  0  0  0  0  0
   25.7419  -20.2297  -10.5090 C   0  0  0  0  0  0  0  0  0  0  0  0
   26.0814  -19.3729  -11.3248 O   0  0  0  0  0  0  0  0  0  0  0  0
   25.8919  -21.1277  -14.8147 N   0  0  0  0  0  0  0  0  0  0  0  0
   25.3879  -22.2521  -14.1330 C   0  0  0  0  0  0  0  0  0  0  0  0
   25.9490  -23.3689  -14.4008 O   0  0  0  0  0  0  0  0  0  0  0  0
   24.2633  -22.1632  -13.1505 C   0  0  0  0  0  0  0  0  0  0  0  0
   23.8939  -20.7074  -13.0114 C   0  0  0  0  0  0  0  0  0  0  0  0
   23.4767  -20.3565  -11.6067 C   0  0  2  0  0  0  0  0  0  0  0  0
   24.4306  -20.7960  -10.6191 N   0  0  0  0  0  0  0  0  0  0  0  0
   22.1383  -20.8621  -11.2638 C   0  0  0  0  0  0  0  0  0  0  0  0
   22.0072  -21.6305  -10.2893 O   0  0  0  0  0  0  0  0  0  0  0  0
   20.9683  -20.5038  -12.0115 N   0  0  0  0  0  0  0  0  0  0  0  0
   20.3664  -19.2038  -11.9691 C   0  0  0  0  0  0  0  0  0  0  0  0
   19.1328  -19.1081  -12.7673 C   0  0  0  0  0  0  0  0  0  0  0  0
   18.7546  -20.2085  -13.5224 O   0  0  0  0  0  0  0  0  0  0  0  0
   18.3935  -18.0925  -12.8126 O   0  0  0  0  0  0  0  0  0  0  0  0
  2  1  1  6
  3  4  1  0
  3  2  1  0
  4  5  2  0
  6  5  1  0
  7  6  1  0
  8  7  2  0
  9  8  1  0
 10 11  1  0
 10  9  2  0
 11 12  2  0
 12  7  1  0
 12  4  1  0
 13 21  1  0
 13  2  1  0
 14 13  2  0
 16 15  1  0
 17 16  2  0
 18 16  1  0
 20 19  1  6
 19 18  1  0
 20 22  1  0
 20 21  1  0
 22 23  2  0
 24 25  1  0
 24 22  1  0
 25 26  1  0
 26 28  2  0
 26 27  1  0
M  END
$$$$
