WQG.pdb
     RDKit          3D

 28 29  0  0  1  0  0  0  0  0999 V2000
   24.5005  -20.1047   -9.4410 N   0  0  0  0  0  0  0  0  0  0  0  0
   25.8528  -20.3027   -9.8943 C   0  0  1  0  0  0  0  0  0  0  0  0
   26.5268  -21.3313   -9.0345 C   0  0  0  0  0  0  0  0  0  0  0  0
   26.7319  -20.7590   -7.6770 C   0  0  0  0  0  0  0  0  0  0  0  0
   25.6840  -20.3730   -6.8219 C   0  0  0  0  0  0  0  0  0  0  0  0
   26.2214  -19.9406   -5.6741 N   0  0  0  0  0  0  0  0  0  0  0  0
   27.5629  -20.0184   -5.7229 C   0  0  0  0  0  0  0  0  0  0  0  0
   28.5183  -19.6826   -4.7947 C   0  0  0  0  0  0  0  0  0  0  0  0
   29.8449  -19.8543   -5.1088 C   0  0  0  0  0  0  0  0  0  0  0  0
   30.1767  -20.3658   -6.3659 C   0  0  0  0  0  0  0  0  0  0  0  0
   29.1945  -20.6963   -7.2823 C   0  0  0  0  0  0  0  0  0  0  0  0
   27.8766  -20.5303   -6.9780 C   0  0  0  0  0  0  0  0  0  0  0  0
   25.8006  -20.7207  -11.3227 C   0  0  0  0  0  0  0  0  0  0  0  0
   25.0768  -21.6589  -11.6555 O   0  0  0  0  0  0  0  0  0  0  0  0
   22.6317  -20.6444  -13.7366 N   0  0  0  0  0  0  0  0  0  0  0  0
   23.3989  -19.7479  -14.5050 C   0  0  0  0  0  0  0  0  0  0  0  0
   23.1994  -19.7775  -15.7673 O   0  0  0  0  0  0  0  0  0  0  0  0
   24.3930  -18.8097  -13.8970 C   0  0  0  0  0  0  0  0  0  0  0  0
   25.7491  -19.1555  -14.4598 C   0  0  0  0  0  0  0  0  0  0  0  0
   26.3861  -20.3161  -13.7405 C   0  0  2  0  0  0  0  0  0  0  0  0
   26.5724  -20.0615  -12.3337 N   0  0  0  0  0  0  0  0  0  0  0  0
   27.6622  -20.7323  -14.3430 C   0  0  0  0  0  0  0  0  0  0  0  0
   28.5284  -19.8701  -14.5948 O   0  0  0  0  0  0  0  0  0  0  0  0
   27.9525  -22.1016  -14.6549 N   0  0  0  0  0  0  0  0  0  0  0  0
   29.1968  -22.5417  -15.2137 C   0  0  0  0  0  0  0  0  0  0  0  0
   29.3543  -22.1863  -16.6338 C   0  0  0  0  0  0  0  0  0  0  0  0
   30.5404  -22.5282  -17.2667 O   0  0  0  0  0  0  0  0  0  0  0  0
   28.4836  -21.5909  -17.3174 O   0  0  0  0  0  0  0  0  0  0  0  0
  2  1  1  1
  3  4  1  0
  3  2  1  0
  4  5  2  0
  6  5  1  0
  7  6  1  0
  8  7  2  0
  9  8  1  0
 10 11  1  0
 10  9  2  0
 11 12  2  0
 12  7  1  0
 12  4  1  0
 13 21  1  0
 13  2  1  0
 14 13  2  0
 16 15  1  0
 17 16  2  0
 18 16  1  0
 20 19  1  6
 19 18  1  0
 20 22  1  0
 20 21  1  0
 22 23  2  0
 24 25  1  0
 24 22  1  0
 25 26  1  0
 26 28  2  0
 26 27  1  0
M  END
$$$$
