WQG.pdb
     RDKit          3D

 28 29  0  0  1  0  0  0  0  0999 V2000
   27.4464  -19.7420  -17.0262 N   0  0  0  0  0  0  0  0  0  0  0  0
   27.2129  -19.0891  -15.7643 C   0  0  1  0  0  0  0  0  0  0  0  0
   25.7907  -18.6155  -15.6978 C   0  0  0  0  0  0  0  0  0  0  0  0
   25.7823  -17.1282  -15.6912 C   0  0  0  0  0  0  0  0  0  0  0  0
   26.4822  -16.3438  -14.7567 C   0  0  0  0  0  0  0  0  0  0  0  0
   26.2872  -15.0556  -15.0655 N   0  0  0  0  0  0  0  0  0  0  0  0
   25.4987  -14.9447  -16.1491 C   0  0  0  0  0  0  0  0  0  0  0  0
   25.0307  -13.8363  -16.8120 C   0  0  0  0  0  0  0  0  0  0  0  0
   24.2158  -14.0058  -17.9054 C   0  0  0  0  0  0  0  0  0  0  0  0
   23.8905  -15.3043  -18.3056 C   0  0  0  0  0  0  0  0  0  0  0  0
   24.3757  -16.4036  -17.6201 C   0  0  0  0  0  0  0  0  0  0  0  0
   25.1854  -16.2440  -16.5357 C   0  0  0  0  0  0  0  0  0  0  0  0
   27.5257  -20.0615  -14.6805 C   0  0  0  0  0  0  0  0  0  0  0  0
   27.1323  -21.2239  -14.7746 O   0  0  0  0  0  0  0  0  0  0  0  0
   32.1451  -22.2121  -10.5780 N   0  0  0  0  0  0  0  0  0  0  0  0
   30.7627  -22.2431  -10.8443 C   0  0  0  0  0  0  0  0  0  0  0  0
   30.3399  -23.2557  -11.5000 O   0  0  0  0  0  0  0  0  0  0  0  0
   29.8296  -21.1637  -10.3944 C   0  0  0  0  0  0  0  0  0  0  0  0
   29.6417  -20.2130  -11.5502 C   0  0  0  0  0  0  0  0  0  0  0  0
   28.4347  -20.5592  -12.3831 C   0  0  2  0  0  0  0  0  0  0  0  0
   28.2767  -19.6864  -13.5196 N   0  0  0  0  0  0  0  0  0  0  0  0
   27.1886  -20.5870  -11.6014 C   0  0  0  0  0  0  0  0  0  0  0  0
   26.6130  -19.5132  -11.3318 O   0  0  0  0  0  0  0  0  0  0  0  0
   26.6042  -21.8099  -11.1330 N   0  0  0  0  0  0  0  0  0  0  0  0
   25.3951  -21.8690  -10.3655 C   0  0  0  0  0  0  0  0  0  0  0  0
   25.5010  -21.1937   -9.0614 C   0  0  0  0  0  0  0  0  0  0  0  0
   24.3896  -21.1949   -8.2313 O   0  0  0  0  0  0  0  0  0  0  0  0
   26.5347  -20.6124   -8.6447 O   0  0  0  0  0  0  0  0  0  0  0  0
  2  1  1  6
  3  4  1  0
  3  2  1  0
  4  5  2  0
  6  5  1  0
  7  6  1  0
  8  7  2  0
  9  8  1  0
 10 11  1  0
 10  9  2  0
 11 12  2  0
 12  7  1  0
 12  4  1  0
 13 21  1  0
 13  2  1  0
 14 13  2  0
 16 15  1  0
 17 16  2  0
 18 16  1  0
 20 19  1  1
 19 18  1  0
 20 22  1  0
 20 21  1  0
 22 23  2  0
 24 25  1  0
 24 22  1  0
 25 26  1  0
 26 28  2  0
 26 27  1  0
M  END
$$$$
