WQG.pdb
     RDKit          3D

 28 29  0  0  1  0  0  0  0  0999 V2000
   26.6883  -22.6127  -12.3564 N   0  0  0  0  0  0  0  0  0  0  0  0
   25.9474  -21.6203  -11.6218 C   0  0  1  0  0  0  0  0  0  0  0  0
   26.7491  -20.3550  -11.5352 C   0  0  0  0  0  0  0  0  0  0  0  0
   27.8221  -20.5378  -10.5215 C   0  0  0  0  0  0  0  0  0  0  0  0
   29.1740  -20.7583  -10.8412 C   0  0  0  0  0  0  0  0  0  0  0  0
   29.8645  -20.8383   -9.6967 N   0  0  0  0  0  0  0  0  0  0  0  0
   29.0464  -20.6841   -8.6408 C   0  0  0  0  0  0  0  0  0  0  0  0
   29.3053  -20.6998   -7.2917 C   0  0  0  0  0  0  0  0  0  0  0  0
   28.2663  -20.5255   -6.4096 C   0  0  0  0  0  0  0  0  0  0  0  0
   26.9783  -20.3382   -6.9176 C   0  0  0  0  0  0  0  0  0  0  0  0
   26.7451  -20.3264   -8.2811 C   0  0  0  0  0  0  0  0  0  0  0  0
   27.7702  -20.4972   -9.1626 C   0  0  0  0  0  0  0  0  0  0  0  0
   24.6490  -21.4084  -12.3198 C   0  0  0  0  0  0  0  0  0  0  0  0
   24.6211  -21.3556  -13.5492 O   0  0  0  0  0  0  0  0  0  0  0  0
   19.0241  -22.8212   -9.8684 N   0  0  0  0  0  0  0  0  0  0  0  0
   18.6836  -22.3415  -11.1479 C   0  0  0  0  0  0  0  0  0  0  0  0
   17.4468  -22.4124  -11.4631 O   0  0  0  0  0  0  0  0  0  0  0  0
   19.6960  -21.7791  -12.0948 C   0  0  0  0  0  0  0  0  0  0  0  0
   21.0286  -21.7763  -11.3881 C   0  0  0  0  0  0  0  0  0  0  0  0
   22.1350  -21.2401  -12.2592 C   0  0  2  0  0  0  0  0  0  0  0  0
   23.4179  -21.2621  -11.6018 N   0  0  0  0  0  0  0  0  0  0  0  0
   21.8598  -19.8865  -12.7658 C   0  0  0  0  0  0  0  0  0  0  0  0
   21.8460  -18.9271  -11.9679 O   0  0  0  0  0  0  0  0  0  0  0  0
   21.6047  -19.6237  -14.1522 N   0  0  0  0  0  0  0  0  0  0  0  0
   21.3440  -18.3158  -14.6773 C   0  0  0  0  0  0  0  0  0  0  0  0
   19.9093  -17.9912  -14.7431 C   0  0  0  0  0  0  0  0  0  0  0  0
   19.5136  -16.9332  -15.5482 O   0  0  0  0  0  0  0  0  0  0  0  0
   19.0121  -18.6098  -14.1166 O   0  0  0  0  0  0  0  0  0  0  0  0
  2  1  1  6
  3  4  1  0
  3  2  1  0
  4  5  2  0
  6  5  1  0
  7  6  1  0
  8  7  2  0
  9  8  1  0
 10 11  1  0
 10  9  2  0
 11 12  2  0
 12  7  1  0
 12  4  1  0
 13 21  1  0
 13  2  1  0
 14 13  2  0
 16 15  1  0
 17 16  2  0
 18 16  1  0
 20 19  1  1
 19 18  1  0
 20 22  1  0
 20 21  1  0
 22 23  2  0
 24 25  1  0
 24 22  1  0
 25 26  1  0
 26 28  2  0
 26 27  1  0
M  END
$$$$
