LRC.pdb
     RDKit          3D

 26 25  0  0  1  0  0  0  0  0999 V2000
    5.5200  -11.2180   25.9055 C   0  0  0  0  0  0  0  0  0  0  0  0
    6.3520  -12.3778   26.3962 C   0  0  1  0  0  0  0  0  0  0  0  0
    7.0402  -12.0870   27.6941 C   0  0  0  0  0  0  0  0  0  0  0  0
    5.4527  -13.6179   26.5151 C   0  0  0  0  0  0  0  0  0  0  0  0
    6.3988  -14.7846   26.7075 C   0  0  2  0  0  0  0  0  0  0  0  0
    7.6018  -14.2223   27.3145 N   0  0  0  0  0  0  0  0  0  0  0  0
    6.7770  -15.4330   25.4504 C   0  0  0  0  0  0  0  0  0  0  0  0
    6.0721  -16.3701   25.0094 O   0  0  0  0  0  0  0  0  0  0  0  0
    8.8261  -13.8437   16.9107 N   0  0  0  0  0  0  0  0  0  0  0  0
    8.5806  -13.3624   18.2499 C   0  0  0  0  0  0  0  0  0  0  0  0
    8.7813  -12.1329   18.4886 N   0  0  0  0  0  0  0  0  0  0  0  0
    8.1278  -14.2466   19.2671 N   0  0  0  0  0  0  0  0  0  0  0  0
    9.0283  -15.0818   20.0055 C   0  0  0  0  0  0  0  0  0  0  0  0
    8.3354  -15.9098   21.0537 C   0  0  0  0  0  0  0  0  0  0  0  0
    8.1763  -15.0996   22.3036 C   0  0  0  0  0  0  0  0  0  0  0  0
    8.3695  -15.8498   23.5805 C   0  0  2  0  0  0  0  0  0  0  0  0
    7.9144  -15.0303   24.7223 N   0  0  0  0  0  0  0  0  0  0  0  0
    9.7627  -16.2857   23.8309 C   0  0  0  0  0  0  0  0  0  0  0  0
   10.4432  -16.7826   22.9098 O   0  0  0  0  0  0  0  0  0  0  0  0
    8.7013  -11.7685   19.4568 N   0  0  0  0  0  0  0  0  0  0  0  0
   10.3694  -16.1511   25.1289 C   0  0  1  0  0  0  0  0  0  0  0  0
   11.6975  -16.6626   25.3148 C   0  0  0  0  0  0  0  0  0  0  0  0
   12.0271  -16.5026   26.7867 S   0  0  0  0  0  0  0  0  0  0  0  0
   11.3662  -14.9219   27.3570 C   0  0  0  0  0  0  0  0  0  0  0  0
   11.8396  -18.0600   24.8472 O   0  0  0  0  0  0  0  0  0  0  0  0
   10.9555  -18.9364   25.0646 O   0  0  0  0  0  0  0  0  0  0  0  0
  2  4  1  0
  2  1  1  1
  3  2  1  0
  4  5  1  0
  5  6  1  6
  7  8  2  0
  7  5  1  0
  9 10  1  0
 10 12  1  0
 11 10  2  0
 12 13  1  0
 13 14  1  0
 14 15  1  0
 16 15  1  6
 16 17  1  0
 17  7  1  0
 18 16  1  0
 19 18  2  0
 20 18  1  0
 21 20  1  0
 21 22  1  6
 23 22  1  0
 24 21  1  0
 24 26  1  0
 25 24  2  0
M  END
$$$$
