LRC.pdb
     RDKit          3D

 26 25  0  0  1  0  0  0  0  0999 V2000
    6.9973  -11.6613   27.5301 C   0  0  0  0  0  0  0  0  0  0  0  0
    6.3509  -12.5978   26.5385 C   0  0  1  0  0  0  0  0  0  0  0  0
    5.9021  -11.8996   25.2920 C   0  0  0  0  0  0  0  0  0  0  0  0
    7.3362  -13.7304   26.2112 C   0  0  0  0  0  0  0  0  0  0  0  0
    6.5727  -14.6818   25.3139 C   0  0  2  0  0  0  0  0  0  0  0  0
    5.5473  -15.2860   26.1596 N   0  0  0  0  0  0  0  0  0  0  0  0
    7.4079  -15.7524   24.7663 C   0  0  0  0  0  0  0  0  0  0  0  0
    7.6582  -16.7555   25.4739 O   0  0  0  0  0  0  0  0  0  0  0  0
    7.7106  -13.4980   18.2095 N   0  0  0  0  0  0  0  0  0  0  0  0
    8.9994  -13.1616   18.7671 C   0  0  0  0  0  0  0  0  0  0  0  0
    9.2205  -11.9503   19.0715 N   0  0  0  0  0  0  0  0  0  0  0  0
    9.9879  -14.1640   18.9659 N   0  0  0  0  0  0  0  0  0  0  0  0
    9.6729  -15.4414   19.5342 C   0  0  0  0  0  0  0  0  0  0  0  0
    9.0826  -15.3405   20.9147 C   0  0  0  0  0  0  0  0  0  0  0  0
    8.9319  -16.7139   21.4934 C   0  0  0  0  0  0  0  0  0  0  0  0
    8.8158  -16.7713   22.9813 C   0  0  2  0  0  0  0  0  0  0  0  0
    7.9385  -15.6845   23.4624 N   0  0  0  0  0  0  0  0  0  0  0  0
   10.1084  -16.6953   23.7006 C   0  0  0  0  0  0  0  0  0  0  0  0
   10.6931  -15.6003   23.8325 O   0  0  0  0  0  0  0  0  0  0  0  0
   10.1597  -11.6572   19.4012 N   0  0  0  0  0  0  0  0  0  0  0  0
   10.7237  -17.8677   24.2643 C   0  0  1  0  0  0  0  0  0  0  0  0
   11.9908  -17.7206   24.9223 C   0  0  0  0  0  0  0  0  0  0  0  0
   11.9173  -18.5317   26.2019 S   0  0  0  0  0  0  0  0  0  0  0  0
   10.5625  -17.8945   27.2114 C   0  0  0  0  0  0  0  0  0  0  0  0
   13.1282  -18.1158   24.0612 O   0  0  0  0  0  0  0  0  0  0  0  0
   12.9704  -18.4786   22.8610 O   0  0  0  0  0  0  0  0  0  0  0  0
  2  4  1  0
  2  1  1  1
  3  2  1  0
  4  5  1  0
  5  6  1  1
  7  8  2  0
  7  5  1  0
  9 10  1  0
 10 12  1  0
 11 10  2  0
 12 13  1  0
 13 14  1  0
 14 15  1  0
 16 15  1  6
 16 17  1  0
 17  7  1  0
 18 16  1  0
 19 18  2  0
 20 18  1  0
 21 20  1  0
 21 22  1  1
 23 22  1  0
 24 21  1  0
 24 26  1  0
 25 24  2  0
M  END
$$$$
