LRC.pdb
     RDKit          3D

 26 25  0  0  1  0  0  0  0  0999 V2000
    6.7192  -13.0898   18.6250 C   0  0  0  0  0  0  0  0  0  0  0  0
    8.0720  -13.4573   19.1846 C   0  0  1  0  0  0  0  0  0  0  0  0
    8.9306  -12.2603   19.4539 C   0  0  0  0  0  0  0  0  0  0  0  0
    7.8713  -14.2897   20.4604 C   0  0  0  0  0  0  0  0  0  0  0  0
    9.2402  -14.3808   21.1015 C   0  0  2  0  0  0  0  0  0  0  0  0
   10.1055  -14.9977   20.1001 N   0  0  0  0  0  0  0  0  0  0  0  0
    9.2587  -15.2161   22.3038 C   0  0  0  0  0  0  0  0  0  0  0  0
    8.3191  -15.1235   23.1274 O   0  0  0  0  0  0  0  0  0  0  0  0
   11.5854  -19.5775   19.4299 N   0  0  0  0  0  0  0  0  0  0  0  0
   11.0211  -20.8358   19.8583 C   0  0  0  0  0  0  0  0  0  0  0  0
   10.5844  -21.6279   18.9690 N   0  0  0  0  0  0  0  0  0  0  0  0
   10.9591  -21.1707   21.2387 N   0  0  0  0  0  0  0  0  0  0  0  0
   11.4084  -20.2721   22.2607 C   0  0  0  0  0  0  0  0  0  0  0  0
   10.5387  -19.0513   22.3931 C   0  0  0  0  0  0  0  0  0  0  0  0
   11.0063  -18.2305   23.5557 C   0  0  0  0  0  0  0  0  0  0  0  0
   10.2609  -16.9556   23.7790 C   0  0  2  0  0  0  0  0  0  0  0  0
   10.3068  -16.1228   22.5597 N   0  0  0  0  0  0  0  0  0  0  0  0
   10.7484  -16.1527   24.9242 C   0  0  0  0  0  0  0  0  0  0  0  0
   11.3293  -15.0650   24.7299 O   0  0  0  0  0  0  0  0  0  0  0  0
   10.1843  -22.5467   19.2383 N   0  0  0  0  0  0  0  0  0  0  0  0
   10.5692  -16.5956   26.2817 C   0  0  2  0  0  0  0  0  0  0  0  0
   10.5025  -15.6038   27.3171 C   0  0  0  0  0  0  0  0  0  0  0  0
    9.3006  -14.7306   27.0111 S   0  0  0  0  0  0  0  0  0  0  0  0
    9.2027  -13.4274   28.2571 C   0  0  0  0  0  0  0  0  0  0  0  0
   10.4456  -16.1983   28.6715 O   0  0  0  0  0  0  0  0  0  0  0  0
    9.9137  -17.3234   28.8917 O   0  0  0  0  0  0  0  0  0  0  0  0
  2  4  1  0
  2  1  1  1
  3  2  1  0
  4  5  1  0
  5  6  1  6
  7  8  2  0
  7  5  1  0
  9 10  1  0
 10 12  1  0
 11 10  2  0
 12 13  1  0
 13 14  1  0
 14 15  1  0
 16 15  1  6
 16 17  1  0
 17  7  1  0
 18 16  1  0
 19 18  2  0
 20 18  1  0
 21 20  1  0
 21 22  1  6
 23 22  1  0
 24 21  1  0
 24 26  1  0
 25 24  2  0
M  END
$$$$
