LRC.pdb
     RDKit          3D

 26 25  0  0  1  0  0  0  0  0999 V2000
    6.9753  -11.8469   27.5395 C   0  0  0  0  0  0  0  0  0  0  0  0
    6.2873  -12.8299   26.6238 C   0  0  1  0  0  0  0  0  0  0  0  0
    5.6603  -12.1705   25.4343 C   0  0  0  0  0  0  0  0  0  0  0  0
    7.3031  -13.8979   26.1899 C   0  0  0  0  0  0  0  0  0  0  0  0
    6.5333  -14.8460   25.2945 C   0  0  2  0  0  0  0  0  0  0  0  0
    5.8860  -15.7992   26.1914 N   0  0  0  0  0  0  0  0  0  0  0  0
    7.3915  -15.5914   24.3716 C   0  0  0  0  0  0  0  0  0  0  0  0
    7.8483  -16.7034   24.7243 O   0  0  0  0  0  0  0  0  0  0  0  0
    8.8604  -13.6155   16.1625 N   0  0  0  0  0  0  0  0  0  0  0  0
    7.9400  -13.7027   17.2718 C   0  0  0  0  0  0  0  0  0  0  0  0
    6.7958  -13.1709   17.1415 N   0  0  0  0  0  0  0  0  0  0  0  0
    8.3122  -14.3661   18.4730 N   0  0  0  0  0  0  0  0  0  0  0  0
    9.3431  -15.3612   18.5048 C   0  0  0  0  0  0  0  0  0  0  0  0
    9.5027  -15.9984   19.8585 C   0  0  0  0  0  0  0  0  0  0  0  0
    8.6421  -15.2797   20.8519 C   0  0  0  0  0  0  0  0  0  0  0  0
    8.6291  -15.8632   22.2266 C   0  0  2  0  0  0  0  0  0  0  0  0
    7.7176  -15.0905   23.0953 N   0  0  0  0  0  0  0  0  0  0  0  0
    9.9590  -15.9359   22.8746 C   0  0  0  0  0  0  0  0  0  0  0  0
   10.5591  -14.8911   23.2014 O   0  0  0  0  0  0  0  0  0  0  0  0
    6.0764  -13.2912   17.8795 N   0  0  0  0  0  0  0  0  0  0  0  0
   10.5938  -17.1986   23.1457 C   0  0  1  0  0  0  0  0  0  0  0  0
   11.8978  -17.1889   23.7453 C   0  0  0  0  0  0  0  0  0  0  0  0
   11.7862  -17.9544   25.0500 S   0  0  0  0  0  0  0  0  0  0  0  0
   10.6243  -17.0897   26.1283 C   0  0  0  0  0  0  0  0  0  0  0  0
   12.9401  -17.7383   22.8491 O   0  0  0  0  0  0  0  0  0  0  0  0
   12.6682  -18.2080   21.7079 O   0  0  0  0  0  0  0  0  0  0  0  0
  2  4  1  0
  2  1  1  1
  3  2  1  0
  4  5  1  0
  5  6  1  1
  7  8  2  0
  7  5  1  0
  9 10  1  0
 10 12  1  0
 11 10  2  0
 12 13  1  0
 13 14  1  0
 14 15  1  0
 16 15  1  6
 16 17  1  0
 17  7  1  0
 18 16  1  0
 19 18  2  0
 20 18  1  0
 21 20  1  0
 21 22  1  6
 23 22  1  0
 24 21  1  0
 24 26  1  0
 25 24  2  0
M  END
$$$$
