LRC.pdb
     RDKit          3D

 26 25  0  0  1  0  0  0  0  0999 V2000
    7.1548  -12.2396   28.2531 C   0  0  0  0  0  0  0  0  0  0  0  0
    6.3755  -12.9110   27.1486 C   0  0  1  0  0  0  0  0  0  0  0  0
    5.7483  -11.9311   26.2056 C   0  0  0  0  0  0  0  0  0  0  0  0
    7.3076  -13.8765   26.4003 C   0  0  0  0  0  0  0  0  0  0  0  0
    6.4429  -14.5357   25.3464 C   0  0  2  0  0  0  0  0  0  0  0  0
    5.6791  -15.5636   26.0478 N   0  0  0  0  0  0  0  0  0  0  0  0
    7.2188  -15.1815   24.2860 C   0  0  0  0  0  0  0  0  0  0  0  0
    7.5075  -16.3960   24.3924 O   0  0  0  0  0  0  0  0  0  0  0  0
    7.5351  -13.1851   16.3110 N   0  0  0  0  0  0  0  0  0  0  0  0
    8.0277  -14.5259   16.5228 C   0  0  0  0  0  0  0  0  0  0  0  0
    7.4409  -15.4789   15.9258 N   0  0  0  0  0  0  0  0  0  0  0  0
    9.1383  -14.7642   17.3780 N   0  0  0  0  0  0  0  0  0  0  0  0
    9.3366  -14.0274   18.5911 C   0  0  0  0  0  0  0  0  0  0  0  0
    9.4223  -14.9099   19.8068 C   0  0  0  0  0  0  0  0  0  0  0  0
    8.5820  -14.3303   20.9032 C   0  0  0  0  0  0  0  0  0  0  0  0
    8.4885  -15.1583   22.1426 C   0  0  2  0  0  0  0  0  0  0  0  0
    7.6502  -14.4723   23.1471 N   0  0  0  0  0  0  0  0  0  0  0  0
    9.7941  -15.4915   22.7576 C   0  0  0  0  0  0  0  0  0  0  0  0
   10.6210  -14.5906   23.0089 O   0  0  0  0  0  0  0  0  0  0  0  0
    7.7669  -16.4556   16.0538 N   0  0  0  0  0  0  0  0  0  0  0  0
   10.1465  -16.8485   23.0819 C   0  0  2  0  0  0  0  0  0  0  0  0
   11.4799  -17.1130   23.5426 C   0  0  0  0  0  0  0  0  0  0  0  0
   11.3635  -18.1302   24.6617 S   0  0  0  0  0  0  0  0  0  0  0  0
   10.4134  -17.3971   26.0109 C   0  0  0  0  0  0  0  0  0  0  0  0
   12.3790  -17.5614   22.4555 O   0  0  0  0  0  0  0  0  0  0  0  0
   11.9659  -17.7580   21.2775 O   0  0  0  0  0  0  0  0  0  0  0  0
  2  4  1  0
  2  1  1  1
  3  2  1  0
  4  5  1  0
  5  6  1  1
  7  8  2  0
  7  5  1  0
  9 10  1  0
 10 12  1  0
 11 10  2  0
 12 13  1  0
 13 14  1  0
 14 15  1  0
 16 15  1  6
 16 17  1  0
 17  7  1  0
 18 16  1  0
 19 18  2  0
 20 18  1  0
 21 20  1  0
 21 22  1  1
 23 22  1  0
 24 21  1  0
 24 26  1  0
 25 24  2  0
M  END
$$$$
