LRC.pdb
     RDKit          3D

 26 25  0  0  1  0  0  0  0  0999 V2000
    7.0790  -12.1781   27.7057 C   0  0  0  0  0  0  0  0  0  0  0  0
    6.2925  -13.2779   27.0349 C   0  0  1  0  0  0  0  0  0  0  0  0
    5.3894  -12.7667   25.9553 C   0  0  0  0  0  0  0  0  0  0  0  0
    7.2739  -14.3235   26.4831 C   0  0  0  0  0  0  0  0  0  0  0  0
    6.4619  -15.1739   25.5288 C   0  0  2  0  0  0  0  0  0  0  0  0
    6.1850  -16.4164   26.2439 N   0  0  0  0  0  0  0  0  0  0  0  0
    7.1804  -15.5022   24.2960 C   0  0  0  0  0  0  0  0  0  0  0  0
    7.8275  -16.5731   24.2320 O   0  0  0  0  0  0  0  0  0  0  0  0
    9.6279  -14.9800   16.9356 N   0  0  0  0  0  0  0  0  0  0  0  0
    8.3232  -14.4566   16.6054 C   0  0  0  0  0  0  0  0  0  0  0  0
    7.7971  -14.8133   15.5077 N   0  0  0  0  0  0  0  0  0  0  0  0
    7.6534  -13.5668   17.4893 N   0  0  0  0  0  0  0  0  0  0  0  0
    8.2673  -13.0813   18.6898 C   0  0  0  0  0  0  0  0  0  0  0  0
    8.5772  -14.1756   19.6750 C   0  0  0  0  0  0  0  0  0  0  0  0
    7.7852  -13.9569   20.9276 C   0  0  0  0  0  0  0  0  0  0  0  0
    7.9973  -14.9712   22.0031 C   0  0  2  0  0  0  0  0  0  0  0  0
    7.1633  -14.6445   23.1779 N   0  0  0  0  0  0  0  0  0  0  0  0
    9.4047  -15.1147   22.4419 C   0  0  0  0  0  0  0  0  0  0  0  0
    9.8217  -14.4882   23.4379 O   0  0  0  0  0  0  0  0  0  0  0  0
    6.8141  -14.5600   15.2925 N   0  0  0  0  0  0  0  0  0  0  0  0
   10.3253  -15.9715   21.7423 C   0  0  1  0  0  0  0  0  0  0  0  0
   11.5447  -16.3420   22.4025 C   0  0  0  0  0  0  0  0  0  0  0  0
   11.1567  -17.2030   23.5895 S   0  0  0  0  0  0  0  0  0  0  0  0
   11.6631  -16.3596   25.1036 C   0  0  0  0  0  0  0  0  0  0  0  0
   12.4999  -17.0178   21.4958 O   0  0  0  0  0  0  0  0  0  0  0  0
   12.1405  -17.5258   20.3959 O   0  0  0  0  0  0  0  0  0  0  0  0
  2  4  1  0
  2  1  1  6
  3  2  1  0
  4  5  1  0
  5  6  1  1
  7  8  2  0
  7  5  1  0
  9 10  1  0
 10 12  1  0
 11 10  2  0
 12 13  1  0
 13 14  1  0
 14 15  1  0
 16 15  1  6
 16 17  1  0
 17  7  1  0
 18 16  1  0
 19 18  2  0
 20 18  1  0
 21 20  1  0
 21 22  1  6
 23 22  1  0
 24 21  1  0
 24 26  1  0
 25 24  2  0
M  END
$$$$
