LRC.pdb
     RDKit          3D

 26 25  0  0  1  0  0  0  0  0999 V2000
    7.2423  -12.4139   18.2893 C   0  0  0  0  0  0  0  0  0  0  0  0
    8.1523  -13.3210   19.0813 C   0  0  1  0  0  0  0  0  0  0  0  0
    9.4509  -12.6670   19.4398 C   0  0  0  0  0  0  0  0  0  0  0  0
    7.4079  -13.7943   20.3393 C   0  0  0  0  0  0  0  0  0  0  0  0
    8.4541  -14.4809   21.1921 C   0  0  2  0  0  0  0  0  0  0  0  0
    8.8378  -15.6822   20.4563 N   0  0  0  0  0  0  0  0  0  0  0  0
    7.9510  -14.8863   22.5059 C   0  0  0  0  0  0  0  0  0  0  0  0
    7.5078  -14.0129   23.2872 O   0  0  0  0  0  0  0  0  0  0  0  0
    8.7506  -20.4457   27.4678 N   0  0  0  0  0  0  0  0  0  0  0  0
    7.4027  -20.8020   27.8439 C   0  0  0  0  0  0  0  0  0  0  0  0
    7.2154  -21.2952   28.9974 N   0  0  0  0  0  0  0  0  0  0  0  0
    6.3214  -20.6040   26.9421 N   0  0  0  0  0  0  0  0  0  0  0  0
    6.5043  -19.9993   25.6558 C   0  0  0  0  0  0  0  0  0  0  0  0
    6.9472  -18.5637   25.7394 C   0  0  0  0  0  0  0  0  0  0  0  0
    7.1439  -18.0219   24.3567 C   0  0  0  0  0  0  0  0  0  0  0  0
    7.5082  -16.5754   24.2829 C   0  0  2  0  0  0  0  0  0  0  0  0
    7.9518  -16.2348   22.9156 N   0  0  0  0  0  0  0  0  0  0  0  0
    8.5557  -16.1570   25.2428 C   0  0  0  0  0  0  0  0  0  0  0  0
    9.7249  -16.5779   25.1234 O   0  0  0  0  0  0  0  0  0  0  0  0
    6.2772  -21.6444   29.2705 N   0  0  0  0  0  0  0  0  0  0  0  0
    8.2624  -15.2618   26.3307 C   0  0  2  0  0  0  0  0  0  0  0  0
    9.3203  -14.9306   27.2425 C   0  0  0  0  0  0  0  0  0  0  0  0
    8.8678  -13.7046   28.0126 S   0  0  0  0  0  0  0  0  0  0  0  0
    8.3167  -12.4537   26.8328 C   0  0  0  0  0  0  0  0  0  0  0  0
    9.6814  -16.0598   28.1291 O   0  0  0  0  0  0  0  0  0  0  0  0
    9.0357  -17.1460   28.1337 O   0  0  0  0  0  0  0  0  0  0  0  0
  2  4  1  0
  2  1  1  1
  3  2  1  0
  4  5  1  0
  5  6  1  6
  7  8  2  0
  7  5  1  0
  9 10  1  0
 10 12  1  0
 11 10  2  0
 12 13  1  0
 13 14  1  0
 14 15  1  0
 16 15  1  6
 16 17  1  0
 17  7  1  0
 18 16  1  0
 19 18  2  0
 20 18  1  0
 21 20  1  0
 21 22  1  6
 23 22  1  0
 24 21  1  0
 24 26  1  0
 25 24  2  0
M  END
$$$$
