LRC.pdb
     RDKit          3D

 26 25  0  0  1  0  0  0  0  0999 V2000
    6.7535  -13.7435   17.2813 C   0  0  0  0  0  0  0  0  0  0  0  0
    7.9693  -13.8654   18.1673 C   0  0  1  0  0  0  0  0  0  0  0  0
    8.5963  -12.5404   18.4737 C   0  0  0  0  0  0  0  0  0  0  0  0
    7.5709  -14.5980   19.4578 C   0  0  0  0  0  0  0  0  0  0  0  0
    8.7728  -14.4858   20.3722 C   0  0  2  0  0  0  0  0  0  0  0  0
    9.7975  -15.3446   19.7856 N   0  0  0  0  0  0  0  0  0  0  0  0
    8.5057  -14.9517   21.7344 C   0  0  0  0  0  0  0  0  0  0  0  0
    7.4522  -14.5910   22.3085 O   0  0  0  0  0  0  0  0  0  0  0  0
   12.7513  -21.2703   25.5049 N   0  0  0  0  0  0  0  0  0  0  0  0
   11.4036  -21.1258   25.0069 C   0  0  0  0  0  0  0  0  0  0  0  0
   11.0502  -21.8450   24.0236 N   0  0  0  0  0  0  0  0  0  0  0  0
   10.5040  -20.2017   25.6054 N   0  0  0  0  0  0  0  0  0  0  0  0
   10.8893  -18.8565   25.9151 C   0  0  0  0  0  0  0  0  0  0  0  0
    9.8172  -17.8502   25.5956 C   0  0  0  0  0  0  0  0  0  0  0  0
   10.0592  -17.2809   24.2312 C   0  0  0  0  0  0  0  0  0  0  0  0
    9.0627  -16.2658   23.7763 C   0  0  2  0  0  0  0  0  0  0  0  0
    9.4035  -15.7962   22.4177 N   0  0  0  0  0  0  0  0  0  0  0  0
    8.9329  -15.0909   24.6689 C   0  0  0  0  0  0  0  0  0  0  0  0
    9.8750  -14.2802   24.7853 O   0  0  0  0  0  0  0  0  0  0  0  0
   10.1039  -21.7384   23.6114 N   0  0  0  0  0  0  0  0  0  0  0  0
    7.7301  -14.8492   25.4211 C   0  0  2  0  0  0  0  0  0  0  0  0
    7.6818  -13.6953   26.2733 C   0  0  0  0  0  0  0  0  0  0  0  0
    6.2880  -13.1114   26.1423 S   0  0  0  0  0  0  0  0  0  0  0  0
    6.1328  -11.7265   27.2905 C   0  0  0  0  0  0  0  0  0  0  0  0
    8.0395  -14.0081   27.6753 O   0  0  0  0  0  0  0  0  0  0  0  0
    7.9753  -15.1810   28.1414 O   0  0  0  0  0  0  0  0  0  0  0  0
  2  4  1  0
  2  1  1  6
  3  2  1  0
  4  5  1  0
  5  6  1  6
  7  8  2  0
  7  5  1  0
  9 10  1  0
 10 12  1  0
 11 10  2  0
 12 13  1  0
 13 14  1  0
 14 15  1  0
 16 15  1  1
 16 17  1  0
 17  7  1  0
 18 16  1  0
 19 18  2  0
 20 18  1  0
 21 20  1  0
 21 22  1  6
 23 22  1  0
 24 21  1  0
 24 26  1  0
 25 24  2  0
M  END
$$$$
