LRC.pdb
     RDKit          3D

 26 25  0  0  1  0  0  0  0  0999 V2000
    5.7278  -11.8923   25.7509 C   0  0  0  0  0  0  0  0  0  0  0  0
    6.5623  -13.0405   26.2641 C   0  0  1  0  0  0  0  0  0  0  0  0
    7.3456  -12.6834   27.4895 C   0  0  0  0  0  0  0  0  0  0  0  0
    5.6424  -14.2424   26.5290 C   0  0  0  0  0  0  0  0  0  0  0  0
    6.5299  -15.4634   26.4078 C   0  0  2  0  0  0  0  0  0  0  0  0
    7.6953  -15.1898   27.2438 N   0  0  0  0  0  0  0  0  0  0  0  0
    6.9912  -15.7067   25.0397 C   0  0  0  0  0  0  0  0  0  0  0  0
    6.2015  -16.2122   24.2088 O   0  0  0  0  0  0  0  0  0  0  0  0
    9.3251  -12.4833   18.3413 N   0  0  0  0  0  0  0  0  0  0  0  0
    8.5971  -13.6406   17.8766 C   0  0  0  0  0  0  0  0  0  0  0  0
    8.7998  -14.0360   16.6885 N   0  0  0  0  0  0  0  0  0  0  0  0
    7.6803  -14.3123   18.7309 N   0  0  0  0  0  0  0  0  0  0  0  0
    7.4725  -13.9101   20.0906 C   0  0  0  0  0  0  0  0  0  0  0  0
    8.5068  -14.4654   21.0319 C   0  0  0  0  0  0  0  0  0  0  0  0
    7.8368  -14.9375   22.2858 C   0  0  0  0  0  0  0  0  0  0  0  0
    8.7170  -15.6718   23.2432 C   0  0  2  0  0  0  0  0  0  0  0  0
    8.3019  -15.3869   24.6321 N   0  0  0  0  0  0  0  0  0  0  0  0
   10.1603  -15.3696   23.1048 C   0  0  0  0  0  0  0  0  0  0  0  0
   10.6602  -14.3934   23.7011 O   0  0  0  0  0  0  0  0  0  0  0  0
    8.3159  -14.8806   16.3289 N   0  0  0  0  0  0  0  0  0  0  0  0
   11.0224  -16.1828   22.2884 C   0  0  2  0  0  0  0  0  0  0  0  0
   12.1390  -16.8312   22.9152 C   0  0  0  0  0  0  0  0  0  0  0  0
   11.5809  -17.6603   24.0561 S   0  0  0  0  0  0  0  0  0  0  0  0
   12.5117  -17.2785   25.5555 C   0  0  0  0  0  0  0  0  0  0  0  0
   12.9376  -17.6356   21.9631 O   0  0  0  0  0  0  0  0  0  0  0  0
   14.1929  -17.5211   21.8717 O   0  0  0  0  0  0  0  0  0  0  0  0
  2  4  1  0
  2  1  1  1
  3  2  1  0
  4  5  1  0
  5  6  1  1
  7  8  2  0
  7  5  1  0
  9 10  1  0
 10 12  1  0
 11 10  2  0
 12 13  1  0
 13 14  1  0
 14 15  1  0
 16 15  1  6
 16 17  1  0
 17  7  1  0
 18 16  1  0
 19 18  2  0
 20 18  1  0
 21 20  1  0
 21 22  1  1
 23 22  1  0
 24 21  1  0
 24 26  1  0
 25 24  2  0
M  END
$$$$
