LRC.pdb
     RDKit          3D

 26 25  0  0  1  0  0  0  0  0999 V2000
    6.9468  -11.6736   27.6485 C   0  0  0  0  0  0  0  0  0  0  0  0
    6.3648  -12.5469   26.5637 C   0  0  1  0  0  0  0  0  0  0  0  0
    6.0173  -11.7777   25.3268 C   0  0  0  0  0  0  0  0  0  0  0  0
    7.3587  -13.6758   26.2495 C   0  0  0  0  0  0  0  0  0  0  0  0
    6.6053  -14.6386   25.3558 C   0  0  2  0  0  0  0  0  0  0  0  0
    5.5493  -15.2072   26.1885 N   0  0  0  0  0  0  0  0  0  0  0  0
    7.4390  -15.7341   24.8572 C   0  0  0  0  0  0  0  0  0  0  0  0
    7.6390  -16.7319   25.5881 O   0  0  0  0  0  0  0  0  0  0  0  0
    8.9900  -12.3880   19.3299 N   0  0  0  0  0  0  0  0  0  0  0  0
    8.4953  -13.4248   18.4550 C   0  0  0  0  0  0  0  0  0  0  0  0
    7.9995  -13.0788   17.3399 N   0  0  0  0  0  0  0  0  0  0  0  0
    8.5643  -14.7921   18.8388 N   0  0  0  0  0  0  0  0  0  0  0  0
    9.5917  -15.2882   19.7061 C   0  0  0  0  0  0  0  0  0  0  0  0
    9.1919  -15.2768   21.1567 C   0  0  0  0  0  0  0  0  0  0  0  0
    9.2065  -16.6772   21.6883 C   0  0  0  0  0  0  0  0  0  0  0  0
    8.8874  -16.8127   23.1411 C   0  0  2  0  0  0  0  0  0  0  0  0
    8.0230  -15.6961   23.5752 N   0  0  0  0  0  0  0  0  0  0  0  0
   10.0733  -16.8707   24.0266 C   0  0  0  0  0  0  0  0  0  0  0  0
   10.5456  -15.8245   24.5173 O   0  0  0  0  0  0  0  0  0  0  0  0
    7.6041  -13.7931   16.6995 N   0  0  0  0  0  0  0  0  0  0  0  0
   10.7109  -18.1205   24.3463 C   0  0  1  0  0  0  0  0  0  0  0  0
   11.8493  -18.0989   25.2202 C   0  0  0  0  0  0  0  0  0  0  0  0
   11.3400  -18.4222   26.6119 S   0  0  0  0  0  0  0  0  0  0  0  0
   12.7572  -18.7358   27.6860 C   0  0  0  0  0  0  0  0  0  0  0  0
   12.9231  -19.0170   24.7783 O   0  0  0  0  0  0  0  0  0  0  0  0
   12.7621  -19.8344   23.8281 O   0  0  0  0  0  0  0  0  0  0  0  0
  2  4  1  0
  2  1  1  1
  3  2  1  0
  4  5  1  0
  5  6  1  1
  7  8  2  0
  7  5  1  0
  9 10  1  0
 10 12  1  0
 11 10  2  0
 12 13  1  0
 13 14  1  0
 14 15  1  0
 16 15  1  6
 16 17  1  0
 17  7  1  0
 18 16  1  0
 19 18  2  0
 20 18  1  0
 21 20  1  0
 21 22  1  6
 23 22  1  0
 24 21  1  0
 24 26  1  0
 25 24  2  0
M  END
$$$$
