LRC.pdb
     RDKit          3D

 26 25  0  0  1  0  0  0  0  0999 V2000
    6.4355  -11.2632   26.6913 C   0  0  0  0  0  0  0  0  0  0  0  0
    6.1706  -12.3606   25.6895 C   0  0  1  0  0  0  0  0  0  0  0  0
    6.7960  -12.0894   24.3562 C   0  0  0  0  0  0  0  0  0  0  0  0
    6.6683  -13.6931   26.2707 C   0  0  0  0  0  0  0  0  0  0  0  0
    6.4798  -14.7104   25.1649 C   0  0  2  0  0  0  0  0  0  0  0  0
    5.2766  -15.4589   25.5170 N   0  0  0  0  0  0  0  0  0  0  0  0
    7.5937  -15.6541   25.0543 C   0  0  0  0  0  0  0  0  0  0  0  0
    7.6840  -16.5930   25.8790 O   0  0  0  0  0  0  0  0  0  0  0  0
   12.4935  -20.2584   21.7254 N   0  0  0  0  0  0  0  0  0  0  0  0
   12.2190  -19.8945   20.3552 C   0  0  0  0  0  0  0  0  0  0  0  0
   12.7412  -20.5947   19.4354 N   0  0  0  0  0  0  0  0  0  0  0  0
   11.3873  -18.7817   20.0528 N   0  0  0  0  0  0  0  0  0  0  0  0
   10.4102  -18.2883   20.9777 C   0  0  0  0  0  0  0  0  0  0  0  0
   11.0194  -17.7477   22.2430 C   0  0  0  0  0  0  0  0  0  0  0  0
   10.3115  -16.4880   22.6379 C   0  0  0  0  0  0  0  0  0  0  0  0
    9.6784  -16.5077   23.9904 C   0  0  2  0  0  0  0  0  0  0  0  0
    8.5683  -15.5344   24.0434 N   0  0  0  0  0  0  0  0  0  0  0  0
   10.6102  -16.2305   25.1078 C   0  0  0  0  0  0  0  0  0  0  0  0
   11.1899  -15.1276   25.1866 O   0  0  0  0  0  0  0  0  0  0  0  0
   12.5414  -20.3824   18.4395 N   0  0  0  0  0  0  0  0  0  0  0  0
   10.8734  -17.2120   26.1268 C   0  0  1  0  0  0  0  0  0  0  0  0
   11.4632  -16.7713   27.3589 C   0  0  0  0  0  0  0  0  0  0  0  0
   10.3889  -16.0098   28.1117 S   0  0  0  0  0  0  0  0  0  0  0  0
   11.1212  -14.5103   28.8015 C   0  0  0  0  0  0  0  0  0  0  0  0
   12.0310  -17.8871   28.1488 O   0  0  0  0  0  0  0  0  0  0  0  0
   11.5279  -19.0463   28.1359 O   0  0  0  0  0  0  0  0  0  0  0  0
  2  4  1  0
  2  1  1  1
  3  2  1  0
  4  5  1  0
  5  6  1  1
  7  8  2  0
  7  5  1  0
  9 10  1  0
 10 12  1  0
 11 10  2  0
 12 13  1  0
 13 14  1  0
 14 15  1  0
 16 15  1  6
 16 17  1  0
 17  7  1  0
 18 16  1  0
 19 18  2  0
 20 18  1  0
 21 20  1  0
 21 22  1  1
 23 22  1  0
 24 21  1  0
 24 26  1  0
 25 24  2  0
M  END
$$$$
