LRC.pdb
     RDKit          3D

 26 25  0  0  1  0  0  0  0  0999 V2000
    6.8523  -11.6191   27.5064 C   0  0  0  0  0  0  0  0  0  0  0  0
    6.2480  -12.5769   26.5086 C   0  0  1  0  0  0  0  0  0  0  0  0
    5.7485  -11.8884   25.2761 C   0  0  0  0  0  0  0  0  0  0  0  0
    7.2905  -13.6493   26.1566 C   0  0  0  0  0  0  0  0  0  0  0  0
    6.5814  -14.6104   25.2258 C   0  0  2  0  0  0  0  0  0  0  0  0
    5.6336  -15.3428   26.0608 N   0  0  0  0  0  0  0  0  0  0  0  0
    7.4847  -15.5766   24.5981 C   0  0  0  0  0  0  0  0  0  0  0  0
    7.8790  -16.5647   25.2599 O   0  0  0  0  0  0  0  0  0  0  0  0
    7.9574  -12.8802   17.4124 N   0  0  0  0  0  0  0  0  0  0  0  0
    8.9507  -13.2984   18.3734 C   0  0  0  0  0  0  0  0  0  0  0  0
    9.6279  -12.4012   18.9611 N   0  0  0  0  0  0  0  0  0  0  0  0
    9.1592  -14.6778   18.6478 N   0  0  0  0  0  0  0  0  0  0  0  0
    8.0943  -15.5395   19.0686 C   0  0  0  0  0  0  0  0  0  0  0  0
    7.8773  -15.5209   20.5575 C   0  0  0  0  0  0  0  0  0  0  0  0
    9.0436  -16.1684   21.2389 C   0  0  0  0  0  0  0  0  0  0  0  0
    8.8790  -16.4005   22.7050 C   0  0  2  0  0  0  0  0  0  0  0  0
    7.9230  -15.4247   23.2674 N   0  0  0  0  0  0  0  0  0  0  0  0
   10.1388  -16.3365   23.4813 C   0  0  0  0  0  0  0  0  0  0  0  0
   10.7213  -15.2452   23.6491 O   0  0  0  0  0  0  0  0  0  0  0  0
   10.4249  -12.6635   19.5715 N   0  0  0  0  0  0  0  0  0  0  0  0
   10.7242  -17.5166   24.0607 C   0  0  1  0  0  0  0  0  0  0  0  0
   12.0394  -17.4153   24.6264 C   0  0  0  0  0  0  0  0  0  0  0  0
   11.8777  -17.5079   26.1317 S   0  0  0  0  0  0  0  0  0  0  0  0
   11.0073  -19.0403   26.5250 C   0  0  0  0  0  0  0  0  0  0  0  0
   12.9698  -18.4337   24.0891 O   0  0  0  0  0  0  0  0  0  0  0  0
   12.6033  -19.3057   23.2510 O   0  0  0  0  0  0  0  0  0  0  0  0
  2  4  1  0
  2  1  1  1
  3  2  1  0
  4  5  1  0
  5  6  1  1
  7  8  2  0
  7  5  1  0
  9 10  1  0
 10 12  1  0
 11 10  2  0
 12 13  1  0
 13 14  1  0
 14 15  1  0
 16 15  1  6
 16 17  1  0
 17  7  1  0
 18 16  1  0
 19 18  2  0
 20 18  1  0
 21 20  1  0
 21 22  1  6
 23 22  1  0
 24 21  1  0
 24 26  1  0
 25 24  2  0
M  END
$$$$
