PFT.pdb
     RDKit          3D

 26 27  0  0  1  0  0  0  0  0999 V2000
   27.3667  -20.1482  -16.7640 N   0  0  0  0  0  0  0  0  0  0  0  0
   28.6353  -19.9406  -17.4284 C   0  0  0  0  0  0  0  0  0  0  0  0
   29.5419  -21.0576  -16.9947 C   0  0  0  0  0  0  0  0  0  0  0  0
   28.6716  -22.1113  -16.3951 C   0  0  0  0  0  0  0  0  0  0  0  0
   27.3059  -21.5168  -16.3686 C   0  0  1  0  0  0  0  0  0  0  0  0
   26.6558  -21.6895  -15.0272 C   0  0  0  0  0  0  0  0  0  0  0  0
   26.0429  -22.7569  -14.8285 O   0  0  0  0  0  0  0  0  0  0  0  0
   26.7219  -20.7091  -14.0292 N   0  0  0  0  0  0  0  0  0  0  0  0
   26.0895  -20.9719  -12.7169 C   0  0  1  0  0  0  0  0  0  0  0  0
   26.9090  -20.3393  -11.6464 C   0  0  0  0  0  0  0  0  0  0  0  0
   26.3255  -20.3916  -10.3010 C   0  0  0  0  0  0  0  0  0  0  0  0
   25.3417  -21.3352   -9.9730 C   0  0  0  0  0  0  0  0  0  0  0  0
   24.8385  -21.4050   -8.6949 C   0  0  0  0  0  0  0  0  0  0  0  0
   25.2708  -20.5607   -7.6838 C   0  0  0  0  0  0  0  0  0  0  0  0
   26.2359  -19.6359   -8.0085 C   0  0  0  0  0  0  0  0  0  0  0  0
   26.7433  -19.5548   -9.2686 C   0  0  0  0  0  0  0  0  0  0  0  0
   24.7441  -20.3777  -12.7795 C   0  0  0  0  0  0  0  0  0  0  0  0
   24.6388  -19.2283  -13.3541 O   0  0  0  0  0  0  0  0  0  0  0  0
   23.2408  -19.6547  -14.7262 C   0  0  0  0  0  0  0  0  0  0  0  0
   22.0402  -20.2141  -14.0220 C   0  0  1  0  0  0  0  0  0  0  0  0
   21.8328  -21.5043  -14.4968 O   0  0  0  0  0  0  0  0  0  0  0  0
   22.3031  -20.2557  -12.5097 C   0  0  2  0  0  0  0  0  0  0  0  0
   23.5495  -20.9479  -12.2772 N   0  0  0  0  0  0  0  0  0  0  0  0
   21.1501  -20.7720  -11.7813 C   0  0  0  0  0  0  0  0  0  0  0  0
   19.9336  -20.0672  -11.8687 O   0  0  0  0  0  0  0  0  0  0  0  0
   21.1897  -21.7928  -11.0950 O   0  0  0  0  0  0  0  0  0  0  0  0
  1  5  1  0
  1  2  1  0
  2  3  1  0
  4  3  1  0
  5  6  1  1
  5  4  1  0
  6  7  2  0
  8  9  1  0
  8  6  1  0
  9 10  1  1
 11 16  1  0
 11 10  1  0
 12 11  2  0
 13 14  2  0
 13 12  1  0
 14 15  1  0
 15 16  2  0
 17  9  1  0
 18 17  2  0
 20 19  1  6
 20 22  1  0
 21 20  1  0
 22 23  1  6
 23 17  1  0
 24 25  1  0
 24 22  1  0
 26 24  2  0
M  END
$$$$
