PFT.pdb
     RDKit          3D

 26 27  0  0  1  0  0  0  0  0999 V2000
   27.7262  -19.4279  -13.5779 N   0  0  0  0  0  0  0  0  0  0  0  0
   28.6554  -19.2716  -14.6761 C   0  0  0  0  0  0  0  0  0  0  0  0
   29.4608  -20.5379  -14.7487 C   0  0  0  0  0  0  0  0  0  0  0  0
   28.7281  -21.5616  -13.9471 C   0  0  0  0  0  0  0  0  0  0  0  0
   27.5972  -20.8239  -13.3176 C   0  0  1  0  0  0  0  0  0  0  0  0
   27.4965  -21.1184  -11.8496 C   0  0  0  0  0  0  0  0  0  0  0  0
   27.2165  -22.2893  -11.5252 O   0  0  0  0  0  0  0  0  0  0  0  0
   27.7037  -20.1379  -10.8713 N   0  0  0  0  0  0  0  0  0  0  0  0
   27.4654  -20.4755   -9.4499 C   0  0  1  0  0  0  0  0  0  0  0  0
   28.3937  -19.6807   -8.5988 C   0  0  0  0  0  0  0  0  0  0  0  0
   28.1928  -19.8260   -7.1525 C   0  0  0  0  0  0  0  0  0  0  0  0
   27.4595  -18.8793   -6.4231 C   0  0  0  0  0  0  0  0  0  0  0  0
   27.2375  -19.0529   -5.0769 C   0  0  0  0  0  0  0  0  0  0  0  0
   27.7190  -20.1536   -4.3850 C   0  0  0  0  0  0  0  0  0  0  0  0
   28.4381  -21.0807   -5.1030 C   0  0  0  0  0  0  0  0  0  0  0  0
   28.6660  -20.9225   -6.4353 C   0  0  0  0  0  0  0  0  0  0  0  0
   26.0613  -20.1312   -9.1726 C   0  0  0  0  0  0  0  0  0  0  0  0
   25.6903  -18.9263   -9.4433 O   0  0  0  0  0  0  0  0  0  0  0  0
   23.9331  -19.6200  -10.8499 C   0  0  0  0  0  0  0  0  0  0  0  0
   23.1008  -20.4884   -9.9537 C   0  0  1  0  0  0  0  0  0  0  0  0
   23.1006  -21.7721  -10.4877 O   0  0  0  0  0  0  0  0  0  0  0  0
   23.7145  -20.5138   -8.5464 C   0  0  2  0  0  0  0  0  0  0  0  0
   25.0726  -20.9960   -8.6442 N   0  0  0  0  0  0  0  0  0  0  0  0
   22.8594  -21.2257   -7.6037 C   0  0  0  0  0  0  0  0  0  0  0  0
   21.5154  -20.8214   -7.4831 O   0  0  0  0  0  0  0  0  0  0  0  0
   23.2559  -22.1615   -6.9097 O   0  0  0  0  0  0  0  0  0  0  0  0
  1  5  1  0
  1  2  1  0
  2  3  1  0
  4  3  1  0
  5  6  1  1
  5  4  1  0
  6  7  2  0
  8  9  1  0
  8  6  1  0
  9 10  1  1
 11 16  1  0
 11 10  1  0
 12 11  2  0
 13 14  2  0
 13 12  1  0
 14 15  1  0
 15 16  2  0
 17  9  1  0
 18 17  2  0
 20 19  1  6
 20 22  1  0
 21 20  1  0
 22 23  1  6
 23 17  1  0
 24 25  1  0
 24 22  1  0
 26 24  2  0
M  END
$$$$
