PFT.pdb
     RDKit          3D

 26 27  0  0  1  0  0  0  0  0999 V2000
   28.7239  -21.5294  -14.4342 N   0  0  0  0  0  0  0  0  0  0  0  0
   28.2489  -21.1352  -15.7430 C   0  0  0  0  0  0  0  0  0  0  0  0
   27.3762  -19.9283  -15.5441 C   0  0  0  0  0  0  0  0  0  0  0  0
   27.6689  -19.4048  -14.1775 C   0  0  0  0  0  0  0  0  0  0  0  0
   28.5948  -20.4019  -13.5710 C   0  0  1  0  0  0  0  0  0  0  0  0
   28.1548  -20.7939  -12.1909 C   0  0  0  0  0  0  0  0  0  0  0  0
   27.6678  -21.9336  -12.0544 O   0  0  0  0  0  0  0  0  0  0  0  0
   28.2765  -19.9346  -11.0917 N   0  0  0  0  0  0  0  0  0  0  0  0
   27.8152  -20.3940   -9.7623 C   0  0  1  0  0  0  0  0  0  0  0  0
   28.5901  -19.6850   -8.7066 C   0  0  0  0  0  0  0  0  0  0  0  0
   28.1373  -19.9268   -7.3319 C   0  0  0  0  0  0  0  0  0  0  0  0
   28.5826  -21.0412   -6.6067 C   0  0  0  0  0  0  0  0  0  0  0  0
   28.1886  -21.2297   -5.3026 C   0  0  0  0  0  0  0  0  0  0  0  0
   27.3458  -20.3429   -4.6502 C   0  0  0  0  0  0  0  0  0  0  0  0
   26.9104  -19.2507   -5.3640 C   0  0  0  0  0  0  0  0  0  0  0  0
   27.2917  -19.0508   -6.6550 C   0  0  0  0  0  0  0  0  0  0  0  0
   26.3827  -20.0638   -9.6845 C   0  0  0  0  0  0  0  0  0  0  0  0
   26.0457  -18.8523   -9.9693 O   0  0  0  0  0  0  0  0  0  0  0  0
   24.1440  -20.0250  -11.7788 C   0  0  0  0  0  0  0  0  0  0  0  0
   23.3577  -20.7333  -10.7158 C   0  0  1  0  0  0  0  0  0  0  0  0
   23.4150  -22.0965  -10.9830 O   0  0  0  0  0  0  0  0  0  0  0  0
   23.9788  -20.4494   -9.3405 C   0  0  2  0  0  0  0  0  0  0  0  0
   25.3342  -20.9486   -9.3347 N   0  0  0  0  0  0  0  0  0  0  0  0
   23.1256  -20.9299   -8.2598 C   0  0  0  0  0  0  0  0  0  0  0  0
   21.7800  -20.5138   -8.2349 O   0  0  0  0  0  0  0  0  0  0  0  0
   23.5251  -21.6805   -7.3701 O   0  0  0  0  0  0  0  0  0  0  0  0
  1  5  1  0
  1  2  1  0
  2  3  1  0
  4  3  1  0
  5  6  1  1
  5  4  1  0
  6  7  2  0
  8  9  1  0
  8  6  1  0
  9 10  1  1
 11 16  1  0
 11 10  1  0
 12 11  2  0
 13 14  2  0
 13 12  1  0
 14 15  1  0
 15 16  2  0
 17  9  1  0
 18 17  2  0
 20 19  1  6
 20 22  1  0
 21 20  1  0
 22 23  1  6
 23 17  1  0
 24 25  1  0
 24 22  1  0
 26 24  2  0
M  END
$$$$
