PFT.pdb
     RDKit          3D

 26 27  0  0  1  0  0  0  0  0999 V2000
   27.8131  -20.8442  -17.1482 N   0  0  0  0  0  0  0  0  0  0  0  0
   29.0870  -20.9441  -17.8273 C   0  0  0  0  0  0  0  0  0  0  0  0
   29.6963  -22.2555  -17.4192 C   0  0  0  0  0  0  0  0  0  0  0  0
   28.6004  -23.0726  -16.8203 C   0  0  0  0  0  0  0  0  0  0  0  0
   27.4225  -22.1619  -16.7683 C   0  0  1  0  0  0  0  0  0  0  0  0
   26.7638  -22.1898  -15.4203 C   0  0  0  0  0  0  0  0  0  0  0  0
   26.2676  -23.2739  -15.0551 O   0  0  0  0  0  0  0  0  0  0  0  0
   26.6978  -21.0614  -14.5934 N   0  0  0  0  0  0  0  0  0  0  0  0
   26.1078  -21.1908  -13.2420 C   0  0  1  0  0  0  0  0  0  0  0  0
   26.9875  -20.4999  -12.2588 C   0  0  0  0  0  0  0  0  0  0  0  0
   26.4776  -20.4636  -10.8833 C   0  0  0  0  0  0  0  0  0  0  0  0
   26.6371  -21.5578  -10.0212 C   0  0  0  0  0  0  0  0  0  0  0  0
   26.1977  -21.4923   -8.7196 C   0  0  0  0  0  0  0  0  0  0  0  0
   25.5854  -20.3607   -8.2030 C   0  0  0  0  0  0  0  0  0  0  0  0
   25.4301  -19.2888   -9.0509 C   0  0  0  0  0  0  0  0  0  0  0  0
   25.8597  -19.3389  -10.3412 C   0  0  0  0  0  0  0  0  0  0  0  0
   24.7807  -20.5570  -13.3074 C   0  0  0  0  0  0  0  0  0  0  0  0
   24.6908  -19.4560  -13.9725 O   0  0  0  0  0  0  0  0  0  0  0  0
   22.0211  -22.1768  -14.8400 C   0  0  0  0  0  0  0  0  0  0  0  0
   22.0985  -20.6990  -14.5950 C   0  0  1  0  0  0  0  0  0  0  0  0
   20.8859  -20.1405  -14.9834 O   0  0  0  0  0  0  0  0  0  0  0  0
   22.3336  -20.4364  -13.1005 C   0  0  2  0  0  0  0  0  0  0  0  0
   23.5882  -21.0414  -12.7178 N   0  0  0  0  0  0  0  0  0  0  0  0
   21.1770  -20.8247  -12.3016 C   0  0  0  0  0  0  0  0  0  0  0  0
   19.9264  -20.2578  -12.6160 O   0  0  0  0  0  0  0  0  0  0  0  0
   21.2421  -21.6229  -11.3672 O   0  0  0  0  0  0  0  0  0  0  0  0
  1  5  1  0
  1  2  1  0
  2  3  1  0
  4  3  1  0
  5  6  1  1
  5  4  1  0
  6  7  2  0
  8  9  1  0
  8  6  1  0
  9 10  1  1
 11 16  1  0
 11 10  1  0
 12 11  2  0
 13 14  2  0
 13 12  1  0
 14 15  1  0
 15 16  2  0
 17  9  1  0
 18 17  2  0
 20 19  1  1
 20 22  1  0
 21 20  1  0
 22 23  1  1
 23 17  1  0
 24 25  1  0
 24 22  1  0
 26 24  2  0
M  END
$$$$
