PFT.pdb
     RDKit          3D

 26 27  0  0  1  0  0  0  0  0999 V2000
   30.5625  -20.7081  -10.2749 N   0  0  0  0  0  0  0  0  0  0  0  0
   31.9155  -20.8603   -9.7851 C   0  0  0  0  0  0  0  0  0  0  0  0
   31.9264  -22.0800   -8.9077 C   0  0  0  0  0  0  0  0  0  0  0  0
   30.6786  -22.8405   -9.2108 C   0  0  0  0  0  0  0  0  0  0  0  0
   29.9133  -21.9714  -10.1480 C   0  0  1  0  0  0  0  0  0  0  0  0
   28.4808  -21.8308   -9.7237 C   0  0  0  0  0  0  0  0  0  0  0  0
   27.8398  -22.8839   -9.5372 O   0  0  0  0  0  0  0  0  0  0  0  0
   27.8713  -20.5834   -9.5395 N   0  0  0  0  0  0  0  0  0  0  0  0
   26.4712  -20.5281   -9.0626 C   0  0  1  0  0  0  0  0  0  0  0  0
   26.3442  -19.4426   -8.0508 C   0  0  0  0  0  0  0  0  0  0  0  0
   27.1095  -19.6485   -6.8158 C   0  0  0  0  0  0  0  0  0  0  0  0
   26.8127  -20.7075   -5.9463 C   0  0  0  0  0  0  0  0  0  0  0  0
   27.5690  -20.9179   -4.8170 C   0  0  0  0  0  0  0  0  0  0  0  0
   28.6445  -20.1076   -4.4869 C   0  0  0  0  0  0  0  0  0  0  0  0
   28.9334  -19.0693   -5.3417 C   0  0  0  0  0  0  0  0  0  0  0  0
   28.1940  -18.8486   -6.4627 C   0  0  0  0  0  0  0  0  0  0  0  0
   25.6411  -20.2526  -10.2468 C   0  0  0  0  0  0  0  0  0  0  0  0
   25.9416  -19.2085  -10.9412 O   0  0  0  0  0  0  0  0  0  0  0  0
   25.3971  -21.5677  -13.3598 C   0  0  0  0  0  0  0  0  0  0  0  0
   23.9425  -21.4736  -13.0060 C   0  0  1  0  0  0  0  0  0  0  0  0
   23.5059  -22.7483  -12.6633 O   0  0  0  0  0  0  0  0  0  0  0  0
   23.7635  -20.5268  -11.8104 C   0  0  2  0  0  0  0  0  0  0  0  0
   24.5478  -21.0265  -10.7051 N   0  0  0  0  0  0  0  0  0  0  0  0
   22.3535  -20.2874  -11.5253 C   0  0  0  0  0  0  0  0  0  0  0  0
   21.5430  -19.7648  -12.5521 O   0  0  0  0  0  0  0  0  0  0  0  0
   21.8391  -20.5200  -10.4317 O   0  0  0  0  0  0  0  0  0  0  0  0
  1  5  1  0
  1  2  1  0
  2  3  1  0
  4  3  1  0
  5  6  1  1
  5  4  1  0
  6  7  2  0
  8  9  1  0
  8  6  1  0
  9 10  1  1
 11 16  1  0
 11 10  1  0
 12 11  2  0
 13 14  2  0
 13 12  1  0
 14 15  1  0
 15 16  2  0
 17  9  1  0
 18 17  2  0
 20 19  1  1
 20 22  1  0
 21 20  1  0
 22 23  1  1
 23 17  1  0
 24 25  1  0
 24 22  1  0
 26 24  2  0
M  END
$$$$
