PFT.pdb
     RDKit          3D

 26 27  0  0  1  0  0  0  0  0999 V2000
   31.0111  -21.2702  -10.3683 N   0  0  0  0  0  0  0  0  0  0  0  0
   32.4260  -21.4246  -10.1074 C   0  0  0  0  0  0  0  0  0  0  0  0
   32.5539  -22.3632   -8.9411 C   0  0  0  0  0  0  0  0  0  0  0  0
   31.2351  -23.0453   -8.7898 C   0  0  0  0  0  0  0  0  0  0  0  0
   30.3401  -22.3817   -9.7788 C   0  0  1  0  0  0  0  0  0  0  0  0
   29.0309  -21.9884   -9.1599 C   0  0  0  0  0  0  0  0  0  0  0  0
   28.3338  -22.9042   -8.6802 O   0  0  0  0  0  0  0  0  0  0  0  0
   28.5921  -20.6592   -9.1123 N   0  0  0  0  0  0  0  0  0  0  0  0
   27.2755  -20.3553   -8.5080 C   0  0  1  0  0  0  0  0  0  0  0  0
   27.4128  -19.1749   -7.6106 C   0  0  0  0  0  0  0  0  0  0  0  0
   28.0302  -19.4499   -6.3081 C   0  0  0  0  0  0  0  0  0  0  0  0
   28.4553  -18.4076   -5.4721 C   0  0  0  0  0  0  0  0  0  0  0  0
   28.9878  -18.6780   -4.2332 C   0  0  0  0  0  0  0  0  0  0  0  0
   29.1288  -19.9722   -3.7564 C   0  0  0  0  0  0  0  0  0  0  0  0
   28.7111  -20.9927   -4.5787 C   0  0  0  0  0  0  0  0  0  0  0  0
   28.1823  -20.7408   -5.8071 C   0  0  0  0  0  0  0  0  0  0  0  0
   26.3623  -20.0708   -9.6271 C   0  0  0  0  0  0  0  0  0  0  0  0
   26.8295  -19.3610  -10.5968 O   0  0  0  0  0  0  0  0  0  0  0  0
   25.1278  -22.4615  -11.8873 C   0  0  0  0  0  0  0  0  0  0  0  0
   25.1207  -20.9798  -12.1208 C   0  0  1  0  0  0  0  0  0  0  0  0
   24.5002  -20.7458  -13.3427 O   0  0  0  0  0  0  0  0  0  0  0  0
   24.3338  -20.2855  -10.9998 C   0  0  2  0  0  0  0  0  0  0  0  0
   25.0209  -20.5069   -9.7487 N   0  0  0  0  0  0  0  0  0  0  0  0
   22.9259  -20.6653  -11.0215 C   0  0  0  0  0  0  0  0  0  0  0  0
   22.1928  -20.4479  -12.2045 O   0  0  0  0  0  0  0  0  0  0  0  0
   22.3492  -21.1661  -10.0565 O   0  0  0  0  0  0  0  0  0  0  0  0
  1  5  1  0
  1  2  1  0
  2  3  1  0
  4  3  1  0
  5  6  1  1
  5  4  1  0
  6  7  2  0
  8  9  1  0
  8  6  1  0
  9 10  1  1
 11 16  1  0
 11 10  1  0
 12 11  2  0
 13 14  2  0
 13 12  1  0
 14 15  1  0
 15 16  2  0
 17  9  1  0
 18 17  2  0
 20 19  1  1
 20 22  1  0
 21 20  1  0
 22 23  1  1
 23 17  1  0
 24 25  1  0
 24 22  1  0
 26 24  2  0
M  END
$$$$
