PFT.pdb
     RDKit          3D

 26 27  0  0  1  0  0  0  0  0999 V2000
   28.0254  -19.7735  -17.5767 N   0  0  0  0  0  0  0  0  0  0  0  0
   29.2626  -19.4827  -18.2687 C   0  0  0  0  0  0  0  0  0  0  0  0
   30.1924  -20.6319  -17.9999 C   0  0  0  0  0  0  0  0  0  0  0  0
   29.3542  -21.7531  -17.4824 C   0  0  0  0  0  0  0  0  0  0  0  0
   27.9883  -21.1778  -17.3317 C   0  0  1  0  0  0  0  0  0  0  0  0
   27.3988  -21.5022  -15.9904 C   0  0  0  0  0  0  0  0  0  0  0  0
   27.2622  -22.7092  -15.7091 O   0  0  0  0  0  0  0  0  0  0  0  0
   27.0126  -20.5103  -15.0803 N   0  0  0  0  0  0  0  0  0  0  0  0
   26.4573  -20.9118  -13.7682 C   0  0  1  0  0  0  0  0  0  0  0  0
   27.0507  -20.0536  -12.7055 C   0  0  0  0  0  0  0  0  0  0  0  0
   26.5347  -20.2901  -11.3523 C   0  0  0  0  0  0  0  0  0  0  0  0
   27.1353  -21.2280  -10.5004 C   0  0  0  0  0  0  0  0  0  0  0  0
   26.6719  -21.4048   -9.2176 C   0  0  0  0  0  0  0  0  0  0  0  0
   25.6061  -20.6774   -8.7106 C   0  0  0  0  0  0  0  0  0  0  0  0
   25.0188  -19.7581   -9.5485 C   0  0  0  0  0  0  0  0  0  0  0  0
   25.4661  -19.5721  -10.8202 C   0  0  0  0  0  0  0  0  0  0  0  0
   25.0008  -20.7180  -13.8584 C   0  0  0  0  0  0  0  0  0  0  0  0
   24.5892  -19.6015  -14.3550 O   0  0  0  0  0  0  0  0  0  0  0  0
   20.3662  -22.1107  -14.1821 C   0  0  0  0  0  0  0  0  0  0  0  0
   21.8280  -22.4455  -14.1526 C   0  0  1  0  0  0  0  0  0  0  0  0
   22.2325  -22.6954  -15.4591 O   0  0  0  0  0  0  0  0  0  0  0  0
   22.6173  -21.2567  -13.5853 C   0  0  2  0  0  0  0  0  0  0  0  0
   24.0040  -21.6413  -13.4605 N   0  0  0  0  0  0  0  0  0  0  0  0
   21.9970  -20.7332  -12.3738 C   0  0  0  0  0  0  0  0  0  0  0  0
   21.0344  -19.7128  -12.5027 O   0  0  0  0  0  0  0  0  0  0  0  0
   22.2743  -21.1402  -11.2460 O   0  0  0  0  0  0  0  0  0  0  0  0
  1  5  1  0
  1  2  1  0
  2  3  1  0
  4  3  1  0
  5  6  1  1
  5  4  1  0
  6  7  2  0
  8  9  1  0
  8  6  1  0
  9 10  1  1
 11 16  1  0
 11 10  1  0
 12 11  2  0
 13 14  2  0
 13 12  1  0
 14 15  1  0
 15 16  2  0
 17  9  1  0
 18 17  2  0
 20 19  1  6
 20 22  1  0
 21 20  1  0
 22 23  1  1
 23 17  1  0
 24 25  1  0
 24 22  1  0
 26 24  2  0
M  END
$$$$
