KPR.pdb
     RDKit          3D

 28 28  0  0  1  0  0  0  0  0999 V2000
   26.5024  -23.2071  -15.2992 N   0  0  0  0  0  0  0  0  0  0  0  0
   26.0111  -22.0796  -14.5617 C   0  0  1  0  0  0  0  0  0  0  0  0
   25.2801  -21.0991  -15.4728 C   0  0  0  0  0  0  0  0  0  0  0  0
   26.1091  -20.8334  -16.6836 C   0  0  0  0  0  0  0  0  0  0  0  0
   27.0826  -19.7223  -16.3887 C   0  0  0  0  0  0  0  0  0  0  0  0
   27.8453  -19.3230  -17.6139 C   0  0  0  0  0  0  0  0  0  0  0  0
   28.8624  -18.3119  -17.3049 N   0  0  0  0  0  0  0  0  0  0  0  0
   25.2039  -22.3915  -13.3853 C   0  0  0  0  0  0  0  0  0  0  0  0
   24.5036  -23.4602  -13.4562 O   0  0  0  0  0  0  0  0  0  0  0  0
   25.1185  -21.6406  -12.1870 N   0  0  0  0  0  0  0  0  0  0  0  0
   25.9133  -20.4862  -11.8271 C   0  0  0  0  0  0  0  0  0  0  0  0
   25.1139  -19.8585  -10.7100 C   0  0  0  0  0  0  0  0  0  0  0  0
   24.6781  -21.1041   -9.9414 C   0  0  0  0  0  0  0  0  0  0  0  0
   24.1846  -21.9478  -11.1008 C   0  0  1  0  0  0  0  0  0  0  0  0
   22.7938  -21.6455  -11.4839 C   0  0  0  0  0  0  0  0  0  0  0  0
   22.5799  -20.6777  -12.2804 O   0  0  0  0  0  0  0  0  0  0  0  0
   16.9914  -23.8881   -6.5786 N   0  0  0  0  0  0  0  0  0  0  0  0
   17.5075  -24.9686   -7.3428 C   0  0  0  0  0  0  0  0  0  0  0  0
   16.9966  -26.1305   -7.2313 N   0  0  0  0  0  0  0  0  0  0  0  0
   18.5956  -24.8040   -8.2473 N   0  0  0  0  0  0  0  0  0  0  0  0
   19.2746  -23.5449   -8.4236 C   0  0  0  0  0  0  0  0  0  0  0  0
   18.7492  -22.7658   -9.6010 C   0  0  0  0  0  0  0  0  0  0  0  0
   19.4555  -23.1882  -10.8418 C   0  0  0  0  0  0  0  0  0  0  0  0
   20.3019  -22.1005  -11.4815 C   0  0  2  0  0  0  0  0  0  0  0  0
   21.6639  -22.3527  -11.0324 N   0  0  0  0  0  0  0  0  0  0  0  0
   19.8897  -20.7836  -10.9652 C   0  0  0  0  0  0  0  0  0  0  0  0
   20.3744  -20.2452   -9.9342 O   0  0  0  0  0  0  0  0  0  0  0  0
   18.9087  -20.0578  -11.6267 O   0  0  0  0  0  0  0  0  0  0  0  0
  2  1  1  6
  3  4  1  0
  3  2  1  0
  4  5  1  0
  5  6  1  0
  7  6  1  0
  8  2  1  0
  9  8  2  0
 10  8  1  0
 11 10  1  0
 12 13  1  0
 12 11  1  0
 13 14  1  0
 14 10  1  0
 14 15  1  6
 15 16  2  0
 17 18  1  0
 18 19  2  0
 18 20  1  0
 20 21  1  0
 21 22  1  0
 22 23  1  0
 24 23  1  1
 25 15  1  0
 25 24  1  0
 26 24  1  0
 26 28  1  0
 27 26  2  0
M  END
$$$$
