KPR.pdb
     RDKit          3D

 28 28  0  0  1  0  0  0  0  0999 V2000
   20.7202  -21.0303  -16.8943 N   0  0  0  0  0  0  0  0  0  0  0  0
   21.5193  -21.4072  -15.7647 C   0  0  1  0  0  0  0  0  0  0  0  0
   20.9993  -20.7676  -14.4816 C   0  0  0  0  0  0  0  0  0  0  0  0
   21.0022  -19.2837  -14.6297 C   0  0  0  0  0  0  0  0  0  0  0  0
   20.4635  -18.6549  -13.3711 C   0  0  0  0  0  0  0  0  0  0  0  0
   20.3589  -17.1671  -13.5039 C   0  0  0  0  0  0  0  0  0  0  0  0
   19.8483  -16.5548  -12.2723 N   0  0  0  0  0  0  0  0  0  0  0  0
   21.7244  -22.8414  -15.5805 C   0  0  0  0  0  0  0  0  0  0  0  0
   20.6760  -23.5703  -15.6633 O   0  0  0  0  0  0  0  0  0  0  0  0
   22.9518  -23.5005  -15.3230 N   0  0  0  0  0  0  0  0  0  0  0  0
   24.2696  -22.9034  -15.2983 C   0  0  0  0  0  0  0  0  0  0  0  0
   25.0934  -23.9295  -14.5570 C   0  0  0  0  0  0  0  0  0  0  0  0
   24.5456  -25.2204  -15.1618 C   0  0  0  0  0  0  0  0  0  0  0  0
   23.0608  -24.9350  -15.0460 C   0  0  1  0  0  0  0  0  0  0  0  0
   22.5097  -25.2716  -13.7211 C   0  0  0  0  0  0  0  0  0  0  0  0
   22.6711  -24.4451  -12.7683 O   0  0  0  0  0  0  0  0  0  0  0  0
   18.1899  -24.9608   -7.7504 N   0  0  0  0  0  0  0  0  0  0  0  0
   18.3814  -23.8415   -8.6039 C   0  0  0  0  0  0  0  0  0  0  0  0
   18.6323  -22.6954   -8.1068 N   0  0  0  0  0  0  0  0  0  0  0  0
   18.3027  -23.9490  -10.0221 N   0  0  0  0  0  0  0  0  0  0  0  0
   18.0449  -25.1986  -10.6925 C   0  0  0  0  0  0  0  0  0  0  0  0
   19.2508  -26.1012  -10.7146 C   0  0  0  0  0  0  0  0  0  0  0  0
   20.0037  -25.9069  -11.9843 C   0  0  0  0  0  0  0  0  0  0  0  0
   21.2496  -26.7674  -12.1114 C   0  0  2  0  0  0  0  0  0  0  0  0
   21.8076  -26.4533  -13.4191 N   0  0  0  0  0  0  0  0  0  0  0  0
   20.8709  -28.1912  -12.1088 C   0  0  0  0  0  0  0  0  0  0  0  0
   20.3688  -28.7909  -13.0967 O   0  0  0  0  0  0  0  0  0  0  0  0
   21.0630  -28.9556  -10.9662 O   0  0  0  0  0  0  0  0  0  0  0  0
  2  1  1  6
  3  4  1  0
  3  2  1  0
  4  5  1  0
  5  6  1  0
  7  6  1  0
  8  2  1  0
  9  8  2  0
 10  8  1  0
 11 10  1  0
 12 13  1  0
 12 11  1  0
 13 14  1  0
 14 10  1  0
 14 15  1  1
 15 16  2  0
 17 18  1  0
 18 19  2  0
 18 20  1  0
 20 21  1  0
 21 22  1  0
 22 23  1  0
 24 23  1  6
 25 15  1  0
 25 24  1  0
 26 24  1  0
 26 28  1  0
 27 26  2  0
M  END
$$$$
