KPR.pdb
     RDKit          3D

 28 28  0  0  1  0  0  0  0  0999 V2000
   27.0593  -22.6063  -17.7894 N   0  0  0  0  0  0  0  0  0  0  0  0
   26.7297  -21.3453  -17.1914 C   0  0  1  0  0  0  0  0  0  0  0  0
   25.7877  -20.5409  -18.0810 C   0  0  0  0  0  0  0  0  0  0  0  0
   26.4938  -20.1638  -19.3393 C   0  0  0  0  0  0  0  0  0  0  0  0
   25.5351  -19.4485  -20.2551 C   0  0  0  0  0  0  0  0  0  0  0  0
   26.1621  -19.1551  -21.5828 C   0  0  0  0  0  0  0  0  0  0  0  0
   25.2090  -18.5116  -22.4939 N   0  0  0  0  0  0  0  0  0  0  0  0
   26.2238  -21.4031  -15.8226 C   0  0  0  0  0  0  0  0  0  0  0  0
   25.5649  -22.4560  -15.5151 O   0  0  0  0  0  0  0  0  0  0  0  0
   26.3866  -20.4237  -14.8119 N   0  0  0  0  0  0  0  0  0  0  0  0
   27.0974  -19.1684  -14.9255 C   0  0  0  0  0  0  0  0  0  0  0  0
   26.5742  -18.3746  -13.7520 C   0  0  0  0  0  0  0  0  0  0  0  0
   26.5361  -19.4566  -12.6750 C   0  0  0  0  0  0  0  0  0  0  0  0
   25.8458  -20.5572  -13.4569 C   0  0  1  0  0  0  0  0  0  0  0  0
   24.3767  -20.4373  -13.4485 C   0  0  0  0  0  0  0  0  0  0  0  0
   23.8243  -19.6797  -14.3075 O   0  0  0  0  0  0  0  0  0  0  0  0
   18.2413  -26.0471  -11.0209 N   0  0  0  0  0  0  0  0  0  0  0  0
   17.5881  -24.8051  -10.8004 C   0  0  0  0  0  0  0  0  0  0  0  0
   16.3918  -24.7821  -10.3626 N   0  0  0  0  0  0  0  0  0  0  0  0
   18.2281  -23.5579  -11.0540 N   0  0  0  0  0  0  0  0  0  0  0  0
   19.6589  -23.4293  -11.1704 C   0  0  0  0  0  0  0  0  0  0  0  0
   20.0972  -21.9990  -11.3475 C   0  0  0  0  0  0  0  0  0  0  0  0
   21.5787  -21.9381  -11.4827 C   0  0  0  0  0  0  0  0  0  0  0  0
   22.0712  -20.9678  -12.5433 C   0  0  2  0  0  0  0  0  0  0  0  0
   23.5209  -21.1041  -12.5521 N   0  0  0  0  0  0  0  0  0  0  0  0
   21.7469  -19.5879  -12.1417 C   0  0  0  0  0  0  0  0  0  0  0  0
   22.4808  -18.8746  -11.4066 O   0  0  0  0  0  0  0  0  0  0  0  0
   20.5682  -18.9995  -12.5790 O   0  0  0  0  0  0  0  0  0  0  0  0
  2  1  1  6
  3  4  1  0
  3  2  1  0
  4  5  1  0
  5  6  1  0
  7  6  1  0
  8  2  1  0
  9  8  2  0
 10  8  1  0
 11 10  1  0
 12 13  1  0
 12 11  1  0
 13 14  1  0
 14 10  1  0
 14 15  1  6
 15 16  2  0
 17 18  1  0
 18 19  2  0
 18 20  1  0
 20 21  1  0
 21 22  1  0
 22 23  1  0
 24 23  1  1
 25 15  1  0
 25 24  1  0
 26 24  1  0
 26 28  1  0
 27 26  2  0
M  END
$$$$
