KPR.pdb
     RDKit          3D

 28 28  0  0  1  0  0  0  0  0999 V2000
   28.3643  -23.1048  -17.6954 N   0  0  0  0  0  0  0  0  0  0  0  0
   27.8778  -21.8062  -17.3298 C   0  0  1  0  0  0  0  0  0  0  0  0
   27.0273  -21.2013  -18.4418 C   0  0  0  0  0  0  0  0  0  0  0  0
   27.6665  -21.4754  -19.7610 C   0  0  0  0  0  0  0  0  0  0  0  0
   26.6379  -22.0376  -20.7074 C   0  0  0  0  0  0  0  0  0  0  0  0
   27.2150  -22.2668  -22.0700 C   0  0  0  0  0  0  0  0  0  0  0  0
   27.0886  -23.6712  -22.4750 N   0  0  0  0  0  0  0  0  0  0  0  0
   27.1846  -21.7243  -16.0469 C   0  0  0  0  0  0  0  0  0  0  0  0
   26.5737  -22.7850  -15.6740 O   0  0  0  0  0  0  0  0  0  0  0  0
   27.1208  -20.6034  -15.1829 N   0  0  0  0  0  0  0  0  0  0  0  0
   27.7607  -19.3201  -15.3767 C   0  0  0  0  0  0  0  0  0  0  0  0
   27.0066  -18.4181  -14.4287 C   0  0  0  0  0  0  0  0  0  0  0  0
   26.8630  -19.3387  -13.2187 C   0  0  0  0  0  0  0  0  0  0  0  0
   26.3780  -20.5925  -13.9202 C   0  0  1  0  0  0  0  0  0  0  0  0
   24.9222  -20.5985  -14.1511 C   0  0  0  0  0  0  0  0  0  0  0  0
   24.4762  -20.0932  -15.2294 O   0  0  0  0  0  0  0  0  0  0  0  0
   18.4627  -24.2254   -9.0978 N   0  0  0  0  0  0  0  0  0  0  0  0
   17.9022  -24.0671  -10.3934 C   0  0  0  0  0  0  0  0  0  0  0  0
   16.7212  -24.4812  -10.6328 N   0  0  0  0  0  0  0  0  0  0  0  0
   18.6205  -23.4519  -11.4587 N   0  0  0  0  0  0  0  0  0  0  0  0
   20.0071  -23.0758  -11.3444 C   0  0  0  0  0  0  0  0  0  0  0  0
   20.4931  -22.2935  -12.5364 C   0  0  0  0  0  0  0  0  0  0  0  0
   21.9529  -22.0308  -12.4070 C   0  0  0  0  0  0  0  0  0  0  0  0
   22.5390  -21.1874  -13.5268 C   0  0  2  0  0  0  0  0  0  0  0  0
   23.9692  -21.1267  -13.2604 N   0  0  0  0  0  0  0  0  0  0  0  0
   22.0034  -19.8172  -13.4478 C   0  0  0  0  0  0  0  0  0  0  0  0
   22.4693  -18.9183  -12.6976 O   0  0  0  0  0  0  0  0  0  0  0  0
   20.9179  -19.4528  -14.2324 O   0  0  0  0  0  0  0  0  0  0  0  0
  2  1  1  6
  3  4  1  0
  3  2  1  0
  4  5  1  0
  5  6  1  0
  7  6  1  0
  8  2  1  0
  9  8  2  0
 10  8  1  0
 11 10  1  0
 12 13  1  0
 12 11  1  0
 13 14  1  0
 14 10  1  0
 14 15  1  6
 15 16  2  0
 17 18  1  0
 18 19  2  0
 18 20  1  0
 20 21  1  0
 21 22  1  0
 22 23  1  0
 24 23  1  1
 25 15  1  0
 25 24  1  0
 26 24  1  0
 26 28  1  0
 27 26  2  0
M  END
$$$$
