KPR.pdb
     RDKit          3D

 28 28  0  0  1  0  0  0  0  0999 V2000
   29.7288  -23.6771  -16.9400 N   0  0  0  0  0  0  0  0  0  0  0  0
   28.9350  -22.5485  -17.3310 C   0  0  1  0  0  0  0  0  0  0  0  0
   27.8652  -22.9486  -18.3416 C   0  0  0  0  0  0  0  0  0  0  0  0
   26.5729  -23.1764  -17.6329 C   0  0  0  0  0  0  0  0  0  0  0  0
   25.5395  -23.6542  -18.6195 C   0  0  0  0  0  0  0  0  0  0  0  0
   24.2124  -23.8704  -17.9606 C   0  0  0  0  0  0  0  0  0  0  0  0
   23.2182  -24.3761  -18.9136 N   0  0  0  0  0  0  0  0  0  0  0  0
   28.3508  -21.7729  -16.2402 C   0  0  0  0  0  0  0  0  0  0  0  0
   28.0587  -22.4304  -15.1819 O   0  0  0  0  0  0  0  0  0  0  0  0
   28.0780  -20.3827  -16.2339 N   0  0  0  0  0  0  0  0  0  0  0  0
   28.2576  -19.4576  -17.3319 C   0  0  0  0  0  0  0  0  0  0  0  0
   27.4155  -18.2736  -16.9195 C   0  0  0  0  0  0  0  0  0  0  0  0
   27.7446  -18.1994  -15.4301 C   0  0  0  0  0  0  0  0  0  0  0  0
   27.5666  -19.6607  -15.0662 C   0  0  1  0  0  0  0  0  0  0  0  0
   26.1652  -20.0184  -14.7822 C   0  0  0  0  0  0  0  0  0  0  0  0
   25.4047  -20.3156  -15.7571 O   0  0  0  0  0  0  0  0  0  0  0  0
   22.2902  -21.2391   -6.7996 N   0  0  0  0  0  0  0  0  0  0  0  0
   21.2765  -21.5071   -7.7580 C   0  0  0  0  0  0  0  0  0  0  0  0
   20.1323  -21.9195   -7.3783 N   0  0  0  0  0  0  0  0  0  0  0  0
   21.4904  -21.3305   -9.1552 N   0  0  0  0  0  0  0  0  0  0  0  0
   22.7804  -21.0016   -9.7074 C   0  0  0  0  0  0  0  0  0  0  0  0
   22.7464  -20.8560  -11.2064 C   0  0  0  0  0  0  0  0  0  0  0  0
   24.0989  -20.4882  -11.7087 C   0  0  0  0  0  0  0  0  0  0  0  0
   24.2197  -20.4663  -13.2232 C   0  0  2  0  0  0  0  0  0  0  0  0
   25.5902  -20.0586  -13.4984 N   0  0  0  0  0  0  0  0  0  0  0  0
   23.3202  -19.4394  -13.7774 C   0  0  0  0  0  0  0  0  0  0  0  0
   23.6298  -18.2252  -13.9094 O   0  0  0  0  0  0  0  0  0  0  0  0
   22.0427  -19.7902  -14.1918 O   0  0  0  0  0  0  0  0  0  0  0  0
  2  1  1  1
  3  4  1  0
  3  2  1  0
  4  5  1  0
  5  6  1  0
  7  6  1  0
  8  2  1  0
  9  8  2  0
 10  8  1  0
 11 10  1  0
 12 13  1  0
 12 11  1  0
 13 14  1  0
 14 10  1  0
 14 15  1  6
 15 16  2  0
 17 18  1  0
 18 19  2  0
 18 20  1  0
 20 21  1  0
 21 22  1  0
 22 23  1  0
 24 23  1  1
 25 15  1  0
 25 24  1  0
 26 24  1  0
 26 28  1  0
 27 26  2  0
M  END
$$$$
