KPR.pdb
     RDKit          3D

 28 28  0  0  1  0  0  0  0  0999 V2000
   28.9722  -23.5202  -16.0463 N   0  0  0  0  0  0  0  0  0  0  0  0
   28.1515  -22.4680  -16.5715 C   0  0  1  0  0  0  0  0  0  0  0  0
   27.4518  -22.9011  -17.8555 C   0  0  0  0  0  0  0  0  0  0  0  0
   27.7778  -21.9393  -18.9476 C   0  0  0  0  0  0  0  0  0  0  0  0
   28.7775  -22.5667  -19.8839 C   0  0  0  0  0  0  0  0  0  0  0  0
   29.2406  -21.5928  -20.9228 C   0  0  0  0  0  0  0  0  0  0  0  0
   30.3379  -22.1467  -21.7237 N   0  0  0  0  0  0  0  0  0  0  0  0
   27.1967  -21.8788  -15.6365 C   0  0  0  0  0  0  0  0  0  0  0  0
   26.5870  -22.7013  -14.8690 O   0  0  0  0  0  0  0  0  0  0  0  0
   26.8807  -20.5051  -15.4938 N   0  0  0  0  0  0  0  0  0  0  0  0
   27.4383  -19.4030  -16.2476 C   0  0  0  0  0  0  0  0  0  0  0  0
   26.4487  -18.2887  -16.0022 C   0  0  0  0  0  0  0  0  0  0  0  0
   26.1570  -18.4935  -14.5172 C   0  0  0  0  0  0  0  0  0  0  0  0
   25.9162  -19.9906  -14.5185 C   0  0  1  0  0  0  0  0  0  0  0  0
   24.5349  -20.3530  -14.8834 C   0  0  0  0  0  0  0  0  0  0  0  0
   24.2508  -20.5012  -16.1140 O   0  0  0  0  0  0  0  0  0  0  0  0
   17.5492  -26.1085  -11.5900 N   0  0  0  0  0  0  0  0  0  0  0  0
   18.3073  -24.9562  -11.2506 C   0  0  0  0  0  0  0  0  0  0  0  0
   18.5775  -24.7065  -10.0307 N   0  0  0  0  0  0  0  0  0  0  0  0
   18.7880  -24.0488  -12.2379 N   0  0  0  0  0  0  0  0  0  0  0  0
   20.0373  -23.3432  -12.1008 C   0  0  0  0  0  0  0  0  0  0  0  0
   20.4094  -22.5813  -13.3460 C   0  0  0  0  0  0  0  0  0  0  0  0
   21.7304  -21.9207  -13.1579 C   0  0  0  0  0  0  0  0  0  0  0  0
   22.1639  -21.0452  -14.3217 C   0  0  2  0  0  0  0  0  0  0  0  0
   23.4868  -20.5517  -13.9656 N   0  0  0  0  0  0  0  0  0  0  0  0
   21.2613  -19.8861  -14.4330 C   0  0  0  0  0  0  0  0  0  0  0  0
   21.4694  -18.7725  -13.8815 O   0  0  0  0  0  0  0  0  0  0  0  0
   20.0977  -19.9856  -15.1833 O   0  0  0  0  0  0  0  0  0  0  0  0
  2  1  1  1
  3  4  1  0
  3  2  1  0
  4  5  1  0
  5  6  1  0
  7  6  1  0
  8  2  1  0
  9  8  2  0
 10  8  1  0
 11 10  1  0
 12 13  1  0
 12 11  1  0
 13 14  1  0
 14 10  1  0
 14 15  1  6
 15 16  2  0
 17 18  1  0
 18 19  2  0
 18 20  1  0
 20 21  1  0
 21 22  1  0
 22 23  1  0
 24 23  1  1
 25 15  1  0
 25 24  1  0
 26 24  1  0
 26 28  1  0
 27 26  2  0
M  END
$$$$
