KPR.pdb
     RDKit          3D

 28 28  0  0  1  0  0  0  0  0999 V2000
   28.6745  -23.4913  -16.5905 N   0  0  0  0  0  0  0  0  0  0  0  0
   28.0529  -22.2202  -16.8236 C   0  0  1  0  0  0  0  0  0  0  0  0
   27.3080  -22.2047  -18.1543 C   0  0  0  0  0  0  0  0  0  0  0  0
   28.2918  -22.2357  -19.2746 C   0  0  0  0  0  0  0  0  0  0  0  0
   27.5561  -22.1697  -20.5876 C   0  0  0  0  0  0  0  0  0  0  0  0
   28.4969  -22.2725  -21.7480 C   0  0  0  0  0  0  0  0  0  0  0  0
   27.7794  -22.2025  -23.0259 N   0  0  0  0  0  0  0  0  0  0  0  0
   27.1993  -21.7225  -15.7481 C   0  0  0  0  0  0  0  0  0  0  0  0
   26.6113  -22.6148  -15.0441 O   0  0  0  0  0  0  0  0  0  0  0  0
   26.9590  -20.3684  -15.4083 N   0  0  0  0  0  0  0  0  0  0  0  0
   27.4206  -19.1984  -16.1239 C   0  0  0  0  0  0  0  0  0  0  0  0
   26.5248  -18.1027  -15.5968 C   0  0  0  0  0  0  0  0  0  0  0  0
   26.4782  -18.4661  -14.1142 C   0  0  0  0  0  0  0  0  0  0  0  0
   26.1892  -19.9499  -14.2341 C   0  0  1  0  0  0  0  0  0  0  0  0
   24.7547  -20.2475  -14.3959 C   0  0  0  0  0  0  0  0  0  0  0  0
   24.2658  -20.2611  -15.5697 O   0  0  0  0  0  0  0  0  0  0  0  0
   19.2955  -23.7168   -8.2485 N   0  0  0  0  0  0  0  0  0  0  0  0
   18.4991  -23.5908   -9.4179 C   0  0  0  0  0  0  0  0  0  0  0  0
   17.2925  -24.0000   -9.4155 N   0  0  0  0  0  0  0  0  0  0  0  0
   19.0038  -23.0140  -10.6187 N   0  0  0  0  0  0  0  0  0  0  0  0
   20.3677  -22.5674  -10.7516 C   0  0  0  0  0  0  0  0  0  0  0  0
   20.6261  -21.8863  -12.0702 C   0  0  0  0  0  0  0  0  0  0  0  0
   22.0384  -21.4186  -12.1287 C   0  0  0  0  0  0  0  0  0  0  0  0
   22.5035  -21.0035  -13.5144 C   0  0  2  0  0  0  0  0  0  0  0  0
   23.8667  -20.5224  -13.3393 N   0  0  0  0  0  0  0  0  0  0  0  0
   21.6831  -19.8787  -13.9963 C   0  0  0  0  0  0  0  0  0  0  0  0
   20.5880  -20.0124  -14.6053 O   0  0  0  0  0  0  0  0  0  0  0  0
   22.1073  -18.5738  -13.7867 O   0  0  0  0  0  0  0  0  0  0  0  0
  2  1  1  1
  3  4  1  0
  3  2  1  0
  4  5  1  0
  5  6  1  0
  7  6  1  0
  8  2  1  0
  9  8  2  0
 10  8  1  0
 11 10  1  0
 12 13  1  0
 12 11  1  0
 13 14  1  0
 14 10  1  0
 14 15  1  6
 15 16  2  0
 17 18  1  0
 18 19  2  0
 18 20  1  0
 20 21  1  0
 21 22  1  0
 22 23  1  0
 24 23  1  1
 25 15  1  0
 25 24  1  0
 26 24  1  0
 26 28  1  0
 27 26  2  0
M  END
$$$$
