KPR.pdb
     RDKit          3D

 28 28  0  0  1  0  0  0  0  0999 V2000
   29.5494  -22.8184  -17.4658 N   0  0  0  0  0  0  0  0  0  0  0  0
   28.1439  -22.6322  -17.2501 C   0  0  1  0  0  0  0  0  0  0  0  0
   27.3950  -23.9595  -17.3088 C   0  0  0  0  0  0  0  0  0  0  0  0
   27.5994  -24.5865  -18.6463 C   0  0  0  0  0  0  0  0  0  0  0  0
   26.6962  -23.9225  -19.6527 C   0  0  0  0  0  0  0  0  0  0  0  0
   26.8404  -24.5401  -21.0092 C   0  0  0  0  0  0  0  0  0  0  0  0
   26.0622  -23.8090  -22.0152 N   0  0  0  0  0  0  0  0  0  0  0  0
   27.7778  -21.8853  -16.0497 C   0  0  0  0  0  0  0  0  0  0  0  0
   27.4828  -22.5893  -15.0227 O   0  0  0  0  0  0  0  0  0  0  0  0
   27.7171  -20.4770  -15.9078 N   0  0  0  0  0  0  0  0  0  0  0  0
   28.0112  -19.4885  -16.9228 C   0  0  0  0  0  0  0  0  0  0  0  0
   27.3650  -18.2377  -16.3759 C   0  0  0  0  0  0  0  0  0  0  0  0
   27.7319  -18.3547  -14.8981 C   0  0  0  0  0  0  0  0  0  0  0  0
   27.3439  -19.8015  -14.6625 C   0  0  1  0  0  0  0  0  0  0  0  0
   25.9107  -19.9738  -14.3643 C   0  0  0  0  0  0  0  0  0  0  0  0
   25.0999  -20.1055  -15.3350 O   0  0  0  0  0  0  0  0  0  0  0  0
   20.7413  -21.4741   -8.6209 N   0  0  0  0  0  0  0  0  0  0  0  0
   21.8614  -21.7738   -7.8002 C   0  0  0  0  0  0  0  0  0  0  0  0
   21.7579  -22.6386   -6.8701 N   0  0  0  0  0  0  0  0  0  0  0  0
   23.1219  -21.1343   -7.9770 N   0  0  0  0  0  0  0  0  0  0  0  0
   23.3510  -20.1384   -8.9934 C   0  0  0  0  0  0  0  0  0  0  0  0
   23.4434  -20.7336  -10.3742 C   0  0  0  0  0  0  0  0  0  0  0  0
   23.7486  -19.6652  -11.3652 C   0  0  0  0  0  0  0  0  0  0  0  0
   23.9378  -20.1658  -12.7873 C   0  0  2  0  0  0  0  0  0  0  0  0
   25.3569  -20.0049  -13.0709 N   0  0  0  0  0  0  0  0  0  0  0  0
   23.1877  -19.3059  -13.7193 C   0  0  0  0  0  0  0  0  0  0  0  0
   23.5671  -18.1618  -14.0865 O   0  0  0  0  0  0  0  0  0  0  0  0
   21.9827  -19.7465  -14.2489 O   0  0  0  0  0  0  0  0  0  0  0  0
  2  1  1  1
  3  4  1  0
  3  2  1  0
  4  5  1  0
  5  6  1  0
  7  6  1  0
  8  2  1  0
  9  8  2  0
 10  8  1  0
 11 10  1  0
 12 13  1  0
 12 11  1  0
 13 14  1  0
 14 10  1  0
 14 15  1  6
 15 16  2  0
 17 18  1  0
 18 19  2  0
 18 20  1  0
 20 21  1  0
 21 22  1  0
 22 23  1  0
 24 23  1  1
 25 15  1  0
 25 24  1  0
 26 24  1  0
 26 28  1  0
 27 26  2  0
M  END
$$$$
