LYD.pdb
     RDKit          3D

 29 29  0  0  1  0  0  0  0  0999 V2000
    8.6522  -21.1086   19.4087 C   0  0  0  0  0  0  0  0  0  0  0  0
    8.2220  -19.7391   18.8465 C   0  0  2  0  0  0  0  0  0  0  0  0
    8.3522  -19.8376   17.3478 C   0  0  0  0  0  0  0  0  0  0  0  0
    9.1826  -18.7484   19.4411 C   0  0  0  0  0  0  0  0  0  0  0  0
    8.8369  -17.3148   19.2340 C   0  0  2  0  0  0  0  0  0  0  0  0
    9.7740  -16.8380   18.1875 N   0  0  0  0  0  0  0  0  0  0  0  0
    9.0511  -16.4314   20.3939 C   0  0  0  0  0  0  0  0  0  0  0  0
   10.2372  -16.0409   20.6651 O   0  0  0  0  0  0  0  0  0  0  0  0
    6.9717  -12.1653   27.9908 O   0  0  0  0  0  0  0  0  0  0  0  0
    7.0190  -12.7046   26.7217 C   0  0  0  0  0  0  0  0  0  0  0  0
    7.6526  -12.0593   25.6774 C   0  0  0  0  0  0  0  0  0  0  0  0
    7.6776  -12.6335   24.4205 C   0  0  0  0  0  0  0  0  0  0  0  0
    7.0909  -13.8383   24.1559 C   0  0  0  0  0  0  0  0  0  0  0  0
    7.0589  -14.5169   22.8624 C   0  0  0  0  0  0  0  0  0  0  0  0
    8.3530  -15.1671   22.4678 C   0  0  2  0  0  0  0  0  0  0  0  0
    8.0723  -15.9405   21.2766 N   0  0  0  0  0  0  0  0  0  0  0  0
    8.8874  -16.0773   23.4924 C   0  0  0  0  0  0  0  0  0  0  0  0
    8.2921  -17.1643   23.7052 O   0  0  0  0  0  0  0  0  0  0  0  0
    6.4601  -14.4654   25.2273 C   0  0  0  0  0  0  0  0  0  0  0  0
    6.4222  -13.9115   26.4917 C   0  0  0  0  0  0  0  0  0  0  0  0
   10.0512  -15.7816   24.2551 N   0  0  0  0  0  0  0  0  0  0  0  0
   10.4775  -16.7892   25.2360 C   0  0  1  0  0  0  0  0  0  0  0  0
   11.9623  -16.9382   25.2147 C   0  0  0  0  0  0  0  0  0  0  0  0
   12.4273  -17.5809   23.9799 C   0  0  0  0  0  0  0  0  0  0  0  0
   11.8046  -18.5336   23.4564 O   0  0  0  0  0  0  0  0  0  0  0  0
   10.0523  -16.2543   26.5651 C   0  0  0  0  0  0  0  0  0  0  0  0
    9.6897  -14.9471   26.7624 O   0  0  0  0  0  0  0  0  0  0  0  0
   13.5959  -17.1561   23.3258 O   0  0  0  0  0  0  0  0  0  0  0  0
   10.0315  -17.0602   27.5472 O   0  0  0  0  0  0  0  0  0  0  0  0
  2  1  1  1
  2  4  1  0
  3  2  1  0
  5  4  1  0
  5  6  1  6
  7  5  1  0
  7  8  2  0
  9 10  1  0
 10 20  2  0
 10 11  1  0
 11 12  2  0
 12 13  1  0
 13 14  1  0
 15 14  1  1
 15 16  1  0
 16  7  1  0
 17 21  1  0
 17 15  1  0
 18 17  2  0
 19 13  2  0
 20 19  1  0
 22 21  1  0
 22 26  1  0
 23 24  1  0
 22 23  1  1
 24 28  1  0
 25 24  2  0
 26 27  1  0
 29 26  2  0
M  END
$$$$
