LYD.pdb
     RDKit          3D

 29 29  0  0  1  0  0  0  0  0999 V2000
    6.2729  -13.8215   20.3614 C   0  0  0  0  0  0  0  0  0  0  0  0
    7.7480  -13.3758   20.4052 C   0  0  2  0  0  0  0  0  0  0  0  0
    7.8018  -12.0261   19.7355 C   0  0  0  0  0  0  0  0  0  0  0  0
    8.5011  -14.4260   19.6385 C   0  0  0  0  0  0  0  0  0  0  0  0
    8.8588  -15.6500   20.4077 C   0  0  2  0  0  0  0  0  0  0  0  0
    7.5622  -16.2817   20.7547 N   0  0  0  0  0  0  0  0  0  0  0  0
    9.5469  -15.4206   21.6905 C   0  0  0  0  0  0  0  0  0  0  0  0
   10.7161  -14.9053   21.6834 O   0  0  0  0  0  0  0  0  0  0  0  0
   11.1270  -15.1593   30.4579 O   0  0  0  0  0  0  0  0  0  0  0  0
   10.5616  -15.2760   29.2047 C   0  0  0  0  0  0  0  0  0  0  0  0
   10.2196  -16.5029   28.6696 C   0  0  0  0  0  0  0  0  0  0  0  0
    9.6550  -16.5770   27.4103 C   0  0  0  0  0  0  0  0  0  0  0  0
    9.4137  -15.4672   26.6515 C   0  0  0  0  0  0  0  0  0  0  0  0
    8.8307  -15.4479   25.3118 C   0  0  0  0  0  0  0  0  0  0  0  0
    9.8268  -15.5821   24.1969 C   0  0  2  0  0  0  0  0  0  0  0  0
    9.0569  -15.7073   22.9773 N   0  0  0  0  0  0  0  0  0  0  0  0
   10.6885  -16.7679   24.3212 C   0  0  0  0  0  0  0  0  0  0  0  0
   10.2264  -17.8886   23.9874 O   0  0  0  0  0  0  0  0  0  0  0  0
    9.7683  -14.2449   27.2165 C   0  0  0  0  0  0  0  0  0  0  0  0
   10.3334  -14.1459   28.4726 C   0  0  0  0  0  0  0  0  0  0  0  0
   12.0253  -16.7025   24.8033 N   0  0  0  0  0  0  0  0  0  0  0  0
   12.8334  -17.9245   24.6915 C   0  0  1  0  0  0  0  0  0  0  0  0
   13.9755  -17.7075   23.7558 C   0  0  0  0  0  0  0  0  0  0  0  0
   13.9340  -18.6373   22.6211 C   0  0  0  0  0  0  0  0  0  0  0  0
   13.0428  -19.5115   22.5159 O   0  0  0  0  0  0  0  0  0  0  0  0
   13.3608  -18.1790   26.0665 C   0  0  0  0  0  0  0  0  0  0  0  0
   13.5415  -19.4390   26.5752 O   0  0  0  0  0  0  0  0  0  0  0  0
   14.8949  -18.5902   21.5971 O   0  0  0  0  0  0  0  0  0  0  0  0
   13.6499  -17.1713   26.7844 O   0  0  0  0  0  0  0  0  0  0  0  0
  2  1  1  6
  2  4  1  0
  3  2  1  0
  5  4  1  0
  5  6  1  1
  7  5  1  0
  7  8  2  0
  9 10  1  0
 10 20  2  0
 10 11  1  0
 11 12  2  0
 12 13  1  0
 13 14  1  0
 15 14  1  1
 15 16  1  0
 16  7  1  0
 17 21  1  0
 17 15  1  0
 18 17  2  0
 19 13  2  0
 20 19  1  0
 22 21  1  0
 22 26  1  0
 23 24  1  0
 22 23  1  6
 24 28  1  0
 25 24  2  0
 26 27  1  0
 29 26  2  0
M  END
$$$$
