LYD.pdb
     RDKit          3D

 29 29  0  0  1  0  0  0  0  0999 V2000
    6.5314  -13.7694   20.8898 C   0  0  0  0  0  0  0  0  0  0  0  0
    7.9847  -13.4010   20.5313 C   0  0  2  0  0  0  0  0  0  0  0  0
    7.9079  -12.1631   19.6741 C   0  0  0  0  0  0  0  0  0  0  0  0
    8.5188  -14.5868   19.7786 C   0  0  0  0  0  0  0  0  0  0  0  0
    8.7506  -15.8125   20.5919 C   0  0  2  0  0  0  0  0  0  0  0  0
    7.3966  -16.3008   20.9506 N   0  0  0  0  0  0  0  0  0  0  0  0
    9.4528  -15.6077   21.8712 C   0  0  0  0  0  0  0  0  0  0  0  0
   10.6632  -15.1984   21.8555 O   0  0  0  0  0  0  0  0  0  0  0  0
   10.8980  -15.2376   30.6773 O   0  0  0  0  0  0  0  0  0  0  0  0
   10.3761  -15.2327   29.4001 C   0  0  0  0  0  0  0  0  0  0  0  0
   10.3530  -14.0891   28.6254 C   0  0  0  0  0  0  0  0  0  0  0  0
    9.8212  -14.1260   27.3503 C   0  0  0  0  0  0  0  0  0  0  0  0
    9.3046  -15.2678   26.8070 C   0  0  0  0  0  0  0  0  0  0  0  0
    8.7160  -15.4006   25.4763 C   0  0  0  0  0  0  0  0  0  0  0  0
    9.7038  -15.6927   24.3844 C   0  0  2  0  0  0  0  0  0  0  0  0
    8.9357  -15.8120   23.1631 N   0  0  0  0  0  0  0  0  0  0  0  0
   10.4457  -16.9469   24.5861 C   0  0  0  0  0  0  0  0  0  0  0  0
    9.8692  -18.0367   24.3391 O   0  0  0  0  0  0  0  0  0  0  0  0
    9.3415  -16.4045   27.6106 C   0  0  0  0  0  0  0  0  0  0  0  0
    9.8677  -16.3920   28.8872 C   0  0  0  0  0  0  0  0  0  0  0  0
   11.7903  -16.9814   25.0492 N   0  0  0  0  0  0  0  0  0  0  0  0
   12.4513  -18.2934   25.0757 C   0  0  1  0  0  0  0  0  0  0  0  0
   13.6863  -18.2692   24.2383 C   0  0  0  0  0  0  0  0  0  0  0  0
   13.4789  -18.9277   22.9432 C   0  0  0  0  0  0  0  0  0  0  0  0
   12.3746  -19.4266   22.6254 O   0  0  0  0  0  0  0  0  0  0  0  0
   12.8260  -18.5205   26.5046 C   0  0  0  0  0  0  0  0  0  0  0  0
   12.6108  -17.5916   27.4893 O   0  0  0  0  0  0  0  0  0  0  0  0
   14.5125  -19.0295   21.9969 O   0  0  0  0  0  0  0  0  0  0  0  0
   13.3680  -19.6299   26.8042 O   0  0  0  0  0  0  0  0  0  0  0  0
  2  1  1  6
  2  4  1  0
  3  2  1  0
  5  4  1  0
  5  6  1  1
  7  5  1  0
  7  8  2  0
  9 10  1  0
 10 20  2  0
 10 11  1  0
 11 12  2  0
 12 13  1  0
 13 14  1  0
 15 14  1  1
 15 16  1  0
 16  7  1  0
 17 21  1  0
 17 15  1  0
 18 17  2  0
 19 13  2  0
 20 19  1  0
 22 21  1  0
 22 26  1  0
 23 24  1  0
 22 23  1  6
 24 28  1  0
 25 24  2  0
 26 27  1  0
 29 26  2  0
M  END
$$$$
