LYD.pdb
     RDKit          3D

 29 29  0  0  1  0  0  0  0  0999 V2000
    6.6053  -13.6220   20.7989 C   0  0  0  0  0  0  0  0  0  0  0  0
    8.0901  -13.3351   20.4996 C   0  0  2  0  0  0  0  0  0  0  0  0
    8.1199  -12.0660   19.6862 C   0  0  0  0  0  0  0  0  0  0  0  0
    8.5737  -14.5259   19.7211 C   0  0  0  0  0  0  0  0  0  0  0  0
    8.7233  -15.7856   20.5012 C   0  0  2  0  0  0  0  0  0  0  0  0
    7.3397  -16.1924   20.8485 N   0  0  0  0  0  0  0  0  0  0  0  0
    9.4369  -15.6619   21.7845 C   0  0  0  0  0  0  0  0  0  0  0  0
   10.6803  -15.3675   21.7766 O   0  0  0  0  0  0  0  0  0  0  0  0
   10.8688  -14.9544   30.5549 O   0  0  0  0  0  0  0  0  0  0  0  0
   10.3245  -15.1160   29.2974 C   0  0  0  0  0  0  0  0  0  0  0  0
    9.9960  -16.3617   28.7987 C   0  0  0  0  0  0  0  0  0  0  0  0
    9.4524  -16.4809   27.5336 C   0  0  0  0  0  0  0  0  0  0  0  0
    9.2192  -15.3985   26.7338 C   0  0  0  0  0  0  0  0  0  0  0  0
    8.6582  -15.4271   25.3850 C   0  0  0  0  0  0  0  0  0  0  0  0
    9.6553  -15.7194   24.3016 C   0  0  2  0  0  0  0  0  0  0  0  0
    8.8983  -15.8319   23.0727 N   0  0  0  0  0  0  0  0  0  0  0  0
   10.3906  -16.9769   24.5062 C   0  0  0  0  0  0  0  0  0  0  0  0
    9.8221  -18.0624   24.2241 O   0  0  0  0  0  0  0  0  0  0  0  0
    9.5599  -14.1562   27.2627 C   0  0  0  0  0  0  0  0  0  0  0  0
   10.1040  -14.0122   28.5237 C   0  0  0  0  0  0  0  0  0  0  0  0
   11.7202  -17.0194   25.0102 N   0  0  0  0  0  0  0  0  0  0  0  0
   12.4017  -18.3208   24.9802 C   0  0  1  0  0  0  0  0  0  0  0  0
   13.6005  -18.2583   24.0936 C   0  0  0  0  0  0  0  0  0  0  0  0
   13.6331  -19.3756   23.1426 C   0  0  0  0  0  0  0  0  0  0  0  0
   12.7274  -20.2405   23.1086 O   0  0  0  0  0  0  0  0  0  0  0  0
   12.8387  -18.5727   26.3871 C   0  0  0  0  0  0  0  0  0  0  0  0
   13.4173  -19.7483   26.7897 O   0  0  0  0  0  0  0  0  0  0  0  0
   14.6848  -19.5277   22.2235 O   0  0  0  0  0  0  0  0  0  0  0  0
   12.6585  -17.6454   27.2368 O   0  0  0  0  0  0  0  0  0  0  0  0
  2  1  1  6
  2  4  1  0
  3  2  1  0
  5  4  1  0
  5  6  1  1
  7  5  1  0
  7  8  2  0
  9 10  1  0
 10 20  2  0
 10 11  1  0
 11 12  2  0
 12 13  1  0
 13 14  1  0
 15 14  1  1
 15 16  1  0
 16  7  1  0
 17 21  1  0
 17 15  1  0
 18 17  2  0
 19 13  2  0
 20 19  1  0
 22 21  1  0
 22 26  1  0
 23 24  1  0
 22 23  1  6
 24 28  1  0
 25 24  2  0
 26 27  1  0
 29 26  2  0
M  END
$$$$
