LYD.pdb
     RDKit          3D

 29 29  0  0  1  0  0  0  0  0999 V2000
    7.5898  -12.8429   19.3070 C   0  0  0  0  0  0  0  0  0  0  0  0
    7.6591  -14.3771   19.1735 C   0  0  2  0  0  0  0  0  0  0  0  0
    6.2564  -14.8388   18.8697 C   0  0  0  0  0  0  0  0  0  0  0  0
    8.1477  -14.8682   20.5070 C   0  0  0  0  0  0  0  0  0  0  0  0
    9.4271  -14.2720   20.9816 C   0  0  2  0  0  0  0  0  0  0  0  0
   10.4422  -14.6891   19.9836 N   0  0  0  0  0  0  0  0  0  0  0  0
    9.9188  -14.7643   22.2806 C   0  0  0  0  0  0  0  0  0  0  0  0
   11.0008  -15.4430   22.3172 O   0  0  0  0  0  0  0  0  0  0  0  0
   10.8508  -15.3451   31.1293 O   0  0  0  0  0  0  0  0  0  0  0  0
   10.3731  -15.1736   29.8463 C   0  0  0  0  0  0  0  0  0  0  0  0
    9.6056  -16.1355   29.2184 C   0  0  0  0  0  0  0  0  0  0  0  0
    9.1461  -15.9252   27.9320 C   0  0  0  0  0  0  0  0  0  0  0  0
    9.4222  -14.7832   27.2353 C   0  0  0  0  0  0  0  0  0  0  0  0
    8.9888  -14.4768   25.8740 C   0  0  0  0  0  0  0  0  0  0  0  0
    9.9204  -14.9591   24.8003 C   0  0  2  0  0  0  0  0  0  0  0  0
    9.3231  -14.5708   23.5400 N   0  0  0  0  0  0  0  0  0  0  0  0
   10.1007  -16.4190   24.7939 C   0  0  0  0  0  0  0  0  0  0  0  0
   10.5772  -16.9738   25.8167 O   0  0  0  0  0  0  0  0  0  0  0  0
   10.1973  -13.8317   27.8933 C   0  0  0  0  0  0  0  0  0  0  0  0
   10.6675  -14.0194   29.1780 C   0  0  0  0  0  0  0  0  0  0  0  0
    9.7587  -17.2333   23.6787 N   0  0  0  0  0  0  0  0  0  0  0  0
    9.9871  -18.6783   23.8151 C   0  0  1  0  0  0  0  0  0  0  0  0
    9.4804  -19.3996   22.6109 C   0  0  0  0  0  0  0  0  0  0  0  0
    9.7384  -20.8421   22.6918 C   0  0  0  0  0  0  0  0  0  0  0  0
    9.7810  -21.5637   21.6685 O   0  0  0  0  0  0  0  0  0  0  0  0
   11.4704  -18.8395   23.9015 C   0  0  0  0  0  0  0  0  0  0  0  0
   12.3486  -18.0536   23.2015 O   0  0  0  0  0  0  0  0  0  0  0  0
    9.9501  -21.4827   23.9242 O   0  0  0  0  0  0  0  0  0  0  0  0
   11.9224  -19.7512   24.6624 O   0  0  0  0  0  0  0  0  0  0  0  0
  2  1  1  1
  2  4  1  0
  3  2  1  0
  5  4  1  0
  5  6  1  6
  7  5  1  0
  7  8  2  0
  9 10  1  0
 10 20  2  0
 10 11  1  0
 11 12  2  0
 12 13  1  0
 13 14  1  0
 15 14  1  1
 15 16  1  0
 16  7  1  0
 17 21  1  0
 17 15  1  0
 18 17  2  0
 19 13  2  0
 20 19  1  0
 22 21  1  0
 22 26  1  0
 23 24  1  0
 22 23  1  6
 24 28  1  0
 25 24  2  0
 26 27  1  0
 29 26  2  0
M  END
$$$$
