LYD.pdb
     RDKit          3D

 29 29  0  0  1  0  0  0  0  0999 V2000
    6.6099  -13.3055   20.0426 C   0  0  0  0  0  0  0  0  0  0  0  0
    8.0521  -13.0919   20.5435 C   0  0  2  0  0  0  0  0  0  0  0  0
    8.4551  -11.7102   20.0948 C   0  0  0  0  0  0  0  0  0  0  0  0
    8.8641  -14.1689   19.8812 C   0  0  0  0  0  0  0  0  0  0  0  0
    8.9007  -15.4758   20.5941 C   0  0  2  0  0  0  0  0  0  0  0  0
    7.4796  -15.8223   20.8404 N   0  0  0  0  0  0  0  0  0  0  0  0
    9.5439  -15.4631   21.9199 C   0  0  0  0  0  0  0  0  0  0  0  0
   10.7680  -15.1081   22.0118 O   0  0  0  0  0  0  0  0  0  0  0  0
   10.5367  -14.6446   30.6875 O   0  0  0  0  0  0  0  0  0  0  0  0
   10.0568  -14.8575   29.4115 C   0  0  0  0  0  0  0  0  0  0  0  0
    9.7264  -16.1195   28.9570 C   0  0  0  0  0  0  0  0  0  0  0  0
    9.2487  -16.2905   27.6714 C   0  0  0  0  0  0  0  0  0  0  0  0
    9.0841  -15.2448   26.8082 C   0  0  0  0  0  0  0  0  0  0  0  0
    8.5956  -15.3292   25.4337 C   0  0  0  0  0  0  0  0  0  0  0  0
    9.6299  -15.7479   24.4295 C   0  0  2  0  0  0  0  0  0  0  0  0
    8.9543  -15.8046   23.1504 N   0  0  0  0  0  0  0  0  0  0  0  0
   10.2095  -17.0719   24.7032 C   0  0  0  0  0  0  0  0  0  0  0  0
    9.5833  -18.0954   24.3273 O   0  0  0  0  0  0  0  0  0  0  0  0
    9.4250  -13.9849   27.2936 C   0  0  0  0  0  0  0  0  0  0  0  0
    9.9040  -13.7895   28.5740 C   0  0  0  0  0  0  0  0  0  0  0  0
   11.4507  -17.2461   25.3759 N   0  0  0  0  0  0  0  0  0  0  0  0
   11.9171  -18.6266   25.5648 C   0  0  1  0  0  0  0  0  0  0  0  0
   13.2325  -18.8269   24.8892 C   0  0  0  0  0  0  0  0  0  0  0  0
   13.1001  -18.8229   23.4276 C   0  0  0  0  0  0  0  0  0  0  0  0
   12.1663  -19.4238   22.8475 O   0  0  0  0  0  0  0  0  0  0  0  0
   12.0881  -18.7896   27.0406 C   0  0  0  0  0  0  0  0  0  0  0  0
   12.4458  -19.9774   27.6238 O   0  0  0  0  0  0  0  0  0  0  0  0
   14.0173  -18.1431   22.6087 O   0  0  0  0  0  0  0  0  0  0  0  0
   11.8890  -17.7717   27.7745 O   0  0  0  0  0  0  0  0  0  0  0  0
  2  1  1  6
  2  4  1  0
  3  2  1  0
  5  4  1  0
  5  6  1  1
  7  5  1  0
  7  8  2  0
  9 10  1  0
 10 20  2  0
 10 11  1  0
 11 12  2  0
 12 13  1  0
 13 14  1  0
 15 14  1  1
 15 16  1  0
 16  7  1  0
 17 21  1  0
 17 15  1  0
 18 17  2  0
 19 13  2  0
 20 19  1  0
 22 21  1  0
 22 26  1  0
 23 24  1  0
 22 23  1  6
 24 28  1  0
 25 24  2  0
 26 27  1  0
 29 26  2  0
M  END
$$$$
