LYD.pdb
     RDKit          3D

 29 29  0  0  1  0  0  0  0  0999 V2000
    7.9373  -13.7836   17.8932 C   0  0  0  0  0  0  0  0  0  0  0  0
    7.8002  -13.5047   19.4031 C   0  0  2  0  0  0  0  0  0  0  0  0
    7.4867  -12.0359   19.5349 C   0  0  0  0  0  0  0  0  0  0  0  0
    9.1353  -13.8607   19.9936 C   0  0  0  0  0  0  0  0  0  0  0  0
    9.2101  -15.1923   20.6562 C   0  0  2  0  0  0  0  0  0  0  0  0
    7.7993  -15.6051   20.8555 N   0  0  0  0  0  0  0  0  0  0  0  0
    9.8230  -15.2061   21.9962 C   0  0  0  0  0  0  0  0  0  0  0  0
   11.0476  -14.8632   22.1214 O   0  0  0  0  0  0  0  0  0  0  0  0
   10.7501  -14.8605   30.8060 O   0  0  0  0  0  0  0  0  0  0  0  0
   10.2742  -14.9675   29.5154 C   0  0  0  0  0  0  0  0  0  0  0  0
    9.7739  -16.1554   29.0181 C   0  0  0  0  0  0  0  0  0  0  0  0
    9.3064  -16.2211   27.7191 C   0  0  0  0  0  0  0  0  0  0  0  0
    9.3162  -15.1405   26.8836 C   0  0  0  0  0  0  0  0  0  0  0  0
    8.8528  -15.1167   25.4981 C   0  0  0  0  0  0  0  0  0  0  0  0
    9.8655  -15.5859   24.4943 C   0  0  2  0  0  0  0  0  0  0  0  0
    9.2028  -15.5619   23.2074 N   0  0  0  0  0  0  0  0  0  0  0  0
   10.3433  -16.9551   24.7407 C   0  0  0  0  0  0  0  0  0  0  0  0
    9.5738  -17.9179   24.4918 O   0  0  0  0  0  0  0  0  0  0  0  0
    9.8258  -13.9572   27.4120 C   0  0  0  0  0  0  0  0  0  0  0  0
   10.2983  -13.8673   28.7065 C   0  0  0  0  0  0  0  0  0  0  0  0
   11.6411  -17.2391   25.2493 N   0  0  0  0  0  0  0  0  0  0  0  0
   12.0209  -18.6549   25.3505 C   0  0  1  0  0  0  0  0  0  0  0  0
   13.3577  -18.8793   24.7261 C   0  0  0  0  0  0  0  0  0  0  0  0
   13.8171  -20.2616   24.9055 C   0  0  0  0  0  0  0  0  0  0  0  0
   13.0324  -21.1808   25.2353 O   0  0  0  0  0  0  0  0  0  0  0  0
   12.1041  -18.9399   26.8152 C   0  0  0  0  0  0  0  0  0  0  0  0
   12.7514  -18.1172   27.7002 O   0  0  0  0  0  0  0  0  0  0  0  0
   15.1625  -20.6192   24.7153 O   0  0  0  0  0  0  0  0  0  0  0  0
   11.5447  -19.9970   27.2442 O   0  0  0  0  0  0  0  0  0  0  0  0
  2  1  1  6
  2  4  1  0
  3  2  1  0
  5  4  1  0
  5  6  1  1
  7  5  1  0
  7  8  2  0
  9 10  1  0
 10 20  2  0
 10 11  1  0
 11 12  2  0
 12 13  1  0
 13 14  1  0
 15 14  1  1
 15 16  1  0
 16  7  1  0
 17 21  1  0
 17 15  1  0
 18 17  2  0
 19 13  2  0
 20 19  1  0
 22 21  1  0
 22 26  1  0
 23 24  1  0
 22 23  1  6
 24 28  1  0
 25 24  2  0
 26 27  1  0
 29 26  2  0
M  END
$$$$
