LYD.pdb
     RDKit          3D

 29 29  0  0  1  0  0  0  0  0999 V2000
    7.9827  -13.8788   18.5406 C   0  0  0  0  0  0  0  0  0  0  0  0
    7.4148  -13.3487   19.8721 C   0  0  2  0  0  0  0  0  0  0  0  0
    7.1058  -11.8900   19.6490 C   0  0  0  0  0  0  0  0  0  0  0  0
    8.5110  -13.5545   20.8791 C   0  0  0  0  0  0  0  0  0  0  0  0
    8.7974  -14.9715   21.2362 C   0  0  2  0  0  0  0  0  0  0  0  0
    7.4702  -15.6316   21.2953 N   0  0  0  0  0  0  0  0  0  0  0  0
    9.4091  -15.1863   22.5595 C   0  0  0  0  0  0  0  0  0  0  0  0
   10.6368  -14.8772   22.7326 O   0  0  0  0  0  0  0  0  0  0  0  0
    5.9061  -10.7245   26.7303 O   0  0  0  0  0  0  0  0  0  0  0  0
    6.4435  -11.9806   26.5377 C   0  0  0  0  0  0  0  0  0  0  0  0
    5.6800  -13.0399   26.0868 C   0  0  0  0  0  0  0  0  0  0  0  0
    6.2565  -14.2831   25.9067 C   0  0  0  0  0  0  0  0  0  0  0  0
    7.5778  -14.5192   26.1601 C   0  0  0  0  0  0  0  0  0  0  0  0
    8.2708  -15.7965   26.0079 C   0  0  0  0  0  0  0  0  0  0  0  0
    9.3974  -15.7797   25.0161 C   0  0  2  0  0  0  0  0  0  0  0  0
    8.7844  -15.7085   23.7064 N   0  0  0  0  0  0  0  0  0  0  0  0
   10.2391  -16.9851   25.0655 C   0  0  0  0  0  0  0  0  0  0  0  0
    9.7038  -18.0847   25.3576 O   0  0  0  0  0  0  0  0  0  0  0  0
    8.3224  -13.4332   26.6132 C   0  0  0  0  0  0  0  0  0  0  0  0
    7.7686  -12.1822   26.8005 C   0  0  0  0  0  0  0  0  0  0  0  0
   11.6358  -16.9619   24.7965 N   0  0  0  0  0  0  0  0  0  0  0  0
   12.3088  -18.2609   24.6598 C   0  0  1  0  0  0  0  0  0  0  0  0
   11.7360  -19.0237   23.5122 C   0  0  0  0  0  0  0  0  0  0  0  0
   12.4201  -20.3073   23.3161 C   0  0  0  0  0  0  0  0  0  0  0  0
   12.7269  -20.7245   22.1753 O   0  0  0  0  0  0  0  0  0  0  0  0
   13.7401  -17.9386   24.3756 C   0  0  0  0  0  0  0  0  0  0  0  0
   14.7612  -18.8293   24.5833 O   0  0  0  0  0  0  0  0  0  0  0  0
   12.7635  -21.1302   24.4019 O   0  0  0  0  0  0  0  0  0  0  0  0
   14.0066  -16.7823   23.9214 O   0  0  0  0  0  0  0  0  0  0  0  0
  2  1  1  6
  2  4  1  0
  3  2  1  0
  5  4  1  0
  5  6  1  1
  7  5  1  0
  7  8  2  0
  9 10  1  0
 10 20  2  0
 10 11  1  0
 11 12  2  0
 12 13  1  0
 13 14  1  0
 15 14  1  1
 15 16  1  0
 16  7  1  0
 17 21  1  0
 17 15  1  0
 18 17  2  0
 19 13  2  0
 20 19  1  0
 22 21  1  0
 22 26  1  0
 23 24  1  0
 22 23  1  6
 24 28  1  0
 25 24  2  0
 26 27  1  0
 29 26  2  0
M  END
$$$$
