LYD.pdb
     RDKit          3D

 29 29  0  0  1  0  0  0  0  0999 V2000
    7.1928  -18.5343   19.0308 C   0  0  0  0  0  0  0  0  0  0  0  0
    8.7013  -18.7896   18.8422 C   0  0  2  0  0  0  0  0  0  0  0  0
    8.8515  -20.2683   18.5897 C   0  0  0  0  0  0  0  0  0  0  0  0
    9.3392  -18.3612   20.1336 C   0  0  0  0  0  0  0  0  0  0  0  0
    9.1140  -16.9411   20.5211 C   0  0  2  0  0  0  0  0  0  0  0  0
    9.7362  -16.1410   19.4380 N   0  0  0  0  0  0  0  0  0  0  0  0
    9.7712  -16.5063   21.7663 C   0  0  0  0  0  0  0  0  0  0  0  0
   11.0119  -16.2021   21.7390 O   0  0  0  0  0  0  0  0  0  0  0  0
   10.7255  -14.4019   30.3974 O   0  0  0  0  0  0  0  0  0  0  0  0
   10.2573  -14.7054   29.1355 C   0  0  0  0  0  0  0  0  0  0  0  0
    9.8674  -15.9848   28.7897 C   0  0  0  0  0  0  0  0  0  0  0  0
    9.4036  -16.2476   27.5145 C   0  0  0  0  0  0  0  0  0  0  0  0
    9.3107  -15.2781   26.5568 C   0  0  0  0  0  0  0  0  0  0  0  0
    8.8425  -15.4624   25.1850 C   0  0  0  0  0  0  0  0  0  0  0  0
    9.8846  -15.9764   24.2348 C   0  0  2  0  0  0  0  0  0  0  0  0
    9.1789  -16.3755   23.0354 N   0  0  0  0  0  0  0  0  0  0  0  0
   10.6191  -17.1436   24.7467 C   0  0  0  0  0  0  0  0  0  0  0  0
   10.0647  -18.2715   24.7078 O   0  0  0  0  0  0  0  0  0  0  0  0
    9.7104  -13.9986   26.9338 C   0  0  0  0  0  0  0  0  0  0  0  0
   10.1768  -13.7120   28.2016 C   0  0  0  0  0  0  0  0  0  0  0  0
   11.9327  -17.0526   25.2850 N   0  0  0  0  0  0  0  0  0  0  0  0
   12.6078  -18.3167   25.6094 C   0  0  1  0  0  0  0  0  0  0  0  0
   14.0255  -18.2819   25.1444 C   0  0  0  0  0  0  0  0  0  0  0  0
   14.7539  -19.4972   25.5271 C   0  0  0  0  0  0  0  0  0  0  0  0
   14.1594  -20.5259   25.9243 O   0  0  0  0  0  0  0  0  0  0  0  0
   12.5777  -18.4117   27.1006 C   0  0  0  0  0  0  0  0  0  0  0  0
   12.1225  -19.5185   27.7689 O   0  0  0  0  0  0  0  0  0  0  0  0
   16.1560  -19.5634   25.4656 O   0  0  0  0  0  0  0  0  0  0  0  0
   12.9962  -17.4127   27.7649 O   0  0  0  0  0  0  0  0  0  0  0  0
  2  1  1  1
  2  4  1  0
  3  2  1  0
  5  4  1  0
  5  6  1  6
  7  5  1  0
  7  8  2  0
  9 10  1  0
 10 20  2  0
 10 11  1  0
 11 12  2  0
 12 13  1  0
 13 14  1  0
 15 14  1  1
 15 16  1  0
 16  7  1  0
 17 21  1  0
 17 15  1  0
 18 17  2  0
 19 13  2  0
 20 19  1  0
 22 21  1  0
 22 26  1  0
 23 24  1  0
 22 23  1  1
 24 28  1  0
 25 24  2  0
 26 27  1  0
 29 26  2  0
M  END
$$$$
