LYD.pdb
     RDKit          3D

 29 29  0  0  1  0  0  0  0  0999 V2000
    9.0742  -20.0196   19.3899 C   0  0  0  0  0  0  0  0  0  0  0  0
   10.5767  -19.8494   19.6894 C   0  0  2  0  0  0  0  0  0  0  0  0
   11.0472  -21.1663   20.2528 C   0  0  0  0  0  0  0  0  0  0  0  0
   10.6556  -18.7353   20.6948 C   0  0  0  0  0  0  0  0  0  0  0  0
   10.0587  -17.4401   20.2662 C   0  0  2  0  0  0  0  0  0  0  0  0
   11.0074  -16.8880   19.2684 N   0  0  0  0  0  0  0  0  0  0  0  0
    9.9405  -16.4123   21.3157 C   0  0  0  0  0  0  0  0  0  0  0  0
   10.9845  -15.7682   21.6731 O   0  0  0  0  0  0  0  0  0  0  0  0
    6.3212  -11.0477   27.4170 O   0  0  0  0  0  0  0  0  0  0  0  0
    6.5293  -11.9586   26.4018 C   0  0  0  0  0  0  0  0  0  0  0  0
    6.0906  -13.2655   26.4925 C   0  0  0  0  0  0  0  0  0  0  0  0
    6.3191  -14.1473   25.4531 C   0  0  0  0  0  0  0  0  0  0  0  0
    6.9744  -13.7784   24.3128 C   0  0  0  0  0  0  0  0  0  0  0  0
    7.2684  -14.6394   23.1695 C   0  0  0  0  0  0  0  0  0  0  0  0
    8.7157  -15.0105   23.0250 C   0  0  2  0  0  0  0  0  0  0  0  0
    8.7725  -16.0326   22.0013 N   0  0  0  0  0  0  0  0  0  0  0  0
    9.3055  -15.5586   24.2561 C   0  0  0  0  0  0  0  0  0  0  0  0
    9.4775  -14.7916   25.2375 O   0  0  0  0  0  0  0  0  0  0  0  0
    7.4048  -12.4555   24.2495 C   0  0  0  0  0  0  0  0  0  0  0  0
    7.1880  -11.5565   25.2750 C   0  0  0  0  0  0  0  0  0  0  0  0
    9.6906  -16.9218   24.3860 N   0  0  0  0  0  0  0  0  0  0  0  0
   10.3680  -17.3060   25.6319 C   0  0  1  0  0  0  0  0  0  0  0  0
    9.5833  -18.3547   26.3471 C   0  0  0  0  0  0  0  0  0  0  0  0
   10.1888  -18.7022   27.6381 C   0  0  0  0  0  0  0  0  0  0  0  0
   11.2567  -18.1767   28.0294 O   0  0  0  0  0  0  0  0  0  0  0  0
   11.6842  -17.8740   25.2094 C   0  0  0  0  0  0  0  0  0  0  0  0
   12.8846  -17.3996   25.6710 O   0  0  0  0  0  0  0  0  0  0  0  0
    9.5972  -19.6432   28.4975 O   0  0  0  0  0  0  0  0  0  0  0  0
   11.6734  -18.8401   24.3842 O   0  0  0  0  0  0  0  0  0  0  0  0
  2  1  1  1
  2  4  1  0
  3  2  1  0
  5  4  1  0
  5  6  1  6
  7  5  1  0
  7  8  2  0
  9 10  1  0
 10 20  2  0
 10 11  1  0
 11 12  2  0
 12 13  1  0
 13 14  1  0
 15 14  1  1
 15 16  1  0
 16  7  1  0
 17 21  1  0
 17 15  1  0
 18 17  2  0
 19 13  2  0
 20 19  1  0
 22 21  1  0
 22 26  1  0
 23 24  1  0
 22 23  1  6
 24 28  1  0
 25 24  2  0
 26 27  1  0
 29 26  2  0
M  END
$$$$
