LSR.pdb
     RDKit          3D

 26 25  0  0  1  0  0  0  0  0999 V2000
   32.1156  -22.0847  -10.2845 C   0  0  0  0  0  0  0  0  0  0  0  0
   30.6444  -21.9712  -10.0481 C   0  0  1  0  0  0  0  0  0  0  0  0
   30.4251  -21.3565   -8.6696 C   0  0  0  0  0  0  0  0  0  0  0  0
   29.9149  -21.1802  -11.1131 C   0  0  0  0  0  0  0  0  0  0  0  0
   28.4603  -21.0860  -10.7162 C   0  0  2  0  0  0  0  0  0  0  0  0
   27.9298  -22.4103  -10.4734 N   0  0  0  0  0  0  0  0  0  0  0  0
   27.6307  -20.4151  -11.7162 C   0  0  0  0  0  0  0  0  0  0  0  0
   28.0105  -19.3529  -12.2358 O   0  0  0  0  0  0  0  0  0  0  0  0
   25.5161  -19.9158  -15.5964 O   0  0  0  0  0  0  0  0  0  0  0  0
   26.2982  -20.4203  -14.5689 C   0  0  0  0  0  0  0  0  0  0  0  0
   25.5977  -20.3910  -13.2369 C   0  0  2  0  0  0  0  0  0  0  0  0
   26.3597  -20.9159  -12.1573 N   0  0  0  0  0  0  0  0  0  0  0  0
   24.3328  -21.1412  -13.3714 C   0  0  0  0  0  0  0  0  0  0  0  0
   24.3654  -22.3972  -13.4311 O   0  0  0  0  0  0  0  0  0  0  0  0
   18.1223  -24.0547  -10.4980 N   0  0  0  0  0  0  0  0  0  0  0  0
   18.9155  -23.5735   -9.4234 C   0  0  0  0  0  0  0  0  0  0  0  0
   19.2372  -24.3364   -8.4121 N   0  0  0  0  0  0  0  0  0  0  0  0
   19.4059  -22.2382   -9.3820 N   0  0  0  0  0  0  0  0  0  0  0  0
   19.1437  -21.3140  -10.4710 C   0  0  0  0  0  0  0  0  0  0  0  0
   19.8587  -21.6618  -11.7217 C   0  0  0  0  0  0  0  0  0  0  0  0
   21.0984  -20.9188  -12.0339 C   0  0  0  0  0  0  0  0  0  0  0  0
   21.7963  -21.2569  -13.3022 C   0  0  2  0  0  0  0  0  0  0  0  0
   23.0608  -20.5355  -13.4392 N   0  0  0  0  0  0  0  0  0  0  0  0
   21.0312  -21.0962  -14.5361 C   0  0  0  0  0  0  0  0  0  0  0  0
   21.0476  -20.0112  -15.1958 O   0  0  0  0  0  0  0  0  0  0  0  0
   20.2554  -22.1288  -15.0361 O   0  0  0  0  0  0  0  0  0  0  0  0
  2  3  1  1
  2  1  1  0
  4  2  1  0
  5  6  1  6
  5  4  1  0
  7  5  1  0
  8  7  2  0
  9 10  1  0
 11 10  1  6
 11 12  1  0
 12  7  1  0
 13 11  1  0
 13 14  2  0
 16 17  2  0
 16 15  1  0
 18 16  1  0
 19 18  1  0
 20 19  1  0
 21 20  1  0
 22 21  1  1
 23 22  1  0
 23 13  1  0
 24 22  1  0
 25 24  2  0
 26 24  1  0
M  END
$$$$
