LSR.pdb
     RDKit          3D

 26 25  0  0  1  0  0  0  0  0999 V2000
   22.4031  -30.6233  -24.4360 C   0  0  0  0  0  0  0  0  0  0  0  0
   22.1786  -29.5778  -23.3921 C   0  0  1  0  0  0  0  0  0  0  0  0
   21.1371  -30.0981  -22.4070 C   0  0  0  0  0  0  0  0  0  0  0  0
   23.4406  -29.1564  -22.6697 C   0  0  0  0  0  0  0  0  0  0  0  0
   23.0624  -28.1479  -21.6105 C   0  0  2  0  0  0  0  0  0  0  0  0
   22.9672  -26.8290  -22.1984 N   0  0  0  0  0  0  0  0  0  0  0  0
   24.0026  -28.1051  -20.4913 C   0  0  0  0  0  0  0  0  0  0  0  0
   25.2110  -27.9032  -20.6946 O   0  0  0  0  0  0  0  0  0  0  0  0
   22.8559  -28.9527  -16.3871 O   0  0  0  0  0  0  0  0  0  0  0  0
   23.8024  -27.9844  -16.6846 C   0  0  0  0  0  0  0  0  0  0  0  0
   24.4884  -28.2276  -18.0022 C   0  0  2  0  0  0  0  0  0  0  0  0
   23.6135  -28.2870  -19.1214 N   0  0  0  0  0  0  0  0  0  0  0  0
   25.2512  -29.4873  -17.8926 C   0  0  0  0  0  0  0  0  0  0  0  0
   24.7935  -30.5321  -18.4228 O   0  0  0  0  0  0  0  0  0  0  0  0
   33.9811  -30.9828  -16.7026 N   0  0  0  0  0  0  0  0  0  0  0  0
   33.3981  -32.1207  -17.3198 C   0  0  0  0  0  0  0  0  0  0  0  0
   34.1288  -33.0998  -17.7842 N   0  0  0  0  0  0  0  0  0  0  0  0
   31.9902  -32.2638  -17.4696 N   0  0  0  0  0  0  0  0  0  0  0  0
   31.0749  -31.3310  -16.8365 C   0  0  0  0  0  0  0  0  0  0  0  0
   29.6509  -31.6073  -17.1406 C   0  0  0  0  0  0  0  0  0  0  0  0
   28.6484  -30.6152  -16.6965 C   0  0  0  0  0  0  0  0  0  0  0  0
   27.2330  -30.8545  -17.0831 C   0  0  2  0  0  0  0  0  0  0  0  0
   26.4853  -29.6053  -17.2201 N   0  0  0  0  0  0  0  0  0  0  0  0
   26.4665  -31.7670  -16.2384 C   0  0  0  0  0  0  0  0  0  0  0  0
   25.7759  -31.3488  -15.2581 O   0  0  0  0  0  0  0  0  0  0  0  0
   26.4637  -33.1311  -16.4780 O   0  0  0  0  0  0  0  0  0  0  0  0
  2  3  1  1
  2  1  1  0
  4  2  1  0
  5  6  1  6
  5  4  1  0
  7  5  1  0
  8  7  2  0
  9 10  1  0
 11 10  1  1
 11 12  1  0
 12  7  1  0
 13 11  1  0
 13 14  2  0
 16 17  2  0
 16 15  1  0
 18 16  1  0
 19 18  1  0
 20 19  1  0
 21 20  1  0
 22 21  1  1
 23 22  1  0
 23 13  1  0
 24 22  1  0
 25 24  2  0
 26 24  1  0
M  END
$$$$
