LSR.pdb
     RDKit          3D

 26 25  0  0  1  0  0  0  0  0999 V2000
   16.5290  -13.4600  -20.4579 C   0  0  0  0  0  0  0  0  0  0  0  0
   17.6364  -13.7324  -19.4920 C   0  0  1  0  0  0  0  0  0  0  0  0
   18.9344  -13.8820  -20.2787 C   0  0  0  0  0  0  0  0  0  0  0  0
   17.7780  -12.6791  -18.4138 C   0  0  0  0  0  0  0  0  0  0  0  0
   18.9020  -13.0949  -17.4941 C   0  0  2  0  0  0  0  0  0  0  0  0
   18.5255  -14.2864  -16.7643 N   0  0  0  0  0  0  0  0  0  0  0  0
   19.2853  -12.0529  -16.5423 C   0  0  0  0  0  0  0  0  0  0  0  0
   18.5098  -11.7196  -15.6314 O   0  0  0  0  0  0  0  0  0  0  0  0
   23.0903  -10.0469  -16.7574 O   0  0  0  0  0  0  0  0  0  0  0  0
   22.4284  -10.1685  -15.5454 C   0  0  0  0  0  0  0  0  0  0  0  0
   20.9393  -10.3164  -15.7086 C   0  0  2  0  0  0  0  0  0  0  0  0
   20.5425  -11.3612  -16.5876 N   0  0  0  0  0  0  0  0  0  0  0  0
   20.4034   -9.0261  -16.1867 C   0  0  0  0  0  0  0  0  0  0  0  0
   20.1694   -8.8733  -17.4132 O   0  0  0  0  0  0  0  0  0  0  0  0
   13.1612   -4.5758  -14.8431 N   0  0  0  0  0  0  0  0  0  0  0  0
   13.9638   -3.7266  -15.6493 C   0  0  0  0  0  0  0  0  0  0  0  0
   13.4762   -2.6528  -16.2128 N   0  0  0  0  0  0  0  0  0  0  0  0
   15.3409   -3.9913  -15.8919 N   0  0  0  0  0  0  0  0  0  0  0  0
   15.9729   -5.1891  -15.3680 C   0  0  0  0  0  0  0  0  0  0  0  0
   17.4150   -5.2842  -15.6967 C   0  0  0  0  0  0  0  0  0  0  0  0
   18.1061   -6.5560  -15.3948 C   0  0  0  0  0  0  0  0  0  0  0  0
   19.5316   -6.6717  -15.8005 C   0  0  2  0  0  0  0  0  0  0  0  0
   20.1288   -7.9270  -15.3466 N   0  0  0  0  0  0  0  0  0  0  0  0
   20.4140   -5.5711  -15.4215 C   0  0  0  0  0  0  0  0  0  0  0  0
   21.2951   -5.7026  -14.5164 O   0  0  0  0  0  0  0  0  0  0  0  0
   20.3224   -4.3355  -16.0405 O   0  0  0  0  0  0  0  0  0  0  0  0
  2  3  1  6
  2  1  1  0
  4  2  1  0
  5  6  1  1
  5  4  1  0
  7  5  1  0
  8  7  2  0
  9 10  1  0
 11 10  1  6
 11 12  1  0
 12  7  1  0
 13 11  1  0
 13 14  2  0
 16 17  2  0
 16 15  1  0
 18 16  1  0
 19 18  1  0
 20 19  1  0
 21 20  1  0
 22 21  1  1
 23 22  1  0
 23 13  1  0
 24 22  1  0
 25 24  2  0
 26 24  1  0
M  END
$$$$
