LSR.pdb
     RDKit          3D

 26 25  0  0  1  0  0  0  0  0999 V2000
   17.3095  -13.2636  -20.1044 C   0  0  0  0  0  0  0  0  0  0  0  0
   18.2675  -13.1843  -18.9602 C   0  0  1  0  0  0  0  0  0  0  0  0
   19.6801  -13.3772  -19.5019 C   0  0  0  0  0  0  0  0  0  0  0  0
   18.1653  -11.8987  -18.1671 C   0  0  0  0  0  0  0  0  0  0  0  0
   19.1569  -11.9672  -17.0295 C   0  0  2  0  0  0  0  0  0  0  0  0
   18.7310  -12.9579  -16.0644 N   0  0  0  0  0  0  0  0  0  0  0  0
   19.3444  -10.6868  -16.3485 C   0  0  0  0  0  0  0  0  0  0  0  0
   18.3632  -10.0421  -15.9438 O   0  0  0  0  0  0  0  0  0  0  0  0
   23.2079   -8.8578  -16.0257 O   0  0  0  0  0  0  0  0  0  0  0  0
   22.2694   -8.6012  -15.0381 C   0  0  0  0  0  0  0  0  0  0  0  0
   20.8568   -8.8300  -15.5049 C   0  0  2  0  0  0  0  0  0  0  0  0
   20.6315  -10.0991  -16.1052 N   0  0  0  0  0  0  0  0  0  0  0  0
   20.5123   -7.7550  -16.4569 C   0  0  0  0  0  0  0  0  0  0  0  0
   20.2033   -8.0551  -17.6388 O   0  0  0  0  0  0  0  0  0  0  0  0
   14.1620   -5.0338  -20.3442 N   0  0  0  0  0  0  0  0  0  0  0  0
   14.9312   -3.8413  -20.3868 C   0  0  0  0  0  0  0  0  0  0  0  0
   14.5044   -2.7706  -21.0029 N   0  0  0  0  0  0  0  0  0  0  0  0
   16.2070   -3.7396  -19.7645 N   0  0  0  0  0  0  0  0  0  0  0  0
   16.7626   -4.8541  -19.0175 C   0  0  0  0  0  0  0  0  0  0  0  0
   18.0986   -4.5686  -18.4430 C   0  0  0  0  0  0  0  0  0  0  0  0
   18.7544   -5.6399  -17.6629 C   0  0  0  0  0  0  0  0  0  0  0  0
   20.0617   -5.3219  -17.0306 C   0  0  2  0  0  0  0  0  0  0  0  0
   20.5047   -6.3835  -16.1279 N   0  0  0  0  0  0  0  0  0  0  0  0
   20.1595   -4.0433  -16.3311 C   0  0  0  0  0  0  0  0  0  0  0  0
   19.9699   -3.9507  -15.0789 O   0  0  0  0  0  0  0  0  0  0  0  0
   20.4661   -2.8771  -17.0124 O   0  0  0  0  0  0  0  0  0  0  0  0
  2  3  1  6
  2  1  1  0
  4  2  1  0
  5  6  1  1
  5  4  1  0
  7  5  1  0
  8  7  2  0
  9 10  1  0
 11 10  1  6
 11 12  1  0
 12  7  1  0
 13 11  1  0
 13 14  2  0
 16 17  2  0
 16 15  1  0
 18 16  1  0
 19 18  1  0
 20 19  1  0
 21 20  1  0
 22 21  1  1
 23 22  1  0
 23 13  1  0
 24 22  1  0
 25 24  2  0
 26 24  1  0
M  END
$$$$
