LSR.pdb
     RDKit          3D

 26 25  0  0  1  0  0  0  0  0999 V2000
   19.7103  -18.8411  -12.7310 C   0  0  0  0  0  0  0  0  0  0  0  0
   20.1970  -20.2036  -12.3568 C   0  0  1  0  0  0  0  0  0  0  0  0
   21.3002  -20.0505  -11.3150 C   0  0  0  0  0  0  0  0  0  0  0  0
   19.1052  -21.1245  -11.8544 C   0  0  0  0  0  0  0  0  0  0  0  0
   19.7118  -22.4872  -11.6154 C   0  0  2  0  0  0  0  0  0  0  0  0
   20.0782  -23.0912  -12.8784 N   0  0  0  0  0  0  0  0  0  0  0  0
   18.8239  -23.3959  -10.8912 C   0  0  0  0  0  0  0  0  0  0  0  0
   17.8412  -23.8985  -11.4603 O   0  0  0  0  0  0  0  0  0  0  0  0
   18.9440  -23.6146   -6.7097 O   0  0  0  0  0  0  0  0  0  0  0  0
   18.5656  -24.7968   -7.3269 C   0  0  0  0  0  0  0  0  0  0  0  0
   18.1476  -24.5971   -8.7591 C   0  0  2  0  0  0  0  0  0  0  0  0
   19.0146  -23.7626   -9.5163 N   0  0  0  0  0  0  0  0  0  0  0  0
   16.7815  -24.0362   -8.7606 C   0  0  0  0  0  0  0  0  0  0  0  0
   16.6121  -22.8291   -9.0714 O   0  0  0  0  0  0  0  0  0  0  0  0
   10.9085  -18.8832   -9.2532 N   0  0  0  0  0  0  0  0  0  0  0  0
   11.7267  -19.5994   -8.3405 C   0  0  0  0  0  0  0  0  0  0  0  0
   12.2250  -19.0319   -7.2738 N   0  0  0  0  0  0  0  0  0  0  0  0
   12.0525  -20.9717   -8.5304 N   0  0  0  0  0  0  0  0  0  0  0  0
   12.3807  -21.4840   -9.8489 C   0  0  0  0  0  0  0  0  0  0  0  0
   12.6181  -22.9468   -9.8685 C   0  0  0  0  0  0  0  0  0  0  0  0
   14.0026  -23.4211   -9.6574 C   0  0  0  0  0  0  0  0  0  0  0  0
   14.2693  -24.2292   -8.4385 C   0  0  2  0  0  0  0  0  0  0  0  0
   15.6261  -24.7746   -8.4306 N   0  0  0  0  0  0  0  0  0  0  0  0
   13.3302  -25.3097   -8.1481 C   0  0  0  0  0  0  0  0  0  0  0  0
   12.1334  -25.0771   -7.7931 O   0  0  0  0  0  0  0  0  0  0  0  0
   13.7130  -26.6368   -8.2511 O   0  0  0  0  0  0  0  0  0  0  0  0
  2  3  1  1
  2  1  1  0
  4  2  1  0
  5  6  1  6
  5  4  1  0
  7  5  1  0
  8  7  2  0
  9 10  1  0
 11 10  1  1
 11 12  1  0
 12  7  1  0
 13 11  1  0
 13 14  2  0
 16 17  2  0
 16 15  1  0
 18 16  1  0
 19 18  1  0
 20 19  1  0
 21 20  1  0
 22 21  1  6
 23 22  1  0
 23 13  1  0
 24 22  1  0
 25 24  2  0
 26 24  1  0
M  END
$$$$
