LSR.pdb
     RDKit          3D

 26 25  0  0  1  0  0  0  0  0999 V2000
   38.7763  -10.2785  -15.5177 C   0  0  0  0  0  0  0  0  0  0  0  0
   38.0737  -11.2076  -14.5814 C   0  0  1  0  0  0  0  0  0  0  0  0
   38.9034  -11.3237  -13.3070 C   0  0  0  0  0  0  0  0  0  0  0  0
   36.6526  -10.7934  -14.2635 C   0  0  0  0  0  0  0  0  0  0  0  0
   36.5815   -9.2850  -14.3046 C   0  0  2  0  0  0  0  0  0  0  0  0
   37.0069   -8.7375  -13.0344 N   0  0  0  0  0  0  0  0  0  0  0  0
   35.2467   -8.7778  -14.6203 C   0  0  0  0  0  0  0  0  0  0  0  0
   34.2542   -9.1968  -14.0024 O   0  0  0  0  0  0  0  0  0  0  0  0
   34.6088   -5.6069  -17.4520 O   0  0  0  0  0  0  0  0  0  0  0  0
   33.6851   -5.8728  -16.4530 C   0  0  0  0  0  0  0  0  0  0  0  0
   33.7078   -7.3105  -16.0078 C   0  0  2  0  0  0  0  0  0  0  0  0
   34.9919   -7.7922  -15.6326 N   0  0  0  0  0  0  0  0  0  0  0  0
   33.1618   -8.1352  -17.1044 C   0  0  0  0  0  0  0  0  0  0  0  0
   33.9535   -8.7152  -17.8913 O   0  0  0  0  0  0  0  0  0  0  0  0
   24.9934  -11.7307  -18.7379 N   0  0  0  0  0  0  0  0  0  0  0  0
   25.8626  -12.1563  -19.7766 C   0  0  0  0  0  0  0  0  0  0  0  0
   25.4503  -12.9373  -20.7400 N   0  0  0  0  0  0  0  0  0  0  0  0
   27.2285  -11.7605  -19.8318 N   0  0  0  0  0  0  0  0  0  0  0  0
   27.8180  -10.9676  -18.7676 C   0  0  0  0  0  0  0  0  0  0  0  0
   29.1973  -10.5154  -19.0670 C   0  0  0  0  0  0  0  0  0  0  0  0
   29.8741   -9.6643  -18.0651 C   0  0  0  0  0  0  0  0  0  0  0  0
   31.2353   -9.1680  -18.3982 C   0  0  2  0  0  0  0  0  0  0  0  0
   31.7837   -8.3235  -17.3378 N   0  0  0  0  0  0  0  0  0  0  0  0
   31.3872   -8.4729  -19.6739 C   0  0  0  0  0  0  0  0  0  0  0  0
   31.1802   -7.2248  -19.7834 O   0  0  0  0  0  0  0  0  0  0  0  0
   31.7664   -9.1542  -20.8186 O   0  0  0  0  0  0  0  0  0  0  0  0
  2  3  1  1
  2  1  1  0
  4  2  1  0
  5  6  1  1
  5  4  1  0
  7  5  1  0
  8  7  2  0
  9 10  1  0
 11 10  1  6
 11 12  1  0
 12  7  1  0
 13 11  1  0
 13 14  2  0
 16 17  2  0
 16 15  1  0
 18 16  1  0
 19 18  1  0
 20 19  1  0
 21 20  1  0
 22 21  1  1
 23 22  1  0
 23 13  1  0
 24 22  1  0
 25 24  2  0
 26 24  1  0
M  END
$$$$
