LSR.pdb
     RDKit          3D

 26 25  0  0  1  0  0  0  0  0999 V2000
   21.3165  -13.8905  -20.5172 C   0  0  0  0  0  0  0  0  0  0  0  0
   21.9944  -12.6389  -20.0618 C   0  0  1  0  0  0  0  0  0  0  0  0
   22.4102  -11.8420  -21.2939 C   0  0  0  0  0  0  0  0  0  0  0  0
   21.1513  -11.7925  -19.1318 C   0  0  0  0  0  0  0  0  0  0  0  0
   22.0330  -10.7138  -18.5478 C   0  0  2  0  0  0  0  0  0  0  0  0
   23.1471  -11.3148  -17.8467 N   0  0  0  0  0  0  0  0  0  0  0  0
   21.3227   -9.8174  -17.6365 C   0  0  0  0  0  0  0  0  0  0  0  0
   20.1941   -9.3902  -17.9299 O   0  0  0  0  0  0  0  0  0  0  0  0
   20.6071   -9.9475  -13.5818 O   0  0  0  0  0  0  0  0  0  0  0  0
   21.4134   -8.9016  -14.0035 C   0  0  0  0  0  0  0  0  0  0  0  0
   21.1878   -8.5391  -15.4470 C   0  0  2  0  0  0  0  0  0  0  0  0
   21.8575   -9.3790  -16.3784 N   0  0  0  0  0  0  0  0  0  0  0  0
   21.6139   -7.1379  -15.6363 C   0  0  0  0  0  0  0  0  0  0  0  0
   22.8007   -6.8959  -15.9756 O   0  0  0  0  0  0  0  0  0  0  0  0
   15.8666   -6.5485  -16.3833 N   0  0  0  0  0  0  0  0  0  0  0  0
   15.7969   -5.1697  -16.0525 C   0  0  0  0  0  0  0  0  0  0  0  0
   14.6786   -4.6108  -15.6714 N   0  0  0  0  0  0  0  0  0  0  0  0
   16.9342   -4.3166  -16.1154 N   0  0  0  0  0  0  0  0  0  0  0  0
   18.1006   -4.6864  -16.8975 C   0  0  0  0  0  0  0  0  0  0  0  0
   19.1982   -3.6935  -16.8208 C   0  0  0  0  0  0  0  0  0  0  0  0
   20.0427   -3.6952  -15.6071 C   0  0  0  0  0  0  0  0  0  0  0  0
   21.1959   -4.6331  -15.5787 C   0  0  2  0  0  0  0  0  0  0  0  0
   20.7650   -6.0254  -15.4598 N   0  0  0  0  0  0  0  0  0  0  0  0
   22.2270   -4.3764  -14.5764 C   0  0  0  0  0  0  0  0  0  0  0  0
   22.1385   -4.8332  -13.3948 O   0  0  0  0  0  0  0  0  0  0  0  0
   23.3474   -3.6212  -14.8804 O   0  0  0  0  0  0  0  0  0  0  0  0
  2  3  1  6
  2  1  1  0
  4  2  1  0
  5  6  1  1
  5  4  1  0
  7  5  1  0
  8  7  2  0
  9 10  1  0
 11 10  1  1
 11 12  1  0
 12  7  1  0
 13 11  1  0
 13 14  2  0
 16 17  2  0
 16 15  1  0
 18 16  1  0
 19 18  1  0
 20 19  1  0
 21 20  1  0
 22 21  1  1
 23 22  1  0
 23 13  1  0
 24 22  1  0
 25 24  2  0
 26 24  1  0
M  END
$$$$
