LSR.pdb
     RDKit          3D

 26 25  0  0  1  0  0  0  0  0999 V2000
   23.1694  -18.5779  -16.0242 C   0  0  0  0  0  0  0  0  0  0  0  0
   22.6613  -19.8667  -15.4635 C   0  0  1  0  0  0  0  0  0  0  0  0
   23.7730  -20.9060  -15.5642 C   0  0  0  0  0  0  0  0  0  0  0  0
   22.1548  -19.7553  -14.0411 C   0  0  0  0  0  0  0  0  0  0  0  0
   21.6828  -21.1213  -13.6011 C   0  0  2  0  0  0  0  0  0  0  0  0
   20.6725  -21.6106  -14.5144 N   0  0  0  0  0  0  0  0  0  0  0  0
   21.1452  -21.1365  -12.2413 C   0  0  0  0  0  0  0  0  0  0  0  0
   21.6633  -20.4388  -11.3541 O   0  0  0  0  0  0  0  0  0  0  0  0
   17.3008  -21.2947  -11.5747 O   0  0  0  0  0  0  0  0  0  0  0  0
   18.1422  -21.0775  -10.4945 C   0  0  0  0  0  0  0  0  0  0  0  0
   19.4003  -21.9011  -10.5628 C   0  0  2  0  0  0  0  0  0  0  0  0
   20.0176  -21.9311  -11.8433 N   0  0  0  0  0  0  0  0  0  0  0  0
   19.0694  -23.2742  -10.1316 C   0  0  0  0  0  0  0  0  0  0  0  0
   18.9245  -24.1736  -10.9989 O   0  0  0  0  0  0  0  0  0  0  0  0
   17.4037  -28.3110   -3.6116 N   0  0  0  0  0  0  0  0  0  0  0  0
   18.2165  -27.1591   -3.4443 C   0  0  0  0  0  0  0  0  0  0  0  0
   19.3111  -27.1888   -2.7307 N   0  0  0  0  0  0  0  0  0  0  0  0
   17.8907  -25.9085   -4.0402 N   0  0  0  0  0  0  0  0  0  0  0  0
   16.6955  -25.7584   -4.8512 C   0  0  0  0  0  0  0  0  0  0  0  0
   16.9647  -25.8019   -6.3080 C   0  0  0  0  0  0  0  0  0  0  0  0
   17.8542  -24.7651   -6.8737 C   0  0  0  0  0  0  0  0  0  0  0  0
   18.0653  -24.7750   -8.3452 C   0  0  2  0  0  0  0  0  0  0  0  0
   18.9003  -23.6580   -8.7850 N   0  0  0  0  0  0  0  0  0  0  0  0
   16.8678  -24.8198   -9.1804 C   0  0  0  0  0  0  0  0  0  0  0  0
   16.4748  -25.8963   -9.7276 O   0  0  0  0  0  0  0  0  0  0  0  0
   16.1111  -23.6822   -9.4069 O   0  0  0  0  0  0  0  0  0  0  0  0
  2  3  1  1
  2  1  1  0
  4  2  1  0
  5  6  1  6
  5  4  1  0
  7  5  1  0
  8  7  2  0
  9 10  1  0
 11 10  1  6
 11 12  1  0
 12  7  1  0
 13 11  1  0
 13 14  2  0
 16 17  2  0
 16 15  1  0
 18 16  1  0
 19 18  1  0
 20 19  1  0
 21 20  1  0
 22 21  1  1
 23 22  1  0
 23 13  1  0
 24 22  1  0
 25 24  2  0
 26 24  1  0
M  END
$$$$
