LSR.pdb
     RDKit          3D

 26 25  0  0  1  0  0  0  0  0999 V2000
   27.1896  -16.7510  -19.2626 C   0  0  0  0  0  0  0  0  0  0  0  0
   26.6854  -15.4035  -19.6669 C   0  0  1  0  0  0  0  0  0  0  0  0
   25.8447  -15.5639  -20.9293 C   0  0  0  0  0  0  0  0  0  0  0  0
   25.9004  -14.6956  -18.5830 C   0  0  0  0  0  0  0  0  0  0  0  0
   26.8357  -14.4176  -17.4297 C   0  0  2  0  0  0  0  0  0  0  0  0
   27.2010  -15.6591  -16.7822 N   0  0  0  0  0  0  0  0  0  0  0  0
   26.2706  -13.5078  -16.4339 C   0  0  0  0  0  0  0  0  0  0  0  0
   25.6309  -13.9545  -15.4677 O   0  0  0  0  0  0  0  0  0  0  0  0
   27.7317   -9.6260  -15.8997 O   0  0  0  0  0  0  0  0  0  0  0  0
   26.9616  -10.2573  -14.9352 C   0  0  0  0  0  0  0  0  0  0  0  0
   25.9153  -11.1628  -15.5277 C   0  0  2  0  0  0  0  0  0  0  0  0
   26.4079  -12.0801  -16.4960 N   0  0  0  0  0  0  0  0  0  0  0  0
   24.8655  -10.3144  -16.1268 C   0  0  0  0  0  0  0  0  0  0  0  0
   24.9783   -9.9499  -17.3254 O   0  0  0  0  0  0  0  0  0  0  0  0
   15.9881   -9.9309  -15.8747 N   0  0  0  0  0  0  0  0  0  0  0  0
   16.4117   -8.7114  -16.4654 C   0  0  0  0  0  0  0  0  0  0  0  0
   15.5556   -7.8374  -16.9252 N   0  0  0  0  0  0  0  0  0  0  0  0
   17.7869   -8.3681  -16.5920 N   0  0  0  0  0  0  0  0  0  0  0  0
   18.8234   -9.2348  -16.0597 C   0  0  0  0  0  0  0  0  0  0  0  0
   20.1929   -8.7058  -16.2621 C   0  0  0  0  0  0  0  0  0  0  0  0
   21.3257   -9.5376  -15.8026 C   0  0  0  0  0  0  0  0  0  0  0  0
   22.6960   -8.9987  -16.0074 C   0  0  2  0  0  0  0  0  0  0  0  0
   23.7184   -9.8734  -15.4348 N   0  0  0  0  0  0  0  0  0  0  0  0
   22.9402   -7.6332  -15.5495 C   0  0  0  0  0  0  0  0  0  0  0  0
   22.4537   -6.6285  -16.1550 O   0  0  0  0  0  0  0  0  0  0  0  0
   23.7158   -7.3825  -14.4298 O   0  0  0  0  0  0  0  0  0  0  0  0
  2  3  1  6
  2  1  1  0
  4  2  1  0
  5  6  1  1
  5  4  1  0
  7  5  1  0
  8  7  2  0
  9 10  1  0
 11 10  1  6
 11 12  1  0
 12  7  1  0
 13 11  1  0
 13 14  2  0
 16 17  2  0
 16 15  1  0
 18 16  1  0
 19 18  1  0
 20 19  1  0
 21 20  1  0
 22 21  1  1
 23 22  1  0
 23 13  1  0
 24 22  1  0
 25 24  2  0
 26 24  1  0
M  END
$$$$
