LSR.pdb
     RDKit          3D

 26 25  0  0  1  0  0  0  0  0999 V2000
   17.1327  -16.7923  -18.1438 C   0  0  0  0  0  0  0  0  0  0  0  0
   17.8666  -15.6867  -18.8312 C   0  0  1  0  0  0  0  0  0  0  0  0
   16.9522  -15.0935  -19.8980 C   0  0  0  0  0  0  0  0  0  0  0  0
   18.3673  -14.6105  -17.8914 C   0  0  0  0  0  0  0  0  0  0  0  0
   19.8776  -14.6298  -17.9155 C   0  0  2  0  0  0  0  0  0  0  0  0
   20.3686  -15.7282  -17.1113 N   0  0  0  0  0  0  0  0  0  0  0  0
   20.4791  -13.3842  -17.4410 C   0  0  0  0  0  0  0  0  0  0  0  0
   20.3987  -13.0653  -16.2434 O   0  0  0  0  0  0  0  0  0  0  0  0
   23.9979  -11.4804  -18.6765 O   0  0  0  0  0  0  0  0  0  0  0  0
   22.8458  -10.7147  -18.7676 C   0  0  0  0  0  0  0  0  0  0  0  0
   21.7377  -11.2244  -17.8856 C   0  0  2  0  0  0  0  0  0  0  0  0
   21.1831  -12.4684  -18.2935 N   0  0  0  0  0  0  0  0  0  0  0  0
   20.6813  -10.1935  -17.8401 C   0  0  0  0  0  0  0  0  0  0  0  0
   19.7005  -10.2823  -18.6225 O   0  0  0  0  0  0  0  0  0  0  0  0
   13.1702   -9.4559  -16.4644 N   0  0  0  0  0  0  0  0  0  0  0  0
   13.7904   -8.7287  -15.4146 C   0  0  0  0  0  0  0  0  0  0  0  0
   13.1885   -8.5234  -14.2727 N   0  0  0  0  0  0  0  0  0  0  0  0
   15.0981   -8.1819  -15.5409 N   0  0  0  0  0  0  0  0  0  0  0  0
   15.7979   -8.2102  -16.8130 C   0  0  0  0  0  0  0  0  0  0  0  0
   17.1741   -7.6650  -16.7388 C   0  0  0  0  0  0  0  0  0  0  0  0
   18.2981   -8.6153  -16.8791 C   0  0  0  0  0  0  0  0  0  0  0  0
   19.6705   -8.0464  -16.9343 C   0  0  2  0  0  0  0  0  0  0  0  0
   20.6941   -9.0904  -16.9612 N   0  0  0  0  0  0  0  0  0  0  0  0
   20.0213   -7.0755  -15.9009 C   0  0  0  0  0  0  0  0  0  0  0  0
   20.9438   -7.3010  -15.0578 O   0  0  0  0  0  0  0  0  0  0  0  0
   19.3569   -5.8642  -15.8027 O   0  0  0  0  0  0  0  0  0  0  0  0
  2  3  1  6
  2  1  1  0
  4  2  1  0
  5  6  1  1
  5  4  1  0
  7  5  1  0
  8  7  2  0
  9 10  1  0
 11 10  1  6
 11 12  1  0
 12  7  1  0
 13 11  1  0
 13 14  2  0
 16 17  2  0
 16 15  1  0
 18 16  1  0
 19 18  1  0
 20 19  1  0
 21 20  1  0
 22 21  1  1
 23 22  1  0
 23 13  1  0
 24 22  1  0
 25 24  2  0
 26 24  1  0
M  END
$$$$
