DSI.pdb
     RDKit          3D

 23 22  0  0  1  0  0  0  0  0999 V2000
   17.4236  -11.7248  -15.8545 N   0  0  0  0  0  0  0  0  0  0  0  0
   18.2925  -10.8095  -16.5369 C   0  0  1  0  0  0  0  0  0  0  0  0
   17.4937   -9.9018  -17.4633 C   0  0  0  0  0  0  0  0  0  0  0  0
   16.8520  -10.6767  -18.5401 C   0  0  0  0  0  0  0  0  0  0  0  0
   15.5950  -10.7215  -18.5818 O   0  0  0  0  0  0  0  0  0  0  0  0
   19.0722   -9.9687  -15.5668 C   0  0  0  0  0  0  0  0  0  0  0  0
   18.4849   -9.2435  -14.7247 O   0  0  0  0  0  0  0  0  0  0  0  0
   17.5590  -11.3575  -19.5077 O   0  0  0  0  0  0  0  0  0  0  0  0
   23.2171   -9.5554  -15.9789 O   0  0  0  0  0  0  0  0  0  0  0  0
   22.6993   -9.6260  -14.6857 C   0  0  0  0  0  0  0  0  0  0  0  0
   21.2915   -9.1126  -14.7115 C   0  0  2  0  0  0  0  0  0  0  0  0
   20.4867   -9.9564  -15.5587 N   0  0  0  0  0  0  0  0  0  0  0  0
   21.1981   -7.6867  -15.1102 C   0  0  0  0  0  0  0  0  0  0  0  0
   20.7201   -7.4517  -16.2288 O   0  0  0  0  0  0  0  0  0  0  0  0
   19.0423   -2.7643  -15.9686 C   0  0  0  0  0  0  0  0  0  0  0  0
   20.3533   -3.2103  -15.3281 C   0  0  0  0  0  0  0  0  0  0  0  0
   20.2940   -4.6763  -14.9749 C   0  0  2  0  0  0  0  0  0  0  0  0
   19.3094   -4.7718  -13.8063 C   0  0  0  0  0  0  0  0  0  0  0  0
   21.6124   -5.2438  -14.5186 C   0  0  2  0  0  0  0  0  0  0  0  0
   21.6321   -6.6468  -14.2582 N   0  0  0  0  0  0  0  0  0  0  0  0
   22.2724   -4.4256  -13.5246 C   0  0  0  0  0  0  0  0  0  0  0  0
   22.5397   -4.7622  -12.2165 O   0  0  0  0  0  0  0  0  0  0  0  0
   22.6660   -3.2525  -13.8585 O   0  0  0  0  0  0  0  0  0  0  0  0
  2  1  1  1
  2  3  1  0
  3  4  1  0
  4  8  1  0
  4  5  2  0
  6 12  1  0
  6  2  1  0
  7  6  2  0
  9 10  1  0
 11 13  1  0
 11 10  1  6
 11 12  1  0
 13 20  1  0
 14 13  2  0
 16 15  1  0
 17 18  1  1
 17 16  1  0
 19 17  1  0
 19 20  1  1
 21 22  1  0
 21 19  1  0
 23 21  2  0
M  END
$$$$
