DSI.pdb
     RDKit          3D

 23 22  0  0  1  0  0  0  0  0999 V2000
   21.5681  -15.8011  -19.1228 N   0  0  0  0  0  0  0  0  0  0  0  0
   20.5142  -16.3287  -18.3048 C   0  0  1  0  0  0  0  0  0  0  0  0
   19.7668  -17.4334  -19.0404 C   0  0  0  0  0  0  0  0  0  0  0  0
   18.9040  -16.8762  -20.0972 C   0  0  0  0  0  0  0  0  0  0  0  0
   18.1867  -17.6648  -20.7661 O   0  0  0  0  0  0  0  0  0  0  0  0
   21.0457  -16.8661  -17.0069 C   0  0  0  0  0  0  0  0  0  0  0  0
   22.2304  -17.2762  -16.9154 O   0  0  0  0  0  0  0  0  0  0  0  0
   18.8411  -15.5314  -20.3927 O   0  0  0  0  0  0  0  0  0  0  0  0
   18.5755  -17.5088  -13.6036 O   0  0  0  0  0  0  0  0  0  0  0  0
   19.7935  -16.8394  -13.4862 C   0  0  0  0  0  0  0  0  0  0  0  0
   20.7189  -17.3520  -14.5478 C   0  0  2  0  0  0  0  0  0  0  0  0
   20.2445  -16.9337  -15.8430 N   0  0  0  0  0  0  0  0  0  0  0  0
   20.9209  -18.8203  -14.4859 C   0  0  0  0  0  0  0  0  0  0  0  0
   20.4112  -19.4910  -15.3944 O   0  0  0  0  0  0  0  0  0  0  0  0
   25.0938  -22.8959  -12.5243 C   0  0  0  0  0  0  0  0  0  0  0  0
   23.6139  -22.6399  -12.7928 C   0  0  0  0  0  0  0  0  0  0  0  0
   23.3351  -21.1573  -12.8310 C   0  0  2  0  0  0  0  0  0  0  0  0
   23.5105  -20.6749  -11.3885 C   0  0  0  0  0  0  0  0  0  0  0  0
   21.9351  -20.8147  -13.2680 C   0  0  2  0  0  0  0  0  0  0  0  0
   21.6575  -19.4260  -13.4435 N   0  0  0  0  0  0  0  0  0  0  0  0
   20.9176  -21.5591  -12.5584 C   0  0  0  0  0  0  0  0  0  0  0  0
   20.5857  -22.8842  -12.7314 O   0  0  0  0  0  0  0  0  0  0  0  0
   20.2273  -20.9548  -11.6633 O   0  0  0  0  0  0  0  0  0  0  0  0
  2  1  1  6
  2  3  1  0
  3  4  1  0
  4  8  1  0
  4  5  2  0
  6 12  1  0
  6  2  1  0
  7  6  2  0
  9 10  1  0
 11 13  1  0
 11 10  1  1
 11 12  1  0
 13 20  1  0
 14 13  2  0
 16 15  1  0
 17 18  1  1
 17 16  1  0
 19 17  1  0
 19 20  1  1
 21 22  1  0
 21 19  1  0
 23 21  2  0
M  END
$$$$
