DSI.pdb
     RDKit          3D

 23 22  0  0  1  0  0  0  0  0999 V2000
   25.4696  -18.8934  -16.3400 N   0  0  0  0  0  0  0  0  0  0  0  0
   25.4972  -18.1507  -15.1128 C   0  0  1  0  0  0  0  0  0  0  0  0
   24.5157  -16.9872  -15.1684 C   0  0  0  0  0  0  0  0  0  0  0  0
   24.7609  -16.1433  -16.3514 C   0  0  0  0  0  0  0  0  0  0  0  0
   24.0014  -16.2682  -17.3471 O   0  0  0  0  0  0  0  0  0  0  0  0
   25.1674  -19.0246  -13.9367 C   0  0  0  0  0  0  0  0  0  0  0  0
   24.0518  -18.9409  -13.3636 O   0  0  0  0  0  0  0  0  0  0  0  0
   25.7824  -15.2209  -16.4248 O   0  0  0  0  0  0  0  0  0  0  0  0
   25.8385  -22.5415  -13.9918 O   0  0  0  0  0  0  0  0  0  0  0  0
   26.2821  -22.2510  -12.7017 C   0  0  0  0  0  0  0  0  0  0  0  0
   25.8135  -20.8743  -12.3395 C   0  0  2  0  0  0  0  0  0  0  0  0
   26.0882  -19.9702  -13.4279 N   0  0  0  0  0  0  0  0  0  0  0  0
   26.3827  -20.3822  -11.0610 C   0  0  0  0  0  0  0  0  0  0  0  0
   27.6095  -20.2120  -11.0269 O   0  0  0  0  0  0  0  0  0  0  0  0
   27.8279  -17.7383   -7.1553 C   0  0  0  0  0  0  0  0  0  0  0  0
   27.5552  -18.9657   -8.0196 C   0  0  0  0  0  0  0  0  0  0  0  0
   26.2656  -19.6280   -7.6005 C   0  0  2  0  0  0  0  0  0  0  0  0
   26.6027  -20.3974   -6.3205 C   0  0  0  0  0  0  0  0  0  0  0  0
   25.7348  -20.6134   -8.6083 C   0  0  2  0  0  0  0  0  0  0  0  0
   25.5682  -20.1199   -9.9369 N   0  0  0  0  0  0  0  0  0  0  0  0
   24.6342  -21.4066   -8.1056 C   0  0  0  0  0  0  0  0  0  0  0  0
   24.6781  -22.3429   -7.0970 O   0  0  0  0  0  0  0  0  0  0  0  0
   23.4754  -21.2506   -8.6307 O   0  0  0  0  0  0  0  0  0  0  0  0
  2  1  1  6
  2  3  1  0
  3  4  1  0
  4  8  1  0
  4  5  2  0
  6 12  1  0
  6  2  1  0
  7  6  2  0
  9 10  1  0
 11 13  1  0
 11 10  1  6
 11 12  1  0
 13 20  1  0
 14 13  2  0
 16 15  1  0
 17 18  1  1
 17 16  1  0
 19 17  1  0
 19 20  1  6
 21 22  1  0
 21 19  1  0
 23 21  2  0
M  END
$$$$
