DSI.pdb
     RDKit          3D

 23 22  0  0  1  0  0  0  0  0999 V2000
   15.4498  -13.2654  -15.4839 N   0  0  0  0  0  0  0  0  0  0  0  0
   16.8757  -13.3666  -15.3620 C   0  0  1  0  0  0  0  0  0  0  0  0
   17.4035  -14.5288  -16.1932 C   0  0  0  0  0  0  0  0  0  0  0  0
   17.0873  -15.8206  -15.5583 C   0  0  0  0  0  0  0  0  0  0  0  0
   16.0274  -15.9173  -14.8867 O   0  0  0  0  0  0  0  0  0  0  0  0
   17.5533  -12.0977  -15.7939 C   0  0  0  0  0  0  0  0  0  0  0  0
   18.7905  -12.0697  -16.0141 O   0  0  0  0  0  0  0  0  0  0  0  0
   17.8947  -16.9329  -15.6618 O   0  0  0  0  0  0  0  0  0  0  0  0
   15.6245   -8.4328  -15.4968 O   0  0  0  0  0  0  0  0  0  0  0  0
   16.3404   -8.6494  -16.6741 C   0  0  0  0  0  0  0  0  0  0  0  0
   17.4246   -9.6449  -16.3918 C   0  0  2  0  0  0  0  0  0  0  0  0
   16.8360  -10.8911  -15.9698 N   0  0  0  0  0  0  0  0  0  0  0  0
   18.4273   -9.1537  -15.4152 C   0  0  0  0  0  0  0  0  0  0  0  0
   18.2271   -9.4315  -14.2245 O   0  0  0  0  0  0  0  0  0  0  0  0
   23.3052  -10.5962  -14.9153 C   0  0  0  0  0  0  0  0  0  0  0  0
   21.9406   -9.9662  -14.6530 C   0  0  0  0  0  0  0  0  0  0  0  0
   21.9327   -8.5243  -15.0984 C   0  0  2  0  0  0  0  0  0  0  0  0
   22.8884   -7.8009  -14.1458 C   0  0  0  0  0  0  0  0  0  0  0  0
   20.5831   -7.8643  -14.9918 C   0  0  2  0  0  0  0  0  0  0  0  0
   19.5554   -8.4060  -15.8205 N   0  0  0  0  0  0  0  0  0  0  0  0
   20.6548   -6.4195  -14.9682 C   0  0  0  0  0  0  0  0  0  0  0  0
   20.0789   -5.5449  -15.8622 O   0  0  0  0  0  0  0  0  0  0  0  0
   21.3180   -5.8533  -14.0289 O   0  0  0  0  0  0  0  0  0  0  0  0
  2  1  1  6
  2  3  1  0
  3  4  1  0
  4  8  1  0
  4  5  2  0
  6 12  1  0
  6  2  1  0
  7  6  2  0
  9 10  1  0
 11 13  1  0
 11 10  1  1
 11 12  1  0
 13 20  1  0
 14 13  2  0
 16 15  1  0
 17 18  1  1
 17 16  1  0
 19 17  1  0
 19 20  1  6
 21 22  1  0
 21 19  1  0
 23 21  2  0
M  END
$$$$
