DSI.pdb
     RDKit          3D

 23 22  0  0  1  0  0  0  0  0999 V2000
   14.4566   -9.5247  -15.8550 N   0  0  0  0  0  0  0  0  0  0  0  0
   15.7071  -10.1917  -15.6320 C   0  0  1  0  0  0  0  0  0  0  0  0
   15.8955  -11.3255  -16.6315 C   0  0  0  0  0  0  0  0  0  0  0  0
   15.1600  -12.5309  -16.2099 C   0  0  0  0  0  0  0  0  0  0  0  0
   13.9100  -12.4589  -16.0821 O   0  0  0  0  0  0  0  0  0  0  0  0
   16.8625   -9.2379  -15.7376 C   0  0  0  0  0  0  0  0  0  0  0  0
   18.0446   -9.6608  -15.7993 O   0  0  0  0  0  0  0  0  0  0  0  0
   15.7715  -13.7378  -15.9471 O   0  0  0  0  0  0  0  0  0  0  0  0
   16.4549   -5.1228  -15.0520 O   0  0  0  0  0  0  0  0  0  0  0  0
   17.1341   -5.5196  -16.2038 C   0  0  0  0  0  0  0  0  0  0  0  0
   17.7287   -6.8734  -15.9592 C   0  0  2  0  0  0  0  0  0  0  0  0
   16.6728   -7.8365  -15.7719 N   0  0  0  0  0  0  0  0  0  0  0  0
   18.6934   -6.8915  -14.8324 C   0  0  0  0  0  0  0  0  0  0  0  0
   18.2340   -7.1468  -13.7104 O   0  0  0  0  0  0  0  0  0  0  0  0
   23.4335   -9.5293  -12.8016 C   0  0  0  0  0  0  0  0  0  0  0  0
   22.8807   -8.1113  -12.9094 C   0  0  0  0  0  0  0  0  0  0  0  0
   21.8689   -8.0248  -14.0258 C   0  0  2  0  0  0  0  0  0  0  0  0
   22.6818   -8.1356  -15.3185 C   0  0  0  0  0  0  0  0  0  0  0  0
   21.1154   -6.7213  -14.0614 C   0  0  2  0  0  0  0  0  0  0  0  0
   20.0683   -6.6310  -15.0268 N   0  0  0  0  0  0  0  0  0  0  0  0
   21.9769   -5.5618  -13.9802 C   0  0  0  0  0  0  0  0  0  0  0  0
   22.1507   -4.5877  -14.9377 O   0  0  0  0  0  0  0  0  0  0  0  0
   22.6713   -5.3866  -12.9172 O   0  0  0  0  0  0  0  0  0  0  0  0
  2  1  1  6
  2  3  1  0
  3  4  1  0
  4  8  1  0
  4  5  2  0
  6 12  1  0
  6  2  1  0
  7  6  2  0
  9 10  1  0
 11 13  1  0
 11 10  1  1
 11 12  1  0
 13 20  1  0
 14 13  2  0
 16 15  1  0
 17 18  1  6
 17 16  1  0
 19 17  1  0
 19 20  1  6
 21 22  1  0
 21 19  1  0
 23 21  2  0
M  END
$$$$
