DSI.pdb
     RDKit          3D

 23 22  0  0  1  0  0  0  0  0999 V2000
   28.9554  -23.5971  -17.8130 N   0  0  0  0  0  0  0  0  0  0  0  0
   27.6906  -23.3948  -17.1668 C   0  0  1  0  0  0  0  0  0  0  0  0
   27.1085  -24.7230  -16.7005 C   0  0  0  0  0  0  0  0  0  0  0  0
   26.4935  -25.4547  -17.8221 C   0  0  0  0  0  0  0  0  0  0  0  0
   26.0467  -24.7960  -18.7970 O   0  0  0  0  0  0  0  0  0  0  0  0
   27.8182  -22.4674  -15.9923 C   0  0  0  0  0  0  0  0  0  0  0  0
   28.7764  -22.5759  -15.1859 O   0  0  0  0  0  0  0  0  0  0  0  0
   26.3814  -26.8279  -17.8596 O   0  0  0  0  0  0  0  0  0  0  0  0
   25.4297  -19.0523  -15.6209 O   0  0  0  0  0  0  0  0  0  0  0  0
   26.6943  -19.1534  -15.0411 C   0  0  0  0  0  0  0  0  0  0  0  0
   26.8990  -20.5702  -14.5975 C   0  0  2  0  0  0  0  0  0  0  0  0
   26.8755  -21.4422  -15.7449 N   0  0  0  0  0  0  0  0  0  0  0  0
   25.9303  -21.0022  -13.5605 C   0  0  0  0  0  0  0  0  0  0  0  0
   25.0043  -21.7354  -13.9348 O   0  0  0  0  0  0  0  0  0  0  0  0
   27.4194  -20.2817   -8.1440 C   0  0  0  0  0  0  0  0  0  0  0  0
   26.8291  -21.0079   -9.3490 C   0  0  0  0  0  0  0  0  0  0  0  0
   25.5499  -20.3400   -9.7907 C   0  0  2  0  0  0  0  0  0  0  0  0
   24.4873  -20.7967   -8.7875 C   0  0  0  0  0  0  0  0  0  0  0  0
   25.0958  -20.7500  -11.1669 C   0  0  2  0  0  0  0  0  0  0  0  0
   26.0553  -20.5989  -12.2123 N   0  0  0  0  0  0  0  0  0  0  0  0
   23.7615  -20.2918  -11.4875 C   0  0  0  0  0  0  0  0  0  0  0  0
   22.5830  -20.9836  -11.3187 O   0  0  0  0  0  0  0  0  0  0  0  0
   23.6184  -19.1195  -11.9856 O   0  0  0  0  0  0  0  0  0  0  0  0
  2  1  1  1
  2  3  1  0
  3  4  1  0
  4  8  1  0
  4  5  2  0
  6 12  1  0
  6  2  1  0
  7  6  2  0
  9 10  1  0
 11 13  1  0
 11 10  1  6
 11 12  1  0
 13 20  1  0
 14 13  2  0
 16 15  1  0
 17 18  1  1
 17 16  1  0
 19 17  1  0
 19 20  1  6
 21 22  1  0
 21 19  1  0
 23 21  2  0
M  END
$$$$
