TDE.pdb
     RDKit          3D

 25 24  0  0  1  0  0  0  0  0999 V2000
   18.7052  -11.6838  -17.6154 C   0  0  0  0  0  0  0  0  0  0  0  0
   18.7714  -10.3277  -16.9844 C   0  0  1  0  0  0  0  0  0  0  0  0
   17.5897   -9.6328  -17.2083 O   0  0  0  0  0  0  0  0  0  0  0  0
   19.1103  -10.4049  -15.5039 C   0  0  2  0  0  0  0  0  0  0  0  0
   18.0766  -11.0975  -14.7706 N   0  0  0  0  0  0  0  0  0  0  0  0
   19.2793   -9.0557  -14.9314 C   0  0  0  0  0  0  0  0  0  0  0  0
   18.3767   -8.4872  -14.2483 O   0  0  0  0  0  0  0  0  0  0  0  0
   20.5004   -8.3657  -15.1517 N   0  0  0  0  0  0  0  0  0  0  0  0
   20.7236   -7.0185  -14.6000 C   0  0  1  0  0  0  0  0  0  0  0  0
   22.1118   -6.9211  -14.0592 C   0  0  0  0  0  0  0  0  0  0  0  0
   22.4913   -5.5838  -13.5798 C   0  0  0  0  0  0  0  0  0  0  0  0
   23.0499   -4.7236  -14.3377 O   0  0  0  0  0  0  0  0  0  0  0  0
   20.3856   -6.0318  -15.6435 C   0  0  0  0  0  0  0  0  0  0  0  0
   20.5346   -6.3696  -16.8574 O   0  0  0  0  0  0  0  0  0  0  0  0
   22.2626   -5.1741  -12.2634 O   0  0  0  0  0  0  0  0  0  0  0  0
   19.9018   -4.7323  -15.4077 N   0  0  0  0  0  0  0  0  0  0  0  0
   19.5557   -3.8676  -16.5896 C   0  0  1  0  0  0  0  0  0  0  0  0
   18.4253   -4.5117  -17.2973 C   0  0  0  0  0  0  0  0  0  0  0  0
   17.1234   -4.4605  -16.6227 C   0  0  0  0  0  0  0  0  0  0  0  0
   16.0290   -5.2953  -17.1107 C   0  0  0  0  0  0  0  0  0  0  0  0
   15.8507   -6.4712  -16.6558 O   0  0  0  0  0  0  0  0  0  0  0  0
   19.3077   -2.5430  -16.0611 C   0  0  0  0  0  0  0  0  0  0  0  0
   19.3964   -2.2203  -14.8246 O   0  0  0  0  0  0  0  0  0  0  0  0
   15.1261   -4.8657  -18.0823 O   0  0  0  0  0  0  0  0  0  0  0  0
   18.9412   -1.4803  -16.8967 O   0  0  0  0  0  0  0  0  0  0  0  0
  2  4  1  0
  2  1  1  1
  3  2  1  0
  4  6  1  0
  4  5  1  1
  6  7  2  0
  8  9  1  0
  8  6  1  0
  9 13  1  0
  9 10  1  6
 11 15  1  0
 11 10  1  0
 12 11  2  0
 13 16  1  0
 13 14  2  0
 16 17  1  0
 17 22  1  0
 17 18  1  1
 19 18  1  0
 20 19  1  0
 21 20  2  0
 22 23  2  0
 22 25  1  0
 24 20  1  0
M  END
$$$$
