TDE.pdb
     RDKit          3D

 25 24  0  0  1  0  0  0  0  0999 V2000
   17.7221  -10.7347  -11.8840 C   0  0  0  0  0  0  0  0  0  0  0  0
   16.3625  -11.3416  -12.0413 C   0  0  1  0  0  0  0  0  0  0  0  0
   16.4674  -12.7068  -12.2753 O   0  0  0  0  0  0  0  0  0  0  0  0
   15.4631  -11.0388  -10.8530 C   0  0  2  0  0  0  0  0  0  0  0  0
   14.2002  -11.7298  -10.9690 N   0  0  0  0  0  0  0  0  0  0  0  0
   15.2064   -9.5903  -10.7427 C   0  0  0  0  0  0  0  0  0  0  0  0
   14.4659   -8.9652  -11.5585 O   0  0  0  0  0  0  0  0  0  0  0  0
   15.8099   -8.8661   -9.6810 N   0  0  0  0  0  0  0  0  0  0  0  0
   15.7255   -7.3971   -9.6173 C   0  0  1  0  0  0  0  0  0  0  0  0
   15.4024   -6.9728   -8.2227 C   0  0  0  0  0  0  0  0  0  0  0  0
   15.3438   -5.5174   -8.0219 C   0  0  0  0  0  0  0  0  0  0  0  0
   15.7322   -4.9644   -6.9404 O   0  0  0  0  0  0  0  0  0  0  0  0
   16.9747   -6.8396  -10.1696 C   0  0  0  0  0  0  0  0  0  0  0  0
   18.0668   -7.1318   -9.5933 O   0  0  0  0  0  0  0  0  0  0  0  0
   14.8583   -4.6510   -9.0052 O   0  0  0  0  0  0  0  0  0  0  0  0
   17.0635   -6.0041  -11.2977 N   0  0  0  0  0  0  0  0  0  0  0  0
   18.4258   -5.5691  -11.7658 C   0  0  1  0  0  0  0  0  0  0  0  0
   19.1193   -6.7667  -12.2934 C   0  0  0  0  0  0  0  0  0  0  0  0
   20.3983   -6.5296  -12.9721 C   0  0  0  0  0  0  0  0  0  0  0  0
   21.1492   -7.6635  -13.5043 C   0  0  0  0  0  0  0  0  0  0  0  0
   21.6880   -7.6080  -14.6566 O   0  0  0  0  0  0  0  0  0  0  0  0
   18.2037   -4.4923  -12.7073 C   0  0  0  0  0  0  0  0  0  0  0  0
   17.1773   -4.3842  -13.4662 O   0  0  0  0  0  0  0  0  0  0  0  0
   21.3239   -8.8527  -12.7977 O   0  0  0  0  0  0  0  0  0  0  0  0
   19.1298   -3.4525  -12.8592 O   0  0  0  0  0  0  0  0  0  0  0  0
  2  4  1  0
  2  1  1  1
  3  2  1  0
  4  6  1  0
  4  5  1  6
  6  7  2  0
  8  9  1  0
  8  6  1  0
  9 13  1  0
  9 10  1  1
 11 15  1  0
 11 10  1  0
 12 11  2  0
 13 16  1  0
 13 14  2  0
 16 17  1  0
 17 22  1  0
 17 18  1  6
 19 18  1  0
 20 19  1  0
 21 20  2  0
 22 23  2  0
 22 25  1  0
 24 20  1  0
M  END
$$$$
