TDE.pdb
     RDKit          3D

 25 24  0  0  1  0  0  0  0  0999 V2000
   23.7263  -10.1349  -14.6249 C   0  0  0  0  0  0  0  0  0  0  0  0
   23.6484  -10.7903  -15.9687 C   0  0  1  0  0  0  0  0  0  0  0  0
   24.5567  -11.8383  -16.0480 O   0  0  0  0  0  0  0  0  0  0  0  0
   22.2345  -11.2409  -16.3011 C   0  0  2  0  0  0  0  0  0  0  0  0
   22.1885  -11.9002  -17.5852 N   0  0  0  0  0  0  0  0  0  0  0  0
   21.3071  -10.0937  -16.3200 C   0  0  0  0  0  0  0  0  0  0  0  0
   21.2347   -9.2919  -17.2980 O   0  0  0  0  0  0  0  0  0  0  0  0
   20.4605   -9.8781  -15.2008 N   0  0  0  0  0  0  0  0  0  0  0  0
   19.5889   -8.6935  -15.1229 C   0  0  1  0  0  0  0  0  0  0  0  0
   18.3829   -9.0107  -14.3017 C   0  0  0  0  0  0  0  0  0  0  0  0
   17.4381   -9.9434  -14.9337 C   0  0  0  0  0  0  0  0  0  0  0  0
   16.8329  -10.8500  -14.2717 O   0  0  0  0  0  0  0  0  0  0  0  0
   20.3971   -7.5581  -14.6389 C   0  0  0  0  0  0  0  0  0  0  0  0
   21.4572   -7.8119  -13.9893 O   0  0  0  0  0  0  0  0  0  0  0  0
   17.1456   -9.8927  -16.2993 O   0  0  0  0  0  0  0  0  0  0  0  0
   20.0939   -6.1996  -14.8408 N   0  0  0  0  0  0  0  0  0  0  0  0
   21.1676   -5.1767  -14.5853 C   0  0  1  0  0  0  0  0  0  0  0  0
   22.3319   -5.5325  -15.4287 C   0  0  0  0  0  0  0  0  0  0  0  0
   23.4750   -4.6140  -15.3779 C   0  0  0  0  0  0  0  0  0  0  0  0
   24.7033   -4.9569  -16.0896 C   0  0  0  0  0  0  0  0  0  0  0  0
   24.9444   -4.4794  -17.2451 O   0  0  0  0  0  0  0  0  0  0  0  0
   20.5639   -3.8861  -14.8405 C   0  0  0  0  0  0  0  0  0  0  0  0
   19.5918   -3.6803  -15.6490 O   0  0  0  0  0  0  0  0  0  0  0  0
   25.6718   -5.8078  -15.5588 O   0  0  0  0  0  0  0  0  0  0  0  0
   21.0162   -2.7280  -14.1955 O   0  0  0  0  0  0  0  0  0  0  0  0
  2  4  1  0
  2  1  1  1
  3  2  1  0
  4  6  1  0
  4  5  1  6
  6  7  2  0
  8  9  1  0
  8  6  1  0
  9 13  1  0
  9 10  1  1
 11 15  1  0
 11 10  1  0
 12 11  2  0
 13 16  1  0
 13 14  2  0
 16 17  1  0
 17 22  1  0
 17 18  1  6
 19 18  1  0
 20 19  1  0
 21 20  2  0
 22 23  2  0
 22 25  1  0
 24 20  1  0
M  END
$$$$
