TDE.pdb
     RDKit          3D

 25 24  0  0  1  0  0  0  0  0999 V2000
   19.5712   -9.6793  -18.3556 C   0  0  0  0  0  0  0  0  0  0  0  0
   18.8392  -10.5095  -17.3473 C   0  0  1  0  0  0  0  0  0  0  0  0
   18.6564  -11.8006  -17.8263 O   0  0  0  0  0  0  0  0  0  0  0  0
   19.5312  -10.5013  -15.9932 C   0  0  2  0  0  0  0  0  0  0  0  0
   18.8714  -11.3927  -15.0681 N   0  0  0  0  0  0  0  0  0  0  0  0
   19.5469   -9.1428  -15.4182 C   0  0  0  0  0  0  0  0  0  0  0  0
   18.5275   -8.6192  -14.8787 O   0  0  0  0  0  0  0  0  0  0  0  0
   20.7503   -8.3910  -15.4687 N   0  0  0  0  0  0  0  0  0  0  0  0
   20.8253   -7.0353  -14.8979 C   0  0  1  0  0  0  0  0  0  0  0  0
   22.1343   -6.8549  -14.2029 C   0  0  0  0  0  0  0  0  0  0  0  0
   22.3135   -5.5435  -13.5625 C   0  0  0  0  0  0  0  0  0  0  0  0
   21.8137   -5.2705  -12.4214 O   0  0  0  0  0  0  0  0  0  0  0  0
   20.5475   -6.0662  -15.9750 C   0  0  0  0  0  0  0  0  0  0  0  0
   21.2439   -6.1321  -17.0337 O   0  0  0  0  0  0  0  0  0  0  0  0
   23.0432   -4.5157  -14.1661 O   0  0  0  0  0  0  0  0  0  0  0  0
   19.5616   -5.0639  -15.9328 N   0  0  0  0  0  0  0  0  0  0  0  0
   19.4653   -4.1000  -17.0843 C   0  0  1  0  0  0  0  0  0  0  0  0
   18.2360   -4.4308  -17.8410 C   0  0  0  0  0  0  0  0  0  0  0  0
   18.3562   -5.4990  -18.8395 C   0  0  0  0  0  0  0  0  0  0  0  0
   17.1644   -5.9543  -19.5504 C   0  0  0  0  0  0  0  0  0  0  0  0
   16.0166   -5.4767  -19.2751 O   0  0  0  0  0  0  0  0  0  0  0  0
   19.5229   -2.7742  -16.5060 C   0  0  0  0  0  0  0  0  0  0  0  0
   19.5265   -2.5236  -15.2498 O   0  0  0  0  0  0  0  0  0  0  0  0
   17.2071   -6.9176  -20.5574 O   0  0  0  0  0  0  0  0  0  0  0  0
   19.5827   -1.6288  -17.3100 O   0  0  0  0  0  0  0  0  0  0  0  0
  2  4  1  0
  2  1  1  6
  3  2  1  0
  4  6  1  0
  4  5  1  1
  6  7  2  0
  8  9  1  0
  8  6  1  0
  9 13  1  0
  9 10  1  6
 11 15  1  0
 11 10  1  0
 12 11  2  0
 13 16  1  0
 13 14  2  0
 16 17  1  0
 17 22  1  0
 17 18  1  1
 19 18  1  0
 20 19  1  0
 21 20  2  0
 22 23  2  0
 22 25  1  0
 24 20  1  0
M  END
$$$$
