TDE.pdb
     RDKit          3D

 25 24  0  0  1  0  0  0  0  0999 V2000
   17.1291  -10.6900  -10.7414 C   0  0  0  0  0  0  0  0  0  0  0  0
   15.6564  -10.7851  -10.9939 C   0  0  1  0  0  0  0  0  0  0  0  0
   15.2428  -12.1103  -10.9449 O   0  0  0  0  0  0  0  0  0  0  0  0
   14.8581   -9.9079  -10.0422 C   0  0  2  0  0  0  0  0  0  0  0  0
   13.4387  -10.1033  -10.2239 N   0  0  0  0  0  0  0  0  0  0  0  0
   15.1741   -8.4820  -10.2502 C   0  0  0  0  0  0  0  0  0  0  0  0
   14.7698   -7.8347  -11.2612 O   0  0  0  0  0  0  0  0  0  0  0  0
   15.9604   -7.8056   -9.2806 N   0  0  0  0  0  0  0  0  0  0  0  0
   16.3916   -6.4126   -9.4874 C   0  0  1  0  0  0  0  0  0  0  0  0
   16.1815   -5.6305   -8.2331 C   0  0  0  0  0  0  0  0  0  0  0  0
   14.7912   -5.2154   -7.9942 C   0  0  0  0  0  0  0  0  0  0  0  0
   13.9206   -5.1887   -8.9257 O   0  0  0  0  0  0  0  0  0  0  0  0
   17.7778   -6.4297   -9.9919 C   0  0  0  0  0  0  0  0  0  0  0  0
   18.7185   -6.5719   -9.1524 O   0  0  0  0  0  0  0  0  0  0  0  0
   14.3394   -4.8248   -6.7308 O   0  0  0  0  0  0  0  0  0  0  0  0
   18.1537   -6.3048  -11.3416 N   0  0  0  0  0  0  0  0  0  0  0  0
   19.6152   -6.3793  -11.6916 C   0  0  1  0  0  0  0  0  0  0  0  0
   19.8008   -7.5463  -12.5844 C   0  0  0  0  0  0  0  0  0  0  0  0
   21.1315   -7.7002  -13.1831 C   0  0  0  0  0  0  0  0  0  0  0  0
   21.4147   -8.8690  -14.0117 C   0  0  0  0  0  0  0  0  0  0  0  0
   22.0871   -8.7604  -15.0876 O   0  0  0  0  0  0  0  0  0  0  0  0
   19.9633   -5.0883  -12.2462 C   0  0  0  0  0  0  0  0  0  0  0  0
   19.1265   -4.2575  -12.7467 O   0  0  0  0  0  0  0  0  0  0  0  0
   20.9796  -10.1521  -13.6826 O   0  0  0  0  0  0  0  0  0  0  0  0
   21.2897   -4.6391  -12.2739 O   0  0  0  0  0  0  0  0  0  0  0  0
  2  4  1  0
  2  1  1  1
  3  2  1  0
  4  6  1  0
  4  5  1  6
  6  7  2  0
  8  9  1  0
  8  6  1  0
  9 13  1  0
  9 10  1  1
 11 15  1  0
 11 10  1  0
 12 11  2  0
 13 16  1  0
 13 14  2  0
 16 17  1  0
 17 22  1  0
 17 18  1  6
 19 18  1  0
 20 19  1  0
 21 20  2  0
 22 23  2  0
 22 25  1  0
 24 20  1  0
M  END
$$$$
