TDE.pdb
     RDKit          3D

 25 24  0  0  1  0  0  0  0  0999 V2000
   15.0520  -10.6612  -16.5099 C   0  0  0  0  0  0  0  0  0  0  0  0
   16.4530  -10.3730  -16.0676 C   0  0  1  0  0  0  0  0  0  0  0  0
   16.4541   -9.8382  -14.7856 O   0  0  0  0  0  0  0  0  0  0  0  0
   17.3457  -11.6000  -16.1694 C   0  0  2  0  0  0  0  0  0  0  0  0
   16.7894  -12.7089  -15.4300 N   0  0  0  0  0  0  0  0  0  0  0  0
   18.6973  -11.3120  -15.6530 C   0  0  0  0  0  0  0  0  0  0  0  0
   19.3301  -12.1205  -14.9112 O   0  0  0  0  0  0  0  0  0  0  0  0
   19.3162  -10.0823  -16.0004 N   0  0  0  0  0  0  0  0  0  0  0  0
   20.7176   -9.8072  -15.6406 C   0  0  1  0  0  0  0  0  0  0  0  0
   21.5951  -10.8903  -16.1756 C   0  0  0  0  0  0  0  0  0  0  0  0
   23.0307  -10.6988  -15.9215 C   0  0  0  0  0  0  0  0  0  0  0  0
   23.7277   -9.8488  -16.5681 O   0  0  0  0  0  0  0  0  0  0  0  0
   21.0517   -8.4450  -16.0982 C   0  0  0  0  0  0  0  0  0  0  0  0
   20.8912   -8.1700  -17.3264 O   0  0  0  0  0  0  0  0  0  0  0  0
   23.7188  -11.4374  -14.9550 O   0  0  0  0  0  0  0  0  0  0  0  0
   21.5353   -7.4081  -15.2801 N   0  0  0  0  0  0  0  0  0  0  0  0
   21.6678   -6.0294  -15.8682 C   0  0  1  0  0  0  0  0  0  0  0  0
   21.3255   -5.0565  -14.8053 C   0  0  0  0  0  0  0  0  0  0  0  0
   21.4613   -3.6382  -15.1554 C   0  0  0  0  0  0  0  0  0  0  0  0
   21.1177   -2.6191  -14.1675 C   0  0  0  0  0  0  0  0  0  0  0  0
   21.1030   -2.8926  -12.9239 O   0  0  0  0  0  0  0  0  0  0  0  0
   23.0105   -5.9464  -16.4026 C   0  0  0  0  0  0  0  0  0  0  0  0
   24.0475   -6.4661  -15.8591 O   0  0  0  0  0  0  0  0  0  0  0  0
   20.7946   -1.3081  -14.5151 O   0  0  0  0  0  0  0  0  0  0  0  0
   23.2800   -5.2678  -17.5979 O   0  0  0  0  0  0  0  0  0  0  0  0
  2  4  1  0
  2  1  1  1
  3  2  1  0
  4  6  1  0
  4  5  1  1
  6  7  2  0
  8  9  1  0
  8  6  1  0
  9 13  1  0
  9 10  1  6
 11 15  1  0
 11 10  1  0
 12 11  2  0
 13 16  1  0
 13 14  2  0
 16 17  1  0
 17 22  1  0
 17 18  1  1
 19 18  1  0
 20 19  1  0
 21 20  2  0
 22 23  2  0
 22 25  1  0
 24 20  1  0
M  END
$$$$
