TDE.pdb
     RDKit          3D

 25 24  0  0  1  0  0  0  0  0999 V2000
   14.4280   -8.9871  -11.3404 C   0  0  0  0  0  0  0  0  0  0  0  0
   14.2773   -8.2180  -10.0648 C   0  0  1  0  0  0  0  0  0  0  0  0
   13.2859   -8.7846   -9.2737 O   0  0  0  0  0  0  0  0  0  0  0  0
   15.5953   -8.0928   -9.3166 C   0  0  2  0  0  0  0  0  0  0  0  0
   15.4372   -7.3070   -8.1152 N   0  0  0  0  0  0  0  0  0  0  0  0
   16.6251   -7.4646  -10.1658 C   0  0  0  0  0  0  0  0  0  0  0  0
   16.7743   -6.2089  -10.2400 O   0  0  0  0  0  0  0  0  0  0  0  0
   17.4850   -8.2970  -10.9297 N   0  0  0  0  0  0  0  0  0  0  0  0
   18.5529   -7.7241  -11.7665 C   0  0  1  0  0  0  0  0  0  0  0  0
   19.5970   -8.7593  -12.0265 C   0  0  0  0  0  0  0  0  0  0  0  0
   20.7342   -8.2946  -12.8345 C   0  0  0  0  0  0  0  0  0  0  0  0
   20.8793   -7.0708  -13.1630 O   0  0  0  0  0  0  0  0  0  0  0  0
   17.9316   -7.1425  -12.9716 C   0  0  0  0  0  0  0  0  0  0  0  0
   17.3556   -7.9268  -13.7859 O   0  0  0  0  0  0  0  0  0  0  0  0
   21.7259   -9.1666  -13.2918 O   0  0  0  0  0  0  0  0  0  0  0  0
   17.9175   -5.7749  -13.2999 N   0  0  0  0  0  0  0  0  0  0  0  0
   17.3317   -5.3578  -14.6217 C   0  0  1  0  0  0  0  0  0  0  0  0
   16.0942   -4.5945  -14.3398 C   0  0  0  0  0  0  0  0  0  0  0  0
   14.8816   -5.3871  -14.1070 C   0  0  0  0  0  0  0  0  0  0  0  0
   14.2195   -6.0344  -15.2364 C   0  0  0  0  0  0  0  0  0  0  0  0
   14.0288   -7.2933  -15.2485 O   0  0  0  0  0  0  0  0  0  0  0  0
   18.3791   -4.6426  -15.3192 C   0  0  0  0  0  0  0  0  0  0  0  0
   18.2674   -4.1443  -16.4940 O   0  0  0  0  0  0  0  0  0  0  0  0
   13.7600   -5.3296  -16.3481 O   0  0  0  0  0  0  0  0  0  0  0  0
   19.6355   -4.4357  -14.7357 O   0  0  0  0  0  0  0  0  0  0  0  0
  2  4  1  0
  2  1  1  6
  3  2  1  0
  4  6  1  0
  4  5  1  1
  6  7  2  0
  8  9  1  0
  8  6  1  0
  9 13  1  0
  9 10  1  6
 11 15  1  0
 11 10  1  0
 12 11  2  0
 13 16  1  0
 13 14  2  0
 16 17  1  0
 17 22  1  0
 17 18  1  1
 19 18  1  0
 20 19  1  0
 21 20  2  0
 22 23  2  0
 22 25  1  0
 24 20  1  0
M  END
$$$$
