EWG.pdb
     RDKit          3D

 28 29  0  0  1  0  0  0  0  0999 V2000
   25.8515  -19.5656  -13.2765 N   0  0  0  0  0  0  0  0  0  0  0  0
   26.4353  -20.8545  -12.9644 C   0  0  1  0  0  0  0  0  0  0  0  0
   27.8165  -20.9355  -13.5438 C   0  0  0  0  0  0  0  0  0  0  0  0
   27.7948  -20.6808  -15.0570 C   0  0  0  0  0  0  0  0  0  0  0  0
   26.9828  -21.7017  -15.7490 C   0  0  0  0  0  0  0  0  0  0  0  0
   27.3211  -22.9061  -15.7227 O   0  0  0  0  0  0  0  0  0  0  0  0
   26.4083  -21.1404  -11.5082 C   0  0  0  0  0  0  0  0  0  0  0  0
   26.8054  -22.2248  -11.0209 O   0  0  0  0  0  0  0  0  0  0  0  0
   25.8462  -21.3433  -16.4305 O   0  0  0  0  0  0  0  0  0  0  0  0
   25.9205  -20.1655  -10.6313 N   0  0  0  0  0  0  0  0  0  0  0  0
   25.7873  -20.2775   -9.2142 C   0  0  1  0  0  0  0  0  0  0  0  0
   26.6297  -19.2809   -8.5259 C   0  0  0  0  0  0  0  0  0  0  0  0
   27.7496  -19.8754   -7.7589 C   0  0  0  0  0  0  0  0  0  0  0  0
   28.6623  -20.7447   -8.3644 C   0  0  0  0  0  0  0  0  0  0  0  0
   29.5625  -21.0804   -7.4282 N   0  0  0  0  0  0  0  0  0  0  0  0
   29.2934  -20.4903   -6.2661 C   0  0  0  0  0  0  0  0  0  0  0  0
   29.8727  -20.4883   -5.0021 C   0  0  0  0  0  0  0  0  0  0  0  0
   29.3406  -19.7569   -3.9624 C   0  0  0  0  0  0  0  0  0  0  0  0
   28.2071  -19.0006   -4.1537 C   0  0  0  0  0  0  0  0  0  0  0  0
   27.6244  -19.0030   -5.4279 C   0  0  0  0  0  0  0  0  0  0  0  0
   28.1541  -19.7315   -6.4674 C   0  0  0  0  0  0  0  0  0  0  0  0
   24.3975  -20.3802   -8.7566 C   0  0  0  0  0  0  0  0  0  0  0  0
   23.6257  -19.4408   -9.0845 O   0  0  0  0  0  0  0  0  0  0  0  0
   23.8700  -21.4256   -7.9948 N   0  0  0  0  0  0  0  0  0  0  0  0
   22.4722  -21.5434   -7.6082 C   0  0  0  0  0  0  0  0  0  0  0  0
   22.2170  -22.7508   -6.8141 C   0  0  0  0  0  0  0  0  0  0  0  0
   23.1105  -23.6061   -6.6432 O   0  0  0  0  0  0  0  0  0  0  0  0
   20.9770  -22.9550   -6.2434 O   0  0  0  0  0  0  0  0  0  0  0  0
  2  1  1  1
  3  4  1  0
  3  2  1  0
  5  6  2  0
  5  4  1  0
  7  2  1  0
  7 10  1  0
  8  7  2  0
  9  5  1  0
 11 10  1  0
 11 12  1  1
 13 14  2  0
 13 12  1  0
 15 14  1  0
 16 21  2  0
 16 15  1  0
 17 16  1  0
 18 19  1  0
 18 17  2  0
 19 20  2  0
 20 21  1  0
 21 13  1  0
 22 11  1  0
 23 22  2  0
 24 22  1  0
 25 24  1  0
 26 25  1  0
 27 26  2  0
 28 26  1  0
M  END
$$$$
