EWG.pdb
     RDKit          3D

 28 29  0  0  1  0  0  0  0  0999 V2000
   26.2006  -19.5515  -16.9101 N   0  0  0  0  0  0  0  0  0  0  0  0
   26.2003  -20.9848  -16.6973 C   0  0  1  0  0  0  0  0  0  0  0  0
   27.5521  -21.5437  -17.0299 C   0  0  0  0  0  0  0  0  0  0  0  0
   27.7199  -21.7137  -18.5458 C   0  0  0  0  0  0  0  0  0  0  0  0
   28.0117  -23.1206  -18.8865 C   0  0  0  0  0  0  0  0  0  0  0  0
   29.1933  -23.5292  -18.9369 O   0  0  0  0  0  0  0  0  0  0  0  0
   25.7538  -21.3446  -15.3283 C   0  0  0  0  0  0  0  0  0  0  0  0
   25.7132  -22.5273  -14.9153 O   0  0  0  0  0  0  0  0  0  0  0  0
   26.9906  -23.9990  -19.1526 O   0  0  0  0  0  0  0  0  0  0  0  0
   25.3582  -20.3286  -14.4516 N   0  0  0  0  0  0  0  0  0  0  0  0
   24.7583  -20.4917  -13.1662 C   0  0  1  0  0  0  0  0  0  0  0  0
   25.4882  -19.7192  -12.1429 C   0  0  0  0  0  0  0  0  0  0  0  0
   26.7728  -20.3353  -11.7353 C   0  0  0  0  0  0  0  0  0  0  0  0
   27.7364  -20.6966  -12.6820 C   0  0  0  0  0  0  0  0  0  0  0  0
   28.7838  -21.1905  -12.0047 N   0  0  0  0  0  0  0  0  0  0  0  0
   28.5620  -21.1729  -10.6927 C   0  0  0  0  0  0  0  0  0  0  0  0
   29.2790  -21.5564   -9.5648 C   0  0  0  0  0  0  0  0  0  0  0  0
   28.7621  -21.4154   -8.2951 C   0  0  0  0  0  0  0  0  0  0  0  0
   27.5061  -20.8842   -8.1114 C   0  0  0  0  0  0  0  0  0  0  0  0
   26.7847  -20.4978   -9.2485 C   0  0  0  0  0  0  0  0  0  0  0  0
   27.2988  -20.6367  -10.5167 C   0  0  0  0  0  0  0  0  0  0  0  0
   23.2988  -20.3462  -13.1714 C   0  0  0  0  0  0  0  0  0  0  0  0
   22.8501  -19.1717  -13.2419 O   0  0  0  0  0  0  0  0  0  0  0  0
   22.3793  -21.3958  -13.1049 N   0  0  0  0  0  0  0  0  0  0  0  0
   20.9432  -21.2277  -12.9413 C   0  0  0  0  0  0  0  0  0  0  0  0
   20.2360  -22.5130  -12.9037 C   0  0  0  0  0  0  0  0  0  0  0  0
   20.8371  -23.5824  -13.1359 O   0  0  0  0  0  0  0  0  0  0  0  0
   18.8881  -22.5533  -12.6089 O   0  0  0  0  0  0  0  0  0  0  0  0
  2  1  1  1
  3  4  1  0
  3  2  1  0
  5  6  2  0
  5  4  1  0
  7  2  1  0
  7 10  1  0
  8  7  2  0
  9  5  1  0
 11 10  1  0
 11 12  1  1
 13 14  2  0
 13 12  1  0
 15 14  1  0
 16 21  2  0
 16 15  1  0
 17 16  1  0
 18 19  1  0
 18 17  2  0
 19 20  2  0
 20 21  1  0
 21 13  1  0
 22 11  1  0
 23 22  2  0
 24 22  1  0
 25 24  1  0
 26 25  1  0
 27 26  2  0
 28 26  1  0
M  END
$$$$
