EWG.pdb
     RDKit          3D

 28 29  0  0  1  0  0  0  0  0999 V2000
   34.2975  -31.0002    2.2709 N   0  0  0  0  0  0  0  0  0  0  0  0
   35.1862  -30.5792    3.3352 C   0  0  1  0  0  0  0  0  0  0  0  0
   36.4554  -31.3766    3.2767 C   0  0  0  0  0  0  0  0  0  0  0  0
   36.2355  -32.8014    3.8027 C   0  0  0  0  0  0  0  0  0  0  0  0
   36.8912  -32.9836    5.1131 C   0  0  0  0  0  0  0  0  0  0  0  0
   37.5001  -32.0344    5.6552 O   0  0  0  0  0  0  0  0  0  0  0  0
   35.4290  -29.1152    3.3118 C   0  0  0  0  0  0  0  0  0  0  0  0
   35.7485  -28.4956    2.2701 O   0  0  0  0  0  0  0  0  0  0  0  0
   36.8418  -34.1967    5.7541 O   0  0  0  0  0  0  0  0  0  0  0  0
   35.2991  -28.3839    4.4975 N   0  0  0  0  0  0  0  0  0  0  0  0
   35.4570  -26.9737    4.6559 C   0  0  1  0  0  0  0  0  0  0  0  0
   34.2087  -26.3557    5.1418 C   0  0  0  0  0  0  0  0  0  0  0  0
   34.2925  -24.8840    5.2936 C   0  0  0  0  0  0  0  0  0  0  0  0
   35.0539  -24.1067    4.4153 C   0  0  0  0  0  0  0  0  0  0  0  0
   34.9017  -22.8283    4.7926 N   0  0  0  0  0  0  0  0  0  0  0  0
   34.0988  -22.7290    5.8491 C   0  0  0  0  0  0  0  0  0  0  0  0
   33.6179  -21.6833    6.6291 C   0  0  0  0  0  0  0  0  0  0  0  0
   32.7779  -21.9043    7.6991 C   0  0  0  0  0  0  0  0  0  0  0  0
   32.3900  -23.1837    8.0251 C   0  0  0  0  0  0  0  0  0  0  0  0
   32.8750  -24.2366    7.2383 C   0  0  0  0  0  0  0  0  0  0  0  0
   33.7126  -24.0184    6.1694 C   0  0  0  0  0  0  0  0  0  0  0  0
   36.6871  -26.5909    5.3571 C   0  0  0  0  0  0  0  0  0  0  0  0
   37.0261  -27.3104    6.3334 O   0  0  0  0  0  0  0  0  0  0  0  0
   37.5016  -25.5039    5.0306 N   0  0  0  0  0  0  0  0  0  0  0  0
   38.7774  -25.6052    4.3383 C   0  0  0  0  0  0  0  0  0  0  0  0
   39.8146  -26.2188    5.1757 C   0  0  0  0  0  0  0  0  0  0  0  0
   39.5320  -27.1295    5.9817 O   0  0  0  0  0  0  0  0  0  0  0  0
   41.1239  -25.7921    5.0801 O   0  0  0  0  0  0  0  0  0  0  0  0
  2  1  1  6
  3  4  1  0
  3  2  1  0
  5  6  2  0
  5  4  1  0
  7  2  1  0
  7 10  1  0
  8  7  2  0
  9  5  1  0
 11 10  1  0
 11 12  1  1
 13 14  2  0
 13 12  1  0
 15 14  1  0
 16 21  2  0
 16 15  1  0
 17 16  1  0
 18 19  1  0
 18 17  2  0
 19 20  2  0
 20 21  1  0
 21 13  1  0
 22 11  1  0
 23 22  2  0
 24 22  1  0
 25 24  1  0
 26 25  1  0
 27 26  2  0
 28 26  1  0
M  END
$$$$
