EWG.pdb
     RDKit          3D

 28 29  0  0  1  0  0  0  0  0999 V2000
   20.2518  -13.9823  -16.9882 N   0  0  0  0  0  0  0  0  0  0  0  0
   20.1869  -12.6095  -17.4474 C   0  0  1  0  0  0  0  0  0  0  0  0
   18.7953  -12.0813  -17.2613 C   0  0  0  0  0  0  0  0  0  0  0  0
   17.8710  -12.5545  -18.3913 C   0  0  0  0  0  0  0  0  0  0  0  0
   18.1736  -11.8425  -19.6491 C   0  0  0  0  0  0  0  0  0  0  0  0
   19.0254  -12.2960  -20.4456 O   0  0  0  0  0  0  0  0  0  0  0  0
   21.2139  -11.7562  -16.7992 C   0  0  0  0  0  0  0  0  0  0  0  0
   21.4947  -11.8376  -15.5804 O   0  0  0  0  0  0  0  0  0  0  0  0
   17.5245  -10.6737  -19.9614 O   0  0  0  0  0  0  0  0  0  0  0  0
   21.9051  -10.8162  -17.5714 N   0  0  0  0  0  0  0  0  0  0  0  0
   22.9136   -9.9120  -17.1200 C   0  0  1  0  0  0  0  0  0  0  0  0
   24.1893  -10.1544  -17.8203 C   0  0  0  0  0  0  0  0  0  0  0  0
   24.8692  -11.4037  -17.4043 C   0  0  0  0  0  0  0  0  0  0  0  0
   24.5536  -12.6317  -17.9938 C   0  0  0  0  0  0  0  0  0  0  0  0
   25.3525  -13.5516  -17.4323 N   0  0  0  0  0  0  0  0  0  0  0  0
   26.1571  -13.0032  -16.5252 C   0  0  0  0  0  0  0  0  0  0  0  0
   27.1457  -13.4743  -15.6685 C   0  0  0  0  0  0  0  0  0  0  0  0
   27.8212  -12.6341  -14.8101 C   0  0  0  0  0  0  0  0  0  0  0  0
   27.5288  -11.2899  -14.7803 C   0  0  0  0  0  0  0  0  0  0  0  0
   26.5327  -10.8161  -15.6442 C   0  0  0  0  0  0  0  0  0  0  0  0
   25.8577  -11.6526  -16.5025 C   0  0  0  0  0  0  0  0  0  0  0  0
   22.4678   -8.5165  -17.0468 C   0  0  0  0  0  0  0  0  0  0  0  0
   22.2733   -7.9292  -18.1436 O   0  0  0  0  0  0  0  0  0  0  0  0
   22.2451   -7.7973  -15.8701 N   0  0  0  0  0  0  0  0  0  0  0  0
   21.9713   -6.3693  -15.8132 C   0  0  0  0  0  0  0  0  0  0  0  0
   21.5991   -5.9302  -14.4634 C   0  0  0  0  0  0  0  0  0  0  0  0
   21.3725   -6.7606  -13.5589 O   0  0  0  0  0  0  0  0  0  0  0  0
   21.4950   -4.5839  -14.1773 O   0  0  0  0  0  0  0  0  0  0  0  0
  2  1  1  1
  3  4  1  0
  3  2  1  0
  5  6  2  0
  5  4  1  0
  7  2  1  0
  7 10  1  0
  8  7  2  0
  9  5  1  0
 11 10  1  0
 11 12  1  6
 13 14  2  0
 13 12  1  0
 15 14  1  0
 16 21  2  0
 16 15  1  0
 17 16  1  0
 18 19  1  0
 18 17  2  0
 19 20  2  0
 20 21  1  0
 21 13  1  0
 22 11  1  0
 23 22  2  0
 24 22  1  0
 25 24  1  0
 26 25  1  0
 27 26  2  0
 28 26  1  0
M  END
$$$$
