EWG.pdb
     RDKit          3D

 28 29  0  0  1  0  0  0  0  0999 V2000
   27.6875  -21.8584  -13.4630 N   0  0  0  0  0  0  0  0  0  0  0  0
   27.0084  -20.7523  -12.8189 C   0  0  1  0  0  0  0  0  0  0  0  0
   26.0140  -20.1506  -13.7672 C   0  0  0  0  0  0  0  0  0  0  0  0
   26.6987  -19.6800  -15.0575 C   0  0  0  0  0  0  0  0  0  0  0  0
   26.4361  -20.6218  -16.1641 C   0  0  0  0  0  0  0  0  0  0  0  0
   25.2669  -20.8227  -16.5621 O   0  0  0  0  0  0  0  0  0  0  0  0
   26.3973  -21.1504  -11.5262 C   0  0  0  0  0  0  0  0  0  0  0  0
   25.9970  -22.3152  -11.2937 O   0  0  0  0  0  0  0  0  0  0  0  0
   27.4709  -21.2896  -16.7709 O   0  0  0  0  0  0  0  0  0  0  0  0
   26.2562  -20.1932  -10.5157 N   0  0  0  0  0  0  0  0  0  0  0  0
   25.5221  -20.3336   -9.2991 C   0  0  1  0  0  0  0  0  0  0  0  0
   26.0686  -19.4522   -8.2499 C   0  0  0  0  0  0  0  0  0  0  0  0
   27.3902  -19.8846   -7.7376 C   0  0  0  0  0  0  0  0  0  0  0  0
   28.4529  -20.1511   -8.6066 C   0  0  0  0  0  0  0  0  0  0  0  0
   29.5063  -20.4837   -7.8453 N   0  0  0  0  0  0  0  0  0  0  0  0
   29.1966  -20.4504   -6.5515 C   0  0  0  0  0  0  0  0  0  0  0  0
   29.8788  -20.7006   -5.3661 C   0  0  0  0  0  0  0  0  0  0  0  0
   29.2644  -20.5842   -4.1380 C   0  0  0  0  0  0  0  0  0  0  0  0
   27.9421  -20.2124   -4.0552 C   0  0  0  0  0  0  0  0  0  0  0  0
   27.2557  -19.9602   -5.2503 C   0  0  0  0  0  0  0  0  0  0  0  0
   27.8671  -20.0748   -6.4771 C   0  0  0  0  0  0  0  0  0  0  0  0
   24.0667  -20.3038   -9.4792 C   0  0  0  0  0  0  0  0  0  0  0  0
   23.5872  -19.2735  -10.0216 O   0  0  0  0  0  0  0  0  0  0  0  0
   23.1821  -21.3166   -9.1005 N   0  0  0  0  0  0  0  0  0  0  0  0
   21.7323  -21.1931   -9.1071 C   0  0  0  0  0  0  0  0  0  0  0  0
   21.1703  -21.3383  -10.4549 C   0  0  0  0  0  0  0  0  0  0  0  0
   21.9137  -21.4949  -11.4459 O   0  0  0  0  0  0  0  0  0  0  0  0
   19.8033  -21.3029  -10.6427 O   0  0  0  0  0  0  0  0  0  0  0  0
  2  1  1  6
  3  4  1  0
  3  2  1  0
  5  6  2  0
  5  4  1  0
  7  2  1  0
  7 10  1  0
  8  7  2  0
  9  5  1  0
 11 10  1  0
 11 12  1  1
 13 14  2  0
 13 12  1  0
 15 14  1  0
 16 21  2  0
 16 15  1  0
 17 16  1  0
 18 19  1  0
 18 17  2  0
 19 20  2  0
 20 21  1  0
 21 13  1  0
 22 11  1  0
 23 22  2  0
 24 22  1  0
 25 24  1  0
 26 25  1  0
 27 26  2  0
 28 26  1  0
M  END
$$$$
