EWG.pdb
     RDKit          3D

 28 29  0  0  1  0  0  0  0  0999 V2000
   28.7918  -21.5224  -14.5075 N   0  0  0  0  0  0  0  0  0  0  0  0
   27.5853  -20.7325  -14.3659 C   0  0  1  0  0  0  0  0  0  0  0  0
   26.9301  -20.5691  -15.7054 C   0  0  0  0  0  0  0  0  0  0  0  0
   27.7933  -19.7106  -16.6397 C   0  0  0  0  0  0  0  0  0  0  0  0
   27.7107  -18.2842  -16.2667 C   0  0  0  0  0  0  0  0  0  0  0  0
   26.6098  -17.6895  -16.2733 O   0  0  0  0  0  0  0  0  0  0  0  0
   26.6670  -21.2960  -13.3451 C   0  0  0  0  0  0  0  0  0  0  0  0
   26.1864  -22.4508  -13.4265 O   0  0  0  0  0  0  0  0  0  0  0  0
   28.8404  -17.5915  -15.9077 O   0  0  0  0  0  0  0  0  0  0  0  0
   26.3149  -20.5142  -12.2396 N   0  0  0  0  0  0  0  0  0  0  0  0
   25.3213  -20.8149  -11.2593 C   0  0  1  0  0  0  0  0  0  0  0  0
   25.6472  -20.1806   -9.9678 C   0  0  0  0  0  0  0  0  0  0  0  0
   26.9535  -20.6026   -9.4097 C   0  0  0  0  0  0  0  0  0  0  0  0
   27.7879  -21.4840  -10.1041 C   0  0  0  0  0  0  0  0  0  0  0  0
   28.8941  -21.6417   -9.3616 N   0  0  0  0  0  0  0  0  0  0  0  0
   28.8297  -20.9262   -8.2414 C   0  0  0  0  0  0  0  0  0  0  0  0
   29.6643  -20.7277   -7.1472 C   0  0  0  0  0  0  0  0  0  0  0  0
   29.3054  -19.9040   -6.1022 C   0  0  0  0  0  0  0  0  0  0  0  0
   28.0952  -19.2494   -6.1177 C   0  0  0  0  0  0  0  0  0  0  0  0
   27.2551  -19.4499   -7.2209 C   0  0  0  0  0  0  0  0  0  0  0  0
   27.6115  -20.2708   -8.2654 C   0  0  0  0  0  0  0  0  0  0  0  0
   23.9458  -20.6429  -11.7386 C   0  0  0  0  0  0  0  0  0  0  0  0
   23.5322  -19.4588  -11.8506 O   0  0  0  0  0  0  0  0  0  0  0  0
   23.0696  -21.6774  -12.0761 N   0  0  0  0  0  0  0  0  0  0  0  0
   21.7563  -21.4868  -12.6730 C   0  0  0  0  0  0  0  0  0  0  0  0
   20.7056  -21.3290  -11.6608 C   0  0  0  0  0  0  0  0  0  0  0  0
   20.9726  -21.4012  -10.4432 O   0  0  0  0  0  0  0  0  0  0  0  0
   19.4009  -21.0974  -12.0472 O   0  0  0  0  0  0  0  0  0  0  0  0
  2  1  1  6
  3  4  1  0
  3  2  1  0
  5  6  2  0
  5  4  1  0
  7  2  1  0
  7 10  1  0
  8  7  2  0
  9  5  1  0
 11 10  1  0
 11 12  1  1
 13 14  2  0
 13 12  1  0
 15 14  1  0
 16 21  2  0
 16 15  1  0
 17 16  1  0
 18 19  1  0
 18 17  2  0
 19 20  2  0
 20 21  1  0
 21 13  1  0
 22 11  1  0
 23 22  2  0
 24 22  1  0
 25 24  1  0
 26 25  1  0
 27 26  2  0
 28 26  1  0
M  END
$$$$
