EWG.pdb
     RDKit          3D

 28 29  0  0  1  0  0  0  0  0999 V2000
   27.1232  -18.7215  -13.6415 N   0  0  0  0  0  0  0  0  0  0  0  0
   26.7879  -20.0448  -14.1275 C   0  0  1  0  0  0  0  0  0  0  0  0
   28.0357  -20.7503  -14.5696 C   0  0  0  0  0  0  0  0  0  0  0  0
   28.8638  -19.8662  -15.5118 C   0  0  0  0  0  0  0  0  0  0  0  0
   28.3160  -19.9038  -16.8826 C   0  0  0  0  0  0  0  0  0  0  0  0
   27.4925  -20.7862  -17.2126 O   0  0  0  0  0  0  0  0  0  0  0  0
   26.0128  -20.8245  -13.1304 C   0  0  0  0  0  0  0  0  0  0  0  0
   25.6583  -22.0114  -13.3222 O   0  0  0  0  0  0  0  0  0  0  0  0
   28.7027  -18.9714  -17.8131 O   0  0  0  0  0  0  0  0  0  0  0  0
   25.6560  -20.2197  -11.9204 N   0  0  0  0  0  0  0  0  0  0  0  0
   24.8282  -20.7733  -10.8973 C   0  0  1  0  0  0  0  0  0  0  0  0
   25.2481  -20.2974   -9.5655 C   0  0  0  0  0  0  0  0  0  0  0  0
   26.6571  -20.6171   -9.2356 C   0  0  0  0  0  0  0  0  0  0  0  0
   27.4433  -21.3952  -10.0910 C   0  0  0  0  0  0  0  0  0  0  0  0
   28.6620  -21.4763   -9.5359 N   0  0  0  0  0  0  0  0  0  0  0  0
   28.7145  -20.8073   -8.3867 C   0  0  0  0  0  0  0  0  0  0  0  0
   29.6911  -20.5702   -7.4259 C   0  0  0  0  0  0  0  0  0  0  0  0
   29.4328  -19.8179   -6.3005 C   0  0  0  0  0  0  0  0  0  0  0  0
   28.1842  -19.2761   -6.0986 C   0  0  0  0  0  0  0  0  0  0  0  0
   27.2009  -19.5153   -7.0675 C   0  0  0  0  0  0  0  0  0  0  0  0
   27.4566  -20.2651   -8.1920 C   0  0  0  0  0  0  0  0  0  0  0  0
   23.3932  -20.6975  -11.1913 C   0  0  0  0  0  0  0  0  0  0  0  0
   22.6251  -21.3230  -10.4138 O   0  0  0  0  0  0  0  0  0  0  0  0
   22.8193  -19.9944  -12.2534 N   0  0  0  0  0  0  0  0  0  0  0  0
   21.3888  -19.8110  -12.4465 C   0  0  0  0  0  0  0  0  0  0  0  0
   20.8067  -20.8545  -13.2983 C   0  0  0  0  0  0  0  0  0  0  0  0
   19.5983  -20.8263  -13.6113 O   0  0  0  0  0  0  0  0  0  0  0  0
   21.5953  -21.8863  -13.7662 O   0  0  0  0  0  0  0  0  0  0  0  0
  2  1  1  1
  3  4  1  0
  3  2  1  0
  5  6  2  0
  5  4  1  0
  7  2  1  0
  7 10  1  0
  8  7  2  0
  9  5  1  0
 11 10  1  0
 11 12  1  1
 13 14  2  0
 13 12  1  0
 15 14  1  0
 16 21  2  0
 16 15  1  0
 17 16  1  0
 18 19  1  0
 18 17  2  0
 19 20  2  0
 20 21  1  0
 21 13  1  0
 22 11  1  0
 23 22  2  0
 24 22  1  0
 25 24  1  0
 26 25  1  0
 27 26  2  0
 28 26  1  0
M  END
$$$$
