HFE.pdb
     RDKit          3D

 31 32  0  0  1  0  0  0  0  0999 V2000
    9.5308  -16.3036   18.8928 N   0  0  0  0  0  0  0  0  0  0  0  0
    8.5981  -16.7036   19.9310 C   0  0  1  0  0  0  0  0  0  0  0  0
    8.5655  -18.1840   20.1273 C   0  0  0  0  0  0  0  0  0  0  0  0
    8.1019  -18.8684   18.8826 C   0  0  0  0  0  0  0  0  0  0  0  0
    6.8982  -18.7180   18.2348 C   0  0  0  0  0  0  0  0  0  0  0  0
    6.8758  -19.5102   17.1536 N   0  0  0  0  0  0  0  0  0  0  0  0
    8.0379  -20.1435   17.1226 C   0  0  0  0  0  0  0  0  0  0  0  0
    8.8020  -19.7769   18.1554 N   0  0  0  0  0  0  0  0  0  0  0  0
    8.9354  -15.9848   21.1784 C   0  0  0  0  0  0  0  0  0  0  0  0
   10.0851  -16.1158   21.7213 O   0  0  0  0  0  0  0  0  0  0  0  0
    8.0221  -15.1088   21.8525 N   0  0  0  0  0  0  0  0  0  0  0  0
    8.2677  -14.6038   23.1852 C   0  0  1  0  0  0  0  0  0  0  0  0
    7.1497  -13.6112   23.5133 C   0  0  0  0  0  0  0  0  0  0  0  0
    7.2330  -13.1185   24.9113 C   0  0  0  0  0  0  0  0  0  0  0  0
    6.2678  -13.4817   25.8498 C   0  0  0  0  0  0  0  0  0  0  0  0
    6.2942  -13.0560   27.1510 C   0  0  0  0  0  0  0  0  0  0  0  0
    7.3119  -12.2323   27.5683 C   0  0  0  0  0  0  0  0  0  0  0  0
    8.2726  -11.8649   26.6532 C   0  0  0  0  0  0  0  0  0  0  0  0
    8.2445  -12.2938   25.3450 C   0  0  0  0  0  0  0  0  0  0  0  0
    8.2447  -15.6408   24.2334 C   0  0  0  0  0  0  0  0  0  0  0  0
    7.2520  -16.3816   24.3943 O   0  0  0  0  0  0  0  0  0  0  0  0
    9.3920  -15.7689   25.0565 N   0  0  0  0  0  0  0  0  0  0  0  0
    9.5084  -16.8297   26.0803 C   0  0  1  0  0  0  0  0  0  0  0  0
   10.4202  -17.8584   25.4854 C   0  0  0  0  0  0  0  0  0  0  0  0
   11.8274  -17.4518   25.2315 C   0  0  0  0  0  0  0  0  0  0  0  0
   12.6877  -18.4893   24.6403 C   0  0  0  0  0  0  0  0  0  0  0  0
   12.1860  -19.6289   24.4072 O   0  0  0  0  0  0  0  0  0  0  0  0
    9.8695  -16.3472   27.3866 C   0  0  0  0  0  0  0  0  0  0  0  0
   10.2690  -15.1646   27.5912 O   0  0  0  0  0  0  0  0  0  0  0  0
   14.0122  -18.2573   24.3360 O   0  0  0  0  0  0  0  0  0  0  0  0
    9.7737  -17.2300   28.4800 O   0  0  0  0  0  0  0  0  0  0  0  0
  2  1  1  6
  3  2  1  0
  3  4  1  0
  4  8  1  0
  4  5  2  0
  5  6  1  0
  7  6  1  0
  8  7  2  0
  9  2  1  0
 10  9  2  0
 11  9  1  0
 12 11  1  0
 13 14  1  0
 12 13  1  1
 14 15  2  0
 15 16  1  0
 17 16  2  0
 18 17  1  0
 19 14  1  0
 19 18  2  0
 20 22  1  0
 20 12  1  0
 21 20  2  0
 23 24  1  6
 23 22  1  0
 25 24  1  0
 26 25  1  0
 27 26  2  0
 28 23  1  0
 29 28  2  0
 30 26  1  0
 31 28  1  0
M  END
$$$$
