HFE.pdb
     RDKit          3D

 31 32  0  0  1  0  0  0  0  0999 V2000
    8.8162  -15.5747   18.7692 N   0  0  0  0  0  0  0  0  0  0  0  0
    8.1295  -16.2216   19.8727 C   0  0  1  0  0  0  0  0  0  0  0  0
    8.3040  -17.7051   19.8604 C   0  0  0  0  0  0  0  0  0  0  0  0
    7.7056  -18.2936   18.6242 C   0  0  0  0  0  0  0  0  0  0  0  0
    6.7823  -19.3087   18.5340 C   0  0  0  0  0  0  0  0  0  0  0  0
    6.5028  -19.5390   17.2433 N   0  0  0  0  0  0  0  0  0  0  0  0
    7.2332  -18.6888   16.5389 C   0  0  0  0  0  0  0  0  0  0  0  0
    7.9720  -17.9215   17.3455 N   0  0  0  0  0  0  0  0  0  0  0  0
    8.5910  -15.6182   21.1414 C   0  0  0  0  0  0  0  0  0  0  0  0
    9.8366  -15.4514   21.3743 O   0  0  0  0  0  0  0  0  0  0  0  0
    7.6982  -15.1851   22.1764 N   0  0  0  0  0  0  0  0  0  0  0  0
    8.1343  -14.9584   23.5364 C   0  0  1  0  0  0  0  0  0  0  0  0
    6.8863  -14.6833   24.3789 C   0  0  0  0  0  0  0  0  0  0  0  0
    7.1443  -13.6889   25.4507 C   0  0  0  0  0  0  0  0  0  0  0  0
    6.4719  -12.4674   25.4616 C   0  0  0  0  0  0  0  0  0  0  0  0
    6.6714  -11.5137   26.4237 C   0  0  0  0  0  0  0  0  0  0  0  0
    7.5723  -11.7551   27.4328 C   0  0  0  0  0  0  0  0  0  0  0  0
    8.2441  -12.9568   27.4359 C   0  0  0  0  0  0  0  0  0  0  0  0
    8.0424  -13.9148   26.4675 C   0  0  0  0  0  0  0  0  0  0  0  0
    8.8205  -16.1122   24.1466 C   0  0  0  0  0  0  0  0  0  0  0  0
    8.2966  -17.2460   24.1646 O   0  0  0  0  0  0  0  0  0  0  0  0
   10.1003  -15.8905   24.7152 N   0  0  0  0  0  0  0  0  0  0  0  0
   10.8787  -16.9794   25.3438 C   0  0  1  0  0  0  0  0  0  0  0  0
   12.2612  -16.8564   24.7806 C   0  0  0  0  0  0  0  0  0  0  0  0
   13.3124  -17.7288   25.3670 C   0  0  0  0  0  0  0  0  0  0  0  0
   14.6614  -17.5579   24.8039 C   0  0  0  0  0  0  0  0  0  0  0  0
   15.1582  -16.3930   24.7694 O   0  0  0  0  0  0  0  0  0  0  0  0
   10.7835  -17.0161   26.7787 C   0  0  0  0  0  0  0  0  0  0  0  0
   10.3458  -16.0436   27.4588 O   0  0  0  0  0  0  0  0  0  0  0  0
   15.3927  -18.6206   24.3175 O   0  0  0  0  0  0  0  0  0  0  0  0
   11.1957  -18.1833   27.4507 O   0  0  0  0  0  0  0  0  0  0  0  0
  2  1  1  6
  3  2  1  0
  3  4  1  0
  4  8  1  0
  4  5  2  0
  5  6  1  0
  7  6  1  0
  8  7  2  0
  9  2  1  0
 10  9  2  0
 11  9  1  0
 12 11  1  0
 13 14  1  0
 12 13  1  1
 14 15  2  0
 15 16  1  0
 17 16  2  0
 18 17  1  0
 19 14  1  0
 19 18  2  0
 20 22  1  0
 20 12  1  0
 21 20  2  0
 23 24  1  1
 23 22  1  0
 25 24  1  0
 26 25  1  0
 27 26  2  0
 28 23  1  0
 29 28  2  0
 30 26  1  0
 31 28  1  0
M  END
$$$$
