HFE.pdb
     RDKit          3D

 31 32  0  0  1  0  0  0  0  0999 V2000
   10.5338  -16.4562   19.4411 N   0  0  0  0  0  0  0  0  0  0  0  0
    9.3807  -16.8606   20.2250 C   0  0  1  0  0  0  0  0  0  0  0  0
    9.2780  -18.3445   20.3626 C   0  0  0  0  0  0  0  0  0  0  0  0
    9.0374  -18.9794   19.0316 C   0  0  0  0  0  0  0  0  0  0  0  0
    7.8425  -19.4123   18.5064 C   0  0  0  0  0  0  0  0  0  0  0  0
    8.0550  -19.9215   17.2846 N   0  0  0  0  0  0  0  0  0  0  0  0
    9.3527  -19.8112   17.0475 C   0  0  0  0  0  0  0  0  0  0  0  0
    9.9749  -19.2452   18.0856 N   0  0  0  0  0  0  0  0  0  0  0  0
    9.4352  -16.1832   21.5383 C   0  0  0  0  0  0  0  0  0  0  0  0
   10.4469  -16.3214   22.3070 O   0  0  0  0  0  0  0  0  0  0  0  0
    8.3851  -15.3413   22.0327 N   0  0  0  0  0  0  0  0  0  0  0  0
    8.3924  -14.7916   23.3703 C   0  0  1  0  0  0  0  0  0  0  0  0
    7.1658  -13.8853   23.5009 C   0  0  0  0  0  0  0  0  0  0  0  0
    7.0304  -13.3226   24.8680 C   0  0  0  0  0  0  0  0  0  0  0  0
    7.7763  -12.2095   25.2539 C   0  0  0  0  0  0  0  0  0  0  0  0
    7.6926  -11.6503   26.5010 C   0  0  0  0  0  0  0  0  0  0  0  0
    6.8387  -12.1986   27.4276 C   0  0  0  0  0  0  0  0  0  0  0  0
    6.0952  -13.2979   27.0616 C   0  0  0  0  0  0  0  0  0  0  0  0
    6.1807  -13.8592   25.8070 C   0  0  0  0  0  0  0  0  0  0  0  0
    8.2944  -15.8057   24.4363 C   0  0  0  0  0  0  0  0  0  0  0  0
    7.4687  -16.7407   24.3711 O   0  0  0  0  0  0  0  0  0  0  0  0
    9.1723  -15.6831   25.5429 N   0  0  0  0  0  0  0  0  0  0  0  0
    9.5236  -16.8380   26.3972 C   0  0  1  0  0  0  0  0  0  0  0  0
   10.1980  -17.8166   25.4855 C   0  0  0  0  0  0  0  0  0  0  0  0
   10.6848  -19.0838   26.0917 C   0  0  0  0  0  0  0  0  0  0  0  0
   11.3276  -20.0237   25.1593 C   0  0  0  0  0  0  0  0  0  0  0  0
   12.4372  -19.6975   24.6425 O   0  0  0  0  0  0  0  0  0  0  0  0
   10.2463  -16.4868   27.5905 C   0  0  0  0  0  0  0  0  0  0  0  0
   10.5046  -17.3235   28.5032 O   0  0  0  0  0  0  0  0  0  0  0  0
   10.7608  -21.2382   24.8359 O   0  0  0  0  0  0  0  0  0  0  0  0
   10.6821  -15.1565   27.7460 O   0  0  0  0  0  0  0  0  0  0  0  0
  2  1  1  6
  3  2  1  0
  3  4  1  0
  4  8  1  0
  4  5  2  0
  5  6  1  0
  7  6  1  0
  8  7  2  0
  9  2  1  0
 10  9  2  0
 11  9  1  0
 12 11  1  0
 13 14  1  0
 12 13  1  6
 14 15  2  0
 15 16  1  0
 17 16  2  0
 18 17  1  0
 19 14  1  0
 19 18  2  0
 20 22  1  0
 20 12  1  0
 21 20  2  0
 23 24  1  6
 23 22  1  0
 25 24  1  0
 26 25  1  0
 27 26  2  0
 28 23  1  0
 29 28  2  0
 30 26  1  0
 31 28  1  0
M  END
$$$$
