HFE.pdb
     RDKit          3D

 31 32  0  0  1  0  0  0  0  0999 V2000
    8.1745  -15.9098   19.1822 N   0  0  0  0  0  0  0  0  0  0  0  0
    9.5180  -15.4897   19.5376 C   0  0  1  0  0  0  0  0  0  0  0  0
   10.0452  -14.4338   18.6219 C   0  0  0  0  0  0  0  0  0  0  0  0
    9.2401  -14.3802   17.3642 C   0  0  0  0  0  0  0  0  0  0  0  0
    8.4727  -13.3392   16.8968 C   0  0  0  0  0  0  0  0  0  0  0  0
    7.9127  -13.6913   15.7308 N   0  0  0  0  0  0  0  0  0  0  0  0
    8.3185  -14.9244   15.4715 C   0  0  0  0  0  0  0  0  0  0  0  0
    9.1228  -15.3694   16.4411 N   0  0  0  0  0  0  0  0  0  0  0  0
    9.5234  -15.0533   20.9504 C   0  0  0  0  0  0  0  0  0  0  0  0
   10.6213  -14.8129   21.5592 O   0  0  0  0  0  0  0  0  0  0  0  0
    8.3284  -14.8704   21.7213 N   0  0  0  0  0  0  0  0  0  0  0  0
    8.3526  -14.5639   23.1344 C   0  0  1  0  0  0  0  0  0  0  0  0
    6.9719  -14.0200   23.5099 C   0  0  0  0  0  0  0  0  0  0  0  0
    6.9375  -13.4944   24.8979 C   0  0  0  0  0  0  0  0  0  0  0  0
    7.4510  -12.2315   25.1909 C   0  0  0  0  0  0  0  0  0  0  0  0
    7.4468  -11.6979   26.4519 C   0  0  0  0  0  0  0  0  0  0  0  0
    6.9155  -12.4268   27.4885 C   0  0  0  0  0  0  0  0  0  0  0  0
    6.4043  -13.6756   27.2152 C   0  0  0  0  0  0  0  0  0  0  0  0
    6.4095  -14.2108   25.9464 C   0  0  0  0  0  0  0  0  0  0  0  0
    8.6048  -15.7326   23.9976 C   0  0  0  0  0  0  0  0  0  0  0  0
    7.9012  -16.7618   23.9215 O   0  0  0  0  0  0  0  0  0  0  0  0
    9.6773  -15.6482   24.9212 N   0  0  0  0  0  0  0  0  0  0  0  0
   10.1429  -16.8214   25.6918 C   0  0  1  0  0  0  0  0  0  0  0  0
   11.5659  -17.0321   25.2745 C   0  0  0  0  0  0  0  0  0  0  0  0
   12.3117  -18.1329   25.9394 C   0  0  0  0  0  0  0  0  0  0  0  0
   13.7103  -18.2966   25.5116 C   0  0  0  0  0  0  0  0  0  0  0  0
   14.1368  -19.4661   25.2766 O   0  0  0  0  0  0  0  0  0  0  0  0
    9.9091  -16.7237   27.1079 C   0  0  0  0  0  0  0  0  0  0  0  0
    9.6971  -15.6210   27.6903 O   0  0  0  0  0  0  0  0  0  0  0  0
   14.5613  -17.2224   25.3610 O   0  0  0  0  0  0  0  0  0  0  0  0
    9.9177  -17.9054   27.8743 O   0  0  0  0  0  0  0  0  0  0  0  0
  2  1  1  6
  3  2  1  0
  3  4  1  0
  4  8  1  0
  4  5  2  0
  5  6  1  0
  7  6  1  0
  8  7  2  0
  9  2  1  0
 10  9  2  0
 11  9  1  0
 12 11  1  0
 13 14  1  0
 12 13  1  1
 14 15  2  0
 15 16  1  0
 17 16  2  0
 18 17  1  0
 19 14  1  0
 19 18  2  0
 20 22  1  0
 20 12  1  0
 21 20  2  0
 23 24  1  1
 23 22  1  0
 25 24  1  0
 26 25  1  0
 27 26  2  0
 28 23  1  0
 29 28  2  0
 30 26  1  0
 31 28  1  0
M  END
$$$$
