HFE.pdb
     RDKit          3D

 31 32  0  0  1  0  0  0  0  0999 V2000
    9.9343  -16.4106   18.9304 N   0  0  0  0  0  0  0  0  0  0  0  0
    8.7928  -16.6931   19.7819 C   0  0  1  0  0  0  0  0  0  0  0  0
    8.4964  -18.1545   19.8702 C   0  0  0  0  0  0  0  0  0  0  0  0
    8.0436  -18.6790   18.5464 C   0  0  0  0  0  0  0  0  0  0  0  0
    6.7554  -18.7888   18.0777 C   0  0  0  0  0  0  0  0  0  0  0  0
    6.7772  -19.3066   16.8414 N   0  0  0  0  0  0  0  0  0  0  0  0
    8.0489  -19.5173   16.5402 C   0  0  0  0  0  0  0  0  0  0  0  0
    8.8401  -19.1479   17.5514 N   0  0  0  0  0  0  0  0  0  0  0  0
    9.0298  -16.0927   21.1123 C   0  0  0  0  0  0  0  0  0  0  0  0
   10.1523  -16.2354   21.7067 O   0  0  0  0  0  0  0  0  0  0  0  0
    8.0439  -15.3242   21.8148 N   0  0  0  0  0  0  0  0  0  0  0  0
    8.2681  -14.7982   23.1431 C   0  0  1  0  0  0  0  0  0  0  0  0
    7.0409  -13.9644   23.5198 C   0  0  0  0  0  0  0  0  0  0  0  0
    7.1855  -13.3293   24.8538 C   0  0  0  0  0  0  0  0  0  0  0  0
    6.5171  -13.8478   25.9623 C   0  0  0  0  0  0  0  0  0  0  0  0
    6.6128  -13.3022   27.2146 C   0  0  0  0  0  0  0  0  0  0  0  0
    7.3997  -12.1920   27.4057 C   0  0  0  0  0  0  0  0  0  0  0  0
    8.0662  -11.6683   26.3209 C   0  0  0  0  0  0  0  0  0  0  0  0
    7.9687  -12.2182   25.0621 C   0  0  0  0  0  0  0  0  0  0  0  0
    8.4201  -15.8346   24.1811 C   0  0  0  0  0  0  0  0  0  0  0  0
    7.5611  -16.7273   24.3401 O   0  0  0  0  0  0  0  0  0  0  0  0
    9.5789  -15.7831   24.9965 N   0  0  0  0  0  0  0  0  0  0  0  0
    9.8674  -16.8151   26.0156 C   0  0  1  0  0  0  0  0  0  0  0  0
   11.1793  -17.4155   25.6135 C   0  0  0  0  0  0  0  0  0  0  0  0
   11.2153  -18.1718   24.3341 C   0  0  0  0  0  0  0  0  0  0  0  0
   12.5329  -18.7052   23.9526 C   0  0  0  0  0  0  0  0  0  0  0  0
   12.6357  -19.3339   22.8576 O   0  0  0  0  0  0  0  0  0  0  0  0
    9.7799  -16.3416   27.3713 C   0  0  0  0  0  0  0  0  0  0  0  0
    9.9877  -15.1346   27.6875 O   0  0  0  0  0  0  0  0  0  0  0  0
   13.6479  -18.5410   24.7466 O   0  0  0  0  0  0  0  0  0  0  0  0
    9.4497  -17.2617   28.3852 O   0  0  0  0  0  0  0  0  0  0  0  0
  2  1  1  6
  3  2  1  0
  3  4  1  0
  4  8  1  0
  4  5  2  0
  5  6  1  0
  7  6  1  0
  8  7  2  0
  9  2  1  0
 10  9  2  0
 11  9  1  0
 12 11  1  0
 13 14  1  0
 12 13  1  1
 14 15  2  0
 15 16  1  0
 17 16  2  0
 18 17  1  0
 19 14  1  0
 19 18  2  0
 20 22  1  0
 20 12  1  0
 21 20  2  0
 23 24  1  6
 23 22  1  0
 25 24  1  0
 26 25  1  0
 27 26  2  0
 28 23  1  0
 29 28  2  0
 30 26  1  0
 31 28  1  0
M  END
$$$$
