HFE.pdb
     RDKit          3D

 31 32  0  0  1  0  0  0  0  0999 V2000
    9.8286  -16.1470   18.8953 N   0  0  0  0  0  0  0  0  0  0  0  0
    8.9058  -16.6706   19.8862 C   0  0  1  0  0  0  0  0  0  0  0  0
    8.9955  -18.1558   20.0189 C   0  0  0  0  0  0  0  0  0  0  0  0
    8.6374  -18.8204   18.7295 C   0  0  0  0  0  0  0  0  0  0  0  0
    7.3817  -19.0424   18.2144 C   0  0  0  0  0  0  0  0  0  0  0  0
    7.4923  -19.6665   17.0331 N   0  0  0  0  0  0  0  0  0  0  0  0
    8.7867  -19.8327   16.8110 C   0  0  0  0  0  0  0  0  0  0  0  0
    9.5060  -19.3315   17.8192 N   0  0  0  0  0  0  0  0  0  0  0  0
    9.1459  -15.9822   21.1727 C   0  0  0  0  0  0  0  0  0  0  0  0
   10.3290  -15.8584   21.6404 O   0  0  0  0  0  0  0  0  0  0  0  0
    8.0967  -15.4157   21.9690 N   0  0  0  0  0  0  0  0  0  0  0  0
    8.3433  -14.7821   23.2453 C   0  0  1  0  0  0  0  0  0  0  0  0
    7.0645  -14.0422   23.6453 C   0  0  0  0  0  0  0  0  0  0  0  0
    7.1918  -13.3828   24.9693 C   0  0  0  0  0  0  0  0  0  0  0  0
    6.5398  -13.9033   26.0865 C   0  0  0  0  0  0  0  0  0  0  0  0
    6.6208  -13.3360   27.3301 C   0  0  0  0  0  0  0  0  0  0  0  0
    7.3755  -12.2008   27.5032 C   0  0  0  0  0  0  0  0  0  0  0  0
    8.0255  -11.6747   26.4095 C   0  0  0  0  0  0  0  0  0  0  0  0
    7.9428  -12.2465   25.1595 C   0  0  0  0  0  0  0  0  0  0  0  0
    8.6532  -15.7269   24.3343 C   0  0  0  0  0  0  0  0  0  0  0  0
    7.8908  -16.6779   24.6074 O   0  0  0  0  0  0  0  0  0  0  0  0
    9.8506  -15.5185   25.0645 N   0  0  0  0  0  0  0  0  0  0  0  0
   10.3487  -16.5009   26.0512 C   0  0  1  0  0  0  0  0  0  0  0  0
   11.8120  -16.6448   25.7652 C   0  0  0  0  0  0  0  0  0  0  0  0
   12.1977  -17.5213   24.6281 C   0  0  0  0  0  0  0  0  0  0  0  0
   13.4977  -17.2168   24.0088 C   0  0  0  0  0  0  0  0  0  0  0  0
   14.4304  -16.7803   24.7466 O   0  0  0  0  0  0  0  0  0  0  0  0
    9.9996  -16.1939   27.4126 C   0  0  0  0  0  0  0  0  0  0  0  0
    9.4208  -15.1189   27.7430 O   0  0  0  0  0  0  0  0  0  0  0  0
   13.7262  -17.3920   22.6605 O   0  0  0  0  0  0  0  0  0  0  0  0
   10.3170  -17.1300   28.4159 O   0  0  0  0  0  0  0  0  0  0  0  0
  2  1  1  6
  3  2  1  0
  3  4  1  0
  4  8  1  0
  4  5  2  0
  5  6  1  0
  7  6  1  0
  8  7  2  0
  9  2  1  0
 10  9  2  0
 11  9  1  0
 12 11  1  0
 13 14  1  0
 12 13  1  1
 14 15  2  0
 15 16  1  0
 17 16  2  0
 18 17  1  0
 19 14  1  0
 19 18  2  0
 20 22  1  0
 20 12  1  0
 21 20  2  0
 23 24  1  1
 23 22  1  0
 25 24  1  0
 26 25  1  0
 27 26  2  0
 28 23  1  0
 29 28  2  0
 30 26  1  0
 31 28  1  0
M  END
$$$$
