HFE.pdb
     RDKit          3D

 31 32  0  0  1  0  0  0  0  0999 V2000
    9.2699  -14.5471   20.3583 N   0  0  0  0  0  0  0  0  0  0  0  0
    8.4645  -15.5254   21.0667 C   0  0  1  0  0  0  0  0  0  0  0  0
    8.5042  -16.8712   20.4197 C   0  0  0  0  0  0  0  0  0  0  0  0
    7.9657  -16.8003   19.0278 C   0  0  0  0  0  0  0  0  0  0  0  0
    7.5447  -15.6856   18.3412 C   0  0  0  0  0  0  0  0  0  0  0  0
    7.1344  -16.0486   17.1176 N   0  0  0  0  0  0  0  0  0  0  0  0
    7.2938  -17.3603   17.0371 C   0  0  0  0  0  0  0  0  0  0  0  0
    7.7949  -17.8450   18.1769 N   0  0  0  0  0  0  0  0  0  0  0  0
    8.9044  -15.5739   22.4777 C   0  0  0  0  0  0  0  0  0  0  0  0
   10.1391  -15.4525   22.7851 O   0  0  0  0  0  0  0  0  0  0  0  0
    8.0015  -15.7542   23.5769 N   0  0  0  0  0  0  0  0  0  0  0  0
    8.4571  -16.0217   24.9230 C   0  0  1  0  0  0  0  0  0  0  0  0
    7.3383  -15.6000   25.8787 C   0  0  0  0  0  0  0  0  0  0  0  0
    7.2166  -14.1238   25.9792 C   0  0  0  0  0  0  0  0  0  0  0  0
    8.1781  -13.3776   26.6597 C   0  0  0  0  0  0  0  0  0  0  0  0
    8.1155  -12.0155   26.7847 C   0  0  0  0  0  0  0  0  0  0  0  0
    7.0632  -11.3363   26.2194 C   0  0  0  0  0  0  0  0  0  0  0  0
    6.1057  -12.0590   25.5440 C   0  0  0  0  0  0  0  0  0  0  0  0
    6.1701  -13.4289   25.4193 C   0  0  0  0  0  0  0  0  0  0  0  0
    8.7382  -17.4445   25.1896 C   0  0  0  0  0  0  0  0  0  0  0  0
    8.3603  -18.3406   24.4057 O   0  0  0  0  0  0  0  0  0  0  0  0
    9.4544  -17.7629   26.3711 N   0  0  0  0  0  0  0  0  0  0  0  0
   10.5079  -18.8004   26.3942 C   0  0  1  0  0  0  0  0  0  0  0  0
   11.4616  -18.4234   25.3025 C   0  0  0  0  0  0  0  0  0  0  0  0
   12.6420  -19.3041   25.0992 C   0  0  0  0  0  0  0  0  0  0  0  0
   13.8857  -18.6152   24.7189 C   0  0  0  0  0  0  0  0  0  0  0  0
   14.2575  -17.6175   25.4054 O   0  0  0  0  0  0  0  0  0  0  0  0
   11.0893  -19.0175   27.6921 C   0  0  0  0  0  0  0  0  0  0  0  0
   11.1710  -18.1054   28.5647 O   0  0  0  0  0  0  0  0  0  0  0  0
   14.6504  -19.0219   23.6462 O   0  0  0  0  0  0  0  0  0  0  0  0
   11.5873  -20.2984   28.0005 O   0  0  0  0  0  0  0  0  0  0  0  0
  2  1  1  6
  3  2  1  0
  3  4  1  0
  4  8  1  0
  4  5  2  0
  5  6  1  0
  7  6  1  0
  8  7  2  0
  9  2  1  0
 10  9  2  0
 11  9  1  0
 12 11  1  0
 13 14  1  0
 12 13  1  1
 14 15  2  0
 15 16  1  0
 17 16  2  0
 18 17  1  0
 19 14  1  0
 19 18  2  0
 20 22  1  0
 20 12  1  0
 21 20  2  0
 23 24  1  6
 23 22  1  0
 25 24  1  0
 26 25  1  0
 27 26  2  0
 28 23  1  0
 29 28  2  0
 30 26  1  0
 31 28  1  0
M  END
$$$$
