HFE.pdb
     RDKit          3D

 31 32  0  0  1  0  0  0  0  0999 V2000
    7.7782  -17.0301   19.7228 N   0  0  0  0  0  0  0  0  0  0  0  0
    9.1718  -16.6978   19.9579 C   0  0  1  0  0  0  0  0  0  0  0  0
    9.7890  -15.9811   18.8018 C   0  0  0  0  0  0  0  0  0  0  0  0
    8.9000  -14.8745   18.3352 C   0  0  0  0  0  0  0  0  0  0  0  0
    8.9075  -13.5593   18.7367 C   0  0  0  0  0  0  0  0  0  0  0  0
    7.9518  -12.8899   18.0766 N   0  0  0  0  0  0  0  0  0  0  0  0
    7.3577  -13.7637   17.2791 C   0  0  0  0  0  0  0  0  0  0  0  0
    7.9085  -14.9737   17.4124 N   0  0  0  0  0  0  0  0  0  0  0  0
    9.2720  -15.9201   21.2116 C   0  0  0  0  0  0  0  0  0  0  0  0
   10.4076  -15.5464   21.6635 O   0  0  0  0  0  0  0  0  0  0  0  0
    8.1318  -15.5358   21.9916 N   0  0  0  0  0  0  0  0  0  0  0  0
    8.2479  -15.0112   23.3341 C   0  0  1  0  0  0  0  0  0  0  0  0
    6.9787  -14.2061   23.6238 C   0  0  0  0  0  0  0  0  0  0  0  0
    7.0467  -13.5080   24.9323 C   0  0  0  0  0  0  0  0  0  0  0  0
    6.3419  -13.9941   26.0328 C   0  0  0  0  0  0  0  0  0  0  0  0
    6.3670  -13.3904   27.2616 C   0  0  0  0  0  0  0  0  0  0  0  0
    7.1165  -12.2519   27.4360 C   0  0  0  0  0  0  0  0  0  0  0  0
    7.8182  -11.7597   26.3587 C   0  0  0  0  0  0  0  0  0  0  0  0
    7.7917  -12.3680   25.1235 C   0  0  0  0  0  0  0  0  0  0  0  0
    8.3476  -16.0487   24.3773 C   0  0  0  0  0  0  0  0  0  0  0  0
    7.4865  -16.9470   24.4862 O   0  0  0  0  0  0  0  0  0  0  0  0
    9.4584  -15.9920   25.2567 N   0  0  0  0  0  0  0  0  0  0  0  0
    9.7915  -17.1044   26.1724 C   0  0  1  0  0  0  0  0  0  0  0  0
   10.8934  -17.8603   25.4957 C   0  0  0  0  0  0  0  0  0  0  0  0
   11.4976  -18.9936   26.2444 C   0  0  0  0  0  0  0  0  0  0  0  0
   12.6157  -19.6719   25.5693 C   0  0  0  0  0  0  0  0  0  0  0  0
   12.3605  -20.6741   24.8375 O   0  0  0  0  0  0  0  0  0  0  0  0
   10.0486  -16.6928   27.5266 C   0  0  0  0  0  0  0  0  0  0  0  0
   10.4791  -15.5401   27.8195 O   0  0  0  0  0  0  0  0  0  0  0  0
   13.9209  -19.2508   25.7098 O   0  0  0  0  0  0  0  0  0  0  0  0
    9.8107  -17.6129   28.5661 O   0  0  0  0  0  0  0  0  0  0  0  0
  2  1  1  6
  3  2  1  0
  3  4  1  0
  4  8  1  0
  4  5  2  0
  5  6  1  0
  7  6  1  0
  8  7  2  0
  9  2  1  0
 10  9  2  0
 11  9  1  0
 12 11  1  0
 13 14  1  0
 12 13  1  1
 14 15  2  0
 15 16  1  0
 17 16  2  0
 18 17  1  0
 19 14  1  0
 19 18  2  0
 20 22  1  0
 20 12  1  0
 21 20  2  0
 23 24  1  6
 23 22  1  0
 25 24  1  0
 26 25  1  0
 27 26  2  0
 28 23  1  0
 29 28  2  0
 30 26  1  0
 31 28  1  0
M  END
$$$$
