HFE.pdb
     RDKit          3D

 31 32  0  0  1  0  0  0  0  0999 V2000
   10.3723  -16.5683   19.2362 N   0  0  0  0  0  0  0  0  0  0  0  0
    9.2706  -16.9333   20.1085 C   0  0  1  0  0  0  0  0  0  0  0  0
    9.1498  -18.4117   20.2846 C   0  0  0  0  0  0  0  0  0  0  0  0
    8.5953  -19.0437   19.0494 C   0  0  0  0  0  0  0  0  0  0  0  0
    7.6232  -18.5494   18.2116 C   0  0  0  0  0  0  0  0  0  0  0  0
    7.4125  -19.4214   17.2155 N   0  0  0  0  0  0  0  0  0  0  0  0
    8.2327  -20.4397   17.4222 C   0  0  0  0  0  0  0  0  0  0  0  0
    8.9618  -20.2413   18.5242 N   0  0  0  0  0  0  0  0  0  0  0  0
    9.4316  -16.2311   21.3998 C   0  0  0  0  0  0  0  0  0  0  0  0
   10.5233  -16.3119   22.0596 O   0  0  0  0  0  0  0  0  0  0  0  0
    8.4022  -15.4269   21.9910 N   0  0  0  0  0  0  0  0  0  0  0  0
    8.5285  -14.8462   23.3094 C   0  0  1  0  0  0  0  0  0  0  0  0
    7.3107  -13.9462   23.5332 C   0  0  0  0  0  0  0  0  0  0  0  0
    7.3278  -13.3066   24.8729 C   0  0  0  0  0  0  0  0  0  0  0  0
    6.3788  -13.6504   25.8350 C   0  0  0  0  0  0  0  0  0  0  0  0
    6.3465  -13.0919   27.0848 C   0  0  0  0  0  0  0  0  0  0  0  0
    7.2853  -12.1474   27.4235 C   0  0  0  0  0  0  0  0  0  0  0  0
    8.2291  -11.7975   26.4843 C   0  0  0  0  0  0  0  0  0  0  0  0
    8.2602  -12.3600   25.2278 C   0  0  0  0  0  0  0  0  0  0  0  0
    8.5396  -15.8360   24.4024 C   0  0  0  0  0  0  0  0  0  0  0  0
    7.5932  -16.6344   24.5670 O   0  0  0  0  0  0  0  0  0  0  0  0
    9.6653  -15.8508   25.2643 N   0  0  0  0  0  0  0  0  0  0  0  0
    9.7959  -16.8271   26.3673 C   0  0  1  0  0  0  0  0  0  0  0  0
   11.0373  -17.6079   26.0625 C   0  0  0  0  0  0  0  0  0  0  0  0
   11.1439  -18.2103   24.7076 C   0  0  0  0  0  0  0  0  0  0  0  0
   12.3342  -19.0454   24.4796 C   0  0  0  0  0  0  0  0  0  0  0  0
   13.4758  -18.5422   24.6993 O   0  0  0  0  0  0  0  0  0  0  0  0
    9.7252  -16.2425   27.6799 C   0  0  0  0  0  0  0  0  0  0  0  0
    9.9150  -15.0096   27.8891 O   0  0  0  0  0  0  0  0  0  0  0  0
   12.2419  -20.3481   24.0377 O   0  0  0  0  0  0  0  0  0  0  0  0
    9.4332  -17.0797   28.7743 O   0  0  0  0  0  0  0  0  0  0  0  0
  2  1  1  6
  3  2  1  0
  3  4  1  0
  4  8  1  0
  4  5  2  0
  5  6  1  0
  7  6  1  0
  8  7  2  0
  9  2  1  0
 10  9  2  0
 11  9  1  0
 12 11  1  0
 13 14  1  0
 12 13  1  1
 14 15  2  0
 15 16  1  0
 17 16  2  0
 18 17  1  0
 19 14  1  0
 19 18  2  0
 20 22  1  0
 20 12  1  0
 21 20  2  0
 23 24  1  6
 23 22  1  0
 25 24  1  0
 26 25  1  0
 27 26  2  0
 28 23  1  0
 29 28  2  0
 30 26  1  0
 31 28  1  0
M  END
$$$$
