HFE.pdb
     RDKit          3D

 31 32  0  0  1  0  0  0  0  0999 V2000
    8.7094  -17.4657   20.7720 N   0  0  0  0  0  0  0  0  0  0  0  0
   10.1365  -17.1992   20.7858 C   0  0  1  0  0  0  0  0  0  0  0  0
   10.5868  -16.4478   19.5759 C   0  0  0  0  0  0  0  0  0  0  0  0
   10.1711  -17.1609   18.3304 C   0  0  0  0  0  0  0  0  0  0  0  0
   10.2628  -18.5055   18.0568 C   0  0  0  0  0  0  0  0  0  0  0  0
    9.7790  -18.7410   16.8290 N   0  0  0  0  0  0  0  0  0  0  0  0
    9.3924  -17.5722   16.3423 C   0  0  0  0  0  0  0  0  0  0  0  0
    9.6165  -16.5961   17.2268 N   0  0  0  0  0  0  0  0  0  0  0  0
   10.4777  -16.4915   22.0384 C   0  0  0  0  0  0  0  0  0  0  0  0
   11.6585  -16.0455   22.2400 O   0  0  0  0  0  0  0  0  0  0  0  0
    9.5331  -16.2575   23.0915 N   0  0  0  0  0  0  0  0  0  0  0  0
    9.9360  -16.0122   24.4585 C   0  0  1  0  0  0  0  0  0  0  0  0
    8.7464  -15.3745   25.1804 C   0  0  0  0  0  0  0  0  0  0  0  0
    9.1080  -14.8973   26.5389 C   0  0  0  0  0  0  0  0  0  0  0  0
    9.4650  -13.5663   26.7513 C   0  0  0  0  0  0  0  0  0  0  0  0
    9.8087  -13.0725   27.9814 C   0  0  0  0  0  0  0  0  0  0  0  0
    9.8071  -13.9139   29.0678 C   0  0  0  0  0  0  0  0  0  0  0  0
    9.4567  -15.2311   28.8742 C   0  0  0  0  0  0  0  0  0  0  0  0
    9.1114  -15.7261   27.6365 C   0  0  0  0  0  0  0  0  0  0  0  0
   10.2911  -17.2319   25.2075 C   0  0  0  0  0  0  0  0  0  0  0  0
    9.4685  -18.1573   25.3718 O   0  0  0  0  0  0  0  0  0  0  0  0
   11.6033  -17.3191   25.7375 N   0  0  0  0  0  0  0  0  0  0  0  0
   12.0909  -18.5319   26.4291 C   0  0  1  0  0  0  0  0  0  0  0  0
   13.4711  -18.7658   25.8963 C   0  0  0  0  0  0  0  0  0  0  0  0
   14.2245  -19.9219   26.4493 C   0  0  0  0  0  0  0  0  0  0  0  0
   15.6781  -19.8964   26.2198 C   0  0  0  0  0  0  0  0  0  0  0  0
   16.4190  -19.3656   27.0997 O   0  0  0  0  0  0  0  0  0  0  0  0
   11.9685  -18.4797   27.8615 C   0  0  0  0  0  0  0  0  0  0  0  0
   11.6743  -19.4932   28.5588 O   0  0  0  0  0  0  0  0  0  0  0  0
   16.2503  -20.4293   25.0843 O   0  0  0  0  0  0  0  0  0  0  0  0
   12.1853  -17.2488   28.5108 O   0  0  0  0  0  0  0  0  0  0  0  0
  2  1  1  6
  3  2  1  0
  3  4  1  0
  4  8  1  0
  4  5  2  0
  5  6  1  0
  7  6  1  0
  8  7  2  0
  9  2  1  0
 10  9  2  0
 11  9  1  0
 12 11  1  0
 13 14  1  0
 12 13  1  1
 14 15  2  0
 15 16  1  0
 17 16  2  0
 18 17  1  0
 19 14  1  0
 19 18  2  0
 20 22  1  0
 20 12  1  0
 21 20  2  0
 23 24  1  1
 23 22  1  0
 25 24  1  0
 26 25  1  0
 27 26  2  0
 28 23  1  0
 29 28  2  0
 30 26  1  0
 31 28  1  0
M  END
$$$$
