WDA.pdb
     RDKit          3D

 28 29  0  0  1  0  0  0  0  0999 V2000
    6.3515  -18.0214   24.6157 N   0  0  0  0  0  0  0  0  0  0  0  0
    7.2502  -16.9794   24.2139 C   0  0  1  0  0  0  0  0  0  0  0  0
    7.8334  -16.2254   25.3692 C   0  0  0  0  0  0  0  0  0  0  0  0
    6.9370  -15.1029   25.7154 C   0  0  0  0  0  0  0  0  0  0  0  0
    5.6291  -15.1708   26.1363 C   0  0  0  0  0  0  0  0  0  0  0  0
    5.1315  -13.9461   26.3186 N   0  0  0  0  0  0  0  0  0  0  0  0
    6.1168  -13.0618   26.0169 C   0  0  0  0  0  0  0  0  0  0  0  0
    6.1391  -11.6877   26.0419 C   0  0  0  0  0  0  0  0  0  0  0  0
    7.2865  -11.0149   25.6928 C   0  0  0  0  0  0  0  0  0  0  0  0
    8.4244  -11.6997   25.3153 C   0  0  0  0  0  0  0  0  0  0  0  0
    8.3998  -13.0914   25.2906 C   0  0  0  0  0  0  0  0  0  0  0  0
    7.2569  -13.7694   25.6372 C   0  0  0  0  0  0  0  0  0  0  0  0
    8.4142  -17.5900   23.4740 C   0  0  0  0  0  0  0  0  0  0  0  0
    8.7570  -18.7763   23.7283 O   0  0  0  0  0  0  0  0  0  0  0  0
    9.1137  -16.8343   22.5002 N   0  0  0  0  0  0  0  0  0  0  0  0
   10.3749  -17.4344   21.9825 C   0  0  1  0  0  0  0  0  0  0  0  0
   10.7281  -16.5412   20.8088 C   0  0  0  0  0  0  0  0  0  0  0  0
   11.8995  -16.8936   20.0222 C   0  0  0  0  0  0  0  0  0  0  0  0
   12.6761  -17.8366   20.2619 O   0  0  0  0  0  0  0  0  0  0  0  0
   11.3625  -17.4495   23.0604 C   0  0  0  0  0  0  0  0  0  0  0  0
   11.8777  -16.3092   23.3762 O   0  0  0  0  0  0  0  0  0  0  0  0
   12.2574  -16.1471   18.8662 O   0  0  0  0  0  0  0  0  0  0  0  0
   12.6252  -19.2734   26.0442 C   0  0  0  0  0  0  0  0  0  0  0  0
   12.8432  -18.3764   24.8747 C   0  0  2  0  0  0  0  0  0  0  0  0
   11.8441  -18.5181   23.8217 N   0  0  0  0  0  0  0  0  0  0  0  0
   14.1600  -18.7093   24.2573 C   0  0  0  0  0  0  0  0  0  0  0  0
   15.3715  -18.5211   24.9050 O   0  0  0  0  0  0  0  0  0  0  0  0
   14.2381  -19.1884   23.0918 O   0  0  0  0  0  0  0  0  0  0  0  0
  2  1  1  1
  2  3  1  0
  2 13  1  0
  3  4  1  0
  4  5  2  0
  5  6  1  0
  7  6  1  0
  8  7  2  0
  9  8  1  0
 10 11  1  0
 10  9  2  0
 11 12  2  0
 12  4  1  0
 12  7  1  0
 13 15  1  0
 13 14  2  0
 15 16  1  0
 16 17  1  6
 18 22  1  0
 18 17  1  0
 19 18  2  0
 20 16  1  0
 20 21  2  0
 24 23  1  1
 24 25  1  0
 25 20  1  0
 26 24  1  0
 27 26  1  0
 28 26  2  0
M  END
$$$$
