WDA.pdb
     RDKit          3D

 28 29  0  0  1  0  0  0  0  0999 V2000
    6.9893  -17.4655   24.3361 N   0  0  0  0  0  0  0  0  0  0  0  0
    7.9908  -16.4415   24.3908 C   0  0  1  0  0  0  0  0  0  0  0  0
    8.0732  -15.7676   25.7259 C   0  0  0  0  0  0  0  0  0  0  0  0
    6.9033  -14.8804   25.8922 C   0  0  0  0  0  0  0  0  0  0  0  0
    5.6263  -15.2339   26.2618 C   0  0  0  0  0  0  0  0  0  0  0  0
    4.8281  -14.1645   26.2701 N   0  0  0  0  0  0  0  0  0  0  0  0
    5.5821  -13.0960   25.9042 C   0  0  0  0  0  0  0  0  0  0  0  0
    5.2605  -11.7675   25.7605 C   0  0  0  0  0  0  0  0  0  0  0  0
    6.2270  -10.8660   25.3806 C   0  0  0  0  0  0  0  0  0  0  0  0
    7.5236  -11.2744   25.1396 C   0  0  0  0  0  0  0  0  0  0  0  0
    7.8474  -12.6205   25.2857 C   0  0  0  0  0  0  0  0  0  0  0  0
    6.8868  -13.5261   25.6639 C   0  0  0  0  0  0  0  0  0  0  0  0
    9.3437  -17.0608   24.1432 C   0  0  0  0  0  0  0  0  0  0  0  0
    9.5242  -18.2809   24.4043 O   0  0  0  0  0  0  0  0  0  0  0  0
   10.4009  -16.2754   23.6197 N   0  0  0  0  0  0  0  0  0  0  0  0
   11.7816  -16.7240   23.9529 C   0  0  1  0  0  0  0  0  0  0  0  0
   12.6518  -15.8649   23.0558 C   0  0  0  0  0  0  0  0  0  0  0  0
   12.7794  -16.2599   21.6619 C   0  0  0  0  0  0  0  0  0  0  0  0
   13.0111  -15.4920   20.7099 O   0  0  0  0  0  0  0  0  0  0  0  0
   12.0022  -16.5336   25.3856 C   0  0  0  0  0  0  0  0  0  0  0  0
   13.1708  -16.8551   25.8290 O   0  0  0  0  0  0  0  0  0  0  0  0
   12.6409  -17.6196   21.2700 O   0  0  0  0  0  0  0  0  0  0  0  0
   10.8569  -14.7540   28.4608 C   0  0  0  0  0  0  0  0  0  0  0  0
   11.5077  -15.9048   27.7737 C   0  0  2  0  0  0  0  0  0  0  0  0
   11.1382  -16.0461   26.3700 N   0  0  0  0  0  0  0  0  0  0  0  0
   11.0865  -17.1653   28.4519 C   0  0  0  0  0  0  0  0  0  0  0  0
   11.3705  -17.4441   29.7802 O   0  0  0  0  0  0  0  0  0  0  0  0
   10.4379  -18.0578   27.8382 O   0  0  0  0  0  0  0  0  0  0  0  0
  2  1  1  1
  2  3  1  0
  2 13  1  0
  3  4  1  0
  4  5  2  0
  5  6  1  0
  7  6  1  0
  8  7  2  0
  9  8  1  0
 10 11  1  0
 10  9  2  0
 11 12  2  0
 12  4  1  0
 12  7  1  0
 13 15  1  0
 13 14  2  0
 15 16  1  0
 16 17  1  6
 18 22  1  0
 18 17  1  0
 19 18  2  0
 20 16  1  0
 20 21  2  0
 24 23  1  1
 24 25  1  0
 25 20  1  0
 26 24  1  0
 27 26  1  0
 28 26  2  0
M  END
$$$$
