WDA.pdb
     RDKit          3D

 28 29  0  0  1  0  0  0  0  0999 V2000
    6.9164  -17.4036   24.2145 N   0  0  0  0  0  0  0  0  0  0  0  0
    7.9241  -16.3873   24.2955 C   0  0  1  0  0  0  0  0  0  0  0  0
    8.0404  -15.7793   25.6594 C   0  0  0  0  0  0  0  0  0  0  0  0
    7.0031  -14.7383   25.8143 C   0  0  0  0  0  0  0  0  0  0  0  0
    5.6752  -14.9152   26.1269 C   0  0  0  0  0  0  0  0  0  0  0  0
    5.0377  -13.7429   26.1431 N   0  0  0  0  0  0  0  0  0  0  0  0
    5.9500  -12.7839   25.8400 C   0  0  0  0  0  0  0  0  0  0  0  0
    5.8268  -11.4194   25.7297 C   0  0  0  0  0  0  0  0  0  0  0  0
    6.9260  -10.6557   25.4144 C   0  0  0  0  0  0  0  0  0  0  0  0
    8.1598  -11.2390   25.2054 C   0  0  0  0  0  0  0  0  0  0  0  0
    8.2826  -12.6212   25.3175 C   0  0  0  0  0  0  0  0  0  0  0  0
    7.1886  -13.3898   25.6312 C   0  0  0  0  0  0  0  0  0  0  0  0
    9.2678  -16.9992   23.9871 C   0  0  0  0  0  0  0  0  0  0  0  0
    9.4803  -18.2074   24.2779 O   0  0  0  0  0  0  0  0  0  0  0  0
   10.2806  -16.2202   23.3739 N   0  0  0  0  0  0  0  0  0  0  0  0
   11.6857  -16.6160   23.6703 C   0  0  1  0  0  0  0  0  0  0  0  0
   12.4941  -15.7847   22.6930 C   0  0  0  0  0  0  0  0  0  0  0  0
   13.1990  -16.4873   21.6324 C   0  0  0  0  0  0  0  0  0  0  0  0
   12.7825  -16.6508   20.4708 O   0  0  0  0  0  0  0  0  0  0  0  0
   11.9605  -16.3441   25.0803 C   0  0  0  0  0  0  0  0  0  0  0  0
   13.1228  -16.7014   25.5127 O   0  0  0  0  0  0  0  0  0  0  0  0
   14.4775  -17.0659   21.8608 O   0  0  0  0  0  0  0  0  0  0  0  0
   10.9430  -14.4447   28.1468 C   0  0  0  0  0  0  0  0  0  0  0  0
   11.5331  -15.6255   27.4561 C   0  0  2  0  0  0  0  0  0  0  0  0
   11.1553  -15.7441   26.0524 N   0  0  0  0  0  0  0  0  0  0  0  0
   11.0487  -16.8645   28.1316 C   0  0  0  0  0  0  0  0  0  0  0  0
   11.2821  -17.1400   29.4704 O   0  0  0  0  0  0  0  0  0  0  0  0
   10.3892  -17.7405   27.5058 O   0  0  0  0  0  0  0  0  0  0  0  0
  2  1  1  1
  2  3  1  0
  2 13  1  0
  3  4  1  0
  4  5  2  0
  5  6  1  0
  7  6  1  0
  8  7  2  0
  9  8  1  0
 10 11  1  0
 10  9  2  0
 11 12  2  0
 12  4  1  0
 12  7  1  0
 13 15  1  0
 13 14  2  0
 15 16  1  0
 16 17  1  6
 18 22  1  0
 18 17  1  0
 19 18  2  0
 20 16  1  0
 20 21  2  0
 24 23  1  1
 24 25  1  0
 25 20  1  0
 26 24  1  0
 27 26  1  0
 28 26  2  0
M  END
$$$$
