WDA.pdb
     RDKit          3D

 28 29  0  0  1  0  0  0  0  0999 V2000
    8.0113  -16.6262   22.6323 N   0  0  0  0  0  0  0  0  0  0  0  0
    8.8290  -16.1045   23.6877 C   0  0  1  0  0  0  0  0  0  0  0  0
    8.1328  -16.0746   25.0135 C   0  0  0  0  0  0  0  0  0  0  0  0
    7.1326  -14.9868   25.0095 C   0  0  0  0  0  0  0  0  0  0  0  0
    5.8861  -14.9935   24.4277 C   0  0  0  0  0  0  0  0  0  0  0  0
    5.2820  -13.8163   24.6011 N   0  0  0  0  0  0  0  0  0  0  0  0
    6.1341  -13.0256   25.3029 C   0  0  0  0  0  0  0  0  0  0  0  0
    6.0077  -11.7326   25.7517 C   0  0  0  0  0  0  0  0  0  0  0  0
    7.0314  -11.1510   26.4621 C   0  0  0  0  0  0  0  0  0  0  0  0
    8.1919  -11.8475   26.7348 C   0  0  0  0  0  0  0  0  0  0  0  0
    8.3182  -13.1569   26.2793 C   0  0  0  0  0  0  0  0  0  0  0  0
    7.2999  -13.7434   25.5685 C   0  0  0  0  0  0  0  0  0  0  0  0
   10.0359  -16.9923   23.8615 C   0  0  0  0  0  0  0  0  0  0  0  0
    9.8980  -18.2442   23.8053 O   0  0  0  0  0  0  0  0  0  0  0  0
   11.3136  -16.4208   24.0845 N   0  0  0  0  0  0  0  0  0  0  0  0
   12.3447  -17.3220   24.6705 C   0  0  1  0  0  0  0  0  0  0  0  0
   13.6121  -16.4924   24.5987 C   0  0  0  0  0  0  0  0  0  0  0  0
   14.1325  -16.1693   23.2796 C   0  0  0  0  0  0  0  0  0  0  0  0
   14.4358  -15.0301   22.8798 O   0  0  0  0  0  0  0  0  0  0  0  0
   11.9291  -17.6910   26.0228 C   0  0  0  0  0  0  0  0  0  0  0  0
   11.8617  -16.7285   26.8799 O   0  0  0  0  0  0  0  0  0  0  0  0
   14.3411  -17.1839   22.3056 O   0  0  0  0  0  0  0  0  0  0  0  0
   10.1628  -20.2335   28.1055 C   0  0  0  0  0  0  0  0  0  0  0  0
   11.1725  -19.1523   27.9295 C   0  0  2  0  0  0  0  0  0  0  0  0
   11.5818  -18.9396   26.5459 N   0  0  0  0  0  0  0  0  0  0  0  0
   12.4051  -19.5234   28.6839 C   0  0  0  0  0  0  0  0  0  0  0  0
   12.4260  -19.7142   30.0572 O   0  0  0  0  0  0  0  0  0  0  0  0
   13.5116  -19.6855   28.0980 O   0  0  0  0  0  0  0  0  0  0  0  0
  2  1  1  6
  2  3  1  0
  2 13  1  0
  3  4  1  0
  4  5  2  0
  5  6  1  0
  7  6  1  0
  8  7  2  0
  9  8  1  0
 10 11  1  0
 10  9  2  0
 11 12  2  0
 12  4  1  0
 12  7  1  0
 13 15  1  0
 13 14  2  0
 15 16  1  0
 16 17  1  1
 18 22  1  0
 18 17  1  0
 19 18  2  0
 20 16  1  0
 20 21  2  0
 24 23  1  6
 24 25  1  0
 25 20  1  0
 26 24  1  0
 27 26  1  0
 28 26  2  0
M  END
$$$$
