WDA.pdb
     RDKit          3D

 28 29  0  0  1  0  0  0  0  0999 V2000
    7.0255  -17.5369   24.9555 N   0  0  0  0  0  0  0  0  0  0  0  0
    7.9696  -16.5406   24.5422 C   0  0  1  0  0  0  0  0  0  0  0  0
    8.2636  -15.5289   25.6068 C   0  0  0  0  0  0  0  0  0  0  0  0
    7.0873  -14.6508   25.7769 C   0  0  0  0  0  0  0  0  0  0  0  0
    5.8264  -15.0069   26.1961 C   0  0  0  0  0  0  0  0  0  0  0  0
    5.0146  -13.9478   26.1911 N   0  0  0  0  0  0  0  0  0  0  0  0
    5.7433  -12.8836   25.7664 C   0  0  0  0  0  0  0  0  0  0  0  0
    5.4000  -11.5649   25.5865 C   0  0  0  0  0  0  0  0  0  0  0  0
    6.3428  -10.6654   25.1473 C   0  0  0  0  0  0  0  0  0  0  0  0
    7.6372  -11.0660   24.8823 C   0  0  0  0  0  0  0  0  0  0  0  0
    7.9831  -12.4020   25.0651 C   0  0  0  0  0  0  0  0  0  0  0  0
    7.0460  -13.3056   25.5026 C   0  0  0  0  0  0  0  0  0  0  0  0
    9.2820  -17.2092   24.2173 C   0  0  0  0  0  0  0  0  0  0  0  0
    9.4419  -18.4287   24.4945 O   0  0  0  0  0  0  0  0  0  0  0  0
   10.3244  -16.4704   23.6040 N   0  0  0  0  0  0  0  0  0  0  0  0
   11.7118  -16.9391   23.8762 C   0  0  1  0  0  0  0  0  0  0  0  0
   12.5416  -16.1754   22.8623 C   0  0  0  0  0  0  0  0  0  0  0  0
   12.3142  -16.4593   21.4541 C   0  0  0  0  0  0  0  0  0  0  0  0
   12.2887  -17.5921   20.9386 O   0  0  0  0  0  0  0  0  0  0  0  0
   12.0360  -16.6541   25.2731 C   0  0  0  0  0  0  0  0  0  0  0  0
   13.2217  -16.9845   25.6610 O   0  0  0  0  0  0  0  0  0  0  0  0
   12.0944  -15.4090   20.5212 O   0  0  0  0  0  0  0  0  0  0  0  0
   10.9906  -14.8254   28.3971 C   0  0  0  0  0  0  0  0  0  0  0  0
   11.6989  -15.9051   27.6541 C   0  0  2  0  0  0  0  0  0  0  0  0
   11.2569  -16.0663   26.2736 N   0  0  0  0  0  0  0  0  0  0  0  0
   11.4371  -17.2053   28.3376 C   0  0  0  0  0  0  0  0  0  0  0  0
   11.8183  -17.4659   29.6450 O   0  0  0  0  0  0  0  0  0  0  0  0
   10.8438  -18.1510   27.7481 O   0  0  0  0  0  0  0  0  0  0  0  0
  2  1  1  1
  2  3  1  0
  2 13  1  0
  3  4  1  0
  4  5  2  0
  5  6  1  0
  7  6  1  0
  8  7  2  0
  9  8  1  0
 10 11  1  0
 10  9  2  0
 11 12  2  0
 12  4  1  0
 12  7  1  0
 13 15  1  0
 13 14  2  0
 15 16  1  0
 16 17  1  6
 18 22  1  0
 18 17  1  0
 19 18  2  0
 20 16  1  0
 20 21  2  0
 24 23  1  1
 24 25  1  0
 25 20  1  0
 26 24  1  0
 27 26  1  0
 28 26  2  0
M  END
$$$$
