WDA.pdb
     RDKit          3D

 28 29  0  0  1  0  0  0  0  0999 V2000
    7.1886  -17.3392   24.0757 N   0  0  0  0  0  0  0  0  0  0  0  0
    8.2081  -16.3411   24.2144 C   0  0  1  0  0  0  0  0  0  0  0  0
    8.2480  -15.7244   25.5788 C   0  0  0  0  0  0  0  0  0  0  0  0
    7.0953  -14.8124   25.7306 C   0  0  0  0  0  0  0  0  0  0  0  0
    5.8060  -15.1390   26.0822 C   0  0  0  0  0  0  0  0  0  0  0  0
    5.0309  -14.0527   26.0814 N   0  0  0  0  0  0  0  0  0  0  0  0
    5.8126  -13.0002   25.7278 C   0  0  0  0  0  0  0  0  0  0  0  0
    5.5215  -11.6648   25.5819 C   0  0  0  0  0  0  0  0  0  0  0  0
    6.5122  -10.7837   25.2169 C   0  0  0  0  0  0  0  0  0  0  0  0
    7.8030  -11.2195   24.9928 C   0  0  0  0  0  0  0  0  0  0  0  0
    8.0958  -12.5725   25.1410 C   0  0  0  0  0  0  0  0  0  0  0  0
    7.1109  -13.4578   25.5045 C   0  0  0  0  0  0  0  0  0  0  0  0
    9.5570  -16.9803   23.9974 C   0  0  0  0  0  0  0  0  0  0  0  0
    9.7141  -18.2024   24.2640 O   0  0  0  0  0  0  0  0  0  0  0  0
   10.6366  -16.2110   23.4962 N   0  0  0  0  0  0  0  0  0  0  0  0
   12.0023  -16.6627   23.8830 C   0  0  1  0  0  0  0  0  0  0  0  0
   12.9075  -15.8327   22.9933 C   0  0  0  0  0  0  0  0  0  0  0  0
   12.9610  -16.1739   21.5805 C   0  0  0  0  0  0  0  0  0  0  0  0
   12.6152  -17.2621   21.0846 O   0  0  0  0  0  0  0  0  0  0  0  0
   12.1799  -16.4395   25.3170 C   0  0  0  0  0  0  0  0  0  0  0  0
   13.2795  -16.8798   25.8295 O   0  0  0  0  0  0  0  0  0  0  0  0
   13.4367  -15.2407   20.6190 O   0  0  0  0  0  0  0  0  0  0  0  0
   11.0056  -14.5461   28.3388 C   0  0  0  0  0  0  0  0  0  0  0  0
   11.6223  -15.7240   27.6666 C   0  0  2  0  0  0  0  0  0  0  0  0
   11.3383  -15.8105   26.2386 N   0  0  0  0  0  0  0  0  0  0  0  0
   11.0738  -16.9667   28.2839 C   0  0  0  0  0  0  0  0  0  0  0  0
   10.3714  -17.9239   27.5676 O   0  0  0  0  0  0  0  0  0  0  0  0
   11.2251  -17.2132   29.5128 O   0  0  0  0  0  0  0  0  0  0  0  0
  2  1  1  1
  2  3  1  0
  2 13  1  0
  3  4  1  0
  4  5  2  0
  5  6  1  0
  7  6  1  0
  8  7  2  0
  9  8  1  0
 10 11  1  0
 10  9  2  0
 11 12  2  0
 12  4  1  0
 12  7  1  0
 13 15  1  0
 13 14  2  0
 15 16  1  0
 16 17  1  6
 18 22  1  0
 18 17  1  0
 19 18  2  0
 20 16  1  0
 20 21  2  0
 24 23  1  1
 24 25  1  0
 25 20  1  0
 26 24  1  0
 27 26  1  0
 28 26  2  0
M  END
$$$$
