WDA.pdb
     RDKit          3D

 28 29  0  0  1  0  0  0  0  0999 V2000
    9.4209  -15.7327   22.0150 N   0  0  0  0  0  0  0  0  0  0  0  0
    9.2068  -15.5308   23.4180 C   0  0  1  0  0  0  0  0  0  0  0  0
    7.7898  -15.7718   23.8390 C   0  0  0  0  0  0  0  0  0  0  0  0
    7.0279  -14.5118   23.7148 C   0  0  0  0  0  0  0  0  0  0  0  0
    6.3238  -14.0597   22.6230 C   0  0  0  0  0  0  0  0  0  0  0  0
    5.7948  -12.8599   22.8708 N   0  0  0  0  0  0  0  0  0  0  0  0
    6.1507  -12.5160   24.1353 C   0  0  0  0  0  0  0  0  0  0  0  0
    5.8687  -11.3977   24.8830 C   0  0  0  0  0  0  0  0  0  0  0  0
    6.3495  -11.2930   26.1671 C   0  0  0  0  0  0  0  0  0  0  0  0
    7.1157  -12.2983   26.7226 C   0  0  0  0  0  0  0  0  0  0  0  0
    7.4003  -13.4302   25.9638 C   0  0  0  0  0  0  0  0  0  0  0  0
    6.9239  -13.5406   24.6805 C   0  0  0  0  0  0  0  0  0  0  0  0
   10.0526  -16.5108   24.1921 C   0  0  0  0  0  0  0  0  0  0  0  0
    9.5210  -17.2091   25.0972 O   0  0  0  0  0  0  0  0  0  0  0  0
   11.4332  -16.6445   23.9009 N   0  0  0  0  0  0  0  0  0  0  0  0
   12.2133  -17.5355   24.8044 C   0  0  1  0  0  0  0  0  0  0  0  0
   13.5797  -17.5848   24.1485 C   0  0  0  0  0  0  0  0  0  0  0  0
   13.6732  -18.1916   22.8301 C   0  0  0  0  0  0  0  0  0  0  0  0
   13.1781  -19.2848   22.4992 O   0  0  0  0  0  0  0  0  0  0  0  0
   12.1994  -16.9646   26.1503 C   0  0  0  0  0  0  0  0  0  0  0  0
   12.6335  -15.7541   26.2594 O   0  0  0  0  0  0  0  0  0  0  0  0
   14.3725  -17.5455   21.7741 O   0  0  0  0  0  0  0  0  0  0  0  0
   10.8262  -15.6501   28.6600 C   0  0  0  0  0  0  0  0  0  0  0  0
   11.7681  -16.8041   28.6265 C   0  0  2  0  0  0  0  0  0  0  0  0
   11.7798  -17.5261   27.3594 N   0  0  0  0  0  0  0  0  0  0  0  0
   11.3555  -17.7868   29.6706 C   0  0  0  0  0  0  0  0  0  0  0  0
   11.3787  -17.5065   31.0284 O   0  0  0  0  0  0  0  0  0  0  0  0
   10.9569  -18.9448   29.3638 O   0  0  0  0  0  0  0  0  0  0  0  0
  2  1  1  6
  2  3  1  0
  2 13  1  0
  3  4  1  0
  4  5  2  0
  5  6  1  0
  7  6  1  0
  8  7  2  0
  9  8  1  0
 10 11  1  0
 10  9  2  0
 11 12  2  0
 12  4  1  0
 12  7  1  0
 13 15  1  0
 13 14  2  0
 15 16  1  0
 16 17  1  6
 18 22  1  0
 18 17  1  0
 19 18  2  0
 20 16  1  0
 20 21  2  0
 24 23  1  6
 24 25  1  0
 25 20  1  0
 26 24  1  0
 27 26  1  0
 28 26  2  0
M  END
$$$$
