WDA.pdb
     RDKit          3D

 28 29  0  0  1  0  0  0  0  0999 V2000
    6.7019  -17.4545   24.3778 N   0  0  0  0  0  0  0  0  0  0  0  0
    7.7289  -16.4545   24.3687 C   0  0  1  0  0  0  0  0  0  0  0  0
    7.9111  -15.7842   25.6957 C   0  0  0  0  0  0  0  0  0  0  0  0
    6.8670  -14.7520   25.8630 C   0  0  0  0  0  0  0  0  0  0  0  0
    5.5618  -14.9332   26.2577 C   0  0  0  0  0  0  0  0  0  0  0  0
    4.9068  -13.7706   26.2582 N   0  0  0  0  0  0  0  0  0  0  0  0
    5.7847  -12.8134   25.8618 C   0  0  0  0  0  0  0  0  0  0  0  0
    5.6329  -11.4571   25.6986 C   0  0  0  0  0  0  0  0  0  0  0  0
    6.6999  -10.6930   25.2881 C   0  0  0  0  0  0  0  0  0  0  0  0
    7.9296  -11.2677   25.0356 C   0  0  0  0  0  0  0  0  0  0  0  0
    8.0814  -12.6416   25.2014 C   0  0  0  0  0  0  0  0  0  0  0  0
    7.0196  -13.4106   25.6103 C   0  0  0  0  0  0  0  0  0  0  0  0
    9.0484  -17.1056   24.0368 C   0  0  0  0  0  0  0  0  0  0  0  0
    9.2076  -18.3353   24.2644 O   0  0  0  0  0  0  0  0  0  0  0  0
   10.0982  -16.3388   23.4723 N   0  0  0  0  0  0  0  0  0  0  0  0
   11.4831  -16.8014   23.7667 C   0  0  1  0  0  0  0  0  0  0  0  0
   12.3225  -16.0547   22.7480 C   0  0  0  0  0  0  0  0  0  0  0  0
   13.7299  -16.4070   22.6459 C   0  0  0  0  0  0  0  0  0  0  0  0
   14.1761  -17.5422   22.3971 O   0  0  0  0  0  0  0  0  0  0  0  0
   11.7929  -16.4920   25.1616 C   0  0  0  0  0  0  0  0  0  0  0  0
   12.9226  -16.9314   25.6046 O   0  0  0  0  0  0  0  0  0  0  0  0
   14.7453  -15.4296   22.8332 O   0  0  0  0  0  0  0  0  0  0  0  0
   10.9374  -14.2942   28.0838 C   0  0  0  0  0  0  0  0  0  0  0  0
   11.5107  -15.5247   27.4699 C   0  0  2  0  0  0  0  0  0  0  0  0
   11.0523  -15.7797   26.1090 N   0  0  0  0  0  0  0  0  0  0  0  0
   11.0945  -16.7029   28.2852 C   0  0  0  0  0  0  0  0  0  0  0  0
   10.3584  -17.7597   27.7715 O   0  0  0  0  0  0  0  0  0  0  0  0
   11.3979  -16.7980   29.5070 O   0  0  0  0  0  0  0  0  0  0  0  0
  2  1  1  1
  2  3  1  0
  2 13  1  0
  3  4  1  0
  4  5  2  0
  5  6  1  0
  7  6  1  0
  8  7  2  0
  9  8  1  0
 10 11  1  0
 10  9  2  0
 11 12  2  0
 12  4  1  0
 12  7  1  0
 13 15  1  0
 13 14  2  0
 15 16  1  0
 16 17  1  6
 18 22  1  0
 18 17  1  0
 19 18  2  0
 20 16  1  0
 20 21  2  0
 24 23  1  1
 24 25  1  0
 25 20  1  0
 26 24  1  0
 27 26  1  0
 28 26  2  0
M  END
$$$$
