WDA.pdb
     RDKit          3D

 28 29  0  0  1  0  0  0  0  0999 V2000
    7.0989  -17.5297   25.3433 N   0  0  0  0  0  0  0  0  0  0  0  0
    7.9344  -16.5902   24.6547 C   0  0  1  0  0  0  0  0  0  0  0  0
    8.2578  -15.3782   25.4731 C   0  0  0  0  0  0  0  0  0  0  0  0
    7.0150  -14.6196   25.7249 C   0  0  0  0  0  0  0  0  0  0  0  0
    5.8136  -15.1044   26.1876 C   0  0  0  0  0  0  0  0  0  0  0  0
    4.9083  -14.1264   26.2544 N   0  0  0  0  0  0  0  0  0  0  0  0
    5.5147  -12.9865   25.8338 C   0  0  0  0  0  0  0  0  0  0  0  0
    5.0431  -11.7011   25.7139 C   0  0  0  0  0  0  0  0  0  0  0  0
    5.8770  -10.7046   25.2638 C   0  0  0  0  0  0  0  0  0  0  0  0
    7.1888  -10.9742   24.9280 C   0  0  0  0  0  0  0  0  0  0  0  0
    7.6648  -12.2768   25.0501 C   0  0  0  0  0  0  0  0  0  0  0  0
    6.8369  -13.2767   25.4982 C   0  0  0  0  0  0  0  0  0  0  0  0
    9.2525  -17.2478   24.3301 C   0  0  0  0  0  0  0  0  0  0  0  0
    9.4443  -18.4490   24.6611 O   0  0  0  0  0  0  0  0  0  0  0  0
   10.2646  -16.5190   23.6568 N   0  0  0  0  0  0  0  0  0  0  0  0
   11.6681  -16.9383   23.9269 C   0  0  1  0  0  0  0  0  0  0  0  0
   12.4745  -16.0983   22.9554 C   0  0  0  0  0  0  0  0  0  0  0  0
   12.2650  -16.3240   21.5340 C   0  0  0  0  0  0  0  0  0  0  0  0
   12.2196  -17.4360   20.9762 O   0  0  0  0  0  0  0  0  0  0  0  0
   11.9646  -16.6977   25.3382 C   0  0  0  0  0  0  0  0  0  0  0  0
   13.1521  -17.0142   25.7321 O   0  0  0  0  0  0  0  0  0  0  0  0
   12.0891  -15.2347   20.6373 O   0  0  0  0  0  0  0  0  0  0  0  0
   10.8449  -15.0299   28.5226 C   0  0  0  0  0  0  0  0  0  0  0  0
   11.5595  -16.0819   27.7465 C   0  0  2  0  0  0  0  0  0  0  0  0
   11.1570  -16.1659   26.3472 N   0  0  0  0  0  0  0  0  0  0  0  0
   11.2583  -17.4106   28.3547 C   0  0  0  0  0  0  0  0  0  0  0  0
   10.6686  -18.4508   27.6526 O   0  0  0  0  0  0  0  0  0  0  0  0
   11.5308  -17.6587   29.5623 O   0  0  0  0  0  0  0  0  0  0  0  0
  2  1  1  1
  2  3  1  0
  2 13  1  0
  3  4  1  0
  4  5  2  0
  5  6  1  0
  7  6  1  0
  8  7  2  0
  9  8  1  0
 10 11  1  0
 10  9  2  0
 11 12  2  0
 12  4  1  0
 12  7  1  0
 13 15  1  0
 13 14  2  0
 15 16  1  0
 16 17  1  6
 18 22  1  0
 18 17  1  0
 19 18  2  0
 20 16  1  0
 20 21  2  0
 24 23  1  1
 24 25  1  0
 25 20  1  0
 26 24  1  0
 27 26  1  0
 28 26  2  0
M  END
$$$$
