KAS.pdb
     RDKit          3D

 21 20  0  0  1  0  0  0  0  0999 V2000
    7.4022  -16.3547   21.2567 N   0  0  0  0  0  0  0  0  0  0  0  0
    6.8527  -16.4002   22.5911 C   0  0  1  0  0  0  0  0  0  0  0  0
    6.7737  -17.7628   23.1836 C   0  0  0  0  0  0  0  0  0  0  0  0
    5.8413  -18.7233   22.5587 C   0  0  0  0  0  0  0  0  0  0  0  0
    5.7987  -20.0929   23.1389 C   0  0  0  0  0  0  0  0  0  0  0  0
    4.7773  -20.9478   22.3728 C   0  0  0  0  0  0  0  0  0  0  0  0
    3.9782  -21.6996   23.2990 N   0  0  0  0  0  0  0  0  0  0  0  0
    7.7057  -15.5836   23.4991 C   0  0  0  0  0  0  0  0  0  0  0  0
    8.9503  -15.7161   23.4020 O   0  0  0  0  0  0  0  0  0  0  0  0
    7.0145  -12.9493   26.0640 C   0  0  0  0  0  0  0  0  0  0  0  0
    7.9796  -13.9349   25.3937 C   0  0  2  0  0  0  0  0  0  0  0  0
    7.1895  -14.6880   24.4424 N   0  0  0  0  0  0  0  0  0  0  0  0
    8.5705  -14.8535   26.3960 C   0  0  0  0  0  0  0  0  0  0  0  0
    7.9185  -15.8645   26.7925 O   0  0  0  0  0  0  0  0  0  0  0  0
   12.6582  -16.6024   28.1898 O   0  0  0  0  0  0  0  0  0  0  0  0
   11.9690  -15.6989   27.4001 C   0  0  0  0  0  0  0  0  0  0  0  0
   10.5197  -15.6045   27.8146 C   0  0  2  0  0  0  0  0  0  0  0  0
    9.8524  -14.6493   26.9400 N   0  0  0  0  0  0  0  0  0  0  0  0
   10.3609  -15.1771   29.2179 C   0  0  0  0  0  0  0  0  0  0  0  0
   10.6580  -16.0296   30.2641 O   0  0  0  0  0  0  0  0  0  0  0  0
    9.9507  -14.0242   29.4886 O   0  0  0  0  0  0  0  0  0  0  0  0
  2  1  1  6
  3  2  1  0
  4  3  1  0
  5  6  1  0
  5  4  1  0
  7  6  1  0
  8  2  1  0
  8  9  2  0
 11 10  1  1
 11 12  1  0
 12  8  1  0
 13 11  1  0
 14 13  2  0
 15 16  1  0
 17 18  1  0
 17 16  1  6
 18 13  1  0
 19 17  1  0
 20 19  1  0
 21 19  2  0
M  END
$$$$
