KAS.pdb
     RDKit          3D

 21 20  0  0  1  0  0  0  0  0999 V2000
    6.3372  -17.7202   20.5253 N   0  0  0  0  0  0  0  0  0  0  0  0
    5.8183  -17.4444   21.8442 C   0  0  1  0  0  0  0  0  0  0  0  0
    5.0697  -18.5708   22.4645 C   0  0  0  0  0  0  0  0  0  0  0  0
    4.2260  -19.3973   21.5773 C   0  0  0  0  0  0  0  0  0  0  0  0
    3.3745  -20.4289   22.2292 C   0  0  0  0  0  0  0  0  0  0  0  0
    2.3858  -21.0068   21.2046 C   0  0  0  0  0  0  0  0  0  0  0  0
    1.5475  -21.9872   21.8351 N   0  0  0  0  0  0  0  0  0  0  0  0
    6.9503  -17.1235   22.7576 C   0  0  0  0  0  0  0  0  0  0  0  0
    8.0232  -17.7554   22.5973 O   0  0  0  0  0  0  0  0  0  0  0  0
    7.4322  -14.6741   25.5482 C   0  0  0  0  0  0  0  0  0  0  0  0
    7.9306  -15.8603   24.7136 C   0  0  2  0  0  0  0  0  0  0  0  0
    6.8730  -16.1628   23.7723 N   0  0  0  0  0  0  0  0  0  0  0  0
    8.1877  -17.0375   25.5771 C   0  0  0  0  0  0  0  0  0  0  0  0
    7.2188  -17.7144   26.0323 O   0  0  0  0  0  0  0  0  0  0  0  0
   10.1743  -20.0091   24.9091 O   0  0  0  0  0  0  0  0  0  0  0  0
   10.7370  -19.5004   26.0665 C   0  0  0  0  0  0  0  0  0  0  0  0
    9.7746  -18.5853   26.7861 C   0  0  2  0  0  0  0  0  0  0  0  0
    9.4892  -17.4472   25.9226 N   0  0  0  0  0  0  0  0  0  0  0  0
   10.3114  -18.1013   28.0725 C   0  0  0  0  0  0  0  0  0  0  0  0
   10.6300  -18.9789   29.0912 O   0  0  0  0  0  0  0  0  0  0  0  0
   10.4895  -16.8759   28.2660 O   0  0  0  0  0  0  0  0  0  0  0  0
  2  1  1  6
  3  2  1  0
  4  3  1  0
  5  6  1  0
  5  4  1  0
  7  6  1  0
  8  2  1  0
  8  9  2  0
 11 10  1  1
 11 12  1  0
 12  8  1  0
 13 11  1  0
 14 13  2  0
 15 16  1  0
 17 18  1  0
 17 16  1  6
 18 13  1  0
 19 17  1  0
 20 19  1  0
 21 19  2  0
M  END
$$$$
