KAS.pdb
     RDKit          3D

 21 20  0  0  1  0  0  0  0  0999 V2000
    9.5497  -18.2164   18.4338 N   0  0  0  0  0  0  0  0  0  0  0  0
    9.9073  -18.6696   19.7572 C   0  0  1  0  0  0  0  0  0  0  0  0
   10.6672  -19.9484   19.7910 C   0  0  0  0  0  0  0  0  0  0  0  0
    9.9487  -21.1772   19.3959 C   0  0  0  0  0  0  0  0  0  0  0  0
   10.7215  -22.4484   19.4315 C   0  0  0  0  0  0  0  0  0  0  0  0
    9.8509  -23.5982   18.9016 C   0  0  0  0  0  0  0  0  0  0  0  0
   10.5217  -24.8513   19.1042 N   0  0  0  0  0  0  0  0  0  0  0  0
   10.7639  -17.6412   20.4112 C   0  0  0  0  0  0  0  0  0  0  0  0
   11.6814  -17.1277   19.7252 O   0  0  0  0  0  0  0  0  0  0  0  0
   10.7051  -15.8776   23.6991 C   0  0  0  0  0  0  0  0  0  0  0  0
   11.4669  -16.3106   22.4404 C   0  0  2  0  0  0  0  0  0  0  0  0
   10.5945  -17.2274   21.7373 N   0  0  0  0  0  0  0  0  0  0  0  0
   12.7306  -16.9960   22.8023 C   0  0  0  0  0  0  0  0  0  0  0  0
   12.7094  -18.1992   23.1972 O   0  0  0  0  0  0  0  0  0  0  0  0
   16.4921  -15.0748   22.4026 O   0  0  0  0  0  0  0  0  0  0  0  0
   16.3144  -16.4207   22.1348 C   0  0  0  0  0  0  0  0  0  0  0  0
   15.2461  -17.0180   23.0198 C   0  0  2  0  0  0  0  0  0  0  0  0
   13.9819  -16.3563   22.7255 N   0  0  0  0  0  0  0  0  0  0  0  0
   15.5542  -16.8689   24.4551 C   0  0  0  0  0  0  0  0  0  0  0  0
   14.7654  -16.0895   25.2796 O   0  0  0  0  0  0  0  0  0  0  0  0
   16.5445  -17.4510   24.9563 O   0  0  0  0  0  0  0  0  0  0  0  0
  2  1  1  6
  3  2  1  0
  4  3  1  0
  5  6  1  0
  5  4  1  0
  7  6  1  0
  8  2  1  0
  8  9  2  0
 11 10  1  1
 11 12  1  0
 12  8  1  0
 13 11  1  0
 14 13  2  0
 15 16  1  0
 17 18  1  0
 17 16  1  6
 18 13  1  0
 19 17  1  0
 20 19  1  0
 21 19  2  0
M  END
$$$$
