KAS.pdb
     RDKit          3D

 21 20  0  0  1  0  0  0  0  0999 V2000
    5.8005  -18.0924   19.2266 N   0  0  0  0  0  0  0  0  0  0  0  0
    5.5186  -16.9992   20.1268 C   0  0  1  0  0  0  0  0  0  0  0  0
    4.4780  -17.2902   21.1496 C   0  0  0  0  0  0  0  0  0  0  0  0
    4.1254  -18.7066   21.3776 C   0  0  0  0  0  0  0  0  0  0  0  0
    2.6758  -19.0406   21.4150 C   0  0  0  0  0  0  0  0  0  0  0  0
    2.4969  -20.5332   21.7329 C   0  0  0  0  0  0  0  0  0  0  0  0
    1.0990  -20.8568   21.7838 N   0  0  0  0  0  0  0  0  0  0  0  0
    6.7616  -16.6412   20.8654 C   0  0  0  0  0  0  0  0  0  0  0  0
    7.6414  -17.5286   20.9865 O   0  0  0  0  0  0  0  0  0  0  0  0
    8.0021  -13.5077   22.5001 C   0  0  0  0  0  0  0  0  0  0  0  0
    8.2114  -14.9687   22.0833 C   0  0  2  0  0  0  0  0  0  0  0  0
    6.9899  -15.3780   21.4227 N   0  0  0  0  0  0  0  0  0  0  0  0
    8.4521  -15.8232   23.2706 C   0  0  0  0  0  0  0  0  0  0  0  0
    7.5533  -16.6207   23.6712 O   0  0  0  0  0  0  0  0  0  0  0  0
   10.2715  -18.9503   22.9588 O   0  0  0  0  0  0  0  0  0  0  0  0
   10.7816  -17.6641   22.9805 C   0  0  0  0  0  0  0  0  0  0  0  0
   10.4606  -16.9704   24.2832 C   0  0  2  0  0  0  0  0  0  0  0  0
    9.6613  -15.7882   23.9900 N   0  0  0  0  0  0  0  0  0  0  0  0
   11.6730  -16.5704   25.0229 C   0  0  0  0  0  0  0  0  0  0  0  0
   12.6039  -15.7158   24.4637 O   0  0  0  0  0  0  0  0  0  0  0  0
   11.8822  -17.0018   26.1809 O   0  0  0  0  0  0  0  0  0  0  0  0
  2  1  1  1
  3  2  1  0
  4  3  1  0
  5  6  1  0
  5  4  1  0
  7  6  1  0
  8  2  1  0
  8  9  2  0
 11 10  1  1
 11 12  1  0
 12  8  1  0
 13 11  1  0
 14 13  2  0
 15 16  1  0
 17 18  1  0
 17 16  1  6
 18 13  1  0
 19 17  1  0
 20 19  1  0
 21 19  2  0
M  END
$$$$
