NWK.pdb
     RDKit          3D

 32 33  0  0  1  0  0  0  0  0999 V2000
   28.3788  -21.0683  -18.0111 N   0  0  0  0  0  0  0  0  0  0  0  0
   27.0651  -21.5383  -18.2246 C   0  0  0  0  0  0  0  0  0  0  0  0
   26.5436  -21.4271  -19.3482 O   0  0  0  0  0  0  0  0  0  0  0  0
   26.3192  -22.1572  -17.1175 C   0  0  0  0  0  0  0  0  0  0  0  0
   27.2000  -22.2257  -15.9074 C   0  0  2  0  0  0  0  0  0  0  0  0
   28.0458  -23.3999  -15.9163 N   0  0  0  0  0  0  0  0  0  0  0  0
   26.4156  -22.1303  -14.6403 C   0  0  0  0  0  0  0  0  0  0  0  0
   25.8216  -23.1993  -14.2706 O   0  0  0  0  0  0  0  0  0  0  0  0
   26.2907  -20.9854  -13.8548 N   0  0  0  0  0  0  0  0  0  0  0  0
   25.4662  -20.9792  -12.6510 C   0  0  1  0  0  0  0  0  0  0  0  0
   25.9929  -19.9452  -11.6808 C   0  0  0  0  0  0  0  0  0  0  0  0
   27.1072  -20.4089  -10.8373 C   0  0  0  0  0  0  0  0  0  0  0  0
   28.2499  -20.9913  -11.4051 C   0  0  0  0  0  0  0  0  0  0  0  0
   29.0928  -21.2630  -10.4009 N   0  0  0  0  0  0  0  0  0  0  0  0
   28.6051  -20.9105   -9.2122 C   0  0  0  0  0  0  0  0  0  0  0  0
   29.0590  -20.9839   -7.9134 C   0  0  0  0  0  0  0  0  0  0  0  0
   28.2756  -20.5243   -6.8516 C   0  0  0  0  0  0  0  0  0  0  0  0
   27.0425  -19.9989   -7.1408 C   0  0  0  0  0  0  0  0  0  0  0  0
   26.5890  -19.9256   -8.4443 C   0  0  0  0  0  0  0  0  0  0  0  0
   27.3492  -20.3717   -9.4932 C   0  0  0  0  0  0  0  0  0  0  0  0
   24.0462  -20.7790  -12.9015 C   0  0  0  0  0  0  0  0  0  0  0  0
   23.6483  -19.7517  -13.5064 O   0  0  0  0  0  0  0  0  0  0  0  0
   23.0280  -21.7027  -12.4930 N   0  0  0  0  0  0  0  0  0  0  0  0
   21.6181  -21.4709  -12.7313 C   0  0  1  0  0  0  0  0  0  0  0  0
   20.8147  -22.7240  -12.4692 C   0  0  0  0  0  0  0  0  0  0  0  0
   19.3333  -22.4843  -12.6748 C   0  0  0  0  0  0  0  0  0  0  0  0
   18.5270  -23.7412  -12.5276 C   0  0  0  0  0  0  0  0  0  0  0  0
   17.0652  -23.4791  -12.7819 C   0  0  0  0  0  0  0  0  0  0  0  0
   16.2824  -24.6900  -12.6231 N   0  0  0  0  0  0  0  0  0  0  0  0
   21.1262  -20.4518  -11.7466 C   0  0  0  0  0  0  0  0  0  0  0  0
   20.2822  -19.5848  -12.0662 O   0  0  0  0  0  0  0  0  0  0  0  0
   21.6088  -20.4597  -10.4523 O   0  0  0  0  0  0  0  0  0  0  0  0
  2  1  1  0
  3  2  2  0
  4  2  1  0
  5  6  1  1
  5  4  1  0
  7  9  1  0
  7  5  1  0
  8  7  2  0
 10  9  1  0
 10 11  1  1
 11 12  1  0
 12 20  1  0
 13 12  2  0
 13 14  1  0
 14 15  1  0
 15 16  1  0
 16 17  2  0
 18 17  1  0
 19 18  2  0
 20 15  2  0
 20 19  1  0
 21 10  1  0
 22 21  2  0
 23 21  1  0
 24 30  1  0
 24 23  1  0
 24 25  1  1
 26 25  1  0
 26 27  1  0
 27 28  1  0
 29 28  1  0
 30 32  1  0
 31 30  2  0
M  END
$$$$
