NWK.pdb
     RDKit          3D

 32 33  0  0  1  0  0  0  0  0999 V2000
   29.4551  -19.5822  -16.7278 N   0  0  0  0  0  0  0  0  0  0  0  0
   28.1045  -19.1857  -16.6243 C   0  0  0  0  0  0  0  0  0  0  0  0
   27.6595  -18.3034  -17.3795 O   0  0  0  0  0  0  0  0  0  0  0  0
   27.2298  -19.8176  -15.6241 C   0  0  0  0  0  0  0  0  0  0  0  0
   27.9988  -20.8779  -14.8965 C   0  0  2  0  0  0  0  0  0  0  0  0
   28.1421  -22.0830  -15.6847 N   0  0  0  0  0  0  0  0  0  0  0  0
   27.4113  -21.1720  -13.5554 C   0  0  0  0  0  0  0  0  0  0  0  0
   26.4040  -21.9579  -13.5484 O   0  0  0  0  0  0  0  0  0  0  0  0
   27.8746  -20.6613  -12.3438 N   0  0  0  0  0  0  0  0  0  0  0  0
   27.1569  -20.9026  -11.0965 C   0  0  1  0  0  0  0  0  0  0  0  0
   28.0033  -20.4478   -9.9283 C   0  0  0  0  0  0  0  0  0  0  0  0
   27.3155  -20.4758   -8.6266 C   0  0  0  0  0  0  0  0  0  0  0  0
   25.9920  -20.9270   -8.5180 C   0  0  0  0  0  0  0  0  0  0  0  0
   25.6651  -20.8777   -7.2204 N   0  0  0  0  0  0  0  0  0  0  0  0
   26.6614  -20.4303   -6.4573 C   0  0  0  0  0  0  0  0  0  0  0  0
   26.8238  -20.1922   -5.1099 C   0  0  0  0  0  0  0  0  0  0  0  0
   28.0284  -19.6918   -4.6090 C   0  0  0  0  0  0  0  0  0  0  0  0
   29.0430  -19.4449   -5.4978 C   0  0  0  0  0  0  0  0  0  0  0  0
   28.8784  -19.6848   -6.8488 C   0  0  0  0  0  0  0  0  0  0  0  0
   27.7024  -20.1766   -7.3509 C   0  0  0  0  0  0  0  0  0  0  0  0
   25.8332  -20.2991  -11.0434 C   0  0  0  0  0  0  0  0  0  0  0  0
   25.7026  -19.0511  -11.1148 O   0  0  0  0  0  0  0  0  0  0  0  0
   24.6200  -21.0521  -10.9103 N   0  0  0  0  0  0  0  0  0  0  0  0
   23.3351  -20.5537  -11.3566 C   0  0  1  0  0  0  0  0  0  0  0  0
   22.6074  -21.5966  -12.1734 C   0  0  0  0  0  0  0  0  0  0  0  0
   21.2434  -21.1039  -12.6107 C   0  0  0  0  0  0  0  0  0  0  0  0
   20.4660  -22.1564  -13.3450 C   0  0  0  0  0  0  0  0  0  0  0  0
   19.0992  -21.6509  -13.7279 C   0  0  0  0  0  0  0  0  0  0  0  0
   18.3011  -22.7050  -14.3247 N   0  0  0  0  0  0  0  0  0  0  0  0
   22.4758  -20.2977  -10.1541 C   0  0  0  0  0  0  0  0  0  0  0  0
   22.6296  -20.9376   -9.0896 O   0  0  0  0  0  0  0  0  0  0  0  0
   21.4869  -19.3349  -10.2099 O   0  0  0  0  0  0  0  0  0  0  0  0
  2  1  1  0
  3  2  2  0
  4  2  1  0
  5  6  1  6
  5  4  1  0
  7  9  1  0
  7  5  1  0
  8  7  2  0
 10  9  1  0
 10 11  1  1
 11 12  1  0
 12 20  1  0
 13 12  2  0
 13 14  1  0
 14 15  1  0
 15 16  1  0
 16 17  2  0
 18 17  1  0
 19 18  2  0
 20 15  2  0
 20 19  1  0
 21 10  1  0
 22 21  2  0
 23 21  1  0
 24 30  1  0
 24 23  1  0
 24 25  1  6
 26 25  1  0
 26 27  1  0
 27 28  1  0
 29 28  1  0
 30 32  1  0
 31 30  2  0
M  END
$$$$
