NWK.pdb
     RDKit          3D

 32 33  0  0  1  0  0  0  0  0999 V2000
   16.0328  -22.7444    3.2868 N   0  0  0  0  0  0  0  0  0  0  0  0
   15.7354  -21.4459    3.7531 C   0  0  0  0  0  0  0  0  0  0  0  0
   14.5930  -20.9796    3.5974 O   0  0  0  0  0  0  0  0  0  0  0  0
   16.7776  -20.6504    4.4209 C   0  0  0  0  0  0  0  0  0  0  0  0
   16.6102  -19.2084    4.0503 C   0  0  2  0  0  0  0  0  0  0  0  0
   16.8357  -18.9800    2.6392 N   0  0  0  0  0  0  0  0  0  0  0  0
   17.4631  -18.3142    4.8888 C   0  0  0  0  0  0  0  0  0  0  0  0
   18.7157  -18.3435    4.6387 O   0  0  0  0  0  0  0  0  0  0  0  0
   16.9982  -17.4728    5.8984 N   0  0  0  0  0  0  0  0  0  0  0  0
   17.9088  -16.6112    6.6452 C   0  0  1  0  0  0  0  0  0  0  0  0
   17.2819  -15.2465    6.8259 C   0  0  0  0  0  0  0  0  0  0  0  0
   18.0126  -14.1462    6.1750 C   0  0  0  0  0  0  0  0  0  0  0  0
   17.4842  -13.4920    5.0526 C   0  0  0  0  0  0  0  0  0  0  0  0
   18.3454  -12.5215    4.7217 N   0  0  0  0  0  0  0  0  0  0  0  0
   19.4031  -12.4767    5.5306 C   0  0  0  0  0  0  0  0  0  0  0  0
   20.5371  -11.6979    5.6076 C   0  0  0  0  0  0  0  0  0  0  0  0
   21.4956  -11.9207    6.5995 C   0  0  0  0  0  0  0  0  0  0  0  0
   21.2740  -12.9369    7.4931 C   0  0  0  0  0  0  0  0  0  0  0  0
   20.1357  -13.7168    7.4147 C   0  0  0  0  0  0  0  0  0  0  0  0
   19.1887  -13.5064    6.4472 C   0  0  0  0  0  0  0  0  0  0  0  0
   18.3343  -17.1597    7.9247 C   0  0  0  0  0  0  0  0  0  0  0  0
   17.5045  -17.7295    8.6772 O   0  0  0  0  0  0  0  0  0  0  0  0
   19.6825  -17.0952    8.4094 N   0  0  0  0  0  0  0  0  0  0  0  0
   20.0722  -17.5964    9.7115 C   0  0  1  0  0  0  0  0  0  0  0  0
   21.5234  -17.2846    9.9961 C   0  0  0  0  0  0  0  0  0  0  0  0
   22.2505  -18.4926   10.5496 C   0  0  0  0  0  0  0  0  0  0  0  0
   23.3174  -18.1136   11.5343 C   0  0  0  0  0  0  0  0  0  0  0  0
   24.0510  -19.3317   12.0326 C   0  0  0  0  0  0  0  0  0  0  0  0
   25.2458  -18.9580   12.7654 N   0  0  0  0  0  0  0  0  0  0  0  0
   19.2811  -16.8727   10.7605 C   0  0  0  0  0  0  0  0  0  0  0  0
   18.5975  -17.4892   11.6083 O   0  0  0  0  0  0  0  0  0  0  0  0
   19.2992  -15.4921   10.8027 O   0  0  0  0  0  0  0  0  0  0  0  0
  2  1  1  0
  3  2  2  0
  4  2  1  0
  5  6  1  6
  5  4  1  0
  7  9  1  0
  7  5  1  0
  8  7  2  0
 10  9  1  0
 10 11  1  1
 11 12  1  0
 12 20  1  0
 13 12  2  0
 13 14  1  0
 14 15  1  0
 15 16  1  0
 16 17  2  0
 18 17  1  0
 19 18  2  0
 20 15  2  0
 20 19  1  0
 21 10  1  0
 22 21  2  0
 23 21  1  0
 24 30  1  0
 24 23  1  0
 24 25  1  1
 26 25  1  0
 26 27  1  0
 27 28  1  0
 29 28  1  0
 30 32  1  0
 31 30  2  0
M  END
$$$$
