NWK.pdb
     RDKit          3D

 32 33  0  0  1  0  0  0  0  0999 V2000
   12.5907  -23.8691    3.0249 N   0  0  0  0  0  0  0  0  0  0  0  0
   13.0955  -22.5822    2.7399 C   0  0  0  0  0  0  0  0  0  0  0  0
   12.4892  -21.8423    1.9450 O   0  0  0  0  0  0  0  0  0  0  0  0
   14.3358  -22.1223    3.3841 C   0  0  0  0  0  0  0  0  0  0  0  0
   15.3166  -21.7118    2.3284 C   0  0  2  0  0  0  0  0  0  0  0  0
   15.8595  -22.8502    1.6187 N   0  0  0  0  0  0  0  0  0  0  0  0
   16.4019  -20.8476    2.8808 C   0  0  0  0  0  0  0  0  0  0  0  0
   17.4406  -21.4593    3.3042 O   0  0  0  0  0  0  0  0  0  0  0  0
   16.3599  -19.4567    2.9639 N   0  0  0  0  0  0  0  0  0  0  0  0
   17.4230  -18.7050    3.6225 C   0  0  1  0  0  0  0  0  0  0  0  0
   17.8081  -17.5171    2.7689 C   0  0  0  0  0  0  0  0  0  0  0  0
   18.8138  -17.8079    1.7334 C   0  0  0  0  0  0  0  0  0  0  0  0
   18.5831  -18.7874    0.7564 C   0  0  0  0  0  0  0  0  0  0  0  0
   19.6453  -18.7872   -0.0589 N   0  0  0  0  0  0  0  0  0  0  0  0
   20.5637  -17.8895    0.2956 C   0  0  0  0  0  0  0  0  0  0  0  0
   21.7968  -17.5144   -0.1915 C   0  0  0  0  0  0  0  0  0  0  0  0
   22.5433  -16.5142    0.4367 C   0  0  0  0  0  0  0  0  0  0  0  0
   22.0125  -15.9179    1.5515 C   0  0  0  0  0  0  0  0  0  0  0  0
   20.7752  -16.2950    2.0384 C   0  0  0  0  0  0  0  0  0  0  0  0
   20.0340  -17.2735    1.4298 C   0  0  0  0  0  0  0  0  0  0  0  0
   17.1048  -18.2862    4.9799 C   0  0  0  0  0  0  0  0  0  0  0  0
   15.9508  -17.8763    5.2624 O   0  0  0  0  0  0  0  0  0  0  0  0
   18.0471  -18.3072    6.0609 N   0  0  0  0  0  0  0  0  0  0  0  0
   17.7190  -17.8500    7.3957 C   0  0  1  0  0  0  0  0  0  0  0  0
   18.8647  -18.1036    8.3483 C   0  0  0  0  0  0  0  0  0  0  0  0
   18.4772  -17.7833    9.7771 C   0  0  0  0  0  0  0  0  0  0  0  0
   19.5818  -18.0825   10.7476 C   0  0  0  0  0  0  0  0  0  0  0  0
   19.1207  -17.8879   12.1688 C   0  0  0  0  0  0  0  0  0  0  0  0
   20.1967  -18.1465   13.1067 N   0  0  0  0  0  0  0  0  0  0  0  0
   17.5328  -16.3620    7.3609 C   0  0  0  0  0  0  0  0  0  0  0  0
   18.2241  -15.6315    6.6161 O   0  0  0  0  0  0  0  0  0  0  0  0
   16.5783  -15.7710    8.1659 O   0  0  0  0  0  0  0  0  0  0  0  0
  2  1  1  0
  3  2  2  0
  4  2  1  0
  5  6  1  1
  5  4  1  0
  7  9  1  0
  7  5  1  0
  8  7  2  0
 10  9  1  0
 10 11  1  6
 11 12  1  0
 12 20  1  0
 13 12  2  0
 13 14  1  0
 14 15  1  0
 15 16  1  0
 16 17  2  0
 18 17  1  0
 19 18  2  0
 20 15  2  0
 20 19  1  0
 21 10  1  0
 22 21  2  0
 23 21  1  0
 24 30  1  0
 24 23  1  0
 24 25  1  1
 26 25  1  0
 26 27  1  0
 27 28  1  0
 29 28  1  0
 30 32  1  0
 31 30  2  0
M  END
$$$$
