NWK.pdb
     RDKit          3D

 32 33  0  0  1  0  0  0  0  0999 V2000
   27.4468  -19.5106  -18.1519 N   0  0  0  0  0  0  0  0  0  0  0  0
   27.8593  -19.3425  -16.8127 C   0  0  0  0  0  0  0  0  0  0  0  0
   28.9047  -18.7174  -16.5615 O   0  0  0  0  0  0  0  0  0  0  0  0
   27.0511  -19.9073  -15.7205 C   0  0  0  0  0  0  0  0  0  0  0  0
   27.9243  -20.7599  -14.8513 C   0  0  2  0  0  0  0  0  0  0  0  0
   28.3038  -21.9937  -15.5056 N   0  0  0  0  0  0  0  0  0  0  0  0
   27.3014  -21.0203  -13.5192 C   0  0  0  0  0  0  0  0  0  0  0  0
   26.2822  -21.7907  -13.5215 O   0  0  0  0  0  0  0  0  0  0  0  0
   27.7442  -20.4941  -12.3067 N   0  0  0  0  0  0  0  0  0  0  0  0
   27.0362  -20.7653  -11.0599 C   0  0  1  0  0  0  0  0  0  0  0  0
   27.8147  -20.1878   -9.8987 C   0  0  0  0  0  0  0  0  0  0  0  0
   27.2058  -20.4193   -8.5781 C   0  0  0  0  0  0  0  0  0  0  0  0
   25.9681  -21.0679   -8.4565 C   0  0  0  0  0  0  0  0  0  0  0  0
   25.7047  -21.1697   -7.1477 N   0  0  0  0  0  0  0  0  0  0  0  0
   26.6640  -20.6417   -6.3888 C   0  0  0  0  0  0  0  0  0  0  0  0
   26.8595  -20.4889   -5.0335 C   0  0  0  0  0  0  0  0  0  0  0  0
   28.0037  -19.8574   -4.5394 C   0  0  0  0  0  0  0  0  0  0  0  0
   28.9253  -19.3943   -5.4430 C   0  0  0  0  0  0  0  0  0  0  0  0
   28.7279  -19.5488   -6.8021 C   0  0  0  0  0  0  0  0  0  0  0  0
   27.6105  -20.1677   -7.2977 C   0  0  0  0  0  0  0  0  0  0  0  0
   25.6576  -20.2982  -11.0430 C   0  0  0  0  0  0  0  0  0  0  0  0
   25.4059  -19.0669  -11.0301 O   0  0  0  0  0  0  0  0  0  0  0  0
   24.5209  -21.1727  -11.0396 N   0  0  0  0  0  0  0  0  0  0  0  0
   23.1838  -20.7216  -11.3668 C   0  0  1  0  0  0  0  0  0  0  0  0
   22.3645  -21.8477  -11.9543 C   0  0  0  0  0  0  0  0  0  0  0  0
   20.9582  -21.3935  -12.2866 C   0  0  0  0  0  0  0  0  0  0  0  0
   20.1168  -22.5051  -12.8414 C   0  0  0  0  0  0  0  0  0  0  0  0
   18.7273  -22.0212  -13.1664 C   0  0  0  0  0  0  0  0  0  0  0  0
   17.8738  -23.1209  -13.5745 N   0  0  0  0  0  0  0  0  0  0  0  0
   22.4882  -20.3229  -10.0990 C   0  0  0  0  0  0  0  0  0  0  0  0
   21.7318  -19.3272  -10.0510 O   0  0  0  0  0  0  0  0  0  0  0  0
   22.6789  -21.0648   -8.9495 O   0  0  0  0  0  0  0  0  0  0  0  0
  2  1  1  0
  3  2  2  0
  4  2  1  0
  5  6  1  6
  5  4  1  0
  7  9  1  0
  7  5  1  0
  8  7  2  0
 10  9  1  0
 10 11  1  1
 11 12  1  0
 12 20  1  0
 13 12  2  0
 13 14  1  0
 14 15  1  0
 15 16  1  0
 16 17  2  0
 18 17  1  0
 19 18  2  0
 20 15  2  0
 20 19  1  0
 21 10  1  0
 22 21  2  0
 23 21  1  0
 24 30  1  0
 24 23  1  0
 24 25  1  1
 26 25  1  0
 26 27  1  0
 27 28  1  0
 29 28  1  0
 30 32  1  0
 31 30  2  0
M  END
$$$$
