NWK.pdb
     RDKit          3D

 32 33  0  0  1  0  0  0  0  0999 V2000
   25.3262  -25.5399  -18.4170 N   0  0  0  0  0  0  0  0  0  0  0  0
   24.6753  -26.4882  -17.5989 C   0  0  0  0  0  0  0  0  0  0  0  0
   24.6542  -27.6851  -17.9363 O   0  0  0  0  0  0  0  0  0  0  0  0
   24.0251  -26.0566  -16.3515 C   0  0  0  0  0  0  0  0  0  0  0  0
   24.3324  -24.6101  -16.1105 C   0  0  2  0  0  0  0  0  0  0  0  0
   25.7313  -24.3943  -15.8093 N   0  0  0  0  0  0  0  0  0  0  0  0
   23.4524  -24.0206  -15.0578 C   0  0  0  0  0  0  0  0  0  0  0  0
   23.0267  -24.8328  -14.1682 O   0  0  0  0  0  0  0  0  0  0  0  0
   23.0741  -22.6811  -14.9819 N   0  0  0  0  0  0  0  0  0  0  0  0
   22.3202  -22.1706  -13.8416 C   0  0  1  0  0  0  0  0  0  0  0  0
   22.8342  -20.7981  -13.4673 C   0  0  0  0  0  0  0  0  0  0  0  0
   24.0796  -20.8043  -12.6816 C   0  0  0  0  0  0  0  0  0  0  0  0
   25.3322  -20.8125  -13.3125 C   0  0  0  0  0  0  0  0  0  0  0  0
   26.2589  -20.7699  -12.3469 N   0  0  0  0  0  0  0  0  0  0  0  0
   25.7263  -20.7350  -11.1261 C   0  0  0  0  0  0  0  0  0  0  0  0
   26.2313  -20.6962   -9.8448 C   0  0  0  0  0  0  0  0  0  0  0  0
   25.3797  -20.6806   -8.7372 C   0  0  0  0  0  0  0  0  0  0  0  0
   24.0275  -20.7053   -8.9635 C   0  0  0  0  0  0  0  0  0  0  0  0
   23.5227  -20.7437  -10.2495 C   0  0  0  0  0  0  0  0  0  0  0  0
   24.3483  -20.7578  -11.3428 C   0  0  0  0  0  0  0  0  0  0  0  0
   20.8785  -22.1472  -14.0419 C   0  0  0  0  0  0  0  0  0  0  0  0
   20.3968  -21.7505  -15.1328 O   0  0  0  0  0  0  0  0  0  0  0  0
   19.9302  -22.5590  -13.0480 N   0  0  0  0  0  0  0  0  0  0  0  0
   18.4991  -22.5306  -13.2706 C   0  0  1  0  0  0  0  0  0  0  0  0
   17.7612  -23.1581  -12.1104 C   0  0  0  0  0  0  0  0  0  0  0  0
   16.2785  -23.2758  -12.3966 C   0  0  0  0  0  0  0  0  0  0  0  0
   15.5044  -23.7550  -11.2038 C   0  0  0  0  0  0  0  0  0  0  0  0
   14.0846  -24.0911  -11.5797 C   0  0  0  0  0  0  0  0  0  0  0  0
   13.3813  -24.7033  -10.4684 N   0  0  0  0  0  0  0  0  0  0  0  0
   18.0496  -21.1003  -13.3205 C   0  0  0  0  0  0  0  0  0  0  0  0
   18.6246  -20.2085  -12.6571 O   0  0  0  0  0  0  0  0  0  0  0  0
   16.9761  -20.7459  -14.1143 O   0  0  0  0  0  0  0  0  0  0  0  0
  2  1  1  0
  3  2  2  0
  4  2  1  0
  5  6  1  1
  5  4  1  0
  7  9  1  0
  7  5  1  0
  8  7  2  0
 10  9  1  0
 10 11  1  6
 11 12  1  0
 12 20  1  0
 13 12  2  0
 13 14  1  0
 14 15  1  0
 15 16  1  0
 16 17  2  0
 18 17  1  0
 19 18  2  0
 20 15  2  0
 20 19  1  0
 21 10  1  0
 22 21  2  0
 23 21  1  0
 24 30  1  0
 24 23  1  0
 24 25  1  1
 26 25  1  0
 26 27  1  0
 27 28  1  0
 29 28  1  0
 30 32  1  0
 31 30  2  0
M  END
$$$$
