NWK.pdb
     RDKit          3D

 32 33  0  0  1  0  0  0  0  0999 V2000
   29.2965  -23.7443  -19.5510 N   0  0  0  0  0  0  0  0  0  0  0  0
   29.9002  -22.8197  -18.6720 C   0  0  0  0  0  0  0  0  0  0  0  0
   30.8351  -22.1045  -19.0735 O   0  0  0  0  0  0  0  0  0  0  0  0
   29.4209  -22.7063  -17.2854 C   0  0  0  0  0  0  0  0  0  0  0  0
   28.0271  -22.1568  -17.2891 C   0  0  2  0  0  0  0  0  0  0  0  0
   27.9510  -20.8720  -17.9508 N   0  0  0  0  0  0  0  0  0  0  0  0
   27.4480  -22.0952  -15.9140 C   0  0  0  0  0  0  0  0  0  0  0  0
   27.4421  -23.1939  -15.2620 O   0  0  0  0  0  0  0  0  0  0  0  0
   26.9274  -20.9517  -15.3100 N   0  0  0  0  0  0  0  0  0  0  0  0
   26.2815  -21.0130  -14.0031 C   0  0  1  0  0  0  0  0  0  0  0  0
   26.6831  -19.8079  -13.1819 C   0  0  0  0  0  0  0  0  0  0  0  0
   26.4191  -19.9351  -11.7388 C   0  0  0  0  0  0  0  0  0  0  0  0
   25.1208  -19.7963  -11.2265 C   0  0  0  0  0  0  0  0  0  0  0  0
   25.1945  -20.0082   -9.9065 N   0  0  0  0  0  0  0  0  0  0  0  0
   26.4342  -20.2756   -9.4983 C   0  0  0  0  0  0  0  0  0  0  0  0
   27.0209  -20.5470   -8.2816 C   0  0  0  0  0  0  0  0  0  0  0  0
   28.3955  -20.7777   -8.1824 C   0  0  0  0  0  0  0  0  0  0  0  0
   29.1422  -20.7256   -9.3313 C   0  0  0  0  0  0  0  0  0  0  0  0
   28.5519  -20.4536  -10.5510 C   0  0  0  0  0  0  0  0  0  0  0  0
   27.2051  -20.2273  -10.6602 C   0  0  0  0  0  0  0  0  0  0  0  0
   24.8326  -21.1423  -14.0592 C   0  0  0  0  0  0  0  0  0  0  0  0
   24.1399  -20.2645  -14.6329 O   0  0  0  0  0  0  0  0  0  0  0  0
   24.1086  -22.2396  -13.4859 N   0  0  0  0  0  0  0  0  0  0  0  0
   22.6737  -22.3867  -13.6186 C   0  0  1  0  0  0  0  0  0  0  0  0
   22.2707  -23.8405  -13.5257 C   0  0  0  0  0  0  0  0  0  0  0  0
   22.5888  -24.5854  -14.8057 C   0  0  0  0  0  0  0  0  0  0  0  0
   22.1277  -26.0127  -14.7637 C   0  0  0  0  0  0  0  0  0  0  0  0
   22.2978  -26.6757  -16.1060 C   0  0  0  0  0  0  0  0  0  0  0  0
   21.8631  -28.0590  -16.0637 N   0  0  0  0  0  0  0  0  0  0  0  0
   22.0119  -21.7003  -12.4605 C   0  0  0  0  0  0  0  0  0  0  0  0
   22.5122  -21.7193  -11.3136 O   0  0  0  0  0  0  0  0  0  0  0  0
   20.8208  -21.0273  -12.6515 O   0  0  0  0  0  0  0  0  0  0  0  0
  2  1  1  0
  3  2  2  0
  4  2  1  0
  5  6  1  1
  5  4  1  0
  7  9  1  0
  7  5  1  0
  8  7  2  0
 10  9  1  0
 10 11  1  1
 11 12  1  0
 12 20  1  0
 13 12  2  0
 13 14  1  0
 14 15  1  0
 15 16  1  0
 16 17  2  0
 18 17  1  0
 19 18  2  0
 20 15  2  0
 20 19  1  0
 21 10  1  0
 22 21  2  0
 23 21  1  0
 24 30  1  0
 24 23  1  0
 24 25  1  1
 26 25  1  0
 26 27  1  0
 27 28  1  0
 29 28  1  0
 30 32  1  0
 31 30  2  0
M  END
$$$$
