NWK.pdb
     RDKit          3D

 32 33  0  0  1  0  0  0  0  0999 V2000
   27.8494  -11.4803  -24.2287 N   0  0  0  0  0  0  0  0  0  0  0  0
   26.8404  -10.6665  -23.6702 C   0  0  0  0  0  0  0  0  0  0  0  0
   26.1233   -9.9734  -24.4132 O   0  0  0  0  0  0  0  0  0  0  0  0
   26.6419  -10.6421  -22.2125 C   0  0  0  0  0  0  0  0  0  0  0  0
   25.1772  -10.7418  -21.9129 C   0  0  2  0  0  0  0  0  0  0  0  0
   24.5037   -9.4698  -22.0635 N   0  0  0  0  0  0  0  0  0  0  0  0
   24.9222  -11.3359  -20.5667 C   0  0  0  0  0  0  0  0  0  0  0  0
   25.3738  -12.5170  -20.3841 O   0  0  0  0  0  0  0  0  0  0  0  0
   24.2434  -10.7066  -19.5244 N   0  0  0  0  0  0  0  0  0  0  0  0
   23.9915  -11.3927  -18.2615 C   0  0  1  0  0  0  0  0  0  0  0  0
   24.5910  -10.5969  -17.1235 C   0  0  0  0  0  0  0  0  0  0  0  0
   26.0588  -10.6708  -17.0317 C   0  0  0  0  0  0  0  0  0  0  0  0
   26.8540   -9.5336  -17.2360 C   0  0  0  0  0  0  0  0  0  0  0  0
   28.1262   -9.9037  -17.0426 N   0  0  0  0  0  0  0  0  0  0  0  0
   28.2431  -11.1930  -16.7275 C   0  0  0  0  0  0  0  0  0  0  0  0
   29.2975  -12.0354  -16.4503 C   0  0  0  0  0  0  0  0  0  0  0  0
   29.0817  -13.3852  -16.1609 C   0  0  0  0  0  0  0  0  0  0  0  0
   27.7902  -13.8459  -16.1612 C   0  0  0  0  0  0  0  0  0  0  0  0
   26.7337  -12.9993  -16.4390 C   0  0  0  0  0  0  0  0  0  0  0  0
   26.9334  -11.6739  -16.7227 C   0  0  0  0  0  0  0  0  0  0  0  0
   22.5870  -11.6808  -18.0089 C   0  0  0  0  0  0  0  0  0  0  0  0
   21.7303  -10.7636  -18.0749 O   0  0  0  0  0  0  0  0  0  0  0  0
   22.0891  -12.9841  -17.6772 N   0  0  0  0  0  0  0  0  0  0  0  0
   20.7046  -13.2289  -17.3282 C   0  0  1  0  0  0  0  0  0  0  0  0
   20.4561  -14.7043  -17.1144 C   0  0  0  0  0  0  0  0  0  0  0  0
   18.9772  -15.0020  -16.9779 C   0  0  0  0  0  0  0  0  0  0  0  0
   18.7027  -16.4699  -16.8314 C   0  0  0  0  0  0  0  0  0  0  0  0
   17.2282  -16.7584  -16.9443 C   0  0  0  0  0  0  0  0  0  0  0  0
   16.9628  -18.1787  -16.8153 N   0  0  0  0  0  0  0  0  0  0  0  0
   20.4172  -12.5671  -16.0130 C   0  0  0  0  0  0  0  0  0  0  0  0
   19.2771  -12.1345  -15.7316 O   0  0  0  0  0  0  0  0  0  0  0  0
   21.4269  -12.4256  -15.0811 O   0  0  0  0  0  0  0  0  0  0  0  0
  2  1  1  0
  3  2  2  0
  4  2  1  0
  5  6  1  1
  5  4  1  0
  7  9  1  0
  7  5  1  0
  8  7  2  0
 10  9  1  0
 10 11  1  1
 11 12  1  0
 12 20  1  0
 13 12  2  0
 13 14  1  0
 14 15  1  0
 15 16  1  0
 16 17  2  0
 18 17  1  0
 19 18  2  0
 20 15  2  0
 20 19  1  0
 21 10  1  0
 22 21  2  0
 23 21  1  0
 24 30  1  0
 24 23  1  0
 24 25  1  1
 26 25  1  0
 26 27  1  0
 27 28  1  0
 29 28  1  0
 30 32  1  0
 31 30  2  0
M  END
$$$$
