PHG.pdb
     RDKit          3D

 22 23  0  0  1  0  0  0  0  0999 V2000
   26.2406  -10.1010  -15.7853 N   0  0  0  0  0  0  0  0  0  0  0  0
   27.2635  -11.1224  -15.6933 C   0  0  0  0  0  0  0  0  0  0  0  0
   27.4358  -11.7027  -17.0569 C   0  0  0  0  0  0  0  0  0  0  0  0
   26.3977  -11.0244  -17.8827 C   0  0  0  0  0  0  0  0  0  0  0  0
   26.1450   -9.7168  -17.1591 C   0  0  1  0  0  0  0  0  0  0  0  0
   24.7711   -9.2846  -17.5162 C   0  0  0  0  0  0  0  0  0  0  0  0
   24.5298   -8.9133  -18.6668 O   0  0  0  0  0  0  0  0  0  0  0  0
   23.6867   -9.2731  -16.5842 N   0  0  0  0  0  0  0  0  0  0  0  0
   22.3438   -8.9901  -16.9191 C   0  0  1  0  0  0  0  0  0  0  0  0
   21.3294  -10.0464  -16.8792 C   0  0  0  0  0  0  0  0  0  0  0  0
   21.5598  -11.2470  -17.6983 C   0  0  0  0  0  0  0  0  0  0  0  0
   21.6211  -11.4760  -19.0430 C   0  0  0  0  0  0  0  0  0  0  0  0
   21.8834  -12.8059  -19.2342 N   0  0  0  0  0  0  0  0  0  0  0  0
   21.9832  -13.3902  -18.0354 C   0  0  0  0  0  0  0  0  0  0  0  0
   21.7916  -12.4674  -17.1175 N   0  0  0  0  0  0  0  0  0  0  0  0
   21.8795   -7.8701  -16.0157 C   0  0  0  0  0  0  0  0  0  0  0  0
   20.7420   -7.3587  -16.1469 O   0  0  0  0  0  0  0  0  0  0  0  0
   22.7131   -7.3520  -14.9834 N   0  0  0  0  0  0  0  0  0  0  0  0
   22.3011   -6.2512  -14.1393 C   0  0  0  0  0  0  0  0  0  0  0  0
   22.8046   -4.9807  -14.6785 C   0  0  0  0  0  0  0  0  0  0  0  0
   23.4368   -4.9701  -15.7675 O   0  0  0  0  0  0  0  0  0  0  0  0
   22.6189   -3.7623  -14.0412 O   0  0  0  0  0  0  0  0  0  0  0  0
  1  5  1  0
  2  3  1  0
  2  1  1  0
  3  4  1  0
  4  5  1  0
  5  6  1  1
  6  7  2  0
  8  9  1  0
  8  6  1  0
  9 16  1  0
  9 10  1  1
 11 10  1  0
 11 15  1  0
 12 13  1  0
 12 11  2  0
 13 14  1  0
 14 15  2  0
 16 17  2  0
 18 16  1  0
 18 19  1  0
 19 20  1  0
 20 21  2  0
 20 22  1  0
M  END
$$$$
