PHG.pdb
     RDKit          3D

 22 23  0  0  1  0  0  0  0  0999 V2000
   24.2886  -10.9943  -15.8804 N   0  0  0  0  0  0  0  0  0  0  0  0
   25.0664  -12.2141  -15.9510 C   0  0  0  0  0  0  0  0  0  0  0  0
   24.5652  -12.9937  -17.1202 C   0  0  0  0  0  0  0  0  0  0  0  0
   23.4156  -12.1964  -17.6323 C   0  0  0  0  0  0  0  0  0  0  0  0
   23.7102  -10.7831  -17.1707 C   0  0  1  0  0  0  0  0  0  0  0  0
   22.4076  -10.0778  -17.0820 C   0  0  0  0  0  0  0  0  0  0  0  0
   21.7980   -9.7937  -18.1153 O   0  0  0  0  0  0  0  0  0  0  0  0
   21.8045   -9.7001  -15.8418 N   0  0  0  0  0  0  0  0  0  0  0  0
   20.5105   -9.1479  -15.7141 C   0  0  1  0  0  0  0  0  0  0  0  0
   19.4392   -9.9072  -15.0645 C   0  0  0  0  0  0  0  0  0  0  0  0
   19.0600  -11.1993  -15.6581 C   0  0  0  0  0  0  0  0  0  0  0  0
   18.3918  -11.5577  -16.7937 C   0  0  0  0  0  0  0  0  0  0  0  0
   18.3457  -12.9250  -16.8437 N   0  0  0  0  0  0  0  0  0  0  0  0
   18.9715  -13.4054  -15.7638 C   0  0  0  0  0  0  0  0  0  0  0  0
   19.3988  -12.3831  -15.0546 N   0  0  0  0  0  0  0  0  0  0  0  0
   20.6514   -7.8315  -14.9837 C   0  0  0  0  0  0  0  0  0  0  0  0
   19.6593   -7.0918  -14.7805 O   0  0  0  0  0  0  0  0  0  0  0  0
   21.9126   -7.3799  -14.4994 N   0  0  0  0  0  0  0  0  0  0  0  0
   22.0648   -6.1211  -13.8021 C   0  0  0  0  0  0  0  0  0  0  0  0
   22.4146   -5.0540  -14.7495 C   0  0  0  0  0  0  0  0  0  0  0  0
   22.4818   -5.3081  -15.9810 O   0  0  0  0  0  0  0  0  0  0  0  0
   22.6818   -3.7507  -14.3554 O   0  0  0  0  0  0  0  0  0  0  0  0
  1  5  1  0
  2  3  1  0
  2  1  1  0
  3  4  1  0
  4  5  1  0
  5  6  1  1
  6  7  2  0
  8  9  1  0
  8  6  1  0
  9 16  1  0
  9 10  1  1
 11 10  1  0
 11 15  1  0
 12 13  1  0
 12 11  2  0
 13 14  1  0
 14 15  2  0
 16 17  2  0
 18 16  1  0
 18 19  1  0
 19 20  1  0
 20 21  2  0
 20 22  1  0
M  END
$$$$
