PHG.pdb
     RDKit          3D

 22 23  0  0  1  0  0  0  0  0999 V2000
   22.6609  -10.1842  -17.1342 N   0  0  0  0  0  0  0  0  0  0  0  0
   23.5416  -11.3301  -17.2309 C   0  0  0  0  0  0  0  0  0  0  0  0
   22.7885  -12.4116  -17.9302 C   0  0  0  0  0  0  0  0  0  0  0  0
   21.4249  -11.8454  -18.1288 C   0  0  0  0  0  0  0  0  0  0  0  0
   21.6425  -10.3454  -18.1246 C   0  0  1  0  0  0  0  0  0  0  0  0
   20.3618   -9.7249  -17.7043 C   0  0  0  0  0  0  0  0  0  0  0  0
   19.4007   -9.7304  -18.4765 O   0  0  0  0  0  0  0  0  0  0  0  0
   20.1723   -9.1073  -16.4286 N   0  0  0  0  0  0  0  0  0  0  0  0
   18.9609   -8.5284  -15.9893 C   0  0  1  0  0  0  0  0  0  0  0  0
   18.1574   -9.1822  -14.9533 C   0  0  0  0  0  0  0  0  0  0  0  0
   17.5709  -10.4943  -15.2692 C   0  0  0  0  0  0  0  0  0  0  0  0
   17.0370  -11.0432  -16.3997 C   0  0  0  0  0  0  0  0  0  0  0  0
   16.6563  -12.3255  -16.1083 N   0  0  0  0  0  0  0  0  0  0  0  0
   16.9474  -12.5682  -14.8257 C   0  0  0  0  0  0  0  0  0  0  0  0
   17.4919  -11.4821  -14.3212 N   0  0  0  0  0  0  0  0  0  0  0  0
   19.2759   -7.1281  -15.5140 C   0  0  0  0  0  0  0  0  0  0  0  0
   18.3629   -6.3281  -15.1988 O   0  0  0  0  0  0  0  0  0  0  0  0
   20.6178   -6.6625  -15.4062 N   0  0  0  0  0  0  0  0  0  0  0  0
   20.9385   -5.3453  -14.9003 C   0  0  0  0  0  0  0  0  0  0  0  0
   21.7251   -5.4529  -13.6641 C   0  0  0  0  0  0  0  0  0  0  0  0
   21.8557   -6.5718  -13.1012 O   0  0  0  0  0  0  0  0  0  0  0  0
   22.3474   -4.3661  -13.0668 O   0  0  0  0  0  0  0  0  0  0  0  0
  1  5  1  0
  2  3  1  0
  2  1  1  0
  3  4  1  0
  4  5  1  0
  5  6  1  1
  6  7  2  0
  8  9  1  0
  8  6  1  0
  9 16  1  0
  9 10  1  1
 11 10  1  0
 11 15  1  0
 12 13  1  0
 12 11  2  0
 13 14  1  0
 14 15  2  0
 16 17  2  0
 18 16  1  0
 18 19  1  0
 19 20  1  0
 20 21  2  0
 20 22  1  0
M  END
$$$$
