PHG.pdb
     RDKit          3D

 22 23  0  0  1  0  0  0  0  0999 V2000
   25.9321  -34.4268   -3.8624 N   0  0  0  0  0  0  0  0  0  0  0  0
   24.8575  -34.4102   -4.8334 C   0  0  0  0  0  0  0  0  0  0  0  0
   24.2580  -33.0442   -4.8094 C   0  0  0  0  0  0  0  0  0  0  0  0
   24.9851  -32.3391   -3.7168 C   0  0  0  0  0  0  0  0  0  0  0  0
   26.3101  -33.0689   -3.6227 C   0  0  1  0  0  0  0  0  0  0  0  0
   26.8135  -32.8728   -2.2406 C   0  0  0  0  0  0  0  0  0  0  0  0
   27.1437  -31.7450   -1.8676 O   0  0  0  0  0  0  0  0  0  0  0  0
   26.9410  -33.9379   -1.2951 N   0  0  0  0  0  0  0  0  0  0  0  0
   27.3739  -33.7781    0.0401 C   0  0  1  0  0  0  0  0  0  0  0  0
   26.4149  -33.8463    1.1455 C   0  0  0  0  0  0  0  0  0  0  0  0
   25.3716  -32.8105    1.2106 C   0  0  0  0  0  0  0  0  0  0  0  0
   25.3940  -31.4564    1.3851 C   0  0  0  0  0  0  0  0  0  0  0  0
   24.1030  -31.0030    1.3424 N   0  0  0  0  0  0  0  0  0  0  0  0
   23.2966  -32.0515    1.1454 C   0  0  0  0  0  0  0  0  0  0  0  0
   24.0459  -33.1299    1.0661 N   0  0  0  0  0  0  0  0  0  0  0  0
   28.4457  -34.8139    0.2943 C   0  0  0  0  0  0  0  0  0  0  0  0
   28.9915  -34.9216    1.4182 O   0  0  0  0  0  0  0  0  0  0  0  0
   28.8775  -35.7052   -0.7294 N   0  0  0  0  0  0  0  0  0  0  0  0
   29.8533  -36.7454   -0.4848 C   0  0  0  0  0  0  0  0  0  0  0  0
   31.0837  -36.4766   -1.2415 C   0  0  0  0  0  0  0  0  0  0  0  0
   31.2227  -35.3771   -1.8394 O   0  0  0  0  0  0  0  0  0  0  0  0
   32.1264  -37.3869   -1.3374 O   0  0  0  0  0  0  0  0  0  0  0  0
  1  5  1  0
  2  3  1  0
  2  1  1  0
  3  4  1  0
  4  5  1  0
  5  6  1  1
  6  7  2  0
  8  9  1  0
  8  6  1  0
  9 16  1  0
  9 10  1  1
 11 10  1  0
 11 15  1  0
 12 13  1  0
 12 11  2  0
 13 14  1  0
 14 15  2  0
 16 17  2  0
 18 16  1  0
 18 19  1  0
 19 20  1  0
 20 21  2  0
 20 22  1  0
M  END
$$$$
