PHG.pdb
     RDKit          3D

 22 23  0  0  1  0  0  0  0  0999 V2000
   23.0377  -11.5922  -16.6412 N   0  0  0  0  0  0  0  0  0  0  0  0
   23.0307  -12.8319  -17.3902 C   0  0  0  0  0  0  0  0  0  0  0  0
   24.4231  -13.0687  -17.8708 C   0  0  0  0  0  0  0  0  0  0  0  0
   25.1762  -11.8589  -17.4362 C   0  0  0  0  0  0  0  0  0  0  0  0
   24.3892  -11.3392  -16.2497 C   0  0  1  0  0  0  0  0  0  0  0  0
   24.6708   -9.8857  -16.1485 C   0  0  0  0  0  0  0  0  0  0  0  0
   25.7888   -9.5058  -15.7939 O   0  0  0  0  0  0  0  0  0  0  0  0
   23.7008   -8.8777  -16.4445 N   0  0  0  0  0  0  0  0  0  0  0  0
   23.9537   -7.4881  -16.4172 C   0  0  1  0  0  0  0  0  0  0  0  0
   24.0849   -6.7318  -17.6650 C   0  0  0  0  0  0  0  0  0  0  0  0
   25.1644   -7.1173  -18.5879 C   0  0  0  0  0  0  0  0  0  0  0  0
   26.4523   -6.6988  -18.7630 C   0  0  0  0  0  0  0  0  0  0  0  0
   27.0025   -7.4359  -19.7769 N   0  0  0  0  0  0  0  0  0  0  0  0
   26.0776   -8.2933  -20.2217 C   0  0  0  0  0  0  0  0  0  0  0  0
   24.9816   -8.1085  -19.5178 N   0  0  0  0  0  0  0  0  0  0  0  0
   22.8549   -6.8452  -15.6013 C   0  0  0  0  0  0  0  0  0  0  0  0
   21.6830   -7.2911  -15.6241 O   0  0  0  0  0  0  0  0  0  0  0  0
   23.1058   -5.7106  -14.7776 N   0  0  0  0  0  0  0  0  0  0  0  0
   22.0727   -5.1030  -13.9667 C   0  0  0  0  0  0  0  0  0  0  0  0
   21.3480   -4.0878  -14.7430 C   0  0  0  0  0  0  0  0  0  0  0  0
   21.6667   -3.8720  -15.9421 O   0  0  0  0  0  0  0  0  0  0  0  0
   20.3074   -3.3349  -14.2181 O   0  0  0  0  0  0  0  0  0  0  0  0
  1  5  1  0
  2  3  1  0
  2  1  1  0
  3  4  1  0
  4  5  1  0
  5  6  1  6
  6  7  2  0
  8  9  1  0
  8  6  1  0
  9 16  1  0
  9 10  1  6
 11 10  1  0
 11 15  1  0
 12 13  1  0
 12 11  2  0
 13 14  1  0
 14 15  2  0
 16 17  2  0
 18 16  1  0
 18 19  1  0
 19 20  1  0
 20 21  2  0
 20 22  1  0
M  END
$$$$
