PHG.pdb
     RDKit          3D

 22 23  0  0  1  0  0  0  0  0999 V2000
   23.4345  -10.6345  -18.4102 N   0  0  0  0  0  0  0  0  0  0  0  0
   23.8602  -11.8197  -19.1258 C   0  0  0  0  0  0  0  0  0  0  0  0
   22.6773  -12.3358  -19.8741 C   0  0  0  0  0  0  0  0  0  0  0  0
   21.5595  -11.4402  -19.4644 C   0  0  0  0  0  0  0  0  0  0  0  0
   22.2478  -10.1558  -19.0477 C   0  0  1  0  0  0  0  0  0  0  0  0
   21.3439   -9.4734  -18.0888 C   0  0  0  0  0  0  0  0  0  0  0  0
   20.2770   -9.0021  -18.4882 O   0  0  0  0  0  0  0  0  0  0  0  0
   21.6439   -9.3272  -16.6984 N   0  0  0  0  0  0  0  0  0  0  0  0
   20.8080   -8.6806  -15.7608 C   0  0  1  0  0  0  0  0  0  0  0  0
   20.0926   -9.4558  -14.7441 C   0  0  0  0  0  0  0  0  0  0  0  0
   19.0333  -10.3696  -15.2008 C   0  0  0  0  0  0  0  0  0  0  0  0
   18.5192  -10.6828  -16.4263 C   0  0  0  0  0  0  0  0  0  0  0  0
   17.5433  -11.6260  -16.2472 N   0  0  0  0  0  0  0  0  0  0  0  0
   17.4532  -11.8931  -14.9399 C   0  0  0  0  0  0  0  0  0  0  0  0
   18.3375  -11.1484  -14.3121 N   0  0  0  0  0  0  0  0  0  0  0  0
   21.6470   -7.6455  -15.0462 C   0  0  0  0  0  0  0  0  0  0  0  0
   22.7748   -7.9330  -14.5793 O   0  0  0  0  0  0  0  0  0  0  0  0
   21.1912   -6.3069  -14.8746 N   0  0  0  0  0  0  0  0  0  0  0  0
   22.0510   -5.2585  -14.3691 C   0  0  0  0  0  0  0  0  0  0  0  0
   21.3026   -3.9999  -14.2504 C   0  0  0  0  0  0  0  0  0  0  0  0
   20.1133   -3.9384  -14.6599 O   0  0  0  0  0  0  0  0  0  0  0  0
   21.8440   -2.8472  -13.6996 O   0  0  0  0  0  0  0  0  0  0  0  0
  1  5  1  0
  2  3  1  0
  2  1  1  0
  3  4  1  0
  4  5  1  0
  5  6  1  1
  6  7  2  0
  8  9  1  0
  8  6  1  0
  9 16  1  0
  9 10  1  1
 11 10  1  0
 11 15  1  0
 12 13  1  0
 12 11  2  0
 13 14  1  0
 14 15  2  0
 16 17  2  0
 18 16  1  0
 18 19  1  0
 19 20  1  0
 20 21  2  0
 20 22  1  0
M  END
$$$$
