PHG.pdb
     RDKit          3D

 22 23  0  0  1  0  0  0  0  0999 V2000
   18.6237  -19.2265    2.5164 N   0  0  0  0  0  0  0  0  0  0  0  0
   18.4226  -19.7302    1.1734 C   0  0  0  0  0  0  0  0  0  0  0  0
   17.5270  -18.7683    0.4675 C   0  0  0  0  0  0  0  0  0  0  0  0
   17.1667  -17.7648    1.5080 C   0  0  0  0  0  0  0  0  0  0  0  0
   18.3117  -17.8314    2.4988 C   0  0  1  0  0  0  0  0  0  0  0  0
   17.7796  -17.3692    3.8047 C   0  0  0  0  0  0  0  0  0  0  0  0
   17.4972  -16.1791    3.9598 O   0  0  0  0  0  0  0  0  0  0  0  0
   17.5706  -18.2416    4.9182 N   0  0  0  0  0  0  0  0  0  0  0  0
   16.9989  -17.8490    6.1489 C   0  0  1  0  0  0  0  0  0  0  0  0
   15.6285  -18.2389    6.4899 C   0  0  0  0  0  0  0  0  0  0  0  0
   14.5506  -17.8126    5.5833 C   0  0  0  0  0  0  0  0  0  0  0  0
   14.4289  -16.8079    4.6666 C   0  0  0  0  0  0  0  0  0  0  0  0
   13.1876  -16.9028    4.0972 N   0  0  0  0  0  0  0  0  0  0  0  0
   12.5523  -17.9431    4.6474 C   0  0  0  0  0  0  0  0  0  0  0  0
   13.3585  -18.4885    5.5324 N   0  0  0  0  0  0  0  0  0  0  0  0
   17.9081  -18.3486    7.2489 C   0  0  0  0  0  0  0  0  0  0  0  0
   18.5794  -19.3987    7.1101 O   0  0  0  0  0  0  0  0  0  0  0  0
   18.0375  -17.6493    8.4830 N   0  0  0  0  0  0  0  0  0  0  0  0
   18.9373  -18.0889    9.5276 C   0  0  0  0  0  0  0  0  0  0  0  0
   18.3167  -19.1630   10.3148 C   0  0  0  0  0  0  0  0  0  0  0  0
   17.1652  -19.5741   10.0133 O   0  0  0  0  0  0  0  0  0  0  0  0
   18.9417  -19.7648   11.3975 O   0  0  0  0  0  0  0  0  0  0  0  0
  1  5  1  0
  2  3  1  0
  2  1  1  0
  3  4  1  0
  4  5  1  0
  5  6  1  1
  6  7  2  0
  8  9  1  0
  8  6  1  0
  9 16  1  0
  9 10  1  1
 11 10  1  0
 11 15  1  0
 12 13  1  0
 12 11  2  0
 13 14  1  0
 14 15  2  0
 16 17  2  0
 18 16  1  0
 18 19  1  0
 19 20  1  0
 20 21  2  0
 20 22  1  0
M  END
$$$$
