PHG.pdb
     RDKit          3D

 22 23  0  0  1  0  0  0  0  0999 V2000
   23.7548  -10.4960  -18.0749 N   0  0  0  0  0  0  0  0  0  0  0  0
   24.1422  -11.6951  -18.7890 C   0  0  0  0  0  0  0  0  0  0  0  0
   23.0050  -12.0689  -19.6796 C   0  0  0  0  0  0  0  0  0  0  0  0
   21.9390  -11.0800  -19.3549 C   0  0  0  0  0  0  0  0  0  0  0  0
   22.6961   -9.8832  -18.8151 C   0  0  1  0  0  0  0  0  0  0  0  0
   21.7612   -9.1443  -17.9307 C   0  0  0  0  0  0  0  0  0  0  0  0
   20.7813   -8.5777  -18.4191 O   0  0  0  0  0  0  0  0  0  0  0  0
   21.9336   -9.0487  -16.5144 N   0  0  0  0  0  0  0  0  0  0  0  0
   21.0812   -8.3271  -15.6493 C   0  0  1  0  0  0  0  0  0  0  0  0
   20.2686   -9.0279  -14.6518 C   0  0  0  0  0  0  0  0  0  0  0  0
   19.2024   -9.9167  -15.1405 C   0  0  0  0  0  0  0  0  0  0  0  0
   18.7736  -10.2830  -16.3841 C   0  0  0  0  0  0  0  0  0  0  0  0
   17.7370  -11.1641  -16.2316 N   0  0  0  0  0  0  0  0  0  0  0  0
   17.5266  -11.3416  -14.9229 C   0  0  0  0  0  0  0  0  0  0  0  0
   18.3957  -10.6019  -14.2686 N   0  0  0  0  0  0  0  0  0  0  0  0
   21.9321   -7.3117  -14.9205 C   0  0  0  0  0  0  0  0  0  0  0  0
   23.1212   -7.5628  -14.6109 O   0  0  0  0  0  0  0  0  0  0  0  0
   21.4187   -6.0339  -14.5567 N   0  0  0  0  0  0  0  0  0  0  0  0
   22.2344   -5.0327  -13.9036 C   0  0  0  0  0  0  0  0  0  0  0  0
   21.4390   -3.8281  -13.6300 C   0  0  0  0  0  0  0  0  0  0  0  0
   20.3131   -3.6848  -14.1753 O   0  0  0  0  0  0  0  0  0  0  0  0
   21.8678   -2.8149  -12.7846 O   0  0  0  0  0  0  0  0  0  0  0  0
  1  5  1  0
  2  3  1  0
  2  1  1  0
  3  4  1  0
  4  5  1  0
  5  6  1  1
  6  7  2  0
  8  9  1  0
  8  6  1  0
  9 16  1  0
  9 10  1  1
 11 10  1  0
 11 15  1  0
 12 13  1  0
 12 11  2  0
 13 14  1  0
 14 15  2  0
 16 17  2  0
 18 16  1  0
 18 19  1  0
 19 20  1  0
 20 21  2  0
 20 22  1  0
M  END
$$$$
