PHG.pdb
     RDKit          3D

 22 23  0  0  1  0  0  0  0  0999 V2000
   25.2525  -10.2726  -15.6167 N   0  0  0  0  0  0  0  0  0  0  0  0
   26.1889  -11.3728  -15.5145 C   0  0  0  0  0  0  0  0  0  0  0  0
   25.8691  -12.3318  -16.6117 C   0  0  0  0  0  0  0  0  0  0  0  0
   24.6571  -11.7600  -17.2626 C   0  0  0  0  0  0  0  0  0  0  0  0
   24.7316  -10.2793  -16.9480 C   0  0  1  0  0  0  0  0  0  0  0  0
   23.3435   -9.7570  -16.9994 C   0  0  0  0  0  0  0  0  0  0  0  0
   22.7671   -9.6670  -18.0855 O   0  0  0  0  0  0  0  0  0  0  0  0
   22.6192   -9.3430  -15.8381 N   0  0  0  0  0  0  0  0  0  0  0  0
   21.2571   -8.9685  -15.8332 C   0  0  1  0  0  0  0  0  0  0  0  0
   20.2400   -9.8713  -15.2884 C   0  0  0  0  0  0  0  0  0  0  0  0
   20.1109  -11.2040  -15.8990 C   0  0  0  0  0  0  0  0  0  0  0  0
   19.7052  -11.6461  -17.1256 C   0  0  0  0  0  0  0  0  0  0  0  0
   19.8084  -13.0111  -17.1386 N   0  0  0  0  0  0  0  0  0  0  0  0
   20.2681  -13.4083  -15.9472 C   0  0  0  0  0  0  0  0  0  0  0  0
   20.4501  -12.3372  -15.2054 N   0  0  0  0  0  0  0  0  0  0  0  0
   21.1527   -7.6547  -15.0921 C   0  0  0  0  0  0  0  0  0  0  0  0
   20.0554   -7.0582  -14.9785 O   0  0  0  0  0  0  0  0  0  0  0  0
   22.2928   -7.0435  -14.4959 N   0  0  0  0  0  0  0  0  0  0  0  0
   22.2006   -5.8143  -13.7378 C   0  0  0  0  0  0  0  0  0  0  0  0
   22.5520   -4.6666  -14.5850 C   0  0  0  0  0  0  0  0  0  0  0  0
   22.7881   -4.8421  -15.8094 O   0  0  0  0  0  0  0  0  0  0  0  0
   22.6407   -3.3691  -14.1016 O   0  0  0  0  0  0  0  0  0  0  0  0
  1  5  1  0
  2  3  1  0
  2  1  1  0
  3  4  1  0
  4  5  1  0
  5  6  1  1
  6  7  2  0
  8  9  1  0
  8  6  1  0
  9 16  1  0
  9 10  1  1
 11 10  1  0
 11 15  1  0
 12 13  1  0
 12 11  2  0
 13 14  1  0
 14 15  2  0
 16 17  2  0
 18 16  1  0
 18 19  1  0
 19 20  1  0
 20 21  2  0
 20 22  1  0
M  END
$$$$
