PHG.pdb
     RDKit          3D

 22 23  0  0  1  0  0  0  0  0999 V2000
   26.4998  -20.8928  -11.9580 N   0  0  0  0  0  0  0  0  0  0  0  0
   27.7480  -21.4456  -11.4740 C   0  0  0  0  0  0  0  0  0  0  0  0
   28.8531  -20.7179  -12.1631 C   0  0  0  0  0  0  0  0  0  0  0  0
   28.1596  -19.8076  -13.1171 C   0  0  0  0  0  0  0  0  0  0  0  0
   26.7887  -19.6035  -12.5039 C   0  0  1  0  0  0  0  0  0  0  0  0
   25.8671  -19.2558  -13.6138 C   0  0  0  0  0  0  0  0  0  0  0  0
   25.9447  -18.1455  -14.1440 O   0  0  0  0  0  0  0  0  0  0  0  0
   24.8726  -20.1523  -14.1158 N   0  0  0  0  0  0  0  0  0  0  0  0
   24.0360  -19.8846  -15.2222 C   0  0  1  0  0  0  0  0  0  0  0  0
   24.4578  -20.2466  -16.5777 C   0  0  0  0  0  0  0  0  0  0  0  0
   25.8452  -19.9457  -16.9653 C   0  0  0  0  0  0  0  0  0  0  0  0
   26.4283  -18.9454  -17.6890 C   0  0  0  0  0  0  0  0  0  0  0  0
   27.7782  -19.1717  -17.7125 N   0  0  0  0  0  0  0  0  0  0  0  0
   28.0284  -20.2874  -17.0187 C   0  0  0  0  0  0  0  0  0  0  0  0
   26.8819  -20.7524  -16.5716 N   0  0  0  0  0  0  0  0  0  0  0  0
   22.7079  -20.5569  -14.9572 C   0  0  0  0  0  0  0  0  0  0  0  0
   22.0431  -21.0716  -15.8877 O   0  0  0  0  0  0  0  0  0  0  0  0
   22.1600  -20.6317  -13.6445 N   0  0  0  0  0  0  0  0  0  0  0  0
   20.8217  -21.1222  -13.3944 C   0  0  0  0  0  0  0  0  0  0  0  0
   19.8576  -20.0145  -13.4375 C   0  0  0  0  0  0  0  0  0  0  0  0
   20.2484  -18.8567  -13.7417 O   0  0  0  0  0  0  0  0  0  0  0  0
   18.5086  -20.1748  -13.1556 O   0  0  0  0  0  0  0  0  0  0  0  0
  1  5  1  0
  2  3  1  0
  2  1  1  0
  3  4  1  0
  4  5  1  0
  5  6  1  6
  6  7  2  0
  8  9  1  0
  8  6  1  0
  9 16  1  0
  9 10  1  6
 11 10  1  0
 11 15  1  0
 12 13  1  0
 12 11  2  0
 13 14  1  0
 14 15  2  0
 16 17  2  0
 18 16  1  0
 18 19  1  0
 19 20  1  0
 20 21  2  0
 20 22  1  0
M  END
$$$$
