PHG.pdb
     RDKit          3D

 22 23  0  0  1  0  0  0  0  0999 V2000
   19.1699  -10.6363  -15.4154 N   0  0  0  0  0  0  0  0  0  0  0  0
   18.2310  -11.7259  -15.2447 C   0  0  0  0  0  0  0  0  0  0  0  0
   18.4392  -12.6735  -16.3781 C   0  0  0  0  0  0  0  0  0  0  0  0
   19.4657  -12.0117  -17.2312 C   0  0  0  0  0  0  0  0  0  0  0  0
   20.2126  -11.1036  -16.2747 C   0  0  1  0  0  0  0  0  0  0  0  0
   20.7916  -10.0047  -17.0865 C   0  0  0  0  0  0  0  0  0  0  0  0
   21.7841  -10.2220  -17.7850 O   0  0  0  0  0  0  0  0  0  0  0  0
   20.2548   -8.6796  -17.1071 N   0  0  0  0  0  0  0  0  0  0  0  0
   20.6794   -7.6553  -17.9824 C   0  0  1  0  0  0  0  0  0  0  0  0
   19.8073   -7.1944  -19.0656 C   0  0  0  0  0  0  0  0  0  0  0  0
   19.3733   -8.1857  -20.0629 C   0  0  0  0  0  0  0  0  0  0  0  0
   19.9287   -8.6786  -21.2088 C   0  0  0  0  0  0  0  0  0  0  0  0
   19.0691   -9.6081  -21.7296 N   0  0  0  0  0  0  0  0  0  0  0  0
   18.0038   -9.6912  -20.9253 C   0  0  0  0  0  0  0  0  0  0  0  0
   18.1793   -8.8471  -19.9317 N   0  0  0  0  0  0  0  0  0  0  0  0
   21.0354   -6.4552  -17.1343 C   0  0  0  0  0  0  0  0  0  0  0  0
   21.6101   -5.4568  -17.6299 O   0  0  0  0  0  0  0  0  0  0  0  0
   20.7340   -6.4111  -15.7428 N   0  0  0  0  0  0  0  0  0  0  0  0
   21.0821   -5.2770  -14.9142 C   0  0  0  0  0  0  0  0  0  0  0  0
   21.7787   -5.7276  -13.7017 C   0  0  0  0  0  0  0  0  0  0  0  0
   22.0690   -6.9451  -13.5632 O   0  0  0  0  0  0  0  0  0  0  0  0
   22.1438   -4.8679  -12.6757 O   0  0  0  0  0  0  0  0  0  0  0  0
  1  5  1  0
  2  3  1  0
  2  1  1  0
  3  4  1  0
  4  5  1  0
  5  6  1  6
  6  7  2  0
  8  9  1  0
  8  6  1  0
  9 16  1  0
  9 10  1  6
 11 10  1  0
 11 15  1  0
 12 13  1  0
 12 11  2  0
 13 14  1  0
 14 15  2  0
 16 17  2  0
 18 16  1  0
 18 19  1  0
 19 20  1  0
 20 21  2  0
 20 22  1  0
M  END
$$$$
