WSM.pdb
     RDKit          3D

 29 30  0  0  1  0  0  0  0  0999 V2000
    6.5100  -17.7713   24.8275 N   0  0  0  0  0  0  0  0  0  0  0  0
    7.5793  -17.0271   24.2579 C   0  0  1  0  0  0  0  0  0  0  0  0
    8.1661  -15.9748   25.1597 C   0  0  0  0  0  0  0  0  0  0  0  0
    7.1928  -14.9808   25.6442 C   0  0  0  0  0  0  0  0  0  0  0  0
    6.0377  -15.2799   26.3489 C   0  0  0  0  0  0  0  0  0  0  0  0
    5.3823  -14.1603   26.6611 N   0  0  0  0  0  0  0  0  0  0  0  0
    6.0967  -13.1293   26.1674 C   0  0  0  0  0  0  0  0  0  0  0  0
    5.8630  -11.7688   26.2073 C   0  0  0  0  0  0  0  0  0  0  0  0
    6.7673  -10.9037   25.6057 C   0  0  0  0  0  0  0  0  0  0  0  0
    7.8744  -11.3911   24.9817 C   0  0  0  0  0  0  0  0  0  0  0  0
    8.1166  -12.7379   24.9358 C   0  0  0  0  0  0  0  0  0  0  0  0
    7.2342  -13.6118   25.5258 C   0  0  0  0  0  0  0  0  0  0  0  0
    8.6549  -17.9333   23.7307 C   0  0  0  0  0  0  0  0  0  0  0  0
    8.8017  -19.1002   24.1363 O   0  0  0  0  0  0  0  0  0  0  0  0
   11.0678  -16.0135   21.1195 O   0  0  0  0  0  0  0  0  0  0  0  0
   11.5407  -17.3344   21.2977 C   0  0  0  0  0  0  0  0  0  0  0  0
   10.8826  -17.8638   22.5293 C   0  0  2  0  0  0  0  0  0  0  0  0
    9.5355  -17.4253   22.7277 N   0  0  0  0  0  0  0  0  0  0  0  0
   11.7143  -17.4611   23.7036 C   0  0  0  0  0  0  0  0  0  0  0  0
   12.4447  -16.4366   23.5989 O   0  0  0  0  0  0  0  0  0  0  0  0
    9.3499  -13.9669   28.1519 C   0  0  0  0  0  0  0  0  0  0  0  0
   11.0055  -14.7081   27.9953 S   0  0  0  0  0  0  0  0  0  0  0  0
   11.1168  -15.7716   26.5495 C   0  0  0  0  0  0  0  0  0  0  0  0
   12.4875  -16.2608   26.2638 C   0  0  0  0  0  0  0  0  0  0  0  0
   12.5993  -17.7463   26.0051 C   0  0  2  0  0  0  0  0  0  0  0  0
   11.7305  -18.1560   24.9162 N   0  0  0  0  0  0  0  0  0  0  0  0
   12.2746  -18.5833   27.1738 C   0  0  0  0  0  0  0  0  0  0  0  0
   11.2366  -19.2832   27.1836 O   0  0  0  0  0  0  0  0  0  0  0  0
   13.1006  -18.6159   28.2779 O   0  0  0  0  0  0  0  0  0  0  0  0
  2  1  1  1
  2 13  1  0
  2  3  1  0
  3  4  1  0
  4  5  2  0
  4 12  1  0
  5  6  1  0
  6  7  1  0
  7  8  2  0
  8  9  1  0
 10  9  2  0
 11 10  1  0
 12 11  2  0
 12  7  1  0
 13 18  1  0
 14 13  2  0
 17 16  1  6
 16 15  1  0
 17 19  1  0
 18 17  1  0
 19 26  1  0
 19 20  2  0
 21 22  1  0
 23 24  1  0
 23 22  1  0
 25 24  1  1
 25 27  1  0
 26 25  1  0
 27 29  1  0
 28 27  2  0
M  END
$$$$
