WSM.pdb
     RDKit          3D

 29 30  0  0  1  0  0  0  0  0999 V2000
    6.4650  -17.6679   24.5561 N   0  0  0  0  0  0  0  0  0  0  0  0
    7.3238  -16.8225   23.8016 C   0  0  1  0  0  0  0  0  0  0  0  0
    8.0225  -15.7568   24.6021 C   0  0  0  0  0  0  0  0  0  0  0  0
    7.1214  -14.7453   25.1811 C   0  0  0  0  0  0  0  0  0  0  0  0
    5.9378  -15.0248   25.8454 C   0  0  0  0  0  0  0  0  0  0  0  0
    5.3654  -13.8958   26.2674 N   0  0  0  0  0  0  0  0  0  0  0  0
    6.1626  -12.8779   25.8856 C   0  0  0  0  0  0  0  0  0  0  0  0
    6.0325  -11.5146   26.0636 C   0  0  0  0  0  0  0  0  0  0  0  0
    7.0076  -10.6649   25.5584 C   0  0  0  0  0  0  0  0  0  0  0  0
    8.0824  -11.1700   24.8934 C   0  0  0  0  0  0  0  0  0  0  0  0
    8.2221  -12.5198   24.7110 C   0  0  0  0  0  0  0  0  0  0  0  0
    7.2682  -13.3787   25.2038 C   0  0  0  0  0  0  0  0  0  0  0  0
    8.3147  -17.6222   23.0049 C   0  0  0  0  0  0  0  0  0  0  0  0
    8.6838  -18.7595   23.3485 O   0  0  0  0  0  0  0  0  0  0  0  0
    9.2851  -16.2240   19.4809 O   0  0  0  0  0  0  0  0  0  0  0  0
   10.5295  -16.4779   20.1032 C   0  0  0  0  0  0  0  0  0  0  0  0
   10.2279  -17.0654   21.4426 C   0  0  2  0  0  0  0  0  0  0  0  0
    8.8459  -17.0451   21.8114 N   0  0  0  0  0  0  0  0  0  0  0  0
   11.0252  -16.3183   22.4619 C   0  0  0  0  0  0  0  0  0  0  0  0
   10.9963  -15.0562   22.4395 O   0  0  0  0  0  0  0  0  0  0  0  0
    9.7616  -14.2307   28.0299 C   0  0  0  0  0  0  0  0  0  0  0  0
   10.9632  -15.5529   28.3804 S   0  0  0  0  0  0  0  0  0  0  0  0
   12.1289  -15.7592   27.0266 C   0  0  0  0  0  0  0  0  0  0  0  0
   11.5286  -16.3244   25.7937 C   0  0  0  0  0  0  0  0  0  0  0  0
   12.3684  -16.1795   24.5447 C   0  0  2  0  0  0  0  0  0  0  0  0
   11.8045  -16.9384   23.4426 N   0  0  0  0  0  0  0  0  0  0  0  0
   13.7682  -16.6090   24.7118 C   0  0  0  0  0  0  0  0  0  0  0  0
   14.6040  -15.8498   25.2526 O   0  0  0  0  0  0  0  0  0  0  0  0
   14.1889  -17.8493   24.2796 O   0  0  0  0  0  0  0  0  0  0  0  0
  2  1  1  1
  2 13  1  0
  2  3  1  0
  3  4  1  0
  4  5  2  0
  4 12  1  0
  5  6  1  0
  6  7  1  0
  7  8  2  0
  8  9  1  0
 10  9  2  0
 11 10  1  0
 12 11  2  0
 12  7  1  0
 13 18  1  0
 14 13  2  0
 17 16  1  6
 16 15  1  0
 17 19  1  0
 18 17  1  0
 19 26  1  0
 19 20  2  0
 21 22  1  0
 23 24  1  0
 23 22  1  0
 25 24  1  1
 25 27  1  0
 26 25  1  0
 27 29  1  0
 28 27  2  0
M  END
$$$$
