WSM.pdb
     RDKit          3D

 29 30  0  0  1  0  0  0  0  0999 V2000
    6.4071  -17.1571   23.9370 N   0  0  0  0  0  0  0  0  0  0  0  0
    7.5627  -16.6353   23.2936 C   0  0  1  0  0  0  0  0  0  0  0  0
    7.8502  -15.1880   23.5897 C   0  0  0  0  0  0  0  0  0  0  0  0
    6.9507  -14.5835   24.5876 C   0  0  0  0  0  0  0  0  0  0  0  0
    6.0134  -15.2788   25.3348 C   0  0  0  0  0  0  0  0  0  0  0  0
    5.3740  -14.4505   26.1628 N   0  0  0  0  0  0  0  0  0  0  0  0
    5.8831  -13.2180   25.9655 C   0  0  0  0  0  0  0  0  0  0  0  0
    5.5735  -12.0088   26.5566 C   0  0  0  0  0  0  0  0  0  0  0  0
    6.2530  -10.8637   26.1629 C   0  0  0  0  0  0  0  0  0  0  0  0
    7.2156  -10.9310   25.2030 C   0  0  0  0  0  0  0  0  0  0  0  0
    7.5311  -12.1242   24.6101 C   0  0  0  0  0  0  0  0  0  0  0  0
    6.8708  -13.2701   24.9857 C   0  0  0  0  0  0  0  0  0  0  0  0
    8.7713  -17.4831   23.5703 C   0  0  0  0  0  0  0  0  0  0  0  0
    8.8294  -18.2667   24.5348 O   0  0  0  0  0  0  0  0  0  0  0  0
   12.2246  -16.3879   21.5974 O   0  0  0  0  0  0  0  0  0  0  0  0
   12.1560  -17.7842   21.8116 C   0  0  0  0  0  0  0  0  0  0  0  0
   11.1567  -18.0032   22.8996 C   0  0  2  0  0  0  0  0  0  0  0  0
    9.8884  -17.3768   22.6870 N   0  0  0  0  0  0  0  0  0  0  0  0
   11.7505  -17.5022   24.1761 C   0  0  0  0  0  0  0  0  0  0  0  0
   12.1906  -16.3193   24.2099 O   0  0  0  0  0  0  0  0  0  0  0  0
   11.2137  -13.3108   27.4344 C   0  0  0  0  0  0  0  0  0  0  0  0
   11.2885  -14.4694   28.8369 S   0  0  0  0  0  0  0  0  0  0  0  0
   12.0723  -16.0190   28.3699 C   0  0  0  0  0  0  0  0  0  0  0  0
   11.7248  -16.4842   27.0051 C   0  0  0  0  0  0  0  0  0  0  0  0
   12.4460  -17.7320   26.5478 C   0  0  2  0  0  0  0  0  0  0  0  0
   11.8475  -18.2708   25.3395 N   0  0  0  0  0  0  0  0  0  0  0  0
   12.4714  -18.8103   27.5520 C   0  0  0  0  0  0  0  0  0  0  0  0
   11.8346  -19.8709   27.3595 O   0  0  0  0  0  0  0  0  0  0  0  0
   13.1923  -18.6785   28.7204 O   0  0  0  0  0  0  0  0  0  0  0  0
  2  1  1  1
  2 13  1  0
  2  3  1  0
  3  4  1  0
  4  5  2  0
  4 12  1  0
  5  6  1  0
  6  7  1  0
  7  8  2  0
  8  9  1  0
 10  9  2  0
 11 10  1  0
 12 11  2  0
 12  7  1  0
 13 18  1  0
 14 13  2  0
 17 16  1  6
 16 15  1  0
 17 19  1  0
 18 17  1  0
 19 26  1  0
 19 20  2  0
 21 22  1  0
 23 24  1  0
 23 22  1  0
 25 24  1  1
 25 27  1  0
 26 25  1  0
 27 29  1  0
 28 27  2  0
M  END
$$$$
