WSM.pdb
     RDKit          3D

 29 30  0  0  1  0  0  0  0  0999 V2000
    6.4020  -18.2600   24.3972 N   0  0  0  0  0  0  0  0  0  0  0  0
    7.3546  -17.2475   24.0986 C   0  0  1  0  0  0  0  0  0  0  0  0
    7.8696  -16.4933   25.2947 C   0  0  0  0  0  0  0  0  0  0  0  0
    7.1348  -15.2511   25.5900 C   0  0  0  0  0  0  0  0  0  0  0  0
    5.8488  -15.1931   26.1029 C   0  0  0  0  0  0  0  0  0  0  0  0
    5.4762  -13.9237   26.2773 N   0  0  0  0  0  0  0  0  0  0  0  0
    6.5060  -13.1483   25.8831 C   0  0  0  0  0  0  0  0  0  0  0  0
    6.6404  -11.7741   25.8524 C   0  0  0  0  0  0  0  0  0  0  0  0
    7.8229  -11.2149   25.3868 C   0  0  0  0  0  0  0  0  0  0  0  0
    8.8413  -12.0130   24.9640 C   0  0  0  0  0  0  0  0  0  0  0  0
    8.7196  -13.3765   24.9900 C   0  0  0  0  0  0  0  0  0  0  0  0
    7.5572  -13.9506   25.4479 C   0  0  0  0  0  0  0  0  0  0  0  0
    8.4936  -17.7926   23.2850 C   0  0  0  0  0  0  0  0  0  0  0  0
    8.8712  -18.9746   23.3746 O   0  0  0  0  0  0  0  0  0  0  0  0
   10.5776  -14.9820   20.9882 O   0  0  0  0  0  0  0  0  0  0  0  0
   10.7475  -16.3276   20.5873 C   0  0  0  0  0  0  0  0  0  0  0  0
   10.4305  -17.1733   21.7765 C   0  0  2  0  0  0  0  0  0  0  0  0
    9.1598  -16.9120   22.3794 N   0  0  0  0  0  0  0  0  0  0  0  0
   11.5116  -16.9680   22.7874 C   0  0  0  0  0  0  0  0  0  0  0  0
   12.7063  -17.1849   22.4412 O   0  0  0  0  0  0  0  0  0  0  0  0
    8.4357  -14.0394   28.2045 C   0  0  0  0  0  0  0  0  0  0  0  0
   10.1658  -13.8955   27.6560 S   0  0  0  0  0  0  0  0  0  0  0  0
   10.5950  -15.1903   26.4841 C   0  0  0  0  0  0  0  0  0  0  0  0
   11.9609  -15.0655   25.9199 C   0  0  0  0  0  0  0  0  0  0  0  0
   12.3709  -16.1739   24.9766 C   0  0  2  0  0  0  0  0  0  0  0  0
   11.2758  -16.5482   24.0995 N   0  0  0  0  0  0  0  0  0  0  0  0
   12.8359  -17.3962   25.6559 C   0  0  0  0  0  0  0  0  0  0  0  0
   13.8885  -17.3834   26.3337 O   0  0  0  0  0  0  0  0  0  0  0  0
   12.1278  -18.5760   25.5625 O   0  0  0  0  0  0  0  0  0  0  0  0
  2  1  1  1
  2 13  1  0
  2  3  1  0
  3  4  1  0
  4  5  2  0
  4 12  1  0
  5  6  1  0
  6  7  1  0
  7  8  2  0
  8  9  1  0
 10  9  2  0
 11 10  1  0
 12 11  2  0
 12  7  1  0
 13 18  1  0
 14 13  2  0
 17 16  1  6
 16 15  1  0
 17 19  1  0
 18 17  1  0
 19 26  1  0
 19 20  2  0
 21 22  1  0
 23 24  1  0
 23 22  1  0
 25 24  1  1
 25 27  1  0
 26 25  1  0
 27 29  1  0
 28 27  2  0
M  END
$$$$
