WSM.pdb
     RDKit          3D

 29 30  0  0  1  0  0  0  0  0999 V2000
    6.4600  -17.7682   24.5868 N   0  0  0  0  0  0  0  0  0  0  0  0
    7.4476  -16.9533   23.9685 C   0  0  1  0  0  0  0  0  0  0  0  0
    8.0456  -15.8997   24.8614 C   0  0  0  0  0  0  0  0  0  0  0  0
    7.0796  -14.9010   25.3511 C   0  0  0  0  0  0  0  0  0  0  0  0
    5.8320  -15.1957   25.8772 C   0  0  0  0  0  0  0  0  0  0  0  0
    5.2093  -14.0756   26.2486 N   0  0  0  0  0  0  0  0  0  0  0  0
    6.0370  -13.0485   25.9707 C   0  0  0  0  0  0  0  0  0  0  0  0
    5.8793  -11.6885   26.1516 C   0  0  0  0  0  0  0  0  0  0  0  0
    6.8985  -10.8269   25.7685 C   0  0  0  0  0  0  0  0  0  0  0  0
    8.0433  -11.3173   25.2192 C   0  0  0  0  0  0  0  0  0  0  0  0
    8.2109  -12.6636   25.0351 C   0  0  0  0  0  0  0  0  0  0  0  0
    7.2142  -13.5341   25.4082 C   0  0  0  0  0  0  0  0  0  0  0  0
    8.5256  -17.7868   23.3366 C   0  0  0  0  0  0  0  0  0  0  0  0
    8.9180  -18.8577   23.8336 O   0  0  0  0  0  0  0  0  0  0  0  0
    9.8259  -16.1782   19.9443 O   0  0  0  0  0  0  0  0  0  0  0  0
   10.8609  -17.0230   20.4083 C   0  0  0  0  0  0  0  0  0  0  0  0
   10.5076  -17.4061   21.8078 C   0  0  2  0  0  0  0  0  0  0  0  0
    9.1144  -17.3224   22.1213 N   0  0  0  0  0  0  0  0  0  0  0  0
   11.2793  -16.5234   22.7342 C   0  0  0  0  0  0  0  0  0  0  0  0
   11.1251  -15.2738   22.6404 O   0  0  0  0  0  0  0  0  0  0  0  0
   11.0792  -13.5936   28.3690 C   0  0  0  0  0  0  0  0  0  0  0  0
   10.4413  -15.1454   27.6620 S   0  0  0  0  0  0  0  0  0  0  0  0
   11.0337  -15.3964   25.9827 C   0  0  0  0  0  0  0  0  0  0  0  0
   12.4019  -15.9636   25.9036 C   0  0  0  0  0  0  0  0  0  0  0  0
   12.9640  -16.0946   24.5061 C   0  0  2  0  0  0  0  0  0  0  0  0
   12.1657  -17.0032   23.7025 N   0  0  0  0  0  0  0  0  0  0  0  0
   14.3584  -16.5698   24.4642 C   0  0  0  0  0  0  0  0  0  0  0  0
   14.6258  -17.7126   24.0284 O   0  0  0  0  0  0  0  0  0  0  0  0
   15.3957  -15.7728   24.9010 O   0  0  0  0  0  0  0  0  0  0  0  0
  2  1  1  1
  2 13  1  0
  2  3  1  0
  3  4  1  0
  4  5  2  0
  4 12  1  0
  5  6  1  0
  6  7  1  0
  7  8  2  0
  8  9  1  0
 10  9  2  0
 11 10  1  0
 12 11  2  0
 12  7  1  0
 13 18  1  0
 14 13  2  0
 17 16  1  6
 16 15  1  0
 17 19  1  0
 18 17  1  0
 19 26  1  0
 19 20  2  0
 21 22  1  0
 23 24  1  0
 23 22  1  0
 25 24  1  1
 25 27  1  0
 26 25  1  0
 27 29  1  0
 28 27  2  0
M  END
$$$$
