WSM.pdb
     RDKit          3D

 29 30  0  0  1  0  0  0  0  0999 V2000
    6.4513  -17.6831   24.3737 N   0  0  0  0  0  0  0  0  0  0  0  0
    7.4254  -16.7680   23.8885 C   0  0  1  0  0  0  0  0  0  0  0  0
    8.0682  -15.9115   24.9458 C   0  0  0  0  0  0  0  0  0  0  0  0
    7.1669  -14.9138   25.5480 C   0  0  0  0  0  0  0  0  0  0  0  0
    6.0368  -15.2127   26.2921 C   0  0  0  0  0  0  0  0  0  0  0  0
    5.4495  -14.0912   26.7138 N   0  0  0  0  0  0  0  0  0  0  0  0
    6.1840  -13.0591   26.2528 C   0  0  0  0  0  0  0  0  0  0  0  0
    6.0146  -11.6960   26.3967 C   0  0  0  0  0  0  0  0  0  0  0  0
    6.9253  -10.8297   25.8068 C   0  0  0  0  0  0  0  0  0  0  0  0
    7.9759  -11.3183   25.0927 C   0  0  0  0  0  0  0  0  0  0  0  0
    8.1542  -12.6676   24.9433 C   0  0  0  0  0  0  0  0  0  0  0  0
    7.2642  -13.5428   25.5198 C   0  0  0  0  0  0  0  0  0  0  0  0
    8.4695  -17.4675   23.0659 C   0  0  0  0  0  0  0  0  0  0  0  0
    8.9324  -18.5785   23.3807 O   0  0  0  0  0  0  0  0  0  0  0  0
    9.3601  -15.4262   19.8327 O   0  0  0  0  0  0  0  0  0  0  0  0
   10.5285  -16.1723   20.1128 C   0  0  0  0  0  0  0  0  0  0  0  0
   10.2901  -16.8730   21.4098 C   0  0  2  0  0  0  0  0  0  0  0  0
    8.9405  -16.8234   21.8815 N   0  0  0  0  0  0  0  0  0  0  0  0
   11.1963  -16.2676   22.4321 C   0  0  0  0  0  0  0  0  0  0  0  0
   11.0712  -15.0386   22.6928 O   0  0  0  0  0  0  0  0  0  0  0  0
   10.3446  -13.6008   27.7501 C   0  0  0  0  0  0  0  0  0  0  0  0
   11.9065  -14.2891   27.1167 S   0  0  0  0  0  0  0  0  0  0  0  0
   11.7581  -16.0472   26.7684 C   0  0  0  0  0  0  0  0  0  0  0  0
   11.4208  -16.3568   25.3577 C   0  0  0  0  0  0  0  0  0  0  0  0
   12.6067  -16.5904   24.4492 C   0  0  2  0  0  0  0  0  0  0  0  0
   12.1787  -16.9863   23.1192 N   0  0  0  0  0  0  0  0  0  0  0  0
   13.5435  -17.6167   24.9401 C   0  0  0  0  0  0  0  0  0  0  0  0
   14.3154  -17.3664   25.8934 O   0  0  0  0  0  0  0  0  0  0  0  0
   13.5923  -18.8695   24.3653 O   0  0  0  0  0  0  0  0  0  0  0  0
  2  1  1  1
  2 13  1  0
  2  3  1  0
  3  4  1  0
  4  5  2  0
  4 12  1  0
  5  6  1  0
  6  7  1  0
  7  8  2  0
  8  9  1  0
 10  9  2  0
 11 10  1  0
 12 11  2  0
 12  7  1  0
 13 18  1  0
 14 13  2  0
 17 16  1  6
 16 15  1  0
 17 19  1  0
 18 17  1  0
 19 26  1  0
 19 20  2  0
 21 22  1  0
 23 24  1  0
 23 22  1  0
 25 24  1  1
 25 27  1  0
 26 25  1  0
 27 29  1  0
 28 27  2  0
M  END
$$$$
