WSM.pdb
     RDKit          3D

 29 30  0  0  1  0  0  0  0  0999 V2000
    6.3433  -17.1221   24.5725 N   0  0  0  0  0  0  0  0  0  0  0  0
    7.6373  -16.5918   24.3157 C   0  0  1  0  0  0  0  0  0  0  0  0
    7.8726  -15.2097   24.8628 C   0  0  0  0  0  0  0  0  0  0  0  0
    7.1780  -14.1399   24.1255 C   0  0  0  0  0  0  0  0  0  0  0  0
    6.1163  -13.3978   24.6177 C   0  0  0  0  0  0  0  0  0  0  0  0
    5.7250  -12.4948   23.7168 N   0  0  0  0  0  0  0  0  0  0  0  0
    6.5201  -12.6378   22.6376 C   0  0  0  0  0  0  0  0  0  0  0  0
    6.5370  -11.9617   21.4335 C   0  0  0  0  0  0  0  0  0  0  0  0
    7.4702  -12.3130   20.4673 C   0  0  0  0  0  0  0  0  0  0  0  0
    8.3609  -13.3148   20.7036 C   0  0  0  0  0  0  0  0  0  0  0  0
    8.3537  -13.9920   21.8936 C   0  0  0  0  0  0  0  0  0  0  0  0
    7.4383  -13.6595   22.8641 C   0  0  0  0  0  0  0  0  0  0  0  0
    8.7140  -17.5336   24.7738 C   0  0  0  0  0  0  0  0  0  0  0  0
    8.6236  -18.1874   25.8284 O   0  0  0  0  0  0  0  0  0  0  0  0
   11.9798  -17.3740   22.4531 O   0  0  0  0  0  0  0  0  0  0  0  0
   12.0923  -18.5178   23.2773 C   0  0  0  0  0  0  0  0  0  0  0  0
   11.0636  -18.3767   24.3505 C   0  0  2  0  0  0  0  0  0  0  0  0
    9.8796  -17.6749   23.9608 N   0  0  0  0  0  0  0  0  0  0  0  0
   11.6993  -17.6750   25.5065 C   0  0  0  0  0  0  0  0  0  0  0  0
   12.4174  -16.6630   25.2734 O   0  0  0  0  0  0  0  0  0  0  0  0
   10.0260  -13.0227   26.9114 C   0  0  0  0  0  0  0  0  0  0  0  0
   10.2265  -13.8660   28.5125 S   0  0  0  0  0  0  0  0  0  0  0  0
   10.5426  -15.6231   28.2964 C   0  0  0  0  0  0  0  0  0  0  0  0
   11.9525  -15.9472   27.9691 C   0  0  0  0  0  0  0  0  0  0  0  0
   12.2756  -17.4230   27.9078 C   0  0  2  0  0  0  0  0  0  0  0  0
   11.5445  -18.0760   26.8365 N   0  0  0  0  0  0  0  0  0  0  0  0
   11.9842  -18.1515   29.1552 C   0  0  0  0  0  0  0  0  0  0  0  0
   11.0507  -18.9846   29.1996 O   0  0  0  0  0  0  0  0  0  0  0  0
   12.7277  -17.9351   30.2965 O   0  0  0  0  0  0  0  0  0  0  0  0
  2  1  1  1
  2 13  1  0
  2  3  1  0
  3  4  1  0
  4  5  2  0
  4 12  1  0
  5  6  1  0
  6  7  1  0
  7  8  2  0
  8  9  1  0
 10  9  2  0
 11 10  1  0
 12 11  2  0
 12  7  1  0
 13 18  1  0
 14 13  2  0
 17 16  1  6
 16 15  1  0
 17 19  1  0
 18 17  1  0
 19 26  1  0
 19 20  2  0
 21 22  1  0
 23 24  1  0
 23 22  1  0
 25 24  1  1
 25 27  1  0
 26 25  1  0
 27 29  1  0
 28 27  2  0
M  END
$$$$
