WSM.pdb
     RDKit          3D

 29 30  0  0  1  0  0  0  0  0999 V2000
    6.2479  -17.7626   24.5363 N   0  0  0  0  0  0  0  0  0  0  0  0
    7.2848  -16.8568   24.1811 C   0  0  1  0  0  0  0  0  0  0  0  0
    7.8177  -16.0299   25.3200 C   0  0  0  0  0  0  0  0  0  0  0  0
    6.9193  -14.9459   25.7538 C   0  0  0  0  0  0  0  0  0  0  0  0
    5.7432  -15.1268   26.4639 C   0  0  0  0  0  0  0  0  0  0  0  0
    5.1718  -13.9489   26.7219 N   0  0  0  0  0  0  0  0  0  0  0  0
    5.9622  -12.9968   26.1871 C   0  0  0  0  0  0  0  0  0  0  0  0
    5.8299  -11.6223   26.1650 C   0  0  0  0  0  0  0  0  0  0  0  0
    6.7975  -10.8543   25.5310 C   0  0  0  0  0  0  0  0  0  0  0  0
    7.8671  -11.4498   24.9361 C   0  0  0  0  0  0  0  0  0  0  0  0
    8.0089  -12.8116   24.9519 C   0  0  0  0  0  0  0  0  0  0  0  0
    7.0625  -13.5904   25.5747 C   0  0  0  0  0  0  0  0  0  0  0  0
    8.4039  -17.5606   23.4680 C   0  0  0  0  0  0  0  0  0  0  0  0
    8.8529  -18.6563   23.8496 O   0  0  0  0  0  0  0  0  0  0  0  0
    9.9218  -15.3728   20.3556 O   0  0  0  0  0  0  0  0  0  0  0  0
   10.6013  -16.6049   20.4987 C   0  0  0  0  0  0  0  0  0  0  0  0
   10.3214  -17.0916   21.8824 C   0  0  2  0  0  0  0  0  0  0  0  0
    8.9652  -16.9391   22.3112 N   0  0  0  0  0  0  0  0  0  0  0  0
   11.2242  -16.3566   22.8192 C   0  0  0  0  0  0  0  0  0  0  0  0
   10.9075  -15.1834   23.1616 O   0  0  0  0  0  0  0  0  0  0  0  0
   10.3982  -13.1542   28.0595 C   0  0  0  0  0  0  0  0  0  0  0  0
   11.0914  -14.7975   27.6940 S   0  0  0  0  0  0  0  0  0  0  0  0
   11.9347  -14.8181   26.1058 C   0  0  0  0  0  0  0  0  0  0  0  0
   12.3776  -16.1664   25.6747 C   0  0  0  0  0  0  0  0  0  0  0  0
   13.1514  -16.2046   24.3763 C   0  0  2  0  0  0  0  0  0  0  0  0
   12.4040  -16.8951   23.3404 N   0  0  0  0  0  0  0  0  0  0  0  0
   14.4694  -16.8551   24.4842 C   0  0  0  0  0  0  0  0  0  0  0  0
   14.5659  -18.1026   24.4434 O   0  0  0  0  0  0  0  0  0  0  0  0
   15.6210  -16.1105   24.6315 O   0  0  0  0  0  0  0  0  0  0  0  0
  2  1  1  1
  2 13  1  0
  2  3  1  0
  3  4  1  0
  4  5  2  0
  4 12  1  0
  5  6  1  0
  6  7  1  0
  7  8  2  0
  8  9  1  0
 10  9  2  0
 11 10  1  0
 12 11  2  0
 12  7  1  0
 13 18  1  0
 14 13  2  0
 17 16  1  6
 16 15  1  0
 17 19  1  0
 18 17  1  0
 19 26  1  0
 19 20  2  0
 21 22  1  0
 23 24  1  0
 23 22  1  0
 25 24  1  1
 25 27  1  0
 26 25  1  0
 27 29  1  0
 28 27  2  0
M  END
$$$$
