SRT.pdb
     RDKit          3D

 25 24  0  0  1  0  0  0  0  0999 V2000
   12.9311  -18.2235   19.5223 O   0  0  0  0  0  0  0  0  0  0  0  0
   11.6864  -17.8806   19.0239 C   0  0  0  0  0  0  0  0  0  0  0  0
   11.5084  -16.3591   18.9787 C   0  0  2  0  0  0  0  0  0  0  0  0
   12.8142  -15.7790   18.7531 N   0  0  0  0  0  0  0  0  0  0  0  0
   10.9727  -15.9725   20.3100 C   0  0  0  0  0  0  0  0  0  0  0  0
   11.7749  -15.5363   21.1710 O   0  0  0  0  0  0  0  0  0  0  0  0
    7.5209  -14.1951   16.9107 N   0  0  0  0  0  0  0  0  0  0  0  0
    7.8848  -13.0615   17.6559 C   0  0  0  0  0  0  0  0  0  0  0  0
    8.1972  -11.9841   17.0181 N   0  0  0  0  0  0  0  0  0  0  0  0
    7.9096  -13.0952   19.0711 N   0  0  0  0  0  0  0  0  0  0  0  0
    7.3953  -14.2283   19.7924 C   0  0  0  0  0  0  0  0  0  0  0  0
    7.4749  -14.0380   21.2922 C   0  0  0  0  0  0  0  0  0  0  0  0
    7.6798  -15.3686   21.9209 C   0  0  0  0  0  0  0  0  0  0  0  0
    9.1021  -15.8227   21.9928 C   0  0  2  0  0  0  0  0  0  0  0  0
    9.5952  -16.0740   20.6527 N   0  0  0  0  0  0  0  0  0  0  0  0
    9.3035  -16.9851   22.8849 C   0  0  0  0  0  0  0  0  0  0  0  0
    8.9117  -18.1498   22.6012 O   0  0  0  0  0  0  0  0  0  0  0  0
    8.6120  -11.1858   17.5364 C   0  0  0  0  0  0  0  0  0  0  0  0
   12.4542  -17.7001   25.3499 C   0  0  2  0  0  0  0  0  0  0  0  0
   11.1534  -17.6043   26.1275 O   0  0  0  0  0  0  0  0  0  0  0  0
   11.0549  -16.3825   26.7876 C   0  0  2  0  0  0  0  0  0  0  0  0
    9.9981  -17.8050   25.1637 N   0  0  0  0  0  0  0  0  0  0  0  0
    9.9692  -16.8003   24.1274 C   0  0  0  0  0  0  0  0  0  0  0  0
    8.7108  -17.9573   25.8610 O   0  0  0  0  0  0  0  0  0  0  0  0
    7.7189  -17.2122   25.7276 O   0  0  0  0  0  0  0  0  0  0  0  0
  1  2  1  0
  3  2  1  0
  3  4  1  1
  5  3  1  0
  5  6  2  0
  7  8  1  0
  8  9  2  0
  8 10  1  0
 10 11  1  0
 11 12  1  0
 12 13  1  0
 14 13  1  6
 14 15  1  0
 15  5  1  0
 16 17  2  0
 16 14  1  0
 19 18  1  1
 19 21  1  0
 20 19  1  0
 21 22  1  1
 21 23  1  0
 22 16  1  0
 23 24  2  0
 23 25  1  0
M  END
$$$$
