SRT.pdb
     RDKit          3D

 25 24  0  0  1  0  0  0  0  0999 V2000
    7.5153  -12.3733   19.1818 O   0  0  0  0  0  0  0  0  0  0  0  0
    8.6747  -12.5344   18.4436 C   0  0  0  0  0  0  0  0  0  0  0  0
    8.7844  -13.9591   17.8895 C   0  0  2  0  0  0  0  0  0  0  0  0
    7.5948  -14.2092   17.1053 N   0  0  0  0  0  0  0  0  0  0  0  0
    8.8428  -14.8533   19.0751 C   0  0  0  0  0  0  0  0  0  0  0  0
    7.7662  -15.3114   19.5292 O   0  0  0  0  0  0  0  0  0  0  0  0
   15.2513  -20.2270   21.6787 N   0  0  0  0  0  0  0  0  0  0  0  0
   14.1953  -20.5310   22.5535 C   0  0  0  0  0  0  0  0  0  0  0  0
   14.3231  -21.5485   23.3369 N   0  0  0  0  0  0  0  0  0  0  0  0
   13.0186  -19.7441   22.5787 N   0  0  0  0  0  0  0  0  0  0  0  0
   12.8297  -18.6670   21.6445 C   0  0  0  0  0  0  0  0  0  0  0  0
   11.5011  -17.9672   21.8366 C   0  0  0  0  0  0  0  0  0  0  0  0
   11.3493  -16.9518   20.7625 C   0  0  0  0  0  0  0  0  0  0  0  0
   10.1101  -16.1202   20.8478 C   0  0  2  0  0  0  0  0  0  0  0  0
   10.0605  -15.2133   19.7177 N   0  0  0  0  0  0  0  0  0  0  0  0
    9.9673  -15.4087   22.1366 C   0  0  0  0  0  0  0  0  0  0  0  0
   10.6987  -14.4385   22.4748 O   0  0  0  0  0  0  0  0  0  0  0  0
   13.5529  -21.7901   23.9898 C   0  0  0  0  0  0  0  0  0  0  0  0
    7.2914  -13.7741   25.7065 C   0  0  2  0  0  0  0  0  0  0  0  0
    7.3287  -14.7550   24.5480 O   0  0  0  0  0  0  0  0  0  0  0  0
    6.8057  -14.1824   23.3917 C   0  0  1  0  0  0  0  0  0  0  0  0
    8.7638  -15.2038   24.3405 N   0  0  0  0  0  0  0  0  0  0  0  0
    8.9622  -15.8243   23.0522 C   0  0  0  0  0  0  0  0  0  0  0  0
    9.2599  -16.0197   25.4607 O   0  0  0  0  0  0  0  0  0  0  0  0
    9.6644  -17.1973   25.3794 O   0  0  0  0  0  0  0  0  0  0  0  0
  1  2  1  0
  3  2  1  0
  3  4  1  6
  5  3  1  0
  5  6  2  0
  7  8  1  0
  8  9  2  0
  8 10  1  0
 10 11  1  0
 11 12  1  0
 12 13  1  0
 14 13  1  1
 14 15  1  0
 15  5  1  0
 16 17  2  0
 16 14  1  0
 19 18  1  1
 19 21  1  0
 20 19  1  0
 21 22  1  1
 21 23  1  0
 22 16  1  0
 23 24  2  0
 23 25  1  0
M  END
$$$$
