SRT.pdb
     RDKit          3D

 25 24  0  0  1  0  0  0  0  0999 V2000
    9.7375  -20.8488   18.4942 O   0  0  0  0  0  0  0  0  0  0  0  0
    8.7529  -20.2166   17.7553 C   0  0  0  0  0  0  0  0  0  0  0  0
    9.1744  -18.7929   17.3755 C   0  0  2  0  0  0  0  0  0  0  0  0
   10.0812  -18.8967   16.2533 N   0  0  0  0  0  0  0  0  0  0  0  0
    9.8623  -18.2397   18.5712 C   0  0  0  0  0  0  0  0  0  0  0  0
   11.1031  -18.3996   18.6716 O   0  0  0  0  0  0  0  0  0  0  0  0
    7.4778  -12.9108   18.7659 N   0  0  0  0  0  0  0  0  0  0  0  0
    8.3067  -12.5397   19.8374 C   0  0  0  0  0  0  0  0  0  0  0  0
    9.1231  -11.5550   19.6671 N   0  0  0  0  0  0  0  0  0  0  0  0
    8.2515  -13.2256   21.0747 N   0  0  0  0  0  0  0  0  0  0  0  0
    7.2473  -14.2253   21.3212 C   0  0  0  0  0  0  0  0  0  0  0  0
    7.7384  -15.6220   21.0051 C   0  0  0  0  0  0  0  0  0  0  0  0
    9.2238  -15.6139   21.0431 C   0  0  0  0  0  0  0  0  0  0  0  0
    9.8727  -16.9210   20.7193 C   0  0  2  0  0  0  0  0  0  0  0  0
    9.1805  -17.5389   19.6052 N   0  0  0  0  0  0  0  0  0  0  0  0
    9.9753  -17.8300   21.8815 C   0  0  0  0  0  0  0  0  0  0  0  0
    9.0683  -18.6451   22.2032 O   0  0  0  0  0  0  0  0  0  0  0  0
    9.7904  -11.3082   20.4232 C   0  0  0  0  0  0  0  0  0  0  0  0
   12.4030  -20.4305   22.3674 C   0  0  2  0  0  0  0  0  0  0  0  0
   12.6085  -19.5566   23.5921 O   0  0  0  0  0  0  0  0  0  0  0  0
   13.7489  -18.7693   23.4582 C   0  0  2  0  0  0  0  0  0  0  0  0
   11.3692  -18.7028   23.7901 N   0  0  0  0  0  0  0  0  0  0  0  0
   11.1461  -17.7982   22.6874 C   0  0  0  0  0  0  0  0  0  0  0  0
   11.3570  -18.0342   25.1014 O   0  0  0  0  0  0  0  0  0  0  0  0
   11.2722  -16.8036   25.2895 O   0  0  0  0  0  0  0  0  0  0  0  0
  1  2  1  0
  3  2  1  0
  3  4  1  6
  5  3  1  0
  5  6  2  0
  7  8  1  0
  8  9  2  0
  8 10  1  0
 10 11  1  0
 11 12  1  0
 12 13  1  0
 14 13  1  1
 14 15  1  0
 15  5  1  0
 16 17  2  0
 16 14  1  0
 19 18  1  1
 19 21  1  0
 20 19  1  0
 21 22  1  1
 21 23  1  0
 22 16  1  0
 23 24  2  0
 23 25  1  0
M  END
$$$$
