SRT.pdb
     RDKit          3D

 25 24  0  0  1  0  0  0  0  0999 V2000
   11.1819  -12.9007   19.8715 O   0  0  0  0  0  0  0  0  0  0  0  0
   10.3668  -13.9173   19.4053 C   0  0  0  0  0  0  0  0  0  0  0  0
    8.8940  -13.4933   19.4132 C   0  0  2  0  0  0  0  0  0  0  0  0
    8.8611  -12.0488   19.3430 N   0  0  0  0  0  0  0  0  0  0  0  0
    8.3375  -13.9803   20.7024 C   0  0  0  0  0  0  0  0  0  0  0  0
    7.7750  -13.1520   21.4590 O   0  0  0  0  0  0  0  0  0  0  0  0
    7.1348  -20.3881   19.7052 N   0  0  0  0  0  0  0  0  0  0  0  0
    5.9154  -19.8153   19.3081 C   0  0  0  0  0  0  0  0  0  0  0  0
    5.4603  -20.0970   18.1339 N   0  0  0  0  0  0  0  0  0  0  0  0
    5.2000  -18.9501   20.1708 N   0  0  0  0  0  0  0  0  0  0  0  0
    5.8219  -18.3956   21.3432 C   0  0  0  0  0  0  0  0  0  0  0  0
    7.2393  -17.9350   21.0774 C   0  0  0  0  0  0  0  0  0  0  0  0
    7.7699  -17.3178   22.3205 C   0  0  0  0  0  0  0  0  0  0  0  0
    7.7822  -15.8231   22.3300 C   0  0  2  0  0  0  0  0  0  0  0  0
    8.4130  -15.3394   21.1174 N   0  0  0  0  0  0  0  0  0  0  0  0
    8.4008  -15.2482   23.5443 C   0  0  0  0  0  0  0  0  0  0  0  0
    9.6363  -15.3154   23.7882 O   0  0  0  0  0  0  0  0  0  0  0  0
    4.5833  -19.6492   17.8051 C   0  0  0  0  0  0  0  0  0  0  0  0
    7.0244  -11.8372   25.4560 C   0  0  2  0  0  0  0  0  0  0  0  0
    7.1260  -13.0501   26.3638 O   0  0  0  0  0  0  0  0  0  0  0  0
    5.8738  -13.6199   26.5781 C   0  0  2  0  0  0  0  0  0  0  0  0
    8.0843  -14.0455   25.7354 N   0  0  0  0  0  0  0  0  0  0  0  0
    7.5787  -14.5833   24.4948 C   0  0  0  0  0  0  0  0  0  0  0  0
    8.5124  -15.0837   26.6869 O   0  0  0  0  0  0  0  0  0  0  0  0
    8.3469  -16.3124   26.5457 O   0  0  0  0  0  0  0  0  0  0  0  0
  1  2  1  0
  3  2  1  0
  3  4  1  1
  5  3  1  0
  5  6  2  0
  7  8  1  0
  8  9  2  0
  8 10  1  0
 10 11  1  0
 11 12  1  0
 12 13  1  0
 14 13  1  1
 14 15  1  0
 15  5  1  0
 16 17  2  0
 16 14  1  0
 19 18  1  1
 19 21  1  0
 20 19  1  0
 21 22  1  1
 21 23  1  0
 22 16  1  0
 23 24  2  0
 23 25  1  0
M  END
$$$$
