SRT.pdb
     RDKit          3D

 25 24  0  0  1  0  0  0  0  0999 V2000
   14.4610  -17.2932   17.6016 O   0  0  0  0  0  0  0  0  0  0  0  0
   13.9431  -16.4265   16.6551 C   0  0  0  0  0  0  0  0  0  0  0  0
   14.2716  -14.9698   17.0001 C   0  0  2  0  0  0  0  0  0  0  0  0
   15.7035  -14.8090   16.8721 N   0  0  0  0  0  0  0  0  0  0  0  0
   13.8340  -14.7765   18.4072 C   0  0  0  0  0  0  0  0  0  0  0  0
   14.6873  -14.9019   19.3189 O   0  0  0  0  0  0  0  0  0  0  0  0
    7.7344  -15.3753   17.9739 N   0  0  0  0  0  0  0  0  0  0  0  0
    7.6707  -14.1177   17.3516 C   0  0  0  0  0  0  0  0  0  0  0  0
    7.5215  -14.0755   16.0706 N   0  0  0  0  0  0  0  0  0  0  0  0
    7.7674  -12.9238   18.1066 N   0  0  0  0  0  0  0  0  0  0  0  0
    8.6929  -12.8152   19.2021 C   0  0  0  0  0  0  0  0  0  0  0  0
    9.8930  -13.7221   19.0315 C   0  0  0  0  0  0  0  0  0  0  0  0
   10.8009  -13.5172   20.1898 C   0  0  0  0  0  0  0  0  0  0  0  0
   12.0711  -14.3039   20.1457 C   0  0  2  0  0  0  0  0  0  0  0  0
   12.4950  -14.4564   18.7676 N   0  0  0  0  0  0  0  0  0  0  0  0
   11.9820  -15.6037   20.8457 C   0  0  0  0  0  0  0  0  0  0  0  0
   11.2362  -16.5455   20.4616 O   0  0  0  0  0  0  0  0  0  0  0  0
    7.4969  -13.1559   15.5893 C   0  0  0  0  0  0  0  0  0  0  0  0
   14.5192  -18.0280   21.3229 C   0  0  2  0  0  0  0  0  0  0  0  0
   14.1144  -17.7388   22.7576 O   0  0  0  0  0  0  0  0  0  0  0  0
   15.0684  -16.9515   23.3967 C   0  0  2  0  0  0  0  0  0  0  0  0
   12.7561  -17.0612   22.7494 N   0  0  0  0  0  0  0  0  0  0  0  0
   12.7677  -15.8211   22.0104 C   0  0  0  0  0  0  0  0  0  0  0  0
   12.1929  -16.9258   24.1025 O   0  0  0  0  0  0  0  0  0  0  0  0
   11.9060  -15.8503   24.6665 O   0  0  0  0  0  0  0  0  0  0  0  0
  1  2  1  0
  3  2  1  0
  3  4  1  1
  5  3  1  0
  5  6  2  0
  7  8  1  0
  8  9  2  0
  8 10  1  0
 10 11  1  0
 11 12  1  0
 12 13  1  0
 14 13  1  6
 14 15  1  0
 15  5  1  0
 16 17  2  0
 16 14  1  0
 19 18  1  1
 19 21  1  0
 20 19  1  0
 21 22  1  1
 21 23  1  0
 22 16  1  0
 23 24  2  0
 23 25  1  0
M  END
$$$$
