SRT.pdb
     RDKit          3D

 25 24  0  0  1  0  0  0  0  0999 V2000
   10.5416  -12.8328   18.9724 O   0  0  0  0  0  0  0  0  0  0  0  0
    9.5104  -12.9355   19.8896 C   0  0  0  0  0  0  0  0  0  0  0  0
    8.6223  -14.1482   19.5902 C   0  0  2  0  0  0  0  0  0  0  0  0
    7.6954  -13.7573   18.5507 N   0  0  0  0  0  0  0  0  0  0  0  0
    7.9089  -14.4528   20.8579 C   0  0  0  0  0  0  0  0  0  0  0  0
    6.8004  -13.9018   21.0648 O   0  0  0  0  0  0  0  0  0  0  0  0
    8.8703  -20.2490   27.7928 N   0  0  0  0  0  0  0  0  0  0  0  0
    7.6771  -20.2901   27.0531 C   0  0  0  0  0  0  0  0  0  0  0  0
    7.0415  -21.4107   26.9783 N   0  0  0  0  0  0  0  0  0  0  0  0
    7.1802  -19.1340   26.4042 N   0  0  0  0  0  0  0  0  0  0  0  0
    7.7971  -18.6378   25.2034 C   0  0  0  0  0  0  0  0  0  0  0  0
    7.0159  -17.4975   24.5860 C   0  0  0  0  0  0  0  0  0  0  0  0
    7.7074  -17.0798   23.3389 C   0  0  0  0  0  0  0  0  0  0  0  0
    7.7334  -15.6057   23.0925 C   0  0  2  0  0  0  0  0  0  0  0  0
    8.4236  -15.3384   21.8458 N   0  0  0  0  0  0  0  0  0  0  0  0
    8.3009  -14.8317   24.2178 C   0  0  0  0  0  0  0  0  0  0  0  0
    9.5291  -14.8289   24.5044 O   0  0  0  0  0  0  0  0  0  0  0  0
    6.1410  -21.4537   26.4635 C   0  0  0  0  0  0  0  0  0  0  0  0
    6.6790  -11.2569   25.6112 C   0  0  2  0  0  0  0  0  0  0  0  0
    6.8591  -12.3194   26.6811 O   0  0  0  0  0  0  0  0  0  0  0  0
    5.6478  -12.9370   26.9806 C   0  0  2  0  0  0  0  0  0  0  0  0
    7.8858  -13.3260   26.1947 N   0  0  0  0  0  0  0  0  0  0  0  0
    7.4355  -14.0464   25.0275 C   0  0  0  0  0  0  0  0  0  0  0  0
    8.3571  -14.2075   27.2753 O   0  0  0  0  0  0  0  0  0  0  0  0
    8.3142  -15.4545   27.2673 O   0  0  0  0  0  0  0  0  0  0  0  0
  1  2  1  0
  3  2  1  0
  3  4  1  6
  5  3  1  0
  5  6  2  0
  7  8  1  0
  8  9  2  0
  8 10  1  0
 10 11  1  0
 11 12  1  0
 12 13  1  0
 14 13  1  1
 14 15  1  0
 15  5  1  0
 16 17  2  0
 16 14  1  0
 19 18  1  1
 19 21  1  0
 20 19  1  0
 21 22  1  1
 21 23  1  0
 22 16  1  0
 23 24  2  0
 23 25  1  0
M  END
$$$$
