SRT.pdb
     RDKit          3D

 25 24  0  0  1  0  0  0  0  0999 V2000
   10.0530  -12.4282   18.9244 O   0  0  0  0  0  0  0  0  0  0  0  0
    9.1422  -12.7472   19.9163 C   0  0  0  0  0  0  0  0  0  0  0  0
    8.4391  -14.0754   19.6157 C   0  0  2  0  0  0  0  0  0  0  0  0
    7.4601  -13.8204   18.5817 N   0  0  0  0  0  0  0  0  0  0  0  0
    7.7838  -14.4852   20.8851 C   0  0  0  0  0  0  0  0  0  0  0  0
    6.6267  -14.0609   21.1221 O   0  0  0  0  0  0  0  0  0  0  0  0
    9.3011  -19.9940   26.9906 N   0  0  0  0  0  0  0  0  0  0  0  0
    7.9013  -20.0545   27.0899 C   0  0  0  0  0  0  0  0  0  0  0  0
    7.3847  -20.5505   28.1633 N   0  0  0  0  0  0  0  0  0  0  0  0
    7.0741  -19.5845   26.0414 N   0  0  0  0  0  0  0  0  0  0  0  0
    7.6437  -19.0446   24.8361 C   0  0  0  0  0  0  0  0  0  0  0  0
    7.4431  -17.5480   24.7270 C   0  0  0  0  0  0  0  0  0  0  0  0
    7.9784  -17.1001   23.4153 C   0  0  0  0  0  0  0  0  0  0  0  0
    7.8024  -15.6448   23.1231 C   0  0  2  0  0  0  0  0  0  0  0  0
    8.4066  -15.3347   21.8421 N   0  0  0  0  0  0  0  0  0  0  0  0
    8.3038  -14.7642   24.2005 C   0  0  0  0  0  0  0  0  0  0  0  0
    9.5245  -14.4869   24.3541 O   0  0  0  0  0  0  0  0  0  0  0  0
    6.3520  -20.6085   28.2534 C   0  0  0  0  0  0  0  0  0  0  0  0
    6.0906  -11.5352   25.4290 C   0  0  2  0  0  0  0  0  0  0  0  0
    6.5754  -12.3911   26.5858 O   0  0  0  0  0  0  0  0  0  0  0  0
    5.5525  -13.2018   27.0703 C   0  0  2  0  0  0  0  0  0  0  0  0
    7.7573  -13.2180   26.1132 N   0  0  0  0  0  0  0  0  0  0  0  0
    7.3798  -14.1930   25.1177 C   0  0  0  0  0  0  0  0  0  0  0  0
    8.5164  -13.7962   27.2339 O   0  0  0  0  0  0  0  0  0  0  0  0
    8.9856  -13.1601   28.1994 O   0  0  0  0  0  0  0  0  0  0  0  0
  1  2  1  0
  3  2  1  0
  3  4  1  6
  5  3  1  0
  5  6  2  0
  7  8  1  0
  8  9  2  0
  8 10  1  0
 10 11  1  0
 11 12  1  0
 12 13  1  0
 14 13  1  1
 14 15  1  0
 15  5  1  0
 16 17  2  0
 16 14  1  0
 19 18  1  1
 19 21  1  0
 20 19  1  0
 21 22  1  1
 21 23  1  0
 22 16  1  0
 23 24  2  0
 23 25  1  0
M  END
$$$$
