QGS.pdb
     RDKit          3D

 20 19  0  0  1  0  0  0  0  0999 V2000
   24.9264  -19.7179   -9.0817 N   0  0  0  0  0  0  0  0  0  0  0  0
   25.3564  -21.0691   -8.9267 C   0  0  0  0  0  0  0  0  0  0  0  0
   25.0248  -21.6528   -7.8791 O   0  0  0  0  0  0  0  0  0  0  0  0
   26.1475  -21.6938   -9.9724 C   0  0  0  0  0  0  0  0  0  0  0  0
   26.3300  -20.9672  -11.2457 C   0  0  0  0  0  0  0  0  0  0  0  0
   25.1654  -20.8595  -12.1613 C   0  0  2  0  0  0  0  0  0  0  0  0
   24.5242  -22.0857  -12.5276 N   0  0  0  0  0  0  0  0  0  0  0  0
   25.6394  -20.1850  -13.4002 C   0  0  0  0  0  0  0  0  0  0  0  0
   26.2320  -19.0748  -13.2259 O   0  0  0  0  0  0  0  0  0  0  0  0
   25.4907  -20.6583  -14.7074 N   0  0  0  0  0  0  0  0  0  0  0  0
   26.0729  -19.9596  -15.8486 C   0  0  0  0  0  0  0  0  0  0  0  0
   25.2680  -18.7402  -16.1124 C   0  0  0  0  0  0  0  0  0  0  0  0
   24.0263  -18.6891  -15.8138 O   0  0  0  0  0  0  0  0  0  0  0  0
   25.0581  -14.1071  -17.5171 O   0  0  0  0  0  0  0  0  0  0  0  0
   25.9016  -15.1965  -17.3029 C   0  0  0  0  0  0  0  0  0  0  0  0
   25.0266  -16.3729  -16.9221 C   0  0  2  0  0  0  0  0  0  0  0  0
   25.8051  -17.5715  -16.7006 N   0  0  0  0  0  0  0  0  0  0  0  0
   24.0150  -16.6493  -17.9552 C   0  0  0  0  0  0  0  0  0  0  0  0
   22.9059  -16.0795  -17.9028 O   0  0  0  0  0  0  0  0  0  0  0  0
   24.2836  -17.5300  -18.9765 O   0  0  0  0  0  0  0  0  0  0  0  0
  2  3  2  0
  2  1  1  0
  4  2  1  0
  5  4  1  0
  6  5  1  0
  6  7  1  6
  8  6  1  0
  8  9  2  0
 10  8  1  0
 11 10  1  0
 11 12  1  0
 12 17  1  0
 13 12  2  0
 14 15  1  0
 16 15  1  6
 16 18  1  0
 17 16  1  0
 18 20  1  0
 19 18  2  0
M  END
$$$$
