QGS.pdb
     RDKit          3D

 20 19  0  0  1  0  0  0  0  0999 V2000
   17.9421  -14.9194  -15.7579 N   0  0  0  0  0  0  0  0  0  0  0  0
   18.8347  -14.9759  -16.8692 C   0  0  0  0  0  0  0  0  0  0  0  0
   19.0475  -16.0953  -17.3688 O   0  0  0  0  0  0  0  0  0  0  0  0
   19.4466  -13.7535  -17.3596 C   0  0  0  0  0  0  0  0  0  0  0  0
   19.1020  -12.4789  -16.6967 C   0  0  0  0  0  0  0  0  0  0  0  0
   19.7630  -11.2397  -17.1796 C   0  0  2  0  0  0  0  0  0  0  0  0
   21.0563  -11.3943  -17.7735 N   0  0  0  0  0  0  0  0  0  0  0  0
   19.8844  -10.3218  -16.0145 C   0  0  0  0  0  0  0  0  0  0  0  0
   19.4701  -10.7865  -14.9070 O   0  0  0  0  0  0  0  0  0  0  0  0
   20.4024   -9.0234  -16.0358 N   0  0  0  0  0  0  0  0  0  0  0  0
   20.4452   -8.1933  -14.8363 C   0  0  0  0  0  0  0  0  0  0  0  0
   20.9913   -6.8630  -15.2058 C   0  0  0  0  0  0  0  0  0  0  0  0
   21.7450   -6.7174  -16.2277 O   0  0  0  0  0  0  0  0  0  0  0  0
   20.4738   -3.5440  -12.8070 O   0  0  0  0  0  0  0  0  0  0  0  0
   20.4468   -3.2672  -14.1734 C   0  0  0  0  0  0  0  0  0  0  0  0
   21.2004   -4.3806  -14.8712 C   0  0  2  0  0  0  0  0  0  0  0  0
   20.7232   -5.6855  -14.4697 N   0  0  0  0  0  0  0  0  0  0  0  0
   22.6462   -4.3025  -14.6052 C   0  0  0  0  0  0  0  0  0  0  0  0
   23.1836   -5.1447  -13.8574 O   0  0  0  0  0  0  0  0  0  0  0  0
   23.4076   -3.3091  -15.1746 O   0  0  0  0  0  0  0  0  0  0  0  0
  2  3  2  0
  2  1  1  0
  4  2  1  0
  5  4  1  0
  6  5  1  0
  6  7  1  1
  8  6  1  0
  8  9  2  0
 10  8  1  0
 11 10  1  0
 11 12  1  0
 12 17  1  0
 13 12  2  0
 14 15  1  0
 16 15  1  1
 16 18  1  0
 17 16  1  0
 18 20  1  0
 19 18  2  0
M  END
$$$$
