QGS.pdb
     RDKit          3D

 20 19  0  0  1  0  0  0  0  0999 V2000
   25.1973  -21.0002   -8.2081 N   0  0  0  0  0  0  0  0  0  0  0  0
   26.3391  -20.5343   -8.9251 C   0  0  0  0  0  0  0  0  0  0  0  0
   27.2626  -20.0348   -8.2576 O   0  0  0  0  0  0  0  0  0  0  0  0
   26.3757  -20.6567  -10.3719 C   0  0  0  0  0  0  0  0  0  0  0  0
   25.1795  -21.1784  -11.0644 C   0  0  0  0  0  0  0  0  0  0  0  0
   25.2520  -21.3688  -12.5357 C   0  0  2  0  0  0  0  0  0  0  0  0
   26.3540  -20.7494  -13.2073 N   0  0  0  0  0  0  0  0  0  0  0  0
   23.9874  -20.8369  -13.1121 C   0  0  0  0  0  0  0  0  0  0  0  0
   23.0274  -20.7001  -12.2912 O   0  0  0  0  0  0  0  0  0  0  0  0
   23.7719  -20.4845  -14.4478 N   0  0  0  0  0  0  0  0  0  0  0  0
   22.7739  -19.4904  -14.8290 C   0  0  0  0  0  0  0  0  0  0  0  0
   23.2624  -18.7735  -16.0339 C   0  0  0  0  0  0  0  0  0  0  0  0
   24.3462  -18.0966  -16.0076 O   0  0  0  0  0  0  0  0  0  0  0  0
   20.9583  -18.1333  -19.4126 O   0  0  0  0  0  0  0  0  0  0  0  0
   22.2741  -18.5037  -19.6884 C   0  0  0  0  0  0  0  0  0  0  0  0
   23.1015  -18.1616  -18.4666 C   0  0  2  0  0  0  0  0  0  0  0  0
   22.5787  -18.7872  -17.2719 N   0  0  0  0  0  0  0  0  0  0  0  0
   23.1671  -16.7070  -18.2496 C   0  0  0  0  0  0  0  0  0  0  0  0
   22.4398  -16.1774  -17.3848 O   0  0  0  0  0  0  0  0  0  0  0  0
   24.0234  -15.9289  -18.9926 O   0  0  0  0  0  0  0  0  0  0  0  0
  2  3  2  0
  2  1  1  0
  4  2  1  0
  5  4  1  0
  6  5  1  0
  6  7  1  6
  8  6  1  0
  8  9  2  0
 10  8  1  0
 11 10  1  0
 11 12  1  0
 12 17  1  0
 13 12  2  0
 14 15  1  0
 16 15  1  6
 16 18  1  0
 17 16  1  0
 18 20  1  0
 19 18  2  0
M  END
$$$$
