QGS.pdb
     RDKit          3D

 20 19  0  0  1  0  0  0  0  0999 V2000
   23.3127  -16.8926  -16.3269 N   0  0  0  0  0  0  0  0  0  0  0  0
   24.1971  -17.7961  -16.9876 C   0  0  0  0  0  0  0  0  0  0  0  0
   24.9140  -17.3287  -17.8908 O   0  0  0  0  0  0  0  0  0  0  0  0
   24.2227  -19.1928  -16.5904 C   0  0  0  0  0  0  0  0  0  0  0  0
   24.0737  -19.5198  -15.1574 C   0  0  0  0  0  0  0  0  0  0  0  0
   25.0710  -18.9646  -14.2072 C   0  0  2  0  0  0  0  0  0  0  0  0
   26.3134  -18.5266  -14.7673 N   0  0  0  0  0  0  0  0  0  0  0  0
   25.3536  -20.0205  -13.1974 C   0  0  0  0  0  0  0  0  0  0  0  0
   24.3320  -20.5930  -12.7045 O   0  0  0  0  0  0  0  0  0  0  0  0
   26.6170  -20.4251  -12.7561 N   0  0  0  0  0  0  0  0  0  0  0  0
   26.7828  -21.3119  -11.6090 C   0  0  0  0  0  0  0  0  0  0  0  0
   26.5224  -20.5327  -10.3723 C   0  0  0  0  0  0  0  0  0  0  0  0
   26.3112  -19.2729  -10.4157 O   0  0  0  0  0  0  0  0  0  0  0  0
   24.2086  -20.6239   -6.8154 O   0  0  0  0  0  0  0  0  0  0  0  0
   25.5070  -21.1319   -6.8375 C   0  0  0  0  0  0  0  0  0  0  0  0
   26.2782  -20.3459   -7.8776 C   0  0  2  0  0  0  0  0  0  0  0  0
   26.4897  -21.1152   -9.0839 N   0  0  0  0  0  0  0  0  0  0  0  0
   27.5847  -19.9055   -7.3615 C   0  0  0  0  0  0  0  0  0  0  0  0
   28.6193  -20.5195   -7.6931 O   0  0  0  0  0  0  0  0  0  0  0  0
   27.6726  -18.8236   -6.5175 O   0  0  0  0  0  0  0  0  0  0  0  0
  2  3  2  0
  2  1  1  0
  4  2  1  0
  5  4  1  0
  6  5  1  0
  6  7  1  6
  8  6  1  0
  8  9  2  0
 10  8  1  0
 11 10  1  0
 11 12  1  0
 12 17  1  0
 13 12  2  0
 14 15  1  0
 16 15  1  1
 16 18  1  0
 17 16  1  0
 18 20  1  0
 19 18  2  0
M  END
$$$$
