TKR.pdb
     RDKit          3D

 28 27  0  0  1  0  0  0  0  0999 V2000
    2.0821  -25.0326   26.7326 C   0  0  0  0  0  0  0  0  0  0  0  0
    3.0853  -24.9500   25.6182 C   0  0  1  0  0  0  0  0  0  0  0  0
    4.2466  -25.6038   26.0271 O   0  0  0  0  0  0  0  0  0  0  0  0
    2.6057  -25.5959   24.3439 C   0  0  2  0  0  0  0  0  0  0  0  0
    2.4849  -27.0166   24.6131 N   0  0  0  0  0  0  0  0  0  0  0  0
    3.5352  -25.3790   23.2148 C   0  0  0  0  0  0  0  0  0  0  0  0
    4.5010  -26.1410   22.9609 O   0  0  0  0  0  0  0  0  0  0  0  0
    3.3619  -24.2636   22.3490 N   0  0  0  0  0  0  0  0  0  0  0  0
    4.2677  -24.0789   21.1916 C   0  0  1  0  0  0  0  0  0  0  0  0
    3.5282  -23.3633   20.0955 C   0  0  0  0  0  0  0  0  0  0  0  0
    2.8178  -24.3471   19.2155 C   0  0  0  0  0  0  0  0  0  0  0  0
    2.0179  -23.6232   18.1376 C   0  0  0  0  0  0  0  0  0  0  0  0
    1.3768  -24.6449   17.2562 C   0  0  0  0  0  0  0  0  0  0  0  0
    0.6422  -24.0599   16.1591 N   0  0  0  0  0  0  0  0  0  0  0  0
    5.4570  -23.2953   21.6310 C   0  0  0  0  0  0  0  0  0  0  0  0
    5.3400  -22.2997   22.3858 O   0  0  0  0  0  0  0  0  0  0  0  0
   13.4163  -24.1823   22.4541 N   0  0  0  0  0  0  0  0  0  0  0  0
   13.3519  -23.0650   23.3574 C   0  0  0  0  0  0  0  0  0  0  0  0
   14.3573  -22.8622   24.1318 N   0  0  0  0  0  0  0  0  0  0  0  0
   12.2127  -22.2533   23.3583 N   0  0  0  0  0  0  0  0  0  0  0  0
   10.8651  -22.9152   23.3165 C   0  0  0  0  0  0  0  0  0  0  0  0
   10.3996  -22.9608   21.9235 C   0  0  0  0  0  0  0  0  0  0  0  0
    9.1248  -23.5433   21.5192 C   0  0  0  0  0  0  0  0  0  0  0  0
    7.8864  -22.7510   21.6339 C   0  0  2  0  0  0  0  0  0  0  0  0
    6.7516  -23.6485   21.2124 N   0  0  0  0  0  0  0  0  0  0  0  0
    7.7389  -21.6008   20.6993 C   0  0  0  0  0  0  0  0  0  0  0  0
    8.0081  -20.2922   20.8840 O   0  0  0  0  0  0  0  0  0  0  0  0
    7.2758  -21.8887   19.5186 O   0  0  0  0  0  0  0  0  0  0  0  0
  2  1  1  1
  2  4  1  0
  3  2  1  0
  4  6  1  0
  4  5  1  1
  6  7  2  0
  8  6  1  0
  8  9  1  0
  9 10  1  6
 10 11  1  0
 11 12  1  0
 12 13  1  0
 13 14  1  0
 15  9  1  0
 15 25  1  0
 16 15  2  0
 17 18  1  0
 18 20  1  0
 19 18  2  0
 21 20  1  0
 21 22  1  0
 22 23  1  0
 24 25  1  0
 24 23  1  6
 26 24  1  0
 27 26  1  0
 28 26  2  0
M  END
$$$$
