TKR.pdb
     RDKit          3D

 28 27  0  0  1  0  0  0  0  0999 V2000
    9.6520  -18.1489   19.9679 C   0  0  0  0  0  0  0  0  0  0  0  0
    8.1795  -17.8611   19.9040 C   0  0  1  0  0  0  0  0  0  0  0  0
    7.5715  -18.4483   21.0125 O   0  0  0  0  0  0  0  0  0  0  0  0
    7.8654  -16.3873   19.9210 C   0  0  2  0  0  0  0  0  0  0  0  0
    8.4660  -15.8164   18.7299 N   0  0  0  0  0  0  0  0  0  0  0  0
    8.3971  -15.7091   21.1223 C   0  0  0  0  0  0  0  0  0  0  0  0
    9.6216  -15.5034   21.3126 O   0  0  0  0  0  0  0  0  0  0  0  0
    7.5113  -15.2513   22.1369 N   0  0  0  0  0  0  0  0  0  0  0  0
    8.0540  -14.6147   23.3594 C   0  0  1  0  0  0  0  0  0  0  0  0
    6.9279  -13.9785   24.1260 C   0  0  0  0  0  0  0  0  0  0  0  0
    7.4471  -13.3240   25.3706 C   0  0  0  0  0  0  0  0  0  0  0  0
    6.3165  -12.6319   26.1247 C   0  0  0  0  0  0  0  0  0  0  0  0
    6.8896  -11.9687   27.3344 C   0  0  0  0  0  0  0  0  0  0  0  0
    5.8946  -11.2806   28.1232 N   0  0  0  0  0  0  0  0  0  0  0  0
    8.7371  -15.6539   24.1810 C   0  0  0  0  0  0  0  0  0  0  0  0
    8.1383  -16.6943   24.5466 O   0  0  0  0  0  0  0  0  0  0  0  0
   15.9656  -16.6075   23.6053 N   0  0  0  0  0  0  0  0  0  0  0  0
   16.3088  -17.0218   24.9390 C   0  0  0  0  0  0  0  0  0  0  0  0
   17.4371  -16.6325   25.4155 N   0  0  0  0  0  0  0  0  0  0  0  0
   15.4134  -17.8221   25.6564 N   0  0  0  0  0  0  0  0  0  0  0  0
   14.1550  -18.2742   24.9724 C   0  0  0  0  0  0  0  0  0  0  0  0
   13.0017  -17.6487   25.6341 C   0  0  0  0  0  0  0  0  0  0  0  0
   12.1141  -16.6968   24.9754 C   0  0  0  0  0  0  0  0  0  0  0  0
   10.6978  -16.6143   25.3775 C   0  0  2  0  0  0  0  0  0  0  0  0
   10.0782  -15.5007   24.5731 N   0  0  0  0  0  0  0  0  0  0  0  0
   10.4232  -16.1802   26.7754 C   0  0  0  0  0  0  0  0  0  0  0  0
   10.9209  -15.1400   27.4750 O   0  0  0  0  0  0  0  0  0  0  0  0
    9.5761  -16.9118   27.4376 O   0  0  0  0  0  0  0  0  0  0  0  0
  2  1  1  1
  2  4  1  0
  3  2  1  0
  4  6  1  0
  4  5  1  6
  6  7  2  0
  8  6  1  0
  8  9  1  0
  9 10  1  1
 10 11  1  0
 11 12  1  0
 12 13  1  0
 13 14  1  0
 15  9  1  0
 15 25  1  0
 16 15  2  0
 17 18  1  0
 18 20  1  0
 19 18  2  0
 21 20  1  0
 21 22  1  0
 22 23  1  0
 24 25  1  0
 24 23  1  1
 26 24  1  0
 27 26  1  0
 28 26  2  0
M  END
$$$$
