TKR.pdb
     RDKit          3D

 28 27  0  0  1  0  0  0  0  0999 V2000
    9.7484  -18.2454   16.1522 C   0  0  0  0  0  0  0  0  0  0  0  0
    9.8639  -17.0923   15.1971 C   0  0  1  0  0  0  0  0  0  0  0  0
    9.5050  -17.5403   13.9268 O   0  0  0  0  0  0  0  0  0  0  0  0
    8.9684  -15.9354   15.5584 C   0  0  2  0  0  0  0  0  0  0  0  0
    9.0886  -14.9618   14.4892 N   0  0  0  0  0  0  0  0  0  0  0  0
    9.3414  -15.3116   16.8459 C   0  0  0  0  0  0  0  0  0  0  0  0
   10.3915  -14.6418   17.0088 O   0  0  0  0  0  0  0  0  0  0  0  0
    8.4960  -15.4530   17.9812 N   0  0  0  0  0  0  0  0  0  0  0  0
    8.8589  -14.7972   19.2589 C   0  0  1  0  0  0  0  0  0  0  0  0
    7.6732  -14.8264   20.1829 C   0  0  0  0  0  0  0  0  0  0  0  0
    8.0175  -14.1893   21.4954 C   0  0  0  0  0  0  0  0  0  0  0  0
    6.8050  -14.1766   22.4202 C   0  0  0  0  0  0  0  0  0  0  0  0
    7.1794  -13.4725   23.6834 C   0  0  0  0  0  0  0  0  0  0  0  0
    6.0701  -13.3278   24.5968 N   0  0  0  0  0  0  0  0  0  0  0  0
   10.0184  -15.5174   19.8577 C   0  0  0  0  0  0  0  0  0  0  0  0
   10.1572  -16.7572   19.7219 O   0  0  0  0  0  0  0  0  0  0  0  0
   16.2401  -13.4357   17.7119 N   0  0  0  0  0  0  0  0  0  0  0  0
   16.8351  -14.7446   17.7387 C   0  0  0  0  0  0  0  0  0  0  0  0
   17.5121  -15.1161   16.7114 N   0  0  0  0  0  0  0  0  0  0  0  0
   16.6561  -15.5524   18.8667 N   0  0  0  0  0  0  0  0  0  0  0  0
   15.8686  -15.0014   20.0209 C   0  0  0  0  0  0  0  0  0  0  0  0
   14.4395  -15.0327   19.6810 C   0  0  0  0  0  0  0  0  0  0  0  0
   13.3833  -14.6307   20.6035 C   0  0  0  0  0  0  0  0  0  0  0  0
   12.2776  -15.5592   20.9029 C   0  0  2  0  0  0  0  0  0  0  0  0
   10.9962  -14.8281   20.5956 N   0  0  0  0  0  0  0  0  0  0  0  0
   12.0879  -15.9352   22.3315 C   0  0  0  0  0  0  0  0  0  0  0  0
   11.1855  -15.4957   23.2324 O   0  0  0  0  0  0  0  0  0  0  0  0
   12.9176  -16.8221   22.7967 O   0  0  0  0  0  0  0  0  0  0  0  0
  2  1  1  1
  2  4  1  0
  3  2  1  0
  4  6  1  0
  4  5  1  6
  6  7  2  0
  8  6  1  0
  8  9  1  0
  9 10  1  1
 10 11  1  0
 11 12  1  0
 12 13  1  0
 13 14  1  0
 15  9  1  0
 15 25  1  0
 16 15  2  0
 17 18  1  0
 18 20  1  0
 19 18  2  0
 21 20  1  0
 21 22  1  0
 22 23  1  0
 24 25  1  0
 24 23  1  1
 26 24  1  0
 27 26  1  0
 28 26  2  0
M  END
$$$$
