TKR.pdb
     RDKit          3D

 28 27  0  0  1  0  0  0  0  0999 V2000
    3.6844  -18.0931   22.2888 C   0  0  0  0  0  0  0  0  0  0  0  0
    4.4441  -19.2123   21.6367 C   0  0  1  0  0  0  0  0  0  0  0  0
    3.5263  -20.0635   21.0234 O   0  0  0  0  0  0  0  0  0  0  0  0
    5.4151  -18.7335   20.5884 C   0  0  2  0  0  0  0  0  0  0  0  0
    5.9587  -19.9167   19.9481 N   0  0  0  0  0  0  0  0  0  0  0  0
    6.5136  -17.9264   21.1608 C   0  0  0  0  0  0  0  0  0  0  0  0
    7.4694  -18.4229   21.8073 O   0  0  0  0  0  0  0  0  0  0  0  0
    6.5262  -16.5137   20.9936 N   0  0  0  0  0  0  0  0  0  0  0  0
    7.6427  -15.7139   21.5487 C   0  0  1  0  0  0  0  0  0  0  0  0
    7.6115  -14.3374   20.9449 C   0  0  0  0  0  0  0  0  0  0  0  0
    7.9297  -14.4011   19.4815 C   0  0  0  0  0  0  0  0  0  0  0  0
    7.7023  -13.0444   18.8232 C   0  0  0  0  0  0  0  0  0  0  0  0
    8.0137  -13.1657   17.3671 C   0  0  0  0  0  0  0  0  0  0  0  0
    7.7419  -11.9533   16.6310 N   0  0  0  0  0  0  0  0  0  0  0  0
    7.4982  -15.6486   23.0307 C   0  0  0  0  0  0  0  0  0  0  0  0
    6.3681  -15.6318   23.5760 O   0  0  0  0  0  0  0  0  0  0  0  0
    5.8627  -21.8155   23.5364 N   0  0  0  0  0  0  0  0  0  0  0  0
    5.8665  -21.2732   24.8684 C   0  0  0  0  0  0  0  0  0  0  0  0
    5.3431  -21.9810   25.8048 N   0  0  0  0  0  0  0  0  0  0  0  0
    6.4320  -20.0132   25.0903 N   0  0  0  0  0  0  0  0  0  0  0  0
    7.5162  -19.8896   26.1225 C   0  0  0  0  0  0  0  0  0  0  0  0
    7.9278  -18.4821   26.2149 C   0  0  0  0  0  0  0  0  0  0  0  0
    8.0692  -17.6067   25.0566 C   0  0  0  0  0  0  0  0  0  0  0  0
    8.4971  -16.2077   25.2416 C   0  0  2  0  0  0  0  0  0  0  0  0
    8.6272  -15.6040   23.8669 N   0  0  0  0  0  0  0  0  0  0  0  0
    9.8582  -15.9936   25.8070 C   0  0  0  0  0  0  0  0  0  0  0  0
   10.2801  -16.0193   27.0878 O   0  0  0  0  0  0  0  0  0  0  0  0
   10.7949  -15.7371   24.9420 O   0  0  0  0  0  0  0  0  0  0  0  0
  2  1  1  6
  2  4  1  0
  3  2  1  0
  4  6  1  0
  4  5  1  1
  6  7  2  0
  8  6  1  0
  8  9  1  0
  9 10  1  6
 10 11  1  0
 11 12  1  0
 12 13  1  0
 13 14  1  0
 15  9  1  0
 15 25  1  0
 16 15  2  0
 17 18  1  0
 18 20  1  0
 19 18  2  0
 21 20  1  0
 21 22  1  0
 22 23  1  0
 24 25  1  0
 24 23  1  6
 26 24  1  0
 27 26  1  0
 28 26  2  0
M  END
$$$$
