TKR.pdb
     RDKit          3D

 28 27  0  0  1  0  0  0  0  0999 V2000
    5.2618  -20.3805   24.6455 C   0  0  0  0  0  0  0  0  0  0  0  0
    6.1971  -19.4681   23.9054 C   0  0  1  0  0  0  0  0  0  0  0  0
    7.3956  -20.1483   23.6958 O   0  0  0  0  0  0  0  0  0  0  0  0
    5.6611  -19.0354   22.5650 C   0  0  2  0  0  0  0  0  0  0  0  0
    5.5377  -20.2334   21.7558 N   0  0  0  0  0  0  0  0  0  0  0  0
    6.5469  -18.0646   21.8878 C   0  0  0  0  0  0  0  0  0  0  0  0
    7.4158  -18.3964   21.0436 O   0  0  0  0  0  0  0  0  0  0  0  0
    6.4420  -16.6760   22.1785 N   0  0  0  0  0  0  0  0  0  0  0  0
    7.4809  -15.7387   21.6924 C   0  0  1  0  0  0  0  0  0  0  0  0
    6.9175  -14.3450   21.6714 C   0  0  0  0  0  0  0  0  0  0  0  0
    7.8924  -13.3964   21.0416 C   0  0  0  0  0  0  0  0  0  0  0  0
    7.8438  -13.5076   19.5214 C   0  0  0  0  0  0  0  0  0  0  0  0
    8.7419  -12.4647   18.9406 C   0  0  0  0  0  0  0  0  0  0  0  0
    8.6372  -12.3692   17.5034 N   0  0  0  0  0  0  0  0  0  0  0  0
    8.6643  -15.8210   22.5948 C   0  0  0  0  0  0  0  0  0  0  0  0
    8.5465  -15.6982   23.8381 O   0  0  0  0  0  0  0  0  0  0  0  0
    9.5575  -21.3652   25.6767 N   0  0  0  0  0  0  0  0  0  0  0  0
   10.6417  -20.9351   26.5180 C   0  0  0  0  0  0  0  0  0  0  0  0
   10.5693  -21.2039   27.7727 N   0  0  0  0  0  0  0  0  0  0  0  0
   11.7186  -20.2498   25.9458 N   0  0  0  0  0  0  0  0  0  0  0  0
   11.6410  -19.8868   24.4904 C   0  0  0  0  0  0  0  0  0  0  0  0
   11.4221  -18.4387   24.3715 C   0  0  0  0  0  0  0  0  0  0  0  0
   11.2948  -17.7458   23.0941 C   0  0  0  0  0  0  0  0  0  0  0  0
   11.0631  -16.2898   23.0687 C   0  0  2  0  0  0  0  0  0  0  0  0
    9.9537  -16.0400   22.0798 N   0  0  0  0  0  0  0  0  0  0  0  0
   12.1632  -15.4465   22.5239 C   0  0  0  0  0  0  0  0  0  0  0  0
   12.4823  -15.1551   21.2463 O   0  0  0  0  0  0  0  0  0  0  0  0
   12.9483  -14.9033   23.4070 O   0  0  0  0  0  0  0  0  0  0  0  0
  2  1  1  6
  2  4  1  0
  3  2  1  0
  4  6  1  0
  4  5  1  6
  6  7  2  0
  8  6  1  0
  8  9  1  0
  9 10  1  1
 10 11  1  0
 11 12  1  0
 12 13  1  0
 13 14  1  0
 15  9  1  0
 15 25  1  0
 16 15  2  0
 17 18  1  0
 18 20  1  0
 19 18  2  0
 21 20  1  0
 21 22  1  0
 22 23  1  0
 24 25  1  0
 24 23  1  6
 26 24  1  0
 27 26  1  0
 28 26  2  0
M  END
$$$$
