TKR.pdb
     RDKit          3D

 28 27  0  0  1  0  0  0  0  0999 V2000
    7.6841  -19.7480   18.2730 C   0  0  0  0  0  0  0  0  0  0  0  0
    8.2517  -19.2481   16.9757 C   0  0  1  0  0  0  0  0  0  0  0  0
    7.6176  -19.9222   15.9333 O   0  0  0  0  0  0  0  0  0  0  0  0
    8.0463  -17.7690   16.7732 C   0  0  2  0  0  0  0  0  0  0  0  0
    8.5822  -17.4461   15.4640 N   0  0  0  0  0  0  0  0  0  0  0  0
    8.7256  -16.9567   17.8049 C   0  0  0  0  0  0  0  0  0  0  0  0
    9.9743  -16.8427   17.8808 O   0  0  0  0  0  0  0  0  0  0  0  0
    7.9636  -16.2534   18.7787 N   0  0  0  0  0  0  0  0  0  0  0  0
    8.6513  -15.5207   19.8671 C   0  0  1  0  0  0  0  0  0  0  0  0
    7.6522  -14.6628   20.5926 C   0  0  0  0  0  0  0  0  0  0  0  0
    8.3323  -13.8534   21.6553 C   0  0  0  0  0  0  0  0  0  0  0  0
    7.3282  -12.9572   22.3723 C   0  0  0  0  0  0  0  0  0  0  0  0
    8.0697  -12.0930   23.3393 C   0  0  0  0  0  0  0  0  0  0  0  0
    7.2190  -11.1327   24.0024 N   0  0  0  0  0  0  0  0  0  0  0  0
    9.2766  -16.5079   20.7923 C   0  0  0  0  0  0  0  0  0  0  0  0
    8.6433  -17.5113   21.2008 O   0  0  0  0  0  0  0  0  0  0  0  0
   13.9300  -20.2361   16.7219 N   0  0  0  0  0  0  0  0  0  0  0  0
   13.8742  -19.2886   17.8023 C   0  0  0  0  0  0  0  0  0  0  0  0
   13.3777  -18.1289   17.5569 N   0  0  0  0  0  0  0  0  0  0  0  0
   14.3563  -19.6608   19.0616 N   0  0  0  0  0  0  0  0  0  0  0  0
   14.3431  -18.6379   20.1613 C   0  0  0  0  0  0  0  0  0  0  0  0
   12.9648  -18.4739   20.6432 C   0  0  0  0  0  0  0  0  0  0  0  0
   12.5937  -17.5773   21.7324 C   0  0  0  0  0  0  0  0  0  0  0  0
   11.1763  -17.4296   22.1112 C   0  0  2  0  0  0  0  0  0  0  0  0
   10.6000  -16.3456   21.2374 N   0  0  0  0  0  0  0  0  0  0  0  0
   10.9000  -16.9086   23.4788 C   0  0  0  0  0  0  0  0  0  0  0  0
   10.5260  -15.6761   23.8791 O   0  0  0  0  0  0  0  0  0  0  0  0
   11.0413  -17.7642   24.4481 O   0  0  0  0  0  0  0  0  0  0  0  0
  2  1  1  1
  2  4  1  0
  3  2  1  0
  4  6  1  0
  4  5  1  6
  6  7  2  0
  8  6  1  0
  8  9  1  0
  9 10  1  1
 10 11  1  0
 11 12  1  0
 12 13  1  0
 13 14  1  0
 15  9  1  0
 15 25  1  0
 16 15  2  0
 17 18  1  0
 18 20  1  0
 19 18  2  0
 21 20  1  0
 21 22  1  0
 22 23  1  0
 24 25  1  0
 24 23  1  6
 26 24  1  0
 27 26  1  0
 28 26  2  0
M  END
$$$$
