TKR.pdb
     RDKit          3D

 28 27  0  0  1  0  0  0  0  0999 V2000
    8.9282  -15.9471   17.0954 C   0  0  0  0  0  0  0  0  0  0  0  0
    8.9713  -14.4613   17.3092 C   0  0  1  0  0  0  0  0  0  0  0  0
    8.6614  -13.8375   16.1017 O   0  0  0  0  0  0  0  0  0  0  0  0
    7.9898  -13.9864   18.3494 C   0  0  2  0  0  0  0  0  0  0  0  0
    8.0819  -12.5388   18.3835 N   0  0  0  0  0  0  0  0  0  0  0  0
    8.2770  -14.5367   19.6913 C   0  0  0  0  0  0  0  0  0  0  0  0
    9.2306  -14.1433   20.4081 O   0  0  0  0  0  0  0  0  0  0  0  0
    7.4562  -15.5638   20.2345 N   0  0  0  0  0  0  0  0  0  0  0  0
    7.8372  -16.2185   21.5075 C   0  0  1  0  0  0  0  0  0  0  0  0
    6.8569  -17.3176   21.8099 C   0  0  0  0  0  0  0  0  0  0  0  0
    7.3205  -18.1224   22.9865 C   0  0  0  0  0  0  0  0  0  0  0  0
    6.3364  -19.2475   23.2885 C   0  0  0  0  0  0  0  0  0  0  0  0
    6.7110  -19.8672   24.5951 C   0  0  0  0  0  0  0  0  0  0  0  0
    5.8052  -20.9166   25.0002 N   0  0  0  0  0  0  0  0  0  0  0  0
    9.2198  -16.7596   21.3759 C   0  0  0  0  0  0  0  0  0  0  0  0
    9.6286  -17.2497   20.2954 O   0  0  0  0  0  0  0  0  0  0  0  0
   15.8128  -13.7177   18.2131 N   0  0  0  0  0  0  0  0  0  0  0  0
   14.6959  -14.5010   17.7579 C   0  0  0  0  0  0  0  0  0  0  0  0
   14.6694  -14.8431   16.5193 N   0  0  0  0  0  0  0  0  0  0  0  0
   13.6948  -14.8552   18.6684 N   0  0  0  0  0  0  0  0  0  0  0  0
   13.9155  -14.5554   20.1236 C   0  0  0  0  0  0  0  0  0  0  0  0
   13.3977  -15.6734   20.9242 C   0  0  0  0  0  0  0  0  0  0  0  0
   12.0042  -15.7886   21.3401 C   0  0  0  0  0  0  0  0  0  0  0  0
   11.5757  -16.9358   22.1614 C   0  0  2  0  0  0  0  0  0  0  0  0
   10.1123  -16.7373   22.4616 N   0  0  0  0  0  0  0  0  0  0  0  0
   12.1635  -17.0385   23.5260 C   0  0  0  0  0  0  0  0  0  0  0  0
   13.3791  -17.4724   23.9172 O   0  0  0  0  0  0  0  0  0  0  0  0
   11.3937  -16.6570   24.5024 O   0  0  0  0  0  0  0  0  0  0  0  0
  2  1  1  6
  2  4  1  0
  3  2  1  0
  4  6  1  0
  4  5  1  1
  6  7  2  0
  8  6  1  0
  8  9  1  0
  9 10  1  6
 10 11  1  0
 11 12  1  0
 12 13  1  0
 13 14  1  0
 15  9  1  0
 15 25  1  0
 16 15  2  0
 17 18  1  0
 18 20  1  0
 19 18  2  0
 21 20  1  0
 21 22  1  0
 22 23  1  0
 24 25  1  0
 24 23  1  1
 26 24  1  0
 27 26  1  0
 28 26  2  0
M  END
$$$$
