TKR.pdb
     RDKit          3D

 28 27  0  0  1  0  0  0  0  0999 V2000
    7.0829  -14.9516   17.3371 C   0  0  0  0  0  0  0  0  0  0  0  0
    7.6234  -14.9156   18.7377 C   0  0  1  0  0  0  0  0  0  0  0  0
    8.9813  -15.2268   18.6896 O   0  0  0  0  0  0  0  0  0  0  0  0
    7.4728  -13.5671   19.3934 C   0  0  2  0  0  0  0  0  0  0  0  0
    8.1889  -12.6152   18.5648 N   0  0  0  0  0  0  0  0  0  0  0  0
    8.0178  -13.5419   20.7675 C   0  0  0  0  0  0  0  0  0  0  0  0
    9.2322  -13.3487   21.0242 O   0  0  0  0  0  0  0  0  0  0  0  0
    7.1573  -13.7420   21.8826 N   0  0  0  0  0  0  0  0  0  0  0  0
    7.6843  -13.5917   23.2588 C   0  0  1  0  0  0  0  0  0  0  0  0
    6.5502  -13.2578   24.1878 C   0  0  0  0  0  0  0  0  0  0  0  0
    7.0595  -13.0566   25.5831 C   0  0  0  0  0  0  0  0  0  0  0  0
    5.9159  -12.6950   26.5250 C   0  0  0  0  0  0  0  0  0  0  0  0
    6.4816  -12.4499   27.8857 C   0  0  0  0  0  0  0  0  0  0  0  0
    5.4773  -12.0739   28.8530 N   0  0  0  0  0  0  0  0  0  0  0  0
    8.3463  -14.8646   23.6628 C   0  0  0  0  0  0  0  0  0  0  0  0
    7.7560  -15.9674   23.5627 O   0  0  0  0  0  0  0  0  0  0  0  0
   15.3553  -14.5481   22.2669 N   0  0  0  0  0  0  0  0  0  0  0  0
   15.0469  -15.6730   21.4256 C   0  0  0  0  0  0  0  0  0  0  0  0
   16.0285  -16.3159   20.9014 N   0  0  0  0  0  0  0  0  0  0  0  0
   13.7083  -16.0190   21.2129 N   0  0  0  0  0  0  0  0  0  0  0  0
   12.6471  -15.2459   21.9424 C   0  0  0  0  0  0  0  0  0  0  0  0
   11.7193  -16.1923   22.5768 C   0  0  0  0  0  0  0  0  0  0  0  0
   11.5595  -16.3175   24.0214 C   0  0  0  0  0  0  0  0  0  0  0  0
   10.2203  -16.1911   24.6255 C   0  0  2  0  0  0  0  0  0  0  0  0
    9.6572  -14.8696   24.1700 N   0  0  0  0  0  0  0  0  0  0  0  0
   10.1646  -16.0602   26.1080 C   0  0  0  0  0  0  0  0  0  0  0  0
    9.7652  -15.0242   26.8736 O   0  0  0  0  0  0  0  0  0  0  0  0
   10.5643  -17.0983   26.7817 O   0  0  0  0  0  0  0  0  0  0  0  0
  2  1  1  6
  2  4  1  0
  3  2  1  0
  4  6  1  0
  4  5  1  6
  6  7  2  0
  8  6  1  0
  8  9  1  0
  9 10  1  1
 10 11  1  0
 11 12  1  0
 12 13  1  0
 13 14  1  0
 15  9  1  0
 15 25  1  0
 16 15  2  0
 17 18  1  0
 18 20  1  0
 19 18  2  0
 21 20  1  0
 21 22  1  0
 22 23  1  0
 24 25  1  0
 24 23  1  6
 26 24  1  0
 27 26  1  0
 28 26  2  0
M  END
$$$$
