TKR.pdb
     RDKit          3D

 28 27  0  0  1  0  0  0  0  0999 V2000
    9.0284  -20.1625   18.7422 C   0  0  0  0  0  0  0  0  0  0  0  0
    9.8186  -19.6801   17.5599 C   0  0  1  0  0  0  0  0  0  0  0  0
    9.5778  -20.5435   16.4923 O   0  0  0  0  0  0  0  0  0  0  0  0
    9.4445  -18.2849   17.1301 C   0  0  2  0  0  0  0  0  0  0  0  0
   10.2492  -17.9753   15.9631 N   0  0  0  0  0  0  0  0  0  0  0  0
    9.6918  -17.2816   18.1875 C   0  0  0  0  0  0  0  0  0  0  0  0
   10.8404  -16.8877   18.5090 O   0  0  0  0  0  0  0  0  0  0  0  0
    8.6017  -16.7093   18.9002 N   0  0  0  0  0  0  0  0  0  0  0  0
    8.8579  -15.7190   19.9717 C   0  0  1  0  0  0  0  0  0  0  0  0
    7.7319  -14.7232   20.0029 C   0  0  0  0  0  0  0  0  0  0  0  0
    7.7230  -13.9047   18.7471 C   0  0  0  0  0  0  0  0  0  0  0  0
    6.4937  -13.0033   18.7027 C   0  0  0  0  0  0  0  0  0  0  0  0
    6.5202  -12.2278   17.4261 C   0  0  0  0  0  0  0  0  0  0  0  0
    5.3658  -11.3759   17.2615 N   0  0  0  0  0  0  0  0  0  0  0  0
    8.9707  -16.4362   21.2734 C   0  0  0  0  0  0  0  0  0  0  0  0
    8.1619  -17.3412   21.5919 O   0  0  0  0  0  0  0  0  0  0  0  0
   15.5017  -20.6091   24.9923 N   0  0  0  0  0  0  0  0  0  0  0  0
   14.3401  -20.8882   25.7929 C   0  0  0  0  0  0  0  0  0  0  0  0
   14.3904  -21.8942   26.5912 N   0  0  0  0  0  0  0  0  0  0  0  0
   13.2153  -20.0653   25.6731 N   0  0  0  0  0  0  0  0  0  0  0  0
   13.2107  -19.0153   24.5992 C   0  0  0  0  0  0  0  0  0  0  0  0
   11.8525  -18.4693   24.4724 C   0  0  0  0  0  0  0  0  0  0  0  0
   11.4932  -17.4145   23.5309 C   0  0  0  0  0  0  0  0  0  0  0  0
   10.0925  -16.9643   23.4323 C   0  0  2  0  0  0  0  0  0  0  0  0
    9.9902  -16.1203   22.1881 N   0  0  0  0  0  0  0  0  0  0  0  0
    9.6153  -16.0265   24.4863 C   0  0  0  0  0  0  0  0  0  0  0  0
    9.2134  -16.2726   25.7500 O   0  0  0  0  0  0  0  0  0  0  0  0
    9.5707  -14.7718   24.1472 O   0  0  0  0  0  0  0  0  0  0  0  0
  2  1  1  1
  2  4  1  0
  3  2  1  0
  4  6  1  0
  4  5  1  6
  6  7  2  0
  8  6  1  0
  8  9  1  0
  9 10  1  1
 10 11  1  0
 11 12  1  0
 12 13  1  0
 13 14  1  0
 15  9  1  0
 15 25  1  0
 16 15  2  0
 17 18  1  0
 18 20  1  0
 19 18  2  0
 21 20  1  0
 21 22  1  0
 22 23  1  0
 24 25  1  0
 24 23  1  1
 26 24  1  0
 27 26  1  0
 28 26  2  0
M  END
$$$$
