CRA.pdb
     RDKit          3D

 23 22  0  0  1  0  0  0  0  0999 V2000
   37.5593   -7.9172  -14.7161 N   0  0  0  0  0  0  0  0  0  0  0  0
   36.1378   -7.6977  -14.5602 C   0  0  1  0  0  0  0  0  0  0  0  0
   35.9425   -6.3538  -13.8833 C   0  0  0  0  0  0  0  0  0  0  0  0
   36.3254   -6.4736  -12.1015 S   0  0  0  0  0  0  0  0  0  0  0  0
   35.4040   -7.7639  -15.8483 C   0  0  0  0  0  0  0  0  0  0  0  0
   36.0095   -7.4428  -16.9007 O   0  0  0  0  0  0  0  0  0  0  0  0
   31.4801  -14.4251  -18.5088 N   0  0  0  0  0  0  0  0  0  0  0  0
   32.7210  -13.7768  -18.7218 C   0  0  0  0  0  0  0  0  0  0  0  0
   33.8213  -14.4256  -18.9528 N   0  0  0  0  0  0  0  0  0  0  0  0
   32.8633  -12.3420  -18.6995 N   0  0  0  0  0  0  0  0  0  0  0  0
   31.7189  -11.5012  -18.5436 C   0  0  0  0  0  0  0  0  0  0  0  0
   32.0613  -10.0163  -18.5801 C   0  0  0  0  0  0  0  0  0  0  0  0
   32.8564   -9.7352  -17.3359 C   0  0  0  0  0  0  0  0  0  0  0  0
   33.3914   -8.3494  -17.2080 C   0  0  2  0  0  0  0  0  0  0  0  0
   34.0583   -8.1748  -15.9123 N   0  0  0  0  0  0  0  0  0  0  0  0
   32.2936   -7.3624  -17.3152 C   0  0  0  0  0  0  0  0  0  0  0  0
   31.4073   -7.2490  -16.4435 O   0  0  0  0  0  0  0  0  0  0  0  0
   34.6661  -13.8490  -19.1566 C   0  0  0  0  0  0  0  0  0  0  0  0
   31.4479   -4.5180  -19.6983 C   0  0  1  0  0  0  0  0  0  0  0  0
   31.2113   -5.5203  -18.6188 N   0  0  0  0  0  0  0  0  0  0  0  0
   32.2329   -6.4984  -18.4578 C   0  0  0  0  0  0  0  0  0  0  0  0
   29.8266   -6.0673  -18.6709 O   0  0  0  0  0  0  0  0  0  0  0  0
   28.7934   -5.3819  -18.0700 O   0  0  0  0  0  0  0  0  0  0  0  0
  2  1  1  6
  2  3  1  0
  4  3  1  0
  5  2  1  0
  5  6  2  0
  7  8  1  0
  8  9  2  0
  8 10  1  0
 10 11  1  0
 11 12  1  0
 12 13  1  0
 14 13  1  1
 14 15  1  0
 15  5  1  0
 16 14  1  0
 16 20  1  0
 17 16  2  0
 19 18  1  1
 19 21  1  0
 20 19  1  0
 21 23  2  0
 21 22  1  0
M  END
$$$$
