CRA.pdb
     RDKit          3D

 23 22  0  0  1  0  0  0  0  0999 V2000
   17.0000  -12.1988  -11.0349 N   0  0  0  0  0  0  0  0  0  0  0  0
   16.2223  -10.9805  -11.0970 C   0  0  1  0  0  0  0  0  0  0  0  0
   14.8047  -11.3068  -10.6656 C   0  0  0  0  0  0  0  0  0  0  0  0
   13.9379  -12.2427  -11.9726 S   0  0  0  0  0  0  0  0  0  0  0  0
   16.7994   -9.8907  -10.2716 C   0  0  0  0  0  0  0  0  0  0  0  0
   17.2221  -10.1686   -9.1220 O   0  0  0  0  0  0  0  0  0  0  0  0
   20.7464   -9.2299  -13.5855 N   0  0  0  0  0  0  0  0  0  0  0  0
   20.6143   -7.9863  -14.2501 C   0  0  0  0  0  0  0  0  0  0  0  0
   20.4205   -7.8918  -15.5301 N   0  0  0  0  0  0  0  0  0  0  0  0
   20.6844   -6.7230  -13.5583 N   0  0  0  0  0  0  0  0  0  0  0  0
   20.3273   -6.6302  -12.1782 C   0  0  0  0  0  0  0  0  0  0  0  0
   18.9106   -7.1163  -11.8955 C   0  0  0  0  0  0  0  0  0  0  0  0
   18.7160   -7.0102  -10.4088 C   0  0  0  0  0  0  0  0  0  0  0  0
   17.4057   -7.4971   -9.8903 C   0  0  2  0  0  0  0  0  0  0  0  0
   16.8810   -8.5673  -10.7467 N   0  0  0  0  0  0  0  0  0  0  0  0
   16.4232   -6.3906   -9.8553 C   0  0  0  0  0  0  0  0  0  0  0  0
   16.0352   -5.8064  -10.8880 O   0  0  0  0  0  0  0  0  0  0  0  0
   20.2850   -6.9296  -15.9091 C   0  0  0  0  0  0  0  0  0  0  0  0
   14.1041   -4.9001   -7.2685 C   0  0  2  0  0  0  0  0  0  0  0  0
   14.9655   -4.8854   -8.4866 N   0  0  0  0  0  0  0  0  0  0  0  0
   15.8895   -5.9627   -8.5952 C   0  0  0  0  0  0  0  0  0  0  0  0
   15.5487   -3.5364   -8.7307 O   0  0  0  0  0  0  0  0  0  0  0  0
   16.9075   -3.3972   -8.9115 O   0  0  0  0  0  0  0  0  0  0  0  0
  2  1  1  1
  2  3  1  0
  4  3  1  0
  5  2  1  0
  5  6  2  0
  7  8  1  0
  8  9  2  0
  8 10  1  0
 10 11  1  0
 11 12  1  0
 12 13  1  0
 14 13  1  6
 14 15  1  0
 15  5  1  0
 16 14  1  0
 16 20  1  0
 17 16  2  0
 19 18  1  6
 19 21  1  0
 20 19  1  0
 21 23  2  0
 21 22  1  0
M  END
$$$$
