CRA.pdb
     RDKit          3D

 23 22  0  0  1  0  0  0  0  0999 V2000
   24.5947  -12.6255  -16.8811 N   0  0  0  0  0  0  0  0  0  0  0  0
   24.5738  -11.5539  -15.9094 C   0  0  1  0  0  0  0  0  0  0  0  0
   25.9734  -10.9745  -15.8205 C   0  0  0  0  0  0  0  0  0  0  0  0
   27.0930  -12.1359  -14.9642 S   0  0  0  0  0  0  0  0  0  0  0  0
   23.5762  -10.5050  -16.2357 C   0  0  0  0  0  0  0  0  0  0  0  0
   23.3837  -10.2149  -17.4425 O   0  0  0  0  0  0  0  0  0  0  0  0
   15.4848  -10.0799  -13.8349 N   0  0  0  0  0  0  0  0  0  0  0  0
   15.6029   -8.9019  -14.6121 C   0  0  0  0  0  0  0  0  0  0  0  0
   14.5759   -8.2002  -14.9834 N   0  0  0  0  0  0  0  0  0  0  0  0
   16.8746   -8.3858  -15.0545 N   0  0  0  0  0  0  0  0  0  0  0  0
   18.0767   -9.1231  -14.8258 C   0  0  0  0  0  0  0  0  0  0  0  0
   19.3191   -8.4153  -15.3538 C   0  0  0  0  0  0  0  0  0  0  0  0
   20.4740   -9.3435  -15.1009 C   0  0  0  0  0  0  0  0  0  0  0  0
   21.8034   -8.8702  -15.5825 C   0  0  2  0  0  0  0  0  0  0  0  0
   22.8501   -9.8369  -15.2306 N   0  0  0  0  0  0  0  0  0  0  0  0
   22.1366   -7.5640  -14.9712 C   0  0  0  0  0  0  0  0  0  0  0  0
   22.5467   -7.4592  -13.7968 O   0  0  0  0  0  0  0  0  0  0  0  0
   14.7751   -7.3588  -15.5666 C   0  0  0  0  0  0  0  0  0  0  0  0
   22.3287   -3.9698  -16.2114 C   0  0  1  0  0  0  0  0  0  0  0  0
   22.2692   -5.0765  -15.2125 N   0  0  0  0  0  0  0  0  0  0  0  0
   21.9867   -6.3661  -15.7445 C   0  0  0  0  0  0  0  0  0  0  0  0
   21.4543   -4.7000  -14.0235 O   0  0  0  0  0  0  0  0  0  0  0  0
   21.9344   -3.7700  -13.1274 O   0  0  0  0  0  0  0  0  0  0  0  0
  2  1  1  6
  2  3  1  0
  4  3  1  0
  5  2  1  0
  5  6  2  0
  7  8  1  0
  8  9  2  0
  8 10  1  0
 10 11  1  0
 11 12  1  0
 12 13  1  0
 14 13  1  1
 14 15  1  0
 15  5  1  0
 16 14  1  0
 16 20  1  0
 17 16  2  0
 19 18  1  6
 19 21  1  0
 20 19  1  0
 21 23  2  0
 21 22  1  0
M  END
$$$$
