CRA.pdb
     RDKit          3D

 23 22  0  0  1  0  0  0  0  0999 V2000
   30.7156  -13.6147  -18.5732 N   0  0  0  0  0  0  0  0  0  0  0  0
   29.9797  -12.4986  -18.0201 C   0  0  1  0  0  0  0  0  0  0  0  0
   29.7035  -12.7976  -16.5584 C   0  0  0  0  0  0  0  0  0  0  0  0
   28.6392  -14.2731  -16.3975 S   0  0  0  0  0  0  0  0  0  0  0  0
   30.6928  -11.2072  -18.1805 C   0  0  0  0  0  0  0  0  0  0  0  0
   31.9414  -11.2242  -18.3149 O   0  0  0  0  0  0  0  0  0  0  0  0
   28.0833   -3.0702  -18.7976 N   0  0  0  0  0  0  0  0  0  0  0  0
   29.1016   -3.0261  -19.7808 C   0  0  0  0  0  0  0  0  0  0  0  0
   29.5505   -1.9137  -20.2768 N   0  0  0  0  0  0  0  0  0  0  0  0
   29.7232   -4.2142  -20.3112 N   0  0  0  0  0  0  0  0  0  0  0  0
   29.2776   -5.5096  -19.9057 C   0  0  0  0  0  0  0  0  0  0  0  0
   30.3819   -6.3482  -19.2728 C   0  0  0  0  0  0  0  0  0  0  0  0
   29.7863   -7.7033  -19.0112 C   0  0  0  0  0  0  0  0  0  0  0  0
   30.7182   -8.7237  -18.4514 C   0  0  2  0  0  0  0  0  0  0  0  0
   30.0047   -9.9782  -18.1849 N   0  0  0  0  0  0  0  0  0  0  0  0
   31.3142   -8.2371  -17.1869 C   0  0  0  0  0  0  0  0  0  0  0  0
   30.6932   -8.2529  -16.1041 O   0  0  0  0  0  0  0  0  0  0  0  0
   30.3225   -1.9943  -20.9735 C   0  0  0  0  0  0  0  0  0  0  0  0
   34.3764   -8.1099  -15.4706 C   0  0  1  0  0  0  0  0  0  0  0  0
   33.2880   -7.2444  -16.0111 N   0  0  0  0  0  0  0  0  0  0  0  0
   32.6534   -7.7250  -17.1911 C   0  0  0  0  0  0  0  0  0  0  0  0
   33.6986   -5.8132  -16.0625 O   0  0  0  0  0  0  0  0  0  0  0  0
   33.9112   -5.1165  -14.8930 O   0  0  0  0  0  0  0  0  0  0  0  0
  2  1  1  1
  2  3  1  0
  4  3  1  0
  5  2  1  0
  5  6  2  0
  7  8  1  0
  8  9  2  0
  8 10  1  0
 10 11  1  0
 11 12  1  0
 12 13  1  0
 14 13  1  1
 14 15  1  0
 15  5  1  0
 16 14  1  0
 16 20  1  0
 17 16  2  0
 19 18  1  1
 19 21  1  0
 20 19  1  0
 21 23  2  0
 21 22  1  0
M  END
$$$$
