CRA.pdb
     RDKit          3D

 23 22  0  0  1  0  0  0  0  0999 V2000
   25.5066  -12.5534  -18.3189 N   0  0  0  0  0  0  0  0  0  0  0  0
   25.1607  -11.9499  -17.0504 C   0  0  1  0  0  0  0  0  0  0  0  0
   26.4400  -11.4532  -16.4033 C   0  0  0  0  0  0  0  0  0  0  0  0
   27.4646  -12.8600  -15.8495 S   0  0  0  0  0  0  0  0  0  0  0  0
   24.1671  -10.8564  -17.1890 C   0  0  0  0  0  0  0  0  0  0  0  0
   24.2361  -10.1074  -18.1948 O   0  0  0  0  0  0  0  0  0  0  0  0
   15.7148  -11.3219  -15.8058 N   0  0  0  0  0  0  0  0  0  0  0  0
   15.8711   -9.9251  -15.9796 C   0  0  0  0  0  0  0  0  0  0  0  0
   14.8633   -9.1158  -16.0999 N   0  0  0  0  0  0  0  0  0  0  0  0
   17.1633   -9.2879  -16.0371 N   0  0  0  0  0  0  0  0  0  0  0  0
   18.3599  -10.0645  -15.9602 C   0  0  0  0  0  0  0  0  0  0  0  0
   19.6153   -9.2563  -16.2673 C   0  0  0  0  0  0  0  0  0  0  0  0
   20.7725  -10.2065  -16.1360 C   0  0  0  0  0  0  0  0  0  0  0  0
   22.1157   -9.6388  -16.4467 C   0  0  2  0  0  0  0  0  0  0  0  0
   23.1611  -10.6451  -16.2262 N   0  0  0  0  0  0  0  0  0  0  0  0
   22.3916   -8.4687  -15.5832 C   0  0  0  0  0  0  0  0  0  0  0  0
   22.7710   -8.5842  -14.3996 O   0  0  0  0  0  0  0  0  0  0  0  0
   15.0912   -8.1040  -16.2096 C   0  0  0  0  0  0  0  0  0  0  0  0
   22.5075   -4.6989  -16.1224 C   0  0  1  0  0  0  0  0  0  0  0  0
   22.5245   -5.9797  -15.3574 N   0  0  0  0  0  0  0  0  0  0  0  0
   22.2203   -7.1473  -16.1125 C   0  0  0  0  0  0  0  0  0  0  0  0
   21.7857   -5.8599  -14.0692 O   0  0  0  0  0  0  0  0  0  0  0  0
   22.3290   -5.1371  -13.0296 O   0  0  0  0  0  0  0  0  0  0  0  0
  2  1  1  6
  2  3  1  0
  4  3  1  0
  5  2  1  0
  5  6  2  0
  7  8  1  0
  8  9  2  0
  8 10  1  0
 10 11  1  0
 11 12  1  0
 12 13  1  0
 14 13  1  1
 14 15  1  0
 15  5  1  0
 16 14  1  0
 16 20  1  0
 17 16  2  0
 19 18  1  6
 19 21  1  0
 20 19  1  0
 21 23  2  0
 21 22  1  0
M  END
$$$$
