CRA.pdb
     RDKit          3D

 23 22  0  0  1  0  0  0  0  0999 V2000
   26.9298  -12.0872  -17.9846 N   0  0  0  0  0  0  0  0  0  0  0  0
   26.3722  -11.4725  -16.7996 C   0  0  1  0  0  0  0  0  0  0  0  0
   27.4926  -10.7503  -16.0747 C   0  0  0  0  0  0  0  0  0  0  0  0
   28.6209  -11.9500  -15.2851 S   0  0  0  0  0  0  0  0  0  0  0  0
   25.2486  -10.5531  -17.1068 C   0  0  0  0  0  0  0  0  0  0  0  0
   25.3246   -9.8357  -18.1349 O   0  0  0  0  0  0  0  0  0  0  0  0
   17.6214  -12.7153  -15.5836 N   0  0  0  0  0  0  0  0  0  0  0  0
   17.7311  -11.4194  -15.0231 C   0  0  0  0  0  0  0  0  0  0  0  0
   16.8356  -10.9215  -14.2261 N   0  0  0  0  0  0  0  0  0  0  0  0
   18.8472  -10.5470  -15.2924 N   0  0  0  0  0  0  0  0  0  0  0  0
   19.2852  -10.3210  -16.6333 C   0  0  0  0  0  0  0  0  0  0  0  0
   20.4881   -9.3887  -16.7178 C   0  0  0  0  0  0  0  0  0  0  0  0
   21.7008  -10.2390  -16.4616 C   0  0  0  0  0  0  0  0  0  0  0  0
   23.0161   -9.5511  -16.6027 C   0  0  2  0  0  0  0  0  0  0  0  0
   24.1130  -10.4706  -16.2777 N   0  0  0  0  0  0  0  0  0  0  0  0
   23.0869   -8.3854  -15.6933 C   0  0  0  0  0  0  0  0  0  0  0  0
   23.2704   -8.5047  -14.4643 O   0  0  0  0  0  0  0  0  0  0  0  0
   17.0372   -9.9760  -13.8344 C   0  0  0  0  0  0  0  0  0  0  0  0
   23.1463   -4.6085  -16.1585 C   0  0  1  0  0  0  0  0  0  0  0  0
   23.0304   -5.8985  -15.4179 N   0  0  0  0  0  0  0  0  0  0  0  0
   22.9401   -7.0640  -16.2299 C   0  0  0  0  0  0  0  0  0  0  0  0
   22.0176   -5.8173  -14.3284 O   0  0  0  0  0  0  0  0  0  0  0  0
   22.3198   -5.1590  -13.1563 O   0  0  0  0  0  0  0  0  0  0  0  0
  2  1  1  6
  2  3  1  0
  4  3  1  0
  5  2  1  0
  5  6  2  0
  7  8  1  0
  8  9  2  0
  8 10  1  0
 10 11  1  0
 11 12  1  0
 12 13  1  0
 14 13  1  1
 14 15  1  0
 15  5  1  0
 16 14  1  0
 16 20  1  0
 17 16  2  0
 19 18  1  1
 19 21  1  0
 20 19  1  0
 21 23  2  0
 21 22  1  0
M  END
$$$$
