CRA.pdb
     RDKit          3D

 23 22  0  0  1  0  0  0  0  0999 V2000
   17.2267  -31.5220   -9.5909 N   0  0  0  0  0  0  0  0  0  0  0  0
   16.4497  -30.3690   -9.1909 C   0  0  1  0  0  0  0  0  0  0  0  0
   15.2638  -30.8607   -8.3821 C   0  0  0  0  0  0  0  0  0  0  0  0
   13.8518  -31.2329   -9.4792 S   0  0  0  0  0  0  0  0  0  0  0  0
   17.2482  -29.3776   -8.4283 C   0  0  0  0  0  0  0  0  0  0  0  0
   18.1043  -29.7980   -7.6111 O   0  0  0  0  0  0  0  0  0  0  0  0
   19.1447  -21.4420  -10.8532 N   0  0  0  0  0  0  0  0  0  0  0  0
   19.1421  -22.8284  -11.1420 C   0  0  0  0  0  0  0  0  0  0  0  0
   19.3042  -23.2956  -12.3421 N   0  0  0  0  0  0  0  0  0  0  0  0
   18.9590  -23.8346  -10.1254 N   0  0  0  0  0  0  0  0  0  0  0  0
   18.7608  -23.4607   -8.7610 C   0  0  0  0  0  0  0  0  0  0  0  0
   18.7262  -24.6554   -7.8150 C   0  0  0  0  0  0  0  0  0  0  0  0
   17.9113  -25.7151   -8.5020 C   0  0  0  0  0  0  0  0  0  0  0  0
   17.8413  -27.0318   -7.8059 C   0  0  2  0  0  0  0  0  0  0  0  0
   17.0666  -27.9917   -8.6012 N   0  0  0  0  0  0  0  0  0  0  0  0
   17.1965  -26.8801   -6.4823 C   0  0  0  0  0  0  0  0  0  0  0  0
   15.9739  -26.6632   -6.3537 O   0  0  0  0  0  0  0  0  0  0  0  0
   19.2214  -24.3294  -12.4528 C   0  0  0  0  0  0  0  0  0  0  0  0
   16.4933  -28.0083   -3.6292 C   0  0  2  0  0  0  0  0  0  0  0  0
   17.4295  -26.9042   -3.9905 N   0  0  0  0  0  0  0  0  0  0  0  0
   17.9936  -26.9829   -5.2950 C   0  0  0  0  0  0  0  0  0  0  0  0
   18.4107  -26.6377   -2.9016 O   0  0  0  0  0  0  0  0  0  0  0  0
   17.9658  -26.3717   -1.6250 O   0  0  0  0  0  0  0  0  0  0  0  0
  2  1  1  1
  2  3  1  0
  4  3  1  0
  5  2  1  0
  5  6  2  0
  7  8  1  0
  8  9  2  0
  8 10  1  0
 10 11  1  0
 11 12  1  0
 12 13  1  0
 14 13  1  6
 14 15  1  0
 15  5  1  0
 16 14  1  0
 16 20  1  0
 17 16  2  0
 19 18  1  6
 19 21  1  0
 20 19  1  0
 21 23  2  0
 21 22  1  0
M  END
$$$$
