IVC.pdb
     RDKit          3D

 22 21  0  0  1  0  0  0  0  0999 V2000
   16.2736  -14.6641  -19.2964 C   0  0  0  0  0  0  0  0  0  0  0  0
   17.6158  -14.9205  -18.6254 C   0  0  0  0  0  0  0  0  0  0  0  0
   17.9361  -13.8365  -17.6162 C   0  0  2  0  0  0  0  0  0  0  0  0
   18.1417  -12.5522  -18.3926 C   0  0  0  0  0  0  0  0  0  0  0  0
   19.2426  -14.1786  -16.9554 C   0  0  2  0  0  0  0  0  0  0  0  0
   19.1364  -15.4585  -16.3184 N   0  0  0  0  0  0  0  0  0  0  0  0
   19.6685  -13.1385  -15.9795 C   0  0  0  0  0  0  0  0  0  0  0  0
   18.9659  -12.9398  -14.9432 O   0  0  0  0  0  0  0  0  0  0  0  0
   23.4487  -11.5447  -16.3683 C   0  0  0  0  0  0  0  0  0  0  0  0
   22.7198  -11.4522  -15.0708 C   0  0  1  0  0  0  0  0  0  0  0  0
   23.3132  -10.3358  -14.2505 C   0  0  0  0  0  0  0  0  0  0  0  0
   21.2095  -11.2767  -15.2294 C   0  0  2  0  0  0  0  0  0  0  0  0
   20.8175  -12.3582  -16.1470 N   0  0  0  0  0  0  0  0  0  0  0  0
   20.8507   -9.9994  -15.8543 C   0  0  0  0  0  0  0  0  0  0  0  0
   21.1001   -9.8086  -17.0943 O   0  0  0  0  0  0  0  0  0  0  0  0
   20.2319   -8.9068  -15.2113 N   0  0  0  0  0  0  0  0  0  0  0  0
   20.0010   -7.6197  -15.8380 C   0  0  1  0  0  0  0  0  0  0  0  0
   18.5224   -7.3304  -15.7270 C   0  0  0  0  0  0  0  0  0  0  0  0
   18.1418   -5.5942  -16.0712 S   0  0  0  0  0  0  0  0  0  0  0  0
   20.8378   -6.5559  -15.2922 C   0  0  0  0  0  0  0  0  0  0  0  0
   21.2683   -5.5298  -16.1150 O   0  0  0  0  0  0  0  0  0  0  0  0
   21.1953   -6.5211  -14.0926 O   0  0  0  0  0  0  0  0  0  0  0  0
  1  2  1  0
  2  3  1  0
  3  4  1  6
  5  3  1  0
  5  6  1  1
  7  8  2  0
  7  5  1  0
 10  9  1  6
 10 12  1  0
 11 10  1  0
 12 13  1  6
 13  7  1  0
 14 12  1  0
 14 16  1  0
 15 14  2  0
 17 16  1  0
 17 20  1  0
 17 18  1  1
 19 18  1  0
 20 22  2  0
 20 21  1  0
M  END
$$$$
