IVC.pdb
     RDKit          3D

 22 21  0  0  1  0  0  0  0  0999 V2000
   16.7768  -29.4139   -5.0867 C   0  0  0  0  0  0  0  0  0  0  0  0
   16.8330  -28.0545   -5.7694 C   0  0  0  0  0  0  0  0  0  0  0  0
   16.6570  -26.9331   -4.7657 C   0  0  2  0  0  0  0  0  0  0  0  0
   15.3267  -27.1573   -4.0766 C   0  0  0  0  0  0  0  0  0  0  0  0
   16.5618  -25.6358   -5.5198 C   0  0  2  0  0  0  0  0  0  0  0  0
   17.8012  -25.3815   -6.1937 N   0  0  0  0  0  0  0  0  0  0  0  0
   16.2004  -24.4956   -4.6338 C   0  0  0  0  0  0  0  0  0  0  0  0
   17.1245  -23.8256   -4.0823 O   0  0  0  0  0  0  0  0  0  0  0  0
   13.6535  -21.7219   -5.6009 C   0  0  0  0  0  0  0  0  0  0  0  0
   13.3053  -22.3535   -4.2958 C   0  0  1  0  0  0  0  0  0  0  0  0
   12.2387  -23.3943   -4.5208 C   0  0  0  0  0  0  0  0  0  0  0  0
   14.5088  -22.9473   -3.5638 C   0  0  2  0  0  0  0  0  0  0  0  0
   14.8785  -24.1189   -4.3737 N   0  0  0  0  0  0  0  0  0  0  0  0
   14.1760  -23.4155   -2.2144 C   0  0  0  0  0  0  0  0  0  0  0  0
   13.2029  -24.2289   -2.0481 O   0  0  0  0  0  0  0  0  0  0  0  0
   14.8401  -23.0528   -1.0239 N   0  0  0  0  0  0  0  0  0  0  0  0
   14.4047  -23.4472    0.3019 C   0  0  1  0  0  0  0  0  0  0  0  0
   15.5661  -24.1559    0.9585 C   0  0  0  0  0  0  0  0  0  0  0  0
   16.7865  -24.7256   -0.2514 S   0  0  0  0  0  0  0  0  0  0  0  0
   13.8885  -22.3344    1.0924 C   0  0  0  0  0  0  0  0  0  0  0  0
   13.3713  -22.5695    2.3543 O   0  0  0  0  0  0  0  0  0  0  0  0
   13.8885  -21.1516    0.6810 O   0  0  0  0  0  0  0  0  0  0  0  0
  1  2  1  0
  2  3  1  0
  3  4  1  6
  5  3  1  0
  5  6  1  1
  7  8  2  0
  7  5  1  0
 10  9  1  6
 10 12  1  0
 11 10  1  0
 12 13  1  6
 13  7  1  0
 14 12  1  0
 14 16  1  0
 15 14  2  0
 17 16  1  0
 17 20  1  0
 17 18  1  1
 19 18  1  0
 20 22  2  0
 20 21  1  0
M  END
$$$$
