IVC.pdb
     RDKit          3D

 22 21  0  0  1  0  0  0  0  0999 V2000
   25.3651  -12.8949  -17.9228 C   0  0  0  0  0  0  0  0  0  0  0  0
   23.8936  -13.1083  -17.5967 C   0  0  0  0  0  0  0  0  0  0  0  0
   23.5312  -12.4699  -16.2711 C   0  0  2  0  0  0  0  0  0  0  0  0
   24.2039  -13.2850  -15.1859 C   0  0  0  0  0  0  0  0  0  0  0  0
   22.0458  -12.5976  -16.0765 C   0  0  2  0  0  0  0  0  0  0  0  0
   21.5638  -13.7357  -16.8028 N   0  0  0  0  0  0  0  0  0  0  0  0
   21.3172  -11.3654  -16.4845 C   0  0  0  0  0  0  0  0  0  0  0  0
   21.2976  -11.0368  -17.7086 O   0  0  0  0  0  0  0  0  0  0  0  0
   17.8082   -8.1550  -15.4446 C   0  0  0  0  0  0  0  0  0  0  0  0
   18.5495   -9.4401  -15.5939 C   0  0  1  0  0  0  0  0  0  0  0  0
   17.8491  -10.2974  -16.6166 C   0  0  0  0  0  0  0  0  0  0  0  0
   20.0256   -9.2568  -15.9467 C   0  0  2  0  0  0  0  0  0  0  0  0
   20.6443  -10.5399  -15.5774 N   0  0  0  0  0  0  0  0  0  0  0  0
   20.6687   -8.1999  -15.1591 C   0  0  0  0  0  0  0  0  0  0  0  0
   20.7413   -8.3129  -13.8871 O   0  0  0  0  0  0  0  0  0  0  0  0
   21.2435   -7.0178  -15.6713 N   0  0  0  0  0  0  0  0  0  0  0  0
   21.8985   -6.0134  -14.8557 C   0  0  1  0  0  0  0  0  0  0  0  0
   23.0934   -5.5177  -15.6360 C   0  0  0  0  0  0  0  0  0  0  0  0
   22.6056   -4.6577  -17.1526 S   0  0  0  0  0  0  0  0  0  0  0  0
   21.0024   -4.9418  -14.4334 C   0  0  0  0  0  0  0  0  0  0  0  0
   21.3740   -4.1040  -13.3965 O   0  0  0  0  0  0  0  0  0  0  0  0
   19.8904   -4.7350  -14.9708 O   0  0  0  0  0  0  0  0  0  0  0  0
  1  2  1  0
  2  3  1  0
  3  4  1  1
  5  3  1  0
  5  6  1  6
  7  8  2  0
  7  5  1  0
 10  9  1  6
 10 12  1  0
 11 10  1  0
 12 13  1  1
 13  7  1  0
 14 12  1  0
 14 16  1  0
 15 14  2  0
 17 16  1  0
 17 20  1  0
 17 18  1  6
 19 18  1  0
 20 22  2  0
 20 21  1  0
M  END
$$$$
