IVC.pdb
     RDKit          3D

 22 21  0  0  1  0  0  0  0  0999 V2000
   28.3587  -22.6079  -18.1643 C   0  0  0  0  0  0  0  0  0  0  0  0
   28.0105  -23.3279  -16.8690 C   0  0  0  0  0  0  0  0  0  0  0  0
   26.7549  -22.7520  -16.2462 C   0  0  2  0  0  0  0  0  0  0  0  0
   27.0498  -21.3056  -15.9062 C   0  0  0  0  0  0  0  0  0  0  0  0
   26.4949  -23.4755  -14.9541 C   0  0  2  0  0  0  0  0  0  0  0  0
   26.2811  -24.8679  -15.2195 N   0  0  0  0  0  0  0  0  0  0  0  0
   25.3429  -22.8986  -14.2085 C   0  0  0  0  0  0  0  0  0  0  0  0
   24.1654  -23.2360  -14.5347 O   0  0  0  0  0  0  0  0  0  0  0  0
   25.6130  -21.8587  -10.3347 C   0  0  0  0  0  0  0  0  0  0  0  0
   24.9705  -20.8066  -11.1736 C   0  0  1  0  0  0  0  0  0  0  0  0
   25.9753  -19.7194  -11.4560 C   0  0  0  0  0  0  0  0  0  0  0  0
   24.3622  -21.3446  -12.4687 C   0  0  2  0  0  0  0  0  0  0  0  0
   25.4923  -21.9923  -13.1534 N   0  0  0  0  0  0  0  0  0  0  0  0
   23.8538  -20.2802  -13.3401 C   0  0  0  0  0  0  0  0  0  0  0  0
   24.6357  -19.3390  -13.7129 O   0  0  0  0  0  0  0  0  0  0  0  0
   22.5378  -20.1734  -13.8369 N   0  0  0  0  0  0  0  0  0  0  0  0
   22.0417  -19.0345  -14.5852 C   0  0  1  0  0  0  0  0  0  0  0  0
   22.3426  -19.2953  -16.0425 C   0  0  0  0  0  0  0  0  0  0  0  0
   21.9459  -20.9946  -16.5249 S   0  0  0  0  0  0  0  0  0  0  0  0
   20.6335  -18.7485  -14.3307 C   0  0  0  0  0  0  0  0  0  0  0  0
   20.0283  -17.6698  -14.9515 O   0  0  0  0  0  0  0  0  0  0  0  0
   19.9275  -19.4422  -13.5636 O   0  0  0  0  0  0  0  0  0  0  0  0
  1  2  1  0
  2  3  1  0
  3  4  1  1
  5  3  1  0
  5  6  1  6
  7  8  2  0
  7  5  1  0
 10  9  1  6
 10 12  1  0
 11 10  1  0
 12 13  1  6
 13  7  1  0
 14 12  1  0
 14 16  1  0
 15 14  2  0
 17 16  1  0
 17 20  1  0
 17 18  1  6
 19 18  1  0
 20 22  2  0
 20 21  1  0
M  END
$$$$
