IVC.pdb
     RDKit          3D

 22 21  0  0  1  0  0  0  0  0999 V2000
   24.7472  -14.3545  -14.8469 C   0  0  0  0  0  0  0  0  0  0  0  0
   23.4122  -13.6662  -15.0946 C   0  0  0  0  0  0  0  0  0  0  0  0
   23.6050  -12.1913  -15.3836 C   0  0  2  0  0  0  0  0  0  0  0  0
   24.1790  -11.5635  -14.1302 C   0  0  0  0  0  0  0  0  0  0  0  0
   22.2533  -11.5761  -15.6183 C   0  0  2  0  0  0  0  0  0  0  0  0
   21.5498  -12.3310  -16.6133 N   0  0  0  0  0  0  0  0  0  0  0  0
   22.3482  -10.1440  -16.0131 C   0  0  0  0  0  0  0  0  0  0  0  0
   22.8630   -9.3139  -15.2052 O   0  0  0  0  0  0  0  0  0  0  0  0
   21.1140   -9.0724  -19.8639 C   0  0  0  0  0  0  0  0  0  0  0  0
   22.1280   -8.2571  -19.1355 C   0  0  1  0  0  0  0  0  0  0  0  0
   22.1363   -6.8603  -19.7014 C   0  0  0  0  0  0  0  0  0  0  0  0
   21.9224   -8.2368  -17.6209 C   0  0  2  0  0  0  0  0  0  0  0  0
   21.8937   -9.6590  -17.2441 N   0  0  0  0  0  0  0  0  0  0  0  0
   20.6413   -7.6385  -17.2316 C   0  0  0  0  0  0  0  0  0  0  0  0
   19.5754   -8.3449  -17.2672 O   0  0  0  0  0  0  0  0  0  0  0  0
   20.4436   -6.3096  -16.8017 N   0  0  0  0  0  0  0  0  0  0  0  0
   19.1650   -5.7757  -16.3737 C   0  0  1  0  0  0  0  0  0  0  0  0
   18.7494   -6.5498  -15.1448 C   0  0  0  0  0  0  0  0  0  0  0  0
   17.3632   -5.7653  -14.2840 S   0  0  0  0  0  0  0  0  0  0  0  0
   19.1859   -4.3316  -16.1643 C   0  0  0  0  0  0  0  0  0  0  0  0
   17.9947   -3.6373  -16.0454 O   0  0  0  0  0  0  0  0  0  0  0  0
   20.2475   -3.6723  -16.0845 O   0  0  0  0  0  0  0  0  0  0  0  0
  1  2  1  0
  2  3  1  0
  3  4  1  1
  5  3  1  0
  5  6  1  6
  7  8  2  0
  7  5  1  0
 10  9  1  6
 10 12  1  0
 11 10  1  0
 12 13  1  6
 13  7  1  0
 14 12  1  0
 14 16  1  0
 15 14  2  0
 17 16  1  0
 17 20  1  0
 17 18  1  1
 19 18  1  0
 20 22  2  0
 20 21  1  0
M  END
$$$$
