IVC.pdb
     RDKit          3D

 22 21  0  0  1  0  0  0  0  0999 V2000
   16.5269  -12.9984  -18.0256 C   0  0  0  0  0  0  0  0  0  0  0  0
   18.0479  -13.0334  -18.0766 C   0  0  0  0  0  0  0  0  0  0  0  0
   18.6496  -12.2077  -16.9575 C   0  0  2  0  0  0  0  0  0  0  0  0
   18.2919  -10.7612  -17.2297 C   0  0  0  0  0  0  0  0  0  0  0  0
   20.1465  -12.3252  -17.0372 C   0  0  2  0  0  0  0  0  0  0  0  0
   20.5222  -13.7073  -16.9772 N   0  0  0  0  0  0  0  0  0  0  0  0
   20.8293  -11.5470  -15.9677 C   0  0  0  0  0  0  0  0  0  0  0  0
   20.5642  -11.8013  -14.7544 O   0  0  0  0  0  0  0  0  0  0  0  0
   24.2633  -11.3433  -14.9271 C   0  0  0  0  0  0  0  0  0  0  0  0
   23.8671   -9.9616  -15.3240 C   0  0  1  0  0  0  0  0  0  0  0  0
   24.3442   -9.6963  -16.7288 C   0  0  0  0  0  0  0  0  0  0  0  0
   22.3679   -9.6939  -15.1916 C   0  0  2  0  0  0  0  0  0  0  0  0
   21.7600  -10.5369  -16.2333 N   0  0  0  0  0  0  0  0  0  0  0  0
   22.0150   -8.2988  -15.4741 C   0  0  0  0  0  0  0  0  0  0  0  0
   21.4783   -7.9955  -16.5948 O   0  0  0  0  0  0  0  0  0  0  0  0
   22.2097   -7.2027  -14.6075 N   0  0  0  0  0  0  0  0  0  0  0  0
   21.8398   -5.8377  -14.9283 C   0  0  1  0  0  0  0  0  0  0  0  0
   20.3457   -5.8228  -15.1508 C   0  0  0  0  0  0  0  0  0  0  0  0
   19.6882   -4.1382  -15.2378 S   0  0  0  0  0  0  0  0  0  0  0  0
   22.2821   -4.8718  -13.9276 C   0  0  0  0  0  0  0  0  0  0  0  0
   22.4436   -3.5432  -14.2794 O   0  0  0  0  0  0  0  0  0  0  0  0
   22.5288   -5.1878  -12.7413 O   0  0  0  0  0  0  0  0  0  0  0  0
  1  2  1  0
  2  3  1  0
  3  4  1  6
  5  3  1  0
  5  6  1  1
  7  8  2  0
  7  5  1  0
 10  9  1  6
 10 12  1  0
 11 10  1  0
 12 13  1  6
 13  7  1  0
 14 12  1  0
 14 16  1  0
 15 14  2  0
 17 16  1  0
 17 20  1  0
 17 18  1  1
 19 18  1  0
 20 22  2  0
 20 21  1  0
M  END
$$$$
