IVC.pdb
     RDKit          3D

 22 21  0  0  1  0  0  0  0  0999 V2000
   25.4195  -14.2604  -15.2854 C   0  0  0  0  0  0  0  0  0  0  0  0
   23.9548  -14.1563  -15.6866 C   0  0  0  0  0  0  0  0  0  0  0  0
   23.6348  -12.7775  -16.2273 C   0  0  2  0  0  0  0  0  0  0  0  0
   23.8355  -11.7961  -15.0910 C   0  0  0  0  0  0  0  0  0  0  0  0
   22.1788  -12.7437  -16.6012 C   0  0  2  0  0  0  0  0  0  0  0  0
   21.9060  -13.7756  -17.5581 N   0  0  0  0  0  0  0  0  0  0  0  0
   21.7641  -11.4145  -17.1274 C   0  0  0  0  0  0  0  0  0  0  0  0
   22.3431  -10.9495  -18.1547 O   0  0  0  0  0  0  0  0  0  0  0  0
   18.9492  -10.1705  -18.8594 C   0  0  0  0  0  0  0  0  0  0  0  0
   18.9921   -9.4389  -17.5609 C   0  0  1  0  0  0  0  0  0  0  0  0
   18.0814  -10.1272  -16.5769 C   0  0  0  0  0  0  0  0  0  0  0  0
   20.4027   -9.2857  -16.9920 C   0  0  2  0  0  0  0  0  0  0  0  0
   20.7564  -10.6411  -16.5413 N   0  0  0  0  0  0  0  0  0  0  0  0
   20.4499   -8.3942  -15.8285 C   0  0  0  0  0  0  0  0  0  0  0  0
   20.0609   -8.8209  -14.6871 O   0  0  0  0  0  0  0  0  0  0  0  0
   20.8979   -7.0565  -15.8269 N   0  0  0  0  0  0  0  0  0  0  0  0
   20.9143   -6.2066  -14.6520 C   0  0  1  0  0  0  0  0  0  0  0  0
   22.3504   -5.8001  -14.4178 C   0  0  0  0  0  0  0  0  0  0  0  0
   22.5093   -4.6225  -13.0519 S   0  0  0  0  0  0  0  0  0  0  0  0
   20.0038   -5.0705  -14.7513 C   0  0  0  0  0  0  0  0  0  0  0  0
   19.3732   -4.5938  -13.6154 O   0  0  0  0  0  0  0  0  0  0  0  0
   19.7568   -4.4907  -15.8335 O   0  0  0  0  0  0  0  0  0  0  0  0
  1  2  1  0
  2  3  1  0
  3  4  1  1
  5  3  1  0
  5  6  1  6
  7  8  2  0
  7  5  1  0
 10  9  1  6
 10 12  1  0
 11 10  1  0
 12 13  1  1
 13  7  1  0
 14 12  1  0
 14 16  1  0
 15 14  2  0
 17 16  1  0
 17 20  1  0
 17 18  1  6
 19 18  1  0
 20 22  2  0
 20 21  1  0
M  END
$$$$
