RSW.pdb
     RDKit          3D

 32 33  0  0  1  0  0  0  0  0999 V2000
   15.3979  -15.4465   13.8169 N   0  0  0  0  0  0  0  0  0  0  0  0
   15.4322  -16.2268   14.9826 C   0  0  0  0  0  0  0  0  0  0  0  0
   15.2456  -17.4985   14.9253 N   0  0  0  0  0  0  0  0  0  0  0  0
   15.6692  -15.6874   16.2847 N   0  0  0  0  0  0  0  0  0  0  0  0
   14.5508  -15.3438   17.1594 C   0  0  0  0  0  0  0  0  0  0  0  0
   13.7750  -16.5855   17.5513 C   0  0  0  0  0  0  0  0  0  0  0  0
   12.7358  -16.1964   18.5770 C   0  0  0  0  0  0  0  0  0  0  0  0
   11.5407  -17.0914   18.5757 C   0  0  2  0  0  0  0  0  0  0  0  0
   10.9433  -17.0578   17.2556 N   0  0  0  0  0  0  0  0  0  0  0  0
   10.5600  -16.7445   19.6337 C   0  0  0  0  0  0  0  0  0  0  0  0
    9.8337  -15.7323   19.4683 O   0  0  0  0  0  0  0  0  0  0  0  0
   15.1371  -18.0703   15.7973 O   0  0  0  0  0  0  0  0  0  0  0  0
    9.0248  -19.4896   22.2424 C   0  0  0  0  0  0  0  0  0  0  0  0
    8.4489  -18.2594   21.9812 C   0  0  1  0  0  0  0  0  0  0  0  0
    9.4835  -17.1636   21.8733 N   0  0  0  0  0  0  0  0  0  0  0  0
   10.3909  -17.4844   20.8211 C   0  0  0  0  0  0  0  0  0  0  0  0
   10.1311  -16.9373   23.1857 O   0  0  0  0  0  0  0  0  0  0  0  0
   11.2348  -17.4645   23.4365 N   0  0  0  0  0  0  0  0  0  0  0  0
    9.5311  -16.1340   24.1721 C   0  0  1  0  0  0  0  0  0  0  0  0
   10.1787  -16.0533   25.4910 C   0  0  0  0  0  0  0  0  0  0  0  0
    9.8152  -14.7459   26.1486 C   0  0  0  0  0  0  0  0  0  0  0  0
    8.3953  -14.3833   26.0748 C   0  0  0  0  0  0  0  0  0  0  0  0
    7.4057  -15.3451   25.9237 N   0  0  0  0  0  0  0  0  0  0  0  0
    6.2322  -14.7286   25.9490 C   0  0  0  0  0  0  0  0  0  0  0  0
    6.3829  -13.4038   26.1080 C   0  0  0  0  0  0  0  0  0  0  0  0
    5.4667  -12.3700   26.1786 C   0  0  0  0  0  0  0  0  0  0  0  0
    5.9626  -11.0956   26.3295 C   0  0  0  0  0  0  0  0  0  0  0  0
    7.2978  -10.8416   26.4076 C   0  0  0  0  0  0  0  0  0  0  0  0
    8.2049  -11.8873   26.3359 C   0  0  0  0  0  0  0  0  0  0  0  0
    7.7553  -13.1913   26.1859 C   0  0  0  0  0  0  0  0  0  0  0  0
    9.6932  -17.1865   26.2837 O   0  0  0  0  0  0  0  0  0  0  0  0
    8.7205  -17.9080   25.9481 O   0  0  0  0  0  0  0  0  0  0  0  0
  2  3  2  0
  2  1  1  0
  4  2  1  0
  5  4  1  0
  6  5  1  0
  7  6  1  0
  7  8  1  0
  8  9  1  6
 10  8  1  0
 10 11  2  0
 13 12  1  0
 14 13  1  6
 14 15  1  0
 15 10  1  0
 16 18  1  0
 16 14  1  0
 17 16  2  0
 19 18  1  0
 19 30  1  0
 20 21  1  0
 19 20  1  1
 21 29  1  0
 22 23  1  0
 22 21  2  0
 23 24  1  0
 24 29  2  0
 24 25  1  0
 25 26  2  0
 26 27  1  0
 28 27  2  0
 29 28  1  0
 30 31  2  0
 30 32  1  0
M  END
$$$$
