RSW.pdb
     RDKit          3D

 32 33  0  0  1  0  0  0  0  0999 V2000
   10.1324  -12.4807   18.9840 N   0  0  0  0  0  0  0  0  0  0  0  0
    8.8864  -12.6593   19.6040 C   0  0  0  0  0  0  0  0  0  0  0  0
    7.8254  -12.1277   19.1071 N   0  0  0  0  0  0  0  0  0  0  0  0
    8.7035  -13.4215   20.7991 N   0  0  0  0  0  0  0  0  0  0  0  0
    8.4968  -14.8659   20.7325 C   0  0  0  0  0  0  0  0  0  0  0  0
    7.0901  -15.1858   20.2674 C   0  0  0  0  0  0  0  0  0  0  0  0
    7.1163  -16.5101   19.5400 C   0  0  0  0  0  0  0  0  0  0  0  0
    8.3615  -17.2958   19.7886 C   0  0  2  0  0  0  0  0  0  0  0  0
    8.3826  -18.4230   18.8776 N   0  0  0  0  0  0  0  0  0  0  0  0
    8.4985  -17.7262   21.2018 C   0  0  0  0  0  0  0  0  0  0  0  0
    7.4887  -18.1934   21.7861 O   0  0  0  0  0  0  0  0  0  0  0  0
    6.9004  -12.2066   19.5942 O   0  0  0  0  0  0  0  0  0  0  0  0
   12.1920  -18.6542   22.7215 C   0  0  0  0  0  0  0  0  0  0  0  0
   11.0109  -19.1883   23.2039 C   0  0  1  0  0  0  0  0  0  0  0  0
    9.9036  -18.1613   23.2480 N   0  0  0  0  0  0  0  0  0  0  0  0
    9.6990  -17.6433   21.9353 C   0  0  0  0  0  0  0  0  0  0  0  0
   10.1997  -17.1299   24.2684 O   0  0  0  0  0  0  0  0  0  0  0  0
   10.9098  -16.1459   23.9739 N   0  0  0  0  0  0  0  0  0  0  0  0
    9.6971  -17.2270   25.5784 C   0  0  1  0  0  0  0  0  0  0  0  0
   10.2120  -16.2919   26.5914 C   0  0  0  0  0  0  0  0  0  0  0  0
    9.0860  -15.8681   27.5005 C   0  0  0  0  0  0  0  0  0  0  0  0
    7.9470  -15.2319   26.8290 C   0  0  0  0  0  0  0  0  0  0  0  0
    6.8808  -15.9761   26.3427 N   0  0  0  0  0  0  0  0  0  0  0  0
    5.9873  -15.1309   25.8474 C   0  0  0  0  0  0  0  0  0  0  0  0
    6.3989  -13.8592   25.9751 C   0  0  0  0  0  0  0  0  0  0  0  0
    5.8231  -12.6582   25.6018 C   0  0  0  0  0  0  0  0  0  0  0  0
    6.5312  -11.5087   25.8668 C   0  0  0  0  0  0  0  0  0  0  0  0
    7.7511  -11.5316   26.4706 C   0  0  0  0  0  0  0  0  0  0  0  0
    8.3162  -12.7423   26.8399 C   0  0  0  0  0  0  0  0  0  0  0  0
    7.6412  -13.9299   26.5965 C   0  0  0  0  0  0  0  0  0  0  0  0
   11.2517  -16.9976   27.3459 O   0  0  0  0  0  0  0  0  0  0  0  0
   11.8995  -16.4828   28.2916 O   0  0  0  0  0  0  0  0  0  0  0  0
  2  3  2  0
  2  1  1  0
  4  2  1  0
  5  4  1  0
  6  5  1  0
  7  6  1  0
  7  8  1  0
  8  9  1  6
 10  8  1  0
 10 11  2  0
 13 12  1  0
 14 13  1  6
 14 15  1  0
 15 10  1  0
 16 18  1  0
 16 14  1  0
 17 16  2  0
 19 18  1  0
 19 30  1  0
 20 21  1  0
 19 20  1  1
 21 29  1  0
 22 23  1  0
 22 21  2  0
 23 24  1  0
 24 29  2  0
 24 25  1  0
 25 26  2  0
 26 27  1  0
 28 27  2  0
 29 28  1  0
 30 31  2  0
 30 32  1  0
M  END
$$$$
