RSW.pdb
     RDKit          3D

 32 33  0  0  1  0  0  0  0  0999 V2000
   11.2046  -13.8909   20.6540 N   0  0  0  0  0  0  0  0  0  0  0  0
   11.2038  -13.8298   19.2522 C   0  0  0  0  0  0  0  0  0  0  0  0
   12.2781  -14.0682   18.5855 N   0  0  0  0  0  0  0  0  0  0  0  0
   10.0461  -13.5075   18.4786 N   0  0  0  0  0  0  0  0  0  0  0  0
    9.0717  -12.5376   18.9718 C   0  0  0  0  0  0  0  0  0  0  0  0
    7.6849  -13.1475   19.0203 C   0  0  0  0  0  0  0  0  0  0  0  0
    7.5602  -13.9515   20.2937 C   0  0  0  0  0  0  0  0  0  0  0  0
    7.5085  -15.4252   20.0589 C   0  0  2  0  0  0  0  0  0  0  0  0
    6.2191  -15.7535   19.4839 N   0  0  0  0  0  0  0  0  0  0  0  0
    7.7823  -16.2138   21.2854 C   0  0  0  0  0  0  0  0  0  0  0  0
    6.8283  -16.4564   22.0668 O   0  0  0  0  0  0  0  0  0  0  0  0
   12.2853  -14.0318   17.5378 O   0  0  0  0  0  0  0  0  0  0  0  0
   11.5471  -17.9132   21.9428 C   0  0  0  0  0  0  0  0  0  0  0  0
   10.4123  -18.4814   22.4928 C   0  0  1  0  0  0  0  0  0  0  0  0
    9.3618  -17.4445   22.8155 N   0  0  0  0  0  0  0  0  0  0  0  0
    9.0545  -16.7116   21.6315 C   0  0  0  0  0  0  0  0  0  0  0  0
    9.8014  -16.6042   23.9528 O   0  0  0  0  0  0  0  0  0  0  0  0
   10.4487  -15.5574   23.7421 N   0  0  0  0  0  0  0  0  0  0  0  0
    9.5067  -16.9552   25.2825 C   0  0  1  0  0  0  0  0  0  0  0  0
   10.3645  -16.4163   26.3499 C   0  0  0  0  0  0  0  0  0  0  0  0
    9.8749  -15.0450   26.7418 C   0  0  0  0  0  0  0  0  0  0  0  0
    8.4385  -14.8160   26.5490 C   0  0  0  0  0  0  0  0  0  0  0  0
    7.5690  -15.8572   26.2541 N   0  0  0  0  0  0  0  0  0  0  0  0
    6.3419  -15.3584   26.1966 C   0  0  0  0  0  0  0  0  0  0  0  0
    6.3430  -14.0372   26.4364 C   0  0  0  0  0  0  0  0  0  0  0  0
    5.3246  -13.1018   26.4701 C   0  0  0  0  0  0  0  0  0  0  0  0
    5.6736  -11.7971   26.7328 C   0  0  0  0  0  0  0  0  0  0  0  0
    6.9635  -11.4218   26.9529 C   0  0  0  0  0  0  0  0  0  0  0  0
    7.9742  -12.3699   26.9166 C   0  0  0  0  0  0  0  0  0  0  0  0
    7.6740  -13.6995   26.6578 C   0  0  0  0  0  0  0  0  0  0  0  0
   10.2810  -17.3417   27.4834 O   0  0  0  0  0  0  0  0  0  0  0  0
   10.8437  -18.4650   27.5110 O   0  0  0  0  0  0  0  0  0  0  0  0
  2  3  2  0
  2  1  1  0
  4  2  1  0
  5  4  1  0
  6  5  1  0
  7  6  1  0
  7  8  1  0
  8  9  1  1
 10  8  1  0
 10 11  2  0
 13 12  1  0
 14 13  1  6
 14 15  1  0
 15 10  1  0
 16 18  1  0
 16 14  1  0
 17 16  2  0
 19 18  1  0
 19 30  1  0
 20 21  1  0
 19 20  1  1
 21 29  1  0
 22 23  1  0
 22 21  2  0
 23 24  1  0
 24 29  2  0
 24 25  1  0
 25 26  2  0
 26 27  1  0
 28 27  2  0
 29 28  1  0
 30 31  2  0
 30 32  1  0
M  END
$$$$
