RSW.pdb
     RDKit          3D

 32 33  0  0  1  0  0  0  0  0999 V2000
    8.1192  -13.1718   15.9863 N   0  0  0  0  0  0  0  0  0  0  0  0
    8.4869  -13.7531   14.7633 C   0  0  0  0  0  0  0  0  0  0  0  0
    8.8723  -13.0196   13.7791 N   0  0  0  0  0  0  0  0  0  0  0  0
    8.4627  -15.1615   14.5218 N   0  0  0  0  0  0  0  0  0  0  0  0
    8.7166  -16.1042   15.6084 C   0  0  0  0  0  0  0  0  0  0  0  0
   10.1941  -16.4290   15.7026 C   0  0  0  0  0  0  0  0  0  0  0  0
   10.7541  -15.7567   16.9347 C   0  0  0  0  0  0  0  0  0  0  0  0
   10.7912  -16.6508   18.1299 C   0  0  2  0  0  0  0  0  0  0  0  0
   10.0822  -17.8740   17.8105 N   0  0  0  0  0  0  0  0  0  0  0  0
   10.2512  -16.0032   19.3507 C   0  0  0  0  0  0  0  0  0  0  0  0
   10.7452  -14.9066   19.7153 O   0  0  0  0  0  0  0  0  0  0  0  0
    9.1578  -13.4457   12.8646 O   0  0  0  0  0  0  0  0  0  0  0  0
    6.9578  -17.6395   21.4109 C   0  0  0  0  0  0  0  0  0  0  0  0
    7.1688  -16.2741   21.3462 C   0  0  1  0  0  0  0  0  0  0  0  0
    8.6393  -15.9325   21.2866 N   0  0  0  0  0  0  0  0  0  0  0  0
    9.2113  -16.5447   20.1327 C   0  0  0  0  0  0  0  0  0  0  0  0
    9.3034  -16.2965   22.5592 O   0  0  0  0  0  0  0  0  0  0  0  0
   10.0621  -17.2871   22.6065 N   0  0  0  0  0  0  0  0  0  0  0  0
    9.1023  -15.5482   23.7329 C   0  0  2  0  0  0  0  0  0  0  0  0
    9.7252  -16.0267   24.9774 C   0  0  0  0  0  0  0  0  0  0  0  0
    9.4085  -15.0678   26.0972 C   0  0  0  0  0  0  0  0  0  0  0  0
    8.0338  -14.5549   26.1102 C   0  0  0  0  0  0  0  0  0  0  0  0
    6.9406  -15.4005   25.9794 N   0  0  0  0  0  0  0  0  0  0  0  0
    5.8426  -14.6651   26.0868 C   0  0  0  0  0  0  0  0  0  0  0  0
    6.1421  -13.3708   26.2817 C   0  0  0  0  0  0  0  0  0  0  0  0
    5.3466  -12.2496   26.4347 C   0  0  0  0  0  0  0  0  0  0  0  0
    5.9831  -11.0414   26.6018 C   0  0  0  0  0  0  0  0  0  0  0  0
    7.3400  -10.9328   26.6180 C   0  0  0  0  0  0  0  0  0  0  0  0
    8.1251  -12.0648   26.4639 C   0  0  0  0  0  0  0  0  0  0  0  0
    7.5315  -13.3073   26.2944 C   0  0  0  0  0  0  0  0  0  0  0  0
    9.1716  -17.3545   25.2579 O   0  0  0  0  0  0  0  0  0  0  0  0
    8.1374  -17.8103   24.7087 O   0  0  0  0  0  0  0  0  0  0  0  0
  2  3  2  0
  2  1  1  0
  4  2  1  0
  5  4  1  0
  6  5  1  0
  7  6  1  0
  7  8  1  0
  8  9  1  6
 10  8  1  0
 10 11  2  0
 13 12  1  0
 14 13  1  6
 14 15  1  0
 15 10  1  0
 16 18  1  0
 16 14  1  0
 17 16  2  0
 19 18  1  0
 19 30  1  0
 20 21  1  0
 19 20  1  6
 21 29  1  0
 22 23  1  0
 22 21  2  0
 23 24  1  0
 24 29  2  0
 24 25  1  0
 25 26  2  0
 26 27  1  0
 28 27  2  0
 29 28  1  0
 30 31  2  0
 30 32  1  0
M  END
$$$$
