RSW.pdb
     RDKit          3D

 32 33  0  0  1  0  0  0  0  0999 V2000
    8.3257  -15.2766   16.6526 N   0  0  0  0  0  0  0  0  0  0  0  0
    8.1572  -13.8896   16.7822 C   0  0  0  0  0  0  0  0  0  0  0  0
    8.1117  -13.1352   15.7410 N   0  0  0  0  0  0  0  0  0  0  0  0
    8.0276  -13.2263   18.0415 N   0  0  0  0  0  0  0  0  0  0  0  0
    8.4257  -13.8967   19.2767 C   0  0  0  0  0  0  0  0  0  0  0  0
    7.2084  -14.3572   20.0536 C   0  0  0  0  0  0  0  0  0  0  0  0
    7.6775  -15.0322   21.3217 C   0  0  0  0  0  0  0  0  0  0  0  0
    8.3824  -16.3254   21.0763 C   0  0  2  0  0  0  0  0  0  0  0  0
    7.5810  -17.1198   20.1666 N   0  0  0  0  0  0  0  0  0  0  0  0
    8.6885  -17.0611   22.3278 C   0  0  0  0  0  0  0  0  0  0  0  0
    7.7334  -17.5390   22.9903 O   0  0  0  0  0  0  0  0  0  0  0  0
    8.0072  -12.0958   15.8289 O   0  0  0  0  0  0  0  0  0  0  0  0
   12.6301  -17.8298   23.4178 C   0  0  0  0  0  0  0  0  0  0  0  0
   11.6190  -18.6364   23.9079 C   0  0  1  0  0  0  0  0  0  0  0  0
   10.3202  -17.8807   24.0646 N   0  0  0  0  0  0  0  0  0  0  0  0
    9.9927  -17.2591   22.8237 C   0  0  0  0  0  0  0  0  0  0  0  0
   10.4051  -16.9446   25.2089 O   0  0  0  0  0  0  0  0  0  0  0  0
   10.9529  -15.8318   25.0658 N   0  0  0  0  0  0  0  0  0  0  0  0
    9.8789  -17.2767   26.4702 C   0  0  1  0  0  0  0  0  0  0  0  0
   10.1761  -16.3863   27.6035 C   0  0  0  0  0  0  0  0  0  0  0  0
    8.8978  -15.7528   28.0917 C   0  0  0  0  0  0  0  0  0  0  0  0
    8.0710  -15.1322   27.0504 C   0  0  0  0  0  0  0  0  0  0  0  0
    7.1985  -15.8805   26.2720 N   0  0  0  0  0  0  0  0  0  0  0  0
    6.5528  -15.0465   25.4687 C   0  0  0  0  0  0  0  0  0  0  0  0
    6.9473  -13.7783   25.6668 C   0  0  0  0  0  0  0  0  0  0  0  0
    6.5743  -12.5887   25.0676 C   0  0  0  0  0  0  0  0  0  0  0  0
    7.1981  -11.4410   25.4995 C   0  0  0  0  0  0  0  0  0  0  0  0
    8.1471  -11.4549   26.4754 C   0  0  0  0  0  0  0  0  0  0  0  0
    8.5109  -12.6542   27.0677 C   0  0  0  0  0  0  0  0  0  0  0  0
    7.9098  -13.8394   26.6690 C   0  0  0  0  0  0  0  0  0  0  0  0
   10.7833  -17.2082   28.6543 O   0  0  0  0  0  0  0  0  0  0  0  0
   11.1100  -16.7671   29.7847 O   0  0  0  0  0  0  0  0  0  0  0  0
  2  3  2  0
  2  1  1  0
  4  2  1  0
  5  4  1  0
  6  5  1  0
  7  6  1  0
  7  8  1  0
  8  9  1  6
 10  8  1  0
 10 11  2  0
 13 12  1  0
 14 13  1  6
 14 15  1  0
 15 10  1  0
 16 18  1  0
 16 14  1  0
 17 16  2  0
 19 18  1  0
 19 30  1  0
 20 21  1  0
 19 20  1  1
 21 29  1  0
 22 23  1  0
 22 21  2  0
 23 24  1  0
 24 29  2  0
 24 25  1  0
 25 26  2  0
 26 27  1  0
 28 27  2  0
 29 28  1  0
 30 31  2  0
 30 32  1  0
M  END
$$$$
