RSW.pdb
     RDKit          3D

 32 33  0  0  1  0  0  0  0  0999 V2000
    8.4474  -12.1022   15.9378 N   0  0  0  0  0  0  0  0  0  0  0  0
    8.3551  -13.1038   14.9596 C   0  0  0  0  0  0  0  0  0  0  0  0
    8.5324  -12.8236   13.7165 N   0  0  0  0  0  0  0  0  0  0  0  0
    8.0657  -14.4713   15.2575 N   0  0  0  0  0  0  0  0  0  0  0  0
    7.8082  -14.8918   16.6325 C   0  0  0  0  0  0  0  0  0  0  0  0
    8.9805  -14.5443   17.5283 C   0  0  0  0  0  0  0  0  0  0  0  0
    8.6607  -15.0003   18.9330 C   0  0  0  0  0  0  0  0  0  0  0  0
    8.8196  -16.4723   19.1266 C   0  0  2  0  0  0  0  0  0  0  0  0
    7.8364  -17.1520   18.3065 N   0  0  0  0  0  0  0  0  0  0  0  0
    8.7266  -16.8795   20.5502 C   0  0  0  0  0  0  0  0  0  0  0  0
    7.6822  -16.5931   21.1880 O   0  0  0  0  0  0  0  0  0  0  0  0
    8.5617  -13.5784   12.9895 O   0  0  0  0  0  0  0  0  0  0  0  0
   11.7429  -19.2062   22.3686 C   0  0  0  0  0  0  0  0  0  0  0  0
   10.4118  -19.3188   22.7275 C   0  0  1  0  0  0  0  0  0  0  0  0
    9.6784  -18.0046   22.5945 N   0  0  0  0  0  0  0  0  0  0  0  0
    9.7435  -17.5725   21.2370 C   0  0  0  0  0  0  0  0  0  0  0  0
   10.2032  -17.0221   23.5702 O   0  0  0  0  0  0  0  0  0  0  0  0
   11.1445  -16.2665   23.2507 N   0  0  0  0  0  0  0  0  0  0  0  0
    9.6646  -16.9131   24.8649 C   0  0  1  0  0  0  0  0  0  0  0  0
   10.4589  -16.2202   25.8919 C   0  0  0  0  0  0  0  0  0  0  0  0
    9.9389  -14.8153   26.0642 C   0  0  0  0  0  0  0  0  0  0  0  0
    8.4819  -14.7004   26.1946 C   0  0  0  0  0  0  0  0  0  0  0  0
    7.6622  -15.8206   26.2108 N   0  0  0  0  0  0  0  0  0  0  0  0
    6.4156  -15.4097   26.3977 C   0  0  0  0  0  0  0  0  0  0  0  0
    6.3561  -14.0727   26.5066 C   0  0  0  0  0  0  0  0  0  0  0  0
    5.2945  -13.2056   26.6919 C   0  0  0  0  0  0  0  0  0  0  0  0
    5.5790  -11.8604   26.7427 C   0  0  0  0  0  0  0  0  0  0  0  0
    6.8474  -11.3823   26.6170 C   0  0  0  0  0  0  0  0  0  0  0  0
    7.9020  -12.2628   26.4321 C   0  0  0  0  0  0  0  0  0  0  0  0
    7.6679  -13.6292   26.3760 C   0  0  0  0  0  0  0  0  0  0  0  0
   10.3200  -16.9822   27.1362 O   0  0  0  0  0  0  0  0  0  0  0  0
   10.8566  -16.6494   28.2226 O   0  0  0  0  0  0  0  0  0  0  0  0
  2  3  2  0
  2  1  1  0
  4  2  1  0
  5  4  1  0
  6  5  1  0
  7  6  1  0
  7  8  1  0
  8  9  1  6
 10  8  1  0
 10 11  2  0
 13 12  1  0
 14 13  1  6
 14 15  1  0
 15 10  1  0
 16 18  1  0
 16 14  1  0
 17 16  2  0
 19 18  1  0
 19 30  1  0
 20 21  1  0
 19 20  1  1
 21 29  1  0
 22 23  1  0
 22 21  2  0
 23 24  1  0
 24 29  2  0
 24 25  1  0
 25 26  2  0
 26 27  1  0
 28 27  2  0
 29 28  1  0
 30 31  2  0
 30 32  1  0
M  END
$$$$
