RSW.pdb
     RDKit          3D

 32 33  0  0  1  0  0  0  0  0999 V2000
    7.6848  -13.3735   15.9435 N   0  0  0  0  0  0  0  0  0  0  0  0
    8.4811  -13.3634   17.0988 C   0  0  0  0  0  0  0  0  0  0  0  0
    9.5940  -14.0081   17.1328 N   0  0  0  0  0  0  0  0  0  0  0  0
    8.1297  -12.6586   18.2914 N   0  0  0  0  0  0  0  0  0  0  0  0
    7.2977  -13.2943   19.3099 C   0  0  0  0  0  0  0  0  0  0  0  0
    8.1571  -13.9675   20.3613 C   0  0  0  0  0  0  0  0  0  0  0  0
    7.3042  -14.9665   21.1084 C   0  0  0  0  0  0  0  0  0  0  0  0
    7.7770  -16.3749   20.9593 C   0  0  2  0  0  0  0  0  0  0  0  0
    6.7052  -17.1601   20.3800 N   0  0  0  0  0  0  0  0  0  0  0  0
    8.2607  -16.9582   22.2349 C   0  0  0  0  0  0  0  0  0  0  0  0
    7.4114  -17.3307   23.0830 O   0  0  0  0  0  0  0  0  0  0  0  0
   10.2212  -13.9629   17.9717 O   0  0  0  0  0  0  0  0  0  0  0  0
   12.3592  -17.5525   22.9089 C   0  0  0  0  0  0  0  0  0  0  0  0
   11.4233  -18.3863   23.4937 C   0  0  1  0  0  0  0  0  0  0  0  0
   10.1247  -17.6673   23.7754 N   0  0  0  0  0  0  0  0  0  0  0  0
    9.6228  -17.1220   22.5571 C   0  0  0  0  0  0  0  0  0  0  0  0
   10.3126  -16.6709   24.8546 O   0  0  0  0  0  0  0  0  0  0  0  0
   10.8861  -15.5886   24.6123 N   0  0  0  0  0  0  0  0  0  0  0  0
    9.8570  -16.9110   26.1634 C   0  0  1  0  0  0  0  0  0  0  0  0
   10.4245  -16.1044   27.2557 C   0  0  0  0  0  0  0  0  0  0  0  0
    9.3269  -15.3035   27.9096 C   0  0  0  0  0  0  0  0  0  0  0  0
    8.2541  -14.8637   27.0103 C   0  0  0  0  0  0  0  0  0  0  0  0
    7.3532  -15.7638   26.4578 N   0  0  0  0  0  0  0  0  0  0  0  0
    6.4742  -15.0734   25.7446 C   0  0  0  0  0  0  0  0  0  0  0  0
    6.7390  -13.7578   25.7890 C   0  0  0  0  0  0  0  0  0  0  0  0
    6.1195  -12.6687   25.2029 C   0  0  0  0  0  0  0  0  0  0  0  0
    6.6656  -11.4283   25.4397 C   0  0  0  0  0  0  0  0  0  0  0  0
    7.7709  -11.2588   26.2160 C   0  0  0  0  0  0  0  0  0  0  0  0
    8.3814  -12.3591   26.7976 C   0  0  0  0  0  0  0  0  0  0  0  0
    7.8682  -13.6315   26.5912 C   0  0  0  0  0  0  0  0  0  0  0  0
   11.0305  -17.0342   28.2130 O   0  0  0  0  0  0  0  0  0  0  0  0
   10.9436  -18.2846   28.1231 O   0  0  0  0  0  0  0  0  0  0  0  0
  2  3  2  0
  2  1  1  0
  4  2  1  0
  5  4  1  0
  6  5  1  0
  7  6  1  0
  7  8  1  0
  8  9  1  1
 10  8  1  0
 10 11  2  0
 13 12  1  0
 14 13  1  6
 14 15  1  0
 15 10  1  0
 16 18  1  0
 16 14  1  0
 17 16  2  0
 19 18  1  0
 19 30  1  0
 20 21  1  0
 19 20  1  1
 21 29  1  0
 22 23  1  0
 22 21  2  0
 23 24  1  0
 24 29  2  0
 24 25  1  0
 25 26  2  0
 26 27  1  0
 28 27  2  0
 29 28  1  0
 30 31  2  0
 30 32  1  0
M  END
$$$$
