RSW.pdb
     RDKit          3D

 32 33  0  0  1  0  0  0  0  0999 V2000
    7.9236  -13.3018   14.8124 N   0  0  0  0  0  0  0  0  0  0  0  0
    8.6645  -13.1509   15.9944 C   0  0  0  0  0  0  0  0  0  0  0  0
    8.5492  -12.0868   16.7083 N   0  0  0  0  0  0  0  0  0  0  0  0
    9.5773  -14.1361   16.4829 N   0  0  0  0  0  0  0  0  0  0  0  0
    9.0919  -15.2808   17.2495 C   0  0  0  0  0  0  0  0  0  0  0  0
    7.6949  -15.0202   17.7764 C   0  0  0  0  0  0  0  0  0  0  0  0
    7.6474  -15.4311   19.2298 C   0  0  0  0  0  0  0  0  0  0  0  0
    8.2950  -16.7508   19.4918 C   0  0  2  0  0  0  0  0  0  0  0  0
    7.6870  -17.7407   18.6249 N   0  0  0  0  0  0  0  0  0  0  0  0
    8.2283  -17.1520   20.9186 C   0  0  0  0  0  0  0  0  0  0  0  0
    7.1360  -17.0230   21.5266 O   0  0  0  0  0  0  0  0  0  0  0  0
    9.2141  -11.8863   17.4937 O   0  0  0  0  0  0  0  0  0  0  0  0
   11.2040  -19.5012   22.6163 C   0  0  0  0  0  0  0  0  0  0  0  0
    9.9012  -19.4909   23.0806 C   0  0  1  0  0  0  0  0  0  0  0  0
    9.2826  -18.1151   22.9951 N   0  0  0  0  0  0  0  0  0  0  0  0
    9.3213  -17.6726   21.6400 C   0  0  0  0  0  0  0  0  0  0  0  0
    9.9389  -17.1961   23.9530 O   0  0  0  0  0  0  0  0  0  0  0  0
   10.8944  -16.4840   23.5803 N   0  0  0  0  0  0  0  0  0  0  0  0
    9.5112  -17.1000   25.2894 C   0  0  1  0  0  0  0  0  0  0  0  0
   10.4044  -16.4469   26.2596 C   0  0  0  0  0  0  0  0  0  0  0  0
    9.9939  -15.0057   26.4274 C   0  0  0  0  0  0  0  0  0  0  0  0
    8.5612  -14.7403   26.2545 C   0  0  0  0  0  0  0  0  0  0  0  0
    7.6418  -15.7712   26.1156 N   0  0  0  0  0  0  0  0  0  0  0  0
    6.4336  -15.2308   26.0376 C   0  0  0  0  0  0  0  0  0  0  0  0
    6.4945  -13.8917   26.1158 C   0  0  0  0  0  0  0  0  0  0  0  0
    5.5149  -12.9163   26.0688 C   0  0  0  0  0  0  0  0  0  0  0  0
    5.9233  -11.6058   26.1606 C   0  0  0  0  0  0  0  0  0  0  0  0
    7.2340  -11.2623   26.2921 C   0  0  0  0  0  0  0  0  0  0  0  0
    8.2054  -12.2502   26.3384 C   0  0  0  0  0  0  0  0  0  0  0  0
    7.8449  -13.5872   26.2519 C   0  0  0  0  0  0  0  0  0  0  0  0
   10.2772  -17.1744   27.5256 O   0  0  0  0  0  0  0  0  0  0  0  0
   10.8890  -16.8590   28.5770 O   0  0  0  0  0  0  0  0  0  0  0  0
  2  3  2  0
  2  1  1  0
  4  2  1  0
  5  4  1  0
  6  5  1  0
  7  6  1  0
  7  8  1  0
  8  9  1  6
 10  8  1  0
 10 11  2  0
 13 12  1  0
 14 13  1  6
 14 15  1  0
 15 10  1  0
 16 18  1  0
 16 14  1  0
 17 16  2  0
 19 18  1  0
 19 30  1  0
 20 21  1  0
 19 20  1  1
 21 29  1  0
 22 23  1  0
 22 21  2  0
 23 24  1  0
 24 29  2  0
 24 25  1  0
 25 26  2  0
 26 27  1  0
 28 27  2  0
 29 28  1  0
 30 31  2  0
 30 32  1  0
M  END
$$$$
