RSW.pdb
     RDKit          3D

 32 33  0  0  1  0  0  0  0  0999 V2000
    7.2062  -13.9329   18.1779 N   0  0  0  0  0  0  0  0  0  0  0  0
    8.2361  -12.9824   18.2461 C   0  0  0  0  0  0  0  0  0  0  0  0
    7.9689  -11.7241   18.2217 N   0  0  0  0  0  0  0  0  0  0  0  0
    9.6198  -13.3263   18.3444 N   0  0  0  0  0  0  0  0  0  0  0  0
   10.0235  -14.6429   18.8316 C   0  0  0  0  0  0  0  0  0  0  0  0
    9.6841  -14.7986   20.3006 C   0  0  0  0  0  0  0  0  0  0  0  0
    8.8432  -16.0430   20.4679 C   0  0  0  0  0  0  0  0  0  0  0  0
    9.6415  -17.2500   20.8361 C   0  0  2  0  0  0  0  0  0  0  0  0
    9.2783  -18.3310   19.9415 N   0  0  0  0  0  0  0  0  0  0  0  0
    9.4805  -17.6348   22.2599 C   0  0  0  0  0  0  0  0  0  0  0  0
    8.3173  -17.7778   22.7137 O   0  0  0  0  0  0  0  0  0  0  0  0
    8.7325  -11.0090   18.1533 O   0  0  0  0  0  0  0  0  0  0  0  0
   12.7134  -19.0016   24.4186 C   0  0  0  0  0  0  0  0  0  0  0  0
   11.4273  -19.3411   24.7980 C   0  0  1  0  0  0  0  0  0  0  0  0
   10.4428  -18.2316   24.5112 N   0  0  0  0  0  0  0  0  0  0  0  0
   10.5583  -17.8516   23.1416 C   0  0  0  0  0  0  0  0  0  0  0  0
   10.6311  -17.1174   25.4684 O   0  0  0  0  0  0  0  0  0  0  0  0
   11.3503  -16.1444   25.1602 N   0  0  0  0  0  0  0  0  0  0  0  0
   10.0144  -17.1228   26.7324 C   0  0  1  0  0  0  0  0  0  0  0  0
   10.4566  -16.1310   27.7256 C   0  0  0  0  0  0  0  0  0  0  0  0
    9.2518  -15.5318   28.4061 C   0  0  0  0  0  0  0  0  0  0  0  0
    8.1647  -15.1259   27.5080 C   0  0  0  0  0  0  0  0  0  0  0  0
    7.1886  -16.0227   27.0955 N   0  0  0  0  0  0  0  0  0  0  0  0
    6.3180  -15.3602   26.3466 C   0  0  0  0  0  0  0  0  0  0  0  0
    6.6596  -14.0664   26.2343 C   0  0  0  0  0  0  0  0  0  0  0  0
    6.0766  -13.0107   25.5570 C   0  0  0  0  0  0  0  0  0  0  0  0
    6.7033  -11.7883   25.6327 C   0  0  0  0  0  0  0  0  0  0  0  0
    7.8520  -11.6050   26.3399 C   0  0  0  0  0  0  0  0  0  0  0  0
    8.4252  -12.6717   27.0145 C   0  0  0  0  0  0  0  0  0  0  0  0
    7.8307  -13.9246   26.9712 C   0  0  0  0  0  0  0  0  0  0  0  0
   11.3045  -16.8332   28.6932 O   0  0  0  0  0  0  0  0  0  0  0  0
   11.8636  -16.2719   29.6686 O   0  0  0  0  0  0  0  0  0  0  0  0
  2  3  2  0
  2  1  1  0
  4  2  1  0
  5  4  1  0
  6  5  1  0
  7  6  1  0
  7  8  1  0
  8  9  1  6
 10  8  1  0
 10 11  2  0
 13 12  1  0
 14 13  1  6
 14 15  1  0
 15 10  1  0
 16 18  1  0
 16 14  1  0
 17 16  2  0
 19 18  1  0
 19 30  1  0
 20 21  1  0
 19 20  1  1
 21 29  1  0
 22 23  1  0
 22 21  2  0
 23 24  1  0
 24 29  2  0
 24 25  1  0
 25 26  2  0
 26 27  1  0
 28 27  2  0
 29 28  1  0
 30 31  2  0
 30 32  1  0
M  END
$$$$
