RSW.pdb
     RDKit          3D

 32 33  0  0  1  0  0  0  0  0999 V2000
    8.2559  -14.5671   12.7591 N   0  0  0  0  0  0  0  0  0  0  0  0
    8.2501  -13.3196   13.4015 C   0  0  0  0  0  0  0  0  0  0  0  0
    7.3854  -12.4222   13.0818 N   0  0  0  0  0  0  0  0  0  0  0  0
    9.1754  -12.9588   14.4292 N   0  0  0  0  0  0  0  0  0  0  0  0
    9.0676  -13.5448   15.7628 C   0  0  0  0  0  0  0  0  0  0  0  0
    7.7102  -14.1907   15.9568 C   0  0  0  0  0  0  0  0  0  0  0  0
    7.6041  -14.6598   17.3894 C   0  0  0  0  0  0  0  0  0  0  0  0
    8.6366  -15.6740   17.7567 C   0  0  2  0  0  0  0  0  0  0  0  0
    8.6672  -16.6922   16.7256 N   0  0  0  0  0  0  0  0  0  0  0  0
    8.4167  -16.2585   19.1026 C   0  0  0  0  0  0  0  0  0  0  0  0
    7.2783  -16.1499   19.6238 O   0  0  0  0  0  0  0  0  0  0  0  0
    7.3886  -11.4789   13.5394 O   0  0  0  0  0  0  0  0  0  0  0  0
   10.6317  -19.3719   20.7985 C   0  0  0  0  0  0  0  0  0  0  0  0
    9.3592  -18.9437   21.1309 C   0  0  1  0  0  0  0  0  0  0  0  0
    9.2617  -17.4363   21.1639 N   0  0  0  0  0  0  0  0  0  0  0  0
    9.4117  -16.9328   19.8382 C   0  0  0  0  0  0  0  0  0  0  0  0
   10.2287  -16.8800   22.1377 O   0  0  0  0  0  0  0  0  0  0  0  0
   11.1242  -16.0999   21.7523 N   0  0  0  0  0  0  0  0  0  0  0  0
   10.1670  -17.2088   23.5038 C   0  0  1  0  0  0  0  0  0  0  0  0
   10.3125  -16.1236   24.4870 C   0  0  0  0  0  0  0  0  0  0  0  0
    9.4311  -14.9662   24.0901 C   0  0  0  0  0  0  0  0  0  0  0  0
    8.4169  -14.5856   25.0798 C   0  0  0  0  0  0  0  0  0  0  0  0
    7.9882  -15.4707   26.0595 N   0  0  0  0  0  0  0  0  0  0  0  0
    7.1223  -14.8317   26.8341 C   0  0  0  0  0  0  0  0  0  0  0  0
    6.9471  -13.5650   26.4245 C   0  0  0  0  0  0  0  0  0  0  0  0
    6.1487  -12.5405   26.9003 C   0  0  0  0  0  0  0  0  0  0  0  0
    6.1897  -11.3422   26.2256 C   0  0  0  0  0  0  0  0  0  0  0  0
    6.9773  -11.1527   25.1314 C   0  0  0  0  0  0  0  0  0  0  0  0
    7.7729  -12.1880   24.6657 C   0  0  0  0  0  0  0  0  0  0  0  0
    7.7689  -13.4156   25.3124 C   0  0  0  0  0  0  0  0  0  0  0  0
    9.9098  -16.6607   25.7900 O   0  0  0  0  0  0  0  0  0  0  0  0
    9.0521  -17.5672   25.9369 O   0  0  0  0  0  0  0  0  0  0  0  0
  2  3  2  0
  2  1  1  0
  4  2  1  0
  5  4  1  0
  6  5  1  0
  7  6  1  0
  7  8  1  0
  8  9  1  6
 10  8  1  0
 10 11  2  0
 13 12  1  0
 14 13  1  6
 14 15  1  0
 15 10  1  0
 16 18  1  0
 16 14  1  0
 17 16  2  0
 19 18  1  0
 19 30  1  0
 20 21  1  0
 19 20  1  1
 21 29  1  0
 22 23  1  0
 22 21  2  0
 23 24  1  0
 24 29  2  0
 24 25  1  0
 25 26  2  0
 26 27  1  0
 28 27  2  0
 29 28  1  0
 30 31  2  0
 30 32  1  0
M  END
$$$$
