RSW.pdb
     RDKit          3D

 32 33  0  0  1  0  0  0  0  0999 V2000
    7.6814  -14.9767   14.6146 N   0  0  0  0  0  0  0  0  0  0  0  0
    7.8076  -13.5933   14.8123 C   0  0  0  0  0  0  0  0  0  0  0  0
    8.0309  -12.8073   13.8185 N   0  0  0  0  0  0  0  0  0  0  0  0
    7.7017  -12.9679   16.0930 N   0  0  0  0  0  0  0  0  0  0  0  0
    7.1978  -13.7145   17.2429 C   0  0  0  0  0  0  0  0  0  0  0  0
    8.1815  -14.7909   17.6568 C   0  0  0  0  0  0  0  0  0  0  0  0
    8.8980  -14.3298   18.9047 C   0  0  0  0  0  0  0  0  0  0  0  0
    9.9039  -15.3131   19.4055 C   0  0  2  0  0  0  0  0  0  0  0  0
    9.9780  -16.4135   18.4650 N   0  0  0  0  0  0  0  0  0  0  0  0
    9.6139  -15.7832   20.7826 C   0  0  0  0  0  0  0  0  0  0  0  0
    9.4857  -14.9266   21.6931 O   0  0  0  0  0  0  0  0  0  0  0  0
    8.1850  -11.7804   13.9635 O   0  0  0  0  0  0  0  0  0  0  0  0
   10.4208  -19.5952   22.1671 C   0  0  0  0  0  0  0  0  0  0  0  0
    9.1406  -19.1335   22.4140 C   0  0  1  0  0  0  0  0  0  0  0  0
    9.0759  -17.6240   22.4173 N   0  0  0  0  0  0  0  0  0  0  0  0
    9.4722  -17.1401   21.1358 C   0  0  0  0  0  0  0  0  0  0  0  0
    9.8672  -17.0782   23.5437 O   0  0  0  0  0  0  0  0  0  0  0  0
   11.0648  -16.7690   23.3734 N   0  0  0  0  0  0  0  0  0  0  0  0
    9.3011  -16.8948   24.8181 C   0  0  1  0  0  0  0  0  0  0  0  0
   10.1707  -16.4094   25.9015 C   0  0  0  0  0  0  0  0  0  0  0  0
    9.8995  -14.9461   26.1443 C   0  0  0  0  0  0  0  0  0  0  0  0
    8.5037  -14.5313   25.9636 C   0  0  0  0  0  0  0  0  0  0  0  0
    7.4803  -15.4598   25.8296 N   0  0  0  0  0  0  0  0  0  0  0  0
    6.3367  -14.7947   25.7424 C   0  0  0  0  0  0  0  0  0  0  0  0
    6.5395  -13.4690   25.8097 C   0  0  0  0  0  0  0  0  0  0  0  0
    5.6693  -12.3954   25.7506 C   0  0  0  0  0  0  0  0  0  0  0  0
    6.2146  -11.1350   25.8332 C   0  0  0  0  0  0  0  0  0  0  0  0
    7.5540  -10.9317   25.9671 C   0  0  0  0  0  0  0  0  0  0  0  0
    8.4146  -12.0168   26.0254 C   0  0  0  0  0  0  0  0  0  0  0  0
    7.9141  -13.3086   25.9486 C   0  0  0  0  0  0  0  0  0  0  0  0
    9.8604  -17.2008   27.0955 O   0  0  0  0  0  0  0  0  0  0  0  0
   10.4271  -17.0415   28.2057 O   0  0  0  0  0  0  0  0  0  0  0  0
  2  3  2  0
  2  1  1  0
  4  2  1  0
  5  4  1  0
  6  5  1  0
  7  6  1  0
  7  8  1  0
  8  9  1  6
 10  8  1  0
 10 11  2  0
 13 12  1  0
 14 13  1  6
 14 15  1  0
 15 10  1  0
 16 18  1  0
 16 14  1  0
 17 16  2  0
 19 18  1  0
 19 30  1  0
 20 21  1  0
 19 20  1  1
 21 29  1  0
 22 23  1  0
 22 21  2  0
 23 24  1  0
 24 29  2  0
 24 25  1  0
 25 26  2  0
 26 27  1  0
 28 27  2  0
 29 28  1  0
 30 31  2  0
 30 32  1  0
M  END
$$$$
