RSW.pdb
     RDKit          3D

 32 33  0  0  1  0  0  0  0  0999 V2000
    6.7025  -19.2592   14.8891 N   0  0  0  0  0  0  0  0  0  0  0  0
    7.4413  -18.1808   14.3790 C   0  0  0  0  0  0  0  0  0  0  0  0
    7.6003  -18.0377   13.1103 N   0  0  0  0  0  0  0  0  0  0  0  0
    8.0564  -17.1879   15.2025 N   0  0  0  0  0  0  0  0  0  0  0  0
    8.1793  -17.3925   16.6435 C   0  0  0  0  0  0  0  0  0  0  0  0
    6.9523  -16.8729   17.3659 C   0  0  0  0  0  0  0  0  0  0  0  0
    7.1531  -17.0679   18.8509 C   0  0  0  0  0  0  0  0  0  0  0  0
    7.8996  -18.3166   19.1869 C   0  0  2  0  0  0  0  0  0  0  0  0
    7.1199  -19.4527   18.7374 N   0  0  0  0  0  0  0  0  0  0  0  0
    8.2378  -18.4154   20.6282 C   0  0  0  0  0  0  0  0  0  0  0  0
    7.3068  -18.3353   21.4686 O   0  0  0  0  0  0  0  0  0  0  0  0
    8.1388  -17.2275   12.7194 O   0  0  0  0  0  0  0  0  0  0  0  0
   12.1939  -19.1254   21.8800 C   0  0  0  0  0  0  0  0  0  0  0  0
   11.1202  -19.6414   22.5828 C   0  0  1  0  0  0  0  0  0  0  0  0
    9.9037  -18.7504   22.4892 N   0  0  0  0  0  0  0  0  0  0  0  0
    9.5473  -18.5949   21.1172 C   0  0  0  0  0  0  0  0  0  0  0  0
   10.1446  -17.4751   23.2023 O   0  0  0  0  0  0  0  0  0  0  0  0
   10.6243  -16.4984   22.5900 N   0  0  0  0  0  0  0  0  0  0  0  0
    9.8443  -17.3295   24.5685 C   0  0  1  0  0  0  0  0  0  0  0  0
   10.1943  -16.0599   25.2254 C   0  0  0  0  0  0  0  0  0  0  0  0
    9.2995  -15.8510   26.4210 C   0  0  0  0  0  0  0  0  0  0  0  0
    8.0491  -15.1335   26.1475 C   0  0  0  0  0  0  0  0  0  0  0  0
    6.8454  -15.8055   25.9840 N   0  0  0  0  0  0  0  0  0  0  0  0
    5.8938  -14.8988   25.8105 C   0  0  0  0  0  0  0  0  0  0  0  0
    6.3962  -13.6541   25.8478 C   0  0  0  0  0  0  0  0  0  0  0  0
    5.8040  -12.4123   25.7054 C   0  0  0  0  0  0  0  0  0  0  0  0
    6.6231  -11.3094   25.7797 C   0  0  0  0  0  0  0  0  0  0  0  0
    7.9649  -11.4152   25.9839 C   0  0  0  0  0  0  0  0  0  0  0  0
    8.5452  -12.6661   26.1254 C   0  0  0  0  0  0  0  0  0  0  0  0
    7.7620  -13.8095   26.0605 C   0  0  0  0  0  0  0  0  0  0  0  0
   11.5977  -16.1560   25.6370 O   0  0  0  0  0  0  0  0  0  0  0  0
   12.2255  -17.2405   25.7305 O   0  0  0  0  0  0  0  0  0  0  0  0
  2  3  2  0
  2  1  1  0
  4  2  1  0
  5  4  1  0
  6  5  1  0
  7  6  1  0
  7  8  1  0
  8  9  1  1
 10  8  1  0
 10 11  2  0
 13 12  1  0
 14 13  1  1
 14 15  1  0
 15 10  1  0
 16 18  1  0
 16 14  1  0
 17 16  2  0
 19 18  1  0
 19 30  1  0
 20 21  1  0
 19 20  1  1
 21 29  1  0
 22 23  1  0
 22 21  2  0
 23 24  1  0
 24 29  2  0
 24 25  1  0
 25 26  2  0
 26 27  1  0
 28 27  2  0
 29 28  1  0
 30 31  2  0
 30 32  1  0
M  END
$$$$
