RSW.pdb
     RDKit          3D

 32 33  0  0  1  0  0  0  0  0999 V2000
    8.3941  -11.1672   18.7354 N   0  0  0  0  0  0  0  0  0  0  0  0
    8.6405  -12.5456   18.6439 C   0  0  0  0  0  0  0  0  0  0  0  0
    9.8326  -12.9859   18.4431 N   0  0  0  0  0  0  0  0  0  0  0  0
    7.6188  -13.5378   18.7623 N   0  0  0  0  0  0  0  0  0  0  0  0
    7.9578  -14.9106   19.1286 C   0  0  0  0  0  0  0  0  0  0  0  0
    8.8201  -14.9360   20.3749 C   0  0  0  0  0  0  0  0  0  0  0  0
    8.1591  -15.8332   21.3956 C   0  0  0  0  0  0  0  0  0  0  0  0
    8.7426  -17.2068   21.4404 C   0  0  2  0  0  0  0  0  0  0  0  0
    7.8611  -18.1039   20.7199 N   0  0  0  0  0  0  0  0  0  0  0  0
    8.9993  -17.6789   22.8234 C   0  0  0  0  0  0  0  0  0  0  0  0
    8.0193  -18.0281   23.5285 O   0  0  0  0  0  0  0  0  0  0  0  0
   10.0274  -14.0142   18.3811 O   0  0  0  0  0  0  0  0  0  0  0  0
   12.9154  -18.0859   24.2757 C   0  0  0  0  0  0  0  0  0  0  0  0
   11.8922  -18.8702   24.7768 C   0  0  1  0  0  0  0  0  0  0  0  0
   10.5628  -18.1532   24.7420 N   0  0  0  0  0  0  0  0  0  0  0  0
   10.2825  -17.7607   23.4000 C   0  0  0  0  0  0  0  0  0  0  0  0
   10.5553  -17.0370   25.7151 O   0  0  0  0  0  0  0  0  0  0  0  0
   10.9427  -15.9023   25.3668 N   0  0  0  0  0  0  0  0  0  0  0  0
   10.1177  -17.2199   27.0392 C   0  0  1  0  0  0  0  0  0  0  0  0
   10.3538  -16.1351   28.0052 C   0  0  0  0  0  0  0  0  0  0  0  0
    9.0427  -15.7220   28.6251 C   0  0  0  0  0  0  0  0  0  0  0  0
    8.0082  -15.2990   27.6744 C   0  0  0  0  0  0  0  0  0  0  0  0
    7.0942  -16.2000   27.1453 N   0  0  0  0  0  0  0  0  0  0  0  0
    6.2563  -15.5226   26.3726 C   0  0  0  0  0  0  0  0  0  0  0  0
    6.5610  -14.2150   26.3550 C   0  0  0  0  0  0  0  0  0  0  0  0
    5.9916  -13.1408   25.6954 C   0  0  0  0  0  0  0  0  0  0  0  0
    6.5699  -11.9064   25.8817 C   0  0  0  0  0  0  0  0  0  0  0  0
    7.6593  -11.7289   26.6785 C   0  0  0  0  0  0  0  0  0  0  0  0
    8.2196  -12.8143   27.3339 C   0  0  0  0  0  0  0  0  0  0  0  0
    7.6722  -14.0800   27.1806 C   0  0  0  0  0  0  0  0  0  0  0  0
   11.2706  -16.6529   29.0248 O   0  0  0  0  0  0  0  0  0  0  0  0
   11.6736  -15.9813   30.0075 O   0  0  0  0  0  0  0  0  0  0  0  0
  2  3  2  0
  2  1  1  0
  4  2  1  0
  5  4  1  0
  6  5  1  0
  7  6  1  0
  7  8  1  0
  8  9  1  1
 10  8  1  0
 10 11  2  0
 13 12  1  0
 14 13  1  6
 14 15  1  0
 15 10  1  0
 16 18  1  0
 16 14  1  0
 17 16  2  0
 19 18  1  0
 19 30  1  0
 20 21  1  0
 19 20  1  1
 21 29  1  0
 22 23  1  0
 22 21  2  0
 23 24  1  0
 24 29  2  0
 24 25  1  0
 25 26  2  0
 26 27  1  0
 28 27  2  0
 29 28  1  0
 30 31  2  0
 30 32  1  0
M  END
$$$$
