RSW.pdb
     RDKit          3D

 32 33  0  0  1  0  0  0  0  0999 V2000
    9.1902  -23.1065   17.2396 N   0  0  0  0  0  0  0  0  0  0  0  0
   10.3245  -23.0809   16.4140 C   0  0  0  0  0  0  0  0  0  0  0  0
   10.9496  -24.1678   16.1259 N   0  0  0  0  0  0  0  0  0  0  0  0
   10.8583  -21.8829   15.8462 N   0  0  0  0  0  0  0  0  0  0  0  0
   10.2384  -20.5901   16.1254 C   0  0  0  0  0  0  0  0  0  0  0  0
   10.8781  -19.9384   17.3351 C   0  0  0  0  0  0  0  0  0  0  0  0
   10.1533  -18.6434   17.6201 C   0  0  0  0  0  0  0  0  0  0  0  0
    9.8799  -18.4268   19.0719 C   0  0  2  0  0  0  0  0  0  0  0  0
    8.4785  -18.7003   19.3210 N   0  0  0  0  0  0  0  0  0  0  0  0
   10.2683  -17.0719   19.5354 C   0  0  0  0  0  0  0  0  0  0  0  0
   11.4726  -16.7271   19.4352 O   0  0  0  0  0  0  0  0  0  0  0  0
   11.8304  -24.1522   15.5574 O   0  0  0  0  0  0  0  0  0  0  0  0
    7.4490  -14.2212   20.1351 C   0  0  0  0  0  0  0  0  0  0  0  0
    8.7708  -13.8248   20.0416 C   0  0  1  0  0  0  0  0  0  0  0  0
    9.7122  -14.8611   20.6095 N   0  0  0  0  0  0  0  0  0  0  0  0
    9.3645  -16.1407   20.0849 C   0  0  0  0  0  0  0  0  0  0  0  0
    9.7197  -14.7930   22.0887 O   0  0  0  0  0  0  0  0  0  0  0  0
    9.5466  -13.6985   22.6642 N   0  0  0  0  0  0  0  0  0  0  0  0
    9.9183  -15.9414   22.8759 C   0  0  1  0  0  0  0  0  0  0  0  0
    9.8761  -15.7963   24.3398 C   0  0  0  0  0  0  0  0  0  0  0  0
    8.5283  -15.2598   24.7514 C   0  0  0  0  0  0  0  0  0  0  0  0
    7.3757  -16.0250   24.2627 C   0  0  0  0  0  0  0  0  0  0  0  0
    6.9170  -17.1539   24.9278 N   0  0  0  0  0  0  0  0  0  0  0  0
    5.8396  -17.5914   24.2909 C   0  0  0  0  0  0  0  0  0  0  0  0
    5.5524  -16.8159   23.2331 C   0  0  0  0  0  0  0  0  0  0  0  0
    4.5512  -16.8829   22.2810 C   0  0  0  0  0  0  0  0  0  0  0  0
    4.5503  -15.9218   21.2965 C   0  0  0  0  0  0  0  0  0  0  0  0
    5.4885  -14.9369   21.2438 C   0  0  0  0  0  0  0  0  0  0  0  0
    6.4860  -14.8814   22.2048 C   0  0  0  0  0  0  0  0  0  0  0  0
    6.5296  -15.8262   23.2200 C   0  0  0  0  0  0  0  0  0  0  0  0
   10.1044  -17.1250   24.9150 O   0  0  0  0  0  0  0  0  0  0  0  0
   10.1154  -18.1855   24.2409 O   0  0  0  0  0  0  0  0  0  0  0  0
  2  3  2  0
  2  1  1  0
  4  2  1  0
  5  4  1  0
  6  5  1  0
  7  6  1  0
  7  8  1  0
  8  9  1  6
 10  8  1  0
 10 11  2  0
 13 12  1  0
 14 13  1  6
 14 15  1  0
 15 10  1  0
 16 18  1  0
 16 14  1  0
 17 16  2  0
 19 18  1  0
 19 30  1  0
 20 21  1  0
 19 20  1  1
 21 29  1  0
 22 23  1  0
 22 21  2  0
 23 24  1  0
 24 29  2  0
 24 25  1  0
 25 26  2  0
 26 27  1  0
 28 27  2  0
 29 28  1  0
 30 31  2  0
 30 32  1  0
M  END
$$$$
