DNR.pdb
     RDKit          3D

 28 27  0  0  1  0  0  0  0  0999 V2000
   20.4518  -18.8591  -17.8123 N   0  0  0  0  0  0  0  0  0  0  0  0
   21.3297  -18.0735  -16.9743 C   0  0  1  0  0  0  0  0  0  0  0  0
   21.1054  -18.4500  -15.5024 C   0  0  0  0  0  0  0  0  0  0  0  0
   19.7780  -18.0411  -15.0380 C   0  0  0  0  0  0  0  0  0  0  0  0
   19.2119  -16.9913  -15.4341 O   0  0  0  0  0  0  0  0  0  0  0  0
   22.7505  -18.4321  -17.2458 C   0  0  0  0  0  0  0  0  0  0  0  0
   23.1417  -19.6143  -17.1942 O   0  0  0  0  0  0  0  0  0  0  0  0
   19.0846  -18.8308  -14.1145 O   0  0  0  0  0  0  0  0  0  0  0  0
   27.8731  -18.1360  -18.4601 N   0  0  0  0  0  0  0  0  0  0  0  0
   27.3223  -16.8489  -18.5683 C   0  0  0  0  0  0  0  0  0  0  0  0
   28.0854  -15.9201  -18.9500 O   0  0  0  0  0  0  0  0  0  0  0  0
   25.9354  -16.5610  -18.2621 C   0  0  0  0  0  0  0  0  0  0  0  0
   25.0862  -17.7116  -17.8461 C   0  0  2  0  0  0  0  0  0  0  0  0
   23.7156  -17.4180  -17.5776 N   0  0  0  0  0  0  0  0  0  0  0  0
   25.7048  -18.3555  -16.6458 C   0  0  0  0  0  0  0  0  0  0  0  0
   25.7788  -17.6819  -15.5872 O   0  0  0  0  0  0  0  0  0  0  0  0
   26.4154  -22.4190  -10.5091 N   0  0  0  0  0  0  0  0  0  0  0  0
   25.6607  -21.2544  -10.1639 C   0  0  0  0  0  0  0  0  0  0  0  0
   25.8366  -20.7550   -8.9729 N   0  0  0  0  0  0  0  0  0  0  0  0
   24.7782  -20.7009  -11.0985 N   0  0  0  0  0  0  0  0  0  0  0  0
   24.6022  -21.3786  -12.4071 C   0  0  0  0  0  0  0  0  0  0  0  0
   25.7952  -21.0323  -13.2018 C   0  0  0  0  0  0  0  0  0  0  0  0
   25.7125  -20.4413  -14.5229 C   0  0  0  0  0  0  0  0  0  0  0  0
   26.8550  -20.1867  -15.4235 C   0  0  2  0  0  0  0  0  0  0  0  0
   26.1987  -19.6665  -16.6593 N   0  0  0  0  0  0  0  0  0  0  0  0
   27.6547  -21.3262  -15.8817 C   0  0  0  0  0  0  0  0  0  0  0  0
   28.7898  -21.7668  -15.1555 O   0  0  0  0  0  0  0  0  0  0  0  0
   27.3898  -21.9567  -16.9096 O   0  0  0  0  0  0  0  0  0  0  0  0
  2  1  1  6
  2  3  1  0
  3  4  1  0
  4  8  1  0
  4  5  2  0
  6 14  1  0
  6  2  1  0
  7  6  2  0
  9 10  1  0
 10 11  2  0
 12 10  1  0
 13 12  1  1
 13 14  1  0
 15 16  2  0
 15 13  1  0
 18 17  1  0
 19 18  2  0
 20 18  1  0
 21 20  1  0
 22 21  1  0
 22 23  1  0
 24 23  1  1
 24 26  1  0
 24 25  1  0
 25 15  1  0
 26 27  1  0
 28 26  2  0
M  END
$$$$
