DNR.pdb
     RDKit          3D

 28 27  0  0  1  0  0  0  0  0999 V2000
   17.9878  -28.1394   -9.8243 N   0  0  0  0  0  0  0  0  0  0  0  0
   19.2636  -27.5470  -10.1582 C   0  0  1  0  0  0  0  0  0  0  0  0
   20.2960  -28.6573  -10.4027 C   0  0  0  0  0  0  0  0  0  0  0  0
   20.7229  -29.2814   -9.1484 C   0  0  0  0  0  0  0  0  0  0  0  0
   20.2850  -28.9230   -8.0263 O   0  0  0  0  0  0  0  0  0  0  0  0
   19.1667  -26.8255  -11.4587 C   0  0  0  0  0  0  0  0  0  0  0  0
   18.5866  -27.3315  -12.4388 O   0  0  0  0  0  0  0  0  0  0  0  0
   21.6566  -30.3231   -9.1663 O   0  0  0  0  0  0  0  0  0  0  0  0
   16.8595  -23.7048  -12.7976 N   0  0  0  0  0  0  0  0  0  0  0  0
   17.9362  -22.8383  -12.5495 C   0  0  0  0  0  0  0  0  0  0  0  0
   17.6655  -21.6338  -12.2908 O   0  0  0  0  0  0  0  0  0  0  0  0
   19.3177  -23.2749  -12.5804 C   0  0  0  0  0  0  0  0  0  0  0  0
   19.5582  -24.7289  -12.7952 C   0  0  2  0  0  0  0  0  0  0  0  0
   19.7429  -25.5171  -11.6198 N   0  0  0  0  0  0  0  0  0  0  0  0
   20.7399  -24.8917  -13.6980 C   0  0  0  0  0  0  0  0  0  0  0  0
   21.8486  -24.4494  -13.3043 O   0  0  0  0  0  0  0  0  0  0  0  0
   25.1890  -30.8162  -15.5687 N   0  0  0  0  0  0  0  0  0  0  0  0
   23.7743  -30.9306  -15.7432 C   0  0  0  0  0  0  0  0  0  0  0  0
   23.2103  -32.0444  -15.3686 N   0  0  0  0  0  0  0  0  0  0  0  0
   23.0579  -29.8636  -16.2974 N   0  0  0  0  0  0  0  0  0  0  0  0
   23.7367  -28.5544  -16.4644 C   0  0  0  0  0  0  0  0  0  0  0  0
   22.7604  -27.6799  -17.1403 C   0  0  0  0  0  0  0  0  0  0  0  0
   21.7305  -26.9538  -16.4236 C   0  0  0  0  0  0  0  0  0  0  0  0
   21.9053  -25.6475  -15.7573 C   0  0  2  0  0  0  0  0  0  0  0  0
   20.6560  -25.5119  -14.9515 N   0  0  0  0  0  0  0  0  0  0  0  0
   21.9448  -24.4380  -16.5840 C   0  0  0  0  0  0  0  0  0  0  0  0
   23.1763  -23.8450  -16.9605 O   0  0  0  0  0  0  0  0  0  0  0  0
   20.9244  -23.8757  -16.9924 O   0  0  0  0  0  0  0  0  0  0  0  0
  2  1  1  6
  2  3  1  0
  3  4  1  0
  4  8  1  0
  4  5  2  0
  6 14  1  0
  6  2  1  0
  7  6  2  0
  9 10  1  0
 10 11  2  0
 12 10  1  0
 13 12  1  1
 13 14  1  0
 15 16  2  0
 15 13  1  0
 18 17  1  0
 19 18  2  0
 20 18  1  0
 21 20  1  0
 22 21  1  0
 22 23  1  0
 24 23  1  6
 24 26  1  0
 24 25  1  0
 25 15  1  0
 26 27  1  0
 28 26  2  0
M  END
$$$$
