DNR.pdb
     RDKit          3D

 28 27  0  0  1  0  0  0  0  0999 V2000
   17.0298  -10.9391  -15.6609 N   0  0  0  0  0  0  0  0  0  0  0  0
   17.7427  -10.8189  -16.9129 C   0  0  1  0  0  0  0  0  0  0  0  0
   16.7483  -10.9093  -18.0797 C   0  0  0  0  0  0  0  0  0  0  0  0
   16.0988  -12.2209  -18.1334 C   0  0  0  0  0  0  0  0  0  0  0  0
   14.8987  -12.4001  -17.8064 O   0  0  0  0  0  0  0  0  0  0  0  0
   18.3431   -9.4599  -17.0301 C   0  0  0  0  0  0  0  0  0  0  0  0
   19.0799   -9.1575  -17.9887 O   0  0  0  0  0  0  0  0  0  0  0  0
   16.8177  -13.3419  -18.5625 O   0  0  0  0  0  0  0  0  0  0  0  0
   16.2772   -5.6493  -17.4571 N   0  0  0  0  0  0  0  0  0  0  0  0
   16.4768   -5.8081  -16.0764 C   0  0  0  0  0  0  0  0  0  0  0  0
   15.4636   -5.7280  -15.3294 O   0  0  0  0  0  0  0  0  0  0  0  0
   17.7812   -6.0559  -15.4958 C   0  0  0  0  0  0  0  0  0  0  0  0
   18.6044   -7.1260  -16.1247 C   0  0  2  0  0  0  0  0  0  0  0  0
   18.0870   -8.4532  -16.0347 N   0  0  0  0  0  0  0  0  0  0  0  0
   19.9787   -7.0834  -15.5352 C   0  0  0  0  0  0  0  0  0  0  0  0
   20.1512   -7.6006  -14.4027 O   0  0  0  0  0  0  0  0  0  0  0  0
   26.4469  -11.7417  -16.9933 N   0  0  0  0  0  0  0  0  0  0  0  0
   26.8755  -10.9062  -15.9148 C   0  0  0  0  0  0  0  0  0  0  0  0
   27.9505  -11.2617  -15.2693 N   0  0  0  0  0  0  0  0  0  0  0  0
   26.1418   -9.7575  -15.5970 N   0  0  0  0  0  0  0  0  0  0  0  0
   24.9072   -9.4601  -16.3651 C   0  0  0  0  0  0  0  0  0  0  0  0
   24.3529   -8.2288  -15.7724 C   0  0  0  0  0  0  0  0  0  0  0  0
   23.0521   -7.7013  -16.1344 C   0  0  0  0  0  0  0  0  0  0  0  0
   22.3995   -6.5274  -15.5203 C   0  0  2  0  0  0  0  0  0  0  0  0
   21.0669   -6.4945  -16.1922 N   0  0  0  0  0  0  0  0  0  0  0  0
   22.9696   -5.1996  -15.7653 C   0  0  0  0  0  0  0  0  0  0  0  0
   24.0501   -4.7092  -14.9895 O   0  0  0  0  0  0  0  0  0  0  0  0
   22.5478   -4.4449  -16.6466 O   0  0  0  0  0  0  0  0  0  0  0  0
  2  1  1  1
  2  3  1  0
  3  4  1  0
  4  8  1  0
  4  5  2  0
  6 14  1  0
  6  2  1  0
  7  6  2  0
  9 10  1  0
 10 11  2  0
 12 10  1  0
 13 12  1  1
 13 14  1  0
 15 16  2  0
 15 13  1  0
 18 17  1  0
 19 18  2  0
 20 18  1  0
 21 20  1  0
 22 21  1  0
 22 23  1  0
 24 23  1  6
 24 26  1  0
 24 25  1  0
 25 15  1  0
 26 27  1  0
 28 26  2  0
M  END
$$$$
