DNR.pdb
     RDKit          3D

 28 27  0  0  1  0  0  0  0  0999 V2000
   28.1718  -23.6785  -18.1807 N   0  0  0  0  0  0  0  0  0  0  0  0
   29.2864  -23.1675  -17.4148 C   0  0  1  0  0  0  0  0  0  0  0  0
   30.3573  -22.6212  -18.3704 C   0  0  0  0  0  0  0  0  0  0  0  0
   31.0269  -23.6990  -19.1017 C   0  0  0  0  0  0  0  0  0  0  0  0
   30.6949  -24.9059  -18.9899 O   0  0  0  0  0  0  0  0  0  0  0  0
   28.8562  -21.9878  -16.6121 C   0  0  0  0  0  0  0  0  0  0  0  0
   29.6553  -21.3808  -15.8729 O   0  0  0  0  0  0  0  0  0  0  0  0
   32.0845  -23.4056  -19.9694 O   0  0  0  0  0  0  0  0  0  0  0  0
   27.7542  -18.4373  -18.7179 N   0  0  0  0  0  0  0  0  0  0  0  0
   27.5191  -18.4013  -17.3341 C   0  0  0  0  0  0  0  0  0  0  0  0
   28.2111  -17.6011  -16.6473 O   0  0  0  0  0  0  0  0  0  0  0  0
   26.5281  -19.2359  -16.6849 C   0  0  0  0  0  0  0  0  0  0  0  0
   27.0356  -20.3997  -15.9063 C   0  0  2  0  0  0  0  0  0  0  0  0
   27.4992  -21.5135  -16.6689 N   0  0  0  0  0  0  0  0  0  0  0  0
   25.9653  -20.8495  -14.9628 C   0  0  0  0  0  0  0  0  0  0  0  0
   25.1056  -21.6610  -15.3895 O   0  0  0  0  0  0  0  0  0  0  0  0
   20.4538  -22.2803   -9.5971 N   0  0  0  0  0  0  0  0  0  0  0  0
   21.3688  -22.0083   -8.5323 C   0  0  0  0  0  0  0  0  0  0  0  0
   20.9589  -22.2319   -7.3154 N   0  0  0  0  0  0  0  0  0  0  0  0
   22.6478  -21.5229   -8.8275 N   0  0  0  0  0  0  0  0  0  0  0  0
   23.0850  -21.4699  -10.2448 C   0  0  0  0  0  0  0  0  0  0  0  0
   24.4499  -20.9120  -10.2228 C   0  0  0  0  0  0  0  0  0  0  0  0
   25.1813  -20.5817  -11.4301 C   0  0  0  0  0  0  0  0  0  0  0  0
   24.7262  -20.8457  -12.8100 C   0  0  2  0  0  0  0  0  0  0  0  0
   25.8879  -20.4038  -13.6368 N   0  0  0  0  0  0  0  0  0  0  0  0
   23.5895  -20.0819  -13.3320 C   0  0  0  0  0  0  0  0  0  0  0  0
   22.2796  -20.6242  -13.3363 O   0  0  0  0  0  0  0  0  0  0  0  0
   23.7063  -18.9416  -13.7907 O   0  0  0  0  0  0  0  0  0  0  0  0
  2  1  1  6
  2  3  1  0
  3  4  1  0
  4  8  1  0
  4  5  2  0
  6 14  1  0
  6  2  1  0
  7  6  2  0
  9 10  1  0
 10 11  2  0
 12 10  1  0
 13 12  1  6
 13 14  1  0
 15 16  2  0
 15 13  1  0
 18 17  1  0
 19 18  2  0
 20 18  1  0
 21 20  1  0
 22 21  1  0
 22 23  1  0
 24 23  1  1
 24 26  1  0
 24 25  1  0
 25 15  1  0
 26 27  1  0
 28 26  2  0
M  END
$$$$
