DNR.pdb
     RDKit          3D

 28 27  0  0  1  0  0  0  0  0999 V2000
   20.2247  -11.0357  -15.7632 N   0  0  0  0  0  0  0  0  0  0  0  0
   19.5067   -9.8143  -15.4758 C   0  0  1  0  0  0  0  0  0  0  0  0
   18.0548  -10.1488  -15.1036 C   0  0  0  0  0  0  0  0  0  0  0  0
   17.4099  -10.9675  -16.1325 C   0  0  0  0  0  0  0  0  0  0  0  0
   17.5974  -10.7874  -17.3621 O   0  0  0  0  0  0  0  0  0  0  0  0
   20.0707   -9.1648  -14.2588 C   0  0  0  0  0  0  0  0  0  0  0  0
   21.2231   -9.4239  -13.8611 O   0  0  0  0  0  0  0  0  0  0  0  0
   16.5429  -12.0018  -15.7638 O   0  0  0  0  0  0  0  0  0  0  0  0
   21.2536   -4.8966  -11.5739 N   0  0  0  0  0  0  0  0  0  0  0  0
   21.4524   -5.1582  -12.9390 C   0  0  0  0  0  0  0  0  0  0  0  0
   22.2382   -4.3983  -13.5682 O   0  0  0  0  0  0  0  0  0  0  0  0
   20.7979   -6.2498  -13.6319 C   0  0  0  0  0  0  0  0  0  0  0  0
   19.8818   -7.1040  -12.8262 C   0  0  2  0  0  0  0  0  0  0  0  0
   19.2967   -8.2148  -13.5051 N   0  0  0  0  0  0  0  0  0  0  0  0
   18.8017   -6.2420  -12.2531 C   0  0  0  0  0  0  0  0  0  0  0  0
   18.1275   -5.5363  -13.0451 O   0  0  0  0  0  0  0  0  0  0  0  0
   12.5698   -9.5310   -8.9753 N   0  0  0  0  0  0  0  0  0  0  0  0
   12.5572   -8.4931   -7.9918 C   0  0  0  0  0  0  0  0  0  0  0  0
   11.4720   -8.3480   -7.2845 N   0  0  0  0  0  0  0  0  0  0  0  0
   13.6884   -7.6862   -7.8243 N   0  0  0  0  0  0  0  0  0  0  0  0
   14.7706   -7.7495   -8.8379 C   0  0  0  0  0  0  0  0  0  0  0  0
   15.7525   -6.7234   -8.4409 C   0  0  0  0  0  0  0  0  0  0  0  0
   16.9961   -6.5107   -9.1547 C   0  0  0  0  0  0  0  0  0  0  0  0
   17.1330   -5.8323  -10.4594 C   0  0  2  0  0  0  0  0  0  0  0  0
   18.5184   -6.1938  -10.8819 N   0  0  0  0  0  0  0  0  0  0  0  0
   17.1065   -4.3674  -10.4946 C   0  0  0  0  0  0  0  0  0  0  0  0
   18.3006   -3.6135  -10.6205 O   0  0  0  0  0  0  0  0  0  0  0  0
   16.0598   -3.7172  -10.4173 O   0  0  0  0  0  0  0  0  0  0  0  0
  2  1  1  1
  2  3  1  0
  3  4  1  0
  4  8  1  0
  4  5  2  0
  6 14  1  0
  6  2  1  0
  7  6  2  0
  9 10  1  0
 10 11  2  0
 12 10  1  0
 13 12  1  6
 13 14  1  0
 15 16  2  0
 15 13  1  0
 18 17  1  0
 19 18  2  0
 20 18  1  0
 21 20  1  0
 22 21  1  0
 22 23  1  0
 24 23  1  1
 24 26  1  0
 24 25  1  0
 25 15  1  0
 26 27  1  0
 28 26  2  0
M  END
$$$$
