DNR.pdb
     RDKit          3D

 28 27  0  0  1  0  0  0  0  0999 V2000
   20.0315  -24.1722  -13.1778 N   0  0  0  0  0  0  0  0  0  0  0  0
   19.7206  -23.0605  -14.0480 C   0  0  1  0  0  0  0  0  0  0  0  0
   18.4362  -22.3729  -13.5621 C   0  0  0  0  0  0  0  0  0  0  0  0
   17.2764  -22.7701  -14.3633 C   0  0  0  0  0  0  0  0  0  0  0  0
   17.3657  -23.5315  -15.3592 O   0  0  0  0  0  0  0  0  0  0  0  0
   20.7765  -22.0146  -13.9373 C   0  0  0  0  0  0  0  0  0  0  0  0
   20.6955  -21.0985  -13.0962 O   0  0  0  0  0  0  0  0  0  0  0  0
   16.0013  -22.2991  -14.0321 O   0  0  0  0  0  0  0  0  0  0  0  0
   24.9056  -23.3642  -12.4968 N   0  0  0  0  0  0  0  0  0  0  0  0
   24.6081  -22.0676  -12.9461 C   0  0  0  0  0  0  0  0  0  0  0  0
   24.5767  -21.1467  -12.0849 O   0  0  0  0  0  0  0  0  0  0  0  0
   24.3423  -21.7614  -14.3374 C   0  0  0  0  0  0  0  0  0  0  0  0
   23.0260  -21.1379  -14.6486 C   0  0  2  0  0  0  0  0  0  0  0  0
   21.9257  -22.0337  -14.8027 N   0  0  0  0  0  0  0  0  0  0  0  0
   23.1696  -20.3042  -15.8825 C   0  0  0  0  0  0  0  0  0  0  0  0
   23.1941  -20.8928  -16.9927 O   0  0  0  0  0  0  0  0  0  0  0  0
   19.9942  -16.1854  -13.9668 N   0  0  0  0  0  0  0  0  0  0  0  0
   19.3135  -15.3050  -14.8649 C   0  0  0  0  0  0  0  0  0  0  0  0
   18.0426  -15.1014  -14.6594 N   0  0  0  0  0  0  0  0  0  0  0  0
   20.0213  -14.7029  -15.9114 N   0  0  0  0  0  0  0  0  0  0  0  0
   21.4943  -14.8739  -15.9722 C   0  0  0  0  0  0  0  0  0  0  0  0
   21.7190  -16.2660  -16.4038 C   0  0  0  0  0  0  0  0  0  0  0  0
   23.0313  -16.7790  -16.7446 C   0  0  0  0  0  0  0  0  0  0  0  0
   23.3343  -18.1690  -17.1409 C   0  0  2  0  0  0  0  0  0  0  0  0
   23.2765  -18.9077  -15.8451 N   0  0  0  0  0  0  0  0  0  0  0  0
   24.6636  -18.4710  -17.6793 C   0  0  0  0  0  0  0  0  0  0  0  0
   24.9139  -18.4488  -19.0745 O   0  0  0  0  0  0  0  0  0  0  0  0
   25.6251  -18.7578  -16.9599 O   0  0  0  0  0  0  0  0  0  0  0  0
  2  1  1  1
  2  3  1  0
  3  4  1  0
  4  8  1  0
  4  5  2  0
  6 14  1  0
  6  2  1  0
  7  6  2  0
  9 10  1  0
 10 11  2  0
 12 10  1  0
 13 12  1  6
 13 14  1  0
 15 16  2  0
 15 13  1  0
 18 17  1  0
 19 18  2  0
 20 18  1  0
 21 20  1  0
 22 21  1  0
 22 23  1  0
 24 23  1  1
 24 26  1  0
 24 25  1  0
 25 15  1  0
 26 27  1  0
 28 26  2  0
M  END
$$$$
