ANK.pdb
     RDKit          3D

 23 22  0  0  1  0  0  0  0  0999 V2000
   17.7913  -15.7107  -17.6274 C   0  0  0  0  0  0  0  0  0  0  0  0
   18.4388  -14.8035  -16.5842 C   0  0  2  0  0  0  0  0  0  0  0  0
   18.1862  -15.4161  -15.2975 N   0  0  0  0  0  0  0  0  0  0  0  0
   17.8064  -13.4645  -16.5836 C   0  0  0  0  0  0  0  0  0  0  0  0
   17.9178  -12.7258  -17.6020 O   0  0  0  0  0  0  0  0  0  0  0  0
   13.7774  -13.6843  -13.7020 N   0  0  0  0  0  0  0  0  0  0  0  0
   14.2098  -12.8426  -14.7448 C   0  0  0  0  0  0  0  0  0  0  0  0
   13.7213  -12.9692  -15.8778 O   0  0  0  0  0  0  0  0  0  0  0  0
   15.2351  -11.8248  -14.4753 C   0  0  0  0  0  0  0  0  0  0  0  0
   16.3540  -11.7566  -15.4418 C   0  0  2  0  0  0  0  0  0  0  0  0
   17.0755  -12.9903  -15.4610 N   0  0  0  0  0  0  0  0  0  0  0  0
   17.2454  -10.5876  -15.2627 C   0  0  0  0  0  0  0  0  0  0  0  0
   18.0964  -10.6496  -14.3483 O   0  0  0  0  0  0  0  0  0  0  0  0
   17.1841   -9.4269  -16.0581 N   0  0  0  0  0  0  0  0  0  0  0  0
   18.0520   -8.2837  -15.9901 C   0  0  1  0  0  0  0  0  0  0  0  0
   18.4190   -7.7999  -17.3421 C   0  0  0  0  0  0  0  0  0  0  0  0
   19.3784   -6.6683  -17.4146 C   0  0  0  0  0  0  0  0  0  0  0  0
   19.7274   -6.2442  -18.8198 C   0  0  0  0  0  0  0  0  0  0  0  0
   20.8320   -5.2052  -18.8255 C   0  0  0  0  0  0  0  0  0  0  0  0
   21.2831   -4.9197  -20.1712 N   0  0  0  0  0  0  0  0  0  0  0  0
   17.5795   -7.2305  -15.0492 C   0  0  0  0  0  0  0  0  0  0  0  0
   16.2280   -6.9524  -14.9195 O   0  0  0  0  0  0  0  0  0  0  0  0
   18.3675   -6.5582  -14.3386 O   0  0  0  0  0  0  0  0  0  0  0  0
  2  3  1  0
  2  1  1  6
  4  2  1  0
  5  4  2  0
  6  7  1  0
  7  9  1  0
  7  8  2  0
 10  9  1  1
 10 11  1  0
 10 12  1  0
 11  4  1  0
 12 14  1  0
 13 12  2  0
 14 15  1  0
 15 16  1  6
 15 21  1  0
 17 16  1  0
 18 17  1  0
 19 18  1  0
 19 20  1  0
 21 22  1  0
 23 21  2  0
M  END
$$$$
