ANK.pdb
     RDKit          3D

 23 22  0  0  1  0  0  0  0  0999 V2000
   16.8965   -9.9784  -15.2995 C   0  0  0  0  0  0  0  0  0  0  0  0
   17.9744   -9.6424  -14.2720 C   0  0  2  0  0  0  0  0  0  0  0  0
   18.8434  -10.7976  -14.1996 N   0  0  0  0  0  0  0  0  0  0  0  0
   17.3798   -9.4345  -12.9318 C   0  0  0  0  0  0  0  0  0  0  0  0
   17.0220  -10.4359  -12.2502 O   0  0  0  0  0  0  0  0  0  0  0  0
   16.0812   -7.1671   -8.4242 N   0  0  0  0  0  0  0  0  0  0  0  0
   17.1735   -6.5123   -9.0251 C   0  0  0  0  0  0  0  0  0  0  0  0
   17.8078   -5.6619   -8.3828 O   0  0  0  0  0  0  0  0  0  0  0  0
   17.5465   -6.8466  -10.4068 C   0  0  0  0  0  0  0  0  0  0  0  0
   16.7146   -7.8723  -11.0753 C   0  0  2  0  0  0  0  0  0  0  0  0
   17.2019   -8.1314  -12.3937 N   0  0  0  0  0  0  0  0  0  0  0  0
   15.2618   -7.5853  -11.0600 C   0  0  0  0  0  0  0  0  0  0  0  0
   14.8615   -6.6139  -11.7385 O   0  0  0  0  0  0  0  0  0  0  0  0
   14.3222   -8.3396  -10.3309 N   0  0  0  0  0  0  0  0  0  0  0  0
   12.9183   -8.0689  -10.1872 C   0  0  1  0  0  0  0  0  0  0  0  0
   12.2949   -8.9574   -9.1779 C   0  0  0  0  0  0  0  0  0  0  0  0
   10.8441   -8.7696   -8.9203 C   0  0  0  0  0  0  0  0  0  0  0  0
   10.2427   -9.8006   -7.9975 C   0  0  0  0  0  0  0  0  0  0  0  0
    8.7777   -9.5153   -7.7295 C   0  0  0  0  0  0  0  0  0  0  0  0
    8.2047  -10.4916   -6.8271 N   0  0  0  0  0  0  0  0  0  0  0  0
   12.6017   -6.6216  -10.0361 C   0  0  0  0  0  0  0  0  0  0  0  0
   13.2927   -5.8375   -9.1260 O   0  0  0  0  0  0  0  0  0  0  0  0
   11.7121   -6.0513  -10.7153 O   0  0  0  0  0  0  0  0  0  0  0  0
  2  3  1  0
  2  1  1  6
  4  2  1  0
  5  4  2  0
  6  7  1  0
  7  9  1  0
  7  8  2  0
 10  9  1  6
 10 11  1  0
 10 12  1  0
 11  4  1  0
 12 14  1  0
 13 12  2  0
 14 15  1  0
 15 16  1  1
 15 21  1  0
 17 16  1  0
 18 17  1  0
 19 18  1  0
 19 20  1  0
 21 22  1  0
 23 21  2  0
M  END
$$$$
