ANK.pdb
     RDKit          3D

 23 22  0  0  1  0  0  0  0  0999 V2000
   16.5336  -13.5303  -15.6756 C   0  0  0  0  0  0  0  0  0  0  0  0
   15.5799  -12.3490  -15.8357 C   0  0  2  0  0  0  0  0  0  0  0  0
   15.7029  -11.9084  -17.2088 N   0  0  0  0  0  0  0  0  0  0  0  0
   15.9801  -11.2249  -14.9586 C   0  0  0  0  0  0  0  0  0  0  0  0
   16.0372  -11.4031  -13.7095 O   0  0  0  0  0  0  0  0  0  0  0  0
   17.4858   -6.5425  -13.2742 N   0  0  0  0  0  0  0  0  0  0  0  0
   18.0113   -6.7595  -14.5625 C   0  0  0  0  0  0  0  0  0  0  0  0
   18.8590   -5.9776  -15.0189 O   0  0  0  0  0  0  0  0  0  0  0  0
   17.5470   -7.9110  -15.3489 C   0  0  0  0  0  0  0  0  0  0  0  0
   16.5541   -8.7900  -14.6913 C   0  0  2  0  0  0  0  0  0  0  0  0
   16.3020   -9.9474  -15.4912 N   0  0  0  0  0  0  0  0  0  0  0  0
   15.3054   -8.1047  -14.2861 C   0  0  0  0  0  0  0  0  0  0  0  0
   14.5490   -7.7037  -15.1979 O   0  0  0  0  0  0  0  0  0  0  0  0
   14.9321   -7.8848  -12.9461 N   0  0  0  0  0  0  0  0  0  0  0  0
   13.7803   -7.1665  -12.4745 C   0  0  1  0  0  0  0  0  0  0  0  0
   13.1582   -7.8423  -11.3113 C   0  0  0  0  0  0  0  0  0  0  0  0
   11.9027   -7.2509  -10.7817 C   0  0  0  0  0  0  0  0  0  0  0  0
   11.3359   -7.9753   -9.5858 C   0  0  0  0  0  0  0  0  0  0  0  0
   10.1724   -7.2151   -8.9793 C   0  0  0  0  0  0  0  0  0  0  0  0
    9.6218   -7.9135   -7.8369 N   0  0  0  0  0  0  0  0  0  0  0  0
   14.0158   -5.7059  -12.3047 C   0  0  0  0  0  0  0  0  0  0  0  0
   13.0578   -4.7845  -12.6971 O   0  0  0  0  0  0  0  0  0  0  0  0
   15.0726   -5.2468  -11.8045 O   0  0  0  0  0  0  0  0  0  0  0  0
  2  3  1  0
  2  1  1  6
  4  2  1  0
  5  4  2  0
  6  7  1  0
  7  9  1  0
  7  8  2  0
 10  9  1  6
 10 11  1  0
 10 12  1  0
 11  4  1  0
 12 14  1  0
 13 12  2  0
 14 15  1  0
 15 16  1  1
 15 21  1  0
 17 16  1  0
 18 17  1  0
 19 18  1  0
 19 20  1  0
 21 22  1  0
 23 21  2  0
M  END
$$$$
