ANK.pdb
     RDKit          3D

 23 22  0  0  1  0  0  0  0  0999 V2000
   18.3555  -11.8125  -18.4068 C   0  0  0  0  0  0  0  0  0  0  0  0
   19.5978  -11.9274  -17.5269 C   0  0  2  0  0  0  0  0  0  0  0  0
   19.5336  -13.2296  -16.8985 N   0  0  0  0  0  0  0  0  0  0  0  0
   19.5836  -10.9037  -16.4570 C   0  0  0  0  0  0  0  0  0  0  0  0
   18.7169  -10.9762  -15.5411 O   0  0  0  0  0  0  0  0  0  0  0  0
   23.4648  -10.2279  -14.4867 N   0  0  0  0  0  0  0  0  0  0  0  0
   22.3963   -9.4121  -14.0675 C   0  0  0  0  0  0  0  0  0  0  0  0
   21.9517   -9.5277  -12.9155 O   0  0  0  0  0  0  0  0  0  0  0  0
   21.8227   -8.4340  -15.0024 C   0  0  0  0  0  0  0  0  0  0  0  0
   20.4711   -8.7440  -15.5201 C   0  0  2  0  0  0  0  0  0  0  0  0
   20.5247   -9.8392  -16.4370 N   0  0  0  0  0  0  0  0  0  0  0  0
   19.7492   -7.5783  -16.0795 C   0  0  0  0  0  0  0  0  0  0  0  0
   20.1852   -7.0908  -17.1456 O   0  0  0  0  0  0  0  0  0  0  0  0
   18.6134   -6.9994  -15.4808 N   0  0  0  0  0  0  0  0  0  0  0  0
   17.8433   -5.8916  -15.9754 C   0  0  1  0  0  0  0  0  0  0  0  0
   16.3937   -6.2002  -15.9856 C   0  0  0  0  0  0  0  0  0  0  0  0
   15.4917   -5.1758  -16.5717 C   0  0  0  0  0  0  0  0  0  0  0  0
   14.0296   -5.5458  -16.5319 C   0  0  0  0  0  0  0  0  0  0  0  0
   13.1827   -4.5339  -17.2793 C   0  0  0  0  0  0  0  0  0  0  0  0
   11.7793   -4.8873  -17.2414 N   0  0  0  0  0  0  0  0  0  0  0  0
   18.2071   -4.5874  -15.3554 C   0  0  0  0  0  0  0  0  0  0  0  0
   18.1847   -3.4191  -16.1006 O   0  0  0  0  0  0  0  0  0  0  0  0
   18.5425   -4.4842  -14.1493 O   0  0  0  0  0  0  0  0  0  0  0  0
  2  3  1  0
  2  1  1  6
  4  2  1  0
  5  4  2  0
  6  7  1  0
  7  9  1  0
  7  8  2  0
 10  9  1  6
 10 11  1  0
 10 12  1  0
 11  4  1  0
 12 14  1  0
 13 12  2  0
 14 15  1  0
 15 16  1  1
 15 21  1  0
 17 16  1  0
 18 17  1  0
 19 18  1  0
 19 20  1  0
 21 22  1  0
 23 21  2  0
M  END
$$$$
