ANK.pdb
     RDKit          3D

 23 22  0  0  1  0  0  0  0  0999 V2000
   16.9255  -15.1491  -16.9238 C   0  0  0  0  0  0  0  0  0  0  0  0
   17.7221  -14.0571  -16.2141 C   0  0  2  0  0  0  0  0  0  0  0  0
   17.7173  -14.3974  -14.8074 N   0  0  0  0  0  0  0  0  0  0  0  0
   17.0635  -12.7395  -16.3666 C   0  0  0  0  0  0  0  0  0  0  0  0
   16.9938  -12.2101  -17.5112 O   0  0  0  0  0  0  0  0  0  0  0  0
   14.0611   -8.6442  -15.6089 N   0  0  0  0  0  0  0  0  0  0  0  0
   13.8503   -9.5450  -14.5474 C   0  0  0  0  0  0  0  0  0  0  0  0
   12.8827   -9.3833  -13.7886 O   0  0  0  0  0  0  0  0  0  0  0  0
   14.7813  -10.6656  -14.3537 C   0  0  0  0  0  0  0  0  0  0  0  0
   15.8854  -10.7710  -15.3338 C   0  0  2  0  0  0  0  0  0  0  0  0
   16.5069  -12.0555  -15.2523 N   0  0  0  0  0  0  0  0  0  0  0  0
   16.8691   -9.6660  -15.2667 C   0  0  0  0  0  0  0  0  0  0  0  0
   17.7305   -9.7187  -14.3614 O   0  0  0  0  0  0  0  0  0  0  0  0
   16.8836   -8.5751  -16.1574 N   0  0  0  0  0  0  0  0  0  0  0  0
   17.7997   -7.4682  -16.1562 C   0  0  1  0  0  0  0  0  0  0  0  0
   18.3605   -7.2265  -17.5067 C   0  0  0  0  0  0  0  0  0  0  0  0
   19.3138   -6.0961  -17.6472 C   0  0  0  0  0  0  0  0  0  0  0  0
   19.9730   -6.0096  -19.0015 C   0  0  0  0  0  0  0  0  0  0  0  0
   20.9436   -4.8464  -19.0707 C   0  0  0  0  0  0  0  0  0  0  0  0
   21.6835   -4.8478  -20.3151 N   0  0  0  0  0  0  0  0  0  0  0  0
   17.2737   -6.2585  -15.4650 C   0  0  0  0  0  0  0  0  0  0  0  0
   15.9360   -5.9109  -15.5671 O   0  0  0  0  0  0  0  0  0  0  0  0
   18.0022   -5.5104  -14.7667 O   0  0  0  0  0  0  0  0  0  0  0  0
  2  3  1  0
  2  1  1  6
  4  2  1  0
  5  4  2  0
  6  7  1  0
  7  9  1  0
  7  8  2  0
 10  9  1  1
 10 11  1  0
 10 12  1  0
 11  4  1  0
 12 14  1  0
 13 12  2  0
 14 15  1  0
 15 16  1  6
 15 21  1  0
 17 16  1  0
 18 17  1  0
 19 18  1  0
 19 20  1  0
 21 22  1  0
 23 21  2  0
M  END
$$$$
