ANK.pdb
     RDKit          3D

 23 22  0  0  1  0  0  0  0  0999 V2000
   19.1435  -11.3843  -19.7390 C   0  0  0  0  0  0  0  0  0  0  0  0
   18.8605  -11.5679  -18.2501 C   0  0  2  0  0  0  0  0  0  0  0  0
   17.5444  -12.1625  -18.1551 N   0  0  0  0  0  0  0  0  0  0  0  0
   18.8216  -10.2609  -17.5550 C   0  0  0  0  0  0  0  0  0  0  0  0
   17.7058   -9.7561  -17.2460 O   0  0  0  0  0  0  0  0  0  0  0  0
   20.2838   -6.1343  -14.7451 N   0  0  0  0  0  0  0  0  0  0  0  0
   21.2284   -7.1713  -14.6212 C   0  0  0  0  0  0  0  0  0  0  0  0
   22.1617   -7.0575  -13.8125 O   0  0  0  0  0  0  0  0  0  0  0  0
   21.0944   -8.3753  -15.4533 C   0  0  0  0  0  0  0  0  0  0  0  0
   20.0414   -8.3338  -16.4928 C   0  0  2  0  0  0  0  0  0  0  0  0
   20.0133   -9.5600  -17.2268 N   0  0  0  0  0  0  0  0  0  0  0  0
   20.1053   -7.1497  -17.3799 C   0  0  0  0  0  0  0  0  0  0  0  0
   21.0341   -7.1088  -18.2164 O   0  0  0  0  0  0  0  0  0  0  0  0
   19.1868   -6.0832  -17.3298 N   0  0  0  0  0  0  0  0  0  0  0  0
   19.1730   -4.9124  -18.1627 C   0  0  1  0  0  0  0  0  0  0  0  0
   17.8488   -4.7143  -18.7984 C   0  0  0  0  0  0  0  0  0  0  0  0
   17.7382   -3.6191  -19.7958 C   0  0  0  0  0  0  0  0  0  0  0  0
   16.3527   -3.4416  -20.3661 C   0  0  0  0  0  0  0  0  0  0  0  0
   16.3389   -2.4042  -21.4721 C   0  0  0  0  0  0  0  0  0  0  0  0
   14.9866   -2.0467  -21.8455 N   0  0  0  0  0  0  0  0  0  0  0  0
   19.7446   -3.7048  -17.5047 C   0  0  0  0  0  0  0  0  0  0  0  0
   20.7442   -2.9694  -18.1216 O   0  0  0  0  0  0  0  0  0  0  0  0
   19.3539   -3.3002  -16.3815 O   0  0  0  0  0  0  0  0  0  0  0  0
  2  3  1  0
  2  1  1  6
  4  2  1  0
  5  4  2  0
  6  7  1  0
  7  9  1  0
  7  8  2  0
 10  9  1  1
 10 11  1  0
 10 12  1  0
 11  4  1  0
 12 14  1  0
 13 12  2  0
 14 15  1  0
 15 16  1  1
 15 21  1  0
 17 16  1  0
 18 17  1  0
 19 18  1  0
 19 20  1  0
 21 22  1  0
 23 21  2  0
M  END
$$$$
