ANK.pdb
     RDKit          3D

 23 22  0  0  1  0  0  0  0  0999 V2000
   27.1724  -18.5076  -15.3116 C   0  0  0  0  0  0  0  0  0  0  0  0
   27.4918  -19.7835  -14.5367 C   0  0  2  0  0  0  0  0  0  0  0  0
   28.1400  -20.6776  -15.4721 N   0  0  0  0  0  0  0  0  0  0  0  0
   26.2507  -20.4391  -14.0647 C   0  0  0  0  0  0  0  0  0  0  0  0
   25.6746  -21.2832  -14.8069 O   0  0  0  0  0  0  0  0  0  0  0  0
   26.1544  -20.9339   -8.9695 N   0  0  0  0  0  0  0  0  0  0  0  0
   25.5607  -21.4595  -10.1332 C   0  0  0  0  0  0  0  0  0  0  0  0
   25.9457  -22.5510  -10.5788 O   0  0  0  0  0  0  0  0  0  0  0  0
   24.4918  -20.7060  -10.8037 C   0  0  0  0  0  0  0  0  0  0  0  0
   24.5000  -20.7425  -12.2834 C   0  0  2  0  0  0  0  0  0  0  0  0
   25.6917  -20.1398  -12.7930 N   0  0  0  0  0  0  0  0  0  0  0  0
   23.2785  -20.1922  -12.9146 C   0  0  0  0  0  0  0  0  0  0  0  0
   23.1241  -18.9515  -12.8808 O   0  0  0  0  0  0  0  0  0  0  0  0
   22.2965  -20.9835  -13.5416 N   0  0  0  0  0  0  0  0  0  0  0  0
   21.0985  -20.5251  -14.1892 C   0  0  1  0  0  0  0  0  0  0  0  0
   20.7362  -21.3914  -15.3359 C   0  0  0  0  0  0  0  0  0  0  0  0
   19.5124  -21.0266  -16.0947 C   0  0  0  0  0  0  0  0  0  0  0  0
   19.1562  -21.9962  -17.1943 C   0  0  0  0  0  0  0  0  0  0  0  0
   17.9482  -21.5226  -17.9792 C   0  0  0  0  0  0  0  0  0  0  0  0
   17.5716  -22.4786  -18.9991 N   0  0  0  0  0  0  0  0  0  0  0  0
   19.9855  -20.2287  -13.2452 C   0  0  0  0  0  0  0  0  0  0  0  0
   19.8216  -20.9740  -12.0883 O   0  0  0  0  0  0  0  0  0  0  0  0
   19.1587  -19.3046  -13.4462 O   0  0  0  0  0  0  0  0  0  0  0  0
  2  3  1  0
  2  1  1  6
  4  2  1  0
  5  4  2  0
  6  7  1  0
  7  9  1  0
  7  8  2  0
 10  9  1  1
 10 11  1  0
 10 12  1  0
 11  4  1  0
 12 14  1  0
 13 12  2  0
 14 15  1  0
 15 16  1  6
 15 21  1  0
 17 16  1  0
 18 17  1  0
 19 18  1  0
 19 20  1  0
 21 22  1  0
 23 21  2  0
M  END
$$$$
