ANK.pdb
     RDKit          3D

 23 22  0  0  1  0  0  0  0  0999 V2000
   24.5023  -36.1108  -12.7296 C   0  0  0  0  0  0  0  0  0  0  0  0
   24.7292  -34.6012  -12.7202 C   0  0  2  0  0  0  0  0  0  0  0  0
   26.0028  -34.3760  -13.3699 N   0  0  0  0  0  0  0  0  0  0  0  0
   24.8283  -34.0908  -11.3336 C   0  0  0  0  0  0  0  0  0  0  0  0
   25.8492  -34.3663  -10.6430 O   0  0  0  0  0  0  0  0  0  0  0  0
   23.8500  -29.3314   -9.0229 N   0  0  0  0  0  0  0  0  0  0  0  0
   23.5293  -30.5663   -8.4269 C   0  0  0  0  0  0  0  0  0  0  0  0
   23.7299  -30.7325   -7.2143 O   0  0  0  0  0  0  0  0  0  0  0  0
   22.9608  -31.6418   -9.2515 C   0  0  0  0  0  0  0  0  0  0  0  0
   23.7935  -32.8564   -9.4009 C   0  0  2  0  0  0  0  0  0  0  0  0
   23.7987  -33.2963  -10.7608 N   0  0  0  0  0  0  0  0  0  0  0  0
   23.4557  -33.9480   -8.4590 C   0  0  0  0  0  0  0  0  0  0  0  0
   22.8832  -34.9555   -8.9296 O   0  0  0  0  0  0  0  0  0  0  0  0
   23.7421  -33.9097   -7.0805 N   0  0  0  0  0  0  0  0  0  0  0  0
   23.7921  -35.0243   -6.1751 C   0  0  1  0  0  0  0  0  0  0  0  0
   24.5665  -36.1522   -6.7451 C   0  0  0  0  0  0  0  0  0  0  0  0
   24.6663  -37.3844   -5.9216 C   0  0  0  0  0  0  0  0  0  0  0  0
   25.5068  -38.4738   -6.5404 C   0  0  0  0  0  0  0  0  0  0  0  0
   25.5191  -39.7204   -5.6770 C   0  0  0  0  0  0  0  0  0  0  0  0
   26.2177  -40.8084   -6.3283 N   0  0  0  0  0  0  0  0  0  0  0  0
   24.1594  -34.6462   -4.7823 C   0  0  0  0  0  0  0  0  0  0  0  0
   24.0538  -35.5636   -3.7489 O   0  0  0  0  0  0  0  0  0  0  0  0
   24.5777  -33.5003   -4.4826 O   0  0  0  0  0  0  0  0  0  0  0  0
  2  3  1  0
  2  1  1  1
  4  2  1  0
  5  4  2  0
  6  7  1  0
  7  9  1  0
  7  8  2  0
 10  9  1  6
 10 11  1  0
 10 12  1  0
 11  4  1  0
 12 14  1  0
 13 12  2  0
 14 15  1  0
 15 16  1  6
 15 21  1  0
 17 16  1  0
 18 17  1  0
 19 18  1  0
 19 20  1  0
 21 22  1  0
 23 21  2  0
M  END
$$$$
