ANK.pdb
     RDKit          3D

 23 22  0  0  1  0  0  0  0  0999 V2000
   26.4658  -19.9304  -17.1277 C   0  0  0  0  0  0  0  0  0  0  0  0
   27.1272  -20.7380  -16.0136 C   0  0  2  0  0  0  0  0  0  0  0  0
   27.7271  -21.8926  -16.6476 N   0  0  0  0  0  0  0  0  0  0  0  0
   26.1192  -21.2231  -15.0433 C   0  0  0  0  0  0  0  0  0  0  0  0
   25.5444  -22.3292  -15.2472 O   0  0  0  0  0  0  0  0  0  0  0  0
   26.0517  -22.0252   -9.8941 N   0  0  0  0  0  0  0  0  0  0  0  0
   26.2593  -21.1870  -11.0064 C   0  0  0  0  0  0  0  0  0  0  0  0
   27.3985  -21.0708  -11.4827 O   0  0  0  0  0  0  0  0  0  0  0  0
   25.1214  -20.4609  -11.5877 C   0  0  0  0  0  0  0  0  0  0  0  0
   24.7477  -20.8363  -12.9698 C   0  0  2  0  0  0  0  0  0  0  0  0
   25.7828  -20.4711  -13.8855 N   0  0  0  0  0  0  0  0  0  0  0  0
   23.4189  -20.3427  -13.3986 C   0  0  0  0  0  0  0  0  0  0  0  0
   23.2095  -19.1124  -13.3156 O   0  0  0  0  0  0  0  0  0  0  0  0
   22.3944  -21.1761  -13.8878 N   0  0  0  0  0  0  0  0  0  0  0  0
   21.0480  -20.7937  -14.2129 C   0  0  1  0  0  0  0  0  0  0  0  0
   20.3972  -21.7936  -15.0923 C   0  0  0  0  0  0  0  0  0  0  0  0
   19.0098  -21.4997  -15.5341 C   0  0  0  0  0  0  0  0  0  0  0  0
   18.3769  -22.5983  -16.3519 C   0  0  0  0  0  0  0  0  0  0  0  0
   17.0209  -22.1788  -16.8859 C   0  0  0  0  0  0  0  0  0  0  0  0
   16.3442  -23.2811  -17.5363 N   0  0  0  0  0  0  0  0  0  0  0  0
   20.2447  -20.3740  -13.0312 C   0  0  0  0  0  0  0  0  0  0  0  0
   19.4589  -19.2334  -13.0789 O   0  0  0  0  0  0  0  0  0  0  0  0
   20.2379  -21.0226  -11.9555 O   0  0  0  0  0  0  0  0  0  0  0  0
  2  3  1  0
  2  1  1  6
  4  2  1  0
  5  4  2  0
  6  7  1  0
  7  9  1  0
  7  8  2  0
 10  9  1  1
 10 11  1  0
 10 12  1  0
 11  4  1  0
 12 14  1  0
 13 12  2  0
 14 15  1  0
 15 16  1  1
 15 21  1  0
 17 16  1  0
 18 17  1  0
 19 18  1  0
 19 20  1  0
 21 22  1  0
 23 21  2  0
M  END
$$$$
