ANK.pdb
     RDKit          3D

 23 22  0  0  1  0  0  0  0  0999 V2000
   18.8880  -12.0604  -15.8325 C   0  0  0  0  0  0  0  0  0  0  0  0
   18.0117  -10.8519  -15.5126 C   0  0  2  0  0  0  0  0  0  0  0  0
   18.1929   -9.9166  -16.6021 N   0  0  0  0  0  0  0  0  0  0  0  0
   18.4588  -10.1909  -14.2652 C   0  0  0  0  0  0  0  0  0  0  0  0
   18.4141  -10.8281  -13.1756 O   0  0  0  0  0  0  0  0  0  0  0  0
   21.1939   -5.0760  -12.3662 N   0  0  0  0  0  0  0  0  0  0  0  0
   20.9557   -6.4569  -12.2271 C   0  0  0  0  0  0  0  0  0  0  0  0
   21.1841   -7.0125  -11.1420 O   0  0  0  0  0  0  0  0  0  0  0  0
   20.4393   -7.2210  -13.3714 C   0  0  0  0  0  0  0  0  0  0  0  0
   19.3147   -8.1400  -13.0857 C   0  0  2  0  0  0  0  0  0  0  0  0
   18.9382   -8.8532  -14.2658 N   0  0  0  0  0  0  0  0  0  0  0  0
   18.1556   -7.4993  -12.4231 C   0  0  0  0  0  0  0  0  0  0  0  0
   17.4721   -6.7041  -13.1050 O   0  0  0  0  0  0  0  0  0  0  0  0
   17.7893   -7.7364  -11.0841 N   0  0  0  0  0  0  0  0  0  0  0  0
   16.7348   -7.0953  -10.3480 C   0  0  1  0  0  0  0  0  0  0  0  0
   15.6653   -8.0550   -9.9851 C   0  0  0  0  0  0  0  0  0  0  0  0
   14.4850   -7.5079   -9.2682 C   0  0  0  0  0  0  0  0  0  0  0  0
   13.4286   -8.5354   -8.9447 C   0  0  0  0  0  0  0  0  0  0  0  0
   12.3075   -7.9346   -8.1190 C   0  0  0  0  0  0  0  0  0  0  0  0
   11.2852   -8.9155   -7.8213 N   0  0  0  0  0  0  0  0  0  0  0  0
   17.2215   -6.2397   -9.2304 C   0  0  0  0  0  0  0  0  0  0  0  0
   18.5488   -6.2811   -8.8340 O   0  0  0  0  0  0  0  0  0  0  0  0
   16.4678   -5.4518   -8.6067 O   0  0  0  0  0  0  0  0  0  0  0  0
  2  3  1  0
  2  1  1  6
  4  2  1  0
  5  4  2  0
  6  7  1  0
  7  9  1  0
  7  8  2  0
 10  9  1  6
 10 11  1  0
 10 12  1  0
 11  4  1  0
 12 14  1  0
 13 12  2  0
 14 15  1  0
 15 16  1  1
 15 21  1  0
 17 16  1  0
 18 17  1  0
 19 18  1  0
 19 20  1  0
 21 22  1  0
 23 21  2  0
M  END
$$$$
