ANK.pdb
     RDKit          3D

 23 22  0  0  1  0  0  0  0  0999 V2000
   17.0967  -11.7442  -19.1736 C   0  0  0  0  0  0  0  0  0  0  0  0
   18.2097  -12.2672  -18.2689 C   0  0  2  0  0  0  0  0  0  0  0  0
   17.6320  -13.3423  -17.4910 N   0  0  0  0  0  0  0  0  0  0  0  0
   18.6631  -11.2168  -17.3287 C   0  0  0  0  0  0  0  0  0  0  0  0
   17.8545  -10.7598  -16.4728 O   0  0  0  0  0  0  0  0  0  0  0  0
   21.2037  -11.9085  -14.7938 N   0  0  0  0  0  0  0  0  0  0  0  0
   22.2488  -11.1035  -15.2863 C   0  0  0  0  0  0  0  0  0  0  0  0
   23.4192  -11.3483  -14.9567 O   0  0  0  0  0  0  0  0  0  0  0  0
   21.9373   -9.9831  -16.1850 C   0  0  0  0  0  0  0  0  0  0  0  0
   20.5011   -9.7410  -16.4491 C   0  0  2  0  0  0  0  0  0  0  0  0
   19.9902  -10.7100  -17.3672 N   0  0  0  0  0  0  0  0  0  0  0  0
   20.1810   -8.3547  -16.8600 C   0  0  0  0  0  0  0  0  0  0  0  0
   20.5076   -8.0091  -18.0168 O   0  0  0  0  0  0  0  0  0  0  0  0
   19.5371   -7.4197  -16.0265 N   0  0  0  0  0  0  0  0  0  0  0  0
   19.1838   -6.0661  -16.3545 C   0  0  1  0  0  0  0  0  0  0  0  0
   17.7286   -5.9294  -16.5999 C   0  0  0  0  0  0  0  0  0  0  0  0
   17.2265   -4.5712  -16.9311 C   0  0  0  0  0  0  0  0  0  0  0  0
   15.7340   -4.4989  -17.1392 C   0  0  0  0  0  0  0  0  0  0  0  0
   15.3053   -3.1168  -17.5928 C   0  0  0  0  0  0  0  0  0  0  0  0
   13.8840   -3.0657  -17.8634 N   0  0  0  0  0  0  0  0  0  0  0  0
   19.7656   -5.0559  -15.4278 C   0  0  0  0  0  0  0  0  0  0  0  0
   19.9221   -3.7377  -15.8261 O   0  0  0  0  0  0  0  0  0  0  0  0
   20.1329   -5.3431  -14.2614 O   0  0  0  0  0  0  0  0  0  0  0  0
  2  3  1  0
  2  1  1  6
  4  2  1  0
  5  4  2  0
  6  7  1  0
  7  9  1  0
  7  8  2  0
 10  9  1  6
 10 11  1  0
 10 12  1  0
 11  4  1  0
 12 14  1  0
 13 12  2  0
 14 15  1  0
 15 16  1  1
 15 21  1  0
 17 16  1  0
 18 17  1  0
 19 18  1  0
 19 20  1  0
 21 22  1  0
 23 21  2  0
M  END
$$$$
