ANK.pdb
     RDKit          3D

 23 22  0  0  1  0  0  0  0  0999 V2000
   19.0962  -11.6887  -15.9557 C   0  0  0  0  0  0  0  0  0  0  0  0
   18.1723  -10.5253  -15.6041 C   0  0  2  0  0  0  0  0  0  0  0  0
   18.3432   -9.5384  -16.6488 N   0  0  0  0  0  0  0  0  0  0  0  0
   18.5710   -9.9039  -14.3204 C   0  0  0  0  0  0  0  0  0  0  0  0
   18.4142  -10.5476  -13.2450 O   0  0  0  0  0  0  0  0  0  0  0  0
   21.3946   -4.9057  -12.2286 N   0  0  0  0  0  0  0  0  0  0  0  0
   21.1240   -6.2832  -12.1190 C   0  0  0  0  0  0  0  0  0  0  0  0
   21.3006   -6.8586  -11.0346 O   0  0  0  0  0  0  0  0  0  0  0  0
   20.6354   -7.0203  -13.2928 C   0  0  0  0  0  0  0  0  0  0  0  0
   19.4923   -7.9313  -13.0596 C   0  0  2  0  0  0  0  0  0  0  0  0
   19.1271   -8.5972  -14.2704 N   0  0  0  0  0  0  0  0  0  0  0  0
   18.3309   -7.2962  -12.3957 C   0  0  0  0  0  0  0  0  0  0  0  0
   17.7114   -6.4197  -13.0378 O   0  0  0  0  0  0  0  0  0  0  0  0
   17.8951   -7.6243  -11.0972 N   0  0  0  0  0  0  0  0  0  0  0  0
   16.8358   -6.9982  -10.3552 C   0  0  1  0  0  0  0  0  0  0  0  0
   15.8366   -7.9908   -9.8935 C   0  0  0  0  0  0  0  0  0  0  0  0
   14.6476   -7.4647   -9.1753 C   0  0  0  0  0  0  0  0  0  0  0  0
   13.6942   -8.5314   -8.6961 C   0  0  0  0  0  0  0  0  0  0  0  0
   12.5294   -7.9299   -7.9338 C   0  0  0  0  0  0  0  0  0  0  0  0
   11.5208   -8.9251   -7.6369 N   0  0  0  0  0  0  0  0  0  0  0  0
   17.3169   -6.0531   -9.3096 C   0  0  0  0  0  0  0  0  0  0  0  0
   16.5803   -4.9258   -8.9821 O   0  0  0  0  0  0  0  0  0  0  0  0
   18.3914   -6.2299   -8.6836 O   0  0  0  0  0  0  0  0  0  0  0  0
  2  3  1  0
  2  1  1  6
  4  2  1  0
  5  4  2  0
  6  7  1  0
  7  9  1  0
  7  8  2  0
 10  9  1  6
 10 11  1  0
 10 12  1  0
 11  4  1  0
 12 14  1  0
 13 12  2  0
 14 15  1  0
 15 16  1  1
 15 21  1  0
 17 16  1  0
 18 17  1  0
 19 18  1  0
 19 20  1  0
 21 22  1  0
 23 21  2  0
M  END
$$$$
