CKY.pdb
     RDKit          3D

 28 28  0  0  1  0  0  0  0  0999 V2000
   24.5860  -23.8273  -17.2373 N   0  0  0  0  0  0  0  0  0  0  0  0
   25.4872  -24.4590  -16.3145 C   0  0  1  0  0  0  0  0  0  0  0  0
   24.7184  -25.0797  -15.1938 C   0  0  0  0  0  0  0  0  0  0  0  0
   24.2615  -23.7507  -14.0361 S   0  0  0  0  0  0  0  0  0  0  0  0
   26.2967  -25.5122  -17.0341 C   0  0  0  0  0  0  0  0  0  0  0  0
   25.6765  -26.1993  -17.8623 O   0  0  0  0  0  0  0  0  0  0  0  0
   27.6685  -25.6874  -16.7671 N   0  0  0  0  0  0  0  0  0  0  0  0
   28.5556  -26.6778  -17.2955 C   0  0  1  0  0  0  0  0  0  0  0  0
   29.9284  -26.1551  -17.6680 C   0  0  0  0  0  0  0  0  0  0  0  0
   30.7401  -27.2158  -18.3696 C   0  0  0  0  0  0  0  0  0  0  0  0
   32.0646  -26.6585  -18.8697 C   0  0  0  0  0  0  0  0  0  0  0  0
   33.2294  -27.4680  -18.4023 C   0  0  0  0  0  0  0  0  0  0  0  0
   34.4565  -26.8019  -18.7705 N   0  0  0  0  0  0  0  0  0  0  0  0
   28.4974  -27.9924  -16.7060 C   0  0  0  0  0  0  0  0  0  0  0  0
   29.1286  -28.2099  -15.6319 O   0  0  0  0  0  0  0  0  0  0  0  0
   26.4245  -35.7430  -13.5124 O   0  0  0  0  0  0  0  0  0  0  0  0
   26.4422  -34.4885  -14.0846 C   0  0  0  0  0  0  0  0  0  0  0  0
   27.2226  -33.4594  -13.6094 C   0  0  0  0  0  0  0  0  0  0  0  0
   27.2205  -32.2163  -14.2009 C   0  0  0  0  0  0  0  0  0  0  0  0
   26.4196  -31.9505  -15.3149 C   0  0  0  0  0  0  0  0  0  0  0  0
   26.4319  -30.5941  -15.9066 C   0  0  0  0  0  0  0  0  0  0  0  0
   27.7145  -30.3945  -16.6657 C   0  0  2  0  0  0  0  0  0  0  0  0
   27.7721  -29.0629  -17.2586 N   0  0  0  0  0  0  0  0  0  0  0  0
   28.0442  -31.4462  -17.6265 C   0  0  0  0  0  0  0  0  0  0  0  0
   28.3898  -32.6035  -17.2875 O   0  0  0  0  0  0  0  0  0  0  0  0
   25.6338  -32.9702  -15.8005 C   0  0  0  0  0  0  0  0  0  0  0  0
   25.6589  -34.2130  -15.1812 C   0  0  0  0  0  0  0  0  0  0  0  0
   28.0021  -31.2501  -19.0186 O   0  0  0  0  0  0  0  0  0  0  0  0
  2  5  1  0
  2  1  1  6
  3  4  1  0
  3  2  1  0
  5  6  2  0
  7  8  1  0
  7  5  1  0
  8  9  1  1
 10  9  1  0
 11 10  1  0
 11 12  1  0
 13 12  1  0
 14 15  2  0
 14  8  1  0
 16 17  1  0
 17 18  2  0
 17 27  1  0
 18 19  1  0
 19 20  2  0
 20 26  1  0
 20 21  1  0
 22 21  1  6
 22 24  1  0
 22 23  1  0
 23 14  1  0
 24 28  1  0
 25 24  2  0
 27 26  2  0
M  END
$$$$
