CKY.pdb
     RDKit          3D

 28 28  0  0  1  0  0  0  0  0999 V2000
   25.6540  -10.8011  -17.8999 N   0  0  0  0  0  0  0  0  0  0  0  0
   24.9089  -10.9628  -16.6828 C   0  0  1  0  0  0  0  0  0  0  0  0
   25.8377  -10.9693  -15.5125 C   0  0  0  0  0  0  0  0  0  0  0  0
   26.8399  -12.4862  -15.6124 S   0  0  0  0  0  0  0  0  0  0  0  0
   23.9089   -9.8388  -16.5451 C   0  0  0  0  0  0  0  0  0  0  0  0
   24.3464   -8.6961  -16.7587 O   0  0  0  0  0  0  0  0  0  0  0  0
   22.5685  -10.0930  -16.1954 N   0  0  0  0  0  0  0  0  0  0  0  0
   21.4970   -9.1561  -16.0488 C   0  0  1  0  0  0  0  0  0  0  0  0
   20.1137   -9.7727  -16.1009 C   0  0  0  0  0  0  0  0  0  0  0  0
   19.8634  -10.4303  -17.4356 C   0  0  0  0  0  0  0  0  0  0  0  0
   18.4344  -10.9416  -17.5411 C   0  0  0  0  0  0  0  0  0  0  0  0
   18.1927  -11.6804  -18.8164 C   0  0  0  0  0  0  0  0  0  0  0  0
   16.7890  -12.0004  -18.9281 N   0  0  0  0  0  0  0  0  0  0  0  0
   21.6933   -8.0755  -15.1147 C   0  0  0  0  0  0  0  0  0  0  0  0
   22.1525   -8.3357  -13.9655 O   0  0  0  0  0  0  0  0  0  0  0  0
   24.8853   -3.0286  -19.2835 O   0  0  0  0  0  0  0  0  0  0  0  0
   24.4740   -3.6054  -18.1004 C   0  0  0  0  0  0  0  0  0  0  0  0
   24.7127   -4.9241  -17.7874 C   0  0  0  0  0  0  0  0  0  0  0  0
   24.2904   -5.4738  -16.5980 C   0  0  0  0  0  0  0  0  0  0  0  0
   23.5981   -4.7075  -15.6563 C   0  0  0  0  0  0  0  0  0  0  0  0
   23.1438   -5.3441  -14.3999 C   0  0  0  0  0  0  0  0  0  0  0  0
   21.6698   -5.6271  -14.4906 C   0  0  2  0  0  0  0  0  0  0  0  0
   21.4022   -6.7309  -15.4060 N   0  0  0  0  0  0  0  0  0  0  0  0
   20.8239   -4.4648  -14.7581 C   0  0  0  0  0  0  0  0  0  0  0  0
   20.1155   -4.3522  -15.7872 O   0  0  0  0  0  0  0  0  0  0  0  0
   23.3522   -3.3875  -15.9564 C   0  0  0  0  0  0  0  0  0  0  0  0
   23.7916   -2.8630  -17.1649 C   0  0  0  0  0  0  0  0  0  0  0  0
   20.7313   -3.3690  -13.8812 O   0  0  0  0  0  0  0  0  0  0  0  0
  2  5  1  0
  2  1  1  6
  3  4  1  0
  3  2  1  0
  5  6  2  0
  7  8  1  0
  7  5  1  0
  8  9  1  1
 10  9  1  0
 11 10  1  0
 11 12  1  0
 13 12  1  0
 14 15  2  0
 14  8  1  0
 16 17  1  0
 17 18  2  0
 17 27  1  0
 18 19  1  0
 19 20  2  0
 20 26  1  0
 20 21  1  0
 22 21  1  6
 22 24  1  0
 22 23  1  0
 23 14  1  0
 24 28  1  0
 25 24  2  0
 27 26  2  0
M  END
$$$$
