CKY.pdb
     RDKit          3D

 28 28  0  0  1  0  0  0  0  0999 V2000
   29.6445  -21.8336  -16.9348 N   0  0  0  0  0  0  0  0  0  0  0  0
   28.5427  -21.6887  -17.8446 C   0  0  1  0  0  0  0  0  0  0  0  0
   27.9475  -23.0263  -18.1428 C   0  0  0  0  0  0  0  0  0  0  0  0
   29.1799  -23.9810  -19.0834 S   0  0  0  0  0  0  0  0  0  0  0  0
   27.4990  -20.7797  -17.2391 C   0  0  0  0  0  0  0  0  0  0  0  0
   27.3724  -20.8474  -16.0054 O   0  0  0  0  0  0  0  0  0  0  0  0
   26.7282  -19.9167  -18.0421 N   0  0  0  0  0  0  0  0  0  0  0  0
   25.7427  -18.9650  -17.6292 C   0  0  1  0  0  0  0  0  0  0  0  0
   25.5727  -17.7900  -18.5710 C   0  0  0  0  0  0  0  0  0  0  0  0
   24.6491  -16.7526  -17.9818 C   0  0  0  0  0  0  0  0  0  0  0  0
   23.5864  -16.3253  -18.9833 C   0  0  0  0  0  0  0  0  0  0  0  0
   22.6975  -15.2552  -18.4400 C   0  0  0  0  0  0  0  0  0  0  0  0
   21.6145  -15.0146  -19.3642 N   0  0  0  0  0  0  0  0  0  0  0  0
   24.5468  -19.4840  -17.0132 C   0  0  0  0  0  0  0  0  0  0  0  0
   23.8833  -20.3740  -17.6188 O   0  0  0  0  0  0  0  0  0  0  0  0
   18.2909  -22.2950  -11.6721 O   0  0  0  0  0  0  0  0  0  0  0  0
   19.4574  -21.7811  -12.1983 C   0  0  0  0  0  0  0  0  0  0  0  0
   20.3401  -22.5335  -12.9390 C   0  0  0  0  0  0  0  0  0  0  0  0
   21.4978  -21.9940  -13.4526 C   0  0  0  0  0  0  0  0  0  0  0  0
   21.8228  -20.6515  -13.2395 C   0  0  0  0  0  0  0  0  0  0  0  0
   23.0879  -20.1179  -13.7918 C   0  0  0  0  0  0  0  0  0  0  0  0
   22.8316  -19.5464  -15.1588 C   0  0  2  0  0  0  0  0  0  0  0  0
   24.0656  -19.0563  -15.7630 N   0  0  0  0  0  0  0  0  0  0  0  0
   21.7475  -18.5682  -15.2360 C   0  0  0  0  0  0  0  0  0  0  0  0
   20.5338  -18.8816  -15.1869 O   0  0  0  0  0  0  0  0  0  0  0  0
   20.9494  -19.8876  -12.5003 C   0  0  0  0  0  0  0  0  0  0  0  0
   19.7897  -20.4618  -11.9962 C   0  0  0  0  0  0  0  0  0  0  0  0
   21.9731  -17.1866  -15.3724 O   0  0  0  0  0  0  0  0  0  0  0  0
  2  5  1  0
  2  1  1  1
  3  4  1  0
  3  2  1  0
  5  6  2  0
  7  8  1  0
  7  5  1  0
  8  9  1  6
 10  9  1  0
 11 10  1  0
 11 12  1  0
 13 12  1  0
 14 15  2  0
 14  8  1  0
 16 17  1  0
 17 18  2  0
 17 27  1  0
 18 19  1  0
 19 20  2  0
 20 26  1  0
 20 21  1  0
 22 21  1  1
 22 24  1  0
 22 23  1  0
 23 14  1  0
 24 28  1  0
 25 24  2  0
 27 26  2  0
M  END
$$$$
