CKY.pdb
     RDKit          3D

 28 28  0  0  1  0  0  0  0  0999 V2000
   27.8913  -17.0950  -18.6997 N   0  0  0  0  0  0  0  0  0  0  0  0
   28.8045  -18.0127  -18.0778 C   0  0  1  0  0  0  0  0  0  0  0  0
   29.3793  -17.4019  -16.8413 C   0  0  0  0  0  0  0  0  0  0  0  0
   28.0103  -17.1333  -15.6714 S   0  0  0  0  0  0  0  0  0  0  0  0
   28.0831  -19.2952  -17.7358 C   0  0  0  0  0  0  0  0  0  0  0  0
   26.8647  -19.1896  -17.5192 O   0  0  0  0  0  0  0  0  0  0  0  0
   28.7689  -20.5237  -17.6720 N   0  0  0  0  0  0  0  0  0  0  0  0
   28.3583  -21.7368  -17.0340 C   0  0  1  0  0  0  0  0  0  0  0  0
   29.3335  -22.8866  -17.1865 C   0  0  0  0  0  0  0  0  0  0  0  0
   28.7555  -24.1647  -16.6308 C   0  0  0  0  0  0  0  0  0  0  0  0
   27.9810  -24.9296  -17.6938 C   0  0  0  0  0  0  0  0  0  0  0  0
   27.4073  -26.2035  -17.1661 C   0  0  0  0  0  0  0  0  0  0  0  0
   26.7247  -26.9007  -18.2305 N   0  0  0  0  0  0  0  0  0  0  0  0
   27.6884  -21.6155  -15.7629 C   0  0  0  0  0  0  0  0  0  0  0  0
   28.2847  -21.0366  -14.8097 O   0  0  0  0  0  0  0  0  0  0  0  0
   23.5099  -20.4127   -8.4879 O   0  0  0  0  0  0  0  0  0  0  0  0
   24.0935  -20.4718   -9.7359 C   0  0  0  0  0  0  0  0  0  0  0  0
   25.4108  -20.8191   -9.9310 C   0  0  0  0  0  0  0  0  0  0  0  0
   25.9675  -20.8702  -11.1891 C   0  0  0  0  0  0  0  0  0  0  0  0
   25.2099  -20.5690  -12.3243 C   0  0  0  0  0  0  0  0  0  0  0  0
   25.8539  -20.6158  -13.6559 C   0  0  0  0  0  0  0  0  0  0  0  0
   25.7225  -22.0022  -14.2232 C   0  0  2  0  0  0  0  0  0  0  0  0
   26.3949  -22.1075  -15.5136 N   0  0  0  0  0  0  0  0  0  0  0  0
   24.3627  -22.5384  -14.2589 C   0  0  0  0  0  0  0  0  0  0  0  0
   23.5868  -22.3810  -15.2319 O   0  0  0  0  0  0  0  0  0  0  0  0
   23.8915  -20.2198  -12.1439 C   0  0  0  0  0  0  0  0  0  0  0  0
   23.3598  -20.1778  -10.8616 C   0  0  0  0  0  0  0  0  0  0  0  0
   23.8056  -23.2797  -13.2013 O   0  0  0  0  0  0  0  0  0  0  0  0
  2  5  1  0
  2  1  1  1
  3  4  1  0
  3  2  1  0
  5  6  2  0
  7  8  1  0
  7  5  1  0
  8  9  1  1
 10  9  1  0
 11 10  1  0
 11 12  1  0
 13 12  1  0
 14 15  2  0
 14  8  1  0
 16 17  1  0
 17 18  2  0
 17 27  1  0
 18 19  1  0
 19 20  2  0
 20 26  1  0
 20 21  1  0
 22 21  1  6
 22 24  1  0
 22 23  1  0
 23 14  1  0
 24 28  1  0
 25 24  2  0
 27 26  2  0
M  END
$$$$
