AWW.pdb
     RDKit          3D

 34 37  0  0  1  0  0  0  0  0999 V2000
   29.5025  -18.0550  -15.1983 C   0  0  0  0  0  0  0  0  0  0  0  0
   28.4770  -19.0391  -15.7329 C   0  0  2  0  0  0  0  0  0  0  0  0
   27.9514  -18.5165  -16.9566 N   0  0  0  0  0  0  0  0  0  0  0  0
   27.3799  -19.1410  -14.7213 C   0  0  0  0  0  0  0  0  0  0  0  0
   26.8676  -18.1056  -14.2324 O   0  0  0  0  0  0  0  0  0  0  0  0
   26.8867  -20.3923  -14.2852 N   0  0  0  0  0  0  0  0  0  0  0  0
   25.8437  -20.4881  -13.3268 C   0  0  1  0  0  0  0  0  0  0  0  0
   24.5565  -21.0298  -13.8984 C   0  0  0  0  0  0  0  0  0  0  0  0
   23.9438  -20.0550  -14.8225 C   0  0  0  0  0  0  0  0  0  0  0  0
   24.1097  -19.9152  -16.1886 C   0  0  0  0  0  0  0  0  0  0  0  0
   23.3457  -18.8826  -16.6197 N   0  0  0  0  0  0  0  0  0  0  0  0
   22.6848  -18.3413  -15.5807 C   0  0  0  0  0  0  0  0  0  0  0  0
   21.7950  -17.2980  -15.4418 C   0  0  0  0  0  0  0  0  0  0  0  0
   21.2535  -16.9451  -14.2253 C   0  0  0  0  0  0  0  0  0  0  0  0
   21.6140  -17.6629  -13.0973 C   0  0  0  0  0  0  0  0  0  0  0  0
   22.5043  -18.7071  -13.2334 C   0  0  0  0  0  0  0  0  0  0  0  0
   23.0548  -19.0673  -14.4657 C   0  0  0  0  0  0  0  0  0  0  0  0
   26.3212  -21.2576  -12.1669 C   0  0  0  0  0  0  0  0  0  0  0  0
   26.6074  -22.4637  -12.3430 O   0  0  0  0  0  0  0  0  0  0  0  0
   26.4780  -20.7226  -10.8661 N   0  0  0  0  0  0  0  0  0  0  0  0
   26.3647  -21.5977   -9.6773 C   0  0  1  0  0  0  0  0  0  0  0  0
   27.6250  -21.5761   -8.8995 C   0  0  0  0  0  0  0  0  0  0  0  0
   27.7863  -20.4257   -8.0019 C   0  0  0  0  0  0  0  0  0  0  0  0
   27.1910  -19.1655   -8.1669 C   0  0  0  0  0  0  0  0  0  0  0  0
   27.5580  -18.3297   -7.2020 N   0  0  0  0  0  0  0  0  0  0  0  0
   28.3916  -18.9969   -6.3824 C   0  0  0  0  0  0  0  0  0  0  0  0
   29.0334  -18.5785   -5.2272 C   0  0  0  0  0  0  0  0  0  0  0  0
   29.8302  -19.4750   -4.5549 C   0  0  0  0  0  0  0  0  0  0  0  0
   30.0005  -20.7736   -5.0069 C   0  0  0  0  0  0  0  0  0  0  0  0
   29.3545  -21.1647   -6.1546 C   0  0  0  0  0  0  0  0  0  0  0  0
   28.5519  -20.2864   -6.8461 C   0  0  0  0  0  0  0  0  0  0  0  0
   25.1140  -21.3211   -8.9762 C   0  0  0  0  0  0  0  0  0  0  0  0
   24.7705  -21.9749   -7.9205 O   0  0  0  0  0  0  0  0  0  0  0  0
   24.1869  -20.3552   -9.3464 O   0  0  0  0  0  0  0  0  0  0  0  0
  2  1  1  1
  2  4  1  0
  2  3  1  0
  4  5  2  0
  6  7  1  0
  6  4  1  0
  7  8  1  6
  9 17  1  0
  9  8  1  0
 10  9  2  0
 11 10  1  0
 11 12  1  0
 12 13  1  0
 12 17  2  0
 13 14  2  0
 14 15  1  0
 16 15  2  0
 17 16  1  0
 18  7  1  0
 19 18  2  0
 20 18  1  0
 21 22  1  1
 21 20  1  0
 22 23  1  0
 23 31  1  0
 24 23  2  0
 24 25  1  0
 25 26  1  0
 26 27  1  0
 27 28  2  0
 29 28  1  0
 30 29  2  0
 31 26  2  0
 31 30  1  0
 32 34  1  0
 32 21  1  0
 33 32  2  0
M  END
$$$$
