AWW.pdb
     RDKit          3D

 34 37  0  0  1  0  0  0  0  0999 V2000
   24.9148  -22.0623  -16.3417 C   0  0  0  0  0  0  0  0  0  0  0  0
   26.4041  -21.7719  -16.2808 C   0  0  2  0  0  0  0  0  0  0  0  0
   27.0719  -22.6721  -17.1698 N   0  0  0  0  0  0  0  0  0  0  0  0
   26.8563  -22.0281  -14.8781 C   0  0  0  0  0  0  0  0  0  0  0  0
   27.0004  -23.2023  -14.4609 O   0  0  0  0  0  0  0  0  0  0  0  0
   27.1344  -20.9693  -13.9832 N   0  0  0  0  0  0  0  0  0  0  0  0
   27.6597  -21.2096  -12.6864 C   0  0  1  0  0  0  0  0  0  0  0  0
   28.8531  -20.3467  -12.3571 C   0  0  0  0  0  0  0  0  0  0  0  0
   30.0893  -21.1533  -12.3277 C   0  0  0  0  0  0  0  0  0  0  0  0
   30.8686  -21.6052  -13.3773 C   0  0  0  0  0  0  0  0  0  0  0  0
   31.9124  -22.3094  -12.8770 N   0  0  0  0  0  0  0  0  0  0  0  0
   31.8423  -22.3337  -11.5339 C   0  0  0  0  0  0  0  0  0  0  0  0
   32.6164  -22.8888  -10.5378 C   0  0  0  0  0  0  0  0  0  0  0  0
   32.3073  -22.7579   -9.2017 C   0  0  0  0  0  0  0  0  0  0  0  0
   31.1775  -22.0425   -8.8418 C   0  0  0  0  0  0  0  0  0  0  0  0
   30.4012  -21.4863   -9.8365 C   0  0  0  0  0  0  0  0  0  0  0  0
   30.7122  -21.6173  -11.1920 C   0  0  0  0  0  0  0  0  0  0  0  0
   26.5781  -21.0893  -11.6959 C   0  0  0  0  0  0  0  0  0  0  0  0
   25.5085  -20.5504  -12.0606 O   0  0  0  0  0  0  0  0  0  0  0  0
   26.6687  -21.5435  -10.3585 N   0  0  0  0  0  0  0  0  0  0  0  0
   25.5285  -21.3715   -9.4299 C   0  0  1  0  0  0  0  0  0  0  0  0
   25.9651  -21.5911   -8.0317 C   0  0  0  0  0  0  0  0  0  0  0  0
   26.6189  -20.4424   -7.3930 C   0  0  0  0  0  0  0  0  0  0  0  0
   26.4416  -19.0957   -7.7460 C   0  0  0  0  0  0  0  0  0  0  0  0
   27.1969  -18.2986   -6.9988 N   0  0  0  0  0  0  0  0  0  0  0  0
   27.8852  -19.0769   -6.1429 C   0  0  0  0  0  0  0  0  0  0  0  0
   28.7922  -18.7316   -5.1532 C   0  0  0  0  0  0  0  0  0  0  0  0
   29.3505  -19.7324   -4.3933 C   0  0  0  0  0  0  0  0  0  0  0  0
   29.0258  -21.0638   -4.5976 C   0  0  0  0  0  0  0  0  0  0  0  0
   28.1247  -21.3811   -5.5849 C   0  0  0  0  0  0  0  0  0  0  0  0
   27.5524  -20.3982   -6.3594 C   0  0  0  0  0  0  0  0  0  0  0  0
   24.8140  -20.1380   -9.7461 C   0  0  0  0  0  0  0  0  0  0  0  0
   25.4253  -19.0984  -10.1993 O   0  0  0  0  0  0  0  0  0  0  0  0
   23.4448  -19.9492   -9.6066 O   0  0  0  0  0  0  0  0  0  0  0  0
  2  1  1  1
  2  4  1  0
  2  3  1  0
  4  5  2  0
  6  7  1  0
  6  4  1  0
  7  8  1  1
  9 17  1  0
  9  8  1  0
 10  9  2  0
 11 10  1  0
 11 12  1  0
 12 13  1  0
 12 17  2  0
 13 14  2  0
 14 15  1  0
 16 15  2  0
 17 16  1  0
 18  7  1  0
 19 18  2  0
 20 18  1  0
 21 22  1  1
 21 20  1  0
 22 23  1  0
 23 31  1  0
 24 23  2  0
 24 25  1  0
 25 26  1  0
 26 27  1  0
 27 28  2  0
 29 28  1  0
 30 29  2  0
 31 26  2  0
 31 30  1  0
 32 34  1  0
 32 21  1  0
 33 32  2  0
M  END
$$$$
