AWW.pdb
     RDKit          3D

 34 37  0  0  1  0  0  0  0  0999 V2000
   29.0111  -25.1093  -16.9616 C   0  0  0  0  0  0  0  0  0  0  0  0
   29.8097  -23.8463  -17.2319 C   0  0  2  0  0  0  0  0  0  0  0  0
   31.1856  -24.1184  -16.9498 N   0  0  0  0  0  0  0  0  0  0  0  0
   29.3088  -22.7882  -16.3008 C   0  0  0  0  0  0  0  0  0  0  0  0
   29.7511  -22.7106  -15.1295 O   0  0  0  0  0  0  0  0  0  0  0  0
   28.3311  -21.8489  -16.7023 N   0  0  0  0  0  0  0  0  0  0  0  0
   27.9148  -20.7959  -15.8459 C   0  0  1  0  0  0  0  0  0  0  0  0
   27.3938  -19.5918  -16.5913 C   0  0  0  0  0  0  0  0  0  0  0  0
   26.9478  -18.5463  -15.6491 C   0  0  0  0  0  0  0  0  0  0  0  0
   27.6920  -17.7805  -14.7700 C   0  0  0  0  0  0  0  0  0  0  0  0
   26.8595  -16.9449  -14.1033 N   0  0  0  0  0  0  0  0  0  0  0  0
   25.5943  -17.1383  -14.5169 C   0  0  0  0  0  0  0  0  0  0  0  0
   24.3770  -16.5810  -14.1897 C   0  0  0  0  0  0  0  0  0  0  0  0
   23.1990  -16.9765  -14.7844 C   0  0  0  0  0  0  0  0  0  0  0  0
   23.2349  -17.9708  -15.7476 C   0  0  0  0  0  0  0  0  0  0  0  0
   24.4515  -18.5302  -16.0767 C   0  0  0  0  0  0  0  0  0  0  0  0
   25.6476  -18.1311  -15.4754 C   0  0  0  0  0  0  0  0  0  0  0  0
   26.9509  -21.3212  -14.8659 C   0  0  0  0  0  0  0  0  0  0  0  0
   26.0893  -22.1342  -15.2711 O   0  0  0  0  0  0  0  0  0  0  0  0
   26.9352  -20.9672  -13.4957 N   0  0  0  0  0  0  0  0  0  0  0  0
   26.0015  -21.6342  -12.5602 C   0  0  1  0  0  0  0  0  0  0  0  0
   26.7322  -22.1372  -11.3740 C   0  0  0  0  0  0  0  0  0  0  0  0
   26.8148  -21.2004  -10.2468 C   0  0  0  0  0  0  0  0  0  0  0  0
   25.9520  -20.1183  -10.0133 C   0  0  0  0  0  0  0  0  0  0  0  0
   26.3096  -19.4432   -8.9267 N   0  0  0  0  0  0  0  0  0  0  0  0
   27.3994  -20.0452   -8.4152 C   0  0  0  0  0  0  0  0  0  0  0  0
   28.1424  -19.7384   -7.2859 C   0  0  0  0  0  0  0  0  0  0  0  0
   29.2171  -20.5350   -6.9681 C   0  0  0  0  0  0  0  0  0  0  0  0
   29.5659  -21.6258   -7.7480 C   0  0  0  0  0  0  0  0  0  0  0  0
   28.8146  -21.9095   -8.8627 C   0  0  0  0  0  0  0  0  0  0  0  0
   27.7346  -21.1275   -9.2026 C   0  0  0  0  0  0  0  0  0  0  0  0
   24.8295  -20.7903  -12.3445 C   0  0  0  0  0  0  0  0  0  0  0  0
   23.7106  -21.2780  -11.9320 O   0  0  0  0  0  0  0  0  0  0  0  0
   24.7860  -19.4164  -12.5450 O   0  0  0  0  0  0  0  0  0  0  0  0
  2  1  1  1
  2  4  1  0
  2  3  1  0
  4  5  2  0
  6  7  1  0
  6  4  1  0
  7  8  1  6
  9 17  1  0
  9  8  1  0
 10  9  2  0
 11 10  1  0
 11 12  1  0
 12 13  1  0
 12 17  2  0
 13 14  2  0
 14 15  1  0
 16 15  2  0
 17 16  1  0
 18  7  1  0
 19 18  2  0
 20 18  1  0
 21 22  1  1
 21 20  1  0
 22 23  1  0
 23 31  1  0
 24 23  2  0
 24 25  1  0
 25 26  1  0
 26 27  1  0
 27 28  2  0
 29 28  1  0
 30 29  2  0
 31 26  2  0
 31 30  1  0
 32 34  1  0
 32 21  1  0
 33 32  2  0
M  END
$$$$
