AWW.pdb
     RDKit          3D

 34 37  0  0  1  0  0  0  0  0999 V2000
   22.7124  -34.8593    1.4107 C   0  0  0  0  0  0  0  0  0  0  0  0
   21.4572  -34.0523    1.1295 C   0  0  2  0  0  0  0  0  0  0  0  0
   21.2815  -33.9783   -0.2884 N   0  0  0  0  0  0  0  0  0  0  0  0
   21.6726  -32.6776    1.6784 C   0  0  0  0  0  0  0  0  0  0  0  0
   22.8099  -32.1495    1.6424 O   0  0  0  0  0  0  0  0  0  0  0  0
   20.6153  -31.9329    2.2502 N   0  0  0  0  0  0  0  0  0  0  0  0
   20.8012  -30.5975    2.6948 C   0  0  1  0  0  0  0  0  0  0  0  0
   19.5540  -29.7547    2.5886 C   0  0  0  0  0  0  0  0  0  0  0  0
   19.7188  -28.7038    1.5649 C   0  0  0  0  0  0  0  0  0  0  0  0
   19.3018  -28.6889    0.2461 C   0  0  0  0  0  0  0  0  0  0  0  0
   19.6711  -27.5134   -0.3173 N   0  0  0  0  0  0  0  0  0  0  0  0
   20.3166  -26.7577    0.5892 C   0  0  0  0  0  0  0  0  0  0  0  0
   20.8950  -25.5070    0.5656 C   0  0  0  0  0  0  0  0  0  0  0  0
   21.5085  -24.9552    1.6687 C   0  0  0  0  0  0  0  0  0  0  0  0
   21.5476  -25.6810    2.8474 C   0  0  0  0  0  0  0  0  0  0  0  0
   20.9697  -26.9328    2.8737 C   0  0  0  0  0  0  0  0  0  0  0  0
   20.3468  -27.4947    1.7567 C   0  0  0  0  0  0  0  0  0  0  0  0
   21.3646  -30.6138    4.0541 C   0  0  0  0  0  0  0  0  0  0  0  0
   21.2773  -29.5673    4.7359 O   0  0  0  0  0  0  0  0  0  0  0  0
   21.9981  -31.7354    4.6403 N   0  0  0  0  0  0  0  0  0  0  0  0
   22.5178  -31.6638    6.0248 C   0  0  1  0  0  0  0  0  0  0  0  0
   21.4357  -31.2851    6.9625 C   0  0  0  0  0  0  0  0  0  0  0  0
   20.6351  -32.4026    7.4776 C   0  0  0  0  0  0  0  0  0  0  0  0
   20.1680  -33.4927    6.7273 C   0  0  0  0  0  0  0  0  0  0  0  0
   19.4466  -34.3190    7.4763 N   0  0  0  0  0  0  0  0  0  0  0  0
   19.4138  -33.8126    8.7230 C   0  0  0  0  0  0  0  0  0  0  0  0
   18.8084  -34.3013    9.8703 C   0  0  0  0  0  0  0  0  0  0  0  0
   18.9424  -33.5904   11.0396 C   0  0  0  0  0  0  0  0  0  0  0  0
   19.6635  -32.4084   11.0901 C   0  0  0  0  0  0  0  0  0  0  0  0
   20.2541  -31.9440    9.9398 C   0  0  0  0  0  0  0  0  0  0  0  0
   20.1344  -32.6366    8.7568 C   0  0  0  0  0  0  0  0  0  0  0  0
   23.3037  -32.8583    6.3210 C   0  0  0  0  0  0  0  0  0  0  0  0
   23.9416  -32.9907    7.4326 O   0  0  0  0  0  0  0  0  0  0  0  0
   23.4462  -33.9514    5.4758 O   0  0  0  0  0  0  0  0  0  0  0  0
  2  1  1  6
  2  4  1  0
  2  3  1  0
  4  5  2  0
  6  7  1  0
  6  4  1  0
  7  8  1  1
  9 17  1  0
  9  8  1  0
 10  9  2  0
 11 10  1  0
 11 12  1  0
 12 13  1  0
 12 17  2  0
 13 14  2  0
 14 15  1  0
 16 15  2  0
 17 16  1  0
 18  7  1  0
 19 18  2  0
 20 18  1  0
 21 22  1  1
 21 20  1  0
 22 23  1  0
 23 31  1  0
 24 23  2  0
 24 25  1  0
 25 26  1  0
 26 27  1  0
 27 28  2  0
 29 28  1  0
 30 29  2  0
 31 26  2  0
 31 30  1  0
 32 34  1  0
 32 21  1  0
 33 32  2  0
M  END
$$$$
