EKE.pdb
     RDKit          3D

 28 27  0  0  1  0  0  0  0  0999 V2000
   10.6037  -18.4992   15.9993 N   0  0  0  0  0  0  0  0  0  0  0  0
   11.9304  -18.4013   16.5717 C   0  0  1  0  0  0  0  0  0  0  0  0
   12.9466  -17.9553   15.5454 C   0  0  0  0  0  0  0  0  0  0  0  0
   12.2665  -18.0318   14.1820 C   0  0  0  0  0  0  0  0  0  0  0  0
   13.1935  -17.6448   13.0984 C   0  0  0  0  0  0  0  0  0  0  0  0
   12.9484  -16.6336   12.4143 O   0  0  0  0  0  0  0  0  0  0  0  0
   11.8955  -17.5146   17.7543 C   0  0  0  0  0  0  0  0  0  0  0  0
   12.9457  -17.2458   18.4055 O   0  0  0  0  0  0  0  0  0  0  0  0
   14.3294  -18.3798   12.8248 O   0  0  0  0  0  0  0  0  0  0  0  0
   10.6763  -16.9340   18.1976 N   0  0  0  0  0  0  0  0  0  0  0  0
   10.5023  -16.1362   19.3603 C   0  0  1  0  0  0  0  0  0  0  0  0
    9.0775  -15.5788   19.4902 C   0  0  0  0  0  0  0  0  0  0  0  0
    8.9699  -14.6099   20.6141 C   0  0  0  0  0  0  0  0  0  0  0  0
    7.5775  -14.1130   20.7992 C   0  0  0  0  0  0  0  0  0  0  0  0
    7.4624  -13.1658   21.9632 C   0  0  0  0  0  0  0  0  0  0  0  0
    6.1317  -12.5659   22.0034 N   0  0  0  0  0  0  0  0  0  0  0  0
   10.8037  -16.8413   20.6229 C   0  0  0  0  0  0  0  0  0  0  0  0
   10.4423  -18.0423   20.7229 O   0  0  0  0  0  0  0  0  0  0  0  0
   11.4620  -16.2668   21.7137 N   0  0  0  0  0  0  0  0  0  0  0  0
   11.8016  -17.0235   22.9615 C   0  0  1  0  0  0  0  0  0  0  0  0
   13.2813  -17.1747   23.0022 C   0  0  0  0  0  0  0  0  0  0  0  0
   14.0955  -15.9517   22.9758 C   0  0  0  0  0  0  0  0  0  0  0  0
   15.5492  -16.0273   23.0146 C   0  0  0  0  0  0  0  0  0  0  0  0
   16.1905  -16.1174   21.9093 O   0  0  0  0  0  0  0  0  0  0  0  0
   11.3036  -16.1599   24.0408 C   0  0  0  0  0  0  0  0  0  0  0  0
   10.7283  -14.9133   23.6847 O   0  0  0  0  0  0  0  0  0  0  0  0
   16.3155  -16.0069   24.1674 O   0  0  0  0  0  0  0  0  0  0  0  0
   11.3230  -16.3881   25.2646 O   0  0  0  0  0  0  0  0  0  0  0  0
  2  1  1  6
  2  3  1  0
  3  4  1  0
  5  4  1  0
  6  5  2  0
  7  2  1  0
  7 10  1  0
  8  7  2  0
  9  5  1  0
 11 10  1  0
 11 12  1  1
 13 12  1  0
 13 14  1  0
 15 14  1  0
 16 15  1  0
 17 11  1  0
 18 17  2  0
 19 17  1  0
 20 19  1  0
 20 21  1  1
 22 21  1  0
 23 24  2  0
 23 22  1  0
 25 20  1  0
 25 26  1  0
 27 23  1  0
 28 25  2  0
M  END
$$$$
