EKE.pdb
     RDKit          3D

 28 27  0  0  1  0  0  0  0  0999 V2000
   11.3651  -13.7795   19.3847 N   0  0  0  0  0  0  0  0  0  0  0  0
   12.1051  -14.9670   19.7584 C   0  0  1  0  0  0  0  0  0  0  0  0
   13.5475  -14.6456   20.0760 C   0  0  0  0  0  0  0  0  0  0  0  0
   14.2534  -14.4016   18.7457 C   0  0  0  0  0  0  0  0  0  0  0  0
   15.6895  -14.1172   18.9455 C   0  0  0  0  0  0  0  0  0  0  0  0
   16.1619  -14.1280   20.0976 O   0  0  0  0  0  0  0  0  0  0  0  0
   11.4184  -15.6470   20.8773 C   0  0  0  0  0  0  0  0  0  0  0  0
   10.9791  -14.9986   21.8703 O   0  0  0  0  0  0  0  0  0  0  0  0
   16.5239  -13.8388   17.8817 O   0  0  0  0  0  0  0  0  0  0  0  0
   11.2291  -17.0556   20.8718 N   0  0  0  0  0  0  0  0  0  0  0  0
   10.5627  -17.8154   21.8704 C   0  0  1  0  0  0  0  0  0  0  0  0
    9.9521  -19.1126   21.3209 C   0  0  0  0  0  0  0  0  0  0  0  0
    9.2668  -19.8895   22.3888 C   0  0  0  0  0  0  0  0  0  0  0  0
    8.7651  -21.2034   21.8969 C   0  0  0  0  0  0  0  0  0  0  0  0
    8.1406  -22.0204   22.9959 C   0  0  0  0  0  0  0  0  0  0  0  0
    7.8546  -23.3733   22.5265 N   0  0  0  0  0  0  0  0  0  0  0  0
   11.4230  -18.1952   23.0097 C   0  0  0  0  0  0  0  0  0  0  0  0
   12.6010  -18.5582   22.7577 O   0  0  0  0  0  0  0  0  0  0  0  0
   11.0188  -18.1796   24.3474 N   0  0  0  0  0  0  0  0  0  0  0  0
   11.8994  -18.6169   25.4781 C   0  0  1  0  0  0  0  0  0  0  0  0
   11.4119  -17.9396   26.7101 C   0  0  0  0  0  0  0  0  0  0  0  0
   11.9530  -18.3914   27.9995 C   0  0  0  0  0  0  0  0  0  0  0  0
   11.5214  -17.7700   29.2437 C   0  0  0  0  0  0  0  0  0  0  0  0
   10.6257  -16.8554   29.1966 O   0  0  0  0  0  0  0  0  0  0  0  0
   11.7031  -20.0719   25.5318 C   0  0  0  0  0  0  0  0  0  0  0  0
   10.4071  -20.5798   25.2596 O   0  0  0  0  0  0  0  0  0  0  0  0
   12.0034  -18.0909   30.5012 O   0  0  0  0  0  0  0  0  0  0  0  0
   12.5535  -20.9426   25.7944 O   0  0  0  0  0  0  0  0  0  0  0  0
  2  1  1  1
  2  3  1  0
  3  4  1  0
  5  4  1  0
  6  5  2  0
  7  2  1  0
  7 10  1  0
  8  7  2  0
  9  5  1  0
 11 10  1  0
 11 12  1  6
 13 12  1  0
 13 14  1  0
 15 14  1  0
 16 15  1  0
 17 11  1  0
 18 17  2  0
 19 17  1  0
 20 19  1  0
 20 21  1  1
 22 21  1  0
 23 24  2  0
 23 22  1  0
 25 20  1  0
 25 26  1  0
 27 23  1  0
 28 25  2  0
M  END
$$$$
