EKE.pdb
     RDKit          3D

 28 27  0  0  1  0  0  0  0  0999 V2000
   11.1080  -13.9513   17.3519 N   0  0  0  0  0  0  0  0  0  0  0  0
   11.4722  -15.1723   18.0403 C   0  0  1  0  0  0  0  0  0  0  0  0
   12.8807  -15.6027   17.7002 C   0  0  0  0  0  0  0  0  0  0  0  0
   13.7725  -14.3750   17.8577 C   0  0  0  0  0  0  0  0  0  0  0  0
   15.1883  -14.7035   17.5916 C   0  0  0  0  0  0  0  0  0  0  0  0
   15.6568  -14.5180   16.4528 O   0  0  0  0  0  0  0  0  0  0  0  0
   11.2698  -15.0003   19.4947 C   0  0  0  0  0  0  0  0  0  0  0  0
   12.2482  -14.9687   20.2953 O   0  0  0  0  0  0  0  0  0  0  0  0
   16.0079  -15.2129   18.5786 O   0  0  0  0  0  0  0  0  0  0  0  0
    9.9646  -14.8640   20.0406 N   0  0  0  0  0  0  0  0  0  0  0  0
    9.2856  -15.8238   20.8383 C   0  0  1  0  0  0  0  0  0  0  0  0
    8.4007  -16.7658   20.0093 C   0  0  0  0  0  0  0  0  0  0  0  0
    7.7225  -17.7747   20.8670 C   0  0  0  0  0  0  0  0  0  0  0  0
    6.9719  -18.7826   20.0665 C   0  0  0  0  0  0  0  0  0  0  0  0
    6.3402  -19.8394   20.9322 C   0  0  0  0  0  0  0  0  0  0  0  0
    5.6992  -20.8592   20.1068 N   0  0  0  0  0  0  0  0  0  0  0  0
   10.1825  -16.6769   21.6446 C   0  0  0  0  0  0  0  0  0  0  0  0
   10.5639  -17.7650   21.1410 O   0  0  0  0  0  0  0  0  0  0  0  0
   10.6361  -16.3593   22.9278 N   0  0  0  0  0  0  0  0  0  0  0  0
   11.4579  -17.2920   23.7643 C   0  0  1  0  0  0  0  0  0  0  0  0
   12.8465  -16.7582   23.7935 C   0  0  0  0  0  0  0  0  0  0  0  0
   13.5476  -16.6036   22.5113 C   0  0  0  0  0  0  0  0  0  0  0  0
   14.9083  -16.0864   22.4676 C   0  0  0  0  0  0  0  0  0  0  0  0
   15.4293  -15.6329   23.5464 O   0  0  0  0  0  0  0  0  0  0  0  0
   10.8155  -17.2360   25.0844 C   0  0  0  0  0  0  0  0  0  0  0  0
   11.3101  -18.0904   26.1028 O   0  0  0  0  0  0  0  0  0  0  0  0
   15.7063  -16.0443   21.3372 O   0  0  0  0  0  0  0  0  0  0  0  0
    9.8635  -16.5139   25.4344 O   0  0  0  0  0  0  0  0  0  0  0  0
  2  1  1  6
  2  3  1  0
  3  4  1  0
  5  4  1  0
  6  5  2  0
  7  2  1  0
  7 10  1  0
  8  7  2  0
  9  5  1  0
 11 10  1  0
 11 12  1  6
 13 12  1  0
 13 14  1  0
 15 14  1  0
 16 15  1  0
 17 11  1  0
 18 17  2  0
 19 17  1  0
 20 19  1  0
 20 21  1  1
 22 21  1  0
 23 24  2  0
 23 22  1  0
 25 20  1  0
 25 26  1  0
 27 23  1  0
 28 25  2  0
M  END
$$$$
