EKE.pdb
     RDKit          3D

 28 27  0  0  1  0  0  0  0  0999 V2000
    8.7385  -16.2408   18.5172 N   0  0  0  0  0  0  0  0  0  0  0  0
    7.8592  -16.5460   19.6268 C   0  0  1  0  0  0  0  0  0  0  0  0
    7.5472  -18.0233   19.6982 C   0  0  0  0  0  0  0  0  0  0  0  0
    8.8827  -18.7601   19.7291 C   0  0  0  0  0  0  0  0  0  0  0  0
    8.6879  -20.2242   19.6881 C   0  0  0  0  0  0  0  0  0  0  0  0
    9.6706  -20.9771   19.8225 O   0  0  0  0  0  0  0  0  0  0  0  0
    8.4482  -16.0318   20.8816 C   0  0  0  0  0  0  0  0  0  0  0  0
    9.6843  -16.1464   21.1227 O   0  0  0  0  0  0  0  0  0  0  0  0
    7.4381  -20.7802   19.5036 O   0  0  0  0  0  0  0  0  0  0  0  0
    7.6410  -15.3897   21.8594 N   0  0  0  0  0  0  0  0  0  0  0  0
    8.0964  -14.8174   23.0774 C   0  0  1  0  0  0  0  0  0  0  0  0
    6.9882  -14.0707   23.8337 C   0  0  0  0  0  0  0  0  0  0  0  0
    7.4919  -13.4886   25.1069 C   0  0  0  0  0  0  0  0  0  0  0  0
    6.4245  -12.7734   25.8614 C   0  0  0  0  0  0  0  0  0  0  0  0
    6.9415  -12.1637   27.1366 C   0  0  0  0  0  0  0  0  0  0  0  0
    5.8579  -11.5112   27.8663 N   0  0  0  0  0  0  0  0  0  0  0  0
    8.6754  -15.7956   24.0209 C   0  0  0  0  0  0  0  0  0  0  0  0
    7.9120  -16.6793   24.4891 O   0  0  0  0  0  0  0  0  0  0  0  0
   10.0119  -15.8071   24.4295 N   0  0  0  0  0  0  0  0  0  0  0  0
   10.6217  -16.9259   25.2178 C   0  0  1  0  0  0  0  0  0  0  0  0
   11.9694  -17.1912   24.6458 C   0  0  0  0  0  0  0  0  0  0  0  0
   12.9678  -16.1153   24.7183 C   0  0  0  0  0  0  0  0  0  0  0  0
   14.2698  -16.2676   24.0840 C   0  0  0  0  0  0  0  0  0  0  0  0
   15.0581  -17.1835   24.5090 O   0  0  0  0  0  0  0  0  0  0  0  0
   10.6958  -16.3912   26.5843 C   0  0  0  0  0  0  0  0  0  0  0  0
   10.4974  -14.9987   26.7664 O   0  0  0  0  0  0  0  0  0  0  0  0
   14.7387  -15.4934   23.0364 O   0  0  0  0  0  0  0  0  0  0  0  0
   10.9178  -17.0222   27.6344 O   0  0  0  0  0  0  0  0  0  0  0  0
  2  1  1  6
  2  3  1  0
  3  4  1  0
  5  4  1  0
  6  5  2  0
  7  2  1  0
  7 10  1  0
  8  7  2  0
  9  5  1  0
 11 10  1  0
 11 12  1  1
 13 12  1  0
 13 14  1  0
 15 14  1  0
 16 15  1  0
 17 11  1  0
 18 17  2  0
 19 17  1  0
 20 19  1  0
 20 21  1  6
 22 21  1  0
 23 24  2  0
 23 22  1  0
 25 20  1  0
 25 26  1  0
 27 23  1  0
 28 25  2  0
M  END
$$$$
