EKE.pdb
     RDKit          3D

 28 27  0  0  1  0  0  0  0  0999 V2000
   12.1259  -17.6392   16.3773 N   0  0  0  0  0  0  0  0  0  0  0  0
   11.3970  -18.2368   17.4769 C   0  0  1  0  0  0  0  0  0  0  0  0
   11.7705  -19.6891   17.6668 C   0  0  0  0  0  0  0  0  0  0  0  0
   13.1924  -19.7155   18.2190 C   0  0  0  0  0  0  0  0  0  0  0  0
   13.6568  -21.1011   18.4373 C   0  0  0  0  0  0  0  0  0  0  0  0
   13.0003  -21.8581   19.1767 O   0  0  0  0  0  0  0  0  0  0  0  0
   11.6042  -17.4355   18.7021 C   0  0  0  0  0  0  0  0  0  0  0  0
   12.7645  -17.1150   19.0895 O   0  0  0  0  0  0  0  0  0  0  0  0
   14.8053  -21.5790   17.8391 O   0  0  0  0  0  0  0  0  0  0  0  0
   10.5017  -16.9983   19.4854 N   0  0  0  0  0  0  0  0  0  0  0  0
   10.5631  -16.1260   20.6051 C   0  0  1  0  0  0  0  0  0  0  0  0
    9.2367  -15.3968   20.8632 C   0  0  0  0  0  0  0  0  0  0  0  0
    8.8838  -14.4892   19.7384 C   0  0  0  0  0  0  0  0  0  0  0  0
    7.6031  -13.7662   19.9773 C   0  0  0  0  0  0  0  0  0  0  0  0
    7.2955  -12.7790   18.8837 C   0  0  0  0  0  0  0  0  0  0  0  0
    6.1069  -11.9998   19.2189 N   0  0  0  0  0  0  0  0  0  0  0  0
   10.9374  -16.7952   21.8678 C   0  0  0  0  0  0  0  0  0  0  0  0
   10.3721  -17.8852   22.1420 O   0  0  0  0  0  0  0  0  0  0  0  0
   11.8755  -16.3013   22.7784 N   0  0  0  0  0  0  0  0  0  0  0  0
   12.2636  -17.0230   24.0328 C   0  0  1  0  0  0  0  0  0  0  0  0
   13.6005  -16.5152   24.4436 C   0  0  0  0  0  0  0  0  0  0  0  0
   14.7448  -16.8168   23.5724 C   0  0  0  0  0  0  0  0  0  0  0  0
   16.0601  -16.2597   23.8558 C   0  0  0  0  0  0  0  0  0  0  0  0
   16.3163  -15.0630   23.4771 O   0  0  0  0  0  0  0  0  0  0  0  0
   11.2124  -16.6515   24.9896 C   0  0  0  0  0  0  0  0  0  0  0  0
   11.2336  -17.2583   26.2714 O   0  0  0  0  0  0  0  0  0  0  0  0
   17.0791  -16.9245   24.5163 O   0  0  0  0  0  0  0  0  0  0  0  0
   10.2768  -15.8489   24.8144 O   0  0  0  0  0  0  0  0  0  0  0  0
  2  1  1  6
  2  3  1  0
  3  4  1  0
  5  4  1  0
  6  5  2  0
  7  2  1  0
  7 10  1  0
  8  7  2  0
  9  5  1  0
 11 10  1  0
 11 12  1  1
 13 12  1  0
 13 14  1  0
 15 14  1  0
 16 15  1  0
 17 11  1  0
 18 17  2  0
 19 17  1  0
 20 19  1  0
 20 21  1  1
 22 21  1  0
 23 24  2  0
 23 22  1  0
 25 20  1  0
 25 26  1  0
 27 23  1  0
 28 25  2  0
M  END
$$$$
