EKE.pdb
     RDKit          3D

 28 27  0  0  1  0  0  0  0  0999 V2000
   13.2040  -18.6387   16.1102 N   0  0  0  0  0  0  0  0  0  0  0  0
   13.2943  -19.0873   17.4843 C   0  0  1  0  0  0  0  0  0  0  0  0
   14.6990  -18.9446   18.0240 C   0  0  0  0  0  0  0  0  0  0  0  0
   15.6384  -19.5579   16.9902 C   0  0  0  0  0  0  0  0  0  0  0  0
   17.0491  -19.4463   17.4152 C   0  0  0  0  0  0  0  0  0  0  0  0
   17.5382  -20.3228   18.1521 O   0  0  0  0  0  0  0  0  0  0  0  0
   12.2977  -18.3685   18.3065 C   0  0  0  0  0  0  0  0  0  0  0  0
   12.1903  -17.1094   18.2577 O   0  0  0  0  0  0  0  0  0  0  0  0
   17.8415  -18.3899   17.0135 O   0  0  0  0  0  0  0  0  0  0  0  0
   11.4254  -19.0727   19.1803 N   0  0  0  0  0  0  0  0  0  0  0  0
   10.4409  -18.4948   20.0261 C   0  0  1  0  0  0  0  0  0  0  0  0
    9.1176  -19.2735   20.0153 C   0  0  0  0  0  0  0  0  0  0  0  0
    8.0723  -18.5862   20.8206 C   0  0  0  0  0  0  0  0  0  0  0  0
    6.8030  -19.3644   20.8795 C   0  0  0  0  0  0  0  0  0  0  0  0
    5.7137  -18.6203   21.6040 C   0  0  0  0  0  0  0  0  0  0  0  0
    4.5042  -19.4348   21.6821 N   0  0  0  0  0  0  0  0  0  0  0  0
   10.8573  -18.3764   21.4385 C   0  0  0  0  0  0  0  0  0  0  0  0
   10.9780  -19.4374   22.1037 O   0  0  0  0  0  0  0  0  0  0  0  0
   11.1261  -17.1677   22.0866 N   0  0  0  0  0  0  0  0  0  0  0  0
   11.5346  -17.0787   23.5255 C   0  0  1  0  0  0  0  0  0  0  0  0
   12.6674  -16.1176   23.6084 C   0  0  0  0  0  0  0  0  0  0  0  0
   13.9418  -16.5061   22.9883 C   0  0  0  0  0  0  0  0  0  0  0  0
   15.0863  -15.6062   23.0188 C   0  0  0  0  0  0  0  0  0  0  0  0
   15.4165  -14.9938   21.9432 O   0  0  0  0  0  0  0  0  0  0  0  0
   10.3307  -16.5749   24.2003 C   0  0  0  0  0  0  0  0  0  0  0  0
   10.3213  -16.5542   25.6185 O   0  0  0  0  0  0  0  0  0  0  0  0
   15.8639  -15.3471   24.1345 O   0  0  0  0  0  0  0  0  0  0  0  0
    9.2859  -16.1520   23.6714 O   0  0  0  0  0  0  0  0  0  0  0  0
  2  1  1  6
  2  3  1  0
  3  4  1  0
  5  4  1  0
  6  5  2  0
  7  2  1  0
  7 10  1  0
  8  7  2  0
  9  5  1  0
 11 10  1  0
 11 12  1  1
 13 12  1  0
 13 14  1  0
 15 14  1  0
 16 15  1  0
 17 11  1  0
 18 17  2  0
 19 17  1  0
 20 19  1  0
 20 21  1  6
 22 21  1  0
 23 24  2  0
 23 22  1  0
 25 20  1  0
 25 26  1  0
 27 23  1  0
 28 25  2  0
M  END
$$$$
