EKE.pdb
     RDKit          3D

 28 27  0  0  1  0  0  0  0  0999 V2000
    6.9547  -16.5808   20.1622 N   0  0  0  0  0  0  0  0  0  0  0  0
    8.3943  -16.4380   20.0937 C   0  0  1  0  0  0  0  0  0  0  0  0
    8.8126  -15.5859   18.9174 C   0  0  0  0  0  0  0  0  0  0  0  0
    7.8740  -15.9263   17.7639 C   0  0  0  0  0  0  0  0  0  0  0  0
    8.6216  -16.4474   16.6008 C   0  0  0  0  0  0  0  0  0  0  0  0
    8.9485  -17.6485   16.5705 O   0  0  0  0  0  0  0  0  0  0  0  0
    8.9018  -15.9140   21.3796 C   0  0  0  0  0  0  0  0  0  0  0  0
   10.1280  -15.6523   21.5448 O   0  0  0  0  0  0  0  0  0  0  0  0
    8.9679  -15.6318   15.5424 O   0  0  0  0  0  0  0  0  0  0  0  0
    8.0244  -15.6864   22.4744 N   0  0  0  0  0  0  0  0  0  0  0  0
    8.4073  -15.3252   23.7940 C   0  0  1  0  0  0  0  0  0  0  0  0
    7.2607  -14.6873   24.5914 C   0  0  0  0  0  0  0  0  0  0  0  0
    7.6497  -13.3612   25.1425 C   0  0  0  0  0  0  0  0  0  0  0  0
    6.5624  -12.7471   25.9554 C   0  0  0  0  0  0  0  0  0  0  0  0
    6.9680  -11.4190   26.5358 C   0  0  0  0  0  0  0  0  0  0  0  0
    5.8752  -10.8492   27.3191 N   0  0  0  0  0  0  0  0  0  0  0  0
    8.9159  -16.4528   24.6015 C   0  0  0  0  0  0  0  0  0  0  0  0
    8.1714  -17.4580   24.7368 O   0  0  0  0  0  0  0  0  0  0  0  0
   10.1661  -16.4801   25.2255 N   0  0  0  0  0  0  0  0  0  0  0  0
   10.7238  -17.6976   25.8977 C   0  0  1  0  0  0  0  0  0  0  0  0
   12.1429  -17.8315   25.4709 C   0  0  0  0  0  0  0  0  0  0  0  0
   12.9465  -18.8951   26.0894 C   0  0  0  0  0  0  0  0  0  0  0  0
   14.3559  -19.0485   25.7569 C   0  0  0  0  0  0  0  0  0  0  0  0
   15.2308  -18.8185   26.6639 O   0  0  0  0  0  0  0  0  0  0  0  0
   10.6028  -17.3929   27.3298 C   0  0  0  0  0  0  0  0  0  0  0  0
   10.7362  -18.4622   28.2520 O   0  0  0  0  0  0  0  0  0  0  0  0
   14.8431  -19.4327   24.5193 O   0  0  0  0  0  0  0  0  0  0  0  0
   10.3910  -16.2834   27.8537 O   0  0  0  0  0  0  0  0  0  0  0  0
  2  1  1  1
  2  3  1  0
  3  4  1  0
  5  4  1  0
  6  5  2  0
  7  2  1  0
  7 10  1  0
  8  7  2  0
  9  5  1  0
 11 10  1  0
 11 12  1  1
 13 12  1  0
 13 14  1  0
 15 14  1  0
 16 15  1  0
 17 11  1  0
 18 17  2  0
 19 17  1  0
 20 19  1  0
 20 21  1  6
 22 21  1  0
 23 24  2  0
 23 22  1  0
 25 20  1  0
 25 26  1  0
 27 23  1  0
 28 25  2  0
M  END
$$$$
