EKE.pdb
     RDKit          3D

 28 27  0  0  1  0  0  0  0  0999 V2000
    8.8075  -14.7978   19.1895 N   0  0  0  0  0  0  0  0  0  0  0  0
    8.3752  -15.8126   20.1280 C   0  0  1  0  0  0  0  0  0  0  0  0
    8.7849  -17.1962   19.6777 C   0  0  0  0  0  0  0  0  0  0  0  0
    8.8222  -17.1761   18.1527 C   0  0  0  0  0  0  0  0  0  0  0  0
    9.1142  -18.5175   17.6062 C   0  0  0  0  0  0  0  0  0  0  0  0
    8.1831  -19.3274   17.4399 O   0  0  0  0  0  0  0  0  0  0  0  0
    8.8801  -15.4856   21.4786 C   0  0  0  0  0  0  0  0  0  0  0  0
   10.1163  -15.3373   21.7001 O   0  0  0  0  0  0  0  0  0  0  0  0
   10.3993  -18.8963   17.2739 O   0  0  0  0  0  0  0  0  0  0  0  0
    7.9888  -15.3265   22.5742 N   0  0  0  0  0  0  0  0  0  0  0  0
    8.3523  -15.2468   23.9453 C   0  0  1  0  0  0  0  0  0  0  0  0
    7.2068  -14.7430   24.8350 C   0  0  0  0  0  0  0  0  0  0  0  0
    7.3700  -13.3034   25.1734 C   0  0  0  0  0  0  0  0  0  0  0  0
    6.2692  -12.7998   26.0421 C   0  0  0  0  0  0  0  0  0  0  0  0
    6.4312  -11.3412   26.3760 C   0  0  0  0  0  0  0  0  0  0  0  0
    5.3555  -10.8970   27.2579 N   0  0  0  0  0  0  0  0  0  0  0  0
    8.8105  -16.5281   24.5204 C   0  0  0  0  0  0  0  0  0  0  0  0
    8.3879  -17.5899   23.9941 O   0  0  0  0  0  0  0  0  0  0  0  0
    9.6801  -16.6423   25.6084 N   0  0  0  0  0  0  0  0  0  0  0  0
   10.5031  -17.8648   25.8791 C   0  0  1  0  0  0  0  0  0  0  0  0
   11.5779  -17.9149   24.8513 C   0  0  0  0  0  0  0  0  0  0  0  0
   12.9562  -17.6534   25.2886 C   0  0  0  0  0  0  0  0  0  0  0  0
   14.0823  -18.2684   24.5999 C   0  0  0  0  0  0  0  0  0  0  0  0
   14.5391  -17.7061   23.5434 O   0  0  0  0  0  0  0  0  0  0  0  0
   11.0377  -17.6349   27.2282 C   0  0  0  0  0  0  0  0  0  0  0  0
   10.7319  -16.4052   27.8654 O   0  0  0  0  0  0  0  0  0  0  0  0
   14.7180  -19.4319   24.9982 O   0  0  0  0  0  0  0  0  0  0  0  0
   11.7466  -18.4036   27.9040 O   0  0  0  0  0  0  0  0  0  0  0  0
  2  1  1  6
  2  3  1  0
  3  4  1  0
  5  4  1  0
  6  5  2  0
  7  2  1  0
  7 10  1  0
  8  7  2  0
  9  5  1  0
 11 10  1  0
 11 12  1  1
 13 12  1  0
 13 14  1  0
 15 14  1  0
 16 15  1  0
 17 11  1  0
 18 17  2  0
 19 17  1  0
 20 19  1  0
 20 21  1  6
 22 21  1  0
 23 24  2  0
 23 22  1  0
 25 20  1  0
 25 26  1  0
 27 23  1  0
 28 25  2  0
M  END
$$$$
