FSH.pdb
     RDKit          3D

 28 29  0  0  1  0  0  0  0  0999 V2000
   25.2505  -11.0671  -18.6334 N   0  0  0  0  0  0  0  0  0  0  0  0
   24.6525  -10.5491  -17.4176 C   0  0  1  0  0  0  0  0  0  0  0  0
   25.7435   -9.9177  -16.5826 C   0  0  0  0  0  0  0  0  0  0  0  0
   26.8114  -10.8770  -16.2400 C   0  0  0  0  0  0  0  0  0  0  0  0
   26.5559  -11.9597  -15.3905 C   0  0  0  0  0  0  0  0  0  0  0  0
   27.5580  -12.8523  -15.0737 C   0  0  0  0  0  0  0  0  0  0  0  0
   28.8325  -12.7192  -15.5713 C   0  0  0  0  0  0  0  0  0  0  0  0
   29.1051  -11.6652  -16.4057 C   0  0  0  0  0  0  0  0  0  0  0  0
   28.1019  -10.7784  -16.7180 C   0  0  0  0  0  0  0  0  0  0  0  0
   23.6341   -9.5152  -17.7822 C   0  0  0  0  0  0  0  0  0  0  0  0
   23.7455   -8.8039  -18.8114 O   0  0  0  0  0  0  0  0  0  0  0  0
   20.2828   -9.6075  -15.8541 O   0  0  0  0  0  0  0  0  0  0  0  0
   20.1413   -8.9635  -17.1055 C   0  0  0  0  0  0  0  0  0  0  0  0
   21.5089   -8.3136  -17.3631 C   0  0  2  0  0  0  0  0  0  0  0  0
   22.4939   -9.3008  -16.9672 N   0  0  0  0  0  0  0  0  0  0  0  0
   21.5571   -7.1067  -16.5086 C   0  0  0  0  0  0  0  0  0  0  0  0
   21.8663   -7.2206  -15.3029 O   0  0  0  0  0  0  0  0  0  0  0  0
   21.2642   -5.7827  -16.9890 N   0  0  0  0  0  0  0  0  0  0  0  0
   21.3695   -4.6407  -16.1396 C   0  0  1  0  0  0  0  0  0  0  0  0
   22.4355   -3.6900  -16.5641 C   0  0  0  0  0  0  0  0  0  0  0  0
   23.7804   -4.2820  -16.6904 C   0  0  0  0  0  0  0  0  0  0  0  0
   24.5495   -4.9835  -15.8147 C   0  0  0  0  0  0  0  0  0  0  0  0
   25.7160   -5.3507  -16.4227 N   0  0  0  0  0  0  0  0  0  0  0  0
   25.6396   -4.8682  -17.6601 C   0  0  0  0  0  0  0  0  0  0  0  0
   24.4984   -4.2196  -17.8698 N   0  0  0  0  0  0  0  0  0  0  0  0
   20.0924   -3.9080  -15.9336 C   0  0  0  0  0  0  0  0  0  0  0  0
   19.0215   -4.1199  -16.5113 O   0  0  0  0  0  0  0  0  0  0  0  0
   20.1235   -2.8808  -14.9893 O   0  0  0  0  0  0  0  0  0  0  0  0
  2  1  1  6
  2  3  1  0
  3  4  1  0
  4  5  2  0
  5  6  1  0
  7  6  2  0
  8  7  1  0
  9  8  2  0
  9  4  1  0
 10 11  2  0
 10  2  1  0
 12 13  1  0
 14 13  1  1
 14 15  1  0
 14 16  1  0
 15 10  1  0
 16 18  1  0
 17 16  2  0
 18 19  1  0
 19 26  1  0
 19 20  1  6
 20 21  1  0
 21 25  1  0
 22 21  2  0
 22 23  1  0
 23 24  1  0
 25 24  2  0
 26 27  2  0
 26 28  1  0
M  END
$$$$
