FSH.pdb
     RDKit          3D

 28 29  0  0  1  0  0  0  0  0999 V2000
   25.1785  -20.5864   -7.9537 N   0  0  0  0  0  0  0  0  0  0  0  0
   26.3056  -20.0915   -8.7210 C   0  0  1  0  0  0  0  0  0  0  0  0
   27.5643  -20.7376   -8.1879 C   0  0  0  0  0  0  0  0  0  0  0  0
   27.9665  -20.1837   -6.8803 C   0  0  0  0  0  0  0  0  0  0  0  0
   27.8146  -18.8202   -6.6030 C   0  0  0  0  0  0  0  0  0  0  0  0
   28.1927  -18.3085   -5.3796 C   0  0  0  0  0  0  0  0  0  0  0  0
   28.7274  -19.1041   -4.3942 C   0  0  0  0  0  0  0  0  0  0  0  0
   28.8851  -20.4434   -4.6446 C   0  0  0  0  0  0  0  0  0  0  0  0
   28.5063  -20.9478   -5.8663 C   0  0  0  0  0  0  0  0  0  0  0  0
   26.1151  -20.4670  -10.1568 C   0  0  0  0  0  0  0  0  0  0  0  0
   25.0123  -20.8753  -10.5983 O   0  0  0  0  0  0  0  0  0  0  0  0
   28.6712  -21.2969  -13.1986 O   0  0  0  0  0  0  0  0  0  0  0  0
   28.2878  -19.9364  -13.1451 C   0  0  0  0  0  0  0  0  0  0  0  0
   26.9235  -19.9462  -12.4396 C   0  0  2  0  0  0  0  0  0  0  0  0
   27.1874  -20.3734  -11.0797 N   0  0  0  0  0  0  0  0  0  0  0  0
   26.0880  -20.9204  -13.1759 C   0  0  0  0  0  0  0  0  0  0  0  0
   25.7916  -22.0072  -12.6344 O   0  0  0  0  0  0  0  0  0  0  0  0
   25.5850  -20.6899  -14.5038 N   0  0  0  0  0  0  0  0  0  0  0  0
   24.1926  -20.7867  -14.8013 C   0  0  1  0  0  0  0  0  0  0  0  0
   23.3430  -19.9430  -13.9144 C   0  0  0  0  0  0  0  0  0  0  0  0
   22.5859  -20.6864  -12.8900 C   0  0  0  0  0  0  0  0  0  0  0  0
   22.5637  -22.0049  -12.5561 C   0  0  0  0  0  0  0  0  0  0  0  0
   21.7165  -22.1956  -11.5020 N   0  0  0  0  0  0  0  0  0  0  0  0
   21.2359  -20.9903  -11.2090 C   0  0  0  0  0  0  0  0  0  0  0  0
   21.7268  -20.0520  -12.0126 N   0  0  0  0  0  0  0  0  0  0  0  0
   23.8487  -20.5285  -16.2245 C   0  0  0  0  0  0  0  0  0  0  0  0
   24.5032  -19.8581  -17.0293 O   0  0  0  0  0  0  0  0  0  0  0  0
   22.6646  -21.1090  -16.6813 O   0  0  0  0  0  0  0  0  0  0  0  0
  2  1  1  1
  2  3  1  0
  3  4  1  0
  4  5  2  0
  5  6  1  0
  7  6  2  0
  8  7  1  0
  9  8  2  0
  9  4  1  0
 10 11  2  0
 10  2  1  0
 12 13  1  0
 14 13  1  6
 14 15  1  0
 14 16  1  0
 15 10  1  0
 16 18  1  0
 17 16  2  0
 18 19  1  0
 19 26  1  0
 19 20  1  1
 20 21  1  0
 21 25  1  0
 22 21  2  0
 22 23  1  0
 23 24  1  0
 25 24  2  0
 26 27  2  0
 26 28  1  0
M  END
$$$$
