FSH.pdb
     RDKit          3D

 28 29  0  0  1  0  0  0  0  0999 V2000
   21.3488  -32.6806  -10.6206 N   0  0  0  0  0  0  0  0  0  0  0  0
   22.5655  -32.1903  -10.0014 C   0  0  1  0  0  0  0  0  0  0  0  0
   22.1840  -31.3427   -8.8089 C   0  0  0  0  0  0  0  0  0  0  0  0
   21.4574  -30.1196   -9.2018 C   0  0  0  0  0  0  0  0  0  0  0  0
   22.0823  -29.1315   -9.9714 C   0  0  0  0  0  0  0  0  0  0  0  0
   21.3984  -27.9907  -10.3349 C   0  0  0  0  0  0  0  0  0  0  0  0
   20.0922  -27.7779   -9.9624 C   0  0  0  0  0  0  0  0  0  0  0  0
   19.4604  -28.7334   -9.2079 C   0  0  0  0  0  0  0  0  0  0  0  0
   20.1475  -29.8688   -8.8485 C   0  0  0  0  0  0  0  0  0  0  0  0
   23.3823  -33.3594   -9.5486 C   0  0  0  0  0  0  0  0  0  0  0  0
   22.8798  -34.4980   -9.3793 O   0  0  0  0  0  0  0  0  0  0  0  0
   27.0639  -33.0139   -7.7411 O   0  0  0  0  0  0  0  0  0  0  0  0
   27.0015  -33.9098   -8.8339 C   0  0  0  0  0  0  0  0  0  0  0  0
   25.5379  -34.3742   -8.8706 C   0  0  2  0  0  0  0  0  0  0  0  0
   24.7697  -33.2192   -9.2919 N   0  0  0  0  0  0  0  0  0  0  0  0
   25.2046  -34.7899   -7.4902 C   0  0  0  0  0  0  0  0  0  0  0  0
   24.4823  -34.0528   -6.7851 O   0  0  0  0  0  0  0  0  0  0  0  0
   25.6699  -36.0149   -6.8968 N   0  0  0  0  0  0  0  0  0  0  0  0
   25.1052  -36.5193   -5.6871 C   0  0  1  0  0  0  0  0  0  0  0  0
   23.6286  -36.7045   -5.7614 C   0  0  0  0  0  0  0  0  0  0  0  0
   23.0175  -37.3053   -4.5610 C   0  0  0  0  0  0  0  0  0  0  0  0
   23.5576  -37.7625   -3.3993 C   0  0  0  0  0  0  0  0  0  0  0  0
   22.5620  -38.1976   -2.5720 N   0  0  0  0  0  0  0  0  0  0  0  0
   21.4300  -37.9982   -3.2417 C   0  0  0  0  0  0  0  0  0  0  0  0
   21.6499  -37.4650   -4.4394 N   0  0  0  0  0  0  0  0  0  0  0  0
   25.7451  -37.7625   -5.1816 C   0  0  0  0  0  0  0  0  0  0  0  0
   26.1480  -38.7113   -5.8620 O   0  0  0  0  0  0  0  0  0  0  0  0
   25.8985  -37.8505   -3.7972 O   0  0  0  0  0  0  0  0  0  0  0  0
  2  1  1  1
  2  3  1  0
  3  4  1  0
  4  5  2  0
  5  6  1  0
  7  6  2  0
  8  7  1  0
  9  8  2  0
  9  4  1  0
 10 11  2  0
 10  2  1  0
 12 13  1  0
 14 13  1  1
 14 15  1  0
 14 16  1  0
 15 10  1  0
 16 18  1  0
 17 16  2  0
 18 19  1  0
 19 26  1  0
 19 20  1  6
 20 21  1  0
 21 25  1  0
 22 21  2  0
 22 23  1  0
 23 24  1  0
 25 24  2  0
 26 27  2  0
 26 28  1  0
M  END
$$$$
