FSH.pdb
     RDKit          3D

 28 29  0  0  1  0  0  0  0  0999 V2000
   27.5851  -23.7023    9.7935 N   0  0  0  0  0  0  0  0  0  0  0  0
   27.0651  -25.0521    9.9018 C   0  0  1  0  0  0  0  0  0  0  0  0
   25.6554  -25.0641    9.3552 C   0  0  0  0  0  0  0  0  0  0  0  0
   24.7119  -24.3365   10.2262 C   0  0  0  0  0  0  0  0  0  0  0  0
   24.3102  -24.8748   11.4542 C   0  0  0  0  0  0  0  0  0  0  0  0
   23.4280  -24.1905   12.2633 C   0  0  0  0  0  0  0  0  0  0  0  0
   22.9126  -22.9677   11.9040 C   0  0  0  0  0  0  0  0  0  0  0  0
   23.2929  -22.4215   10.7046 C   0  0  0  0  0  0  0  0  0  0  0  0
   24.1728  -23.1085    9.9020 C   0  0  0  0  0  0  0  0  0  0  0  0
   27.9276  -25.9687    9.0924 C   0  0  0  0  0  0  0  0  0  0  0  0
   29.0459  -25.6107    8.6463 O   0  0  0  0  0  0  0  0  0  0  0  0
   28.9750  -29.3499   10.0962 O   0  0  0  0  0  0  0  0  0  0  0  0
   29.5458  -28.4651    9.1517 C   0  0  0  0  0  0  0  0  0  0  0  0
   28.4210  -28.2013    8.1395 C   0  0  2  0  0  0  0  0  0  0  0  0
   27.5058  -27.2899    8.7978 N   0  0  0  0  0  0  0  0  0  0  0  0
   27.7972  -29.5153    7.8677 C   0  0  0  0  0  0  0  0  0  0  0  0
   26.8611  -29.9121    8.5946 O   0  0  0  0  0  0  0  0  0  0  0  0
   28.2098  -30.3825    6.7967 N   0  0  0  0  0  0  0  0  0  0  0  0
   27.2984  -30.7976    5.7799 C   0  0  1  0  0  0  0  0  0  0  0  0
   26.6134  -29.6591    5.1055 C   0  0  0  0  0  0  0  0  0  0  0  0
   25.1672  -29.5566    5.3766 C   0  0  0  0  0  0  0  0  0  0  0  0
   24.3406  -30.2793    6.1796 C   0  0  0  0  0  0  0  0  0  0  0  0
   23.0767  -29.7659    6.1154 N   0  0  0  0  0  0  0  0  0  0  0  0
   23.1524  -28.7377    5.2748 C   0  0  0  0  0  0  0  0  0  0  0  0
   24.3847  -28.5710    4.8050 N   0  0  0  0  0  0  0  0  0  0  0  0
   27.8863  -31.7076    4.7617 C   0  0  0  0  0  0  0  0  0  0  0  0
   27.2661  -32.4405    3.9848 O   0  0  0  0  0  0  0  0  0  0  0  0
   29.2800  -31.7236    4.6895 O   0  0  0  0  0  0  0  0  0  0  0  0
  2  1  1  6
  2  3  1  0
  3  4  1  0
  4  5  2  0
  5  6  1  0
  7  6  2  0
  8  7  1  0
  9  8  2  0
  9  4  1  0
 10 11  2  0
 10  2  1  0
 12 13  1  0
 14 13  1  1
 14 15  1  0
 14 16  1  0
 15 10  1  0
 16 18  1  0
 17 16  2  0
 18 19  1  0
 19 26  1  0
 19 20  1  6
 20 21  1  0
 21 25  1  0
 22 21  2  0
 22 23  1  0
 23 24  1  0
 25 24  2  0
 26 27  2  0
 26 28  1  0
M  END
$$$$
