FSH.pdb
     RDKit          3D

 28 29  0  0  1  0  0  0  0  0999 V2000
   27.2796  -20.6540   10.5161 N   0  0  0  0  0  0  0  0  0  0  0  0
   28.2540  -21.4468   11.2414 C   0  0  1  0  0  0  0  0  0  0  0  0
   27.5191  -22.5372   11.9879 C   0  0  0  0  0  0  0  0  0  0  0  0
   26.0904  -22.5994   11.6230 C   0  0  0  0  0  0  0  0  0  0  0  0
   25.1518  -21.7813   12.2623 C   0  0  0  0  0  0  0  0  0  0  0  0
   23.8183  -21.8445   11.9174 C   0  0  0  0  0  0  0  0  0  0  0  0
   23.3600  -22.7012   10.9448 C   0  0  0  0  0  0  0  0  0  0  0  0
   24.2627  -23.5121   10.3054 C   0  0  0  0  0  0  0  0  0  0  0  0
   25.5911  -23.4448   10.6536 C   0  0  0  0  0  0  0  0  0  0  0  0
   29.2048  -22.0590   10.2616 C   0  0  0  0  0  0  0  0  0  0  0  0
   28.8271  -22.4792    9.1398 O   0  0  0  0  0  0  0  0  0  0  0  0
   33.1988  -21.2853   10.1208 O   0  0  0  0  0  0  0  0  0  0  0  0
   32.8866  -22.6623   10.2051 C   0  0  0  0  0  0  0  0  0  0  0  0
   31.4805  -22.7783    9.5981 C   0  0  2  0  0  0  0  0  0  0  0  0
   30.5827  -22.1871   10.5707 N   0  0  0  0  0  0  0  0  0  0  0  0
   31.2295  -24.2253    9.4178 C   0  0  0  0  0  0  0  0  0  0  0  0
   30.1245  -24.7029    9.7539 O   0  0  0  0  0  0  0  0  0  0  0  0
   32.1984  -25.1357    8.8683 N   0  0  0  0  0  0  0  0  0  0  0  0
   31.8829  -26.5072    8.6314 C   0  0  1  0  0  0  0  0  0  0  0  0
   30.7059  -26.6925    7.7366 C   0  0  0  0  0  0  0  0  0  0  0  0
   30.3093  -28.0957    7.5156 C   0  0  0  0  0  0  0  0  0  0  0  0
   30.7960  -29.2655    8.0108 C   0  0  0  0  0  0  0  0  0  0  0  0
   30.0584  -30.3086    7.5282 N   0  0  0  0  0  0  0  0  0  0  0  0
   29.1328  -29.7586    6.7469 C   0  0  0  0  0  0  0  0  0  0  0  0
   29.2410  -28.4344    6.7066 N   0  0  0  0  0  0  0  0  0  0  0  0
   33.0238  -27.3245    8.1407 C   0  0  0  0  0  0  0  0  0  0  0  0
   33.6962  -27.1145    7.1262 O   0  0  0  0  0  0  0  0  0  0  0  0
   33.3554  -28.4370    8.9154 O   0  0  0  0  0  0  0  0  0  0  0  0
  2  1  1  6
  2  3  1  0
  3  4  1  0
  4  5  2  0
  5  6  1  0
  7  6  2  0
  8  7  1  0
  9  8  2  0
  9  4  1  0
 10 11  2  0
 10  2  1  0
 12 13  1  0
 14 13  1  1
 14 15  1  0
 14 16  1  0
 15 10  1  0
 16 18  1  0
 17 16  2  0
 18 19  1  0
 19 26  1  0
 19 20  1  6
 20 21  1  0
 21 25  1  0
 22 21  2  0
 22 23  1  0
 23 24  1  0
 25 24  2  0
 26 27  2  0
 26 28  1  0
M  END
$$$$
