FSH.pdb
     RDKit          3D

 28 29  0  0  1  0  0  0  0  0999 V2000
   26.1628  -19.4917  -17.5152 N   0  0  0  0  0  0  0  0  0  0  0  0
   24.7742  -19.1014  -17.6679 C   0  0  1  0  0  0  0  0  0  0  0  0
   24.3281  -19.4678  -19.0654 C   0  0  0  0  0  0  0  0  0  0  0  0
   25.0593  -18.7132  -20.1017 C   0  0  0  0  0  0  0  0  0  0  0  0
   24.7297  -17.3827  -20.3852 C   0  0  0  0  0  0  0  0  0  0  0  0
   25.4163  -16.6831  -21.3549 C   0  0  0  0  0  0  0  0  0  0  0  0
   26.4392  -17.2538  -22.0745 C   0  0  0  0  0  0  0  0  0  0  0  0
   26.7789  -18.5568  -21.8129 C   0  0  0  0  0  0  0  0  0  0  0  0
   26.0907  -19.2494  -20.8449 C   0  0  0  0  0  0  0  0  0  0  0  0
   23.9500  -19.8446  -16.6642 C   0  0  0  0  0  0  0  0  0  0  0  0
   24.4513  -20.6982  -15.8911 O   0  0  0  0  0  0  0  0  0  0  0  0
   21.1924  -18.8480  -13.7017 O   0  0  0  0  0  0  0  0  0  0  0  0
   22.3082  -19.5718  -14.1833 C   0  0  0  0  0  0  0  0  0  0  0  0
   21.8110  -20.2337  -15.4771 C   0  0  2  0  0  0  0  0  0  0  0  0
   22.5568  -19.6070  -16.5507 N   0  0  0  0  0  0  0  0  0  0  0  0
   20.3636  -19.9377  -15.5594 C   0  0  0  0  0  0  0  0  0  0  0  0
   19.9894  -18.8030  -15.9264 O   0  0  0  0  0  0  0  0  0  0  0  0
   19.3390  -20.8944  -15.2365 N   0  0  0  0  0  0  0  0  0  0  0  0
   17.9537  -20.5729  -15.3563 C   0  0  1  0  0  0  0  0  0  0  0  0
   17.1983  -21.5386  -16.2030 C   0  0  0  0  0  0  0  0  0  0  0  0
   17.6319  -21.6001  -17.6115 C   0  0  0  0  0  0  0  0  0  0  0  0
   17.8899  -20.6262  -18.5253 C   0  0  0  0  0  0  0  0  0  0  0  0
   18.3022  -21.1953  -19.6963 N   0  0  0  0  0  0  0  0  0  0  0  0
   18.2899  -22.5075  -19.4780 C   0  0  0  0  0  0  0  0  0  0  0  0
   17.8955  -22.8010  -18.2430 N   0  0  0  0  0  0  0  0  0  0  0  0
   17.2524  -20.3827  -14.0592 C   0  0  0  0  0  0  0  0  0  0  0  0
   17.7197  -20.5848  -12.9340 O   0  0  0  0  0  0  0  0  0  0  0  0
   15.9347  -19.9299  -14.1385 O   0  0  0  0  0  0  0  0  0  0  0  0
  2  1  1  6
  2  3  1  0
  3  4  1  0
  4  5  2  0
  5  6  1  0
  7  6  2  0
  8  7  1  0
  9  8  2  0
  9  4  1  0
 10 11  2  0
 10  2  1  0
 12 13  1  0
 14 13  1  1
 14 15  1  0
 14 16  1  0
 15 10  1  0
 16 18  1  0
 17 16  2  0
 18 19  1  0
 19 26  1  0
 19 20  1  1
 20 21  1  0
 21 25  1  0
 22 21  2  0
 22 23  1  0
 23 24  1  0
 25 24  2  0
 26 27  2  0
 26 28  1  0
M  END
$$$$
