FSH.pdb
     RDKit          3D

 28 29  0  0  1  0  0  0  0  0999 V2000
   18.0198  -11.0596  -18.0808 N   0  0  0  0  0  0  0  0  0  0  0  0
   19.1798  -10.7271  -17.2758 C   0  0  1  0  0  0  0  0  0  0  0  0
   20.4214  -11.0988  -18.0546 C   0  0  0  0  0  0  0  0  0  0  0  0
   20.4653  -12.5368  -18.3838 C   0  0  0  0  0  0  0  0  0  0  0  0
   20.1918  -12.9829  -19.6820 C   0  0  0  0  0  0  0  0  0  0  0  0
   20.2339  -14.3277  -19.9834 C   0  0  0  0  0  0  0  0  0  0  0  0
   20.5420  -15.2746  -19.0354 C   0  0  0  0  0  0  0  0  0  0  0  0
   20.8135  -14.8595  -17.7566 C   0  0  0  0  0  0  0  0  0  0  0  0
   20.7699  -13.5172  -17.4621 C   0  0  0  0  0  0  0  0  0  0  0  0
   19.1753   -9.2553  -17.0062 C   0  0  0  0  0  0  0  0  0  0  0  0
   18.9229   -8.4140  -17.9041 O   0  0  0  0  0  0  0  0  0  0  0  0
   19.8209   -8.1267  -13.3219 O   0  0  0  0  0  0  0  0  0  0  0  0
   19.0950   -7.1274  -14.0112 C   0  0  0  0  0  0  0  0  0  0  0  0
   19.4743   -7.3219  -15.4868 C   0  0  2  0  0  0  0  0  0  0  0  0
   19.4597   -8.7541  -15.7107 N   0  0  0  0  0  0  0  0  0  0  0  0
   20.8298   -6.7491  -15.6409 C   0  0  0  0  0  0  0  0  0  0  0  0
   21.7870   -7.5039  -15.9168 O   0  0  0  0  0  0  0  0  0  0  0  0
   21.1206   -5.3484  -15.4899 N   0  0  0  0  0  0  0  0  0  0  0  0
   22.4348   -4.8326  -15.6989 C   0  0  1  0  0  0  0  0  0  0  0  0
   23.0441   -5.2817  -16.9824 C   0  0  0  0  0  0  0  0  0  0  0  0
   23.3274   -6.7269  -17.0625 C   0  0  0  0  0  0  0  0  0  0  0  0
   23.9383   -7.5816  -16.1984 C   0  0  0  0  0  0  0  0  0  0  0  0
   23.9240   -8.8447  -16.7177 N   0  0  0  0  0  0  0  0  0  0  0  0
   23.3039   -8.7407  -17.8900 C   0  0  0  0  0  0  0  0  0  0  0  0
   22.9267   -7.4912  -18.1422 N   0  0  0  0  0  0  0  0  0  0  0  0
   22.5412   -3.3545  -15.5794 C   0  0  0  0  0  0  0  0  0  0  0  0
   21.6057   -2.5571  -15.4598 O   0  0  0  0  0  0  0  0  0  0  0  0
   23.8349   -2.8315  -15.6070 O   0  0  0  0  0  0  0  0  0  0  0  0
  2  1  1  6
  2  3  1  0
  3  4  1  0
  4  5  2  0
  5  6  1  0
  7  6  2  0
  8  7  1  0
  9  8  2  0
  9  4  1  0
 10 11  2  0
 10  2  1  0
 12 13  1  0
 14 13  1  1
 14 15  1  0
 14 16  1  0
 15 10  1  0
 16 18  1  0
 17 16  2  0
 18 19  1  0
 19 26  1  0
 19 20  1  6
 20 21  1  0
 21 25  1  0
 22 21  2  0
 22 23  1  0
 23 24  1  0
 25 24  2  0
 26 27  2  0
 26 28  1  0
M  END
$$$$
