SND.pdb
     RDKit          3D

 23 22  0  0  1  0  0  0  0  0999 V2000
   10.5010  -18.3880   16.4455 O   0  0  0  0  0  0  0  0  0  0  0  0
    9.3577  -17.7052   16.0794 C   0  0  0  0  0  0  0  0  0  0  0  0
    9.6826  -16.2664   15.6506 C   0  0  2  0  0  0  0  0  0  0  0  0
   10.6479  -16.3511   14.6025 N   0  0  0  0  0  0  0  0  0  0  0  0
   10.1361  -15.5563   16.8452 C   0  0  0  0  0  0  0  0  0  0  0  0
   11.3879  -15.3472   16.9699 O   0  0  0  0  0  0  0  0  0  0  0  0
    8.2663  -12.7889   17.3675 N   0  0  0  0  0  0  0  0  0  0  0  0
    7.9523  -12.7624   18.7407 C   0  0  0  0  0  0  0  0  0  0  0  0
    7.0280  -12.0334   19.1553 O   0  0  0  0  0  0  0  0  0  0  0  0
    8.7087  -13.5910   19.6960 C   0  0  0  0  0  0  0  0  0  0  0  0
    9.8415  -14.3709   19.0467 C   0  0  2  0  0  0  0  0  0  0  0  0
    9.3134  -15.0713   17.8904 N   0  0  0  0  0  0  0  0  0  0  0  0
   10.4594  -15.2832   20.0254 C   0  0  0  0  0  0  0  0  0  0  0  0
    9.7838  -16.2084   20.5193 O   0  0  0  0  0  0  0  0  0  0  0  0
   11.8005  -15.1140   20.4007 N   0  0  0  0  0  0  0  0  0  0  0  0
   12.5557  -16.0236   21.2194 C   0  0  1  0  0  0  0  0  0  0  0  0
   13.0103  -17.2518   20.4655 C   0  0  0  0  0  0  0  0  0  0  0  0
   12.0311  -18.3299   20.7005 C   0  0  0  0  0  0  0  0  0  0  0  0
   11.6469  -18.6264   21.8788 O   0  0  0  0  0  0  0  0  0  0  0  0
   13.7299  -15.2965   21.7577 C   0  0  0  0  0  0  0  0  0  0  0  0
   14.2958  -14.2611   21.0450 O   0  0  0  0  0  0  0  0  0  0  0  0
   11.4572  -19.0960   19.6881 O   0  0  0  0  0  0  0  0  0  0  0  0
   14.2415  -15.5947   22.8661 O   0  0  0  0  0  0  0  0  0  0  0  0
  2  3  1  0
  2  1  1  0
  3  4  1  6
  3  5  1  0
  5  6  2  0
  7  8  1  0
  8  9  2  0
  8 10  1  0
 11 10  1  1
 11 13  1  0
 12  5  1  0
 12 11  1  0
 13 14  2  0
 15 16  1  0
 15 13  1  0
 16 20  1  0
 17 18  1  0
 16 17  1  6
 18 19  2  0
 20 21  1  0
 22 18  1  0
 23 20  2  0
M  END
$$$$
