SND.pdb
     RDKit          3D

 23 22  0  0  1  0  0  0  0  0999 V2000
    9.0437  -15.6427   16.9977 O   0  0  0  0  0  0  0  0  0  0  0  0
    7.7572  -15.1441   17.0557 C   0  0  0  0  0  0  0  0  0  0  0  0
    7.7208  -13.7797   17.7606 C   0  0  2  0  0  0  0  0  0  0  0  0
    8.4699  -12.8723   16.9524 N   0  0  0  0  0  0  0  0  0  0  0  0
    8.2506  -13.9805   19.1082 C   0  0  0  0  0  0  0  0  0  0  0  0
    9.4673  -13.6623   19.3193 O   0  0  0  0  0  0  0  0  0  0  0  0
    7.9297  -13.8957   24.6088 N   0  0  0  0  0  0  0  0  0  0  0  0
    7.4784  -15.0390   23.9203 C   0  0  0  0  0  0  0  0  0  0  0  0
    7.4763  -16.1498   24.4896 O   0  0  0  0  0  0  0  0  0  0  0  0
    7.0068  -14.9350   22.5282 C   0  0  0  0  0  0  0  0  0  0  0  0
    8.1185  -14.6126   21.5416 C   0  0  2  0  0  0  0  0  0  0  0  0
    7.5381  -14.4992   20.2162 N   0  0  0  0  0  0  0  0  0  0  0  0
    9.1742  -15.6386   21.6093 C   0  0  0  0  0  0  0  0  0  0  0  0
    9.0490  -16.6972   20.9611 O   0  0  0  0  0  0  0  0  0  0  0  0
   10.3152  -15.4279   22.3978 N   0  0  0  0  0  0  0  0  0  0  0  0
   11.4467  -16.3120   22.4760 C   0  0  1  0  0  0  0  0  0  0  0  0
   12.7617  -15.6029   22.2488 C   0  0  0  0  0  0  0  0  0  0  0  0
   13.8402  -16.6095   22.2606 C   0  0  0  0  0  0  0  0  0  0  0  0
   14.2142  -17.1624   23.3462 O   0  0  0  0  0  0  0  0  0  0  0  0
   11.4417  -16.9537   23.8121 C   0  0  0  0  0  0  0  0  0  0  0  0
   11.8448  -18.2639   23.9579 O   0  0  0  0  0  0  0  0  0  0  0  0
   14.5246  -17.0321   21.1230 O   0  0  0  0  0  0  0  0  0  0  0  0
   11.0758  -16.3340   24.8424 O   0  0  0  0  0  0  0  0  0  0  0  0
  2  3  1  0
  2  1  1  0
  3  4  1  6
  3  5  1  0
  5  6  2  0
  7  8  1  0
  8  9  2  0
  8 10  1  0
 11 10  1  1
 11 13  1  0
 12  5  1  0
 12 11  1  0
 13 14  2  0
 15 16  1  0
 15 13  1  0
 16 20  1  0
 17 18  1  0
 16 17  1  1
 18 19  2  0
 20 21  1  0
 22 18  1  0
 23 20  2  0
M  END
$$$$
