SND.pdb
     RDKit          3D

 23 22  0  0  1  0  0  0  0  0999 V2000
    8.4295  -19.7918   16.7586 O   0  0  0  0  0  0  0  0  0  0  0  0
    9.0391  -18.9446   17.6629 C   0  0  0  0  0  0  0  0  0  0  0  0
    8.5491  -17.4992   17.4883 C   0  0  2  0  0  0  0  0  0  0  0  0
    9.0539  -17.0357   16.2362 N   0  0  0  0  0  0  0  0  0  0  0  0
    9.0135  -16.7469   18.6525 C   0  0  0  0  0  0  0  0  0  0  0  0
   10.2641  -16.7550   18.9020 O   0  0  0  0  0  0  0  0  0  0  0  0
    7.1562  -13.2253   19.0392 N   0  0  0  0  0  0  0  0  0  0  0  0
    7.4736  -13.1335   20.4087 C   0  0  0  0  0  0  0  0  0  0  0  0
    7.6003  -12.0141   20.9461 O   0  0  0  0  0  0  0  0  0  0  0  0
    7.6584  -14.3523   21.2160 C   0  0  0  0  0  0  0  0  0  0  0  0
    8.7425  -15.2711   20.6742 C   0  0  2  0  0  0  0  0  0  0  0  0
    8.2028  -16.0005   19.5414 N   0  0  0  0  0  0  0  0  0  0  0  0
    9.2331  -16.1645   21.7386 C   0  0  0  0  0  0  0  0  0  0  0  0
    8.7489  -17.3081   21.8568 O   0  0  0  0  0  0  0  0  0  0  0  0
   10.2398  -15.7331   22.6154 N   0  0  0  0  0  0  0  0  0  0  0  0
   10.8312  -16.5279   23.6576 C   0  0  1  0  0  0  0  0  0  0  0  0
   12.3011  -16.2374   23.8541 C   0  0  0  0  0  0  0  0  0  0  0  0
   13.0632  -16.9938   22.8424 C   0  0  0  0  0  0  0  0  0  0  0  0
   12.6253  -18.0953   22.3745 O   0  0  0  0  0  0  0  0  0  0  0  0
   10.0911  -16.2676   24.9153 C   0  0  0  0  0  0  0  0  0  0  0  0
   10.3459  -17.0190   26.0425 O   0  0  0  0  0  0  0  0  0  0  0  0
   14.2906  -16.5852   22.3248 O   0  0  0  0  0  0  0  0  0  0  0  0
    9.2195  -15.3658   24.9955 O   0  0  0  0  0  0  0  0  0  0  0  0
  2  3  1  0
  2  1  1  0
  3  4  1  6
  3  5  1  0
  5  6  2  0
  7  8  1  0
  8  9  2  0
  8 10  1  0
 11 10  1  1
 11 13  1  0
 12  5  1  0
 12 11  1  0
 13 14  2  0
 15 16  1  0
 15 13  1  0
 16 20  1  0
 17 18  1  0
 16 17  1  1
 18 19  2  0
 20 21  1  0
 22 18  1  0
 23 20  2  0
M  END
$$$$
