SND.pdb
     RDKit          3D

 23 22  0  0  1  0  0  0  0  0999 V2000
    8.8806  -16.4097   16.7996 O   0  0  0  0  0  0  0  0  0  0  0  0
    8.8429  -15.1768   16.1786 C   0  0  0  0  0  0  0  0  0  0  0  0
    7.8165  -14.2490   16.8462 C   0  0  2  0  0  0  0  0  0  0  0  0
    7.8658  -13.0032   16.1512 N   0  0  0  0  0  0  0  0  0  0  0  0
    8.1664  -14.1742   18.2636 C   0  0  0  0  0  0  0  0  0  0  0  0
    8.2946  -13.0157   18.7811 O   0  0  0  0  0  0  0  0  0  0  0  0
    5.3350  -16.1164   21.9460 N   0  0  0  0  0  0  0  0  0  0  0  0
    6.4058  -15.2212   22.1377 C   0  0  0  0  0  0  0  0  0  0  0  0
    6.8353  -14.9995   23.2884 O   0  0  0  0  0  0  0  0  0  0  0  0
    7.0259  -14.5410   20.9869 C   0  0  0  0  0  0  0  0  0  0  0  0
    8.3567  -15.1517   20.5759 C   0  0  2  0  0  0  0  0  0  0  0  0
    8.3793  -15.2736   19.1299 N   0  0  0  0  0  0  0  0  0  0  0  0
    8.5559  -16.4448   21.2542 C   0  0  0  0  0  0  0  0  0  0  0  0
    7.7513  -17.3771   21.0549 O   0  0  0  0  0  0  0  0  0  0  0  0
    9.6445  -16.6286   22.1198 N   0  0  0  0  0  0  0  0  0  0  0  0
   10.9546  -17.0714   21.7255 C   0  0  1  0  0  0  0  0  0  0  0  0
   11.6099  -16.1467   20.7259 C   0  0  0  0  0  0  0  0  0  0  0  0
   12.9453  -16.6837   20.4025 C   0  0  0  0  0  0  0  0  0  0  0  0
   13.0823  -17.8319   19.8668 O   0  0  0  0  0  0  0  0  0  0  0  0
   11.7937  -17.1774   22.9428 C   0  0  0  0  0  0  0  0  0  0  0  0
   11.9096  -16.1081   23.8051 O   0  0  0  0  0  0  0  0  0  0  0  0
   14.1380  -16.0059   20.6460 O   0  0  0  0  0  0  0  0  0  0  0  0
   12.4183  -18.2304   23.2262 O   0  0  0  0  0  0  0  0  0  0  0  0
  2  3  1  0
  2  1  1  0
  3  4  1  6
  3  5  1  0
  5  6  2  0
  7  8  1  0
  8  9  2  0
  8 10  1  0
 11 10  1  6
 11 13  1  0
 12  5  1  0
 12 11  1  0
 13 14  2  0
 15 16  1  0
 15 13  1  0
 16 20  1  0
 17 18  1  0
 16 17  1  6
 18 19  2  0
 20 21  1  0
 22 18  1  0
 23 20  2  0
M  END
$$$$
