SND.pdb
     RDKit          3D

 23 22  0  0  1  0  0  0  0  0999 V2000
    9.5725  -15.3619   18.0257 O   0  0  0  0  0  0  0  0  0  0  0  0
    8.2591  -14.9560   17.8935 C   0  0  0  0  0  0  0  0  0  0  0  0
    8.0359  -13.5777   18.5339 C   0  0  2  0  0  0  0  0  0  0  0  0
    8.7564  -12.6299   17.7465 N   0  0  0  0  0  0  0  0  0  0  0  0
    8.4733  -13.6769   19.9253 C   0  0  0  0  0  0  0  0  0  0  0  0
    9.5043  -13.0105   20.2705 O   0  0  0  0  0  0  0  0  0  0  0  0
    8.4991  -13.6161   25.1191 N   0  0  0  0  0  0  0  0  0  0  0  0
    7.3866  -14.3442   24.6531 C   0  0  0  0  0  0  0  0  0  0  0  0
    6.6683  -14.9698   25.4595 O   0  0  0  0  0  0  0  0  0  0  0  0
    7.0622  -14.3741   23.2160 C   0  0  0  0  0  0  0  0  0  0  0  0
    8.2937  -14.4183   22.3246 C   0  0  2  0  0  0  0  0  0  0  0  0
    7.8581  -14.4485   20.9405 N   0  0  0  0  0  0  0  0  0  0  0  0
    9.1368  -15.5746   22.6762 C   0  0  0  0  0  0  0  0  0  0  0  0
    9.4030  -15.8036   23.8733 O   0  0  0  0  0  0  0  0  0  0  0  0
    9.6383  -16.4153   21.6712 N   0  0  0  0  0  0  0  0  0  0  0  0
   11.0313  -16.6470   21.3995 C   0  0  1  0  0  0  0  0  0  0  0  0
   11.7246  -15.4363   20.8188 C   0  0  0  0  0  0  0  0  0  0  0  0
   13.1028  -15.8191   20.4576 C   0  0  0  0  0  0  0  0  0  0  0  0
   13.4978  -17.0271   20.5518 O   0  0  0  0  0  0  0  0  0  0  0  0
   11.6896  -17.0488   22.6653 C   0  0  0  0  0  0  0  0  0  0  0  0
   11.9424  -18.3782   22.9283 O   0  0  0  0  0  0  0  0  0  0  0  0
   14.0651  -14.9234   19.9963 O   0  0  0  0  0  0  0  0  0  0  0  0
   12.0351  -16.2036   23.5287 O   0  0  0  0  0  0  0  0  0  0  0  0
  2  3  1  0
  2  1  1  0
  3  4  1  6
  3  5  1  0
  5  6  2  0
  7  8  1  0
  8  9  2  0
  8 10  1  0
 11 10  1  1
 11 13  1  0
 12  5  1  0
 12 11  1  0
 13 14  2  0
 15 16  1  0
 15 13  1  0
 16 20  1  0
 17 18  1  0
 16 17  1  1
 18 19  2  0
 20 21  1  0
 22 18  1  0
 23 20  2  0
M  END
$$$$
