SND.pdb
     RDKit          3D

 23 22  0  0  1  0  0  0  0  0999 V2000
    7.7891  -14.1624   20.0670 O   0  0  0  0  0  0  0  0  0  0  0  0
    8.1344  -13.0053   19.3968 C   0  0  0  0  0  0  0  0  0  0  0  0
    8.7456  -13.3197   18.0230 C   0  0  2  0  0  0  0  0  0  0  0  0
    7.7266  -13.9499   17.2472 N   0  0  0  0  0  0  0  0  0  0  0  0
    9.9312  -14.1413   18.2605 C   0  0  0  0  0  0  0  0  0  0  0  0
    9.8651  -15.3778   17.9555 O   0  0  0  0  0  0  0  0  0  0  0  0
   15.9278  -14.2449   18.4877 N   0  0  0  0  0  0  0  0  0  0  0  0
   14.6801  -14.8771   18.3189 C   0  0  0  0  0  0  0  0  0  0  0  0
   14.6088  -16.1231   18.3060 O   0  0  0  0  0  0  0  0  0  0  0  0
   13.4533  -14.0772   18.1565 C   0  0  0  0  0  0  0  0  0  0  0  0
   12.2958  -14.5761   19.0075 C   0  0  2  0  0  0  0  0  0  0  0  0
   11.1610  -13.6950   18.8016 N   0  0  0  0  0  0  0  0  0  0  0  0
   12.6996  -14.6547   20.4226 C   0  0  0  0  0  0  0  0  0  0  0  0
   13.1604  -13.6439   20.9904 O   0  0  0  0  0  0  0  0  0  0  0  0
   12.5670  -15.8592   21.1296 N   0  0  0  0  0  0  0  0  0  0  0  0
   12.9813  -16.0747   22.4897 C   0  0  1  0  0  0  0  0  0  0  0  0
   12.2854  -17.2506   23.1353 C   0  0  0  0  0  0  0  0  0  0  0  0
   12.6860  -17.3055   24.5541 C   0  0  0  0  0  0  0  0  0  0  0  0
   13.4751  -16.4367   25.0505 O   0  0  0  0  0  0  0  0  0  0  0  0
   14.4482  -16.2872   22.4990 C   0  0  0  0  0  0  0  0  0  0  0  0
   15.0342  -17.1455   21.5934 O   0  0  0  0  0  0  0  0  0  0  0  0
   12.2518  -18.2807   25.4494 O   0  0  0  0  0  0  0  0  0  0  0  0
   15.1965  -15.7001   23.3204 O   0  0  0  0  0  0  0  0  0  0  0  0
  2  3  1  0
  2  1  1  0
  3  4  1  6
  3  5  1  0
  5  6  2  0
  7  8  1  0
  8  9  2  0
  8 10  1  0
 11 10  1  6
 11 13  1  0
 12  5  1  0
 12 11  1  0
 13 14  2  0
 15 16  1  0
 15 13  1  0
 16 20  1  0
 17 18  1  0
 16 17  1  6
 18 19  2  0
 20 21  1  0
 22 18  1  0
 23 20  2  0
M  END
$$$$
