SND.pdb
     RDKit          3D

 23 22  0  0  1  0  0  0  0  0999 V2000
    8.8328  -18.9847   20.5122 O   0  0  0  0  0  0  0  0  0  0  0  0
    8.6580  -18.0682   21.5303 C   0  0  0  0  0  0  0  0  0  0  0  0
    8.7992  -16.6287   21.0130 C   0  0  2  0  0  0  0  0  0  0  0  0
    9.7786  -16.6525   19.9748 N   0  0  0  0  0  0  0  0  0  0  0  0
    9.1445  -15.7935   22.1620 C   0  0  0  0  0  0  0  0  0  0  0  0
   10.3750  -15.5079   22.3375 O   0  0  0  0  0  0  0  0  0  0  0  0
    5.4396  -13.5708   26.0254 N   0  0  0  0  0  0  0  0  0  0  0  0
    6.3768  -14.2409   25.2145 C   0  0  0  0  0  0  0  0  0  0  0  0
    6.2887  -15.4748   25.0485 O   0  0  0  0  0  0  0  0  0  0  0  0
    7.4649  -13.4950   24.5580 C   0  0  0  0  0  0  0  0  0  0  0  0
    8.6488  -14.3715   24.1796 C   0  0  2  0  0  0  0  0  0  0  0  0
    8.2374  -15.2630   23.1107 N   0  0  0  0  0  0  0  0  0  0  0  0
    9.1436  -15.0988   25.3619 C   0  0  0  0  0  0  0  0  0  0  0  0
    9.4253  -14.4689   26.4013 O   0  0  0  0  0  0  0  0  0  0  0  0
    9.2975  -16.4927   25.3211 N   0  0  0  0  0  0  0  0  0  0  0  0
    9.8195  -17.3030   26.3883 C   0  0  1  0  0  0  0  0  0  0  0  0
    8.7346  -17.9550   27.2139 C   0  0  0  0  0  0  0  0  0  0  0  0
    7.9413  -18.8305   26.3304 C   0  0  0  0  0  0  0  0  0  0  0  0
    7.5814  -18.4447   25.1704 O   0  0  0  0  0  0  0  0  0  0  0  0
   10.6970  -18.3403   25.7957 C   0  0  0  0  0  0  0  0  0  0  0  0
   11.5713  -19.0508   26.5901 O   0  0  0  0  0  0  0  0  0  0  0  0
    7.5276  -20.1158   26.6739 O   0  0  0  0  0  0  0  0  0  0  0  0
   10.6738  -18.6035   24.5671 O   0  0  0  0  0  0  0  0  0  0  0  0
  2  3  1  0
  2  1  1  0
  3  4  1  6
  3  5  1  0
  5  6  2  0
  7  8  1  0
  8  9  2  0
  8 10  1  0
 11 10  1  1
 11 13  1  0
 12  5  1  0
 12 11  1  0
 13 14  2  0
 15 16  1  0
 15 13  1  0
 16 20  1  0
 17 18  1  0
 16 17  1  6
 18 19  2  0
 20 21  1  0
 22 18  1  0
 23 20  2  0
M  END
$$$$
