HNW.pdb
     RDKit          3D

 33 35  0  0  1  0  0  0  0  0999 V2000
    9.4453  -16.9342   17.6898 N   0  0  0  0  0  0  0  0  0  0  0  0
    9.4503  -16.0686   18.8516 C   0  0  1  0  0  0  0  0  0  0  0  0
    8.1175  -15.3202   18.8552 C   0  0  0  0  0  0  0  0  0  0  0  0
    8.0284  -14.5783   17.5742 C   0  0  0  0  0  0  0  0  0  0  0  0
    8.5978  -13.3499   17.3161 C   0  0  0  0  0  0  0  0  0  0  0  0
    8.2872  -13.0212   16.0481 N   0  0  0  0  0  0  0  0  0  0  0  0
    7.5483  -13.9930   15.5054 C   0  0  0  0  0  0  0  0  0  0  0  0
    7.3949  -14.9375   16.4400 N   0  0  0  0  0  0  0  0  0  0  0  0
    9.7102  -16.7670   20.1085 C   0  0  0  0  0  0  0  0  0  0  0  0
    8.7826  -16.9354   20.9330 O   0  0  0  0  0  0  0  0  0  0  0  0
   13.9538  -19.5249   19.6317 N   0  0  0  0  0  0  0  0  0  0  0  0
   12.8414  -19.5733   20.5127 C   0  0  0  0  0  0  0  0  0  0  0  0
   11.9767  -20.4529   20.3391 O   0  0  0  0  0  0  0  0  0  0  0  0
   12.7097  -18.5991   21.6164 C   0  0  0  0  0  0  0  0  0  0  0  0
   11.3678  -17.9432   21.6215 C   0  0  2  0  0  0  0  0  0  0  0  0
   11.0082  -17.2640   20.4165 N   0  0  0  0  0  0  0  0  0  0  0  0
   11.1994  -17.0861   22.8283 C   0  0  0  0  0  0  0  0  0  0  0  0
   12.0240  -16.1387   22.9704 O   0  0  0  0  0  0  0  0  0  0  0  0
   10.1591  -17.3498   23.7462 N   0  0  0  0  0  0  0  0  0  0  0  0
    9.9458  -16.4821   24.8882 C   0  0  1  0  0  0  0  0  0  0  0  0
    8.9643  -15.3799   24.5615 C   0  0  0  0  0  0  0  0  0  0  0  0
    8.6167  -14.6840   25.8187 C   0  0  0  0  0  0  0  0  0  0  0  0
    9.0590  -15.0236   27.0801 C   0  0  0  0  0  0  0  0  0  0  0  0
    8.5211  -14.1462   27.9676 N   0  0  0  0  0  0  0  0  0  0  0  0
    7.7485  -13.2534   27.3300 C   0  0  0  0  0  0  0  0  0  0  0  0
    6.9837  -12.1780   27.7119 C   0  0  0  0  0  0  0  0  0  0  0  0
    6.2876  -11.4412   26.8022 C   0  0  0  0  0  0  0  0  0  0  0  0
    6.3464  -11.7729   25.4774 C   0  0  0  0  0  0  0  0  0  0  0  0
    7.0969  -12.8374   25.0521 C   0  0  0  0  0  0  0  0  0  0  0  0
    7.8057  -13.5848   25.9936 C   0  0  0  0  0  0  0  0  0  0  0  0
    9.5201  -17.2812   26.0817 C   0  0  0  0  0  0  0  0  0  0  0  0
    8.9799  -18.4172   25.9204 O   0  0  0  0  0  0  0  0  0  0  0  0
    9.6783  -16.8577   27.3863 O   0  0  0  0  0  0  0  0  0  0  0  0
  2  1  1  6
  2  3  1  0
  3  4  1  0
  4  8  1  0
  5  4  2  0
  5  6  1  0
  6  7  1  0
  8  7  2  0
  9  2  1  0
  9 10  2  0
 11 12  1  0
 12 14  1  0
 13 12  2  0
 15 14  1  6
 15 16  1  0
 16  9  1  0
 17 15  1  0
 18 17  2  0
 19 17  1  0
 20 19  1  0
 20 31  1  0
 20 21  1  6
 22 21  1  0
 23 22  2  0
 24 25  1  0
 24 23  1  0
 25 30  2  0
 26 25  1  0
 26 27  2  0
 27 28  1  0
 28 29  2  0
 30 22  1  0
 30 29  1  0
 31 33  1  0
 32 31  2  0
M  END
$$$$
