HNW.pdb
     RDKit          3D

 33 35  0  0  1  0  0  0  0  0999 V2000
    7.1393  -16.6884   19.8129 N   0  0  0  0  0  0  0  0  0  0  0  0
    8.3235  -16.1733   20.4700 C   0  0  1  0  0  0  0  0  0  0  0  0
    8.0315  -14.7187   20.8380 C   0  0  0  0  0  0  0  0  0  0  0  0
    8.0647  -13.9337   19.5803 C   0  0  0  0  0  0  0  0  0  0  0  0
    8.3600  -14.4323   18.3297 C   0  0  0  0  0  0  0  0  0  0  0  0
    8.2855  -13.4072   17.4602 N   0  0  0  0  0  0  0  0  0  0  0  0
    7.9564  -12.2910   18.1164 C   0  0  0  0  0  0  0  0  0  0  0  0
    7.8234  -12.6191   19.4063 N   0  0  0  0  0  0  0  0  0  0  0  0
    8.7584  -16.9700   21.6150 C   0  0  0  0  0  0  0  0  0  0  0  0
    7.9117  -17.4194   22.4212 O   0  0  0  0  0  0  0  0  0  0  0  0
   12.6692  -19.1839   20.5142 N   0  0  0  0  0  0  0  0  0  0  0  0
   11.9733  -19.4740   21.7172 C   0  0  0  0  0  0  0  0  0  0  0  0
   11.3422  -20.5446   21.8017 O   0  0  0  0  0  0  0  0  0  0  0  0
   11.9959  -18.5248   22.8500 C   0  0  0  0  0  0  0  0  0  0  0  0
   10.6846  -17.8299   23.0189 C   0  0  2  0  0  0  0  0  0  0  0  0
   10.1375  -17.2479   21.8338 N   0  0  0  0  0  0  0  0  0  0  0  0
   10.7360  -16.8657   24.1533 C   0  0  0  0  0  0  0  0  0  0  0  0
   11.4345  -15.8261   23.9827 O   0  0  0  0  0  0  0  0  0  0  0  0
   10.0274  -17.1340   25.3450 N   0  0  0  0  0  0  0  0  0  0  0  0
   10.5176  -16.6473   26.6199 C   0  0  1  0  0  0  0  0  0  0  0  0
   10.1096  -15.2101   26.8499 C   0  0  0  0  0  0  0  0  0  0  0  0
    8.6642  -15.0893   26.5635 C   0  0  0  0  0  0  0  0  0  0  0  0
    7.7902  -16.1362   26.3578 C   0  0  0  0  0  0  0  0  0  0  0  0
    6.5555  -15.6175   26.1266 N   0  0  0  0  0  0  0  0  0  0  0  0
    6.5970  -14.2771   26.1744 C   0  0  0  0  0  0  0  0  0  0  0  0
    5.6782  -13.2677   26.0188 C   0  0  0  0  0  0  0  0  0  0  0  0
    6.0355  -11.9578   26.1267 C   0  0  0  0  0  0  0  0  0  0  0  0
    7.3355  -11.6323   26.3958 C   0  0  0  0  0  0  0  0  0  0  0  0
    8.2848  -12.6067   26.5587 C   0  0  0  0  0  0  0  0  0  0  0  0
    7.9066  -13.9453   26.4458 C   0  0  0  0  0  0  0  0  0  0  0  0
   10.0695  -17.5459   27.7317 C   0  0  0  0  0  0  0  0  0  0  0  0
   10.3783  -17.2689   28.9302 O   0  0  0  0  0  0  0  0  0  0  0  0
    9.3209  -18.6901   27.5408 O   0  0  0  0  0  0  0  0  0  0  0  0
  2  1  1  1
  2  3  1  0
  3  4  1  0
  4  8  1  0
  5  4  2  0
  5  6  1  0
  6  7  1  0
  8  7  2  0
  9  2  1  0
  9 10  2  0
 11 12  1  0
 12 14  1  0
 13 12  2  0
 15 14  1  6
 15 16  1  0
 16  9  1  0
 17 15  1  0
 18 17  2  0
 19 17  1  0
 20 19  1  0
 20 31  1  0
 20 21  1  1
 22 21  1  0
 23 22  2  0
 24 25  1  0
 24 23  1  0
 25 30  2  0
 26 25  1  0
 26 27  2  0
 27 28  1  0
 28 29  2  0
 30 22  1  0
 30 29  1  0
 31 33  1  0
 32 31  2  0
M  END
$$$$
