HNW.pdb
     RDKit          3D

 33 35  0  0  1  0  0  0  0  0999 V2000
    9.1065  -16.6116   19.7434 N   0  0  0  0  0  0  0  0  0  0  0  0
    8.7789  -15.8864   20.9542 C   0  0  1  0  0  0  0  0  0  0  0  0
    7.4887  -15.1152   20.6762 C   0  0  0  0  0  0  0  0  0  0  0  0
    7.6799  -14.3879   19.3981 C   0  0  0  0  0  0  0  0  0  0  0  0
    8.1765  -13.1088   19.2682 C   0  0  0  0  0  0  0  0  0  0  0  0
    8.1920  -12.8148   17.9545 N   0  0  0  0  0  0  0  0  0  0  0  0
    7.7261  -13.8570   17.2605 C   0  0  0  0  0  0  0  0  0  0  0  0
    7.4165  -14.8109   18.1457 N   0  0  0  0  0  0  0  0  0  0  0  0
    8.6882  -16.7308   22.1432 C   0  0  0  0  0  0  0  0  0  0  0  0
    7.9788  -17.7628   22.1239 O   0  0  0  0  0  0  0  0  0  0  0  0
   12.8220  -19.3431   23.6574 N   0  0  0  0  0  0  0  0  0  0  0  0
   12.8288  -17.9383   23.4513 C   0  0  0  0  0  0  0  0  0  0  0  0
   13.8353  -17.2873   23.7903 O   0  0  0  0  0  0  0  0  0  0  0  0
   11.6645  -17.2587   22.8455 C   0  0  0  0  0  0  0  0  0  0  0  0
   10.5499  -17.0868   23.8248 C   0  0  2  0  0  0  0  0  0  0  0  0
    9.3967  -16.4005   23.3331 N   0  0  0  0  0  0  0  0  0  0  0  0
   11.0504  -16.5113   25.1045 C   0  0  0  0  0  0  0  0  0  0  0  0
   12.2260  -16.8258   25.4462 O   0  0  0  0  0  0  0  0  0  0  0  0
   10.2237  -15.6612   25.8714 N   0  0  0  0  0  0  0  0  0  0  0  0
    9.7975  -16.0507   27.2016 C   0  0  1  0  0  0  0  0  0  0  0  0
    8.3938  -16.6111   27.1836 C   0  0  0  0  0  0  0  0  0  0  0  0
    7.4902  -15.5749   26.6400 C   0  0  0  0  0  0  0  0  0  0  0  0
    6.3490  -15.8041   25.9002 C   0  0  0  0  0  0  0  0  0  0  0  0
    5.7974  -14.6016   25.5895 N   0  0  0  0  0  0  0  0  0  0  0  0
    6.5368  -13.6044   26.0989 C   0  0  0  0  0  0  0  0  0  0  0  0
    6.4580  -12.2329   26.0951 C   0  0  0  0  0  0  0  0  0  0  0  0
    7.3935  -11.4649   26.7196 C   0  0  0  0  0  0  0  0  0  0  0  0
    8.4373  -12.0650   27.3670 C   0  0  0  0  0  0  0  0  0  0  0  0
    8.5550  -13.4297   27.3962 C   0  0  0  0  0  0  0  0  0  0  0  0
    7.5902  -14.2060   26.7526 C   0  0  0  0  0  0  0  0  0  0  0  0
   10.7790  -17.0064   27.8079 C   0  0  0  0  0  0  0  0  0  0  0  0
   10.9506  -17.0220   29.0644 O   0  0  0  0  0  0  0  0  0  0  0  0
   11.5343  -17.9002   27.0753 O   0  0  0  0  0  0  0  0  0  0  0  0
  2  1  1  6
  2  3  1  0
  3  4  1  0
  4  8  1  0
  5  4  2  0
  5  6  1  0
  6  7  1  0
  8  7  2  0
  9  2  1  0
  9 10  2  0
 11 12  1  0
 12 14  1  0
 13 12  2  0
 15 14  1  6
 15 16  1  0
 16  9  1  0
 17 15  1  0
 18 17  2  0
 19 17  1  0
 20 19  1  0
 20 31  1  0
 20 21  1  6
 22 21  1  0
 23 22  2  0
 24 25  1  0
 24 23  1  0
 25 30  2  0
 26 25  1  0
 26 27  2  0
 27 28  1  0
 28 29  2  0
 30 22  1  0
 30 29  1  0
 31 33  1  0
 32 31  2  0
M  END
$$$$
