HNW.pdb
     RDKit          3D

 33 35  0  0  1  0  0  0  0  0999 V2000
    9.0986  -16.5536   18.9795 N   0  0  0  0  0  0  0  0  0  0  0  0
    9.3683  -15.6557   20.0841 C   0  0  1  0  0  0  0  0  0  0  0  0
    8.2519  -14.6116   20.0922 C   0  0  0  0  0  0  0  0  0  0  0  0
    8.2009  -14.0146   18.7357 C   0  0  0  0  0  0  0  0  0  0  0  0
    9.1211  -13.1328   18.2110 C   0  0  0  0  0  0  0  0  0  0  0  0
    8.7193  -12.8275   16.9629 N   0  0  0  0  0  0  0  0  0  0  0  0
    7.5876  -13.4819   16.6879 C   0  0  0  0  0  0  0  0  0  0  0  0
    7.2781  -14.2026   17.7714 N   0  0  0  0  0  0  0  0  0  0  0  0
    9.5210  -16.3305   21.3712 C   0  0  0  0  0  0  0  0  0  0  0  0
    8.5423  -16.4250   22.1470 O   0  0  0  0  0  0  0  0  0  0  0  0
   12.8931  -19.5933   20.7350 N   0  0  0  0  0  0  0  0  0  0  0  0
   12.0142  -19.5833   21.8500 C   0  0  0  0  0  0  0  0  0  0  0  0
   11.1139  -20.4419   21.9117 O   0  0  0  0  0  0  0  0  0  0  0  0
   12.1629  -18.5738   22.9193 C   0  0  0  0  0  0  0  0  0  0  0  0
   11.0035  -17.6330   22.9605 C   0  0  2  0  0  0  0  0  0  0  0  0
   10.7711  -16.8873   21.7636 N   0  0  0  0  0  0  0  0  0  0  0  0
   11.0672  -16.7631   24.1681 C   0  0  0  0  0  0  0  0  0  0  0  0
   11.7850  -15.7262   24.0828 O   0  0  0  0  0  0  0  0  0  0  0  0
   10.3485  -17.1122   25.3326 N   0  0  0  0  0  0  0  0  0  0  0  0
   10.5606  -16.3927   26.5735 C   0  0  1  0  0  0  0  0  0  0  0  0
   10.1400  -14.9465   26.4455 C   0  0  0  0  0  0  0  0  0  0  0  0
    8.6629  -14.8911   26.4763 C   0  0  0  0  0  0  0  0  0  0  0  0
    7.8090  -15.9521   26.2588 C   0  0  0  0  0  0  0  0  0  0  0  0
    6.5330  -15.4988   26.3740 N   0  0  0  0  0  0  0  0  0  0  0  0
    6.5283  -14.1871   26.6569 C   0  0  0  0  0  0  0  0  0  0  0  0
    5.5566  -13.2403   26.8725 C   0  0  0  0  0  0  0  0  0  0  0  0
    5.8743  -11.9443   27.1456 C   0  0  0  0  0  0  0  0  0  0  0  0
    7.1874  -11.5696   27.2084 C   0  0  0  0  0  0  0  0  0  0  0  0
    8.1890  -12.4810   27.0003 C   0  0  0  0  0  0  0  0  0  0  0  0
    7.8510  -13.8059   26.7212 C   0  0  0  0  0  0  0  0  0  0  0  0
    9.8656  -17.0843   27.7061 C   0  0  0  0  0  0  0  0  0  0  0  0
    9.9633  -16.6219   28.8830 O   0  0  0  0  0  0  0  0  0  0  0  0
    9.1019  -18.2249   27.5575 O   0  0  0  0  0  0  0  0  0  0  0  0
  2  1  1  6
  2  3  1  0
  3  4  1  0
  4  8  1  0
  5  4  2  0
  5  6  1  0
  6  7  1  0
  8  7  2  0
  9  2  1  0
  9 10  2  0
 11 12  1  0
 12 14  1  0
 13 12  2  0
 15 14  1  6
 15 16  1  0
 16  9  1  0
 17 15  1  0
 18 17  2  0
 19 17  1  0
 20 19  1  0
 20 31  1  0
 20 21  1  6
 22 21  1  0
 23 22  2  0
 24 25  1  0
 24 23  1  0
 25 30  2  0
 26 25  1  0
 26 27  2  0
 27 28  1  0
 28 29  2  0
 30 22  1  0
 30 29  1  0
 31 33  1  0
 32 31  2  0
M  END
$$$$
