HNW.pdb
     RDKit          3D

 33 35  0  0  1  0  0  0  0  0999 V2000
    8.6443  -16.8518   19.1001 N   0  0  0  0  0  0  0  0  0  0  0  0
    8.8553  -15.9479   20.2126 C   0  0  1  0  0  0  0  0  0  0  0  0
    7.7047  -14.9418   20.1936 C   0  0  0  0  0  0  0  0  0  0  0  0
    7.8108  -14.1791   18.9263 C   0  0  0  0  0  0  0  0  0  0  0  0
    8.4537  -12.9702   18.7677 C   0  0  0  0  0  0  0  0  0  0  0  0
    8.3235  -12.6118   17.4766 N   0  0  0  0  0  0  0  0  0  0  0  0
    7.6265  -13.5464   16.8242 C   0  0  0  0  0  0  0  0  0  0  0  0
    7.3180  -14.4973   17.7128 N   0  0  0  0  0  0  0  0  0  0  0  0
    8.9977  -16.6201   21.5022 C   0  0  0  0  0  0  0  0  0  0  0  0
    7.9913  -17.1051   22.0684 O   0  0  0  0  0  0  0  0  0  0  0  0
   10.4339  -19.7338   21.6373 N   0  0  0  0  0  0  0  0  0  0  0  0
   11.6690  -19.4648   22.2840 C   0  0  0  0  0  0  0  0  0  0  0  0
   12.6477  -20.1941   22.0349 O   0  0  0  0  0  0  0  0  0  0  0  0
   11.7937  -18.3407   23.2354 C   0  0  0  0  0  0  0  0  0  0  0  0
   10.5463  -17.5212   23.2939 C   0  0  2  0  0  0  0  0  0  0  0  0
   10.2689  -16.7356   22.1326 N   0  0  0  0  0  0  0  0  0  0  0  0
   10.4957  -16.7184   24.5478 C   0  0  0  0  0  0  0  0  0  0  0  0
   11.1127  -15.6153   24.5401 O   0  0  0  0  0  0  0  0  0  0  0  0
    9.7845  -17.1987   25.6693 N   0  0  0  0  0  0  0  0  0  0  0  0
    9.7575  -16.4408   26.9053 C   0  0  1  0  0  0  0  0  0  0  0  0
    8.3736  -16.4357   27.5132 C   0  0  0  0  0  0  0  0  0  0  0  0
    7.4702  -15.7065   26.5978 C   0  0  0  0  0  0  0  0  0  0  0  0
    6.5570  -16.2787   25.7370 C   0  0  0  0  0  0  0  0  0  0  0  0
    5.9207  -15.2801   25.0701 N   0  0  0  0  0  0  0  0  0  0  0  0
    6.3867  -14.0853   25.4654 C   0  0  0  0  0  0  0  0  0  0  0  0
    6.1183  -12.7782   25.1388 C   0  0  0  0  0  0  0  0  0  0  0  0
    6.7814  -11.7465   25.7311 C   0  0  0  0  0  0  0  0  0  0  0  0
    7.7368  -12.0095   26.6727 C   0  0  0  0  0  0  0  0  0  0  0  0
    8.0364  -13.2981   27.0291 C   0  0  0  0  0  0  0  0  0  0  0  0
    7.3502  -14.3468   26.4152 C   0  0  0  0  0  0  0  0  0  0  0  0
   10.7910  -16.9564   27.8593 C   0  0  0  0  0  0  0  0  0  0  0  0
   11.4342  -18.0136   27.5819 O   0  0  0  0  0  0  0  0  0  0  0  0
   11.1045  -16.3450   29.0569 O   0  0  0  0  0  0  0  0  0  0  0  0
  2  1  1  6
  2  3  1  0
  3  4  1  0
  4  8  1  0
  5  4  2  0
  5  6  1  0
  6  7  1  0
  8  7  2  0
  9  2  1  0
  9 10  2  0
 11 12  1  0
 12 14  1  0
 13 12  2  0
 15 14  1  6
 15 16  1  0
 16  9  1  0
 17 15  1  0
 18 17  2  0
 19 17  1  0
 20 19  1  0
 20 31  1  0
 20 21  1  1
 22 21  1  0
 23 22  2  0
 24 25  1  0
 24 23  1  0
 25 30  2  0
 26 25  1  0
 26 27  2  0
 27 28  1  0
 28 29  2  0
 30 22  1  0
 30 29  1  0
 31 33  1  0
 32 31  2  0
M  END
$$$$
