HNW.pdb
     RDKit          3D

 33 35  0  0  1  0  0  0  0  0999 V2000
   11.4026  -18.9800   20.1254 N   0  0  0  0  0  0  0  0  0  0  0  0
   11.8975  -17.6694   19.7560 C   0  0  1  0  0  0  0  0  0  0  0  0
   12.3716  -17.7647   18.3059 C   0  0  0  0  0  0  0  0  0  0  0  0
   13.5002  -18.7262   18.2765 C   0  0  0  0  0  0  0  0  0  0  0  0
   14.8103  -18.4370   18.5924 C   0  0  0  0  0  0  0  0  0  0  0  0
   15.5203  -19.5707   18.4408 N   0  0  0  0  0  0  0  0  0  0  0  0
   14.7077  -20.5541   18.0438 C   0  0  0  0  0  0  0  0  0  0  0  0
   13.4797  -20.0327   17.9460 N   0  0  0  0  0  0  0  0  0  0  0  0
   10.9330  -16.5920   19.9661 C   0  0  0  0  0  0  0  0  0  0  0  0
   10.3849  -16.0436   18.9824 O   0  0  0  0  0  0  0  0  0  0  0  0
    6.6830  -15.1738   22.3964 N   0  0  0  0  0  0  0  0  0  0  0  0
    6.8904  -16.4423   21.7930 C   0  0  0  0  0  0  0  0  0  0  0  0
    5.9011  -17.1579   21.5464 O   0  0  0  0  0  0  0  0  0  0  0  0
    8.2539  -16.9070   21.4625 C   0  0  0  0  0  0  0  0  0  0  0  0
    9.2812  -15.8595   21.7424 C   0  0  2  0  0  0  0  0  0  0  0  0
   10.6013  -16.1501   21.2781 N   0  0  0  0  0  0  0  0  0  0  0  0
    9.2588  -15.4629   23.1782 C   0  0  0  0  0  0  0  0  0  0  0  0
    9.2996  -14.2239   23.4249 O   0  0  0  0  0  0  0  0  0  0  0  0
    9.1956  -16.4502   24.1860 N   0  0  0  0  0  0  0  0  0  0  0  0
    9.7080  -16.1807   25.5154 C   0  0  1  0  0  0  0  0  0  0  0  0
    8.6326  -16.3599   26.5624 C   0  0  0  0  0  0  0  0  0  0  0  0
    7.5144  -15.4495   26.2358 C   0  0  0  0  0  0  0  0  0  0  0  0
    6.2798  -15.8265   25.7505 C   0  0  0  0  0  0  0  0  0  0  0  0
    5.5317  -14.7049   25.5796 N   0  0  0  0  0  0  0  0  0  0  0  0
    6.2339  -13.6180   25.9350 C   0  0  0  0  0  0  0  0  0  0  0  0
    5.9884  -12.2667   25.9666 C   0  0  0  0  0  0  0  0  0  0  0  0
    6.9332  -11.3818   26.3899 C   0  0  0  0  0  0  0  0  0  0  0  0
    8.1557  -11.8409   26.7943 C   0  0  0  0  0  0  0  0  0  0  0  0
    8.4434  -13.1804   26.7794 C   0  0  0  0  0  0  0  0  0  0  0  0
    7.4672  -14.0773   26.3435 C   0  0  0  0  0  0  0  0  0  0  0  0
   10.9133  -17.0256   25.7941 C   0  0  0  0  0  0  0  0  0  0  0  0
   11.2489  -17.9353   24.9767 O   0  0  0  0  0  0  0  0  0  0  0  0
   11.7111  -16.8815   26.9117 O   0  0  0  0  0  0  0  0  0  0  0  0
  2  1  1  6
  2  3  1  0
  3  4  1  0
  4  8  1  0
  5  4  2  0
  5  6  1  0
  6  7  1  0
  8  7  2  0
  9  2  1  0
  9 10  2  0
 11 12  1  0
 12 14  1  0
 13 12  2  0
 15 14  1  1
 15 16  1  0
 16  9  1  0
 17 15  1  0
 18 17  2  0
 19 17  1  0
 20 19  1  0
 20 31  1  0
 20 21  1  1
 22 21  1  0
 23 22  2  0
 24 25  1  0
 24 23  1  0
 25 30  2  0
 26 25  1  0
 26 27  2  0
 27 28  1  0
 28 29  2  0
 30 22  1  0
 30 29  1  0
 31 33  1  0
 32 31  2  0
M  END
$$$$
