HNW.pdb
     RDKit          3D

 33 35  0  0  1  0  0  0  0  0999 V2000
    7.6923  -17.1677   20.5388 N   0  0  0  0  0  0  0  0  0  0  0  0
    8.6000  -16.3381   21.3050 C   0  0  1  0  0  0  0  0  0  0  0  0
    7.8523  -15.0461   21.6339 C   0  0  0  0  0  0  0  0  0  0  0  0
    7.9052  -14.1895   20.4245 C   0  0  0  0  0  0  0  0  0  0  0  0
    8.5097  -14.5212   19.2311 C   0  0  0  0  0  0  0  0  0  0  0  0
    8.3396  -13.4825   18.3917 N   0  0  0  0  0  0  0  0  0  0  0  0
    7.6545  -12.5177   19.0120 C   0  0  0  0  0  0  0  0  0  0  0  0
    7.3934  -12.9550   20.2488 N   0  0  0  0  0  0  0  0  0  0  0  0
    9.1430  -16.9952   22.4918 C   0  0  0  0  0  0  0  0  0  0  0  0
    8.4840  -17.8925   23.0657 O   0  0  0  0  0  0  0  0  0  0  0  0
   12.4788  -15.6346   22.4434 N   0  0  0  0  0  0  0  0  0  0  0  0
   13.1697  -16.5920   23.2321 C   0  0  0  0  0  0  0  0  0  0  0  0
   14.4069  -16.6821   23.1185 O   0  0  0  0  0  0  0  0  0  0  0  0
   12.4368  -17.4664   24.1715 C   0  0  0  0  0  0  0  0  0  0  0  0
   10.9834  -17.1264   24.2284 C   0  0  2  0  0  0  0  0  0  0  0  0
   10.4172  -16.6323   23.0127 N   0  0  0  0  0  0  0  0  0  0  0  0
   10.6889  -16.2438   25.3918 C   0  0  0  0  0  0  0  0  0  0  0  0
   11.0257  -15.0304   25.2825 O   0  0  0  0  0  0  0  0  0  0  0  0
   10.0643  -16.7722   26.5429 N   0  0  0  0  0  0  0  0  0  0  0  0
   10.1143  -16.0568   27.8031 C   0  0  1  0  0  0  0  0  0  0  0  0
    8.7409  -15.9482   28.4250 C   0  0  0  0  0  0  0  0  0  0  0  0
    7.8386  -15.3106   27.4426 C   0  0  0  0  0  0  0  0  0  0  0  0
    7.0167  -15.9696   26.5525 C   0  0  0  0  0  0  0  0  0  0  0  0
    6.3478  -15.0374   25.8243 N   0  0  0  0  0  0  0  0  0  0  0  0
    6.7050  -13.8021   26.2081 C   0  0  0  0  0  0  0  0  0  0  0  0
    6.3620  -12.5269   25.8297 C   0  0  0  0  0  0  0  0  0  0  0  0
    6.9166  -11.4347   26.4252 C   0  0  0  0  0  0  0  0  0  0  0  0
    7.8360  -11.6032   27.4227 C   0  0  0  0  0  0  0  0  0  0  0  0
    8.2071  -12.8570   27.8320 C   0  0  0  0  0  0  0  0  0  0  0  0
    7.6319  -13.9683   27.2142 C   0  0  0  0  0  0  0  0  0  0  0  0
   11.1043  -16.6944   28.7292 C   0  0  0  0  0  0  0  0  0  0  0  0
   11.3259  -16.1801   29.8671 O   0  0  0  0  0  0  0  0  0  0  0  0
   11.8157  -17.8378   28.4247 O   0  0  0  0  0  0  0  0  0  0  0  0
  2  1  1  1
  2  3  1  0
  3  4  1  0
  4  8  1  0
  5  4  2  0
  5  6  1  0
  6  7  1  0
  8  7  2  0
  9  2  1  0
  9 10  2  0
 11 12  1  0
 12 14  1  0
 13 12  2  0
 15 14  1  6
 15 16  1  0
 16  9  1  0
 17 15  1  0
 18 17  2  0
 19 17  1  0
 20 19  1  0
 20 31  1  0
 20 21  1  1
 22 21  1  0
 23 22  2  0
 24 25  1  0
 24 23  1  0
 25 30  2  0
 26 25  1  0
 26 27  2  0
 27 28  1  0
 28 29  2  0
 30 22  1  0
 30 29  1  0
 31 33  1  0
 32 31  2  0
M  END
$$$$
