HNW.pdb
     RDKit          3D

 33 35  0  0  1  0  0  0  0  0999 V2000
   10.3822  -19.4146   17.6075 N   0  0  0  0  0  0  0  0  0  0  0  0
   10.9110  -18.6025   18.6846 C   0  0  1  0  0  0  0  0  0  0  0  0
   11.0868  -17.1885   18.1313 C   0  0  0  0  0  0  0  0  0  0  0  0
   12.2733  -17.2106   17.2420 C   0  0  0  0  0  0  0  0  0  0  0  0
   13.5521  -16.8408   17.5995 C   0  0  0  0  0  0  0  0  0  0  0  0
   14.3350  -17.0024   16.5163 N   0  0  0  0  0  0  0  0  0  0  0  0
   13.5980  -17.4573   15.4992 C   0  0  0  0  0  0  0  0  0  0  0  0
   12.3441  -17.5818   15.9482 N   0  0  0  0  0  0  0  0  0  0  0  0
   10.1043  -18.6372   19.9024 C   0  0  0  0  0  0  0  0  0  0  0  0
    8.8834  -18.3625   19.8511 O   0  0  0  0  0  0  0  0  0  0  0  0
    9.7972  -20.8522   25.4850 N   0  0  0  0  0  0  0  0  0  0  0  0
    9.1684  -20.3916   24.2983 C   0  0  0  0  0  0  0  0  0  0  0  0
    7.9995  -19.9662   24.3654 O   0  0  0  0  0  0  0  0  0  0  0  0
    9.8854  -20.4151   23.0061 C   0  0  0  0  0  0  0  0  0  0  0  0
    9.9808  -19.0538   22.3987 C   0  0  2  0  0  0  0  0  0  0  0  0
   10.6840  -18.9802   21.1567 N   0  0  0  0  0  0  0  0  0  0  0  0
   10.4783  -18.0617   23.3925 C   0  0  0  0  0  0  0  0  0  0  0  0
   11.6680  -17.6605   23.2464 O   0  0  0  0  0  0  0  0  0  0  0  0
    9.6342  -17.6155   24.4330 N   0  0  0  0  0  0  0  0  0  0  0  0
   10.1101  -16.6524   25.4069 C   0  0  1  0  0  0  0  0  0  0  0  0
    9.8142  -15.2372   24.9660 C   0  0  0  0  0  0  0  0  0  0  0  0
    8.4176  -14.9217   25.3344 C   0  0  0  0  0  0  0  0  0  0  0  0
    7.3597  -15.8066   25.3279 C   0  0  0  0  0  0  0  0  0  0  0  0
    6.2464  -15.1382   25.7289 N   0  0  0  0  0  0  0  0  0  0  0  0
    6.5427  -13.8565   25.9939 C   0  0  0  0  0  0  0  0  0  0  0  0
    5.8324  -12.7600   26.4185 C   0  0  0  0  0  0  0  0  0  0  0  0
    6.4321  -11.5507   26.6001 C   0  0  0  0  0  0  0  0  0  0  0  0
    7.7706  -11.4172   26.3566 C   0  0  0  0  0  0  0  0  0  0  0  0
    8.5176  -12.4845   25.9322 C   0  0  0  0  0  0  0  0  0  0  0  0
    7.8919  -13.7184   25.7497 C   0  0  0  0  0  0  0  0  0  0  0  0
    9.5432  -16.9518   26.7609 C   0  0  0  0  0  0  0  0  0  0  0  0
    8.6253  -17.8184   26.8830 O   0  0  0  0  0  0  0  0  0  0  0  0
    9.9606  -16.3336   27.9227 O   0  0  0  0  0  0  0  0  0  0  0  0
  2  1  1  6
  2  3  1  0
  3  4  1  0
  4  8  1  0
  5  4  2  0
  5  6  1  0
  6  7  1  0
  8  7  2  0
  9  2  1  0
  9 10  2  0
 11 12  1  0
 12 14  1  0
 13 12  2  0
 15 14  1  1
 15 16  1  0
 16  9  1  0
 17 15  1  0
 18 17  2  0
 19 17  1  0
 20 19  1  0
 20 31  1  0
 20 21  1  6
 22 21  1  0
 23 22  2  0
 24 25  1  0
 24 23  1  0
 25 30  2  0
 26 25  1  0
 26 27  2  0
 27 28  1  0
 28 29  2  0
 30 22  1  0
 30 29  1  0
 31 33  1  0
 32 31  2  0
M  END
$$$$
