HNW.pdb
     RDKit          3D

 33 35  0  0  1  0  0  0  0  0999 V2000
    9.2857  -16.7751   19.3211 N   0  0  0  0  0  0  0  0  0  0  0  0
    9.1634  -16.0578   20.5740 C   0  0  1  0  0  0  0  0  0  0  0  0
    7.7806  -15.4064   20.5812 C   0  0  0  0  0  0  0  0  0  0  0  0
    7.8020  -14.3223   19.5695 C   0  0  0  0  0  0  0  0  0  0  0  0
    8.8687  -14.0023   18.7576 C   0  0  0  0  0  0  0  0  0  0  0  0
    8.4901  -12.9662   17.9858 N   0  0  0  0  0  0  0  0  0  0  0  0
    7.2324  -12.6274   18.2828 C   0  0  0  0  0  0  0  0  0  0  0  0
    6.8199  -13.4572   19.2474 N   0  0  0  0  0  0  0  0  0  0  0  0
    9.4056  -16.8840   21.7547 C   0  0  0  0  0  0  0  0  0  0  0  0
    8.5964  -17.7900   22.0599 O   0  0  0  0  0  0  0  0  0  0  0  0
   12.3391  -19.8833   21.9513 N   0  0  0  0  0  0  0  0  0  0  0  0
   12.1038  -19.5150   23.3022 C   0  0  0  0  0  0  0  0  0  0  0  0
   11.8067  -20.4037   24.1230 O   0  0  0  0  0  0  0  0  0  0  0  0
   12.2091  -18.1039   23.7291 C   0  0  0  0  0  0  0  0  0  0  0  0
   10.8777  -17.4271   23.7442 C   0  0  2  0  0  0  0  0  0  0  0  0
   10.5532  -16.6774   22.5715 N   0  0  0  0  0  0  0  0  0  0  0  0
   10.6983  -16.6342   24.9926 C   0  0  0  0  0  0  0  0  0  0  0  0
   11.2736  -15.5097   25.0377 O   0  0  0  0  0  0  0  0  0  0  0  0
    9.9178  -17.1464   26.0523 N   0  0  0  0  0  0  0  0  0  0  0  0
    9.8607  -16.4565   27.3264 C   0  0  1  0  0  0  0  0  0  0  0  0
    8.4340  -16.3036   27.8017 C   0  0  0  0  0  0  0  0  0  0  0  0
    7.6827  -15.5536   26.7726 C   0  0  0  0  0  0  0  0  0  0  0  0
    6.9223  -16.1060   25.7633 C   0  0  0  0  0  0  0  0  0  0  0  0
    6.3932  -15.0922   25.0289 N   0  0  0  0  0  0  0  0  0  0  0  0
    6.7819  -13.9068   25.5233 C   0  0  0  0  0  0  0  0  0  0  0  0
    6.5597  -12.5924   25.1911 C   0  0  0  0  0  0  0  0  0  0  0  0
    7.1129  -11.5745   25.9071 C   0  0  0  0  0  0  0  0  0  0  0  0
    7.9081  -11.8590   26.9820 C   0  0  0  0  0  0  0  0  0  0  0  0
    8.1562  -13.1555   27.3491 C   0  0  0  0  0  0  0  0  0  0  0  0
    7.5838  -14.1900   26.6076 C   0  0  0  0  0  0  0  0  0  0  0  0
   10.7210  -17.1505   28.3376 C   0  0  0  0  0  0  0  0  0  0  0  0
   10.8208  -16.6793   29.5108 O   0  0  0  0  0  0  0  0  0  0  0  0
   11.4360  -18.3026   28.0772 O   0  0  0  0  0  0  0  0  0  0  0  0
  2  1  1  6
  2  3  1  0
  3  4  1  0
  4  8  1  0
  5  4  2  0
  5  6  1  0
  6  7  1  0
  8  7  2  0
  9  2  1  0
  9 10  2  0
 11 12  1  0
 12 14  1  0
 13 12  2  0
 15 14  1  6
 15 16  1  0
 16  9  1  0
 17 15  1  0
 18 17  2  0
 19 17  1  0
 20 19  1  0
 20 31  1  0
 20 21  1  1
 22 21  1  0
 23 22  2  0
 24 25  1  0
 24 23  1  0
 25 30  2  0
 26 25  1  0
 26 27  2  0
 27 28  1  0
 28 29  2  0
 30 22  1  0
 30 29  1  0
 31 33  1  0
 32 31  2  0
M  END
$$$$
