NQV.pdb
     RDKit          3D

 25 24  0  0  1  0  0  0  0  0999 V2000
    9.3213  -14.5289   17.2828 N   0  0  0  0  0  0  0  0  0  0  0  0
    8.1258  -13.8362   17.5695 C   0  0  0  0  0  0  0  0  0  0  0  0
    7.5301  -13.2305   16.6464 O   0  0  0  0  0  0  0  0  0  0  0  0
    7.5848  -13.8285   18.9530 C   0  0  0  0  0  0  0  0  0  0  0  0
    8.4618  -14.6099   19.8972 C   0  0  2  0  0  0  0  0  0  0  0  0
    8.7577  -15.9444   19.4714 N   0  0  0  0  0  0  0  0  0  0  0  0
    7.8394  -14.5792   21.2503 C   0  0  0  0  0  0  0  0  0  0  0  0
    7.3386  -13.5568   21.7479 O   0  0  0  0  0  0  0  0  0  0  0  0
    6.3949  -19.8654   24.2668 N   0  0  0  0  0  0  0  0  0  0  0  0
    5.7302  -19.3837   23.1034 C   0  0  0  0  0  0  0  0  0  0  0  0
    4.9810  -20.1353   22.4451 O   0  0  0  0  0  0  0  0  0  0  0  0
    5.9855  -17.9489   22.7324 C   0  0  0  0  0  0  0  0  0  0  0  0
    6.9372  -17.3023   23.6851 C   0  0  0  0  0  0  0  0  0  0  0  0
    7.2220  -15.8967   23.3097 C   0  0  2  0  0  0  0  0  0  0  0  0
    7.8287  -15.7856   21.9895 N   0  0  0  0  0  0  0  0  0  0  0  0
    8.0699  -15.1481   24.2562 C   0  0  0  0  0  0  0  0  0  0  0  0
    9.3280  -15.2029   24.3166 O   0  0  0  0  0  0  0  0  0  0  0  0
    6.1406  -12.7088   27.2232 C   0  0  0  0  0  0  0  0  0  0  0  0
    7.5077  -12.3412   26.6907 C   0  0  2  0  0  0  0  0  0  0  0  0
    7.3638  -11.3593   25.5585 C   0  0  0  0  0  0  0  0  0  0  0  0
    8.2606  -13.5881   26.2256 C   0  0  2  0  0  0  0  0  0  0  0  0
    7.4653  -14.2648   25.2172 N   0  0  0  0  0  0  0  0  0  0  0  0
    8.4012  -14.4663   27.4409 C   0  0  0  0  0  0  0  0  0  0  0  0
    9.3173  -14.2236   28.4192 O   0  0  0  0  0  0  0  0  0  0  0  0
    7.6396  -15.4608   27.5495 O   0  0  0  0  0  0  0  0  0  0  0  0
  2  1  1  0
  2  3  2  0
  4  2  1  0
  5  7  1  0
  5  4  1  0
  5  6  1  6
  7  8  2  0
  9 10  1  0
 10 11  2  0
 12 10  1  0
 12 13  1  0
 14 13  1  1
 15 14  1  0
 15  7  1  0
 16 17  2  0
 16 14  1  0
 19 18  1  6
 19 21  1  0
 20 19  1  0
 21 22  1  6
 22 16  1  0
 23 21  1  0
 23 24  1  0
 25 23  2  0
M  END
$$$$
