NQV.pdb
     RDKit          3D

 25 24  0  0  1  0  0  0  0  0999 V2000
    7.7215  -12.6274   16.9044 N   0  0  0  0  0  0  0  0  0  0  0  0
    8.1772  -13.6328   17.7835 C   0  0  0  0  0  0  0  0  0  0  0  0
    9.0115  -14.4753   17.3737 O   0  0  0  0  0  0  0  0  0  0  0  0
    7.6691  -13.6867   19.1785 C   0  0  0  0  0  0  0  0  0  0  0  0
    8.4204  -14.6985   20.0049 C   0  0  2  0  0  0  0  0  0  0  0  0
    8.3873  -16.0338   19.4896 N   0  0  0  0  0  0  0  0  0  0  0  0
    7.9187  -14.6264   21.4057 C   0  0  0  0  0  0  0  0  0  0  0  0
    7.6325  -13.5592   21.9739 O   0  0  0  0  0  0  0  0  0  0  0  0
    6.4119  -19.3214   25.5497 N   0  0  0  0  0  0  0  0  0  0  0  0
    7.7652  -19.1678   25.1347 C   0  0  0  0  0  0  0  0  0  0  0  0
    8.6636  -19.8824   25.6265 O   0  0  0  0  0  0  0  0  0  0  0  0
    8.0307  -18.1156   24.0936 C   0  0  0  0  0  0  0  0  0  0  0  0
    6.7972  -17.3310   23.7870 C   0  0  0  0  0  0  0  0  0  0  0  0
    7.1140  -15.9338   23.4060 C   0  0  2  0  0  0  0  0  0  0  0  0
    7.7677  -15.8462   22.1066 N   0  0  0  0  0  0  0  0  0  0  0  0
    7.9387  -15.1854   24.3731 C   0  0  0  0  0  0  0  0  0  0  0  0
    9.1987  -15.1784   24.4130 O   0  0  0  0  0  0  0  0  0  0  0  0
    5.9259  -12.8218   27.3177 C   0  0  0  0  0  0  0  0  0  0  0  0
    7.2415  -12.3640   26.7284 C   0  0  2  0  0  0  0  0  0  0  0  0
    6.9832  -11.4504   25.5599 C   0  0  0  0  0  0  0  0  0  0  0  0
    8.0864  -13.5623   26.2945 C   0  0  2  0  0  0  0  0  0  0  0  0
    7.3062  -14.3777   25.3815 N   0  0  0  0  0  0  0  0  0  0  0  0
    8.3813  -14.3395   27.5504 C   0  0  0  0  0  0  0  0  0  0  0  0
    9.3080  -13.9347   28.4627 O   0  0  0  0  0  0  0  0  0  0  0  0
    7.7430  -15.4027   27.7575 O   0  0  0  0  0  0  0  0  0  0  0  0
  2  1  1  0
  2  3  2  0
  4  2  1  0
  5  7  1  0
  5  4  1  0
  5  6  1  6
  7  8  2  0
  9 10  1  0
 10 11  2  0
 12 10  1  0
 12 13  1  0
 14 13  1  1
 15 14  1  0
 15  7  1  0
 16 17  2  0
 16 14  1  0
 19 18  1  6
 19 21  1  0
 20 19  1  0
 21 22  1  6
 22 16  1  0
 23 21  1  0
 23 24  1  0
 25 23  2  0
M  END
$$$$
