NQV.pdb
     RDKit          3D

 25 24  0  0  1  0  0  0  0  0999 V2000
    9.2033  -14.0397   16.9407 N   0  0  0  0  0  0  0  0  0  0  0  0
    7.8420  -13.8597   17.2659 C   0  0  0  0  0  0  0  0  0  0  0  0
    6.9810  -13.9081   16.3547 O   0  0  0  0  0  0  0  0  0  0  0  0
    7.4404  -13.6153   18.6751 C   0  0  0  0  0  0  0  0  0  0  0  0
    8.6286  -13.6295   19.6021 C   0  0  2  0  0  0  0  0  0  0  0  0
    9.8007  -14.2489   19.0616 N   0  0  0  0  0  0  0  0  0  0  0  0
    8.2115  -14.2494   20.8908 C   0  0  0  0  0  0  0  0  0  0  0  0
    7.1620  -13.9493   21.4842 O   0  0  0  0  0  0  0  0  0  0  0  0
   10.8294  -19.4973   23.1901 N   0  0  0  0  0  0  0  0  0  0  0  0
    9.9884  -19.1413   24.2824 C   0  0  0  0  0  0  0  0  0  0  0  0
    9.9262  -19.8672   25.2967 O   0  0  0  0  0  0  0  0  0  0  0  0
    9.2025  -17.8678   24.1348 C   0  0  0  0  0  0  0  0  0  0  0  0
    9.5107  -17.1858   22.8421 C   0  0  0  0  0  0  0  0  0  0  0  0
    8.7772  -15.9045   22.7071 C   0  0  2  0  0  0  0  0  0  0  0  0
    9.0679  -15.2270   21.4501 N   0  0  0  0  0  0  0  0  0  0  0  0
    8.9907  -14.9349   23.7977 C   0  0  0  0  0  0  0  0  0  0  0  0
   10.0649  -14.3180   24.0320 O   0  0  0  0  0  0  0  0  0  0  0  0
    6.1481  -12.3420   24.8400 C   0  0  0  0  0  0  0  0  0  0  0  0
    6.7148  -13.0228   26.0659 C   0  0  2  0  0  0  0  0  0  0  0  0
    6.8288  -12.0288   27.1910 C   0  0  0  0  0  0  0  0  0  0  0  0
    8.0784  -13.6427   25.7590 C   0  0  2  0  0  0  0  0  0  0  0  0
    7.9172  -14.6274   24.7046 N   0  0  0  0  0  0  0  0  0  0  0  0
    8.5223  -14.3203   27.0286 C   0  0  0  0  0  0  0  0  0  0  0  0
    8.4747  -15.6714   27.1941 O   0  0  0  0  0  0  0  0  0  0  0  0
    8.9520  -13.6039   27.9682 O   0  0  0  0  0  0  0  0  0  0  0  0
  2  1  1  0
  2  3  2  0
  4  2  1  0
  5  7  1  0
  5  4  1  0
  5  6  1  6
  7  8  2  0
  9 10  1  0
 10 11  2  0
 12 10  1  0
 12 13  1  0
 14 13  1  1
 15 14  1  0
 15  7  1  0
 16 17  2  0
 16 14  1  0
 19 18  1  6
 19 21  1  0
 20 19  1  0
 21 22  1  6
 22 16  1  0
 23 21  1  0
 23 24  1  0
 25 23  2  0
M  END
$$$$
