NQV.pdb
     RDKit          3D

 25 24  0  0  1  0  0  0  0  0999 V2000
    5.7918  -18.3229   17.2905 N   0  0  0  0  0  0  0  0  0  0  0  0
    7.0904  -17.9591   17.7060 C   0  0  0  0  0  0  0  0  0  0  0  0
    7.8308  -17.3208   16.9197 O   0  0  0  0  0  0  0  0  0  0  0  0
    7.5688  -18.3320   19.0621 C   0  0  0  0  0  0  0  0  0  0  0  0
    7.6199  -17.1387   19.9812 C   0  0  2  0  0  0  0  0  0  0  0  0
    8.1383  -15.9458   19.3830 N   0  0  0  0  0  0  0  0  0  0  0  0
    8.3727  -17.5227   21.2079 C   0  0  0  0  0  0  0  0  0  0  0  0
    8.0298  -18.4538   21.9555 O   0  0  0  0  0  0  0  0  0  0  0  0
   14.4615  -17.0503   21.4998 N   0  0  0  0  0  0  0  0  0  0  0  0
   14.2250  -17.3942   22.8611 C   0  0  0  0  0  0  0  0  0  0  0  0
   15.1802  -17.6335   23.6291 O   0  0  0  0  0  0  0  0  0  0  0  0
   12.7870  -17.4484   23.2977 C   0  0  0  0  0  0  0  0  0  0  0  0
   11.8641  -17.1168   22.1709 C   0  0  0  0  0  0  0  0  0  0  0  0
   10.4440  -17.1459   22.5956 C   0  0  2  0  0  0  0  0  0  0  0  0
    9.5339  -16.7766   21.5192 N   0  0  0  0  0  0  0  0  0  0  0  0
   10.1160  -16.3100   23.7655 C   0  0  0  0  0  0  0  0  0  0  0  0
   10.7656  -16.2706   24.8452 O   0  0  0  0  0  0  0  0  0  0  0  0
    7.7428  -12.8941   23.2954 C   0  0  0  0  0  0  0  0  0  0  0  0
    7.4059  -13.7554   24.4921 C   0  0  2  0  0  0  0  0  0  0  0  0
    7.0022  -12.8805   25.6491 C   0  0  0  0  0  0  0  0  0  0  0  0
    8.5948  -14.6367   24.8766 C   0  0  2  0  0  0  0  0  0  0  0  0
    8.9666  -15.4457   23.7301 N   0  0  0  0  0  0  0  0  0  0  0  0
    8.1108  -15.5235   25.9935 C   0  0  0  0  0  0  0  0  0  0  0  0
    8.3283  -15.2341   27.3065 O   0  0  0  0  0  0  0  0  0  0  0  0
    7.4824  -16.5705   25.6940 O   0  0  0  0  0  0  0  0  0  0  0  0
  2  1  1  0
  2  3  2  0
  4  2  1  0
  5  7  1  0
  5  4  1  0
  5  6  1  6
  7  8  2  0
  9 10  1  0
 10 11  2  0
 12 10  1  0
 12 13  1  0
 14 13  1  6
 15 14  1  0
 15  7  1  0
 16 17  2  0
 16 14  1  0
 19 18  1  6
 19 21  1  0
 20 19  1  0
 21 22  1  6
 22 16  1  0
 23 21  1  0
 23 24  1  0
 25 23  2  0
M  END
$$$$
