NQV.pdb
     RDKit          3D

 25 24  0  0  1  0  0  0  0  0999 V2000
    8.3277  -15.4150   16.1698 N   0  0  0  0  0  0  0  0  0  0  0  0
    8.0395  -14.1801   16.7888 C   0  0  0  0  0  0  0  0  0  0  0  0
    8.4183  -13.1159   16.2429 O   0  0  0  0  0  0  0  0  0  0  0  0
    7.2949  -14.1486   18.0740 C   0  0  0  0  0  0  0  0  0  0  0  0
    8.1507  -13.6267   19.1994 C   0  0  2  0  0  0  0  0  0  0  0  0
    9.5584  -13.6496   18.9396 N   0  0  0  0  0  0  0  0  0  0  0  0
    7.7985  -14.3706   20.4410 C   0  0  0  0  0  0  0  0  0  0  0  0
    6.6344  -14.4884   20.8589 O   0  0  0  0  0  0  0  0  0  0  0  0
   11.1033  -19.0606   22.5915 N   0  0  0  0  0  0  0  0  0  0  0  0
   10.1316  -19.0843   21.5511 C   0  0  0  0  0  0  0  0  0  0  0  0
   10.1024  -20.0275   20.7331 O   0  0  0  0  0  0  0  0  0  0  0  0
    9.1707  -17.9285   21.5062 C   0  0  0  0  0  0  0  0  0  0  0  0
    9.5238  -16.8885   22.5185 C   0  0  0  0  0  0  0  0  0  0  0  0
    8.6503  -15.6955   22.4101 C   0  0  2  0  0  0  0  0  0  0  0  0
    8.8579  -14.9655   21.1662 N   0  0  0  0  0  0  0  0  0  0  0  0
    8.7577  -14.7294   23.5192 C   0  0  0  0  0  0  0  0  0  0  0  0
    9.0585  -13.5105   23.4047 O   0  0  0  0  0  0  0  0  0  0  0  0
    7.3187  -12.5021   24.5382 C   0  0  0  0  0  0  0  0  0  0  0  0
    7.2264  -13.3259   25.8032 C   0  0  2  0  0  0  0  0  0  0  0  0
    7.0674  -12.4147   26.9912 C   0  0  0  0  0  0  0  0  0  0  0  0
    8.4649  -14.2075   25.9667 C   0  0  2  0  0  0  0  0  0  0  0  0
    8.5100  -15.1575   24.8701 N   0  0  0  0  0  0  0  0  0  0  0  0
    8.2851  -14.9392   27.2707 C   0  0  0  0  0  0  0  0  0  0  0  0
    8.9514  -14.5892   28.4059 O   0  0  0  0  0  0  0  0  0  0  0  0
    7.4872  -15.9102   27.3046 O   0  0  0  0  0  0  0  0  0  0  0  0
  2  1  1  0
  2  3  2  0
  4  2  1  0
  5  7  1  0
  5  4  1  0
  5  6  1  6
  7  8  2  0
  9 10  1  0
 10 11  2  0
 12 10  1  0
 12 13  1  0
 14 13  1  1
 15 14  1  0
 15  7  1  0
 16 17  2  0
 16 14  1  0
 19 18  1  6
 19 21  1  0
 20 19  1  0
 21 22  1  6
 22 16  1  0
 23 21  1  0
 23 24  1  0
 25 23  2  0
M  END
$$$$
