SND.pdb
     RDKit          3D

 23 22  0  0  1  0  0  0  0  0999 V2000
   16.7107  -11.7820  -15.6215 O   0  0  0  0  0  0  0  0  0  0  0  0
   17.0558  -10.5197  -15.1802 C   0  0  0  0  0  0  0  0  0  0  0  0
   16.1703  -10.0802  -14.0044 C   0  0  2  0  0  0  0  0  0  0  0  0
   14.8380   -9.9677  -14.5045 N   0  0  0  0  0  0  0  0  0  0  0  0
   16.7365   -8.8369  -13.4842 C   0  0  0  0  0  0  0  0  0  0  0  0
   16.6498   -7.7957  -14.2154 O   0  0  0  0  0  0  0  0  0  0  0  0
   19.0853   -5.1210  -10.6877 N   0  0  0  0  0  0  0  0  0  0  0  0
   18.7422   -6.1672   -9.8087 C   0  0  0  0  0  0  0  0  0  0  0  0
   18.9323   -6.0388   -8.5819 O   0  0  0  0  0  0  0  0  0  0  0  0
   18.1584   -7.4170  -10.3268 C   0  0  0  0  0  0  0  0  0  0  0  0
   18.0336   -7.4367  -11.8424 C   0  0  2  0  0  0  0  0  0  0  0  0
   17.3792   -8.6717  -12.2336 N   0  0  0  0  0  0  0  0  0  0  0  0
   19.3597   -7.2789  -12.4657 C   0  0  0  0  0  0  0  0  0  0  0  0
   20.0427   -8.2892  -12.7284 O   0  0  0  0  0  0  0  0  0  0  0  0
   19.8531   -5.9998  -12.7634 N   0  0  0  0  0  0  0  0  0  0  0  0
   20.9376   -5.7159  -13.6640 C   0  0  1  0  0  0  0  0  0  0  0  0
   20.7158   -6.2843  -15.0465 C   0  0  0  0  0  0  0  0  0  0  0  0
   21.9232   -6.0264  -15.8540 C   0  0  0  0  0  0  0  0  0  0  0  0
   22.9845   -5.5617  -15.3232 O   0  0  0  0  0  0  0  0  0  0  0  0
   21.1023   -4.2449  -13.7418 C   0  0  0  0  0  0  0  0  0  0  0  0
   20.2133   -3.4089  -13.1006 O   0  0  0  0  0  0  0  0  0  0  0  0
   22.0088   -6.2597  -17.2249 O   0  0  0  0  0  0  0  0  0  0  0  0
   22.0444   -3.7177  -14.3850 O   0  0  0  0  0  0  0  0  0  0  0  0
  2  3  1  0
  2  1  1  0
  3  4  1  6
  3  5  1  0
  5  6  2  0
  7  8  1  0
  8  9  2  0
  8 10  1  0
 11 10  1  1
 11 13  1  0
 12  5  1  0
 12 11  1  0
 13 14  2  0
 15 16  1  0
 15 13  1  0
 16 20  1  0
 17 18  1  0
 16 17  1  6
 18 19  2  0
 20 21  1  0
 22 18  1  0
 23 20  2  0
M  END
$$$$
