SND.pdb
     RDKit          3D

 23 22  0  0  1  0  0  0  0  0999 V2000
   18.2713  -14.0777  -17.0378 O   0  0  0  0  0  0  0  0  0  0  0  0
   19.1964  -13.2293  -16.4619 C   0  0  0  0  0  0  0  0  0  0  0  0
   20.5805  -13.3954  -17.1071 C   0  0  2  0  0  0  0  0  0  0  0  0
   20.9340  -14.7732  -16.9878 N   0  0  0  0  0  0  0  0  0  0  0  0
   21.4837  -12.4699  -16.4255 C   0  0  0  0  0  0  0  0  0  0  0  0
   21.4156  -12.4053  -15.1537 O   0  0  0  0  0  0  0  0  0  0  0  0
   26.5253  -10.6123  -15.0162 N   0  0  0  0  0  0  0  0  0  0  0  0
   25.6832  -10.0732  -16.0088 C   0  0  0  0  0  0  0  0  0  0  0  0
   25.7441   -8.8578  -16.2859 O   0  0  0  0  0  0  0  0  0  0  0  0
   24.7269  -10.9351  -16.7257 C   0  0  0  0  0  0  0  0  0  0  0  0
   23.2842  -10.7148  -16.2977 C   0  0  2  0  0  0  0  0  0  0  0  0
   22.4387  -11.6278  -17.0446 N   0  0  0  0  0  0  0  0  0  0  0  0
   22.9035   -9.3047  -16.4939 C   0  0  0  0  0  0  0  0  0  0  0  0
   22.5500   -8.9120  -17.6241 O   0  0  0  0  0  0  0  0  0  0  0  0
   22.9372   -8.4069  -15.4165 N   0  0  0  0  0  0  0  0  0  0  0  0
   22.5096   -7.0347  -15.4640 C   0  0  1  0  0  0  0  0  0  0  0  0
   22.3492   -6.4226  -14.0917 C   0  0  0  0  0  0  0  0  0  0  0  0
   21.9232   -5.0198  -14.2558 C   0  0  0  0  0  0  0  0  0  0  0  0
   20.9373   -4.7131  -15.0028 O   0  0  0  0  0  0  0  0  0  0  0  0
   23.5054   -6.2660  -16.2480 C   0  0  0  0  0  0  0  0  0  0  0  0
   23.1120   -5.1821  -17.0034 O   0  0  0  0  0  0  0  0  0  0  0  0
   22.5407   -3.9392  -13.6294 O   0  0  0  0  0  0  0  0  0  0  0  0
   24.7244   -6.5717  -16.2502 O   0  0  0  0  0  0  0  0  0  0  0  0
  2  3  1  0
  2  1  1  0
  3  4  1  1
  3  5  1  0
  5  6  2  0
  7  8  1  0
  8  9  2  0
  8 10  1  0
 11 10  1  6
 11 13  1  0
 12  5  1  0
 12 11  1  0
 13 14  2  0
 15 16  1  0
 15 13  1  0
 16 20  1  0
 17 18  1  0
 16 17  1  1
 18 19  2  0
 20 21  1  0
 22 18  1  0
 23 20  2  0
M  END
$$$$
