SND.pdb
     RDKit          3D

 23 22  0  0  1  0  0  0  0  0999 V2000
   17.3334  -14.7561  -16.2362 O   0  0  0  0  0  0  0  0  0  0  0  0
   18.0668  -13.6288  -16.5500 C   0  0  0  0  0  0  0  0  0  0  0  0
   17.8557  -12.5201  -15.5079 C   0  0  2  0  0  0  0  0  0  0  0  0
   16.4475  -12.3954  -15.3105 N   0  0  0  0  0  0  0  0  0  0  0  0
   18.5108  -11.3190  -16.0229 C   0  0  0  0  0  0  0  0  0  0  0  0
   19.7644  -11.3795  -16.2489 O   0  0  0  0  0  0  0  0  0  0  0  0
   17.5702   -6.1408  -19.1044 N   0  0  0  0  0  0  0  0  0  0  0  0
   18.3524   -7.2367  -18.6896 C   0  0  0  0  0  0  0  0  0  0  0  0
   19.5827   -7.2399  -18.8996 O   0  0  0  0  0  0  0  0  0  0  0  0
   17.7285   -8.3841  -18.0074 C   0  0  0  0  0  0  0  0  0  0  0  0
   18.5880   -8.9570  -16.8910 C   0  0  2  0  0  0  0  0  0  0  0  0
   17.8841  -10.0800  -16.2995 N   0  0  0  0  0  0  0  0  0  0  0  0
   18.9087   -7.9096  -15.9053 C   0  0  0  0  0  0  0  0  0  0  0  0
   18.0396   -7.5430  -15.0887 O   0  0  0  0  0  0  0  0  0  0  0  0
   20.1846   -7.3266  -15.8832 N   0  0  0  0  0  0  0  0  0  0  0  0
   20.6048   -6.2794  -14.9917 C   0  0  1  0  0  0  0  0  0  0  0  0
   22.1058   -6.1095  -14.9530 C   0  0  0  0  0  0  0  0  0  0  0  0
   22.4302   -5.0721  -13.9555 C   0  0  0  0  0  0  0  0  0  0  0  0
   21.8764   -5.0648  -12.8078 O   0  0  0  0  0  0  0  0  0  0  0  0
   19.9633   -5.0158  -15.4265 C   0  0  0  0  0  0  0  0  0  0  0  0
   19.5331   -4.0956  -14.4945 O   0  0  0  0  0  0  0  0  0  0  0  0
   23.3413   -4.0404  -14.1719 O   0  0  0  0  0  0  0  0  0  0  0  0
   19.7927   -4.7443  -16.6415 O   0  0  0  0  0  0  0  0  0  0  0  0
  2  3  1  0
  2  1  1  0
  3  4  1  6
  3  5  1  0
  5  6  2  0
  7  8  1  0
  8  9  2  0
  8 10  1  0
 11 10  1  6
 11 13  1  0
 12  5  1  0
 12 11  1  0
 13 14  2  0
 15 16  1  0
 15 13  1  0
 16 20  1  0
 17 18  1  0
 16 17  1  6
 18 19  2  0
 20 21  1  0
 22 18  1  0
 23 20  2  0
M  END
$$$$
