SND.pdb
     RDKit          3D

 23 22  0  0  1  0  0  0  0  0999 V2000
   13.6102  -12.4458  -10.3203 O   0  0  0  0  0  0  0  0  0  0  0  0
   13.9719  -11.1735  -10.7172 C   0  0  0  0  0  0  0  0  0  0  0  0
   13.6459  -10.1381   -9.6302 C   0  0  2  0  0  0  0  0  0  0  0  0
   12.2249  -10.0096   -9.5890 N   0  0  0  0  0  0  0  0  0  0  0  0
   14.3621   -8.9123   -9.9789 C   0  0  0  0  0  0  0  0  0  0  0  0
   13.9382   -8.2432  -10.9784 O   0  0  0  0  0  0  0  0  0  0  0  0
   14.7426   -6.1292   -6.7523 N   0  0  0  0  0  0  0  0  0  0  0  0
   15.2770   -5.6884   -7.9791 C   0  0  0  0  0  0  0  0  0  0  0  0
   14.7300   -4.7524   -8.5975 O   0  0  0  0  0  0  0  0  0  0  0  0
   16.4811   -6.3252   -8.5411 C   0  0  0  0  0  0  0  0  0  0  0  0
   16.1884   -7.1939   -9.7547 C   0  0  2  0  0  0  0  0  0  0  0  0
   15.4933   -8.3873   -9.3086 N   0  0  0  0  0  0  0  0  0  0  0  0
   17.4370   -7.5037  -10.4736 C   0  0  0  0  0  0  0  0  0  0  0  0
   18.1461   -8.4583  -10.0965 O   0  0  0  0  0  0  0  0  0  0  0  0
   17.8278   -6.7305  -11.5770 N   0  0  0  0  0  0  0  0  0  0  0  0
   18.9154   -7.0397  -12.4654 C   0  0  1  0  0  0  0  0  0  0  0  0
   18.7626   -8.3869  -13.1327 C   0  0  0  0  0  0  0  0  0  0  0  0
   19.9182   -8.5968  -14.0254 C   0  0  0  0  0  0  0  0  0  0  0  0
   21.1067   -8.3569  -13.6330 O   0  0  0  0  0  0  0  0  0  0  0  0
   18.9935   -5.9725  -13.4912 C   0  0  0  0  0  0  0  0  0  0  0  0
   20.2051   -5.6348  -14.0553 O   0  0  0  0  0  0  0  0  0  0  0  0
   19.8173   -9.0608  -15.3353 O   0  0  0  0  0  0  0  0  0  0  0  0
   17.9726   -5.3490  -13.8762 O   0  0  0  0  0  0  0  0  0  0  0  0
  2  3  1  0
  2  1  1  0
  3  4  1  6
  3  5  1  0
  5  6  2  0
  7  8  1  0
  8  9  2  0
  8 10  1  0
 11 10  1  1
 11 13  1  0
 12  5  1  0
 12 11  1  0
 13 14  2  0
 15 16  1  0
 15 13  1  0
 16 20  1  0
 17 18  1  0
 16 17  1  6
 18 19  2  0
 20 21  1  0
 22 18  1  0
 23 20  2  0
M  END
$$$$
