SND.pdb
     RDKit          3D

 23 22  0  0  1  0  0  0  0  0999 V2000
   16.1762  -12.1329  -15.8686 O   0  0  0  0  0  0  0  0  0  0  0  0
   17.1000  -11.7874  -16.8352 C   0  0  0  0  0  0  0  0  0  0  0  0
   18.5254  -12.1606  -16.4008 C   0  0  2  0  0  0  0  0  0  0  0  0
   18.4154  -13.2886  -15.5330 N   0  0  0  0  0  0  0  0  0  0  0  0
   19.1107  -10.9700  -15.7869 C   0  0  0  0  0  0  0  0  0  0  0  0
   18.7717  -10.6945  -14.5888 O   0  0  0  0  0  0  0  0  0  0  0  0
   21.9008  -10.4788  -13.9356 N   0  0  0  0  0  0  0  0  0  0  0  0
   22.6746   -9.7369  -14.8497 C   0  0  0  0  0  0  0  0  0  0  0  0
   23.9193   -9.8266  -14.8303 O   0  0  0  0  0  0  0  0  0  0  0  0
   22.0249   -8.8520  -15.8326 C   0  0  0  0  0  0  0  0  0  0  0  0
   20.5066   -8.8751  -15.7480 C   0  0  2  0  0  0  0  0  0  0  0  0
   20.0284  -10.0816  -16.3977 N   0  0  0  0  0  0  0  0  0  0  0  0
   19.9435   -7.6514  -16.3457 C   0  0  0  0  0  0  0  0  0  0  0  0
   19.9115   -7.5286  -17.5868 O   0  0  0  0  0  0  0  0  0  0  0  0
   19.4451   -6.6285  -15.5249 N   0  0  0  0  0  0  0  0  0  0  0  0
   18.7988   -5.4307  -15.9891 C   0  0  1  0  0  0  0  0  0  0  0  0
   17.7337   -4.9335  -15.0394 C   0  0  0  0  0  0  0  0  0  0  0  0
   17.0698   -3.7687  -15.6548 C   0  0  0  0  0  0  0  0  0  0  0  0
   17.3574   -3.3952  -16.8388 O   0  0  0  0  0  0  0  0  0  0  0  0
   19.8355   -4.3882  -16.1778 C   0  0  0  0  0  0  0  0  0  0  0  0
   19.9170   -3.6928  -17.3652 O   0  0  0  0  0  0  0  0  0  0  0  0
   16.1003   -2.9972  -15.0175 O   0  0  0  0  0  0  0  0  0  0  0  0
   20.6628   -4.1068  -15.2747 O   0  0  0  0  0  0  0  0  0  0  0  0
  2  3  1  0
  2  1  1  0
  3  4  1  1
  3  5  1  0
  5  6  2  0
  7  8  1  0
  8  9  2  0
  8 10  1  0
 11 10  1  6
 11 13  1  0
 12  5  1  0
 12 11  1  0
 13 14  2  0
 15 16  1  0
 15 13  1  0
 16 20  1  0
 17 18  1  0
 16 17  1  1
 18 19  2  0
 20 21  1  0
 22 18  1  0
 23 20  2  0
M  END
$$$$
