SND.pdb
     RDKit          3D

 23 22  0  0  1  0  0  0  0  0999 V2000
   15.6740  -10.9500  -16.6274 O   0  0  0  0  0  0  0  0  0  0  0  0
   16.3519   -9.8385  -16.1666 C   0  0  0  0  0  0  0  0  0  0  0  0
   17.7113  -10.2261  -15.5653 C   0  0  2  0  0  0  0  0  0  0  0  0
   17.4547  -11.1755  -14.5307 N   0  0  0  0  0  0  0  0  0  0  0  0
   18.3489   -8.9892  -15.1174 C   0  0  0  0  0  0  0  0  0  0  0  0
   17.7024   -8.2517  -14.3022 O   0  0  0  0  0  0  0  0  0  0  0  0
   21.6383   -5.0759  -14.0886 N   0  0  0  0  0  0  0  0  0  0  0  0
   22.3860   -6.1690  -14.5692 C   0  0  0  0  0  0  0  0  0  0  0  0
   23.6331   -6.1192  -14.5709 O   0  0  0  0  0  0  0  0  0  0  0  0
   21.7061   -7.3757  -15.0722 C   0  0  0  0  0  0  0  0  0  0  0  0
   20.1895   -7.2742  -15.0208 C   0  0  2  0  0  0  0  0  0  0  0  0
   19.6288   -8.5230  -15.5032 N   0  0  0  0  0  0  0  0  0  0  0  0
   19.7293   -6.1110  -15.7998 C   0  0  0  0  0  0  0  0  0  0  0  0
   19.6487   -6.1924  -17.0421 O   0  0  0  0  0  0  0  0  0  0  0  0
   19.3826   -4.9171  -15.1495 N   0  0  0  0  0  0  0  0  0  0  0  0
   18.6939   -3.8100  -15.7558 C   0  0  1  0  0  0  0  0  0  0  0  0
   17.1919   -3.9763  -15.7441 C   0  0  0  0  0  0  0  0  0  0  0  0
   16.5902   -2.8096  -16.4172 C   0  0  0  0  0  0  0  0  0  0  0  0
   17.0785   -2.3489  -17.5004 O   0  0  0  0  0  0  0  0  0  0  0  0
   19.0722   -2.5748  -15.0288 C   0  0  0  0  0  0  0  0  0  0  0  0
   19.9341   -2.6343  -13.9547 O   0  0  0  0  0  0  0  0  0  0  0  0
   15.4705   -2.1285  -15.9443 O   0  0  0  0  0  0  0  0  0  0  0  0
   18.6269   -1.4481  -15.3626 O   0  0  0  0  0  0  0  0  0  0  0  0
  2  3  1  0
  2  1  1  0
  3  4  1  1
  3  5  1  0
  5  6  2  0
  7  8  1  0
  8  9  2  0
  8 10  1  0
 11 10  1  6
 11 13  1  0
 12  5  1  0
 12 11  1  0
 13 14  2  0
 15 16  1  0
 15 13  1  0
 16 20  1  0
 17 18  1  0
 16 17  1  1
 18 19  2  0
 20 21  1  0
 22 18  1  0
 23 20  2  0
M  END
$$$$
