SND.pdb
     RDKit          3D

 23 22  0  0  1  0  0  0  0  0999 V2000
   18.1451  -28.4669   -1.9167 O   0  0  0  0  0  0  0  0  0  0  0  0
   18.7212  -27.4269   -2.6194 C   0  0  0  0  0  0  0  0  0  0  0  0
   17.6698  -26.3867   -3.0347 C   0  0  2  0  0  0  0  0  0  0  0  0
   16.4047  -27.0477   -3.0315 N   0  0  0  0  0  0  0  0  0  0  0  0
   18.0816  -25.8581   -4.3340 C   0  0  0  0  0  0  0  0  0  0  0  0
   19.2076  -25.2633   -4.4010 O   0  0  0  0  0  0  0  0  0  0  0  0
   18.7994  -26.7744  -10.1038 N   0  0  0  0  0  0  0  0  0  0  0  0
   18.9596  -26.0344   -8.9157 C   0  0  0  0  0  0  0  0  0  0  0  0
   19.6144  -24.9719   -8.9260 O   0  0  0  0  0  0  0  0  0  0  0  0
   18.3586  -26.5055   -7.6555 C   0  0  0  0  0  0  0  0  0  0  0  0
   17.8176  -25.3772   -6.7911 C   0  0  2  0  0  0  0  0  0  0  0  0
   17.3455  -25.9422   -5.5404 N   0  0  0  0  0  0  0  0  0  0  0  0
   16.7629  -24.6428   -7.5122 C   0  0  0  0  0  0  0  0  0  0  0  0
   15.5798  -25.0321   -7.4403 O   0  0  0  0  0  0  0  0  0  0  0  0
   17.0854  -23.5110   -8.2759 N   0  0  0  0  0  0  0  0  0  0  0  0
   16.1607  -22.7615   -9.0829 C   0  0  1  0  0  0  0  0  0  0  0  0
   16.7874  -21.5370   -9.7086 C   0  0  0  0  0  0  0  0  0  0  0  0
   15.7228  -20.7542  -10.3645 C   0  0  0  0  0  0  0  0  0  0  0  0
   14.5179  -20.8049   -9.9524 O   0  0  0  0  0  0  0  0  0  0  0  0
   15.6362  -23.6582  -10.1402 C   0  0  0  0  0  0  0  0  0  0  0  0
   14.2851  -23.7017  -10.4106 O   0  0  0  0  0  0  0  0  0  0  0  0
   15.9321  -19.9167  -11.4580 O   0  0  0  0  0  0  0  0  0  0  0  0
   16.3943  -24.3980  -10.8164 O   0  0  0  0  0  0  0  0  0  0  0  0
  2  3  1  0
  2  1  1  0
  3  4  1  6
  3  5  1  0
  5  6  2  0
  7  8  1  0
  8  9  2  0
  8 10  1  0
 11 10  1  6
 11 13  1  0
 12  5  1  0
 12 11  1  0
 13 14  2  0
 15 16  1  0
 15 13  1  0
 16 20  1  0
 17 18  1  0
 16 17  1  6
 18 19  2  0
 20 21  1  0
 22 18  1  0
 23 20  2  0
M  END
$$$$
