SND.pdb
     RDKit          3D

 23 22  0  0  1  0  0  0  0  0999 V2000
   15.9073  -10.8616  -18.2432 O   0  0  0  0  0  0  0  0  0  0  0  0
   16.7788  -10.3073  -17.3265 C   0  0  0  0  0  0  0  0  0  0  0  0
   17.6753  -11.3811  -16.6916 C   0  0  2  0  0  0  0  0  0  0  0  0
   16.8236  -12.2433  -15.9375 N   0  0  0  0  0  0  0  0  0  0  0  0
   18.6895  -10.6810  -15.9053 C   0  0  0  0  0  0  0  0  0  0  0  0
   18.4209  -10.4269  -14.6849 O   0  0  0  0  0  0  0  0  0  0  0  0
   24.6322  -10.1279  -14.9569 N   0  0  0  0  0  0  0  0  0  0  0  0
   23.2700   -9.9244  -14.6605 C   0  0  0  0  0  0  0  0  0  0  0  0
   22.9419   -9.3140  -13.6225 O   0  0  0  0  0  0  0  0  0  0  0  0
   22.2245  -10.4278  -15.5688 C   0  0  0  0  0  0  0  0  0  0  0  0
   20.9376   -9.6197  -15.5074 C   0  0  2  0  0  0  0  0  0  0  0  0
   19.9563  -10.2521  -16.3698 N   0  0  0  0  0  0  0  0  0  0  0  0
   21.1970   -8.2180  -15.8811 C   0  0  0  0  0  0  0  0  0  0  0  0
   21.6582   -7.9550  -17.0100 O   0  0  0  0  0  0  0  0  0  0  0  0
   20.9269   -7.1829  -14.9734 N   0  0  0  0  0  0  0  0  0  0  0  0
   21.1987   -5.7887  -15.1975 C   0  0  1  0  0  0  0  0  0  0  0  0
   19.9910   -4.9110  -14.9640 C   0  0  0  0  0  0  0  0  0  0  0  0
   19.0302   -5.1419  -16.0594 C   0  0  0  0  0  0  0  0  0  0  0  0
   17.8104   -5.4213  -15.8187 O   0  0  0  0  0  0  0  0  0  0  0  0
   22.3026   -5.3812  -14.2961 C   0  0  0  0  0  0  0  0  0  0  0  0
   22.8058   -6.2655  -13.3660 O   0  0  0  0  0  0  0  0  0  0  0  0
   19.3596   -5.0776  -17.4117 O   0  0  0  0  0  0  0  0  0  0  0  0
   22.8101   -4.2327  -14.3488 O   0  0  0  0  0  0  0  0  0  0  0  0
  2  3  1  0
  2  1  1  0
  3  4  1  1
  3  5  1  0
  5  6  2  0
  7  8  1  0
  8  9  2  0
  8 10  1  0
 11 10  1  6
 11 13  1  0
 12  5  1  0
 12 11  1  0
 13 14  2  0
 15 16  1  0
 15 13  1  0
 16 20  1  0
 17 18  1  0
 16 17  1  1
 18 19  2  0
 20 21  1  0
 22 18  1  0
 23 20  2  0
M  END
$$$$
