LML.pdb
     RDKit          3D

 25 24  0  0  1  0  0  0  0  0999 V2000
   21.1281  -18.9121  -15.2669 C   0  0  0  0  0  0  0  0  0  0  0  0
   22.3461  -19.8337  -15.1783 C   0  0  2  0  0  0  0  0  0  0  0  0
   22.4477  -20.5617  -16.4900 C   0  0  0  0  0  0  0  0  0  0  0  0
   22.2362  -20.7591  -13.9960 C   0  0  0  0  0  0  0  0  0  0  0  0
   22.1052  -19.9820  -12.7259 C   0  0  2  0  0  0  0  0  0  0  0  0
   23.1822  -19.0121  -12.6611 N   0  0  0  0  0  0  0  0  0  0  0  0
   22.1703  -20.8246  -11.5180 C   0  0  0  0  0  0  0  0  0  0  0  0
   21.6110  -21.9638  -11.4824 O   0  0  0  0  0  0  0  0  0  0  0  0
   26.2331  -18.9041   -6.9556 C   0  0  0  0  0  0  0  0  0  0  0  0
   26.6348  -20.5383   -7.5721 S   0  0  0  0  0  0  0  0  0  0  0  0
   25.3365  -21.1876   -8.6903 C   0  0  0  0  0  0  0  0  0  0  0  0
   23.9828  -20.7833   -8.2334 C   0  0  0  0  0  0  0  0  0  0  0  0
   22.8905  -21.2955   -9.1285 C   0  0  2  0  0  0  0  0  0  0  0  0
   22.8444  -20.4432  -10.3279 N   0  0  0  0  0  0  0  0  0  0  0  0
   21.5446  -21.3114   -8.4871 C   0  0  0  0  0  0  0  0  0  0  0  0
   20.7728  -20.3508   -8.7027 O   0  0  0  0  0  0  0  0  0  0  0  0
   17.5934  -23.6917  -10.5834 C   0  0  0  0  0  0  0  0  0  0  0  0
   17.7605  -23.4373   -9.0344 C   0  0  1  0  0  0  0  0  0  0  0  0
   17.3809  -24.8044   -8.4688 C   0  0  0  0  0  0  0  0  0  0  0  0
   19.1731  -23.0697   -8.8701 C   0  0  0  0  0  0  0  0  0  0  0  0
   19.6616  -22.6205   -7.5536 C   0  0  2  0  0  0  0  0  0  0  0  0
   21.1186  -22.3596   -7.6562 N   0  0  0  0  0  0  0  0  0  0  0  0
   19.4789  -23.5740   -6.4747 C   0  0  0  0  0  0  0  0  0  0  0  0
   20.4776  -24.2711   -6.0896 O   0  0  0  0  0  0  0  0  0  0  0  0
   18.3094  -23.8094   -5.7935 O   0  0  0  0  0  0  0  0  0  0  0  0
  2  1  1  6
  3  2  1  0
  4  2  1  0
  4  5  1  0
  5  6  1  1
  7  5  1  0
  7  8  2  0
  9 10  1  0
 10 11  1  0
 11 12  1  0
 13 12  1  1
 13 14  1  0
 14  7  1  0
 15 13  1  0
 16 15  2  0
 18 17  1  6
 18 19  1  0
 21 20  1  6
 20 18  1  0
 21 22  1  0
 22 15  1  0
 23 21  1  0
 24 23  2  0
 25 23  1  0
M  END
$$$$
