LML.pdb
     RDKit          3D

 25 24  0  0  1  0  0  0  0  0999 V2000
   24.7061  -18.0197  -15.1463 C   0  0  0  0  0  0  0  0  0  0  0  0
   25.7872  -17.1929  -15.8450 C   0  0  2  0  0  0  0  0  0  0  0  0
   26.9609  -17.1153  -14.9084 C   0  0  0  0  0  0  0  0  0  0  0  0
   25.2581  -15.8405  -16.2423 C   0  0  0  0  0  0  0  0  0  0  0  0
   24.0024  -15.9774  -17.0415 C   0  0  2  0  0  0  0  0  0  0  0  0
   24.3039  -16.7039  -18.2604 N   0  0  0  0  0  0  0  0  0  0  0  0
   23.4041  -14.6822  -17.4126 C   0  0  0  0  0  0  0  0  0  0  0  0
   23.9399  -13.9406  -18.2928 O   0  0  0  0  0  0  0  0  0  0  0  0
   17.0840  -12.8238  -16.2046 C   0  0  0  0  0  0  0  0  0  0  0  0
   17.6342  -11.9916  -17.6935 S   0  0  0  0  0  0  0  0  0  0  0  0
   19.4551  -11.7910  -17.7338 C   0  0  0  0  0  0  0  0  0  0  0  0
   20.1419  -13.0297  -17.2884 C   0  0  0  0  0  0  0  0  0  0  0  0
   21.6339  -12.8720  -17.2135 C   0  0  2  0  0  0  0  0  0  0  0  0
   22.2129  -14.1708  -16.8331 N   0  0  0  0  0  0  0  0  0  0  0  0
   22.0813  -11.8330  -16.2421 C   0  0  0  0  0  0  0  0  0  0  0  0
   21.9596  -12.0711  -15.0201 O   0  0  0  0  0  0  0  0  0  0  0  0
   26.8442   -9.6737  -16.3366 C   0  0  0  0  0  0  0  0  0  0  0  0
   25.5086  -10.4011  -15.9137 C   0  0  1  0  0  0  0  0  0  0  0  0
   25.9044  -10.9778  -14.5559 C   0  0  0  0  0  0  0  0  0  0  0  0
   24.5043   -9.3304  -15.8629 C   0  0  0  0  0  0  0  0  0  0  0  0
   23.0929   -9.6660  -15.6004 C   0  0  2  0  0  0  0  0  0  0  0  0
   22.6298  -10.6069  -16.6501 N   0  0  0  0  0  0  0  0  0  0  0  0
   22.1817   -8.5363  -15.6150 C   0  0  0  0  0  0  0  0  0  0  0  0
   22.2779   -7.6523  -14.6979 O   0  0  0  0  0  0  0  0  0  0  0  0
   21.1989   -8.3026  -16.5459 O   0  0  0  0  0  0  0  0  0  0  0  0
  2  1  1  1
  3  2  1  0
  4  2  1  0
  4  5  1  0
  5  6  1  6
  7  5  1  0
  7  8  2  0
  9 10  1  0
 10 11  1  0
 11 12  1  0
 13 12  1  1
 13 14  1  0
 14  7  1  0
 15 13  1  0
 16 15  2  0
 18 17  1  1
 18 19  1  0
 21 20  1  6
 20 18  1  0
 21 22  1  0
 22 15  1  0
 23 21  1  0
 24 23  2  0
 25 23  1  0
M  END
$$$$
