LML.pdb
     RDKit          3D

 25 24  0  0  1  0  0  0  0  0999 V2000
   20.9808  -16.8423  -20.0169 C   0  0  0  0  0  0  0  0  0  0  0  0
   19.8323  -16.5684  -19.0438 C   0  0  2  0  0  0  0  0  0  0  0  0
   18.6716  -16.0671  -19.8575 C   0  0  0  0  0  0  0  0  0  0  0  0
   20.2575  -15.6068  -17.9662 C   0  0  0  0  0  0  0  0  0  0  0  0
   21.4342  -16.1405  -17.2147 C   0  0  2  0  0  0  0  0  0  0  0  0
   21.0001  -17.2669  -16.4101 N   0  0  0  0  0  0  0  0  0  0  0  0
   22.0536  -15.1461  -16.3199 C   0  0  0  0  0  0  0  0  0  0  0  0
   21.4751  -14.7739  -15.2528 O   0  0  0  0  0  0  0  0  0  0  0  0
   27.7654  -15.1816  -17.1781 C   0  0  0  0  0  0  0  0  0  0  0  0
   26.5431  -15.9816  -16.1398 S   0  0  0  0  0  0  0  0  0  0  0  0
   25.7499  -14.8034  -14.9822 C   0  0  0  0  0  0  0  0  0  0  0  0
   25.3278  -13.5641  -15.6825 C   0  0  0  0  0  0  0  0  0  0  0  0
   23.8345  -13.4228  -15.7643 C   0  0  2  0  0  0  0  0  0  0  0  0
   23.3127  -14.5390  -16.5697 N   0  0  0  0  0  0  0  0  0  0  0  0
   23.3838  -12.1340  -16.3633 C   0  0  0  0  0  0  0  0  0  0  0  0
   23.7630  -11.0672  -15.8312 O   0  0  0  0  0  0  0  0  0  0  0  0
   22.3123  -10.9942  -21.8335 C   0  0  0  0  0  0  0  0  0  0  0  0
   23.0017  -11.0206  -20.4137 C   0  0  1  0  0  0  0  0  0  0  0  0
   23.9311   -9.8127  -20.5150 C   0  0  0  0  0  0  0  0  0  0  0  0
   21.8933  -10.8711  -19.4614 C   0  0  0  0  0  0  0  0  0  0  0  0
   22.1813  -10.7425  -18.0213 C   0  0  2  0  0  0  0  0  0  0  0  0
   22.5549  -12.0785  -17.4949 N   0  0  0  0  0  0  0  0  0  0  0  0
   21.0722  -10.2667  -17.2150 C   0  0  0  0  0  0  0  0  0  0  0  0
   20.2900  -11.1196  -16.6742 O   0  0  0  0  0  0  0  0  0  0  0  0
   20.7675   -8.9527  -16.9546 O   0  0  0  0  0  0  0  0  0  0  0  0
  2  1  1  6
  3  2  1  0
  4  2  1  0
  4  5  1  0
  5  6  1  1
  7  5  1  0
  7  8  2  0
  9 10  1  0
 10 11  1  0
 11 12  1  0
 13 12  1  6
 13 14  1  0
 14  7  1  0
 15 13  1  0
 16 15  2  0
 18 17  1  6
 18 19  1  0
 21 20  1  6
 20 18  1  0
 21 22  1  0
 22 15  1  0
 23 21  1  0
 24 23  2  0
 25 23  1  0
M  END
$$$$
