DNT.pdb
     RDKit          3D

 24 23  0  0  1  0  0  0  0  0999 V2000
   19.5878  -12.4897  -16.4648 N   0  0  0  0  0  0  0  0  0  0  0  0
   18.9228  -11.4720  -17.2935 C   0  0  1  0  0  0  0  0  0  0  0  0
   17.6317  -12.0771  -17.7213 C   0  0  0  0  0  0  0  0  0  0  0  0
   17.8229  -13.2513  -18.5548 C   0  0  0  0  0  0  0  0  0  0  0  0
   18.8887  -13.7998  -18.8794 O   0  0  0  0  0  0  0  0  0  0  0  0
   18.8015  -10.2151  -16.5091 C   0  0  0  0  0  0  0  0  0  0  0  0
   18.3850   -9.1345  -16.9678 O   0  0  0  0  0  0  0  0  0  0  0  0
   16.6618  -13.8667  -19.0746 O   0  0  0  0  0  0  0  0  0  0  0  0
   18.8596   -6.6745  -12.7708 N   0  0  0  0  0  0  0  0  0  0  0  0
   18.5372   -7.9191  -12.1881 C   0  0  0  0  0  0  0  0  0  0  0  0
   18.0870   -7.9350  -11.0206 O   0  0  0  0  0  0  0  0  0  0  0  0
   18.7138   -9.1976  -12.9094 C   0  0  0  0  0  0  0  0  0  0  0  0
   19.0662   -8.9616  -14.3543 C   0  0  2  0  0  0  0  0  0  0  0  0
   19.1782  -10.1832  -15.1127 N   0  0  0  0  0  0  0  0  0  0  0  0
   20.3850   -8.2491  -14.3600 C   0  0  0  0  0  0  0  0  0  0  0  0
   21.4243   -8.9436  -14.3128 O   0  0  0  0  0  0  0  0  0  0  0  0
   22.8899   -4.8021  -16.3277 C   0  0  0  0  0  0  0  0  0  0  0  0
   21.7367   -5.6905  -15.9948 C   0  0  1  0  0  0  0  0  0  0  0  0
   21.8673   -6.8771  -16.7449 O   0  0  0  0  0  0  0  0  0  0  0  0
   21.6400   -6.1053  -14.5642 C   0  0  2  0  0  0  0  0  0  0  0  0
   20.3897   -6.8339  -14.4180 N   0  0  0  0  0  0  0  0  0  0  0  0
   21.6728   -5.0149  -13.5870 C   0  0  0  0  0  0  0  0  0  0  0  0
   22.7774   -4.7417  -12.7773 O   0  0  0  0  0  0  0  0  0  0  0  0
   20.6840   -4.2731  -13.4436 O   0  0  0  0  0  0  0  0  0  0  0  0
  2  1  1  1
  2  3  1  0
  3  4  1  0
  4  5  2  0
  4  8  1  0
  6  2  1  0
  6 14  1  0
  7  6  2  0
  9 10  1  0
 10 12  1  0
 10 11  2  0
 13 12  1  1
 13 14  1  0
 13 15  1  0
 15 16  2  0
 18 17  1  1
 18 19  1  0
 20 18  1  0
 21 15  1  0
 20 21  1  6
 22 23  1  0
 22 20  1  0
 24 22  2  0
M  END
$$$$
