DNT.pdb
     RDKit          3D

 24 23  0  0  1  0  0  0  0  0999 V2000
   27.7394  -22.6093  -16.1303 N   0  0  0  0  0  0  0  0  0  0  0  0
   27.1451  -21.3409  -15.6801 C   0  0  1  0  0  0  0  0  0  0  0  0
   26.7873  -20.5977  -16.9194 C   0  0  0  0  0  0  0  0  0  0  0  0
   27.9194  -19.8778  -17.4763 C   0  0  0  0  0  0  0  0  0  0  0  0
   28.8331  -20.3162  -18.1939 O   0  0  0  0  0  0  0  0  0  0  0  0
   26.0068  -21.6373  -14.7711 C   0  0  0  0  0  0  0  0  0  0  0  0
   25.2412  -22.6122  -14.8939 O   0  0  0  0  0  0  0  0  0  0  0  0
   28.0149  -18.4998  -17.1776 O   0  0  0  0  0  0  0  0  0  0  0  0
   26.2050  -22.3502  -10.8227 N   0  0  0  0  0  0  0  0  0  0  0  0
   25.6511  -21.0924  -10.5009 C   0  0  0  0  0  0  0  0  0  0  0  0
   25.9311  -20.5804   -9.3938 O   0  0  0  0  0  0  0  0  0  0  0  0
   24.7556  -20.3646  -11.4251 C   0  0  0  0  0  0  0  0  0  0  0  0
   24.6398  -21.0803  -12.7450 C   0  0  2  0  0  0  0  0  0  0  0  0
   25.7191  -20.7698  -13.6498 N   0  0  0  0  0  0  0  0  0  0  0  0
   23.3400  -20.6461  -13.3522 C   0  0  0  0  0  0  0  0  0  0  0  0
   23.3284  -19.5805  -14.0072 O   0  0  0  0  0  0  0  0  0  0  0  0
   19.6618  -22.2957  -15.7766 C   0  0  0  0  0  0  0  0  0  0  0  0
   20.9432  -22.2252  -15.0132 C   0  0  1  0  0  0  0  0  0  0  0  0
   21.9698  -21.8715  -15.9125 O   0  0  0  0  0  0  0  0  0  0  0  0
   20.9794  -21.2151  -13.9148 C   0  0  2  0  0  0  0  0  0  0  0  0
   22.1962  -21.4580  -13.1558 N   0  0  0  0  0  0  0  0  0  0  0  0
   19.8357  -21.2356  -13.0002 C   0  0  0  0  0  0  0  0  0  0  0  0
   19.8190  -21.9608  -11.8068 O   0  0  0  0  0  0  0  0  0  0  0  0
   18.8089  -20.5853  -13.2674 O   0  0  0  0  0  0  0  0  0  0  0  0
  2  1  1  6
  2  3  1  0
  3  4  1  0
  4  5  2  0
  4  8  1  0
  6  2  1  0
  6 14  1  0
  7  6  2  0
  9 10  1  0
 10 12  1  0
 10 11  2  0
 13 12  1  1
 13 14  1  0
 13 15  1  0
 15 16  2  0
 18 17  1  6
 18 19  1  0
 20 18  1  0
 21 15  1  0
 20 21  1  1
 22 23  1  0
 22 20  1  0
 24 22  2  0
M  END
$$$$
