DNT.pdb
     RDKit          3D

 24 23  0  0  1  0  0  0  0  0999 V2000
   19.1983  -11.5866  -15.8554 N   0  0  0  0  0  0  0  0  0  0  0  0
   19.4226  -10.4286  -16.7348 C   0  0  1  0  0  0  0  0  0  0  0  0
   18.0856   -9.8053  -16.9345 C   0  0  0  0  0  0  0  0  0  0  0  0
   17.2642  -10.5516  -17.8718 C   0  0  0  0  0  0  0  0  0  0  0  0
   17.6228  -11.4045  -18.7001 O   0  0  0  0  0  0  0  0  0  0  0  0
   20.4452   -9.5443  -16.1166 C   0  0  0  0  0  0  0  0  0  0  0  0
   20.5582   -9.3449  -14.8922 O   0  0  0  0  0  0  0  0  0  0  0  0
   15.8752  -10.2917  -17.8579 O   0  0  0  0  0  0  0  0  0  0  0  0
   24.5813   -6.6796  -15.1935 N   0  0  0  0  0  0  0  0  0  0  0  0
   24.8412   -7.4629  -16.3387 C   0  0  0  0  0  0  0  0  0  0  0  0
   26.0085   -7.4968  -16.7886 O   0  0  0  0  0  0  0  0  0  0  0  0
   23.7840   -8.2401  -17.0199 C   0  0  0  0  0  0  0  0  0  0  0  0
   22.4533   -8.0601  -16.3383 C   0  0  2  0  0  0  0  0  0  0  0  0
   21.4016   -8.8404  -16.9427 N   0  0  0  0  0  0  0  0  0  0  0  0
   22.1153   -6.6035  -16.4419 C   0  0  0  0  0  0  0  0  0  0  0  0
   22.2143   -6.0593  -17.5639 O   0  0  0  0  0  0  0  0  0  0  0  0
   19.0072   -5.1636  -16.1232 C   0  0  0  0  0  0  0  0  0  0  0  0
   19.8427   -4.4640  -15.1022 C   0  0  1  0  0  0  0  0  0  0  0  0
   19.6139   -5.0780  -13.8538 O   0  0  0  0  0  0  0  0  0  0  0  0
   21.3162   -4.5185  -15.3343 C   0  0  2  0  0  0  0  0  0  0  0  0
   21.7034   -5.9191  -15.2723 N   0  0  0  0  0  0  0  0  0  0  0  0
   22.1332   -3.7563  -14.3874 C   0  0  0  0  0  0  0  0  0  0  0  0
   22.9636   -4.3522  -13.4357 O   0  0  0  0  0  0  0  0  0  0  0  0
   22.1118   -2.5121  -14.4024 O   0  0  0  0  0  0  0  0  0  0  0  0
  2  1  1  1
  2  3  1  0
  3  4  1  0
  4  5  2  0
  4  8  1  0
  6  2  1  0
  6 14  1  0
  7  6  2  0
  9 10  1  0
 10 12  1  0
 10 11  2  0
 13 12  1  6
 13 14  1  0
 13 15  1  0
 15 16  2  0
 18 17  1  6
 18 19  1  0
 20 18  1  0
 21 15  1  0
 20 21  1  1
 22 23  1  0
 22 20  1  0
 24 22  2  0
M  END
$$$$
