DNT.pdb
     RDKit          3D

 24 23  0  0  1  0  0  0  0  0999 V2000
   14.5375  -11.9093  -14.9163 N   0  0  0  0  0  0  0  0  0  0  0  0
   14.8032  -10.4797  -14.6915 C   0  0  1  0  0  0  0  0  0  0  0  0
   14.3359  -10.1926  -13.3076 C   0  0  0  0  0  0  0  0  0  0  0  0
   12.8868  -10.1626  -13.2104 C   0  0  0  0  0  0  0  0  0  0  0  0
   12.0745   -9.6245  -13.9803 O   0  0  0  0  0  0  0  0  0  0  0  0
   16.2442  -10.2121  -14.9393 C   0  0  0  0  0  0  0  0  0  0  0  0
   17.1769  -10.9172  -14.5097 O   0  0  0  0  0  0  0  0  0  0  0  0
   12.3026  -10.8244  -12.1068 O   0  0  0  0  0  0  0  0  0  0  0  0
   19.3102  -10.3180  -18.8344 N   0  0  0  0  0  0  0  0  0  0  0  0
   18.1926   -9.6441  -18.2965 C   0  0  0  0  0  0  0  0  0  0  0  0
   17.0478  -10.0647  -18.5771 O   0  0  0  0  0  0  0  0  0  0  0  0
   18.3308   -8.4637  -17.4171 C   0  0  0  0  0  0  0  0  0  0  0  0
   18.0504   -8.8205  -15.9812 C   0  0  2  0  0  0  0  0  0  0  0  0
   16.6528   -9.0689  -15.7260 N   0  0  0  0  0  0  0  0  0  0  0  0
   18.5083   -7.6561  -15.1559 C   0  0  0  0  0  0  0  0  0  0  0  0
   17.6529   -6.8093  -14.8152 O   0  0  0  0  0  0  0  0  0  0  0  0
   21.8100   -6.1326  -11.9387 C   0  0  0  0  0  0  0  0  0  0  0  0
   21.0910   -7.0927  -12.8281 C   0  0  1  0  0  0  0  0  0  0  0  0
   20.1219   -7.7641  -12.0550 O   0  0  0  0  0  0  0  0  0  0  0  0
   20.3618   -6.4785  -13.9766 C   0  0  2  0  0  0  0  0  0  0  0  0
   19.8779   -7.5720  -14.8047 N   0  0  0  0  0  0  0  0  0  0  0  0
   21.1480   -5.5639  -14.8075 C   0  0  0  0  0  0  0  0  0  0  0  0
   21.2646   -4.1969  -14.5468 O   0  0  0  0  0  0  0  0  0  0  0  0
   21.7570   -5.9914  -15.8049 O   0  0  0  0  0  0  0  0  0  0  0  0
  2  1  1  1
  2  3  1  0
  3  4  1  0
  4  5  2  0
  4  8  1  0
  6  2  1  0
  6 14  1  0
  7  6  2  0
  9 10  1  0
 10 12  1  0
 10 11  2  0
 13 12  1  6
 13 14  1  0
 13 15  1  0
 15 16  2  0
 18 17  1  1
 18 19  1  0
 20 18  1  0
 21 15  1  0
 20 21  1  6
 22 23  1  0
 22 20  1  0
 24 22  2  0
M  END
$$$$
