DNT.pdb
     RDKit          3D

 24 23  0  0  1  0  0  0  0  0999 V2000
   26.6408   -6.9239  -19.6803 N   0  0  0  0  0  0  0  0  0  0  0  0
   25.4598   -7.6661  -19.2121 C   0  0  1  0  0  0  0  0  0  0  0  0
   25.8824   -9.0911  -19.1293 C   0  0  0  0  0  0  0  0  0  0  0  0
   25.3047   -9.8995  -20.1889 C   0  0  0  0  0  0  0  0  0  0  0  0
   25.3568   -9.7126  -21.4154 O   0  0  0  0  0  0  0  0  0  0  0  0
   24.9921   -7.0711  -17.9327 C   0  0  0  0  0  0  0  0  0  0  0  0
   25.7350   -6.5236  -17.0960 O   0  0  0  0  0  0  0  0  0  0  0  0
   24.5866  -11.0526  -19.7990 O   0  0  0  0  0  0  0  0  0  0  0  0
   22.2816   -5.2462  -14.0165 N   0  0  0  0  0  0  0  0  0  0  0  0
   22.9752   -4.4714  -14.9710 C   0  0  0  0  0  0  0  0  0  0  0  0
   23.1562   -3.2553  -14.7377 O   0  0  0  0  0  0  0  0  0  0  0  0
   23.4915   -5.0477  -16.2309 C   0  0  0  0  0  0  0  0  0  0  0  0
   23.1343   -6.5060  -16.3473 C   0  0  2  0  0  0  0  0  0  0  0  0
   23.5894   -7.0999  -17.5803 N   0  0  0  0  0  0  0  0  0  0  0  0
   21.6390   -6.5849  -16.2785 C   0  0  0  0  0  0  0  0  0  0  0  0
   20.9798   -5.8919  -17.0848 O   0  0  0  0  0  0  0  0  0  0  0  0
   20.0855  -10.1503  -15.7528 C   0  0  0  0  0  0  0  0  0  0  0  0
   19.4370   -9.1171  -14.8915 C   0  0  1  0  0  0  0  0  0  0  0  0
   20.0021   -9.2039  -13.6028 O   0  0  0  0  0  0  0  0  0  0  0  0
   19.6207   -7.7046  -15.3375 C   0  0  2  0  0  0  0  0  0  0  0  0
   21.0496   -7.4342  -15.3104 N   0  0  0  0  0  0  0  0  0  0  0  0
   18.9295   -6.6937  -14.5342 C   0  0  0  0  0  0  0  0  0  0  0  0
   17.5388   -6.6013  -14.4461 O   0  0  0  0  0  0  0  0  0  0  0  0
   19.5824   -5.8580  -13.8831 O   0  0  0  0  0  0  0  0  0  0  0  0
  2  1  1  1
  2  3  1  0
  3  4  1  0
  4  5  2  0
  4  8  1  0
  6  2  1  0
  6 14  1  0
  7  6  2  0
  9 10  1  0
 10 12  1  0
 10 11  2  0
 13 12  1  6
 13 14  1  0
 13 15  1  0
 15 16  2  0
 18 17  1  6
 18 19  1  0
 20 18  1  0
 21 15  1  0
 20 21  1  1
 22 23  1  0
 22 20  1  0
 24 22  2  0
M  END
$$$$
