DNT.pdb
     RDKit          3D

 24 23  0  0  1  0  0  0  0  0999 V2000
   18.9006  -12.7464  -16.2444 N   0  0  0  0  0  0  0  0  0  0  0  0
   18.7249  -11.4964  -17.0004 C   0  0  1  0  0  0  0  0  0  0  0  0
   17.4439  -11.6479  -17.7435 C   0  0  0  0  0  0  0  0  0  0  0  0
   17.5796  -12.5086  -18.9057 C   0  0  0  0  0  0  0  0  0  0  0  0
   16.6829  -12.9777  -19.6254 O   0  0  0  0  0  0  0  0  0  0  0  0
   18.7745  -10.3501  -16.0552 C   0  0  0  0  0  0  0  0  0  0  0  0
   18.0220  -10.2132  -15.0720 O   0  0  0  0  0  0  0  0  0  0  0  0
   18.8910  -12.8725  -19.2866 O   0  0  0  0  0  0  0  0  0  0  0  0
   20.6655   -9.7271  -13.2378 N   0  0  0  0  0  0  0  0  0  0  0  0
   21.5499   -8.7736  -13.7865 C   0  0  0  0  0  0  0  0  0  0  0  0
   22.7270   -8.7355  -13.3634 O   0  0  0  0  0  0  0  0  0  0  0  0
   21.1319   -7.8235  -14.8395 C   0  0  0  0  0  0  0  0  0  0  0  0
   19.7547   -8.1526  -15.3521 C   0  0  2  0  0  0  0  0  0  0  0  0
   19.7415   -9.2901  -16.2388 N   0  0  0  0  0  0  0  0  0  0  0  0
   19.2741   -6.9399  -16.0903 C   0  0  0  0  0  0  0  0  0  0  0  0
   19.6749   -6.7732  -17.2635 O   0  0  0  0  0  0  0  0  0  0  0  0
   15.6419   -3.6557  -16.2816 C   0  0  0  0  0  0  0  0  0  0  0  0
   16.3888   -4.8304  -15.7412 C   0  0  1  0  0  0  0  0  0  0  0  0
   15.7759   -6.0019  -16.2308 O   0  0  0  0  0  0  0  0  0  0  0  0
   17.8263   -4.9114  -16.1348 C   0  0  2  0  0  0  0  0  0  0  0  0
   18.3957   -6.0479  -15.4278 N   0  0  0  0  0  0  0  0  0  0  0  0
   18.6283   -3.7205  -15.8458 C   0  0  0  0  0  0  0  0  0  0  0  0
   18.8946   -2.7259  -16.7893 O   0  0  0  0  0  0  0  0  0  0  0  0
   19.1131   -3.5524  -14.7121 O   0  0  0  0  0  0  0  0  0  0  0  0
  2  1  1  1
  2  3  1  0
  3  4  1  0
  4  5  2  0
  4  8  1  0
  6  2  1  0
  6 14  1  0
  7  6  2  0
  9 10  1  0
 10 12  1  0
 10 11  2  0
 13 12  1  6
 13 14  1  0
 13 15  1  0
 15 16  2  0
 18 17  1  6
 18 19  1  0
 20 18  1  0
 21 15  1  0
 20 21  1  1
 22 23  1  0
 22 20  1  0
 24 22  2  0
M  END
$$$$
