DNT.pdb
     RDKit          3D

 24 23  0  0  1  0  0  0  0  0999 V2000
   19.6442  -10.4873  -16.6467 N   0  0  0  0  0  0  0  0  0  0  0  0
   18.5427  -10.0994  -15.7517 C   0  0  1  0  0  0  0  0  0  0  0  0
   18.3219  -11.2640  -14.8511 C   0  0  0  0  0  0  0  0  0  0  0  0
   17.7849  -12.4134  -15.5584 C   0  0  0  0  0  0  0  0  0  0  0  0
   17.5279  -12.5217  -16.7685 O   0  0  0  0  0  0  0  0  0  0  0  0
   18.9024   -8.8305  -15.0659 C   0  0  0  0  0  0  0  0  0  0  0  0
   18.2710   -8.3416  -14.1099 O   0  0  0  0  0  0  0  0  0  0  0  0
   17.5122  -13.5696  -14.7928 O   0  0  0  0  0  0  0  0  0  0  0  0
   21.1089   -4.3650  -13.7484 N   0  0  0  0  0  0  0  0  0  0  0  0
   22.1157   -5.3326  -13.9547 C   0  0  0  0  0  0  0  0  0  0  0  0
   23.2792   -5.0772  -13.5713 O   0  0  0  0  0  0  0  0  0  0  0  0
   21.8407   -6.6312  -14.6058 C   0  0  0  0  0  0  0  0  0  0  0  0
   20.3680   -6.8064  -14.8671 C   0  0  2  0  0  0  0  0  0  0  0  0
   20.0541   -8.0669  -15.4939 N   0  0  0  0  0  0  0  0  0  0  0  0
   19.9598   -5.6842  -15.7730 C   0  0  0  0  0  0  0  0  0  0  0  0
   20.5911   -5.5382  -16.8431 O   0  0  0  0  0  0  0  0  0  0  0  0
   16.3964   -5.0706  -16.9819 C   0  0  0  0  0  0  0  0  0  0  0  0
   16.9411   -3.8614  -16.2956 C   0  0  1  0  0  0  0  0  0  0  0  0
   16.4938   -3.8781  -14.9586 O   0  0  0  0  0  0  0  0  0  0  0  0
   18.4300   -3.7726  -16.2403 C   0  0  2  0  0  0  0  0  0  0  0  0
   18.8868   -4.8495  -15.3758 N   0  0  0  0  0  0  0  0  0  0  0  0
   18.9691   -2.5039  -15.7459 C   0  0  0  0  0  0  0  0  0  0  0  0
   19.6072   -2.3693  -14.5109 O   0  0  0  0  0  0  0  0  0  0  0  0
   18.8719   -1.4718  -16.4344 O   0  0  0  0  0  0  0  0  0  0  0  0
  2  1  1  6
  2  3  1  0
  3  4  1  0
  4  5  2  0
  4  8  1  0
  6  2  1  0
  6 14  1  0
  7  6  2  0
  9 10  1  0
 10 12  1  0
 10 11  2  0
 13 12  1  6
 13 14  1  0
 13 15  1  0
 15 16  2  0
 18 17  1  1
 18 19  1  0
 20 18  1  0
 21 15  1  0
 20 21  1  1
 22 23  1  0
 22 20  1  0
 24 22  2  0
M  END
$$$$
