DNT.pdb
     RDKit          3D

 24 23  0  0  1  0  0  0  0  0999 V2000
   17.3182  -11.8289  -17.3708 N   0  0  0  0  0  0  0  0  0  0  0  0
   17.6881  -11.3923  -16.0154 C   0  0  1  0  0  0  0  0  0  0  0  0
   18.6870  -12.3828  -15.5282 C   0  0  0  0  0  0  0  0  0  0  0  0
   18.1010  -13.6936  -15.3080 C   0  0  0  0  0  0  0  0  0  0  0  0
   18.3642  -14.7613  -15.8848 O   0  0  0  0  0  0  0  0  0  0  0  0
   18.1701   -9.9874  -16.0758 C   0  0  0  0  0  0  0  0  0  0  0  0
   18.9554   -9.5473  -16.9367 O   0  0  0  0  0  0  0  0  0  0  0  0
   17.1009  -13.7920  -14.3143 O   0  0  0  0  0  0  0  0  0  0  0  0
   15.9473   -7.5454  -16.9015 N   0  0  0  0  0  0  0  0  0  0  0  0
   15.9351   -6.7130  -15.7616 C   0  0  0  0  0  0  0  0  0  0  0  0
   14.9366   -5.9854  -15.5621 O   0  0  0  0  0  0  0  0  0  0  0  0
   17.0585   -6.6735  -14.8011 C   0  0  0  0  0  0  0  0  0  0  0  0
   18.1436   -7.6407  -15.1947 C   0  0  2  0  0  0  0  0  0  0  0  0
   17.7318   -9.0192  -15.0944 N   0  0  0  0  0  0  0  0  0  0  0  0
   19.2917   -7.3947  -14.2630 C   0  0  0  0  0  0  0  0  0  0  0  0
   19.1915   -7.8144  -13.0889 O   0  0  0  0  0  0  0  0  0  0  0  0
   22.5578   -8.7941  -14.4582 C   0  0  0  0  0  0  0  0  0  0  0  0
   22.7050   -7.3103  -14.5385 C   0  0  1  0  0  0  0  0  0  0  0  0
   22.7341   -6.9462  -15.9002 O   0  0  0  0  0  0  0  0  0  0  0  0
   21.6007   -6.5226  -13.9156 C   0  0  2  0  0  0  0  0  0  0  0  0
   20.4262   -6.7034  -14.7542 N   0  0  0  0  0  0  0  0  0  0  0  0
   21.8579   -5.0894  -13.7589 C   0  0  0  0  0  0  0  0  0  0  0  0
   22.7424   -4.5663  -12.8132 O   0  0  0  0  0  0  0  0  0  0  0  0
   21.2766   -4.2658  -14.4886 O   0  0  0  0  0  0  0  0  0  0  0  0
  2  1  1  6
  2  3  1  0
  3  4  1  0
  4  5  2  0
  4  8  1  0
  6  2  1  0
  6 14  1  0
  7  6  2  0
  9 10  1  0
 10 12  1  0
 10 11  2  0
 13 12  1  1
 13 14  1  0
 13 15  1  0
 15 16  2  0
 18 17  1  6
 18 19  1  0
 20 18  1  0
 21 15  1  0
 20 21  1  6
 22 23  1  0
 22 20  1  0
 24 22  2  0
M  END
$$$$
