DNT.pdb
     RDKit          3D

 24 23  0  0  1  0  0  0  0  0999 V2000
   18.2997  -13.0793  -16.9507 N   0  0  0  0  0  0  0  0  0  0  0  0
   18.0015  -11.8126  -16.2640 C   0  0  1  0  0  0  0  0  0  0  0  0
   17.1663  -12.1759  -15.0865 C   0  0  0  0  0  0  0  0  0  0  0  0
   15.8636  -12.6898  -15.4725 C   0  0  0  0  0  0  0  0  0  0  0  0
   15.0171  -12.1638  -16.2134 O   0  0  0  0  0  0  0  0  0  0  0  0
   19.2799  -11.1253  -15.9430 C   0  0  0  0  0  0  0  0  0  0  0  0
   20.2959  -11.6951  -15.5017 O   0  0  0  0  0  0  0  0  0  0  0  0
   15.4888  -13.9487  -14.9511 O   0  0  0  0  0  0  0  0  0  0  0  0
   20.2442   -8.6051  -19.2597 N   0  0  0  0  0  0  0  0  0  0  0  0
   20.8877   -8.0651  -18.1254 C   0  0  0  0  0  0  0  0  0  0  0  0
   20.9097   -6.8217  -17.9847 O   0  0  0  0  0  0  0  0  0  0  0  0
   21.5332   -8.9169  -17.1038 C   0  0  0  0  0  0  0  0  0  0  0  0
   20.6703   -9.0405  -15.8758 C   0  0  2  0  0  0  0  0  0  0  0  0
   19.4131   -9.6978  -16.1356 N   0  0  0  0  0  0  0  0  0  0  0  0
   20.4126   -7.6446  -15.3944 C   0  0  0  0  0  0  0  0  0  0  0  0
   19.5036   -6.9923  -15.9538 O   0  0  0  0  0  0  0  0  0  0  0  0
   19.1606   -6.6984  -12.3214 C   0  0  0  0  0  0  0  0  0  0  0  0
   20.4452   -5.9458  -12.4359 C   0  0  1  0  0  0  0  0  0  0  0  0
   21.4287   -6.6447  -11.7064 O   0  0  0  0  0  0  0  0  0  0  0  0
   20.9774   -5.7947  -13.8222 C   0  0  2  0  0  0  0  0  0  0  0  0
   21.2057   -7.1359  -14.3369 N   0  0  0  0  0  0  0  0  0  0  0  0
   22.2154   -5.0214  -13.9426 C   0  0  0  0  0  0  0  0  0  0  0  0
   22.3092   -3.6660  -13.6195 O   0  0  0  0  0  0  0  0  0  0  0  0
   23.2569   -5.5670  -14.3501 O   0  0  0  0  0  0  0  0  0  0  0  0
  2  1  1  1
  2  3  1  0
  3  4  1  0
  4  5  2  0
  4  8  1  0
  6  2  1  0
  6 14  1  0
  7  6  2  0
  9 10  1  0
 10 12  1  0
 10 11  2  0
 13 12  1  6
 13 14  1  0
 13 15  1  0
 15 16  2  0
 18 17  1  6
 18 19  1  0
 20 18  1  0
 21 15  1  0
 20 21  1  1
 22 23  1  0
 22 20  1  0
 24 22  2  0
M  END
$$$$
