LEM.pdb
     RDKit          3D

 26 25  0  0  1  0  0  0  0  0999 V2000
    7.0393  -12.1436   20.9939 C   0  0  0  0  0  0  0  0  0  0  0  0
    7.4018  -13.4799   20.3979 C   0  0  1  0  0  0  0  0  0  0  0  0
    8.4283  -13.2508   19.3070 C   0  0  0  0  0  0  0  0  0  0  0  0
    7.9845  -14.3873   21.4406 C   0  0  0  0  0  0  0  0  0  0  0  0
    8.2977  -15.7665   20.9333 C   0  0  2  0  0  0  0  0  0  0  0  0
    7.0829  -16.4853   20.6866 N   0  0  0  0  0  0  0  0  0  0  0  0
    9.0920  -16.4741   21.9469 C   0  0  0  0  0  0  0  0  0  0  0  0
    8.4812  -16.9903   22.9406 O   0  0  0  0  0  0  0  0  0  0  0  0
   10.5193  -16.6301   21.9041 N   0  0  0  0  0  0  0  0  0  0  0  0
   11.1970  -17.3040   22.9582 C   0  0  1  0  0  0  0  0  0  0  0  0
   12.5535  -17.7525   22.5687 C   0  0  0  0  0  0  0  0  0  0  0  0
   13.3706  -18.5076   23.5340 C   0  0  0  0  0  0  0  0  0  0  0  0
   14.7062  -18.9369   23.0779 C   0  0  0  0  0  0  0  0  0  0  0  0
   15.5352  -18.1489   22.5147 O   0  0  0  0  0  0  0  0  0  0  0  0
   11.1660  -16.5565   24.2423 C   0  0  0  0  0  0  0  0  0  0  0  0
   11.3750  -15.3168   24.2836 O   0  0  0  0  0  0  0  0  0  0  0  0
   15.1326  -20.2466   23.2439 O   0  0  0  0  0  0  0  0  0  0  0  0
    8.7012  -12.4221   26.6731 C   0  0  0  0  0  0  0  0  0  0  0  0
   10.0119  -12.9581   27.8195 S   0  0  0  0  0  0  0  0  0  0  0  0
    9.8224  -14.7532   28.1785 C   0  0  0  0  0  0  0  0  0  0  0  0
    9.9235  -15.4487   26.8588 C   0  0  0  0  0  0  0  0  0  0  0  0
   11.0143  -16.4579   26.7337 C   0  0  2  0  0  0  0  0  0  0  0  0
   10.8991  -17.2091   25.4778 N   0  0  0  0  0  0  0  0  0  0  0  0
   10.9642  -17.4192   27.8428 C   0  0  0  0  0  0  0  0  0  0  0  0
   10.7694  -18.7838   27.5538 O   0  0  0  0  0  0  0  0  0  0  0  0
   11.0837  -17.1203   29.0613 O   0  0  0  0  0  0  0  0  0  0  0  0
  2  1  1  1
  2  3  1  0
  4  5  1  0
  4  2  1  0
  5  6  1  1
  7  8  2  0
  7  5  1  0
  9  7  1  0
 10  9  1  0
 10 11  1  6
 12 13  1  0
 12 11  1  0
 13 14  2  0
 13 17  1  0
 15 23  1  0
 15 10  1  0
 16 15  2  0
 19 20  1  0
 19 18  1  0
 20 21  1  0
 22 21  1  1
 22 24  1  0
 22 23  1  0
 24 25  1  0
 26 24  2  0
M  END
$$$$
