LEM.pdb
     RDKit          3D

 26 25  0  0  1  0  0  0  0  0999 V2000
    7.2976  -11.8430   19.5818 C   0  0  0  0  0  0  0  0  0  0  0  0
    7.6459  -13.2444   19.1490 C   0  0  1  0  0  0  0  0  0  0  0  0
    8.8537  -13.1735   18.2365 C   0  0  0  0  0  0  0  0  0  0  0  0
    7.9739  -14.1018   20.3354 C   0  0  0  0  0  0  0  0  0  0  0  0
    8.3246  -15.5183   19.9776 C   0  0  2  0  0  0  0  0  0  0  0  0
    7.1778  -16.1850   19.4356 N   0  0  0  0  0  0  0  0  0  0  0  0
    8.7724  -16.2155   21.1909 C   0  0  0  0  0  0  0  0  0  0  0  0
    7.8921  -16.5712   22.0427 O   0  0  0  0  0  0  0  0  0  0  0  0
   10.1408  -16.5300   21.4947 N   0  0  0  0  0  0  0  0  0  0  0  0
   10.4714  -17.1749   22.7193 C   0  0  1  0  0  0  0  0  0  0  0  0
   11.7714  -17.8813   22.6585 C   0  0  0  0  0  0  0  0  0  0  0  0
   12.2740  -18.5759   23.8562 C   0  0  0  0  0  0  0  0  0  0  0  0
   13.5827  -19.2454   23.7332 C   0  0  0  0  0  0  0  0  0  0  0  0
   14.4948  -18.8480   22.9361 O   0  0  0  0  0  0  0  0  0  0  0  0
   10.3355  -16.2847   23.9016 C   0  0  0  0  0  0  0  0  0  0  0  0
   10.9403  -15.1835   23.9653 O   0  0  0  0  0  0  0  0  0  0  0  0
   13.8895  -20.3631   24.4956 O   0  0  0  0  0  0  0  0  0  0  0  0
    7.3017  -11.4245   26.4926 C   0  0  0  0  0  0  0  0  0  0  0  0
    6.6918  -13.0025   27.1685 S   0  0  0  0  0  0  0  0  0  0  0  0
    8.1132  -14.1251   27.4951 C   0  0  0  0  0  0  0  0  0  0  0  0
    8.3530  -14.8659   26.2188 C   0  0  0  0  0  0  0  0  0  0  0  0
    9.5199  -15.7945   26.2111 C   0  0  2  0  0  0  0  0  0  0  0  0
    9.5172  -16.6385   25.0101 N   0  0  0  0  0  0  0  0  0  0  0  0
    9.4911  -16.6767   27.3849 C   0  0  0  0  0  0  0  0  0  0  0  0
    9.8781  -16.1590   28.6363 O   0  0  0  0  0  0  0  0  0  0  0  0
    9.1410  -17.8872   27.3680 O   0  0  0  0  0  0  0  0  0  0  0  0
  2  1  1  1
  2  3  1  0
  4  5  1  0
  4  2  1  0
  5  6  1  1
  7  8  2  0
  7  5  1  0
  9  7  1  0
 10  9  1  0
 10 11  1  6
 12 13  1  0
 12 11  1  0
 13 14  2  0
 13 17  1  0
 15 23  1  0
 15 10  1  0
 16 15  2  0
 19 20  1  0
 19 18  1  0
 20 21  1  0
 22 21  1  6
 22 24  1  0
 22 23  1  0
 24 25  1  0
 26 24  2  0
M  END
$$$$
