LEM.pdb
     RDKit          3D

 26 25  0  0  1  0  0  0  0  0999 V2000
    7.3232  -11.7411   19.5939 C   0  0  0  0  0  0  0  0  0  0  0  0
    7.5690  -13.1844   19.2352 C   0  0  1  0  0  0  0  0  0  0  0  0
    8.6804  -13.2356   18.2063 C   0  0  0  0  0  0  0  0  0  0  0  0
    7.9801  -13.9709   20.4446 C   0  0  0  0  0  0  0  0  0  0  0  0
    8.1831  -15.4345   20.1722 C   0  0  2  0  0  0  0  0  0  0  0  0
    6.9378  -16.0423   19.8075 N   0  0  0  0  0  0  0  0  0  0  0  0
    8.7064  -16.0735   21.3874 C   0  0  0  0  0  0  0  0  0  0  0  0
    7.8726  -16.4770   22.2644 O   0  0  0  0  0  0  0  0  0  0  0  0
   10.1002  -16.2803   21.6665 N   0  0  0  0  0  0  0  0  0  0  0  0
   10.4978  -17.0038   22.8255 C   0  0  1  0  0  0  0  0  0  0  0  0
   11.8126  -17.6649   22.6615 C   0  0  0  0  0  0  0  0  0  0  0  0
   12.3251  -18.5326   23.7358 C   0  0  0  0  0  0  0  0  0  0  0  0
   13.5966  -19.2324   23.4720 C   0  0  0  0  0  0  0  0  0  0  0  0
   14.3668  -19.6483   24.3989 O   0  0  0  0  0  0  0  0  0  0  0  0
   10.3867  -16.2078   24.0756 C   0  0  0  0  0  0  0  0  0  0  0  0
   11.0191  -15.1307   24.2246 O   0  0  0  0  0  0  0  0  0  0  0  0
   14.0236  -19.4765   22.1747 O   0  0  0  0  0  0  0  0  0  0  0  0
    6.6450  -11.9795   27.3042 C   0  0  0  0  0  0  0  0  0  0  0  0
    6.2893  -13.4429   26.2790 S   0  0  0  0  0  0  0  0  0  0  0  0
    7.8666  -14.1604   25.6585 C   0  0  0  0  0  0  0  0  0  0  0  0
    8.2615  -15.2050   26.6525 C   0  0  0  0  0  0  0  0  0  0  0  0
    9.5737  -15.8720   26.4135 C   0  0  2  0  0  0  0  0  0  0  0  0
    9.5619  -16.6285   25.1556 N   0  0  0  0  0  0  0  0  0  0  0  0
    9.8884  -16.8070   27.5015 C   0  0  0  0  0  0  0  0  0  0  0  0
   10.0262  -18.1769   27.2045 O   0  0  0  0  0  0  0  0  0  0  0  0
   10.0501  -16.4804   28.7079 O   0  0  0  0  0  0  0  0  0  0  0  0
  2  1  1  1
  2  3  1  0
  4  5  1  0
  4  2  1  0
  5  6  1  1
  7  8  2  0
  7  5  1  0
  9  7  1  0
 10  9  1  0
 10 11  1  6
 12 13  1  0
 12 11  1  0
 13 14  2  0
 13 17  1  0
 15 23  1  0
 15 10  1  0
 16 15  2  0
 19 20  1  0
 19 18  1  0
 20 21  1  0
 22 21  1  1
 22 24  1  0
 22 23  1  0
 24 25  1  0
 26 24  2  0
M  END
$$$$
