LEM.pdb
     RDKit          3D

 26 25  0  0  1  0  0  0  0  0999 V2000
    6.7589  -11.8507   26.7625 C   0  0  0  0  0  0  0  0  0  0  0  0
    6.2827  -12.8360   25.7257 C   0  0  1  0  0  0  0  0  0  0  0  0
    6.3158  -12.1548   24.3724 C   0  0  0  0  0  0  0  0  0  0  0  0
    7.1716  -14.0439   25.6915 C   0  0  0  0  0  0  0  0  0  0  0  0
    6.6666  -15.1393   24.7956 C   0  0  2  0  0  0  0  0  0  0  0  0
    5.5328  -15.7785   25.3947 N   0  0  0  0  0  0  0  0  0  0  0  0
    7.7406  -16.1228   24.5999 C   0  0  0  0  0  0  0  0  0  0  0  0
    7.9120  -17.0159   25.4943 O   0  0  0  0  0  0  0  0  0  0  0  0
    8.6221  -16.1553   23.4661 N   0  0  0  0  0  0  0  0  0  0  0  0
    9.7088  -17.0732   23.4314 C   0  0  1  0  0  0  0  0  0  0  0  0
   10.3228  -17.1790   22.0880 C   0  0  0  0  0  0  0  0  0  0  0  0
   11.5229  -18.0131   21.9048 C   0  0  0  0  0  0  0  0  0  0  0  0
   12.1028  -18.0503   20.5489 C   0  0  0  0  0  0  0  0  0  0  0  0
   12.7430  -19.0543   20.0937 O   0  0  0  0  0  0  0  0  0  0  0  0
   10.6969  -16.8474   24.5183 C   0  0  0  0  0  0  0  0  0  0  0  0
   11.4225  -15.8201   24.5409 O   0  0  0  0  0  0  0  0  0  0  0  0
   11.9761  -16.9711   19.6863 O   0  0  0  0  0  0  0  0  0  0  0  0
    9.2886  -14.1140   28.3328 C   0  0  0  0  0  0  0  0  0  0  0  0
   10.6266  -14.5430   29.4925 S   0  0  0  0  0  0  0  0  0  0  0  0
   11.5098  -16.0410   28.8897 C   0  0  0  0  0  0  0  0  0  0  0  0
   10.9934  -16.2944   27.5096 C   0  0  0  0  0  0  0  0  0  0  0  0
   11.6500  -17.4034   26.7593 C   0  0  2  0  0  0  0  0  0  0  0  0
   10.8647  -17.7814   25.5782 N   0  0  0  0  0  0  0  0  0  0  0  0
   11.7930  -18.5933   27.6081 C   0  0  0  0  0  0  0  0  0  0  0  0
   12.6839  -18.5500   28.6981 O   0  0  0  0  0  0  0  0  0  0  0  0
   11.1712  -19.6767   27.4407 O   0  0  0  0  0  0  0  0  0  0  0  0
  2  1  1  1
  2  3  1  0
  4  5  1  0
  4  2  1  0
  5  6  1  1
  7  8  2  0
  7  5  1  0
  9  7  1  0
 10  9  1  0
 10 11  1  6
 12 13  1  0
 12 11  1  0
 13 14  2  0
 13 17  1  0
 15 23  1  0
 15 10  1  0
 16 15  2  0
 19 20  1  0
 19 18  1  0
 20 21  1  0
 22 21  1  1
 22 24  1  0
 22 23  1  0
 24 25  1  0
 26 24  2  0
M  END
$$$$
