LEM.pdb
     RDKit          3D

 26 25  0  0  1  0  0  0  0  0999 V2000
    7.6322  -11.9649   19.1704 C   0  0  0  0  0  0  0  0  0  0  0  0
    7.8463  -13.4315   18.8951 C   0  0  1  0  0  0  0  0  0  0  0  0
    9.1207  -13.5825   18.0892 C   0  0  0  0  0  0  0  0  0  0  0  0
    7.9794  -14.1996   20.1768 C   0  0  0  0  0  0  0  0  0  0  0  0
    8.1435  -15.6800   19.9786 C   0  0  2  0  0  0  0  0  0  0  0  0
    6.8978  -16.2611   19.5739 N   0  0  0  0  0  0  0  0  0  0  0  0
    8.5793  -16.2813   21.2464 C   0  0  0  0  0  0  0  0  0  0  0  0
    7.7272  -16.3849   22.1900 O   0  0  0  0  0  0  0  0  0  0  0  0
    9.9060  -16.7662   21.5074 N   0  0  0  0  0  0  0  0  0  0  0  0
   10.2244  -17.3319   22.7737 C   0  0  1  0  0  0  0  0  0  0  0  0
   11.4495  -18.1628   22.7349 C   0  0  0  0  0  0  0  0  0  0  0  0
   12.6747  -17.6172   22.1258 C   0  0  0  0  0  0  0  0  0  0  0  0
   13.9519  -17.9811   22.7679 C   0  0  0  0  0  0  0  0  0  0  0  0
   14.0278  -18.7660   23.7696 O   0  0  0  0  0  0  0  0  0  0  0  0
   10.2199  -16.3340   23.8750 C   0  0  0  0  0  0  0  0  0  0  0  0
   10.6887  -15.1780   23.7134 O   0  0  0  0  0  0  0  0  0  0  0  0
   15.1570  -17.4757   22.3019 O   0  0  0  0  0  0  0  0  0  0  0  0
    6.7943  -11.2557   26.5681 C   0  0  0  0  0  0  0  0  0  0  0  0
    6.5037  -13.0375   26.8132 S   0  0  0  0  0  0  0  0  0  0  0  0
    8.0922  -13.8715   27.2235 C   0  0  0  0  0  0  0  0  0  0  0  0
    8.3466  -14.8394   26.1128 C   0  0  0  0  0  0  0  0  0  0  0  0
    9.6280  -15.5985   26.1877 C   0  0  2  0  0  0  0  0  0  0  0  0
    9.6863  -16.6423   25.1572 N   0  0  0  0  0  0  0  0  0  0  0  0
    9.7737  -16.2465   27.4975 C   0  0  0  0  0  0  0  0  0  0  0  0
   10.0401  -17.6286   27.5484 O   0  0  0  0  0  0  0  0  0  0  0  0
    9.6787  -15.6571   28.6075 O   0  0  0  0  0  0  0  0  0  0  0  0
  2  1  1  1
  2  3  1  0
  4  5  1  0
  4  2  1  0
  5  6  1  1
  7  8  2  0
  7  5  1  0
  9  7  1  0
 10  9  1  0
 10 11  1  6
 12 13  1  0
 12 11  1  0
 13 14  2  0
 13 17  1  0
 15 23  1  0
 15 10  1  0
 16 15  2  0
 19 20  1  0
 19 18  1  0
 20 21  1  0
 22 21  1  1
 22 24  1  0
 22 23  1  0
 24 25  1  0
 26 24  2  0
M  END
$$$$
