LEM.pdb
     RDKit          3D

 26 25  0  0  1  0  0  0  0  0999 V2000
    6.4700  -13.1966   18.2687 C   0  0  0  0  0  0  0  0  0  0  0  0
    7.8678  -13.6747   18.5690 C   0  0  1  0  0  0  0  0  0  0  0  0
    8.8263  -12.5280   18.3182 C   0  0  0  0  0  0  0  0  0  0  0  0
    7.9850  -14.1115   19.9993 C   0  0  0  0  0  0  0  0  0  0  0  0
    9.3962  -14.3973   20.4291 C   0  0  2  0  0  0  0  0  0  0  0  0
   10.1194  -15.0142   19.3568 N   0  0  0  0  0  0  0  0  0  0  0  0
    9.3639  -15.3018   21.5865 C   0  0  0  0  0  0  0  0  0  0  0  0
    8.4185  -15.1671   22.4321 O   0  0  0  0  0  0  0  0  0  0  0  0
   10.3264  -16.3372   21.8416 N   0  0  0  0  0  0  0  0  0  0  0  0
   10.2828  -17.0696   23.0607 C   0  0  1  0  0  0  0  0  0  0  0  0
   11.2269  -18.2103   23.0744 C   0  0  0  0  0  0  0  0  0  0  0  0
   11.3273  -19.0519   24.2791 C   0  0  0  0  0  0  0  0  0  0  0  0
   12.2505  -20.2003   24.2096 C   0  0  0  0  0  0  0  0  0  0  0  0
   13.3982  -20.2044   24.7647 O   0  0  0  0  0  0  0  0  0  0  0  0
   10.3825  -16.2036   24.2643 C   0  0  0  0  0  0  0  0  0  0  0  0
   11.3536  -15.4214   24.4299 O   0  0  0  0  0  0  0  0  0  0  0  0
   11.9062  -21.3550   23.5221 O   0  0  0  0  0  0  0  0  0  0  0  0
    6.7355  -11.1264   26.2078 C   0  0  0  0  0  0  0  0  0  0  0  0
    6.5275  -12.5479   27.3282 S   0  0  0  0  0  0  0  0  0  0  0  0
    8.1388  -13.4134   27.5335 C   0  0  0  0  0  0  0  0  0  0  0  0
    8.1978  -14.4350   26.4434 C   0  0  0  0  0  0  0  0  0  0  0  0
    9.4483  -15.2446   26.3732 C   0  0  2  0  0  0  0  0  0  0  0  0
    9.3859  -16.2215   25.2794 N   0  0  0  0  0  0  0  0  0  0  0  0
    9.6634  -15.9802   27.6259 C   0  0  0  0  0  0  0  0  0  0  0  0
   10.0273  -15.2641   28.7830 O   0  0  0  0  0  0  0  0  0  0  0  0
    9.5473  -17.2282   27.7577 O   0  0  0  0  0  0  0  0  0  0  0  0
  2  1  1  1
  2  3  1  0
  4  5  1  0
  4  2  1  0
  5  6  1  6
  7  8  2  0
  7  5  1  0
  9  7  1  0
 10  9  1  0
 10 11  1  6
 12 13  1  0
 12 11  1  0
 13 14  2  0
 13 17  1  0
 15 23  1  0
 15 10  1  0
 16 15  2  0
 19 20  1  0
 19 18  1  0
 20 21  1  0
 22 21  1  1
 22 24  1  0
 22 23  1  0
 24 25  1  0
 26 24  2  0
M  END
$$$$
