LEM.pdb
     RDKit          3D

 26 25  0  0  1  0  0  0  0  0999 V2000
    6.7374  -12.5722   19.1115 C   0  0  0  0  0  0  0  0  0  0  0  0
    7.9083  -13.5180   19.0291 C   0  0  1  0  0  0  0  0  0  0  0  0
    9.1223  -12.7328   18.5752 C   0  0  0  0  0  0  0  0  0  0  0  0
    8.1911  -14.1329   20.3679 C   0  0  0  0  0  0  0  0  0  0  0  0
    9.4205  -14.9964   20.3877 C   0  0  2  0  0  0  0  0  0  0  0  0
    9.3784  -15.9334   19.3044 N   0  0  0  0  0  0  0  0  0  0  0  0
    9.4686  -15.7213   21.6648 C   0  0  0  0  0  0  0  0  0  0  0  0
    8.4625  -15.6386   22.4445 O   0  0  0  0  0  0  0  0  0  0  0  0
   10.5744  -16.5244   22.1075 N   0  0  0  0  0  0  0  0  0  0  0  0
   10.5100  -17.2041   23.3559 C   0  0  1  0  0  0  0  0  0  0  0  0
   11.4912  -18.3087   23.4547 C   0  0  0  0  0  0  0  0  0  0  0  0
   11.6074  -19.0626   24.7148 C   0  0  0  0  0  0  0  0  0  0  0  0
   12.5544  -20.1936   24.7248 C   0  0  0  0  0  0  0  0  0  0  0  0
   13.0512  -20.6750   25.7957 O   0  0  0  0  0  0  0  0  0  0  0  0
   10.5349  -16.2834   24.5223 C   0  0  0  0  0  0  0  0  0  0  0  0
   11.4752  -15.4649   24.6907 O   0  0  0  0  0  0  0  0  0  0  0  0
   12.9577  -20.8001   23.5441 O   0  0  0  0  0  0  0  0  0  0  0  0
    6.7910  -10.7978   25.3276 C   0  0  0  0  0  0  0  0  0  0  0  0
    6.8038  -12.4021   26.1910 S   0  0  0  0  0  0  0  0  0  0  0  0
    8.4403  -13.2129   25.9634 C   0  0  0  0  0  0  0  0  0  0  0  0
    8.3684  -14.5017   26.7179 C   0  0  0  0  0  0  0  0  0  0  0  0
    9.5769  -15.3722   26.6416 C   0  0  2  0  0  0  0  0  0  0  0  0
    9.4987  -16.2877   25.4969 N   0  0  0  0  0  0  0  0  0  0  0  0
    9.7140  -16.1808   27.8599 C   0  0  0  0  0  0  0  0  0  0  0  0
   10.0884  -15.5465   29.0604 O   0  0  0  0  0  0  0  0  0  0  0  0
    9.5203  -17.4244   27.9248 O   0  0  0  0  0  0  0  0  0  0  0  0
  2  1  1  1
  2  3  1  0
  4  5  1  0
  4  2  1  0
  5  6  1  6
  7  8  2  0
  7  5  1  0
  9  7  1  0
 10  9  1  0
 10 11  1  1
 12 13  1  0
 12 11  1  0
 13 14  2  0
 13 17  1  0
 15 23  1  0
 15 10  1  0
 16 15  2  0
 19 20  1  0
 19 18  1  0
 20 21  1  0
 22 21  1  1
 22 24  1  0
 22 23  1  0
 24 25  1  0
 26 24  2  0
M  END
$$$$
