LEM.pdb
     RDKit          3D

 26 25  0  0  1  0  0  0  0  0999 V2000
    8.9941  -13.0730   18.7611 C   0  0  0  0  0  0  0  0  0  0  0  0
    8.2101  -13.7197   19.8745 C   0  0  1  0  0  0  0  0  0  0  0  0
    7.3420  -12.6598   20.5221 C   0  0  0  0  0  0  0  0  0  0  0  0
    7.3353  -14.8160   19.3423 C   0  0  0  0  0  0  0  0  0  0  0  0
    8.0315  -16.1428   19.2307 C   0  0  2  0  0  0  0  0  0  0  0  0
    7.1233  -17.1321   18.7310 N   0  0  0  0  0  0  0  0  0  0  0  0
    8.5090  -16.5398   20.5623 C   0  0  0  0  0  0  0  0  0  0  0  0
    7.6453  -16.7310   21.4813 O   0  0  0  0  0  0  0  0  0  0  0  0
    9.8891  -16.7305   20.9123 N   0  0  0  0  0  0  0  0  0  0  0  0
   10.2395  -17.2045   22.2073 C   0  0  1  0  0  0  0  0  0  0  0  0
   11.5115  -17.9627   22.2119 C   0  0  0  0  0  0  0  0  0  0  0  0
   12.0526  -18.4602   23.4883 C   0  0  0  0  0  0  0  0  0  0  0  0
   13.3355  -19.1855   23.4259 C   0  0  0  0  0  0  0  0  0  0  0  0
   13.9614  -19.5820   24.4634 O   0  0  0  0  0  0  0  0  0  0  0  0
   10.1755  -16.1484   23.2511 C   0  0  0  0  0  0  0  0  0  0  0  0
   10.9125  -15.1304   23.1989 O   0  0  0  0  0  0  0  0  0  0  0  0
   13.9347  -19.4768   22.2090 O   0  0  0  0  0  0  0  0  0  0  0  0
    6.1348  -11.2409   27.4990 C   0  0  0  0  0  0  0  0  0  0  0  0
    6.3340  -12.5726   26.2718 S   0  0  0  0  0  0  0  0  0  0  0  0
    7.9645  -13.3926   26.5095 C   0  0  0  0  0  0  0  0  0  0  0  0
    8.0890  -14.3878   25.4007 C   0  0  0  0  0  0  0  0  0  0  0  0
    9.3224  -15.2261   25.4101 C   0  0  2  0  0  0  0  0  0  0  0  0
    9.2797  -16.2428   24.3522 N   0  0  0  0  0  0  0  0  0  0  0  0
    9.4725  -15.9173   26.6971 C   0  0  0  0  0  0  0  0  0  0  0  0
    9.7565  -15.1586   27.8492 O   0  0  0  0  0  0  0  0  0  0  0  0
    9.3662  -17.1621   26.8631 O   0  0  0  0  0  0  0  0  0  0  0  0
  2  1  1  6
  2  3  1  0
  4  5  1  0
  4  2  1  0
  5  6  1  1
  7  8  2  0
  7  5  1  0
  9  7  1  0
 10  9  1  0
 10 11  1  6
 12 13  1  0
 12 11  1  0
 13 14  2  0
 13 17  1  0
 15 23  1  0
 15 10  1  0
 16 15  2  0
 19 20  1  0
 19 18  1  0
 20 21  1  0
 22 21  1  1
 22 24  1  0
 22 23  1  0
 24 25  1  0
 26 24  2  0
M  END
$$$$
