LEM.pdb
     RDKit          3D

 26 25  0  0  1  0  0  0  0  0999 V2000
    7.3874  -12.0300   18.9523 C   0  0  0  0  0  0  0  0  0  0  0  0
    7.8876  -13.4211   18.6571 C   0  0  1  0  0  0  0  0  0  0  0  0
    9.2701  -13.3092   18.0466 C   0  0  0  0  0  0  0  0  0  0  0  0
    7.9681  -14.2356   19.9142 C   0  0  0  0  0  0  0  0  0  0  0  0
    8.4184  -15.6512   19.6881 C   0  0  2  0  0  0  0  0  0  0  0  0
    7.4200  -16.3717   18.9550 N   0  0  0  0  0  0  0  0  0  0  0  0
    8.6320  -16.2934   20.9922 C   0  0  0  0  0  0  0  0  0  0  0  0
    7.6105  -16.5627   21.7072 O   0  0  0  0  0  0  0  0  0  0  0  0
    9.9171  -16.6446   21.5295 N   0  0  0  0  0  0  0  0  0  0  0  0
   10.0105  -17.3049   22.7864 C   0  0  1  0  0  0  0  0  0  0  0  0
   11.1248  -18.2788   22.8372 C   0  0  0  0  0  0  0  0  0  0  0  0
   12.4951  -17.8262   22.5425 C   0  0  0  0  0  0  0  0  0  0  0  0
   13.3964  -18.8098   21.9130 C   0  0  0  0  0  0  0  0  0  0  0  0
   13.6853  -18.7933   20.6714 O   0  0  0  0  0  0  0  0  0  0  0  0
    9.9896  -16.3677   23.9397 C   0  0  0  0  0  0  0  0  0  0  0  0
   10.8216  -15.4292   24.0360 O   0  0  0  0  0  0  0  0  0  0  0  0
   13.9850  -19.8210   22.6584 O   0  0  0  0  0  0  0  0  0  0  0  0
    7.2701  -11.0356   26.2455 C   0  0  0  0  0  0  0  0  0  0  0  0
    6.4923  -12.5488   26.8971 S   0  0  0  0  0  0  0  0  0  0  0  0
    7.7951  -13.7688   27.3461 C   0  0  0  0  0  0  0  0  0  0  0  0
    7.8508  -14.7449   26.2149 C   0  0  0  0  0  0  0  0  0  0  0  0
    9.0853  -15.5773   26.1299 C   0  0  2  0  0  0  0  0  0  0  0  0
    9.0298  -16.4910   24.9824 N   0  0  0  0  0  0  0  0  0  0  0  0
    9.2533  -16.3852   27.3447 C   0  0  0  0  0  0  0  0  0  0  0  0
    9.6032  -15.7421   28.5480 O   0  0  0  0  0  0  0  0  0  0  0  0
    9.1075  -17.6356   27.4044 O   0  0  0  0  0  0  0  0  0  0  0  0
  2  1  1  1
  2  3  1  0
  4  5  1  0
  4  2  1  0
  5  6  1  1
  7  8  2  0
  7  5  1  0
  9  7  1  0
 10  9  1  0
 10 11  1  6
 12 13  1  0
 12 11  1  0
 13 14  2  0
 13 17  1  0
 15 23  1  0
 15 10  1  0
 16 15  2  0
 19 20  1  0
 19 18  1  0
 20 21  1  0
 22 21  1  1
 22 24  1  0
 22 23  1  0
 24 25  1  0
 26 24  2  0
M  END
$$$$
