LEM.pdb
     RDKit          3D

 26 25  0  0  1  0  0  0  0  0999 V2000
    6.5872  -12.8897   18.7170 C   0  0  0  0  0  0  0  0  0  0  0  0
    7.9420  -13.5439   18.8119 C   0  0  1  0  0  0  0  0  0  0  0  0
    8.9991  -12.4609   18.7326 C   0  0  0  0  0  0  0  0  0  0  0  0
    8.0874  -14.2808   20.1104 C   0  0  0  0  0  0  0  0  0  0  0  0
    9.4999  -14.6925   20.4154 C   0  0  2  0  0  0  0  0  0  0  0  0
   10.0191  -15.4918   19.3455 N   0  0  0  0  0  0  0  0  0  0  0  0
    9.5067  -15.4717   21.6611 C   0  0  0  0  0  0  0  0  0  0  0  0
    8.6496  -15.1810   22.5599 O   0  0  0  0  0  0  0  0  0  0  0  0
   10.4149  -16.5472   21.9472 N   0  0  0  0  0  0  0  0  0  0  0  0
   10.3438  -17.2310   23.1931 C   0  0  1  0  0  0  0  0  0  0  0  0
   11.2425  -18.4065   23.2502 C   0  0  0  0  0  0  0  0  0  0  0  0
   11.2450  -19.2575   24.4525 C   0  0  0  0  0  0  0  0  0  0  0  0
   11.2420  -20.7159   24.2314 C   0  0  0  0  0  0  0  0  0  0  0  0
   10.4523  -21.5099   24.8408 O   0  0  0  0  0  0  0  0  0  0  0  0
   10.4784  -16.3249   24.3633 C   0  0  0  0  0  0  0  0  0  0  0  0
   11.5173  -15.6393   24.5447 O   0  0  0  0  0  0  0  0  0  0  0  0
   12.1170  -21.3053   23.3305 O   0  0  0  0  0  0  0  0  0  0  0  0
    6.3980  -10.8933   26.3604 C   0  0  0  0  0  0  0  0  0  0  0  0
    6.6308  -12.6168   26.9031 S   0  0  0  0  0  0  0  0  0  0  0  0
    8.2905  -13.2118   26.3748 C   0  0  0  0  0  0  0  0  0  0  0  0
    8.4007  -14.6169   26.8734 C   0  0  0  0  0  0  0  0  0  0  0  0
    9.6494  -15.3449   26.5062 C   0  0  2  0  0  0  0  0  0  0  0  0
    9.4403  -16.1938   25.3271 N   0  0  0  0  0  0  0  0  0  0  0  0
   10.0947  -16.2048   27.6103 C   0  0  0  0  0  0  0  0  0  0  0  0
   10.6988  -15.6112   28.7357 O   0  0  0  0  0  0  0  0  0  0  0  0
    9.9797  -17.4596   27.6379 O   0  0  0  0  0  0  0  0  0  0  0  0
  2  1  1  1
  2  3  1  0
  4  5  1  0
  4  2  1  0
  5  6  1  6
  7  8  2  0
  7  5  1  0
  9  7  1  0
 10  9  1  0
 10 11  1  6
 12 13  1  0
 12 11  1  0
 13 14  2  0
 13 17  1  0
 15 23  1  0
 15 10  1  0
 16 15  2  0
 19 20  1  0
 19 18  1  0
 20 21  1  0
 22 21  1  1
 22 24  1  0
 22 23  1  0
 24 25  1  0
 26 24  2  0
M  END
$$$$
