LTF.pdb
     RDKit          3D

 27 27  0  0  1  0  0  0  0  0999 V2000
   14.5093  -13.2306  -19.0638 C   0  0  0  0  0  0  0  0  0  0  0  0
   14.9036  -11.9712  -19.7919 C   0  0  1  0  0  0  0  0  0  0  0  0
   13.8497  -11.6608  -20.8247 C   0  0  0  0  0  0  0  0  0  0  0  0
   15.2708  -10.8300  -18.9298 C   0  0  0  0  0  0  0  0  0  0  0  0
   16.3801  -10.9988  -17.9691 C   0  0  2  0  0  0  0  0  0  0  0  0
   16.0841  -11.6242  -16.7269 N   0  0  0  0  0  0  0  0  0  0  0  0
   17.1790   -9.7463  -17.7738 C   0  0  0  0  0  0  0  0  0  0  0  0
   17.5489   -9.1218  -18.8019 O   0  0  0  0  0  0  0  0  0  0  0  0
   16.0464   -6.7152  -16.2075 C   0  0  0  0  0  0  0  0  0  0  0  0
   17.3011   -7.1313  -15.4517 C   0  0  1  0  0  0  0  0  0  0  0  0
   16.9994   -7.6972  -14.2306 O   0  0  0  0  0  0  0  0  0  0  0  0
   18.1626   -8.0091  -16.3223 C   0  0  2  0  0  0  0  0  0  0  0  0
   17.5093   -9.2795  -16.4867 N   0  0  0  0  0  0  0  0  0  0  0  0
   19.5266   -8.1776  -15.7278 C   0  0  0  0  0  0  0  0  0  0  0  0
   19.8106   -9.2253  -15.0946 O   0  0  0  0  0  0  0  0  0  0  0  0
   20.5292   -7.1639  -15.8628 N   0  0  0  0  0  0  0  0  0  0  0  0
   21.8378   -7.2864  -15.2754 C   0  0  1  0  0  0  0  0  0  0  0  0
   22.8445   -7.8786  -16.2271 C   0  0  0  0  0  0  0  0  0  0  0  0
   24.1888   -8.0021  -15.6589 C   0  0  0  0  0  0  0  0  0  0  0  0
   24.6667   -9.2123  -15.2103 C   0  0  0  0  0  0  0  0  0  0  0  0
   25.9416   -9.2523  -14.6881 C   0  0  0  0  0  0  0  0  0  0  0  0
   26.7238   -8.1213  -14.6121 C   0  0  0  0  0  0  0  0  0  0  0  0
   26.2576   -6.8959  -15.0590 C   0  0  0  0  0  0  0  0  0  0  0  0
   24.9854   -6.8857  -15.5739 C   0  0  0  0  0  0  0  0  0  0  0  0
   22.3093   -5.9890  -14.7046 C   0  0  0  0  0  0  0  0  0  0  0  0
   23.0336   -5.9541  -13.6764 O   0  0  0  0  0  0  0  0  0  0  0  0
   21.9704   -4.7739  -15.2811 O   0  0  0  0  0  0  0  0  0  0  0  0
  2  1  1  1
  2  3  1  0
  4  2  1  0
  5  4  1  0
  5  6  1  1
  7  8  2  0
  7  5  1  0
 10  9  1  6
 10 12  1  0
 11 10  1  0
 12 13  1  1
 13  7  1  0
 14 15  2  0
 14 12  1  0
 16 14  1  0
 17 16  1  0
 17 18  1  6
 19 18  1  0
 19 20  2  0
 21 20  1  0
 22 21  2  0
 23 24  2  0
 23 22  1  0
 24 19  1  0
 25 17  1  0
 26 25  2  0
 27 25  1  0
M  END
$$$$
