LTF.pdb
     RDKit          3D

 27 27  0  0  1  0  0  0  0  0999 V2000
   20.0526  -14.2880  -21.5742 C   0  0  0  0  0  0  0  0  0  0  0  0
   20.2083  -13.9606  -20.1112 C   0  0  1  0  0  0  0  0  0  0  0  0
   21.0618  -15.0238  -19.4668 C   0  0  0  0  0  0  0  0  0  0  0  0
   20.6262  -12.5762  -19.8131 C   0  0  0  0  0  0  0  0  0  0  0  0
   20.7165  -12.1544  -18.4003 C   0  0  2  0  0  0  0  0  0  0  0  0
   19.7497  -12.6739  -17.4963 N   0  0  0  0  0  0  0  0  0  0  0  0
   20.8719  -10.6725  -18.2422 C   0  0  0  0  0  0  0  0  0  0  0  0
   21.7721  -10.1036  -18.9129 O   0  0  0  0  0  0  0  0  0  0  0  0
   18.2804   -8.1058  -18.9301 C   0  0  0  0  0  0  0  0  0  0  0  0
   18.7538   -7.9232  -17.4944 C   0  0  1  0  0  0  0  0  0  0  0  0
   17.8394   -8.4162  -16.5871 O   0  0  0  0  0  0  0  0  0  0  0  0
   20.1351   -8.5018  -17.3273 C   0  0  2  0  0  0  0  0  0  0  0  0
   20.0435   -9.9361  -17.3733 N   0  0  0  0  0  0  0  0  0  0  0  0
   20.7552   -8.0424  -16.0441 C   0  0  0  0  0  0  0  0  0  0  0  0
   20.5614   -8.6912  -14.9853 O   0  0  0  0  0  0  0  0  0  0  0  0
   21.5737   -6.8685  -15.9897 N   0  0  0  0  0  0  0  0  0  0  0  0
   22.2211   -6.4315  -14.7804 C   0  0  1  0  0  0  0  0  0  0  0  0
   23.6737   -6.8277  -14.7278 C   0  0  0  0  0  0  0  0  0  0  0  0
   24.4518   -6.3627  -15.8783 C   0  0  0  0  0  0  0  0  0  0  0  0
   24.9143   -5.0685  -15.9521 C   0  0  0  0  0  0  0  0  0  0  0  0
   25.6403   -4.7023  -17.0651 C   0  0  0  0  0  0  0  0  0  0  0  0
   25.9015   -5.5961  -18.0798 C   0  0  0  0  0  0  0  0  0  0  0  0
   25.4431   -6.9019  -18.0207 C   0  0  0  0  0  0  0  0  0  0  0  0
   24.7235   -7.2386  -16.9015 C   0  0  0  0  0  0  0  0  0  0  0  0
   22.0365   -4.9664  -14.5549 C   0  0  0  0  0  0  0  0  0  0  0  0
   21.5508   -4.2255  -15.4483 O   0  0  0  0  0  0  0  0  0  0  0  0
   22.3909   -4.3638  -13.3570 O   0  0  0  0  0  0  0  0  0  0  0  0
  2  1  1  6
  2  3  1  0
  4  2  1  0
  5  4  1  0
  5  6  1  1
  7  8  2  0
  7  5  1  0
 10  9  1  6
 10 12  1  0
 11 10  1  0
 12 13  1  1
 13  7  1  0
 14 15  2  0
 14 12  1  0
 16 14  1  0
 17 16  1  0
 17 18  1  6
 19 18  1  0
 19 20  2  0
 21 20  1  0
 22 21  2  0
 23 24  2  0
 23 22  1  0
 24 19  1  0
 25 17  1  0
 26 25  2  0
 27 25  1  0
M  END
$$$$
