LTF.pdb
     RDKit          3D

 27 27  0  0  1  0  0  0  0  0999 V2000
   27.4714  -15.5422  -16.9216 C   0  0  0  0  0  0  0  0  0  0  0  0
   25.9935  -15.6095  -16.6332 C   0  0  1  0  0  0  0  0  0  0  0  0
   25.7910  -15.5687  -15.1394 C   0  0  0  0  0  0  0  0  0  0  0  0
   25.1566  -14.6577  -17.3906 C   0  0  0  0  0  0  0  0  0  0  0  0
   23.6959  -14.6713  -17.1704 C   0  0  2  0  0  0  0  0  0  0  0  0
   22.9801  -15.8289  -17.5819 N   0  0  0  0  0  0  0  0  0  0  0  0
   23.0232  -13.4171  -17.6394 C   0  0  0  0  0  0  0  0  0  0  0  0
   22.4028  -13.4597  -18.7335 O   0  0  0  0  0  0  0  0  0  0  0  0
   20.6905  -12.3285  -18.5978 C   0  0  0  0  0  0  0  0  0  0  0  0
   20.9381  -11.3351  -17.4705 C   0  0  1  0  0  0  0  0  0  0  0  0
   20.3646  -11.7505  -16.2869 O   0  0  0  0  0  0  0  0  0  0  0  0
   22.4117  -11.0433  -17.3521 C   0  0  2  0  0  0  0  0  0  0  0  0
   23.0810  -12.2279  -16.8871 N   0  0  0  0  0  0  0  0  0  0  0  0
   22.6554   -9.8893  -16.4295 C   0  0  0  0  0  0  0  0  0  0  0  0
   22.6262  -10.0632  -15.1852 O   0  0  0  0  0  0  0  0  0  0  0  0
   22.9243   -8.5759  -16.9330 N   0  0  0  0  0  0  0  0  0  0  0  0
   23.2654   -7.4723  -16.0738 C   0  0  1  0  0  0  0  0  0  0  0  0
   24.6122   -6.8812  -16.4007 C   0  0  0  0  0  0  0  0  0  0  0  0
   25.6881   -7.8727  -16.4698 C   0  0  0  0  0  0  0  0  0  0  0  0
   25.8637   -8.8071  -15.4747 C   0  0  0  0  0  0  0  0  0  0  0  0
   26.8974   -9.7091  -15.6079 C   0  0  0  0  0  0  0  0  0  0  0  0
   27.7364   -9.6859  -16.6998 C   0  0  0  0  0  0  0  0  0  0  0  0
   27.5729   -8.7519  -17.7097 C   0  0  0  0  0  0  0  0  0  0  0  0
   26.5361   -7.8667  -17.5509 C   0  0  0  0  0  0  0  0  0  0  0  0
   22.1920   -6.4336  -16.0583 C   0  0  0  0  0  0  0  0  0  0  0  0
   21.2868   -6.4186  -16.9321 O   0  0  0  0  0  0  0  0  0  0  0  0
   22.1479   -5.4467  -15.0848 O   0  0  0  0  0  0  0  0  0  0  0  0
  2  1  1  1
  2  3  1  0
  4  2  1  0
  5  4  1  0
  5  6  1  6
  7  8  2  0
  7  5  1  0
 10  9  1  6
 10 12  1  0
 11 10  1  0
 12 13  1  1
 13  7  1  0
 14 15  2  0
 14 12  1  0
 16 14  1  0
 17 16  1  0
 17 18  1  6
 19 18  1  0
 19 20  2  0
 21 20  1  0
 22 21  2  0
 23 24  2  0
 23 22  1  0
 24 19  1  0
 25 17  1  0
 26 25  2  0
 27 25  1  0
M  END
$$$$
