LTF.pdb
     RDKit          3D

 27 27  0  0  1  0  0  0  0  0999 V2000
   27.2566  -39.4759    0.8524 C   0  0  0  0  0  0  0  0  0  0  0  0
   27.7417  -38.1023    0.4653 C   0  0  1  0  0  0  0  0  0  0  0  0
   26.6720  -37.4260   -0.3545 C   0  0  0  0  0  0  0  0  0  0  0  0
   28.2738  -37.2833    1.5727 C   0  0  0  0  0  0  0  0  0  0  0  0
   28.7885  -35.9326    1.2681 C   0  0  2  0  0  0  0  0  0  0  0  0
   29.9362  -35.8394    0.4340 N   0  0  0  0  0  0  0  0  0  0  0  0
   28.9272  -35.0721    2.4870 C   0  0  0  0  0  0  0  0  0  0  0  0
   30.0413  -35.0613    3.0721 O   0  0  0  0  0  0  0  0  0  0  0  0
   27.3261  -31.4374    5.2919 C   0  0  0  0  0  0  0  0  0  0  0  0
   26.9885  -32.4325    4.1899 C   0  0  1  0  0  0  0  0  0  0  0  0
   26.8735  -31.8165    2.9612 O   0  0  0  0  0  0  0  0  0  0  0  0
   27.9765  -33.5703    4.1994 C   0  0  2  0  0  0  0  0  0  0  0  0
   27.8510  -34.3010    2.9674 N   0  0  0  0  0  0  0  0  0  0  0  0
   27.7522  -34.4629    5.3805 C   0  0  0  0  0  0  0  0  0  0  0  0
   27.5473  -35.6910    5.2096 O   0  0  0  0  0  0  0  0  0  0  0  0
   27.7648  -33.9486    6.7171 N   0  0  0  0  0  0  0  0  0  0  0  0
   27.5040  -34.7746    7.8669 C   0  0  1  0  0  0  0  0  0  0  0  0
   28.4389  -35.9527    7.9552 C   0  0  0  0  0  0  0  0  0  0  0  0
   28.1552  -36.8451    9.0815 C   0  0  0  0  0  0  0  0  0  0  0  0
   27.1583  -37.7913    9.0100 C   0  0  0  0  0  0  0  0  0  0  0  0
   26.9488  -38.5962   10.1091 C   0  0  0  0  0  0  0  0  0  0  0  0
   27.7081  -38.4669   11.2508 C   0  0  0  0  0  0  0  0  0  0  0  0
   28.7151  -37.5197   11.3386 C   0  0  0  0  0  0  0  0  0  0  0  0
   28.9013  -36.7325   10.2298 C   0  0  0  0  0  0  0  0  0  0  0  0
   27.4965  -33.9757    9.1291 C   0  0  0  0  0  0  0  0  0  0  0  0
   28.2640  -32.9904    9.2815 O   0  0  0  0  0  0  0  0  0  0  0  0
   26.6473  -34.2847   10.1813 O   0  0  0  0  0  0  0  0  0  0  0  0
  2  1  1  1
  2  3  1  0
  4  2  1  0
  5  4  1  0
  5  6  1  1
  7  8  2  0
  7  5  1  0
 10  9  1  1
 10 12  1  0
 11 10  1  0
 12 13  1  6
 13  7  1  0
 14 15  2  0
 14 12  1  0
 16 14  1  0
 17 16  1  0
 17 18  1  1
 19 18  1  0
 19 20  2  0
 21 20  1  0
 22 21  2  0
 23 24  2  0
 23 22  1  0
 24 19  1  0
 25 17  1  0
 26 25  2  0
 27 25  1  0
M  END
$$$$
