LTF.pdb
     RDKit          3D

 27 27  0  0  1  0  0  0  0  0999 V2000
   28.2121  -31.0631  -18.6567 C   0  0  0  0  0  0  0  0  0  0  0  0
   28.3835  -29.5666  -18.6021 C   0  0  1  0  0  0  0  0  0  0  0  0
   27.9617  -28.9838  -19.9274 C   0  0  0  0  0  0  0  0  0  0  0  0
   27.7882  -28.9036  -17.4246 C   0  0  0  0  0  0  0  0  0  0  0  0
   27.9342  -27.4399  -17.2894 C   0  0  2  0  0  0  0  0  0  0  0  0
   29.2495  -26.9219  -17.1363 N   0  0  0  0  0  0  0  0  0  0  0  0
   26.9939  -26.8500  -16.2828 C   0  0  0  0  0  0  0  0  0  0  0  0
   27.3998  -26.7401  -15.0967 O   0  0  0  0  0  0  0  0  0  0  0  0
   25.9203  -23.6411  -15.6123 C   0  0  0  0  0  0  0  0  0  0  0  0
   24.6438  -24.3980  -15.9536 C   0  0  1  0  0  0  0  0  0  0  0  0
   24.2266  -24.1430  -17.2433 O   0  0  0  0  0  0  0  0  0  0  0  0
   24.8180  -25.8656  -15.6595 C   0  0  2  0  0  0  0  0  0  0  0  0
   25.6984  -26.4326  -16.6450 N   0  0  0  0  0  0  0  0  0  0  0  0
   23.4962  -26.5691  -15.6494 C   0  0  0  0  0  0  0  0  0  0  0  0
   23.1551  -27.2789  -16.6288 O   0  0  0  0  0  0  0  0  0  0  0  0
   22.5984  -26.4536  -14.5396 N   0  0  0  0  0  0  0  0  0  0  0  0
   21.3244  -27.1228  -14.5017 C   0  0  1  0  0  0  0  0  0  0  0  0
   20.6558  -27.0153  -13.1558 C   0  0  0  0  0  0  0  0  0  0  0  0
   19.9863  -25.7318  -12.9330 C   0  0  0  0  0  0  0  0  0  0  0  0
   18.6146  -25.6255  -12.9700 C   0  0  0  0  0  0  0  0  0  0  0  0
   18.0546  -24.3853  -12.7506 C   0  0  0  0  0  0  0  0  0  0  0  0
   18.8342  -23.2778  -12.5008 C   0  0  0  0  0  0  0  0  0  0  0  0
   20.2159  -23.3681  -12.4602 C   0  0  0  0  0  0  0  0  0  0  0  0
   20.7458  -24.6146  -12.6821 C   0  0  0  0  0  0  0  0  0  0  0  0
   20.4280  -26.6646  -15.6053 C   0  0  0  0  0  0  0  0  0  0  0  0
   20.5425  -25.5148  -16.1032 O   0  0  0  0  0  0  0  0  0  0  0  0
   19.4365  -27.4832  -16.1253 O   0  0  0  0  0  0  0  0  0  0  0  0
  2  1  1  6
  2  3  1  0
  4  2  1  0
  5  4  1  0
  5  6  1  1
  7  8  2  0
  7  5  1  0
 10  9  1  6
 10 12  1  0
 11 10  1  0
 12 13  1  6
 13  7  1  0
 14 15  2  0
 14 12  1  0
 16 14  1  0
 17 16  1  0
 17 18  1  1
 19 18  1  0
 19 20  2  0
 21 20  1  0
 22 21  2  0
 23 24  2  0
 23 22  1  0
 24 19  1  0
 25 17  1  0
 26 25  2  0
 27 25  1  0
M  END
$$$$
