LTF.pdb
     RDKit          3D

 27 27  0  0  1  0  0  0  0  0999 V2000
   11.7503  -15.1362  -15.0939 C   0  0  0  0  0  0  0  0  0  0  0  0
   13.1651  -15.0175  -15.6000 C   0  0  1  0  0  0  0  0  0  0  0  0
   13.1276  -14.5430  -17.0309 C   0  0  0  0  0  0  0  0  0  0  0  0
   14.0880  -14.2630  -14.7288 C   0  0  0  0  0  0  0  0  0  0  0  0
   15.4874  -14.0859  -15.1677 C   0  0  2  0  0  0  0  0  0  0  0  0
   16.2530  -15.2589  -15.4119 N   0  0  0  0  0  0  0  0  0  0  0  0
   16.2439  -13.1050  -14.3246 C   0  0  0  0  0  0  0  0  0  0  0  0
   16.9257  -13.5583  -13.3688 O   0  0  0  0  0  0  0  0  0  0  0  0
   18.8043  -10.6166  -15.3556 C   0  0  0  0  0  0  0  0  0  0  0  0
   17.6996   -9.8597  -14.6307 C   0  0  1  0  0  0  0  0  0  0  0  0
   16.9092   -9.1447  -15.5061 O   0  0  0  0  0  0  0  0  0  0  0  0
   16.9186  -10.8012  -13.7508 C   0  0  2  0  0  0  0  0  0  0  0  0
   16.1964  -11.7220  -14.5864 N   0  0  0  0  0  0  0  0  0  0  0  0
   15.9888  -10.0457  -12.8525 C   0  0  0  0  0  0  0  0  0  0  0  0
   14.7923   -9.8681  -13.1936 O   0  0  0  0  0  0  0  0  0  0  0  0
   16.4316   -9.5128  -11.5992 N   0  0  0  0  0  0  0  0  0  0  0  0
   15.5992   -8.6738  -10.7772 C   0  0  1  0  0  0  0  0  0  0  0  0
   15.7715   -8.9532   -9.3068 C   0  0  0  0  0  0  0  0  0  0  0  0
   14.9300   -8.1175   -8.4472 C   0  0  0  0  0  0  0  0  0  0  0  0
   15.4245   -6.9791   -7.8522 C   0  0  0  0  0  0  0  0  0  0  0  0
   14.5739   -6.2421   -7.0566 C   0  0  0  0  0  0  0  0  0  0  0  0
   13.2658   -6.6233   -6.8553 C   0  0  0  0  0  0  0  0  0  0  0  0
   12.7531   -7.7660   -7.4469 C   0  0  0  0  0  0  0  0  0  0  0  0
   13.6220   -8.4801   -8.2335 C   0  0  0  0  0  0  0  0  0  0  0  0
   15.7918   -7.2268  -11.0940 C   0  0  0  0  0  0  0  0  0  0  0  0
   16.9425   -6.7383  -11.2367 O   0  0  0  0  0  0  0  0  0  0  0  0
   14.7157   -6.3647  -11.2434 O   0  0  0  0  0  0  0  0  0  0  0  0
  2  1  1  1
  2  3  1  0
  4  2  1  0
  5  4  1  0
  5  6  1  1
  7  8  2  0
  7  5  1  0
 10  9  1  6
 10 12  1  0
 11 10  1  0
 12 13  1  6
 13  7  1  0
 14 15  2  0
 14 12  1  0
 16 14  1  0
 17 16  1  0
 17 18  1  1
 19 18  1  0
 19 20  2  0
 21 20  1  0
 22 21  2  0
 23 24  2  0
 23 22  1  0
 24 19  1  0
 25 17  1  0
 26 25  2  0
 27 25  1  0
M  END
$$$$
