YHA.pdb
     RDKit          3D

 28 29  0  0  1  0  0  0  0  0999 V2000
    7.1581  -13.7654   -7.0751 O   0  0  0  0  0  0  0  0  0  0  0  0
    7.9622  -14.4344   -8.0022 C   0  0  0  0  0  0  0  0  0  0  0  0
    7.7051  -15.7356   -8.3558 C   0  0  0  0  0  0  0  0  0  0  0  0
    8.5036  -16.4081   -9.2799 C   0  0  0  0  0  0  0  0  0  0  0  0
    9.5839  -15.7857   -9.8728 C   0  0  0  0  0  0  0  0  0  0  0  0
   10.4552  -16.4908  -10.8642 C   0  0  0  0  0  0  0  0  0  0  0  0
   10.1850  -15.9409  -12.2712 C   0  0  2  0  0  0  0  0  0  0  0  0
    8.8367  -16.4086  -12.6255 N   0  0  0  0  0  0  0  0  0  0  0  0
   11.1363  -16.5695  -13.1899 C   0  0  0  0  0  0  0  0  0  0  0  0
   10.8400  -17.6356  -13.8067 O   0  0  0  0  0  0  0  0  0  0  0  0
    9.8283  -14.4794   -9.5069 C   0  0  0  0  0  0  0  0  0  0  0  0
    9.0418  -13.8073   -8.5925 C   0  0  0  0  0  0  0  0  0  0  0  0
   12.4317  -15.9685  -13.3995 N   0  0  0  0  0  0  0  0  0  0  0  0
   13.3599  -16.5179  -14.3619 C   0  0  1  0  0  0  0  0  0  0  0  0
   14.3373  -15.4576  -14.8496 C   0  0  0  0  0  0  0  0  0  0  0  0
   13.6815  -14.4810  -15.7572 C   0  0  0  0  0  0  0  0  0  0  0  0
   12.3871  -14.4885  -16.2339 C   0  0  0  0  0  0  0  0  0  0  0  0
   12.1842  -13.4204  -17.0355 N   0  0  0  0  0  0  0  0  0  0  0  0
   13.3525  -12.7460  -17.0590 C   0  0  0  0  0  0  0  0  0  0  0  0
   14.2460  -13.3795  -16.2958 N   0  0  0  0  0  0  0  0  0  0  0  0
   14.1366  -17.6633  -13.8196 C   0  0  0  0  0  0  0  0  0  0  0  0
   14.4874  -17.7134  -12.6073 O   0  0  0  0  0  0  0  0  0  0  0  0
   16.5661  -19.5517  -13.4535 C   0  0  0  0  0  0  0  0  0  0  0  0
   15.2233  -19.9299  -14.0453 C   0  0  2  0  0  0  0  0  0  0  0  0
   14.5445  -18.7868  -14.6110 N   0  0  0  0  0  0  0  0  0  0  0  0
   14.4047  -20.7064  -13.1006 C   0  0  0  0  0  0  0  0  0  0  0  0
   13.1342  -20.2779  -12.7589 O   0  0  0  0  0  0  0  0  0  0  0  0
   14.8277  -21.7657  -12.5832 O   0  0  0  0  0  0  0  0  0  0  0  0
  2  3  2  0
  2  1  1  0
  4  3  1  0
  5  4  2  0
  6  5  1  0
  7  9  1  0
  7  6  1  0
  7  8  1  6
  9 10  2  0
 11  5  1  0
 11 12  2  0
 12  2  1  0
 13 14  1  0
 13  9  1  0
 14 15  1  1
 15 16  1  0
 16 17  2  0
 18 17  1  0
 19 18  1  0
 20 19  2  0
 20 16  1  0
 21 14  1  0
 22 21  2  0
 24 23  1  1
 24 25  1  0
 25 21  1  0
 26 24  1  0
 26 27  1  0
 28 26  2  0
M  END
$$$$
