YHA.pdb
     RDKit          3D

 28 29  0  0  1  0  0  0  0  0999 V2000
   45.4930  -17.1798   -8.7583 O   0  0  0  0  0  0  0  0  0  0  0  0
   44.5244  -16.1721   -8.7688 C   0  0  0  0  0  0  0  0  0  0  0  0
   44.1146  -15.5699   -7.6053 C   0  0  0  0  0  0  0  0  0  0  0  0
   43.1489  -14.5643   -7.6095 C   0  0  0  0  0  0  0  0  0  0  0  0
   42.5700  -14.1386   -8.7884 C   0  0  0  0  0  0  0  0  0  0  0  0
   41.5295  -13.0635   -8.8141 C   0  0  0  0  0  0  0  0  0  0  0  0
   42.1962  -11.7069   -9.0791 C   0  0  2  0  0  0  0  0  0  0  0  0
   42.5802  -11.1908   -7.7568 N   0  0  0  0  0  0  0  0  0  0  0  0
   41.1826  -10.8091   -9.6367 C   0  0  0  0  0  0  0  0  0  0  0  0
   40.3530  -10.2156   -8.8856 O   0  0  0  0  0  0  0  0  0  0  0  0
   42.9925  -14.7535   -9.9475 C   0  0  0  0  0  0  0  0  0  0  0  0
   43.9483  -15.7498   -9.9508 C   0  0  0  0  0  0  0  0  0  0  0  0
   41.1249  -10.5936  -11.0626 N   0  0  0  0  0  0  0  0  0  0  0  0
   40.1302   -9.7202  -11.6434 C   0  0  1  0  0  0  0  0  0  0  0  0
   40.7639   -8.4411  -12.1725 C   0  0  0  0  0  0  0  0  0  0  0  0
   39.7407   -7.4845  -12.6677 C   0  0  0  0  0  0  0  0  0  0  0  0
   38.3687   -7.5551  -12.5424 C   0  0  0  0  0  0  0  0  0  0  0  0
   37.7955   -6.4838  -13.1324 N   0  0  0  0  0  0  0  0  0  0  0  0
   38.8101   -5.7442  -13.6263 C   0  0  0  0  0  0  0  0  0  0  0  0
   39.9711   -6.3420  -13.3486 N   0  0  0  0  0  0  0  0  0  0  0  0
   39.3756  -10.3664  -12.7490 C   0  0  0  0  0  0  0  0  0  0  0  0
   39.9575  -11.0384  -13.6463 O   0  0  0  0  0  0  0  0  0  0  0  0
   35.7353  -10.7675  -13.8191 C   0  0  0  0  0  0  0  0  0  0  0  0
   37.2338  -10.9533  -13.9479 C   0  0  2  0  0  0  0  0  0  0  0  0
   37.9512  -10.2841  -12.8872 N   0  0  0  0  0  0  0  0  0  0  0  0
   37.7151  -10.6229  -15.2988 C   0  0  0  0  0  0  0  0  0  0  0  0
   37.9643   -9.3082  -15.6510 O   0  0  0  0  0  0  0  0  0  0  0  0
   37.9114  -11.5106  -16.1603 O   0  0  0  0  0  0  0  0  0  0  0  0
  2  3  2  0
  2  1  1  0
  4  3  1  0
  5  4  2  0
  6  5  1  0
  7  9  1  0
  7  6  1  0
  7  8  1  1
  9 10  2  0
 11  5  1  0
 11 12  2  0
 12  2  1  0
 13 14  1  0
 13  9  1  0
 14 15  1  6
 15 16  1  0
 16 17  2  0
 18 17  1  0
 19 18  1  0
 20 19  2  0
 20 16  1  0
 21 14  1  0
 22 21  2  0
 24 23  1  6
 24 25  1  0
 25 21  1  0
 26 24  1  0
 26 27  1  0
 28 26  2  0
M  END
$$$$
