YHA.pdb
     RDKit          3D

 28 29  0  0  1  0  0  0  0  0999 V2000
   20.9914  -14.6861  -20.9308 O   0  0  0  0  0  0  0  0  0  0  0  0
   20.6507  -13.5975  -20.1230 C   0  0  0  0  0  0  0  0  0  0  0  0
   20.0960  -12.4622  -20.6595 C   0  0  0  0  0  0  0  0  0  0  0  0
   19.7542  -11.3732  -19.8590 C   0  0  0  0  0  0  0  0  0  0  0  0
   19.9627  -11.3999  -18.4945 C   0  0  0  0  0  0  0  0  0  0  0  0
   19.6060  -10.2404  -17.6182 C   0  0  0  0  0  0  0  0  0  0  0  0
   20.3301   -8.9801  -18.1106 C   0  0  2  0  0  0  0  0  0  0  0  0
   21.7590   -9.2239  -17.8636 N   0  0  0  0  0  0  0  0  0  0  0  0
   19.9107   -7.8611  -17.2644 C   0  0  0  0  0  0  0  0  0  0  0  0
   18.7027   -7.4803  -17.2381 O   0  0  0  0  0  0  0  0  0  0  0  0
   20.5204  -12.5469  -17.9718 C   0  0  0  0  0  0  0  0  0  0  0  0
   20.8614  -13.6291  -18.7586 C   0  0  0  0  0  0  0  0  0  0  0  0
   20.8845   -7.1795  -16.4457 N   0  0  0  0  0  0  0  0  0  0  0  0
   20.5069   -6.0518  -15.6238 C   0  0  1  0  0  0  0  0  0  0  0  0
   21.0008   -6.2244  -14.1941 C   0  0  0  0  0  0  0  0  0  0  0  0
   20.2833   -7.3203  -13.4931 C   0  0  0  0  0  0  0  0  0  0  0  0
   19.1885   -8.0412  -13.9227 C   0  0  0  0  0  0  0  0  0  0  0  0
   18.8390   -8.9512  -12.9878 N   0  0  0  0  0  0  0  0  0  0  0  0
   19.7162   -8.7983  -11.9741 C   0  0  0  0  0  0  0  0  0  0  0  0
   20.5781   -7.8247  -12.2762 N   0  0  0  0  0  0  0  0  0  0  0  0
   21.0232   -4.7611  -16.1498 C   0  0  0  0  0  0  0  0  0  0  0  0
   22.1204   -4.6883  -16.7712 O   0  0  0  0  0  0  0  0  0  0  0  0
   22.3546   -2.1814  -16.3841 C   0  0  0  0  0  0  0  0  0  0  0  0
   20.8487   -2.2719  -16.5277 C   0  0  2  0  0  0  0  0  0  0  0  0
   20.3324   -3.5140  -16.0001 N   0  0  0  0  0  0  0  0  0  0  0  0
   20.4079   -1.9739  -17.8998 C   0  0  0  0  0  0  0  0  0  0  0  0
   20.7673   -0.7840  -18.5076 O   0  0  0  0  0  0  0  0  0  0  0  0
   19.7026   -2.7782  -18.5512 O   0  0  0  0  0  0  0  0  0  0  0  0
  2  3  2  0
  2  1  1  0
  4  3  1  0
  5  4  2  0
  6  5  1  0
  7  9  1  0
  7  6  1  0
  7  8  1  1
  9 10  2  0
 11  5  1  0
 11 12  2  0
 12  2  1  0
 13 14  1  0
 13  9  1  0
 14 15  1  1
 15 16  1  0
 16 17  2  0
 18 17  1  0
 19 18  1  0
 20 19  2  0
 20 16  1  0
 21 14  1  0
 22 21  2  0
 24 23  1  6
 24 25  1  0
 25 21  1  0
 26 24  1  0
 26 27  1  0
 28 26  2  0
M  END
$$$$
