YHA.pdb
     RDKit          3D

 28 29  0  0  1  0  0  0  0  0999 V2000
   19.1829  -16.7926  -21.8732 O   0  0  0  0  0  0  0  0  0  0  0  0
   19.3526  -15.7569  -20.9501 C   0  0  0  0  0  0  0  0  0  0  0  0
   18.7223  -15.7829  -19.7309 C   0  0  0  0  0  0  0  0  0  0  0  0
   18.8878  -14.7529  -18.8061 C   0  0  0  0  0  0  0  0  0  0  0  0
   19.6941  -13.6678  -19.0862 C   0  0  0  0  0  0  0  0  0  0  0  0
   19.8821  -12.5503  -18.1089 C   0  0  0  0  0  0  0  0  0  0  0  0
   21.3661  -12.4367  -17.7348 C   0  0  2  0  0  0  0  0  0  0  0  0
   21.6676  -13.6405  -16.9460 N   0  0  0  0  0  0  0  0  0  0  0  0
   21.5212  -11.2733  -16.8592 C   0  0  0  0  0  0  0  0  0  0  0  0
   21.1406  -11.3107  -15.6515 O   0  0  0  0  0  0  0  0  0  0  0  0
   20.3195  -13.6570  -20.3145 C   0  0  0  0  0  0  0  0  0  0  0  0
   20.1603  -14.6736  -21.2352 C   0  0  0  0  0  0  0  0  0  0  0  0
   22.1169  -10.0642  -17.3754 N   0  0  0  0  0  0  0  0  0  0  0  0
   22.4027   -8.9456  -16.5056 C   0  0  1  0  0  0  0  0  0  0  0  0
   23.8574   -8.5133  -16.6267 C   0  0  0  0  0  0  0  0  0  0  0  0
   24.7867   -9.5724  -16.1556 C   0  0  0  0  0  0  0  0  0  0  0  0
   24.4809  -10.7845  -15.5724 C   0  0  0  0  0  0  0  0  0  0  0  0
   25.6158  -11.4600  -15.2891 N   0  0  0  0  0  0  0  0  0  0  0  0
   26.6304  -10.6690  -15.6957 C   0  0  0  0  0  0  0  0  0  0  0  0
   26.1351   -9.5424  -16.2129 N   0  0  0  0  0  0  0  0  0  0  0  0
   21.5357   -7.7699  -16.7803 C   0  0  0  0  0  0  0  0  0  0  0  0
   21.4730   -7.2445  -17.9272 O   0  0  0  0  0  0  0  0  0  0  0  0
   18.8572   -5.7579  -14.9842 C   0  0  0  0  0  0  0  0  0  0  0  0
   19.8817   -5.9994  -16.0744 C   0  0  2  0  0  0  0  0  0  0  0  0
   20.7125   -7.1458  -15.7865 N   0  0  0  0  0  0  0  0  0  0  0  0
   20.6362   -4.7787  -16.4006 C   0  0  0  0  0  0  0  0  0  0  0  0
   20.1185   -3.8520  -17.2882 O   0  0  0  0  0  0  0  0  0  0  0  0
   21.7560   -4.5442  -15.8912 O   0  0  0  0  0  0  0  0  0  0  0  0
  2  3  2  0
  2  1  1  0
  4  3  1  0
  5  4  2  0
  6  5  1  0
  7  9  1  0
  7  6  1  0
  7  8  1  1
  9 10  2  0
 11  5  1  0
 11 12  2  0
 12  2  1  0
 13 14  1  0
 13  9  1  0
 14 15  1  6
 15 16  1  0
 16 17  2  0
 18 17  1  0
 19 18  1  0
 20 19  2  0
 20 16  1  0
 21 14  1  0
 22 21  2  0
 24 23  1  1
 24 25  1  0
 25 21  1  0
 26 24  1  0
 26 27  1  0
 28 26  2  0
M  END
$$$$
