YHA.pdb
     RDKit          3D

 28 29  0  0  1  0  0  0  0  0999 V2000
   14.5221  -15.0354  -16.1327 O   0  0  0  0  0  0  0  0  0  0  0  0
   15.6042  -14.1629  -15.9865 C   0  0  0  0  0  0  0  0  0  0  0  0
   15.7528  -13.0732  -16.8081 C   0  0  0  0  0  0  0  0  0  0  0  0
   16.8300  -12.1994  -16.6671 C   0  0  0  0  0  0  0  0  0  0  0  0
   17.7872  -12.4013  -15.6929 C   0  0  0  0  0  0  0  0  0  0  0  0
   18.9527  -11.4774  -15.5274 C   0  0  0  0  0  0  0  0  0  0  0  0
   19.8760  -11.5882  -16.7482 C   0  0  2  0  0  0  0  0  0  0  0  0
   20.6413  -12.8285  -16.5530 N   0  0  0  0  0  0  0  0  0  0  0  0
   20.8162  -10.4665  -16.7041 C   0  0  0  0  0  0  0  0  0  0  0  0
   21.7649  -10.4434  -15.8649 O   0  0  0  0  0  0  0  0  0  0  0  0
   17.6233  -13.4998  -14.8766 C   0  0  0  0  0  0  0  0  0  0  0  0
   16.5591  -14.3692  -15.0105 C   0  0  0  0  0  0  0  0  0  0  0  0
   20.6640   -9.3691  -17.6291 N   0  0  0  0  0  0  0  0  0  0  0  0
   21.5875   -8.2569  -17.6225 C   0  0  1  0  0  0  0  0  0  0  0  0
   21.7624   -7.6799  -19.0204 C   0  0  0  0  0  0  0  0  0  0  0  0
   22.4537   -8.6333  -19.9262 C   0  0  0  0  0  0  0  0  0  0  0  0
   23.0153   -9.8551  -19.6185 C   0  0  0  0  0  0  0  0  0  0  0  0
   23.5473  -10.4114  -20.7284 N   0  0  0  0  0  0  0  0  0  0  0  0
   23.3177   -9.5364  -21.7293 C   0  0  0  0  0  0  0  0  0  0  0  0
   22.6649   -8.4751  -21.2501 N   0  0  0  0  0  0  0  0  0  0  0  0
   21.1616   -7.1639  -16.7097 C   0  0  0  0  0  0  0  0  0  0  0  0
   19.9430   -6.8804  -16.5362 O   0  0  0  0  0  0  0  0  0  0  0  0
   20.7341   -5.9516  -13.9534 C   0  0  0  0  0  0  0  0  0  0  0  0
   21.6421   -5.3592  -15.0122 C   0  0  2  0  0  0  0  0  0  0  0  0
   22.0799   -6.3553  -15.9629 N   0  0  0  0  0  0  0  0  0  0  0  0
   22.7364   -4.5725  -14.4212 C   0  0  0  0  0  0  0  0  0  0  0  0
   24.0544   -4.8805  -14.7086 O   0  0  0  0  0  0  0  0  0  0  0  0
   22.5110   -3.6122  -13.6495 O   0  0  0  0  0  0  0  0  0  0  0  0
  2  3  2  0
  2  1  1  0
  4  3  1  0
  5  4  2  0
  6  5  1  0
  7  9  1  0
  7  6  1  0
  7  8  1  1
  9 10  2  0
 11  5  1  0
 11 12  2  0
 12  2  1  0
 13 14  1  0
 13  9  1  0
 14 15  1  6
 15 16  1  0
 16 17  2  0
 18 17  1  0
 19 18  1  0
 20 19  2  0
 20 16  1  0
 21 14  1  0
 22 21  2  0
 24 23  1  1
 24 25  1  0
 25 21  1  0
 26 24  1  0
 26 27  1  0
 28 26  2  0
M  END
$$$$
