YHA.pdb
     RDKit          3D

 28 29  0  0  1  0  0  0  0  0999 V2000
   21.8965  -29.6380  -16.7153 O   0  0  0  0  0  0  0  0  0  0  0  0
   22.1889  -30.2522  -15.4943 C   0  0  0  0  0  0  0  0  0  0  0  0
   23.4536  -30.7062  -15.2135 C   0  0  0  0  0  0  0  0  0  0  0  0
   23.7514  -31.3196  -13.9974 C   0  0  0  0  0  0  0  0  0  0  0  0
   22.7807  -31.4918  -13.0309 C   0  0  0  0  0  0  0  0  0  0  0  0
   23.0788  -32.1507  -11.7208 C   0  0  0  0  0  0  0  0  0  0  0  0
   23.5869  -33.5780  -11.9653 C   0  0  2  0  0  0  0  0  0  0  0  0
   22.4070  -34.3512  -12.3805 N   0  0  0  0  0  0  0  0  0  0  0  0
   24.0507  -34.1157  -10.6847 C   0  0  0  0  0  0  0  0  0  0  0  0
   23.3367  -34.9235  -10.0196 O   0  0  0  0  0  0  0  0  0  0  0  0
   21.5164  -31.0305  -13.3285 C   0  0  0  0  0  0  0  0  0  0  0  0
   21.2144  -30.4221  -14.5307 C   0  0  0  0  0  0  0  0  0  0  0  0
   25.3403  -33.7228  -10.1692 N   0  0  0  0  0  0  0  0  0  0  0  0
   25.8917  -34.3487   -8.9886 C   0  0  1  0  0  0  0  0  0  0  0  0
   27.3373  -34.7693   -9.2142 C   0  0  0  0  0  0  0  0  0  0  0  0
   27.4312  -35.9717  -10.0818 C   0  0  0  0  0  0  0  0  0  0  0  0
   26.4087  -36.7553  -10.5752 C   0  0  0  0  0  0  0  0  0  0  0  0
   26.9158  -37.7570  -11.3261 N   0  0  0  0  0  0  0  0  0  0  0  0
   28.2555  -37.5985  -11.3014 C   0  0  0  0  0  0  0  0  0  0  0  0
   28.5626  -36.5327  -10.5585 N   0  0  0  0  0  0  0  0  0  0  0  0
   25.8369  -33.4665   -7.7936 C   0  0  0  0  0  0  0  0  0  0  0  0
   26.3264  -32.3021   -7.8047 O   0  0  0  0  0  0  0  0  0  0  0  0
   23.9849  -33.2332   -4.5360 C   0  0  0  0  0  0  0  0  0  0  0  0
   25.2069  -32.9861   -5.3975 C   0  0  2  0  0  0  0  0  0  0  0  0
   25.2347  -33.8544   -6.5520 N   0  0  0  0  0  0  0  0  0  0  0  0
   26.4486  -32.9985   -4.6077 C   0  0  0  0  0  0  0  0  0  0  0  0
   26.6710  -32.0368   -3.6381 O   0  0  0  0  0  0  0  0  0  0  0  0
   27.3311  -33.8690   -4.7870 O   0  0  0  0  0  0  0  0  0  0  0  0
  2  3  2  0
  2  1  1  0
  4  3  1  0
  5  4  2  0
  6  5  1  0
  7  9  1  0
  7  6  1  0
  7  8  1  1
  9 10  2  0
 11  5  1  0
 11 12  2  0
 12  2  1  0
 13 14  1  0
 13  9  1  0
 14 15  1  6
 15 16  1  0
 16 17  2  0
 18 17  1  0
 19 18  1  0
 20 19  2  0
 20 16  1  0
 21 14  1  0
 22 21  2  0
 24 23  1  1
 24 25  1  0
 25 21  1  0
 26 24  1  0
 26 27  1  0
 28 26  2  0
M  END
$$$$
