YHA.pdb
     RDKit          3D

 28 29  0  0  1  0  0  0  0  0999 V2000
   21.1965  -31.0081  -12.3858 O   0  0  0  0  0  0  0  0  0  0  0  0
   21.9781  -31.4966  -11.3351 C   0  0  0  0  0  0  0  0  0  0  0  0
   23.3046  -31.1616  -11.2223 C   0  0  0  0  0  0  0  0  0  0  0  0
   24.0892  -31.6456  -10.1765 C   0  0  0  0  0  0  0  0  0  0  0  0
   23.5568  -32.4815   -9.2154 C   0  0  0  0  0  0  0  0  0  0  0  0
   24.3826  -33.0147   -8.0871 C   0  0  0  0  0  0  0  0  0  0  0  0
   25.3380  -34.0946   -8.6129 C   0  0  2  0  0  0  0  0  0  0  0  0
   24.4799  -35.2191   -9.0144 N   0  0  0  0  0  0  0  0  0  0  0  0
   26.1717  -34.5403   -7.4947 C   0  0  0  0  0  0  0  0  0  0  0  0
   25.7629  -35.4297   -6.6904 O   0  0  0  0  0  0  0  0  0  0  0  0
   22.2238  -32.8083   -9.3432 C   0  0  0  0  0  0  0  0  0  0  0  0
   21.4408  -32.3326  -10.3761 C   0  0  0  0  0  0  0  0  0  0  0  0
   27.4796  -33.9611   -7.3026 N   0  0  0  0  0  0  0  0  0  0  0  0
   28.3426  -34.4105   -6.2335 C   0  0  1  0  0  0  0  0  0  0  0  0
   29.7360  -33.8112   -6.3636 C   0  0  0  0  0  0  0  0  0  0  0  0
   30.6740  -34.3774   -5.3602 C   0  0  0  0  0  0  0  0  0  0  0  0
   30.4165  -35.3069   -4.3741 C   0  0  0  0  0  0  0  0  0  0  0  0
   31.5416  -35.5565   -3.6696 N   0  0  0  0  0  0  0  0  0  0  0  0
   32.5019  -34.7823   -4.2163 C   0  0  0  0  0  0  0  0  0  0  0  0
   31.9835  -34.0787   -5.2255 N   0  0  0  0  0  0  0  0  0  0  0  0
   27.8083  -34.0771   -4.8872 C   0  0  0  0  0  0  0  0  0  0  0  0
   27.5976  -32.8830   -4.5333 O   0  0  0  0  0  0  0  0  0  0  0  0
   25.9039  -35.6189   -2.1125 C   0  0  0  0  0  0  0  0  0  0  0  0
   27.0289  -34.7139   -2.5729 C   0  0  2  0  0  0  0  0  0  0  0  0
   27.4920  -35.0633   -3.8961 N   0  0  0  0  0  0  0  0  0  0  0  0
   28.1006  -34.6143   -1.5693 C   0  0  0  0  0  0  0  0  0  0  0  0
   29.3873  -35.0200   -1.8766 O   0  0  0  0  0  0  0  0  0  0  0  0
   27.8836  -34.1650   -0.4205 O   0  0  0  0  0  0  0  0  0  0  0  0
  2  3  2  0
  2  1  1  0
  4  3  1  0
  5  4  2  0
  6  5  1  0
  7  9  1  0
  7  6  1  0
  7  8  1  1
  9 10  2  0
 11  5  1  0
 11 12  2  0
 12  2  1  0
 13 14  1  0
 13  9  1  0
 14 15  1  6
 15 16  1  0
 16 17  2  0
 18 17  1  0
 19 18  1  0
 20 19  2  0
 20 16  1  0
 21 14  1  0
 22 21  2  0
 24 23  1  1
 24 25  1  0
 25 21  1  0
 26 24  1  0
 26 27  1  0
 28 26  2  0
M  END
$$$$
