RYT.pdb
     RDKit          3D

 31 31  0  0  1  0  0  0  0  0999 V2000
   30.8916  -26.0284  -20.2282 N   0  0  0  0  0  0  0  0  0  0  0  0
   32.1081  -25.7846  -19.5454 C   0  0  0  0  0  0  0  0  0  0  0  0
   33.2219  -25.6045  -20.1425 N   0  0  0  0  0  0  0  0  0  0  0  0
   32.0859  -25.7384  -18.1227 N   0  0  0  0  0  0  0  0  0  0  0  0
   30.8105  -25.9490  -17.4083 C   0  0  0  0  0  0  0  0  0  0  0  0
   29.9895  -24.7366  -17.6376 C   0  0  0  0  0  0  0  0  0  0  0  0
   28.7751  -24.6821  -16.8038 C   0  0  0  0  0  0  0  0  0  0  0  0
   27.9396  -23.4758  -17.0600 C   0  0  2  0  0  0  0  0  0  0  0  0
   28.6594  -22.2672  -17.3376 N   0  0  0  0  0  0  0  0  0  0  0  0
   27.0218  -23.2648  -15.9217 C   0  0  0  0  0  0  0  0  0  0  0  0
   26.3256  -24.2221  -15.5302 O   0  0  0  0  0  0  0  0  0  0  0  0
   34.1287  -25.5416  -19.6109 O   0  0  0  0  0  0  0  0  0  0  0  0
   23.2938  -20.2522   -8.6542 C   0  0  0  0  0  0  0  0  0  0  0  0
   24.1063  -20.3628   -9.7715 C   0  0  0  0  0  0  0  0  0  0  0  0
   23.7936  -19.7698  -10.9707 C   0  0  0  0  0  0  0  0  0  0  0  0
   24.6352  -19.9091  -12.0575 C   0  0  0  0  0  0  0  0  0  0  0  0
   25.8036  -20.6333  -11.9941 C   0  0  0  0  0  0  0  0  0  0  0  0
   26.6529  -20.7371  -13.2057 C   0  0  2  0  0  0  0  0  0  0  0  0
   26.0735  -21.7529  -14.1801 N   0  0  0  0  0  0  0  0  0  0  0  0
   26.9452  -22.0053  -15.3007 C   0  0  0  0  0  0  0  0  0  0  0  0
   24.6955  -21.3900  -14.5897 O   0  0  0  0  0  0  0  0  0  0  0  0
   24.5409  -20.3119  -15.2125 C   0  0  0  0  0  0  0  0  0  0  0  0
   26.1014  -21.2198  -10.7871 C   0  0  0  0  0  0  0  0  0  0  0  0
   25.2799  -21.0985   -9.6820 C   0  0  0  0  0  0  0  0  0  0  0  0
   21.8494  -24.0546  -15.6383 C   0  0  2  0  0  0  0  0  0  0  0  0
   21.8197  -22.5847  -15.9775 O   0  0  0  0  0  0  0  0  0  0  0  0
   20.5424  -22.2509  -16.3819 C   0  0  1  0  0  0  0  0  0  0  0  0
   22.2741  -21.7980  -14.7754 N   0  0  0  0  0  0  0  0  0  0  0  0
   23.5678  -22.1961  -14.3108 C   0  0  0  0  0  0  0  0  0  0  0  0
   21.3282  -21.9505  -13.6494 O   0  0  0  0  0  0  0  0  0  0  0  0
   20.0994  -21.6394  -13.7197 O   0  0  0  0  0  0  0  0  0  0  0  0
  2  1  1  0
  2  3  2  0
  4  2  1  0
  5  4  1  0
  6  7  1  0
  6  5  1  0
  8 10  1  0
  8  7  1  0
  8  9  1  1
 10 11  2  0
 13 23  2  0
 13 12  1  0
 14 13  1  0
 15 16  1  0
 15 14  2  0
 16 22  2  0
 17 16  1  0
 18 17  1  1
 19 18  1  0
 19 10  1  0
 20 28  1  0
 20 18  1  0
 21 20  2  0
 22 23  1  0
 25 24  1  6
 26 25  1  0
 27 29  1  0
 27 25  1  0
 27 28  1  6
 29 31  1  0
 30 29  2  0
M  END
$$$$
