RYT.pdb
     RDKit          3D

 31 31  0  0  1  0  0  0  0  0999 V2000
   29.8221  -23.0804  -16.2926 N   0  0  0  0  0  0  0  0  0  0  0  0
   28.5188  -23.5371  -16.6062 C   0  0  0  0  0  0  0  0  0  0  0  0
   28.1137  -24.7220  -16.3579 N   0  0  0  0  0  0  0  0  0  0  0  0
   27.6170  -22.6286  -17.2292 N   0  0  0  0  0  0  0  0  0  0  0  0
   27.9965  -21.2081  -17.3681 C   0  0  0  0  0  0  0  0  0  0  0  0
   27.6487  -20.5478  -16.0876 C   0  0  0  0  0  0  0  0  0  0  0  0
   26.2960  -19.9623  -16.0760 C   0  0  0  0  0  0  0  0  0  0  0  0
   25.2671  -20.8709  -15.4974 C   0  0  2  0  0  0  0  0  0  0  0  0
   25.0462  -22.0955  -16.2098 N   0  0  0  0  0  0  0  0  0  0  0  0
   23.9931  -20.1374  -15.3503 C   0  0  0  0  0  0  0  0  0  0  0  0
   23.9753  -19.1051  -14.6514 O   0  0  0  0  0  0  0  0  0  0  0  0
   27.1573  -25.0506  -16.6514 O   0  0  0  0  0  0  0  0  0  0  0  0
   24.9788  -15.3833  -18.9295 C   0  0  0  0  0  0  0  0  0  0  0  0
   24.0510  -16.3312  -18.5276 C   0  0  0  0  0  0  0  0  0  0  0  0
   23.0310  -16.0392  -17.6547 C   0  0  0  0  0  0  0  0  0  0  0  0
   22.1302  -17.0185  -17.2827 C   0  0  0  0  0  0  0  0  0  0  0  0
   22.2083  -18.3076  -17.7579 C   0  0  0  0  0  0  0  0  0  0  0  0
   21.2036  -19.3023  -17.3094 C   0  0  2  0  0  0  0  0  0  0  0  0
   21.5874  -19.8763  -15.9529 N   0  0  0  0  0  0  0  0  0  0  0  0
   22.8316  -20.6043  -15.9913 C   0  0  0  0  0  0  0  0  0  0  0  0
   20.4773  -20.6597  -15.3592 O   0  0  0  0  0  0  0  0  0  0  0  0
   20.3539  -21.8550  -15.7198 C   0  0  0  0  0  0  0  0  0  0  0  0
   23.2344  -18.5827  -18.6303 C   0  0  0  0  0  0  0  0  0  0  0  0
   24.1509  -17.6246  -19.0214 C   0  0  0  0  0  0  0  0  0  0  0  0
   19.8956  -21.5296  -11.8297 C   0  0  2  0  0  0  0  0  0  0  0  0
   18.6051  -20.9173  -12.3155 O   0  0  0  0  0  0  0  0  0  0  0  0
   18.5138  -19.6308  -11.8223 C   0  0  2  0  0  0  0  0  0  0  0  0
   18.5787  -20.9668  -13.8213 N   0  0  0  0  0  0  0  0  0  0  0  0
   19.5674  -20.1226  -14.4197 C   0  0  0  0  0  0  0  0  0  0  0  0
   17.2601  -20.5521  -14.3457 O   0  0  0  0  0  0  0  0  0  0  0  0
   16.1887  -21.2015  -14.1401 O   0  0  0  0  0  0  0  0  0  0  0  0
  2  1  1  0
  2  3  2  0
  4  2  1  0
  5  4  1  0
  6  7  1  0
  6  5  1  0
  8 10  1  0
  8  7  1  0
  8  9  1  6
 10 11  2  0
 13 23  2  0
 13 12  1  0
 14 13  1  0
 15 16  1  0
 15 14  2  0
 16 22  2  0
 17 16  1  0
 18 17  1  1
 19 18  1  0
 19 10  1  0
 20 28  1  0
 20 18  1  0
 21 20  2  0
 22 23  1  0
 25 24  1  1
 26 25  1  0
 27 29  1  0
 27 25  1  0
 27 28  1  6
 29 31  1  0
 30 29  2  0
M  END
$$$$
