RYT.pdb
     RDKit          3D

 31 31  0  0  1  0  0  0  0  0999 V2000
   29.1726  -20.4640  -17.8268 N   0  0  0  0  0  0  0  0  0  0  0  0
   28.5693  -19.2702  -18.2918 C   0  0  0  0  0  0  0  0  0  0  0  0
   28.3646  -19.0248  -19.5277 N   0  0  0  0  0  0  0  0  0  0  0  0
   28.1722  -18.2965  -17.3321 N   0  0  0  0  0  0  0  0  0  0  0  0
   28.2296  -18.6277  -15.8940 C   0  0  0  0  0  0  0  0  0  0  0  0
   27.2661  -19.7320  -15.6731 C   0  0  0  0  0  0  0  0  0  0  0  0
   26.6101  -19.6854  -14.3539 C   0  0  0  0  0  0  0  0  0  0  0  0
   26.8425  -20.9099  -13.5382 C   0  0  2  0  0  0  0  0  0  0  0  0
   27.2924  -22.0637  -14.2609 N   0  0  0  0  0  0  0  0  0  0  0  0
   25.6150  -21.2360  -12.7835 C   0  0  0  0  0  0  0  0  0  0  0  0
   25.0628  -22.3350  -12.9869 O   0  0  0  0  0  0  0  0  0  0  0  0
   27.9142  -18.1272  -19.8444 O   0  0  0  0  0  0  0  0  0  0  0  0
   28.1716  -20.8676   -6.3732 C   0  0  0  0  0  0  0  0  0  0  0  0
   27.1058  -20.5882   -7.2139 C   0  0  0  0  0  0  0  0  0  0  0  0
   26.6055  -19.3184   -7.3713 C   0  0  0  0  0  0  0  0  0  0  0  0
   25.5403  -19.0893   -8.2209 C   0  0  0  0  0  0  0  0  0  0  0  0
   24.9404  -20.1002   -8.9364 C   0  0  0  0  0  0  0  0  0  0  0  0
   23.8001  -19.7733   -9.8268 C   0  0  2  0  0  0  0  0  0  0  0  0
   23.8809  -20.5770  -11.1169 N   0  0  0  0  0  0  0  0  0  0  0  0
   25.0909  -20.3169  -11.8569 C   0  0  0  0  0  0  0  0  0  0  0  0
   22.6560  -20.4158  -11.9366 O   0  0  0  0  0  0  0  0  0  0  0  0
   22.5045  -19.3289  -12.5448 C   0  0  0  0  0  0  0  0  0  0  0  0
   25.4534  -21.3643   -8.7675 C   0  0  0  0  0  0  0  0  0  0  0  0
   26.5180  -21.6252   -7.9252 C   0  0  0  0  0  0  0  0  0  0  0  0
   21.6236  -22.1137  -14.9033 C   0  0  2  0  0  0  0  0  0  0  0  0
   20.4214  -22.2329  -13.9995 O   0  0  0  0  0  0  0  0  0  0  0  0
   20.3588  -23.5249  -13.5165 C   0  0  2  0  0  0  0  0  0  0  0  0
   20.5330  -21.2060  -12.9024 N   0  0  0  0  0  0  0  0  0  0  0  0
   21.6683  -21.4203  -12.0577 C   0  0  0  0  0  0  0  0  0  0  0  0
   19.3296  -21.2103  -12.0434 O   0  0  0  0  0  0  0  0  0  0  0  0
   19.3469  -21.5309  -10.8151 O   0  0  0  0  0  0  0  0  0  0  0  0
  2  1  1  0
  2  3  2  0
  4  2  1  0
  5  4  1  0
  6  7  1  0
  6  5  1  0
  8 10  1  0
  8  7  1  0
  8  9  1  6
 10 11  2  0
 13 23  2  0
 13 12  1  0
 14 13  1  0
 15 16  1  0
 15 14  2  0
 16 22  2  0
 17 16  1  0
 18 17  1  1
 19 18  1  0
 19 10  1  0
 20 28  1  0
 20 18  1  0
 21 20  2  0
 22 23  1  0
 25 24  1  6
 26 25  1  0
 27 29  1  0
 27 25  1  0
 27 28  1  6
 29 31  1  0
 30 29  2  0
M  END
$$$$
