RYT.pdb
     RDKit          3D

 31 31  0  0  1  0  0  0  0  0999 V2000
   23.1668  -12.2687  -22.9980 N   0  0  0  0  0  0  0  0  0  0  0  0
   22.0836  -11.5533  -23.5637 C   0  0  0  0  0  0  0  0  0  0  0  0
   21.3424  -12.0232  -24.4908 N   0  0  0  0  0  0  0  0  0  0  0  0
   21.8089  -10.2454  -23.0732 N   0  0  0  0  0  0  0  0  0  0  0  0
   22.5636   -9.7310  -21.9125 C   0  0  0  0  0  0  0  0  0  0  0  0
   21.5790   -9.5196  -20.8250 C   0  0  0  0  0  0  0  0  0  0  0  0
   21.9580   -8.4458  -19.8889 C   0  0  0  0  0  0  0  0  0  0  0  0
   21.8560   -8.8495  -18.4587 C   0  0  2  0  0  0  0  0  0  0  0  0
   21.2097  -10.1052  -18.2106 N   0  0  0  0  0  0  0  0  0  0  0  0
   21.1847   -7.7783  -17.6941 C   0  0  0  0  0  0  0  0  0  0  0  0
   19.9419   -7.8011  -17.5989 O   0  0  0  0  0  0  0  0  0  0  0  0
   20.5351  -11.4730  -24.8836 O   0  0  0  0  0  0  0  0  0  0  0  0
   19.2675   -9.7718  -11.8709 C   0  0  0  0  0  0  0  0  0  0  0  0
   19.8815   -8.7662  -12.6007 C   0  0  0  0  0  0  0  0  0  0  0  0
   19.3231   -7.5200  -12.7514 C   0  0  0  0  0  0  0  0  0  0  0  0
   19.9732   -6.5496  -13.4894 C   0  0  0  0  0  0  0  0  0  0  0  0
   21.1865   -6.7783  -14.0972 C   0  0  0  0  0  0  0  0  0  0  0  0
   21.8199   -5.6851  -14.8740 C   0  0  2  0  0  0  0  0  0  0  0  0
   21.3370   -5.7047  -16.3174 N   0  0  0  0  0  0  0  0  0  0  0  0
   21.9439   -6.7600  -17.0903 C   0  0  0  0  0  0  0  0  0  0  0  0
   21.4693   -4.3722  -16.9540 O   0  0  0  0  0  0  0  0  0  0  0  0
   22.5682   -4.0930  -17.4911 C   0  0  0  0  0  0  0  0  0  0  0  0
   21.7311   -8.0302  -13.9362 C   0  0  0  0  0  0  0  0  0  0  0  0
   21.1052   -9.0216  -13.2040 C   0  0  0  0  0  0  0  0  0  0  0  0
   19.6293   -0.1732  -18.6717 C   0  0  2  0  0  0  0  0  0  0  0  0
   19.3263   -1.5157  -18.0535 O   0  0  0  0  0  0  0  0  0  0  0  0
   18.6222   -2.2739  -18.9677 C   0  0  1  0  0  0  0  0  0  0  0  0
   20.6212   -2.1628  -17.6350 N   0  0  0  0  0  0  0  0  0  0  0  0
   20.4247   -3.4196  -16.9791 C   0  0  0  0  0  0  0  0  0  0  0  0
   21.3796   -1.2910  -16.7127 O   0  0  0  0  0  0  0  0  0  0  0  0
   21.2943   -1.3666  -15.4483 O   0  0  0  0  0  0  0  0  0  0  0  0
  2  1  1  0
  2  3  2  0
  4  2  1  0
  5  4  1  0
  6  7  1  0
  6  5  1  0
  8 10  1  0
  8  7  1  0
  8  9  1  6
 10 11  2  0
 13 23  2  0
 13 12  1  0
 14 13  1  0
 15 16  1  0
 15 14  2  0
 16 22  2  0
 17 16  1  0
 18 17  1  1
 19 18  1  0
 19 10  1  0
 20 28  1  0
 20 18  1  0
 21 20  2  0
 22 23  1  0
 25 24  1  1
 26 25  1  0
 27 29  1  0
 27 25  1  0
 27 28  1  1
 29 31  1  0
 30 29  2  0
M  END
$$$$
