RYT.pdb
     RDKit          3D

 31 31  0  0  1  0  0  0  0  0999 V2000
   23.6659  -18.5575  -20.0468 N   0  0  0  0  0  0  0  0  0  0  0  0
   24.9913  -18.1279  -20.3004 C   0  0  0  0  0  0  0  0  0  0  0  0
   25.2777  -16.9650  -20.7424 N   0  0  0  0  0  0  0  0  0  0  0  0
   26.0558  -19.0394  -20.0497 N   0  0  0  0  0  0  0  0  0  0  0  0
   25.7506  -20.3896  -19.5350 C   0  0  0  0  0  0  0  0  0  0  0  0
   26.6493  -20.6170  -18.3785 C   0  0  0  0  0  0  0  0  0  0  0  0
   25.9330  -20.9436  -17.1322 C   0  0  0  0  0  0  0  0  0  0  0  0
   26.8317  -21.0542  -15.9494 C   0  0  2  0  0  0  0  0  0  0  0  0
   27.9161  -21.9836  -16.0758 N   0  0  0  0  0  0  0  0  0  0  0  0
   26.0283  -21.3779  -14.7525 C   0  0  0  0  0  0  0  0  0  0  0  0
   25.7939  -22.5753  -14.4963 O   0  0  0  0  0  0  0  0  0  0  0  0
   26.2743  -16.6677  -20.9069 O   0  0  0  0  0  0  0  0  0  0  0  0
   29.7522  -22.0180   -9.1943 C   0  0  0  0  0  0  0  0  0  0  0  0
   28.6053  -21.4856   -9.7619 C   0  0  0  0  0  0  0  0  0  0  0  0
   27.3821  -21.5400   -9.1388 C   0  0  0  0  0  0  0  0  0  0  0  0
   26.2663  -20.9955   -9.7450 C   0  0  0  0  0  0  0  0  0  0  0  0
   26.3237  -20.3845  -10.9767 C   0  0  0  0  0  0  0  0  0  0  0  0
   25.0806  -19.8254  -11.5616 C   0  0  2  0  0  0  0  0  0  0  0  0
   24.6764  -20.6050  -12.8049 N   0  0  0  0  0  0  0  0  0  0  0  0
   25.5445  -20.3472  -13.9270 C   0  0  0  0  0  0  0  0  0  0  0  0
   23.2422  -20.4109  -13.1269 O   0  0  0  0  0  0  0  0  0  0  0  0
   22.9474  -19.4923  -13.9289 C   0  0  0  0  0  0  0  0  0  0  0  0
   27.5551  -20.3385  -11.5860 C   0  0  0  0  0  0  0  0  0  0  0  0
   28.6893  -20.8741  -11.0051 C   0  0  0  0  0  0  0  0  0  0  0  0
   19.2286  -22.2106  -14.6052 C   0  0  2  0  0  0  0  0  0  0  0  0
   20.6704  -22.2513  -14.1624 O   0  0  0  0  0  0  0  0  0  0  0  0
   21.4777  -22.1170  -15.2745 C   0  0  1  0  0  0  0  0  0  0  0  0
   20.8979  -21.1649  -13.1433 N   0  0  0  0  0  0  0  0  0  0  0  0
   22.2110  -21.2057  -12.5754 C   0  0  0  0  0  0  0  0  0  0  0  0
   19.9272  -21.2638  -12.0325 O   0  0  0  0  0  0  0  0  0  0  0  0
   20.2534  -21.5576  -10.8412 O   0  0  0  0  0  0  0  0  0  0  0  0
  2  1  1  0
  2  3  2  0
  4  2  1  0
  5  4  1  0
  6  7  1  0
  6  5  1  0
  8 10  1  0
  8  7  1  0
  8  9  1  6
 10 11  2  0
 13 23  2  0
 13 12  1  0
 14 13  1  0
 15 16  1  0
 15 14  2  0
 16 22  2  0
 17 16  1  0
 18 17  1  1
 19 18  1  0
 19 10  1  0
 20 28  1  0
 20 18  1  0
 21 20  2  0
 22 23  1  0
 25 24  1  6
 26 25  1  0
 27 29  1  0
 27 25  1  0
 27 28  1  1
 29 31  1  0
 30 29  2  0
M  END
$$$$
