RYT.pdb
     RDKit          3D

 31 31  0  0  1  0  0  0  0  0999 V2000
   25.9177  -19.9188  -12.6134 N   0  0  0  0  0  0  0  0  0  0  0  0
   25.5301  -20.7020  -11.4991 C   0  0  0  0  0  0  0  0  0  0  0  0
   25.2769  -20.2072  -10.3499 N   0  0  0  0  0  0  0  0  0  0  0  0
   25.4178  -22.1108  -11.6706 N   0  0  0  0  0  0  0  0  0  0  0  0
   25.5607  -22.6924  -13.0207 C   0  0  0  0  0  0  0  0  0  0  0  0
   24.5547  -23.7757  -13.1257 C   0  0  0  0  0  0  0  0  0  0  0  0
   23.7174  -23.6859  -14.3356 C   0  0  0  0  0  0  0  0  0  0  0  0
   24.0922  -22.5528  -15.2270 C   0  0  2  0  0  0  0  0  0  0  0  0
   25.2628  -21.8192  -14.8432 N   0  0  0  0  0  0  0  0  0  0  0  0
   22.9433  -21.6335  -15.3598 C   0  0  0  0  0  0  0  0  0  0  0  0
   21.8299  -22.1080  -15.6589 O   0  0  0  0  0  0  0  0  0  0  0  0
   24.9260  -20.8050   -9.5572 O   0  0  0  0  0  0  0  0  0  0  0  0
   19.6993  -21.7963   -9.7489 C   0  0  0  0  0  0  0  0  0  0  0  0
   20.2263  -21.0004  -10.7537 C   0  0  0  0  0  0  0  0  0  0  0  0
   19.4461  -20.4469  -11.7398 C   0  0  0  0  0  0  0  0  0  0  0  0
   20.0176  -19.6602  -12.7214 C   0  0  0  0  0  0  0  0  0  0  0  0
   21.3679  -19.3976  -12.7591 C   0  0  0  0  0  0  0  0  0  0  0  0
   21.9052  -18.5445  -13.8470 C   0  0  2  0  0  0  0  0  0  0  0  0
   22.0056  -19.3327  -15.1453 N   0  0  0  0  0  0  0  0  0  0  0  0
   23.1154  -20.2535  -15.1499 C   0  0  0  0  0  0  0  0  0  0  0  0
   21.9914  -18.4385  -16.3278 O   0  0  0  0  0  0  0  0  0  0  0  0
   23.0522  -17.8294  -16.6067 C   0  0  0  0  0  0  0  0  0  0  0  0
   22.1338  -19.9588  -11.7651 C   0  0  0  0  0  0  0  0  0  0  0  0
   21.5915  -20.7499  -10.7696 C   0  0  0  0  0  0  0  0  0  0  0  0
   19.9976  -16.6624  -20.4259 C   0  0  2  0  0  0  0  0  0  0  0  0
   19.8954  -17.6846  -19.3209 O   0  0  0  0  0  0  0  0  0  0  0  0
   20.0802  -18.9408  -19.8634 C   0  0  1  0  0  0  0  0  0  0  0  0
   20.9101  -17.3549  -18.2568 N   0  0  0  0  0  0  0  0  0  0  0  0
   20.8496  -18.2473  -17.1396 C   0  0  0  0  0  0  0  0  0  0  0  0
   20.7177  -15.9820  -17.7433 O   0  0  0  0  0  0  0  0  0  0  0  0
   19.7972  -15.6608  -16.9301 O   0  0  0  0  0  0  0  0  0  0  0  0
  2  1  1  0
  2  3  2  0
  4  2  1  0
  5  4  1  0
  6  7  1  0
  6  5  1  0
  8 10  1  0
  8  7  1  0
  8  9  1  1
 10 11  2  0
 13 23  2  0
 13 12  1  0
 14 13  1  0
 15 16  1  0
 15 14  2  0
 16 22  2  0
 17 16  1  0
 18 17  1  1
 19 18  1  0
 19 10  1  0
 20 28  1  0
 20 18  1  0
 21 20  2  0
 22 23  1  0
 25 24  1  6
 26 25  1  0
 27 29  1  0
 27 25  1  0
 27 28  1  1
 29 31  1  0
 30 29  2  0
M  END
$$$$
