RYT.pdb
     RDKit          3D

 31 31  0  0  1  0  0  0  0  0999 V2000
   18.2978  -23.7030  -11.7326 N   0  0  0  0  0  0  0  0  0  0  0  0
   17.4523  -22.8672  -12.5019 C   0  0  0  0  0  0  0  0  0  0  0  0
   16.2525  -23.1772  -12.8086 N   0  0  0  0  0  0  0  0  0  0  0  0
   17.9674  -21.6197  -12.9550 N   0  0  0  0  0  0  0  0  0  0  0  0
   19.4229  -21.4618  -13.1495 C   0  0  0  0  0  0  0  0  0  0  0  0
   20.0062  -21.2120  -11.8101 C   0  0  0  0  0  0  0  0  0  0  0  0
   21.4184  -20.7914  -11.8525 C   0  0  0  0  0  0  0  0  0  0  0  0
   22.1559  -21.3265  -13.0309 C   0  0  2  0  0  0  0  0  0  0  0  0
   22.3365  -22.7487  -13.0594 N   0  0  0  0  0  0  0  0  0  0  0  0
   23.4654  -20.6507  -13.1373 C   0  0  0  0  0  0  0  0  0  0  0  0
   23.4902  -19.4080  -13.2333 O   0  0  0  0  0  0  0  0  0  0  0  0
   15.6380  -22.5240  -13.3603 O   0  0  0  0  0  0  0  0  0  0  0  0
   26.6657  -20.4260   -6.7770 C   0  0  0  0  0  0  0  0  0  0  0  0
   26.7543  -20.7095   -8.1308 C   0  0  0  0  0  0  0  0  0  0  0  0
   27.9534  -20.9557   -8.7544 C   0  0  0  0  0  0  0  0  0  0  0  0
   27.9913  -21.2333  -10.1074 C   0  0  0  0  0  0  0  0  0  0  0  0
   26.8540  -21.2760  -10.8809 C   0  0  0  0  0  0  0  0  0  0  0  0
   26.9782  -21.5795  -12.3274 C   0  0  2  0  0  0  0  0  0  0  0  0
   25.9553  -20.7881  -13.1301 N   0  0  0  0  0  0  0  0  0  0  0  0
   24.6521  -21.4054  -13.1286 C   0  0  0  0  0  0  0  0  0  0  0  0
   26.4500  -20.4852  -14.4946 O   0  0  0  0  0  0  0  0  0  0  0  0
   26.4255  -21.4126  -15.3391 C   0  0  0  0  0  0  0  0  0  0  0  0
   25.6629  -21.0277  -10.2412 C   0  0  0  0  0  0  0  0  0  0  0  0
   25.5925  -20.7472   -8.8894 C   0  0  0  0  0  0  0  0  0  0  0  0
   27.2658  -17.2149  -18.0237 C   0  0  2  0  0  0  0  0  0  0  0  0
   26.8729  -17.4707  -16.5896 O   0  0  0  0  0  0  0  0  0  0  0  0
   25.5450  -17.1284  -16.4280 C   0  0  1  0  0  0  0  0  0  0  0  0
   27.1459  -18.9154  -16.2598 N   0  0  0  0  0  0  0  0  0  0  0  0
   26.9406  -19.2149  -14.8754 C   0  0  0  0  0  0  0  0  0  0  0  0
   28.5374  -19.2855  -16.5956 O   0  0  0  0  0  0  0  0  0  0  0  0
   29.4562  -19.4154  -15.7292 O   0  0  0  0  0  0  0  0  0  0  0  0
  2  1  1  0
  2  3  2  0
  4  2  1  0
  5  4  1  0
  6  7  1  0
  6  5  1  0
  8 10  1  0
  8  7  1  0
  8  9  1  1
 10 11  2  0
 13 23  2  0
 13 12  1  0
 14 13  1  0
 15 16  1  0
 15 14  2  0
 16 22  2  0
 17 16  1  0
 18 17  1  1
 19 18  1  0
 19 10  1  0
 20 28  1  0
 20 18  1  0
 21 20  2  0
 22 23  1  0
 25 24  1  1
 26 25  1  0
 27 29  1  0
 27 25  1  0
 27 28  1  1
 29 31  1  0
 30 29  2  0
M  END
$$$$
