RYT.pdb
     RDKit          3D

 31 31  0  0  1  0  0  0  0  0999 V2000
   29.5629  -22.2910  -19.0131 N   0  0  0  0  0  0  0  0  0  0  0  0
   29.6861  -23.2752  -18.0024 C   0  0  0  0  0  0  0  0  0  0  0  0
   30.6517  -24.1087  -17.9509 N   0  0  0  0  0  0  0  0  0  0  0  0
   28.6825  -23.3369  -16.9946 N   0  0  0  0  0  0  0  0  0  0  0  0
   27.5326  -22.4121  -17.0562 C   0  0  0  0  0  0  0  0  0  0  0  0
   27.5347  -21.6459  -15.7875 C   0  0  0  0  0  0  0  0  0  0  0  0
   26.3619  -21.9147  -14.9360 C   0  0  0  0  0  0  0  0  0  0  0  0
   25.1357  -21.1948  -15.3801 C   0  0  2  0  0  0  0  0  0  0  0  0
   25.2953  -19.7936  -15.6389 N   0  0  0  0  0  0  0  0  0  0  0  0
   24.0592  -21.4043  -14.3901 C   0  0  0  0  0  0  0  0  0  0  0  0
   23.8329  -22.5631  -13.9898 O   0  0  0  0  0  0  0  0  0  0  0  0
   30.6849  -24.8699  -17.2242 O   0  0  0  0  0  0  0  0  0  0  0  0
   26.1391  -21.0897   -7.9244 C   0  0  0  0  0  0  0  0  0  0  0  0
   25.2046  -20.6920   -8.8674 C   0  0  0  0  0  0  0  0  0  0  0  0
   23.8587  -20.9199   -8.7118 C   0  0  0  0  0  0  0  0  0  0  0  0
   22.9650  -20.5051   -9.6803 C   0  0  0  0  0  0  0  0  0  0  0  0
   23.3700  -19.8569  -10.8246 C   0  0  0  0  0  0  0  0  0  0  0  0
   22.3488  -19.4445  -11.8181 C   0  0  2  0  0  0  0  0  0  0  0  0
   22.2575  -20.4627  -12.9459 N   0  0  0  0  0  0  0  0  0  0  0  0
   23.3129  -20.3104  -13.9166 C   0  0  0  0  0  0  0  0  0  0  0  0
   20.9070  -20.4780  -13.5578 O   0  0  0  0  0  0  0  0  0  0  0  0
   20.5516  -19.4627  -14.2033 C   0  0  0  0  0  0  0  0  0  0  0  0
   24.7197  -19.6366  -10.9644 C   0  0  0  0  0  0  0  0  0  0  0  0
   25.6382  -20.0394  -10.0132 C   0  0  0  0  0  0  0  0  0  0  0  0
   18.9430  -24.0006  -14.5223 C   0  0  2  0  0  0  0  0  0  0  0  0
   18.7376  -22.6749  -15.2129 O   0  0  0  0  0  0  0  0  0  0  0  0
   17.5347  -22.7116  -15.8897 C   0  0  1  0  0  0  0  0  0  0  0  0
   18.7933  -21.5756  -14.1838 N   0  0  0  0  0  0  0  0  0  0  0  0
   20.0186  -21.5721  -13.4442 C   0  0  0  0  0  0  0  0  0  0  0  0
   17.6853  -21.6974  -13.2126 O   0  0  0  0  0  0  0  0  0  0  0  0
   17.8612  -21.8423  -11.9637 O   0  0  0  0  0  0  0  0  0  0  0  0
  2  1  1  0
  2  3  2  0
  4  2  1  0
  5  4  1  0
  6  7  1  0
  6  5  1  0
  8 10  1  0
  8  7  1  0
  8  9  1  1
 10 11  2  0
 13 23  2  0
 13 12  1  0
 14 13  1  0
 15 16  1  0
 15 14  2  0
 16 22  2  0
 17 16  1  0
 18 17  1  1
 19 18  1  0
 19 10  1  0
 20 28  1  0
 20 18  1  0
 21 20  2  0
 22 23  1  0
 25 24  1  6
 26 25  1  0
 27 29  1  0
 27 25  1  0
 27 28  1  6
 29 31  1  0
 30 29  2  0
M  END
$$$$
