RYT.pdb
     RDKit          3D

 31 31  0  0  1  0  0  0  0  0999 V2000
   24.6323  -19.2405  -16.8570 N   0  0  0  0  0  0  0  0  0  0  0  0
   25.0970  -20.3394  -17.6198 C   0  0  0  0  0  0  0  0  0  0  0  0
   25.2493  -20.2976  -18.8866 N   0  0  0  0  0  0  0  0  0  0  0  0
   25.4092  -21.5499  -16.9387 N   0  0  0  0  0  0  0  0  0  0  0  0
   25.1803  -21.6446  -15.4828 C   0  0  0  0  0  0  0  0  0  0  0  0
   26.4919  -21.4190  -14.8305 C   0  0  0  0  0  0  0  0  0  0  0  0
   26.5326  -21.8577  -13.4238 C   0  0  0  0  0  0  0  0  0  0  0  0
   25.6904  -21.0222  -12.5229 C   0  0  2  0  0  0  0  0  0  0  0  0
   25.6265  -19.6269  -12.8468 N   0  0  0  0  0  0  0  0  0  0  0  0
   26.1454  -21.1947  -11.1279 C   0  0  0  0  0  0  0  0  0  0  0  0
   26.2070  -22.3477  -10.6578 O   0  0  0  0  0  0  0  0  0  0  0  0
   25.6016  -21.1296  -19.4274 O   0  0  0  0  0  0  0  0  0  0  0  0
   29.3670  -20.0173   -3.1187 C   0  0  0  0  0  0  0  0  0  0  0  0
   29.0119  -19.8188   -4.4436 C   0  0  0  0  0  0  0  0  0  0  0  0
   29.4686  -20.6260   -5.4572 C   0  0  0  0  0  0  0  0  0  0  0  0
   29.0871  -20.3878   -6.7635 C   0  0  0  0  0  0  0  0  0  0  0  0
   28.2484  -19.3523   -7.1069 C   0  0  0  0  0  0  0  0  0  0  0  0
   27.8866  -19.1615   -8.5327 C   0  0  2  0  0  0  0  0  0  0  0  0
   26.8354  -20.1767   -8.9585 N   0  0  0  0  0  0  0  0  0  0  0  0
   26.4996  -20.0730  -10.3570 C   0  0  0  0  0  0  0  0  0  0  0  0
   25.6464  -20.1332   -8.0737 O   0  0  0  0  0  0  0  0  0  0  0  0
   24.8388  -19.1866   -8.2341 C   0  0  0  0  0  0  0  0  0  0  0  0
   27.8005  -18.5546   -6.0809 C   0  0  0  0  0  0  0  0  0  0  0  0
   28.1642  -18.7675   -4.7644 C   0  0  0  0  0  0  0  0  0  0  0  0
   22.6053  -21.6667   -7.9753 C   0  0  2  0  0  0  0  0  0  0  0  0
   23.1643  -22.0028   -6.6148 O   0  0  0  0  0  0  0  0  0  0  0  0
   23.6532  -23.2937   -6.6451 C   0  0  2  0  0  0  0  0  0  0  0  0
   24.2200  -20.9886   -6.2577 N   0  0  0  0  0  0  0  0  0  0  0  0
   25.3910  -21.0989   -7.0730 C   0  0  0  0  0  0  0  0  0  0  0  0
   24.6418  -21.1315   -4.8479 O   0  0  0  0  0  0  0  0  0  0  0  0
   23.8504  -21.0029   -3.8635 O   0  0  0  0  0  0  0  0  0  0  0  0
  2  1  1  0
  2  3  2  0
  4  2  1  0
  5  4  1  0
  6  7  1  0
  6  5  1  0
  8 10  1  0
  8  7  1  0
  8  9  1  6
 10 11  2  0
 13 23  2  0
 13 12  1  0
 14 13  1  0
 15 16  1  0
 15 14  2  0
 16 22  2  0
 17 16  1  0
 18 17  1  6
 19 18  1  0
 19 10  1  0
 20 28  1  0
 20 18  1  0
 21 20  2  0
 22 23  1  0
 25 24  1  1
 26 25  1  0
 27 29  1  0
 27 25  1  0
 27 28  1  1
 29 31  1  0
 30 29  2  0
M  END
$$$$
