RYT.pdb
     RDKit          3D

 31 31  0  0  1  0  0  0  0  0999 V2000
   13.3547  -16.0275  -14.4492 N   0  0  0  0  0  0  0  0  0  0  0  0
   12.7382  -14.7526  -14.4502 C   0  0  0  0  0  0  0  0  0  0  0  0
   11.5104  -14.5686  -14.1530 N   0  0  0  0  0  0  0  0  0  0  0  0
   13.5282  -13.6212  -14.8002 N   0  0  0  0  0  0  0  0  0  0  0  0
   14.4992  -13.7273  -15.9080 C   0  0  0  0  0  0  0  0  0  0  0  0
   15.1751  -12.4121  -16.0083 C   0  0  0  0  0  0  0  0  0  0  0  0
   16.2101  -12.3611  -17.0567 C   0  0  0  0  0  0  0  0  0  0  0  0
   17.5870  -12.5870  -16.5351 C   0  0  2  0  0  0  0  0  0  0  0  0
   17.7675  -13.7700  -15.7453 N   0  0  0  0  0  0  0  0  0  0  0  0
   18.0219  -11.4000  -15.7704 C   0  0  0  0  0  0  0  0  0  0  0  0
   17.4744  -11.1608  -14.6763 O   0  0  0  0  0  0  0  0  0  0  0  0
   11.0705  -13.6128  -14.1936 O   0  0  0  0  0  0  0  0  0  0  0  0
   22.4588   -4.3636  -13.0219 C   0  0  0  0  0  0  0  0  0  0  0  0
   22.0968   -5.5614  -13.6176 C   0  0  0  0  0  0  0  0  0  0  0  0
   22.1754   -5.7621  -14.9745 C   0  0  0  0  0  0  0  0  0  0  0  0
   21.8023   -6.9743  -15.5225 C   0  0  0  0  0  0  0  0  0  0  0  0
   21.3433   -8.0185  -14.7528 C   0  0  0  0  0  0  0  0  0  0  0  0
   20.9606   -9.2885  -15.4168 C   0  0  1  0  0  0  0  0  0  0  0  0
   19.4512   -9.3639  -15.5982 N   0  0  0  0  0  0  0  0  0  0  0  0
   19.0343  -10.5658  -16.2773 C   0  0  0  0  0  0  0  0  0  0  0  0
   18.9156   -8.1310  -16.2238 O   0  0  0  0  0  0  0  0  0  0  0  0
   19.0297   -8.0156  -17.4678 C   0  0  0  0  0  0  0  0  0  0  0  0
   21.2711   -7.8011  -13.3974 C   0  0  0  0  0  0  0  0  0  0  0  0
   21.6371   -6.5999  -12.8195 C   0  0  0  0  0  0  0  0  0  0  0  0
   15.9125   -4.2950  -16.1233 C   0  0  2  0  0  0  0  0  0  0  0  0
   16.3293   -5.6411  -15.5841 O   0  0  0  0  0  0  0  0  0  0  0  0
   15.3430   -6.5604  -15.8817 C   0  0  1  0  0  0  0  0  0  0  0  0
   17.6659   -6.0096  -16.1741 N   0  0  0  0  0  0  0  0  0  0  0  0
   18.2927   -7.0974  -15.4869 C   0  0  0  0  0  0  0  0  0  0  0  0
   18.5984   -4.8629  -16.1403 O   0  0  0  0  0  0  0  0  0  0  0  0
   19.5114   -4.7278  -15.2685 O   0  0  0  0  0  0  0  0  0  0  0  0
  2  1  1  0
  2  3  2  0
  4  2  1  0
  5  4  1  0
  6  7  1  0
  6  5  1  0
  8 10  1  0
  8  7  1  0
  8  9  1  1
 10 11  2  0
 13 23  2  0
 13 12  1  0
 14 13  1  0
 15 16  1  0
 15 14  2  0
 16 22  2  0
 17 16  1  0
 18 17  1  1
 19 18  1  0
 19 10  1  0
 20 28  1  0
 20 18  1  0
 21 20  2  0
 22 23  1  0
 25 24  1  1
 26 25  1  0
 27 29  1  0
 27 25  1  0
 27 28  1  1
 29 31  1  0
 30 29  2  0
M  END
$$$$
