LID.pdb
     RDKit          3D

 25 24  0  0  1  0  0  0  0  0999 V2000
    7.9864  -14.4301   18.3840 C   0  0  0  0  0  0  0  0  0  0  0  0
    7.3461  -13.4055   19.3284 C   0  0  2  0  0  0  0  0  0  0  0  0
    7.5299  -12.0377   18.7190 C   0  0  0  0  0  0  0  0  0  0  0  0
    8.1164  -13.4872   20.6074 C   0  0  0  0  0  0  0  0  0  0  0  0
    7.9203  -14.7930   21.2920 C   0  0  2  0  0  0  0  0  0  0  0  0
    6.5437  -15.2173   21.3999 N   0  0  0  0  0  0  0  0  0  0  0  0
    8.4527  -14.6851   22.6776 C   0  0  0  0  0  0  0  0  0  0  0  0
    9.6516  -14.2907   22.8314 O   0  0  0  0  0  0  0  0  0  0  0  0
    5.4698  -12.3237   26.3053 C   0  0  0  0  0  0  0  0  0  0  0  0
    6.5841  -12.8870   25.4958 C   0  0  0  0  0  0  0  0  0  0  0  0
    7.2852  -14.0690   26.0245 C   0  0  2  0  0  0  0  0  0  0  0  0
    7.5889  -13.9920   27.5100 C   0  0  0  0  0  0  0  0  0  0  0  0
    8.2922  -14.7285   25.1837 C   0  0  2  0  0  0  0  0  0  0  0  0
    7.7130  -14.9927   23.8354 N   0  0  0  0  0  0  0  0  0  0  0  0
    8.9616  -15.9490   25.6454 C   0  0  0  0  0  0  0  0  0  0  0  0
    8.2693  -17.0306   25.8310 O   0  0  0  0  0  0  0  0  0  0  0  0
   10.3369  -16.1415   25.9279 N   0  0  0  0  0  0  0  0  0  0  0  0
   10.8645  -17.3949   26.4185 C   0  0  1  0  0  0  0  0  0  0  0  0
   12.2653  -17.6576   25.8966 C   0  0  0  0  0  0  0  0  0  0  0  0
   12.4096  -17.3918   24.4609 C   0  0  0  0  0  0  0  0  0  0  0  0
   11.7612  -17.9961   23.5749 O   0  0  0  0  0  0  0  0  0  0  0  0
   10.9700  -17.3787   27.8881 C   0  0  0  0  0  0  0  0  0  0  0  0
   11.2713  -18.5388   28.6134 O   0  0  0  0  0  0  0  0  0  0  0  0
   13.3110  -16.4204   24.0618 O   0  0  0  0  0  0  0  0  0  0  0  0
   10.8039  -16.3546   28.5951 O   0  0  0  0  0  0  0  0  0  0  0  0
  2  1  1  6
  2  3  1  0
  4  2  1  0
  4  5  1  0
  5  7  1  0
  5  6  1  1
  7  8  2  0
  9 10  1  0
 10 11  1  0
 11 12  1  1
 13 11  1  0
 14  7  1  0
 13 14  1  6
 15 13  1  0
 15 16  2  0
 17 15  1  0
 18 17  1  0
 18 19  1  6
 20 19  1  0
 20 24  1  0
 21 20  2  0
 22 18  1  0
 22 23  1  0
 25 22  2  0
M  END
$$$$
