LID.pdb
     RDKit          3D

 25 24  0  0  1  0  0  0  0  0999 V2000
    8.4127  -12.4932   18.5707 C   0  0  0  0  0  0  0  0  0  0  0  0
    7.5856  -13.4658   19.4203 C   0  0  2  0  0  0  0  0  0  0  0  0
    6.1859  -12.9126   19.5245 C   0  0  0  0  0  0  0  0  0  0  0  0
    8.2199  -13.4710   20.7743 C   0  0  0  0  0  0  0  0  0  0  0  0
    8.0591  -14.7817   21.4585 C   0  0  2  0  0  0  0  0  0  0  0  0
    6.6897  -15.2073   21.6335 N   0  0  0  0  0  0  0  0  0  0  0  0
    8.6614  -14.6837   22.8159 C   0  0  0  0  0  0  0  0  0  0  0  0
    9.8929  -14.3808   22.9061 O   0  0  0  0  0  0  0  0  0  0  0  0
    6.1341  -11.9492   26.4373 C   0  0  0  0  0  0  0  0  0  0  0  0
    7.1866  -12.6348   25.6396 C   0  0  0  0  0  0  0  0  0  0  0  0
    7.7626  -13.8743   26.1875 C   0  0  2  0  0  0  0  0  0  0  0  0
    8.1618  -13.7748   27.6489 C   0  0  0  0  0  0  0  0  0  0  0  0
    8.6258  -14.6933   25.3273 C   0  0  2  0  0  0  0  0  0  0  0  0
    7.9543  -14.9055   24.0130 N   0  0  0  0  0  0  0  0  0  0  0  0
    9.1342  -15.9855   25.7995 C   0  0  0  0  0  0  0  0  0  0  0  0
    8.3129  -16.9753   25.9704 O   0  0  0  0  0  0  0  0  0  0  0  0
   10.4706  -16.3425   26.1073 N   0  0  0  0  0  0  0  0  0  0  0  0
   10.8396  -17.6633   26.5648 C   0  0  1  0  0  0  0  0  0  0  0  0
   12.2795  -17.9958   26.2192 C   0  0  0  0  0  0  0  0  0  0  0  0
   12.7049  -17.4569   24.9225 C   0  0  0  0  0  0  0  0  0  0  0  0
   13.5526  -16.5426   24.7956 O   0  0  0  0  0  0  0  0  0  0  0  0
   10.7372  -17.7565   28.0317 C   0  0  0  0  0  0  0  0  0  0  0  0
   10.9279  -18.9710   28.7035 O   0  0  0  0  0  0  0  0  0  0  0  0
   12.1397  -17.9866   23.7755 O   0  0  0  0  0  0  0  0  0  0  0  0
   10.4781  -16.7845   28.7830 O   0  0  0  0  0  0  0  0  0  0  0  0
  2  1  1  6
  2  3  1  0
  4  2  1  0
  4  5  1  0
  5  7  1  0
  5  6  1  1
  7  8  2  0
  9 10  1  0
 10 11  1  0
 11 12  1  1
 13 11  1  0
 14  7  1  0
 13 14  1  6
 15 13  1  0
 15 16  2  0
 17 15  1  0
 18 17  1  0
 18 19  1  1
 20 19  1  0
 20 24  1  0
 21 20  2  0
 22 18  1  0
 22 23  1  0
 25 22  2  0
M  END
$$$$
