LID.pdb
     RDKit          3D

 25 24  0  0  1  0  0  0  0  0999 V2000
    7.5406  -12.8078   27.6771 C   0  0  0  0  0  0  0  0  0  0  0  0
    8.3618  -14.0749   27.9455 C   0  0  2  0  0  0  0  0  0  0  0  0
    9.6907  -13.6510   28.5203 C   0  0  0  0  0  0  0  0  0  0  0  0
    8.5788  -14.7146   26.6115 C   0  0  0  0  0  0  0  0  0  0  0  0
    7.3032  -15.1778   26.0029 C   0  0  2  0  0  0  0  0  0  0  0  0
    6.6301  -16.2251   26.7357 N   0  0  0  0  0  0  0  0  0  0  0  0
    7.5942  -15.7139   24.6454 C   0  0  0  0  0  0  0  0  0  0  0  0
    7.4142  -16.9554   24.4386 O   0  0  0  0  0  0  0  0  0  0  0  0
    8.3272  -12.5273   19.8263 C   0  0  0  0  0  0  0  0  0  0  0  0
    8.7711  -13.4804   20.8792 C   0  0  0  0  0  0  0  0  0  0  0  0
    7.8945  -14.6245   21.1807 C   0  0  2  0  0  0  0  0  0  0  0  0
    6.4129  -14.3089   21.0802 C   0  0  0  0  0  0  0  0  0  0  0  0
    8.2940  -15.5618   22.2380 C   0  0  2  0  0  0  0  0  0  0  0  0
    8.0584  -14.9334   23.5695 N   0  0  0  0  0  0  0  0  0  0  0  0
    9.6359  -16.1537   22.2382 C   0  0  0  0  0  0  0  0  0  0  0  0
   10.0058  -16.9071   21.2487 O   0  0  0  0  0  0  0  0  0  0  0  0
   10.6570  -16.0111   23.2103 N   0  0  0  0  0  0  0  0  0  0  0  0
   11.8984  -16.7498   23.1519 C   0  0  1  0  0  0  0  0  0  0  0  0
   13.0972  -15.8259   23.0383 C   0  0  0  0  0  0  0  0  0  0  0  0
   13.5681  -15.6523   21.6596 C   0  0  0  0  0  0  0  0  0  0  0  0
   12.9904  -16.1441   20.6621 O   0  0  0  0  0  0  0  0  0  0  0  0
   12.0991  -17.5338   24.3832 C   0  0  0  0  0  0  0  0  0  0  0  0
   12.9524  -18.6446   24.4131 O   0  0  0  0  0  0  0  0  0  0  0  0
   14.7132  -14.9044   21.4477 O   0  0  0  0  0  0  0  0  0  0  0  0
   11.5396  -17.2812   25.4783 O   0  0  0  0  0  0  0  0  0  0  0  0
  2  1  1  6
  2  3  1  0
  4  2  1  0
  4  5  1  0
  5  7  1  0
  5  6  1  1
  7  8  2  0
  9 10  1  0
 10 11  1  0
 11 12  1  1
 13 11  1  0
 14  7  1  0
 13 14  1  1
 15 13  1  0
 15 16  2  0
 17 15  1  0
 18 17  1  0
 18 19  1  1
 20 19  1  0
 20 24  1  0
 21 20  2  0
 22 18  1  0
 22 23  1  0
 25 22  2  0
M  END
$$$$
