LID.pdb
     RDKit          3D

 25 24  0  0  1  0  0  0  0  0999 V2000
    9.6224  -15.0096   29.7950 C   0  0  0  0  0  0  0  0  0  0  0  0
   10.4985  -16.2677   29.7576 C   0  0  2  0  0  0  0  0  0  0  0  0
   11.9354  -15.8263   29.6301 C   0  0  0  0  0  0  0  0  0  0  0  0
   10.0963  -17.0126   28.5251 C   0  0  0  0  0  0  0  0  0  0  0  0
    8.6185  -17.0685   28.3666 C   0  0  2  0  0  0  0  0  0  0  0  0
    8.0358  -18.3705   28.5943 N   0  0  0  0  0  0  0  0  0  0  0  0
    8.2774  -16.6765   26.9720 C   0  0  0  0  0  0  0  0  0  0  0  0
    8.0452  -17.5990   26.1285 O   0  0  0  0  0  0  0  0  0  0  0  0
    6.1003  -11.9429   26.1708 C   0  0  0  0  0  0  0  0  0  0  0  0
    6.2340  -13.3599   25.7367 C   0  0  0  0  0  0  0  0  0  0  0  0
    7.4066  -13.7185   24.9215 C   0  0  2  0  0  0  0  0  0  0  0  0
    7.3763  -13.1491   23.5144 C   0  0  0  0  0  0  0  0  0  0  0  0
    7.9908  -15.0570   25.0737 C   0  0  2  0  0  0  0  0  0  0  0  0
    8.1945  -15.3448   26.5224 N   0  0  0  0  0  0  0  0  0  0  0  0
    9.2169  -15.4186   24.3547 C   0  0  0  0  0  0  0  0  0  0  0  0
   10.3161  -14.7718   24.5933 O   0  0  0  0  0  0  0  0  0  0  0  0
    9.3973  -16.4369   23.3857 N   0  0  0  0  0  0  0  0  0  0  0  0
   10.6273  -16.5983   22.6435 C   0  0  1  0  0  0  0  0  0  0  0  0
   10.9584  -18.0619   22.4159 C   0  0  0  0  0  0  0  0  0  0  0  0
   11.4835  -18.7313   23.6113 C   0  0  0  0  0  0  0  0  0  0  0  0
   11.6819  -18.1477   24.7024 O   0  0  0  0  0  0  0  0  0  0  0  0
   10.5152  -15.9898   21.3062 C   0  0  0  0  0  0  0  0  0  0  0  0
   11.6347  -15.8258   20.4801 O   0  0  0  0  0  0  0  0  0  0  0  0
   11.7763  -20.0816   23.5307 O   0  0  0  0  0  0  0  0  0  0  0  0
    9.4389  -15.5785   20.8074 O   0  0  0  0  0  0  0  0  0  0  0  0
  2  1  1  6
  2  3  1  0
  4  2  1  0
  4  5  1  0
  5  7  1  0
  5  6  1  6
  7  8  2  0
  9 10  1  0
 10 11  1  0
 11 12  1  6
 13 11  1  0
 14  7  1  0
 13 14  1  1
 15 13  1  0
 15 16  2  0
 17 15  1  0
 18 17  1  0
 18 19  1  6
 20 19  1  0
 20 24  1  0
 21 20  2  0
 22 18  1  0
 22 23  1  0
 25 22  2  0
M  END
$$$$
