LID.pdb
     RDKit          3D

 25 24  0  0  1  0  0  0  0  0999 V2000
    8.5100  -14.7931   18.6388 C   0  0  0  0  0  0  0  0  0  0  0  0
    7.5381  -13.8773   19.3929 C   0  0  2  0  0  0  0  0  0  0  0  0
    7.5175  -12.5443   18.6867 C   0  0  0  0  0  0  0  0  0  0  0  0
    8.1137  -13.7053   20.7622 C   0  0  0  0  0  0  0  0  0  0  0  0
    8.1163  -14.9801   21.5283 C   0  0  2  0  0  0  0  0  0  0  0  0
    6.8257  -15.6189   21.6418 N   0  0  0  0  0  0  0  0  0  0  0  0
    8.5865  -14.6992   22.9121 C   0  0  0  0  0  0  0  0  0  0  0  0
    9.8031  -14.3694   23.0778 O   0  0  0  0  0  0  0  0  0  0  0  0
    5.5006  -11.9252   26.2443 C   0  0  0  0  0  0  0  0  0  0  0  0
    6.6247  -12.5639   25.5076 C   0  0  0  0  0  0  0  0  0  0  0  0
    7.3248  -13.6819   26.1621 C   0  0  2  0  0  0  0  0  0  0  0  0
    7.6349  -13.4407   27.6286 C   0  0  0  0  0  0  0  0  0  0  0  0
    8.3265  -14.4341   25.3962 C   0  0  2  0  0  0  0  0  0  0  0  0
    7.7691  -14.7751   24.0559 N   0  0  0  0  0  0  0  0  0  0  0  0
    8.9413  -15.6402   25.9605 C   0  0  0  0  0  0  0  0  0  0  0  0
    9.4448  -15.6054   27.1559 O   0  0  0  0  0  0  0  0  0  0  0  0
    9.0684  -16.9201   25.3656 N   0  0  0  0  0  0  0  0  0  0  0  0
    9.7163  -18.0284   26.0303 C   0  0  1  0  0  0  0  0  0  0  0  0
    8.9072  -19.3068   25.9097 C   0  0  0  0  0  0  0  0  0  0  0  0
    7.9248  -19.4762   26.9863 C   0  0  0  0  0  0  0  0  0  0  0  0
    7.8657  -18.7342   27.9946 O   0  0  0  0  0  0  0  0  0  0  0  0
   11.0262  -18.3121   25.4183 C   0  0  0  0  0  0  0  0  0  0  0  0
   11.9214  -19.2234   25.9937 O   0  0  0  0  0  0  0  0  0  0  0  0
    7.0127  -20.5121   26.8841 O   0  0  0  0  0  0  0  0  0  0  0  0
   11.4402  -17.7776   24.3604 O   0  0  0  0  0  0  0  0  0  0  0  0
  2  1  1  6
  2  3  1  0
  4  2  1  0
  4  5  1  0
  5  7  1  0
  5  6  1  1
  7  8  2  0
  9 10  1  0
 10 11  1  0
 11 12  1  1
 13 11  1  0
 14  7  1  0
 13 14  1  6
 15 13  1  0
 15 16  2  0
 17 15  1  0
 18 17  1  0
 18 19  1  6
 20 19  1  0
 20 24  1  0
 21 20  2  0
 22 18  1  0
 22 23  1  0
 25 22  2  0
M  END
$$$$
