LID.pdb
     RDKit          3D

 25 24  0  0  1  0  0  0  0  0999 V2000
    6.0848  -16.4838   18.5055 C   0  0  0  0  0  0  0  0  0  0  0  0
    6.9291  -17.1789   19.5807 C   0  0  2  0  0  0  0  0  0  0  0  0
    6.5778  -18.6460   19.5668 C   0  0  0  0  0  0  0  0  0  0  0  0
    6.5089  -16.5798   20.8846 C   0  0  0  0  0  0  0  0  0  0  0  0
    6.7857  -15.1195   20.9403 C   0  0  2  0  0  0  0  0  0  0  0  0
    7.4922  -14.5949   19.7948 N   0  0  0  0  0  0  0  0  0  0  0  0
    7.6281  -14.8431   22.1357 C   0  0  0  0  0  0  0  0  0  0  0  0
    8.8890  -14.7894   21.9825 O   0  0  0  0  0  0  0  0  0  0  0  0
    5.7938  -11.4549   25.9782 C   0  0  0  0  0  0  0  0  0  0  0  0
    6.6553  -12.2013   25.0217 C   0  0  0  0  0  0  0  0  0  0  0  0
    7.3209  -13.4214   25.5081 C   0  0  2  0  0  0  0  0  0  0  0  0
    7.9517  -13.2736   26.8812 C   0  0  0  0  0  0  0  0  0  0  0  0
    8.0383  -14.2670   24.5457 C   0  0  2  0  0  0  0  0  0  0  0  0
    7.1185  -14.6365   23.4318 N   0  0  0  0  0  0  0  0  0  0  0  0
    8.7306  -15.4798   24.9938 C   0  0  0  0  0  0  0  0  0  0  0  0
    8.0484  -16.5564   25.2367 O   0  0  0  0  0  0  0  0  0  0  0  0
   10.1189  -15.6694   25.2058 N   0  0  0  0  0  0  0  0  0  0  0  0
   10.7103  -16.9772   25.3785 C   0  0  1  0  0  0  0  0  0  0  0  0
   12.0489  -17.0864   24.6716 C   0  0  0  0  0  0  0  0  0  0  0  0
   12.7479  -18.3476   24.9432 C   0  0  0  0  0  0  0  0  0  0  0  0
   12.2517  -19.4771   24.7228 O   0  0  0  0  0  0  0  0  0  0  0  0
   10.9745  -17.2480   26.8025 C   0  0  0  0  0  0  0  0  0  0  0  0
   10.7295  -16.2839   27.7891 O   0  0  0  0  0  0  0  0  0  0  0  0
   14.0256  -18.2879   25.4717 O   0  0  0  0  0  0  0  0  0  0  0  0
   11.4282  -18.3335   27.2409 O   0  0  0  0  0  0  0  0  0  0  0  0
  2  1  1  6
  2  3  1  0
  4  2  1  0
  4  5  1  0
  5  7  1  0
  5  6  1  6
  7  8  2  0
  9 10  1  0
 10 11  1  0
 11 12  1  1
 13 11  1  0
 14  7  1  0
 13 14  1  6
 15 13  1  0
 15 16  2  0
 17 15  1  0
 18 17  1  0
 18 19  1  6
 20 19  1  0
 20 24  1  0
 21 20  2  0
 22 18  1  0
 22 23  1  0
 25 22  2  0
M  END
$$$$
