HQK.pdb
     RDKit          3D

 29 29  0  0  1  0  0  0  0  0999 V2000
   10.6136  -16.2260   15.2693 N   0  0  0  0  0  0  0  0  0  0  0  0
   10.3819  -15.2874   16.3470 C   0  0  1  0  0  0  0  0  0  0  0  0
    8.8948  -15.4029   16.7122 C   0  0  0  0  0  0  0  0  0  0  0  0
    8.1024  -14.7111   15.6977 C   0  0  0  0  0  0  0  0  0  0  0  0
    7.8495  -13.3567   15.6616 C   0  0  0  0  0  0  0  0  0  0  0  0
    7.0808  -13.1146   14.5686 N   0  0  0  0  0  0  0  0  0  0  0  0
    6.8554  -14.2704   13.9366 C   0  0  0  0  0  0  0  0  0  0  0  0
    7.4841  -15.2257   14.6384 N   0  0  0  0  0  0  0  0  0  0  0  0
   11.1290  -15.7404   17.5344 C   0  0  0  0  0  0  0  0  0  0  0  0
   11.4269  -16.9520   17.6335 O   0  0  0  0  0  0  0  0  0  0  0  0
   16.2456  -15.7246   20.7682 N   0  0  0  0  0  0  0  0  0  0  0  0
   15.6352  -14.6395   20.0996 C   0  0  0  0  0  0  0  0  0  0  0  0
   16.0924  -14.2331   19.0061 O   0  0  0  0  0  0  0  0  0  0  0  0
   14.4251  -13.9565   20.6939 C   0  0  0  0  0  0  0  0  0  0  0  0
   13.3602  -13.9612   19.6670 C   0  0  0  0  0  0  0  0  0  0  0  0
   12.5298  -15.1778   19.5154 C   0  0  2  0  0  0  0  0  0  0  0  0
   11.4923  -14.8245   18.5247 N   0  0  0  0  0  0  0  0  0  0  0  0
   11.7881  -15.5950   20.7136 C   0  0  0  0  0  0  0  0  0  0  0  0
   10.8042  -14.9073   21.1745 O   0  0  0  0  0  0  0  0  0  0  0  0
   12.1216  -16.7680   21.4005 N   0  0  0  0  0  0  0  0  0  0  0  0
   11.4436  -17.2158   22.6155 C   0  0  1  0  0  0  0  0  0  0  0  0
   11.4620  -18.7015   22.6415 C   0  0  0  0  0  0  0  0  0  0  0  0
   10.4263  -19.4270   21.8773 C   0  0  0  0  0  0  0  0  0  0  0  0
   10.4694  -20.9217   22.0499 C   0  0  0  0  0  0  0  0  0  0  0  0
    9.2470  -21.4540   21.2687 C   0  0  0  0  0  0  0  0  0  0  0  0
    9.1510  -22.8700   21.4806 N   0  0  0  0  0  0  0  0  0  0  0  0
   11.9642  -16.5149   23.7702 C   0  0  0  0  0  0  0  0  0  0  0  0
   13.1891  -16.1714   23.7836 O   0  0  0  0  0  0  0  0  0  0  0  0
   11.2199  -16.1859   24.8812 O   0  0  0  0  0  0  0  0  0  0  0  0
  2  1  1  6
  2  9  1  0
  3  2  1  0
  3  4  1  0
  4  5  2  0
  5  6  1  0
  7  6  1  0
  8  4  1  0
  8  7  2  0
  9 17  1  0
  9 10  2  0
 11 12  1  0
 12 14  1  0
 13 12  2  0
 14 15  1  0
 16 15  1  1
 16 18  1  0
 17 16  1  0
 18 19  2  0
 20 21  1  0
 20 18  1  0
 21 22  1  1
 23 22  1  0
 24 25  1  0
 24 23  1  0
 26 25  1  0
 27 21  1  0
 27 29  1  0
 28 27  2  0
M  END
$$$$
