HQK.pdb
     RDKit          3D

 29 29  0  0  1  0  0  0  0  0999 V2000
    9.3191  -16.0364   19.3722 N   0  0  0  0  0  0  0  0  0  0  0  0
    8.3490  -15.0953   19.8912 C   0  0  1  0  0  0  0  0  0  0  0  0
    7.1501  -15.1334   18.9323 C   0  0  0  0  0  0  0  0  0  0  0  0
    7.5821  -14.6721   17.6146 C   0  0  0  0  0  0  0  0  0  0  0  0
    8.2095  -13.4741   17.3489 C   0  0  0  0  0  0  0  0  0  0  0  0
    8.4433  -13.4243   16.0120 N   0  0  0  0  0  0  0  0  0  0  0  0
    7.9820  -14.5468   15.4525 C   0  0  0  0  0  0  0  0  0  0  0  0
    7.4637  -15.2895   16.4425 N   0  0  0  0  0  0  0  0  0  0  0  0
    7.8516  -15.5974   21.1849 C   0  0  0  0  0  0  0  0  0  0  0  0
    6.8513  -15.0494   21.7003 O   0  0  0  0  0  0  0  0  0  0  0  0
    6.5762  -20.3902   23.3274 N   0  0  0  0  0  0  0  0  0  0  0  0
    7.3265  -20.2078   24.5109 C   0  0  0  0  0  0  0  0  0  0  0  0
    7.0561  -20.8711   25.5390 O   0  0  0  0  0  0  0  0  0  0  0  0
    8.4626  -19.2120   24.5518 C   0  0  0  0  0  0  0  0  0  0  0  0
    8.5196  -18.5449   23.2326 C   0  0  0  0  0  0  0  0  0  0  0  0
    8.0013  -17.1627   23.1165 C   0  0  2  0  0  0  0  0  0  0  0  0
    8.4934  -16.6664   21.8149 N   0  0  0  0  0  0  0  0  0  0  0  0
    8.5125  -16.2063   24.1083 C   0  0  0  0  0  0  0  0  0  0  0  0
    9.7439  -15.8366   24.1205 O   0  0  0  0  0  0  0  0  0  0  0  0
    7.6720  -15.6520   25.0808 N   0  0  0  0  0  0  0  0  0  0  0  0
    8.1191  -14.6861   26.0825 C   0  0  1  0  0  0  0  0  0  0  0  0
    6.9511  -13.8659   26.4962 C   0  0  0  0  0  0  0  0  0  0  0  0
    7.1185  -12.3999   26.5731 C   0  0  0  0  0  0  0  0  0  0  0  0
    5.8608  -11.6560   26.9344 C   0  0  0  0  0  0  0  0  0  0  0  0
    6.2863  -10.1749   27.0493 C   0  0  0  0  0  0  0  0  0  0  0  0
    5.1135   -9.3790   27.2734 N   0  0  0  0  0  0  0  0  0  0  0  0
    8.8770  -15.3518   27.1210 C   0  0  0  0  0  0  0  0  0  0  0  0
    8.6779  -16.5903   27.3332 O   0  0  0  0  0  0  0  0  0  0  0  0
    9.8162  -14.7336   27.9161 O   0  0  0  0  0  0  0  0  0  0  0  0
  2  1  1  6
  2  9  1  0
  3  2  1  0
  3  4  1  0
  4  5  2  0
  5  6  1  0
  7  6  1  0
  8  4  1  0
  8  7  2  0
  9 17  1  0
  9 10  2  0
 11 12  1  0
 12 14  1  0
 13 12  2  0
 14 15  1  0
 16 15  1  1
 16 18  1  0
 17 16  1  0
 18 19  2  0
 20 21  1  0
 20 18  1  0
 21 22  1  1
 23 22  1  0
 24 25  1  0
 24 23  1  0
 26 25  1  0
 27 21  1  0
 27 29  1  0
 28 27  2  0
M  END
$$$$
