HQK.pdb
     RDKit          3D

 29 29  0  0  1  0  0  0  0  0999 V2000
    9.8331  -17.2228   18.7843 N   0  0  0  0  0  0  0  0  0  0  0  0
   10.1558  -16.3287   19.8763 C   0  0  1  0  0  0  0  0  0  0  0  0
    8.8258  -15.9789   20.5596 C   0  0  0  0  0  0  0  0  0  0  0  0
    8.2756  -14.7759   19.9385 C   0  0  0  0  0  0  0  0  0  0  0  0
    8.8134  -14.1128   18.8565 C   0  0  0  0  0  0  0  0  0  0  0  0
    8.0097  -13.0515   18.5884 N   0  0  0  0  0  0  0  0  0  0  0  0
    7.0020  -13.0424   19.4661 C   0  0  0  0  0  0  0  0  0  0  0  0
    7.1828  -14.0969   20.2758 N   0  0  0  0  0  0  0  0  0  0  0  0
   10.9439  -17.0721   20.8760 C   0  0  0  0  0  0  0  0  0  0  0  0
   11.0848  -18.3077   20.7355 O   0  0  0  0  0  0  0  0  0  0  0  0
   15.5484  -17.2017   21.3134 N   0  0  0  0  0  0  0  0  0  0  0  0
   15.8679  -16.9907   22.6737 C   0  0  0  0  0  0  0  0  0  0  0  0
   16.9638  -17.3870   23.1341 O   0  0  0  0  0  0  0  0  0  0  0  0
   14.8936  -16.2857   23.5889 C   0  0  0  0  0  0  0  0  0  0  0  0
   13.6764  -15.9891   22.8022 C   0  0  0  0  0  0  0  0  0  0  0  0
   12.6198  -17.0232   22.7179 C   0  0  2  0  0  0  0  0  0  0  0  0
   11.5184  -16.3985   21.9567 N   0  0  0  0  0  0  0  0  0  0  0  0
   12.0200  -17.4255   23.9977 C   0  0  0  0  0  0  0  0  0  0  0  0
   11.4974  -16.5674   24.8001 O   0  0  0  0  0  0  0  0  0  0  0  0
   11.9882  -18.7679   24.3930 N   0  0  0  0  0  0  0  0  0  0  0  0
   11.5036  -19.2172   25.6967 C   0  0  1  0  0  0  0  0  0  0  0  0
   11.4799  -20.7030   25.7009 C   0  0  0  0  0  0  0  0  0  0  0  0
   11.0019  -21.3911   26.9178 C   0  0  0  0  0  0  0  0  0  0  0  0
   10.8968  -22.8861   26.7772 C   0  0  0  0  0  0  0  0  0  0  0  0
   10.2601  -23.3724   28.0985 C   0  0  0  0  0  0  0  0  0  0  0  0
   10.1380  -24.8012   28.0479 N   0  0  0  0  0  0  0  0  0  0  0  0
   12.2269  -18.5516   26.7595 C   0  0  0  0  0  0  0  0  0  0  0  0
   13.4353  -18.2062   26.5620 O   0  0  0  0  0  0  0  0  0  0  0  0
   11.6967  -18.2588   27.9963 O   0  0  0  0  0  0  0  0  0  0  0  0
  2  1  1  6
  2  9  1  0
  3  2  1  0
  3  4  1  0
  4  5  2  0
  5  6  1  0
  7  6  1  0
  8  4  1  0
  8  7  2  0
  9 17  1  0
  9 10  2  0
 11 12  1  0
 12 14  1  0
 13 12  2  0
 14 15  1  0
 16 15  1  1
 16 18  1  0
 17 16  1  0
 18 19  2  0
 20 21  1  0
 20 18  1  0
 21 22  1  6
 23 22  1  0
 24 25  1  0
 24 23  1  0
 26 25  1  0
 27 21  1  0
 27 29  1  0
 28 27  2  0
M  END
$$$$
