HQK.pdb
     RDKit          3D

 29 29  0  0  1  0  0  0  0  0999 V2000
    8.1204  -12.5903   17.6215 N   0  0  0  0  0  0  0  0  0  0  0  0
    8.1585  -13.9358   18.1545 C   0  0  1  0  0  0  0  0  0  0  0  0
    9.0837  -14.7430   17.2321 C   0  0  0  0  0  0  0  0  0  0  0  0
    8.4118  -14.9510   15.9511 C   0  0  0  0  0  0  0  0  0  0  0  0
    7.1572  -14.4882   15.6174 C   0  0  0  0  0  0  0  0  0  0  0  0
    6.8992  -14.8903   14.3462 N   0  0  0  0  0  0  0  0  0  0  0  0
    7.9493  -15.5810   13.8920 C   0  0  0  0  0  0  0  0  0  0  0  0
    8.8552  -15.6057   14.8815 N   0  0  0  0  0  0  0  0  0  0  0  0
    8.8234  -13.9024   19.4698 C   0  0  0  0  0  0  0  0  0  0  0  0
    9.8176  -13.1579   19.6243 O   0  0  0  0  0  0  0  0  0  0  0  0
    6.7675  -15.3215   25.2167 N   0  0  0  0  0  0  0  0  0  0  0  0
    6.7068  -16.3844   24.2876 C   0  0  0  0  0  0  0  0  0  0  0  0
    6.1267  -17.4537   24.5878 O   0  0  0  0  0  0  0  0  0  0  0  0
    7.3395  -16.2453   22.9222 C   0  0  0  0  0  0  0  0  0  0  0  0
    7.8796  -14.8720   22.8180 C   0  0  0  0  0  0  0  0  0  0  0  0
    8.9720  -14.6134   21.8522 C   0  0  2  0  0  0  0  0  0  0  0  0
    8.3434  -14.6920   20.5175 N   0  0  0  0  0  0  0  0  0  0  0  0
   10.0487  -15.6133   21.8271 C   0  0  0  0  0  0  0  0  0  0  0  0
    9.9073  -16.7460   21.2353 O   0  0  0  0  0  0  0  0  0  0  0  0
   11.2804  -15.3676   22.4449 N   0  0  0  0  0  0  0  0  0  0  0  0
   12.3827  -16.3273   22.4643 C   0  0  1  0  0  0  0  0  0  0  0  0
   13.5720  -15.6870   21.8447 C   0  0  0  0  0  0  0  0  0  0  0  0
   13.6308  -15.5998   20.3709 C   0  0  0  0  0  0  0  0  0  0  0  0
   14.8745  -14.9358   19.8438 C   0  0  0  0  0  0  0  0  0  0  0  0
   14.6366  -14.7799   18.3250 C   0  0  0  0  0  0  0  0  0  0  0  0
   15.7904  -14.1555   17.7437 N   0  0  0  0  0  0  0  0  0  0  0  0
   12.5347  -16.8930   23.7881 C   0  0  0  0  0  0  0  0  0  0  0  0
   13.4084  -17.7986   23.9761 O   0  0  0  0  0  0  0  0  0  0  0  0
   11.7885  -16.5200   24.8838 O   0  0  0  0  0  0  0  0  0  0  0  0
  2  1  1  6
  2  9  1  0
  3  2  1  0
  3  4  1  0
  4  5  2  0
  5  6  1  0
  7  6  1  0
  8  4  1  0
  8  7  2  0
  9 17  1  0
  9 10  2  0
 11 12  1  0
 12 14  1  0
 13 12  2  0
 14 15  1  0
 16 15  1  1
 16 18  1  0
 17 16  1  0
 18 19  2  0
 20 21  1  0
 20 18  1  0
 21 22  1  1
 23 22  1  0
 24 25  1  0
 24 23  1  0
 26 25  1  0
 27 21  1  0
 27 29  1  0
 28 27  2  0
M  END
$$$$
