HQK.pdb
     RDKit          3D

 29 29  0  0  1  0  0  0  0  0999 V2000
    7.7014  -17.2641   18.4332 N   0  0  0  0  0  0  0  0  0  0  0  0
    8.4922  -16.4407   19.3235 C   0  0  1  0  0  0  0  0  0  0  0  0
    7.8299  -15.0552   19.3376 C   0  0  0  0  0  0  0  0  0  0  0  0
    8.0826  -14.3960   18.0580 C   0  0  0  0  0  0  0  0  0  0  0  0
    7.1217  -14.0216   17.1436 C   0  0  0  0  0  0  0  0  0  0  0  0
    7.7611  -13.4441   16.0939 N   0  0  0  0  0  0  0  0  0  0  0  0
    9.0758  -13.4522   16.3337 C   0  0  0  0  0  0  0  0  0  0  0  0
    9.2487  -14.0340   17.5303 N   0  0  0  0  0  0  0  0  0  0  0  0
    8.3609  -16.9684   20.6937 C   0  0  0  0  0  0  0  0  0  0  0  0
    7.2393  -17.3652   21.0823 O   0  0  0  0  0  0  0  0  0  0  0  0
   12.4774  -20.4021   22.6842 N   0  0  0  0  0  0  0  0  0  0  0  0
   11.7942  -20.3909   23.9211 C   0  0  0  0  0  0  0  0  0  0  0  0
   12.1472  -21.1604   24.8449 O   0  0  0  0  0  0  0  0  0  0  0  0
   10.6311  -19.4524   24.1453 C   0  0  0  0  0  0  0  0  0  0  0  0
   10.4269  -18.6876   22.8956 C   0  0  0  0  0  0  0  0  0  0  0  0
    9.3703  -17.6505   22.8661 C   0  0  2  0  0  0  0  0  0  0  0  0
    9.4756  -17.0199   21.5342 N   0  0  0  0  0  0  0  0  0  0  0  0
    9.5337  -16.5487   23.8248 C   0  0  0  0  0  0  0  0  0  0  0  0
   10.4421  -15.6509   23.6762 O   0  0  0  0  0  0  0  0  0  0  0  0
    8.6974  -16.4291   24.9408 N   0  0  0  0  0  0  0  0  0  0  0  0
    8.8847  -15.4288   25.9899 C   0  0  1  0  0  0  0  0  0  0  0  0
    7.5941  -14.7227   26.1996 C   0  0  0  0  0  0  0  0  0  0  0  0
    7.6106  -13.2481   26.2895 C   0  0  0  0  0  0  0  0  0  0  0  0
    6.2609  -12.6331   26.5460 C   0  0  0  0  0  0  0  0  0  0  0  0
    6.5108  -11.1084   26.5762 C   0  0  0  0  0  0  0  0  0  0  0  0
    5.2702  -10.4480   26.8659 N   0  0  0  0  0  0  0  0  0  0  0  0
    9.5229  -16.0240   27.1450 C   0  0  0  0  0  0  0  0  0  0  0  0
    9.4144  -17.2776   27.3331 O   0  0  0  0  0  0  0  0  0  0  0  0
   10.2529  -15.3219   28.0782 O   0  0  0  0  0  0  0  0  0  0  0  0
  2  1  1  6
  2  9  1  0
  3  2  1  0
  3  4  1  0
  4  5  2  0
  5  6  1  0
  7  6  1  0
  8  4  1  0
  8  7  2  0
  9 17  1  0
  9 10  2  0
 11 12  1  0
 12 14  1  0
 13 12  2  0
 14 15  1  0
 16 15  1  1
 16 18  1  0
 17 16  1  0
 18 19  2  0
 20 21  1  0
 20 18  1  0
 21 22  1  1
 23 22  1  0
 24 25  1  0
 24 23  1  0
 26 25  1  0
 27 21  1  0
 27 29  1  0
 28 27  2  0
M  END
$$$$
