HQK.pdb
     RDKit          3D

 29 29  0  0  1  0  0  0  0  0999 V2000
    7.0722  -17.8485   17.8728 N   0  0  0  0  0  0  0  0  0  0  0  0
    7.7412  -16.9897   18.8272 C   0  0  1  0  0  0  0  0  0  0  0  0
    7.2162  -15.5685   18.5761 C   0  0  0  0  0  0  0  0  0  0  0  0
    7.7441  -15.0865   17.3015 C   0  0  0  0  0  0  0  0  0  0  0  0
    8.5471  -15.8043   16.4415 C   0  0  0  0  0  0  0  0  0  0  0  0
    8.8190  -15.0067   15.3765 N   0  0  0  0  0  0  0  0  0  0  0  0
    8.2122  -13.8294   15.5546 C   0  0  0  0  0  0  0  0  0  0  0  0
    7.5659  -13.8994   16.7284 N   0  0  0  0  0  0  0  0  0  0  0  0
    7.2939  -17.3551   20.1835 C   0  0  0  0  0  0  0  0  0  0  0  0
    6.1493  -17.8394   20.3311 O   0  0  0  0  0  0  0  0  0  0  0  0
    6.5045  -21.1023   25.2819 N   0  0  0  0  0  0  0  0  0  0  0  0
    7.1160  -20.6809   24.0797 C   0  0  0  0  0  0  0  0  0  0  0  0
    6.7739  -21.1868   22.9856 O   0  0  0  0  0  0  0  0  0  0  0  0
    8.1887  -19.6165   24.0981 C   0  0  0  0  0  0  0  0  0  0  0  0
    8.2146  -18.9853   22.7604 C   0  0  0  0  0  0  0  0  0  0  0  0
    7.7229  -17.5950   22.6252 C   0  0  2  0  0  0  0  0  0  0  0  0
    8.1413  -17.1595   21.2768 N   0  0  0  0  0  0  0  0  0  0  0  0
    8.3200  -16.6169   23.5452 C   0  0  0  0  0  0  0  0  0  0  0  0
    9.5147  -16.1716   23.3782 O   0  0  0  0  0  0  0  0  0  0  0  0
    7.6048  -16.1237   24.6427 N   0  0  0  0  0  0  0  0  0  0  0  0
    8.1902  -15.2676   25.6726 C   0  0  1  0  0  0  0  0  0  0  0  0
    7.0967  -14.4933   26.3151 C   0  0  0  0  0  0  0  0  0  0  0  0
    7.2603  -13.0309   26.4481 C   0  0  0  0  0  0  0  0  0  0  0  0
    6.0710  -12.3318   27.0501 C   0  0  0  0  0  0  0  0  0  0  0  0
    6.4508  -10.8341   27.0714 C   0  0  0  0  0  0  0  0  0  0  0  0
    5.3198  -10.0826   27.5353 N   0  0  0  0  0  0  0  0  0  0  0  0
    9.0647  -16.0385   26.5310 C   0  0  0  0  0  0  0  0  0  0  0  0
    8.9083  -17.2992   26.5997 O   0  0  0  0  0  0  0  0  0  0  0  0
   10.0739  -15.5001   27.2980 O   0  0  0  0  0  0  0  0  0  0  0  0
  2  1  1  6
  2  9  1  0
  3  2  1  0
  3  4  1  0
  4  5  2  0
  5  6  1  0
  7  6  1  0
  8  4  1  0
  8  7  2  0
  9 17  1  0
  9 10  2  0
 11 12  1  0
 12 14  1  0
 13 12  2  0
 14 15  1  0
 16 15  1  1
 16 18  1  0
 17 16  1  0
 18 19  2  0
 20 21  1  0
 20 18  1  0
 21 22  1  1
 23 22  1  0
 24 25  1  0
 24 23  1  0
 26 25  1  0
 27 21  1  0
 27 29  1  0
 28 27  2  0
M  END
$$$$
