HQK.pdb
     RDKit          3D

 29 29  0  0  1  0  0  0  0  0999 V2000
   14.6846  -13.9276   17.7074 N   0  0  0  0  0  0  0  0  0  0  0  0
   13.5121  -14.7761   17.7442 C   0  0  1  0  0  0  0  0  0  0  0  0
   14.0236  -16.2239   17.7656 C   0  0  0  0  0  0  0  0  0  0  0  0
   14.3929  -16.6164   16.4072 C   0  0  0  0  0  0  0  0  0  0  0  0
   13.7133  -16.2719   15.2587 C   0  0  0  0  0  0  0  0  0  0  0  0
   14.3734  -16.8304   14.2116 N   0  0  0  0  0  0  0  0  0  0  0  0
   15.4301  -17.5025   14.6781 C   0  0  0  0  0  0  0  0  0  0  0  0
   15.4229  -17.3595   16.0123 N   0  0  0  0  0  0  0  0  0  0  0  0
   12.8217  -14.5693   19.0302 C   0  0  0  0  0  0  0  0  0  0  0  0
   13.5046  -14.3105   20.0466 O   0  0  0  0  0  0  0  0  0  0  0  0
    6.7264  -13.6191   19.5461 N   0  0  0  0  0  0  0  0  0  0  0  0
    7.6141  -13.1301   18.5613 C   0  0  0  0  0  0  0  0  0  0  0  0
    7.1717  -12.5333   17.5522 O   0  0  0  0  0  0  0  0  0  0  0  0
    9.1057  -13.3202   18.7122 C   0  0  0  0  0  0  0  0  0  0  0  0
    9.3378  -14.0418   19.9826 C   0  0  0  0  0  0  0  0  0  0  0  0
   10.7306  -14.3651   20.3677 C   0  0  2  0  0  0  0  0  0  0  0  0
   11.4296  -14.6630   19.1007 N   0  0  0  0  0  0  0  0  0  0  0  0
   10.8995  -15.5711   21.1903 C   0  0  0  0  0  0  0  0  0  0  0  0
   11.1755  -16.7135   20.6685 O   0  0  0  0  0  0  0  0  0  0  0  0
   10.7719  -15.5220   22.5833 N   0  0  0  0  0  0  0  0  0  0  0  0
   10.8932  -16.6930   23.4496 C   0  0  1  0  0  0  0  0  0  0  0  0
   10.9221  -16.2300   24.8614 C   0  0  0  0  0  0  0  0  0  0  0  0
   10.9840  -17.2485   25.9300 C   0  0  0  0  0  0  0  0  0  0  0  0
   10.9226  -16.6819   27.3231 C   0  0  0  0  0  0  0  0  0  0  0  0
   11.0027  -17.9071   28.2614 C   0  0  0  0  0  0  0  0  0  0  0  0
   10.9670  -17.4452   29.6195 N   0  0  0  0  0  0  0  0  0  0  0  0
    9.9093  -17.6914   23.0877 C   0  0  0  0  0  0  0  0  0  0  0  0
    8.8237  -17.3182   22.5392 O   0  0  0  0  0  0  0  0  0  0  0  0
   10.0601  -19.0440   23.2980 O   0  0  0  0  0  0  0  0  0  0  0  0
  2  1  1  1
  2  9  1  0
  3  2  1  0
  3  4  1  0
  4  5  2  0
  5  6  1  0
  7  6  1  0
  8  4  1  0
  8  7  2  0
  9 17  1  0
  9 10  2  0
 11 12  1  0
 12 14  1  0
 13 12  2  0
 14 15  1  0
 16 15  1  6
 16 18  1  0
 17 16  1  0
 18 19  2  0
 20 21  1  0
 20 18  1  0
 21 22  1  1
 23 22  1  0
 24 25  1  0
 24 23  1  0
 26 25  1  0
 27 21  1  0
 27 29  1  0
 28 27  2  0
M  END
$$$$
