WRE.pdb
     RDKit          3D

 35 36  0  0  1  0  0  0  0  0999 V2000
    6.8066  -18.5333   25.0138 N   0  0  0  0  0  0  0  0  0  0  0  0
    7.2229  -17.1682   24.6252 C   0  0  1  0  0  0  0  0  0  0  0  0
    7.7323  -16.5469   25.8786 C   0  0  0  0  0  0  0  0  0  0  0  0
    6.9319  -15.4575   26.4542 C   0  0  0  0  0  0  0  0  0  0  0  0
    5.8096  -15.4798   27.2289 C   0  0  0  0  0  0  0  0  0  0  0  0
    5.4552  -14.2078   27.4951 N   0  0  0  0  0  0  0  0  0  0  0  0
    6.3219  -13.3892   26.9117 C   0  0  0  0  0  0  0  0  0  0  0  0
    6.4213  -12.0079   26.8714 C   0  0  0  0  0  0  0  0  0  0  0  0
    7.4543  -11.3867   26.1749 C   0  0  0  0  0  0  0  0  0  0  0  0
    8.4013  -12.1286   25.5089 C   0  0  0  0  0  0  0  0  0  0  0  0
    8.3114  -13.5007   25.5418 C   0  0  0  0  0  0  0  0  0  0  0  0
    7.2791  -14.1109   26.2387 C   0  0  0  0  0  0  0  0  0  0  0  0
    8.2326  -17.3367   23.5500 C   0  0  0  0  0  0  0  0  0  0  0  0
    8.9741  -18.3746   23.4840 O   0  0  0  0  0  0  0  0  0  0  0  0
    8.7956  -12.1057   18.0109 N   0  0  0  0  0  0  0  0  0  0  0  0
    8.0683  -13.2233   17.5323 C   0  0  0  0  0  0  0  0  0  0  0  0
    8.2483  -13.6650   16.3186 N   0  0  0  0  0  0  0  0  0  0  0  0
    7.1408  -13.8616   18.3876 N   0  0  0  0  0  0  0  0  0  0  0  0
    7.4163  -14.0208   19.7999 C   0  0  0  0  0  0  0  0  0  0  0  0
    7.6934  -15.4569   20.1375 C   0  0  0  0  0  0  0  0  0  0  0  0
    9.1712  -15.7370   20.2690 C   0  0  0  0  0  0  0  0  0  0  0  0
    9.4759  -16.5194   21.4872 C   0  0  2  0  0  0  0  0  0  0  0  0
    8.4474  -16.3699   22.5257 N   0  0  0  0  0  0  0  0  0  0  0  0
   10.8140  -16.4292   22.0594 C   0  0  0  0  0  0  0  0  0  0  0  0
   11.8611  -16.2369   21.3768 O   0  0  0  0  0  0  0  0  0  0  0  0
    7.7564  -14.4949   15.9536 N   0  0  0  0  0  0  0  0  0  0  0  0
   11.0263  -16.5625   23.4702 C   0  0  1  0  0  0  0  0  0  0  0  0
   12.3337  -16.3501   24.0388 C   0  0  0  0  0  0  0  0  0  0  0  0
   12.2884  -16.5393   25.5030 C   0  0  0  0  0  0  0  0  0  0  0  0
   11.1387  -15.9167   26.2139 C   0  0  0  0  0  0  0  0  0  0  0  0
   11.1129  -16.1238   27.6707 O   0  0  0  0  0  0  0  0  0  0  0  0
   11.8306  -16.9559   28.3026 C   0  0  0  0  0  0  0  0  0  0  0  0
   13.2925  -17.2364   23.3449 O   0  0  0  0  0  0  0  0  0  0  0  0
   12.9253  -18.2913   22.5182 O   0  0  0  0  0  0  0  0  0  0  0  0
   10.2374  -15.3545   28.4365 O   0  0  0  0  0  0  0  0  0  0  0  0
  2  1  1  1
  3  4  1  0
  3  2  1  0
  4  5  2  0
  5  6  1  0
  7  6  1  0
  8  7  2  0
  9  8  1  0
 10 11  1  0
 10  9  2  0
 11 12  2  0
 12  4  1  0
 12  7  1  0
 13  2  1  0
 13 14  2  0
 15 16  1  0
 16 17  2  0
 18 16  1  0
 18 19  1  0
 20 21  1  0
 20 19  1  0
 22 21  1  6
 22 23  1  0
 23 13  1  0
 24 22  1  0
 25 24  2  0
 26 24  1  0
 27 26  1  0
 27 28  1  6
 29 28  1  0
 30 34  1  0
 30 29  1  0
 31 30  2  0
 32 27  1  0
 32 33  1  0
 35 32  2  0
M  END
$$$$
