WRE.pdb
     RDKit          3D

 35 36  0  0  1  0  0  0  0  0999 V2000
    9.0272  -15.5242   24.5679 N   0  0  0  0  0  0  0  0  0  0  0  0
    8.0607  -16.5837   24.9302 C   0  0  1  0  0  0  0  0  0  0  0  0
    7.2548  -16.0092   26.0423 C   0  0  0  0  0  0  0  0  0  0  0  0
    7.8064  -14.8302   26.7237 C   0  0  0  0  0  0  0  0  0  0  0  0
    8.9772  -14.6489   27.3994 C   0  0  0  0  0  0  0  0  0  0  0  0
    9.0147  -13.3785   27.8457 N   0  0  0  0  0  0  0  0  0  0  0  0
    7.9035  -12.7579   27.4691 C   0  0  0  0  0  0  0  0  0  0  0  0
    7.4458  -11.4640   27.6583 C   0  0  0  0  0  0  0  0  0  0  0  0
    6.2176  -11.0589   27.1430 C   0  0  0  0  0  0  0  0  0  0  0  0
    5.4277  -11.9332   26.4341 C   0  0  0  0  0  0  0  0  0  0  0  0
    5.8724  -13.2204   26.2412 C   0  0  0  0  0  0  0  0  0  0  0  0
    7.0975  -13.6149   26.7578 C   0  0  0  0  0  0  0  0  0  0  0  0
    7.2999  -16.8870   23.6920 C   0  0  0  0  0  0  0  0  0  0  0  0
    6.1050  -16.4696   23.5208 O   0  0  0  0  0  0  0  0  0  0  0  0
    9.6728  -12.8077   18.5915 N   0  0  0  0  0  0  0  0  0  0  0  0
    8.6891  -13.0840   17.6101 C   0  0  0  0  0  0  0  0  0  0  0  0
    8.9469  -12.9155   16.3429 N   0  0  0  0  0  0  0  0  0  0  0  0
    7.4177  -13.5487   18.0182 N   0  0  0  0  0  0  0  0  0  0  0  0
    7.1795  -13.9657   19.3839 C   0  0  0  0  0  0  0  0  0  0  0  0
    7.9153  -15.2360   19.6969 C   0  0  0  0  0  0  0  0  0  0  0  0
    7.5732  -15.7706   21.0670 C   0  0  0  0  0  0  0  0  0  0  0  0
    8.2478  -17.0592   21.3381 C   0  0  2  0  0  0  0  0  0  0  0  0
    7.8361  -17.6534   22.6172 N   0  0  0  0  0  0  0  0  0  0  0  0
    9.6932  -17.1416   21.1642 C   0  0  0  0  0  0  0  0  0  0  0  0
   10.2666  -17.1797   20.0377 O   0  0  0  0  0  0  0  0  0  0  0  0
    8.2390  -13.0723   15.6092 N   0  0  0  0  0  0  0  0  0  0  0  0
   10.5730  -17.1908   22.2942 C   0  0  1  0  0  0  0  0  0  0  0  0
   11.9991  -17.2900   22.1098 C   0  0  0  0  0  0  0  0  0  0  0  0
   12.5019  -16.1052   21.3852 C   0  0  0  0  0  0  0  0  0  0  0  0
   12.4013  -16.1471   19.9010 C   0  0  0  0  0  0  0  0  0  0  0  0
   13.2585  -15.1889   19.1849 O   0  0  0  0  0  0  0  0  0  0  0  0
   13.3736  -15.1121   17.9250 C   0  0  0  0  0  0  0  0  0  0  0  0
   12.6259  -17.4998   23.4325 O   0  0  0  0  0  0  0  0  0  0  0  0
   13.9629  -17.8285   23.6211 O   0  0  0  0  0  0  0  0  0  0  0  0
   14.0127  -14.2841   19.9316 O   0  0  0  0  0  0  0  0  0  0  0  0
  2  1  1  6
  3  4  1  0
  3  2  1  0
  4  5  2  0
  5  6  1  0
  7  6  1  0
  8  7  2  0
  9  8  1  0
 10 11  1  0
 10  9  2  0
 11 12  2  0
 12  4  1  0
 12  7  1  0
 13  2  1  0
 13 14  2  0
 15 16  1  0
 16 17  2  0
 18 16  1  0
 18 19  1  0
 20 21  1  0
 20 19  1  0
 22 21  1  1
 22 23  1  0
 23 13  1  0
 24 22  1  0
 25 24  2  0
 26 24  1  0
 27 26  1  0
 27 28  1  6
 29 28  1  0
 30 34  1  0
 30 29  1  0
 31 30  2  0
 32 27  1  0
 32 33  1  0
 35 32  2  0
M  END
$$$$
