WRE.pdb
     RDKit          3D

 35 36  0  0  1  0  0  0  0  0999 V2000
    7.0638  -17.7519   26.0322 N   0  0  0  0  0  0  0  0  0  0  0  0
    7.2093  -16.4055   25.4374 C   0  0  1  0  0  0  0  0  0  0  0  0
    8.3368  -15.7748   26.1773 C   0  0  0  0  0  0  0  0  0  0  0  0
    7.9865  -14.7963   27.2158 C   0  0  0  0  0  0  0  0  0  0  0  0
    7.9994  -14.8869   28.5766 C   0  0  0  0  0  0  0  0  0  0  0  0
    7.5835  -13.7096   29.0820 N   0  0  0  0  0  0  0  0  0  0  0  0
    7.3115  -12.8836   28.0792 C   0  0  0  0  0  0  0  0  0  0  0  0
    6.8614  -11.5738   28.0433 C   0  0  0  0  0  0  0  0  0  0  0  0
    6.6572  -10.9224   26.8300 C   0  0  0  0  0  0  0  0  0  0  0  0
    6.8966  -11.5630   25.6370 C   0  0  0  0  0  0  0  0  0  0  0  0
    7.3429  -12.8638   25.6615 C   0  0  0  0  0  0  0  0  0  0  0  0
    7.5439  -13.5046   26.8749 C   0  0  0  0  0  0  0  0  0  0  0  0
    7.4483  -16.6199   23.9880 C   0  0  0  0  0  0  0  0  0  0  0  0
    7.9345  -17.7144   23.5440 O   0  0  0  0  0  0  0  0  0  0  0  0
   10.3518  -13.9628   17.6006 N   0  0  0  0  0  0  0  0  0  0  0  0
    9.1153  -13.7752   16.9351 C   0  0  0  0  0  0  0  0  0  0  0  0
    8.9206  -12.7358   16.1719 N   0  0  0  0  0  0  0  0  0  0  0  0
    8.0875  -14.7313   17.1047 N   0  0  0  0  0  0  0  0  0  0  0  0
    7.2692  -14.7422   18.2988 C   0  0  0  0  0  0  0  0  0  0  0  0
    8.0909  -14.4452   19.5194 C   0  0  0  0  0  0  0  0  0  0  0  0
    7.2884  -14.5722   20.7920 C   0  0  0  0  0  0  0  0  0  0  0  0
    7.9124  -15.5186   21.7429 C   0  0  2  0  0  0  0  0  0  0  0  0
    7.1575  -15.6377   22.9977 N   0  0  0  0  0  0  0  0  0  0  0  0
    9.3431  -15.4081   22.0016 C   0  0  0  0  0  0  0  0  0  0  0  0
    9.8322  -14.9541   23.0758 O   0  0  0  0  0  0  0  0  0  0  0  0
    8.0327  -12.5755   15.6720 N   0  0  0  0  0  0  0  0  0  0  0  0
   10.3061  -15.8151   21.0217 C   0  0  2  0  0  0  0  0  0  0  0  0
   11.7174  -15.7423   21.3055 C   0  0  0  0  0  0  0  0  0  0  0  0
   12.0396  -16.5569   22.4948 C   0  0  0  0  0  0  0  0  0  0  0  0
   13.4794  -16.6536   22.8585 C   0  0  0  0  0  0  0  0  0  0  0  0
   13.7825  -17.5328   23.9990 O   0  0  0  0  0  0  0  0  0  0  0  0
   12.9633  -18.3338   24.5413 C   0  0  0  0  0  0  0  0  0  0  0  0
   12.4580  -16.1335   20.0870 O   0  0  0  0  0  0  0  0  0  0  0  0
   13.7998  -15.8500   19.8625 O   0  0  0  0  0  0  0  0  0  0  0  0
   15.0666  -17.4990   24.5421 O   0  0  0  0  0  0  0  0  0  0  0  0
  2  1  1  1
  3  4  1  0
  3  2  1  0
  4  5  2  0
  5  6  1  0
  7  6  1  0
  8  7  2  0
  9  8  1  0
 10 11  1  0
 10  9  2  0
 11 12  2  0
 12  4  1  0
 12  7  1  0
 13  2  1  0
 13 14  2  0
 15 16  1  0
 16 17  2  0
 18 16  1  0
 18 19  1  0
 20 21  1  0
 20 19  1  0
 22 21  1  1
 22 23  1  0
 23 13  1  0
 24 22  1  0
 25 24  2  0
 26 24  1  0
 27 26  1  0
 27 28  1  6
 29 28  1  0
 30 34  1  0
 30 29  1  0
 31 30  2  0
 32 27  1  0
 32 33  1  0
 35 32  2  0
M  END
$$$$
