WRE.pdb
     RDKit          3D

 35 36  0  0  1  0  0  0  0  0999 V2000
    6.4789  -17.7855   24.9141 N   0  0  0  0  0  0  0  0  0  0  0  0
    7.0935  -16.7418   24.0651 C   0  0  1  0  0  0  0  0  0  0  0  0
    8.0305  -16.0133   24.9638 C   0  0  0  0  0  0  0  0  0  0  0  0
    7.4324  -15.2166   26.0437 C   0  0  0  0  0  0  0  0  0  0  0  0
    6.9792  -15.5746   27.2792 C   0  0  0  0  0  0  0  0  0  0  0  0
    6.5152  -14.4701   27.8951 N   0  0  0  0  0  0  0  0  0  0  0  0
    6.6649  -13.4307   27.0834 C   0  0  0  0  0  0  0  0  0  0  0  0
    6.3618  -12.0859   27.2216 C   0  0  0  0  0  0  0  0  0  0  0  0
    6.6318  -11.1844   26.1957 C   0  0  0  0  0  0  0  0  0  0  0  0
    7.2054  -11.6063   25.0193 C   0  0  0  0  0  0  0  0  0  0  0  0
    7.5096  -12.9395   24.8715 C   0  0  0  0  0  0  0  0  0  0  0  0
    7.2374  -13.8303   25.8991 C   0  0  0  0  0  0  0  0  0  0  0  0
    7.7343  -17.4573   22.9332 C   0  0  0  0  0  0  0  0  0  0  0  0
    7.1863  -18.4733   22.3866 O   0  0  0  0  0  0  0  0  0  0  0  0
    8.2913  -12.3740   17.1992 N   0  0  0  0  0  0  0  0  0  0  0  0
    7.8159  -13.6993   17.3563 C   0  0  0  0  0  0  0  0  0  0  0  0
    7.8161  -14.5305   16.3515 N   0  0  0  0  0  0  0  0  0  0  0  0
    7.3396  -14.1169   18.6204 N   0  0  0  0  0  0  0  0  0  0  0  0
    8.0112  -13.7178   19.8392 C   0  0  0  0  0  0  0  0  0  0  0  0
    7.9617  -14.8114   20.8661 C   0  0  0  0  0  0  0  0  0  0  0  0
    8.1501  -16.1784   20.2531 C   0  0  0  0  0  0  0  0  0  0  0  0
    9.2189  -16.9429   20.9331 C   0  0  2  0  0  0  0  0  0  0  0  0
    8.9886  -17.0711   22.3785 N   0  0  0  0  0  0  0  0  0  0  0  0
   10.6086  -16.6018   20.6531 C   0  0  0  0  0  0  0  0  0  0  0  0
   10.9786  -15.9097   19.6614 O   0  0  0  0  0  0  0  0  0  0  0  0
    7.5071  -15.5103   16.4444 N   0  0  0  0  0  0  0  0  0  0  0  0
   11.6674  -17.0492   21.5087 C   0  0  1  0  0  0  0  0  0  0  0  0
   13.0392  -16.7212   21.2115 C   0  0  0  0  0  0  0  0  0  0  0  0
   13.9005  -17.0404   22.3681 C   0  0  0  0  0  0  0  0  0  0  0  0
   13.3279  -16.7648   23.7138 C   0  0  0  0  0  0  0  0  0  0  0  0
   14.1962  -17.1120   24.8502 O   0  0  0  0  0  0  0  0  0  0  0  0
   14.3122  -18.2696   25.3533 C   0  0  0  0  0  0  0  0  0  0  0  0
   13.4234  -17.4141   19.9630 O   0  0  0  0  0  0  0  0  0  0  0  0
   14.6345  -17.2296   19.3070 O   0  0  0  0  0  0  0  0  0  0  0  0
   14.9611  -16.1034   25.4353 O   0  0  0  0  0  0  0  0  0  0  0  0
  2  1  1  1
  3  4  1  0
  3  2  1  0
  4  5  2  0
  5  6  1  0
  7  6  1  0
  8  7  2  0
  9  8  1  0
 10 11  1  0
 10  9  2  0
 11 12  2  0
 12  4  1  0
 12  7  1  0
 13  2  1  0
 13 14  2  0
 15 16  1  0
 16 17  2  0
 18 16  1  0
 18 19  1  0
 20 21  1  0
 20 19  1  0
 22 21  1  1
 22 23  1  0
 23 13  1  0
 24 22  1  0
 25 24  2  0
 26 24  1  0
 27 26  1  0
 27 28  1  1
 29 28  1  0
 30 34  1  0
 30 29  1  0
 31 30  2  0
 32 27  1  0
 32 33  1  0
 35 32  2  0
M  END
$$$$
