WRE.pdb
     RDKit          3D

 35 36  0  0  1  0  0  0  0  0999 V2000
    6.8242  -17.8810   25.1157 N   0  0  0  0  0  0  0  0  0  0  0  0
    7.4735  -16.7162   24.4757 C   0  0  1  0  0  0  0  0  0  0  0  0
    7.9501  -15.8699   25.6040 C   0  0  0  0  0  0  0  0  0  0  0  0
    6.9843  -14.9252   26.1813 C   0  0  0  0  0  0  0  0  0  0  0  0
    5.8928  -15.1281   26.9735 C   0  0  0  0  0  0  0  0  0  0  0  0
    5.3312  -13.9315   27.2329 N   0  0  0  0  0  0  0  0  0  0  0  0
    6.0383  -12.9849   26.6281 C   0  0  0  0  0  0  0  0  0  0  0  0
    5.9011  -11.6074   26.5729 C   0  0  0  0  0  0  0  0  0  0  0  0
    6.8040  -10.8285   25.8544 C   0  0  0  0  0  0  0  0  0  0  0  0
    7.8540  -11.4071   25.1810 C   0  0  0  0  0  0  0  0  0  0  0  0
    7.9989  -12.7740   25.2286 C   0  0  0  0  0  0  0  0  0  0  0  0
    7.0948  -13.5419   25.9473 C   0  0  0  0  0  0  0  0  0  0  0  0
    8.5429  -17.2680   23.6064 C   0  0  0  0  0  0  0  0  0  0  0  0
    9.2657  -18.2536   23.9771 O   0  0  0  0  0  0  0  0  0  0  0  0
    8.5249  -13.4076   16.1468 N   0  0  0  0  0  0  0  0  0  0  0  0
    7.9583  -13.3216   17.4424 C   0  0  0  0  0  0  0  0  0  0  0  0
    7.7091  -12.1621   17.9848 N   0  0  0  0  0  0  0  0  0  0  0  0
    7.6613  -14.5110   18.1468 N   0  0  0  0  0  0  0  0  0  0  0  0
    8.6771  -15.5178   18.3714 C   0  0  0  0  0  0  0  0  0  0  0  0
    8.8191  -15.8248   19.8338 C   0  0  0  0  0  0  0  0  0  0  0  0
    9.8902  -16.8555   20.0989 C   0  0  0  0  0  0  0  0  0  0  0  0
   10.0248  -17.1492   21.5427 C   0  0  2  0  0  0  0  0  0  0  0  0
    8.8391  -16.7495   22.3127 N   0  0  0  0  0  0  0  0  0  0  0  0
   11.2504  -16.7519   22.2255 C   0  0  0  0  0  0  0  0  0  0  0  0
   11.4707  -15.5831   22.6553 O   0  0  0  0  0  0  0  0  0  0  0  0
    7.3065  -12.0689   18.9299 N   0  0  0  0  0  0  0  0  0  0  0  0
   12.3097  -17.6902   22.4510 C   0  0  1  0  0  0  0  0  0  0  0  0
   13.5427  -17.2703   23.0683 C   0  0  0  0  0  0  0  0  0  0  0  0
   14.1905  -18.4151   23.7403 C   0  0  0  0  0  0  0  0  0  0  0  0
   13.3893  -19.1061   24.7869 C   0  0  0  0  0  0  0  0  0  0  0  0
   14.0138  -20.3053   25.3679 O   0  0  0  0  0  0  0  0  0  0  0  0
   15.2105  -20.3786   25.7794 C   0  0  0  0  0  0  0  0  0  0  0  0
   14.3815  -16.6213   22.0380 O   0  0  0  0  0  0  0  0  0  0  0  0
   15.5926  -15.9914   22.2985 O   0  0  0  0  0  0  0  0  0  0  0  0
   13.2470  -21.4642   25.4849 O   0  0  0  0  0  0  0  0  0  0  0  0
  2  1  1  1
  3  4  1  0
  3  2  1  0
  4  5  2  0
  5  6  1  0
  7  6  1  0
  8  7  2  0
  9  8  1  0
 10 11  1  0
 10  9  2  0
 11 12  2  0
 12  4  1  0
 12  7  1  0
 13  2  1  0
 13 14  2  0
 15 16  1  0
 16 17  2  0
 18 16  1  0
 18 19  1  0
 20 21  1  0
 20 19  1  0
 22 21  1  6
 22 23  1  0
 23 13  1  0
 24 22  1  0
 25 24  2  0
 26 24  1  0
 27 26  1  0
 27 28  1  6
 29 28  1  0
 30 34  1  0
 30 29  1  0
 31 30  2  0
 32 27  1  0
 32 33  1  0
 35 32  2  0
M  END
$$$$
