WRE.pdb
     RDKit          3D

 35 36  0  0  1  0  0  0  0  0999 V2000
    6.6608  -17.7378   25.2284 N   0  0  0  0  0  0  0  0  0  0  0  0
    7.1680  -16.6913   24.3145 C   0  0  1  0  0  0  0  0  0  0  0  0
    7.8623  -15.7115   25.1945 C   0  0  0  0  0  0  0  0  0  0  0  0
    7.0142  -14.8425   26.0217 C   0  0  0  0  0  0  0  0  0  0  0  0
    6.0477  -15.1384   26.9374 C   0  0  0  0  0  0  0  0  0  0  0  0
    5.5579  -13.9814   27.4230 N   0  0  0  0  0  0  0  0  0  0  0  0
    6.1889  -12.9695   26.8402 C   0  0  0  0  0  0  0  0  0  0  0  0
    6.0763  -11.5953   26.9759 C   0  0  0  0  0  0  0  0  0  0  0  0
    6.8802  -10.7363   26.2316 C   0  0  0  0  0  0  0  0  0  0  0  0
    7.8056  -11.2304   25.3426 C   0  0  0  0  0  0  0  0  0  0  0  0
    7.9250  -12.5932   25.1996 C   0  0  0  0  0  0  0  0  0  0  0  0
    7.1202  -13.4413   25.9457 C   0  0  0  0  0  0  0  0  0  0  0  0
    8.0404  -17.3878   23.3358 C   0  0  0  0  0  0  0  0  0  0  0  0
    8.7076  -18.4290   23.6553 O   0  0  0  0  0  0  0  0  0  0  0  0
    8.4981  -13.0766   16.9893 N   0  0  0  0  0  0  0  0  0  0  0  0
    8.5515  -13.0377   18.4045 C   0  0  0  0  0  0  0  0  0  0  0  0
    8.8472  -11.9322   19.0298 N   0  0  0  0  0  0  0  0  0  0  0  0
    8.2779  -14.2148   19.1386 N   0  0  0  0  0  0  0  0  0  0  0  0
    7.8780  -15.4347   18.4695 C   0  0  0  0  0  0  0  0  0  0  0  0
    7.6587  -16.5447   19.4559 C   0  0  0  0  0  0  0  0  0  0  0  0
    8.9056  -17.3675   19.6751 C   0  0  0  0  0  0  0  0  0  0  0  0
    9.2659  -17.4479   21.1079 C   0  0  2  0  0  0  0  0  0  0  0  0
    8.1966  -16.9558   21.9871 N   0  0  0  0  0  0  0  0  0  0  0  0
   10.5659  -16.9412   21.5312 C   0  0  0  0  0  0  0  0  0  0  0  0
   10.7443  -15.7995   22.0451 O   0  0  0  0  0  0  0  0  0  0  0  0
    8.9571  -11.8890   20.0545 N   0  0  0  0  0  0  0  0  0  0  0  0
   11.7528  -17.7297   21.3799 C   0  0  1  0  0  0  0  0  0  0  0  0
   13.0166  -17.2583   21.8879 C   0  0  0  0  0  0  0  0  0  0  0  0
   13.8687  -18.4019   22.2724 C   0  0  0  0  0  0  0  0  0  0  0  0
   15.2163  -18.0700   22.8097 C   0  0  0  0  0  0  0  0  0  0  0  0
   16.0670  -19.2265   23.1328 O   0  0  0  0  0  0  0  0  0  0  0  0
   15.6941  -20.2478   23.7844 C   0  0  0  0  0  0  0  0  0  0  0  0
   13.6224  -16.3677   20.8748 O   0  0  0  0  0  0  0  0  0  0  0  0
   14.5870  -15.4073   21.1544 O   0  0  0  0  0  0  0  0  0  0  0  0
   17.3919  -19.2199   22.6975 O   0  0  0  0  0  0  0  0  0  0  0  0
  2  1  1  1
  3  4  1  0
  3  2  1  0
  4  5  2  0
  5  6  1  0
  7  6  1  0
  8  7  2  0
  9  8  1  0
 10 11  1  0
 10  9  2  0
 11 12  2  0
 12  4  1  0
 12  7  1  0
 13  2  1  0
 13 14  2  0
 15 16  1  0
 16 17  2  0
 18 16  1  0
 18 19  1  0
 20 21  1  0
 20 19  1  0
 22 21  1  6
 22 23  1  0
 23 13  1  0
 24 22  1  0
 25 24  2  0
 26 24  1  0
 27 26  1  0
 27 28  1  6
 29 28  1  0
 30 34  1  0
 30 29  1  0
 31 30  2  0
 32 27  1  0
 32 33  1  0
 35 32  2  0
M  END
$$$$
