WWY.pdb
     RDKit          3D

 41 45  0  0  1  0  0  0  0  0999 V2000
   26.7949  -20.9531  -15.2062 N   0  0  0  0  0  0  0  0  0  0  0  0
   27.1197  -20.1197  -14.0958 C   0  0  1  0  0  0  0  0  0  0  0  0
   26.5382  -18.7290  -14.1992 C   0  0  0  0  0  0  0  0  0  0  0  0
   26.9140  -18.0658  -15.4668 C   0  0  0  0  0  0  0  0  0  0  0  0
   26.0507  -17.4048  -16.3188 C   0  0  0  0  0  0  0  0  0  0  0  0
   26.7571  -16.9261  -17.3760 N   0  0  0  0  0  0  0  0  0  0  0  0
   28.0536  -17.2533  -17.2418 C   0  0  0  0  0  0  0  0  0  0  0  0
   29.1822  -17.0313  -17.9977 C   0  0  0  0  0  0  0  0  0  0  0  0
   30.4058  -17.5067  -17.5851 C   0  0  0  0  0  0  0  0  0  0  0  0
   30.5339  -18.2081  -16.4208 C   0  0  0  0  0  0  0  0  0  0  0  0
   29.4031  -18.4308  -15.6627 C   0  0  0  0  0  0  0  0  0  0  0  0
   28.1597  -17.9700  -16.0436 C   0  0  0  0  0  0  0  0  0  0  0  0
   26.6877  -20.7871  -12.8471 C   0  0  0  0  0  0  0  0  0  0  0  0
   25.8452  -21.7155  -12.8770 O   0  0  0  0  0  0  0  0  0  0  0  0
   27.2480  -20.3520  -11.6183 N   0  0  0  0  0  0  0  0  0  0  0  0
   26.7923  -20.9286  -10.3793 C   0  0  1  0  0  0  0  0  0  0  0  0
   27.7724  -20.8198   -9.2543 C   0  0  0  0  0  0  0  0  0  0  0  0
   27.1725  -20.8412   -7.9168 C   0  0  0  0  0  0  0  0  0  0  0  0
   25.9390  -21.3623   -7.5963 C   0  0  0  0  0  0  0  0  0  0  0  0
   25.7063  -21.2389   -6.2815 N   0  0  0  0  0  0  0  0  0  0  0  0
   26.7862  -20.6394   -5.7536 C   0  0  0  0  0  0  0  0  0  0  0  0
   27.0500  -20.2803   -4.4547 C   0  0  0  0  0  0  0  0  0  0  0  0
   28.2305  -19.6592   -4.1099 C   0  0  0  0  0  0  0  0  0  0  0  0
   29.1511  -19.4020   -5.1027 C   0  0  0  0  0  0  0  0  0  0  0  0
   28.8860  -19.7661   -6.4249 C   0  0  0  0  0  0  0  0  0  0  0  0
   27.7189  -20.3790   -6.7550 C   0  0  0  0  0  0  0  0  0  0  0  0
   25.4774  -20.3217  -10.0422 C   0  0  0  0  0  0  0  0  0  0  0  0
   25.3632  -19.1013   -9.7639 O   0  0  0  0  0  0  0  0  0  0  0  0
   21.2476  -22.3772  -15.6324 O   0  0  0  0  0  0  0  0  0  0  0  0
   21.6223  -21.6687  -14.4905 C   0  0  0  0  0  0  0  0  0  0  0  0
   20.6823  -21.1748  -13.6382 C   0  0  0  0  0  0  0  0  0  0  0  0
   21.0541  -20.4711  -12.5042 C   0  0  0  0  0  0  0  0  0  0  0  0
   22.3981  -20.2783  -12.2522 C   0  0  0  0  0  0  0  0  0  0  0  0
   22.8727  -19.5400  -11.0796 C   0  0  0  0  0  0  0  0  0  0  0  0
   22.9973  -20.4653   -9.8891 C   0  0  2  0  0  0  0  0  0  0  0  0
   24.3026  -21.1152  -10.0262 N   0  0  0  0  0  0  0  0  0  0  0  0
   21.9189  -21.4633   -9.7982 C   0  0  0  0  0  0  0  0  0  0  0  0
   22.0877  -22.6738  -10.0748 O   0  0  0  0  0  0  0  0  0  0  0  0
   23.3737  -20.7773  -13.1146 C   0  0  0  0  0  0  0  0  0  0  0  0
   22.9533  -21.4687  -14.2260 C   0  0  0  0  0  0  0  0  0  0  0  0
   20.6333  -21.1004   -9.3918 O   0  0  0  0  0  0  0  0  0  0  0  0
  2  3  1  0
  2  1  1  6
  4  3  1  0
  4  5  2  0
  6  5  1  0
  7  6  1  0
  8  7  2  0
  9  8  1  0
 10  9  2  0
 10 11  1  0
 11 12  2  0
 12  7  1  0
 12  4  1  0
 13  2  1  0
 14 13  2  0
 15 13  1  0
 16 27  1  0
 16 15  1  0
 16 17  1  1
 18 17  1  0
 18 26  1  0
 19 20  1  0
 19 18  2  0
 20 21  1  0
 21 22  2  0
 21 26  1  0
 22 23  1  0
 23 24  2  0
 25 24  1  0
 26 25  2  0
 27 36  1  0
 28 27  2  0
 29 30  1  0
 30 40  2  0
 31 30  1  0
 31 32  2  0
 32 33  1  0
 33 39  2  0
 33 34  1  0
 35 34  1  6
 35 37  1  0
 36 35  1  0
 37 38  2  0
 37 41  1  0
 40 39  1  0
M  END
$$$$
