WWY.pdb
     RDKit          3D

 41 45  0  0  1  0  0  0  0  0999 V2000
   13.3781  -11.1524  -12.1248 N   0  0  0  0  0  0  0  0  0  0  0  0
   13.3774   -9.9869  -11.3033 C   0  0  1  0  0  0  0  0  0  0  0  0
   13.5033  -10.2922   -9.8290 C   0  0  0  0  0  0  0  0  0  0  0  0
   12.2563  -10.8628   -9.2743 C   0  0  0  0  0  0  0  0  0  0  0  0
   11.8813  -12.1910   -9.3313 C   0  0  0  0  0  0  0  0  0  0  0  0
   10.6785  -12.3349   -8.7163 N   0  0  0  0  0  0  0  0  0  0  0  0
   10.2561  -11.1436   -8.2598 C   0  0  0  0  0  0  0  0  0  0  0  0
    9.1373  -10.7187   -7.5800 C   0  0  0  0  0  0  0  0  0  0  0  0
    8.9847   -9.3935   -7.2422 C   0  0  0  0  0  0  0  0  0  0  0  0
    9.9335   -8.4682   -7.5701 C   0  0  0  0  0  0  0  0  0  0  0  0
   11.0551   -8.8936   -8.2514 C   0  0  0  0  0  0  0  0  0  0  0  0
   11.2432  -10.2133   -8.6071 C   0  0  0  0  0  0  0  0  0  0  0  0
   14.4546   -9.0768  -11.7536 C   0  0  0  0  0  0  0  0  0  0  0  0
   15.5806   -9.5275  -12.0726 O   0  0  0  0  0  0  0  0  0  0  0  0
   14.1835   -7.6855  -11.8150 N   0  0  0  0  0  0  0  0  0  0  0  0
   15.1926   -6.7800  -12.3018 C   0  0  1  0  0  0  0  0  0  0  0  0
   14.6596   -5.6564  -13.1336 C   0  0  0  0  0  0  0  0  0  0  0  0
   14.0269   -6.0721  -14.3890 C   0  0  0  0  0  0  0  0  0  0  0  0
   14.6534   -6.7193  -15.4302 C   0  0  0  0  0  0  0  0  0  0  0  0
   13.7810   -6.9721  -16.4166 N   0  0  0  0  0  0  0  0  0  0  0  0
   12.5939   -6.4893  -16.0143 C   0  0  0  0  0  0  0  0  0  0  0  0
   11.3787   -6.4877  -16.6540 C   0  0  0  0  0  0  0  0  0  0  0  0
   10.2632   -5.9293  -16.0693 C   0  0  0  0  0  0  0  0  0  0  0  0
   10.3905   -5.3663  -14.8179 C   0  0  0  0  0  0  0  0  0  0  0  0
   11.6250   -5.3664  -14.1643 C   0  0  0  0  0  0  0  0  0  0  0  0
   12.7195   -5.9204  -14.7490 C   0  0  0  0  0  0  0  0  0  0  0  0
   15.9801   -6.2951  -11.1374 C   0  0  0  0  0  0  0  0  0  0  0  0
   15.4251   -5.8914  -10.0845 O   0  0  0  0  0  0  0  0  0  0  0  0
   22.2583   -6.1549  -14.7681 O   0  0  0  0  0  0  0  0  0  0  0  0
   21.5386   -6.2994  -13.5817 C   0  0  0  0  0  0  0  0  0  0  0  0
   20.7810   -7.4085  -13.3580 C   0  0  0  0  0  0  0  0  0  0  0  0
   20.0661   -7.5523  -12.1801 C   0  0  0  0  0  0  0  0  0  0  0  0
   20.1349   -6.5488  -11.2338 C   0  0  0  0  0  0  0  0  0  0  0  0
   19.4041   -6.6217   -9.9666 C   0  0  0  0  0  0  0  0  0  0  0  0
   18.1496   -5.7786  -10.0323 C   0  0  2  0  0  0  0  0  0  0  0  0
   17.3969   -6.2760  -11.1861 N   0  0  0  0  0  0  0  0  0  0  0  0
   18.4109   -4.3351  -10.1565 C   0  0  0  0  0  0  0  0  0  0  0  0
   18.8965   -3.6495   -9.2268 O   0  0  0  0  0  0  0  0  0  0  0  0
   20.9059   -5.4066  -11.4469 C   0  0  0  0  0  0  0  0  0  0  0  0
   21.5965   -5.3117  -12.6318 C   0  0  0  0  0  0  0  0  0  0  0  0
   18.1241   -3.6498  -11.3388 O   0  0  0  0  0  0  0  0  0  0  0  0
  2  3  1  0
  2  1  1  6
  4  3  1  0
  4  5  2  0
  6  5  1  0
  7  6  1  0
  8  7  2  0
  9  8  1  0
 10  9  2  0
 10 11  1  0
 11 12  2  0
 12  7  1  0
 12  4  1  0
 13  2  1  0
 14 13  2  0
 15 13  1  0
 16 27  1  0
 16 15  1  0
 16 17  1  1
 18 17  1  0
 18 26  1  0
 19 20  1  0
 19 18  2  0
 20 21  1  0
 21 22  2  0
 21 26  1  0
 22 23  1  0
 23 24  2  0
 25 24  1  0
 26 25  2  0
 27 36  1  0
 28 27  2  0
 29 30  1  0
 30 40  2  0
 31 30  1  0
 31 32  2  0
 32 33  1  0
 33 39  2  0
 33 34  1  0
 35 34  1  6
 35 37  1  0
 36 35  1  0
 37 38  2  0
 37 41  1  0
 40 39  1  0
M  END
$$$$
