WWY.pdb
     RDKit          3D

 41 45  0  0  1  0  0  0  0  0999 V2000
   19.0999  -15.0563    7.3935 N   0  0  0  0  0  0  0  0  0  0  0  0
   18.8262  -16.1174    6.4812 C   0  0  1  0  0  0  0  0  0  0  0  0
   19.2998  -15.8361    5.0744 C   0  0  0  0  0  0  0  0  0  0  0  0
   18.6732  -14.6192    4.5132 C   0  0  0  0  0  0  0  0  0  0  0  0
   19.2368  -13.3584    4.4904 C   0  0  0  0  0  0  0  0  0  0  0  0
   18.3679  -12.4992    3.8965 N   0  0  0  0  0  0  0  0  0  0  0  0
   17.2553  -13.1584    3.5310 C   0  0  0  0  0  0  0  0  0  0  0  0
   16.0839  -12.7917    2.9085 C   0  0  0  0  0  0  0  0  0  0  0  0
   15.1001  -13.7222    2.6638 C   0  0  0  0  0  0  0  0  0  0  0  0
   15.2577  -15.0280    3.0296 C   0  0  0  0  0  0  0  0  0  0  0  0
   16.4316  -15.3962    3.6536 C   0  0  0  0  0  0  0  0  0  0  0  0
   17.4402  -14.4920    3.9157 C   0  0  0  0  0  0  0  0  0  0  0  0
   19.4187  -17.3695    7.0033 C   0  0  0  0  0  0  0  0  0  0  0  0
   20.4867  -17.8196    6.5242 O   0  0  0  0  0  0  0  0  0  0  0  0
   18.7509  -18.0468    8.0560 N   0  0  0  0  0  0  0  0  0  0  0  0
   19.3189  -19.2504    8.6073 C   0  0  1  0  0  0  0  0  0  0  0  0
   20.1641  -19.0300    9.8220 C   0  0  0  0  0  0  0  0  0  0  0  0
   21.4749  -18.4309    9.5540 C   0  0  0  0  0  0  0  0  0  0  0  0
   22.4636  -18.9771    8.7667 C   0  0  0  0  0  0  0  0  0  0  0  0
   23.5260  -18.1605    8.7162 N   0  0  0  0  0  0  0  0  0  0  0  0
   23.2251  -17.0897    9.4691 C   0  0  0  0  0  0  0  0  0  0  0  0
   23.9699  -15.9707    9.7503 C   0  0  0  0  0  0  0  0  0  0  0  0
   23.4802  -14.9708   10.5618 C   0  0  0  0  0  0  0  0  0  0  0  0
   22.2164  -15.1157   11.0919 C   0  0  0  0  0  0  0  0  0  0  0  0
   21.4562  -16.2525   10.8079 C   0  0  0  0  0  0  0  0  0  0  0  0
   21.9476  -17.2332   10.0056 C   0  0  0  0  0  0  0  0  0  0  0  0
   18.2128  -20.2122    8.8570 C   0  0  0  0  0  0  0  0  0  0  0  0
   17.2689  -19.9462    9.6432 O   0  0  0  0  0  0  0  0  0  0  0  0
   19.6389  -25.1976    3.4248 O   0  0  0  0  0  0  0  0  0  0  0  0
   18.8186  -24.5699    4.3628 C   0  0  0  0  0  0  0  0  0  0  0  0
   18.0742  -25.3020    5.2368 C   0  0  0  0  0  0  0  0  0  0  0  0
   17.2596  -24.6791    6.1682 C   0  0  0  0  0  0  0  0  0  0  0  0
   17.2150  -23.2991    6.1953 C   0  0  0  0  0  0  0  0  0  0  0  0
   16.3745  -22.5653    7.1442 C   0  0  0  0  0  0  0  0  0  0  0  0
   17.0923  -22.4000    8.4657 C   0  0  2  0  0  0  0  0  0  0  0  0
   18.1944  -21.4711    8.2053 N   0  0  0  0  0  0  0  0  0  0  0  0
   17.5913  -23.6639    9.0319 C   0  0  0  0  0  0  0  0  0  0  0  0
   16.8351  -24.6086    9.3574 O   0  0  0  0  0  0  0  0  0  0  0  0
   17.9709  -22.5344    5.3075 C   0  0  0  0  0  0  0  0  0  0  0  0
   18.7633  -23.2000    4.4026 C   0  0  0  0  0  0  0  0  0  0  0  0
   18.9567  -23.8727    9.2365 O   0  0  0  0  0  0  0  0  0  0  0  0
  2  3  1  0
  2  1  1  1
  4  3  1  0
  4  5  2  0
  6  5  1  0
  7  6  1  0
  8  7  2  0
  9  8  1  0
 10  9  2  0
 10 11  1  0
 11 12  2  0
 12  7  1  0
 12  4  1  0
 13  2  1  0
 14 13  2  0
 15 13  1  0
 16 27  1  0
 16 15  1  0
 16 17  1  1
 18 17  1  0
 18 26  1  0
 19 20  1  0
 19 18  2  0
 20 21  1  0
 21 22  2  0
 21 26  1  0
 22 23  1  0
 23 24  2  0
 25 24  1  0
 26 25  2  0
 27 36  1  0
 28 27  2  0
 29 30  1  0
 30 40  2  0
 31 30  1  0
 31 32  2  0
 32 33  1  0
 33 39  2  0
 33 34  1  0
 35 34  1  6
 35 37  1  0
 36 35  1  0
 37 38  2  0
 37 41  1  0
 40 39  1  0
M  END
$$$$
