WWY.pdb
     RDKit          3D

 41 45  0  0  1  0  0  0  0  0999 V2000
   28.2176  -16.6678  -21.6634 N   0  0  0  0  0  0  0  0  0  0  0  0
   27.4564  -17.2424  -22.7234 C   0  0  1  0  0  0  0  0  0  0  0  0
   27.9380  -18.6150  -23.1320 C   0  0  0  0  0  0  0  0  0  0  0  0
   28.9108  -18.5508  -24.2446 C   0  0  0  0  0  0  0  0  0  0  0  0
   30.2568  -18.2651  -24.1243 C   0  0  0  0  0  0  0  0  0  0  0  0
   30.8251  -18.2980  -25.3579 N   0  0  0  0  0  0  0  0  0  0  0  0
   29.8935  -18.5958  -26.2796 C   0  0  0  0  0  0  0  0  0  0  0  0
   29.9129  -18.7548  -27.6466 C   0  0  0  0  0  0  0  0  0  0  0  0
   28.7613  -19.0682  -28.3314 C   0  0  0  0  0  0  0  0  0  0  0  0
   27.5736  -19.2293  -27.6776 C   0  0  0  0  0  0  0  0  0  0  0  0
   27.5536  -19.0701  -26.3075 C   0  0  0  0  0  0  0  0  0  0  0  0
   28.6873  -18.7561  -25.5868 C   0  0  0  0  0  0  0  0  0  0  0  0
   26.0288  -17.2722  -22.3331 C   0  0  0  0  0  0  0  0  0  0  0  0
   25.6975  -17.3860  -21.1290 O   0  0  0  0  0  0  0  0  0  0  0  0
   25.0465  -17.1696  -23.3517 N   0  0  0  0  0  0  0  0  0  0  0  0
   23.6491  -17.1679  -23.0015 C   0  0  1  0  0  0  0  0  0  0  0  0
   22.8881  -15.9879  -23.5179 C   0  0  0  0  0  0  0  0  0  0  0  0
   23.2916  -14.7012  -22.9429 C   0  0  0  0  0  0  0  0  0  0  0  0
   22.9881  -14.2552  -21.6761 C   0  0  0  0  0  0  0  0  0  0  0  0
   23.5291  -13.0468  -21.4634 N   0  0  0  0  0  0  0  0  0  0  0  0
   24.1802  -12.7124  -22.5897 C   0  0  0  0  0  0  0  0  0  0  0  0
   24.8942  -11.5794  -22.8935 C   0  0  0  0  0  0  0  0  0  0  0  0
   25.4915  -11.4189  -24.1246 C   0  0  0  0  0  0  0  0  0  0  0  0
   25.3579  -12.4265  -25.0552 C   0  0  0  0  0  0  0  0  0  0  0  0
   24.6325  -13.5804  -24.7494 C   0  0  0  0  0  0  0  0  0  0  0  0
   24.0474  -13.7298  -23.5320 C   0  0  0  0  0  0  0  0  0  0  0  0
   23.0588  -18.4581  -23.4465 C   0  0  0  0  0  0  0  0  0  0  0  0
   23.3737  -18.9875  -24.5420 O   0  0  0  0  0  0  0  0  0  0  0  0
   17.5076  -19.1566  -18.4339 O   0  0  0  0  0  0  0  0  0  0  0  0
   18.4987  -19.6666  -19.2729 C   0  0  0  0  0  0  0  0  0  0  0  0
   19.8015  -19.3053  -19.1107 C   0  0  0  0  0  0  0  0  0  0  0  0
   20.7860  -19.8114  -19.9436 C   0  0  0  0  0  0  0  0  0  0  0  0
   20.4227  -20.6913  -20.9442 C   0  0  0  0  0  0  0  0  0  0  0  0
   21.4018  -21.2653  -21.8700 C   0  0  0  0  0  0  0  0  0  0  0  0
   21.5358  -20.3962  -23.1011 C   0  0  2  0  0  0  0  0  0  0  0  0
   22.1127  -19.1333  -22.6347 N   0  0  0  0  0  0  0  0  0  0  0  0
   20.2639  -20.1658  -23.8058 C   0  0  0  0  0  0  0  0  0  0  0  0
   19.6169  -19.0970  -23.7091 O   0  0  0  0  0  0  0  0  0  0  0  0
   19.0933  -21.0718  -21.1240 C   0  0  0  0  0  0  0  0  0  0  0  0
   18.1543  -20.5416  -20.2714 C   0  0  0  0  0  0  0  0  0  0  0  0
   19.7088  -21.1464  -24.6304 O   0  0  0  0  0  0  0  0  0  0  0  0
  2  3  1  0
  2  1  1  1
  4  3  1  0
  4  5  2  0
  6  5  1  0
  7  6  1  0
  8  7  2  0
  9  8  1  0
 10  9  2  0
 10 11  1  0
 11 12  2  0
 12  7  1  0
 12  4  1  0
 13  2  1  0
 14 13  2  0
 15 13  1  0
 16 27  1  0
 16 15  1  0
 16 17  1  6
 18 17  1  0
 18 26  1  0
 19 20  1  0
 19 18  2  0
 20 21  1  0
 21 22  2  0
 21 26  1  0
 22 23  1  0
 23 24  2  0
 25 24  1  0
 26 25  2  0
 27 36  1  0
 28 27  2  0
 29 30  1  0
 30 40  2  0
 31 30  1  0
 31 32  2  0
 32 33  1  0
 33 39  2  0
 33 34  1  0
 35 34  1  1
 35 37  1  0
 36 35  1  0
 37 38  2  0
 37 41  1  0
 40 39  1  0
M  END
$$$$
