WWY.pdb
     RDKit          3D

 41 45  0  0  1  0  0  0  0  0999 V2000
   26.1364  -19.5369  -17.0680 N   0  0  0  0  0  0  0  0  0  0  0  0
   25.6641  -19.1659  -15.7748 C   0  0  1  0  0  0  0  0  0  0  0  0
   24.7301  -17.9784  -15.7952 C   0  0  0  0  0  0  0  0  0  0  0  0
   25.3553  -16.7943  -16.4237 C   0  0  0  0  0  0  0  0  0  0  0  0
   25.0592  -16.2950  -17.6771 C   0  0  0  0  0  0  0  0  0  0  0  0
   25.8321  -15.2019  -17.9087 N   0  0  0  0  0  0  0  0  0  0  0  0
   26.6234  -14.9717  -16.8471 C   0  0  0  0  0  0  0  0  0  0  0  0
   27.5764  -14.0245  -16.5485 C   0  0  0  0  0  0  0  0  0  0  0  0
   28.2369  -14.0523  -15.3417 C   0  0  0  0  0  0  0  0  0  0  0  0
   27.9670  -15.0149  -14.4119 C   0  0  0  0  0  0  0  0  0  0  0  0
   27.0119  -15.9645  -14.7107 C   0  0  0  0  0  0  0  0  0  0  0  0
   26.3291  -15.9690  -15.9095 C   0  0  0  0  0  0  0  0  0  0  0  0
   25.0223  -20.3386  -15.1391 C   0  0  0  0  0  0  0  0  0  0  0  0
   24.3252  -21.1311  -15.8163 O   0  0  0  0  0  0  0  0  0  0  0  0
   25.2138  -20.5439  -13.7483 N   0  0  0  0  0  0  0  0  0  0  0  0
   24.4957  -21.5949  -13.0739 C   0  0  1  0  0  0  0  0  0  0  0  0
   25.2999  -22.3264  -12.0461 C   0  0  0  0  0  0  0  0  0  0  0  0
   26.4447  -21.5775  -11.5191 C   0  0  0  0  0  0  0  0  0  0  0  0
   27.6253  -21.3377  -12.1857 C   0  0  0  0  0  0  0  0  0  0  0  0
   28.4512  -20.6042  -11.4255 N   0  0  0  0  0  0  0  0  0  0  0  0
   27.8064  -20.3707  -10.2706 C   0  0  0  0  0  0  0  0  0  0  0  0
   28.2120  -19.6757   -9.1578 C   0  0  0  0  0  0  0  0  0  0  0  0
   27.3962  -19.5526   -8.0545 C   0  0  0  0  0  0  0  0  0  0  0  0
   26.1528  -20.1460   -8.0882 C   0  0  0  0  0  0  0  0  0  0  0  0
   25.7370  -20.8535   -9.2185 C   0  0  0  0  0  0  0  0  0  0  0  0
   26.5487  -20.9688  -10.3023 C   0  0  0  0  0  0  0  0  0  0  0  0
   23.2500  -21.0142  -12.5064 C   0  0  0  0  0  0  0  0  0  0  0  0
   23.1654  -19.7977  -12.2017 O   0  0  0  0  0  0  0  0  0  0  0  0
   16.1736  -19.3587  -16.5515 O   0  0  0  0  0  0  0  0  0  0  0  0
   17.3740  -19.7553  -15.9614 C   0  0  0  0  0  0  0  0  0  0  0  0
   18.0922  -18.8890  -15.1948 C   0  0  0  0  0  0  0  0  0  0  0  0
   19.2843  -19.2825  -14.6088 C   0  0  0  0  0  0  0  0  0  0  0  0
   19.7332  -20.5720  -14.8160 C   0  0  0  0  0  0  0  0  0  0  0  0
   20.9860  -21.0630  -14.2375 C   0  0  0  0  0  0  0  0  0  0  0  0
   20.8015  -21.3760  -12.7689 C   0  0  2  0  0  0  0  0  0  0  0  0
   22.1100  -21.8293  -12.2920 N   0  0  0  0  0  0  0  0  0  0  0  0
   19.7649  -22.3872  -12.5036 C   0  0  0  0  0  0  0  0  0  0  0  0
   19.9196  -23.6035  -12.7622 O   0  0  0  0  0  0  0  0  0  0  0  0
   19.0100  -21.4718  -15.5981 C   0  0  0  0  0  0  0  0  0  0  0  0
   17.8334  -21.0327  -16.1575 C   0  0  0  0  0  0  0  0  0  0  0  0
   18.5377  -22.0309  -11.9407 O   0  0  0  0  0  0  0  0  0  0  0  0
  2  3  1  0
  2  1  1  6
  4  3  1  0
  4  5  2  0
  6  5  1  0
  7  6  1  0
  8  7  2  0
  9  8  1  0
 10  9  2  0
 10 11  1  0
 11 12  2  0
 12  7  1  0
 12  4  1  0
 13  2  1  0
 14 13  2  0
 15 13  1  0
 16 27  1  0
 16 15  1  0
 16 17  1  1
 18 17  1  0
 18 26  1  0
 19 20  1  0
 19 18  2  0
 20 21  1  0
 21 22  2  0
 21 26  1  0
 22 23  1  0
 23 24  2  0
 25 24  1  0
 26 25  2  0
 27 36  1  0
 28 27  2  0
 29 30  1  0
 30 40  2  0
 31 30  1  0
 31 32  2  0
 32 33  1  0
 33 39  2  0
 33 34  1  0
 35 34  1  6
 35 37  1  0
 36 35  1  0
 37 38  2  0
 37 41  1  0
 40 39  1  0
M  END
$$$$
