WWY.pdb
     RDKit          3D

 41 45  0  0  1  0  0  0  0  0999 V2000
   27.6170  -20.3140  -16.1508 N   0  0  0  0  0  0  0  0  0  0  0  0
   27.5296  -19.8416  -14.8083 C   0  0  1  0  0  0  0  0  0  0  0  0
   26.9587  -18.4470  -14.6991 C   0  0  0  0  0  0  0  0  0  0  0  0
   27.4903  -17.5486  -15.7472 C   0  0  0  0  0  0  0  0  0  0  0  0
   26.7382  -16.7239  -16.5608 C   0  0  0  0  0  0  0  0  0  0  0  0
   27.5722  -16.0512  -17.3961 N   0  0  0  0  0  0  0  0  0  0  0  0
   28.8444  -16.4103  -17.1541 C   0  0  0  0  0  0  0  0  0  0  0  0
   30.0606  -16.0529  -17.6904 C   0  0  0  0  0  0  0  0  0  0  0  0
   31.2256  -16.6118  -17.2174 C   0  0  0  0  0  0  0  0  0  0  0  0
   31.2079  -17.5316  -16.2086 C   0  0  0  0  0  0  0  0  0  0  0  0
   29.9892  -17.8902  -15.6708 C   0  0  0  0  0  0  0  0  0  0  0  0
   28.8006  -17.3516  -16.1185 C   0  0  0  0  0  0  0  0  0  0  0  0
   26.7417  -20.8049  -14.0066 C   0  0  0  0  0  0  0  0  0  0  0  0
   25.8684  -21.5237  -14.5482 O   0  0  0  0  0  0  0  0  0  0  0  0
   26.9973  -20.8950  -12.6140 N   0  0  0  0  0  0  0  0  0  0  0  0
   26.1491  -21.7090  -11.7813 C   0  0  1  0  0  0  0  0  0  0  0  0
   26.7551  -22.0805  -10.4648 C   0  0  0  0  0  0  0  0  0  0  0  0
   26.8338  -20.9825   -9.4966 C   0  0  0  0  0  0  0  0  0  0  0  0
   25.9707  -19.9124   -9.4215 C   0  0  0  0  0  0  0  0  0  0  0  0
   26.3152  -19.1038   -8.4088 N   0  0  0  0  0  0  0  0  0  0  0  0
   27.3982  -19.6494   -7.8312 C   0  0  0  0  0  0  0  0  0  0  0  0
   28.1411  -19.2152   -6.7610 C   0  0  0  0  0  0  0  0  0  0  0  0
   29.2371  -19.9223   -6.3170 C   0  0  0  0  0  0  0  0  0  0  0  0
   29.5777  -21.0852   -6.9735 C   0  0  0  0  0  0  0  0  0  0  0  0
   28.8241  -21.5297   -8.0623 C   0  0  0  0  0  0  0  0  0  0  0  0
   27.7442  -20.8256   -8.4924 C   0  0  0  0  0  0  0  0  0  0  0  0
   24.8459  -21.0103  -11.6249 C   0  0  0  0  0  0  0  0  0  0  0  0
   24.7795  -19.7947  -11.3126 O   0  0  0  0  0  0  0  0  0  0  0  0
   21.0464  -21.9520  -17.7767 O   0  0  0  0  0  0  0  0  0  0  0  0
   21.4157  -21.4399  -16.5326 C   0  0  0  0  0  0  0  0  0  0  0  0
   22.7286  -21.3027  -16.1985 C   0  0  0  0  0  0  0  0  0  0  0  0
   23.0957  -20.7943  -14.9632 C   0  0  0  0  0  0  0  0  0  0  0  0
   22.1048  -20.4280  -14.0737 C   0  0  0  0  0  0  0  0  0  0  0  0
   22.4099  -19.8890  -12.7464 C   0  0  0  0  0  0  0  0  0  0  0  0
   22.3584  -20.9872  -11.7071 C   0  0  2  0  0  0  0  0  0  0  0  0
   23.6280  -21.7074  -11.8272 N   0  0  0  0  0  0  0  0  0  0  0  0
   21.2165  -21.9025  -11.8673 C   0  0  0  0  0  0  0  0  0  0  0  0
   21.3398  -23.0763  -12.2880 O   0  0  0  0  0  0  0  0  0  0  0  0
   20.7557  -20.5618  -14.4000 C   0  0  0  0  0  0  0  0  0  0  0  0
   20.4435  -21.0713  -15.6381 C   0  0  0  0  0  0  0  0  0  0  0  0
   19.9180  -21.4971  -11.5519 O   0  0  0  0  0  0  0  0  0  0  0  0
  2  3  1  0
  2  1  1  6
  4  3  1  0
  4  5  2  0
  6  5  1  0
  7  6  1  0
  8  7  2  0
  9  8  1  0
 10  9  2  0
 10 11  1  0
 11 12  2  0
 12  7  1  0
 12  4  1  0
 13  2  1  0
 14 13  2  0
 15 13  1  0
 16 27  1  0
 16 15  1  0
 16 17  1  1
 18 17  1  0
 18 26  1  0
 19 20  1  0
 19 18  2  0
 20 21  1  0
 21 22  2  0
 21 26  1  0
 22 23  1  0
 23 24  2  0
 25 24  1  0
 26 25  2  0
 27 36  1  0
 28 27  2  0
 29 30  1  0
 30 40  2  0
 31 30  1  0
 31 32  2  0
 32 33  1  0
 33 39  2  0
 33 34  1  0
 35 34  1  6
 35 37  1  0
 36 35  1  0
 37 38  2  0
 37 41  1  0
 40 39  1  0
M  END
$$$$
