WWY.pdb
     RDKit          3D

 41 45  0  0  1  0  0  0  0  0999 V2000
   29.2827  -20.9738  -15.4045 N   0  0  0  0  0  0  0  0  0  0  0  0
   28.1413  -20.3285  -14.8439 C   0  0  1  0  0  0  0  0  0  0  0  0
   27.2885  -19.6200  -15.8703 C   0  0  0  0  0  0  0  0  0  0  0  0
   28.0025  -18.4839  -16.4929 C   0  0  0  0  0  0  0  0  0  0  0  0
   28.8450  -18.5609  -17.5847 C   0  0  0  0  0  0  0  0  0  0  0  0
   29.3123  -17.3170  -17.8680 N   0  0  0  0  0  0  0  0  0  0  0  0
   28.8022  -16.4306  -16.9962 C   0  0  0  0  0  0  0  0  0  0  0  0
   28.9337  -15.0716  -16.8223 C   0  0  0  0  0  0  0  0  0  0  0  0
   28.2640  -14.4276  -15.8074 C   0  0  0  0  0  0  0  0  0  0  0  0
   27.4547  -15.1148  -14.9491 C   0  0  0  0  0  0  0  0  0  0  0  0
   27.3224  -16.4769  -15.1229 C   0  0  0  0  0  0  0  0  0  0  0  0
   27.9777  -17.1572  -16.1286 C   0  0  0  0  0  0  0  0  0  0  0  0
   27.3481  -21.3215  -14.0849 C   0  0  0  0  0  0  0  0  0  0  0  0
   27.0845  -22.4428  -14.5805 O   0  0  0  0  0  0  0  0  0  0  0  0
   26.8938  -20.9748  -12.7862 N   0  0  0  0  0  0  0  0  0  0  0  0
   25.9476  -21.8234  -12.1082 C   0  0  1  0  0  0  0  0  0  0  0  0
   26.3581  -22.2180  -10.7246 C   0  0  0  0  0  0  0  0  0  0  0  0
   26.3903  -21.1155   -9.7589 C   0  0  0  0  0  0  0  0  0  0  0  0
   25.3784  -20.2080   -9.5395 C   0  0  0  0  0  0  0  0  0  0  0  0
   25.7253  -19.3449   -8.5738 N   0  0  0  0  0  0  0  0  0  0  0  0
   26.9582  -19.6933   -8.1702 C   0  0  0  0  0  0  0  0  0  0  0  0
   27.7655  -19.1307   -7.2123 C   0  0  0  0  0  0  0  0  0  0  0  0
   29.0188  -19.6369   -6.9457 C   0  0  0  0  0  0  0  0  0  0  0  0
   29.4520  -20.7294   -7.6655 C   0  0  0  0  0  0  0  0  0  0  0  0
   28.6333  -21.3042   -8.6404 C   0  0  0  0  0  0  0  0  0  0  0  0
   27.3982  -20.7981   -8.8957 C   0  0  0  0  0  0  0  0  0  0  0  0
   24.6218  -21.1506  -12.1326 C   0  0  0  0  0  0  0  0  0  0  0  0
   24.4880  -19.9397  -11.8234 O   0  0  0  0  0  0  0  0  0  0  0  0
   24.1651  -17.6872  -17.2670 O   0  0  0  0  0  0  0  0  0  0  0  0
   23.5024  -18.5634  -16.4071 C   0  0  0  0  0  0  0  0  0  0  0  0
   22.4863  -18.1246  -15.6140 C   0  0  0  0  0  0  0  0  0  0  0  0
   21.8280  -18.9944  -14.7599 C   0  0  0  0  0  0  0  0  0  0  0  0
   22.2210  -20.3178  -14.7262 C   0  0  0  0  0  0  0  0  0  0  0  0
   21.5809  -21.2984  -13.8465 C   0  0  0  0  0  0  0  0  0  0  0  0
   22.1537  -21.2060  -12.4492 C   0  0  2  0  0  0  0  0  0  0  0  0
   23.4589  -21.8679  -12.5106 N   0  0  0  0  0  0  0  0  0  0  0  0
   21.3009  -21.8179  -11.4169 C   0  0  0  0  0  0  0  0  0  0  0  0
   21.5230  -22.9540  -10.9372 O   0  0  0  0  0  0  0  0  0  0  0  0
   23.2596  -20.7837  -15.5317 C   0  0  0  0  0  0  0  0  0  0  0  0
   23.8808  -19.8810  -16.3620 C   0  0  0  0  0  0  0  0  0  0  0  0
   20.1836  -21.1477  -10.9148 O   0  0  0  0  0  0  0  0  0  0  0  0
  2  3  1  0
  2  1  1  6
  4  3  1  0
  4  5  2  0
  6  5  1  0
  7  6  1  0
  8  7  2  0
  9  8  1  0
 10  9  2  0
 10 11  1  0
 11 12  2  0
 12  7  1  0
 12  4  1  0
 13  2  1  0
 14 13  2  0
 15 13  1  0
 16 27  1  0
 16 15  1  0
 16 17  1  1
 18 17  1  0
 18 26  1  0
 19 20  1  0
 19 18  2  0
 20 21  1  0
 21 22  2  0
 21 26  1  0
 22 23  1  0
 23 24  2  0
 25 24  1  0
 26 25  2  0
 27 36  1  0
 28 27  2  0
 29 30  1  0
 30 40  2  0
 31 30  1  0
 31 32  2  0
 32 33  1  0
 33 39  2  0
 33 34  1  0
 35 34  1  6
 35 37  1  0
 36 35  1  0
 37 38  2  0
 37 41  1  0
 40 39  1  0
M  END
$$$$
