WWY.pdb
     RDKit          3D

 41 45  0  0  1  0  0  0  0  0999 V2000
   23.3250   -6.2511  -23.1336 N   0  0  0  0  0  0  0  0  0  0  0  0
   24.1513   -6.8231  -22.1221 C   0  0  1  0  0  0  0  0  0  0  0  0
   24.6332   -8.2153  -22.4574 C   0  0  0  0  0  0  0  0  0  0  0  0
   23.5296   -9.2002  -22.4442 C   0  0  0  0  0  0  0  0  0  0  0  0
   22.3588   -9.1103  -23.1716 C   0  0  0  0  0  0  0  0  0  0  0  0
   21.5895  -10.1972  -22.9023 N   0  0  0  0  0  0  0  0  0  0  0  0
   22.2201  -10.9937  -22.0226 C   0  0  0  0  0  0  0  0  0  0  0  0
   21.9098  -12.1909  -21.4185 C   0  0  0  0  0  0  0  0  0  0  0  0
   22.7865  -12.7771  -20.5348 C   0  0  0  0  0  0  0  0  0  0  0  0
   23.9822  -12.1908  -20.2339 C   0  0  0  0  0  0  0  0  0  0  0  0
   24.2938  -10.9909  -20.8390 C   0  0  0  0  0  0  0  0  0  0  0  0
   23.4406  -10.3731  -21.7300 C   0  0  0  0  0  0  0  0  0  0  0  0
   25.2892   -5.9145  -21.8555 C   0  0  0  0  0  0  0  0  0  0  0  0
   25.8938   -5.3531  -22.8000 O   0  0  0  0  0  0  0  0  0  0  0  0
   25.6788   -5.6948  -20.5091 N   0  0  0  0  0  0  0  0  0  0  0  0
   26.7775   -4.8100  -20.2167 C   0  0  1  0  0  0  0  0  0  0  0  0
   26.6179   -4.0310  -18.9494 C   0  0  0  0  0  0  0  0  0  0  0  0
   27.6576   -3.0242  -18.7159 C   0  0  0  0  0  0  0  0  0  0  0  0
   28.7209   -3.1511  -17.8504 C   0  0  0  0  0  0  0  0  0  0  0  0
   29.4934   -2.0560  -17.8947 N   0  0  0  0  0  0  0  0  0  0  0  0
   28.9309   -1.2233  -18.7860 C   0  0  0  0  0  0  0  0  0  0  0  0
   29.3228    0.0276  -19.1953 C   0  0  0  0  0  0  0  0  0  0  0  0
   28.5973    0.7348  -20.1288 C   0  0  0  0  0  0  0  0  0  0  0  0
   27.4590    0.1581  -20.6496 C   0  0  0  0  0  0  0  0  0  0  0  0
   27.0576   -1.1141  -20.2356 C   0  0  0  0  0  0  0  0  0  0  0  0
   27.7804   -1.8042  -19.3147 C   0  0  0  0  0  0  0  0  0  0  0  0
   28.0319   -5.6083  -20.2336 C   0  0  0  0  0  0  0  0  0  0  0  0
   28.1499   -6.6702  -19.5717 O   0  0  0  0  0  0  0  0  0  0  0  0
   28.0484  -10.0287  -25.2873 O   0  0  0  0  0  0  0  0  0  0  0  0
   28.7115   -9.0148  -24.5953 C   0  0  0  0  0  0  0  0  0  0  0  0
   28.2348   -7.7394  -24.6040 C   0  0  0  0  0  0  0  0  0  0  0  0
   28.8930   -6.7324  -23.9172 C   0  0  0  0  0  0  0  0  0  0  0  0
   30.0444   -7.0448  -23.2215 C   0  0  0  0  0  0  0  0  0  0  0  0
   30.8019   -6.0368  -22.4761 C   0  0  0  0  0  0  0  0  0  0  0  0
   30.3561   -6.0047  -21.0308 C   0  0  2  0  0  0  0  0  0  0  0  0
   29.1419   -5.1859  -21.0078 N   0  0  0  0  0  0  0  0  0  0  0  0
   31.3708   -5.4680  -20.1089 C   0  0  0  0  0  0  0  0  0  0  0  0
   31.2823   -4.3323  -19.5869 O   0  0  0  0  0  0  0  0  0  0  0  0
   30.5462   -8.3456  -23.2021 C   0  0  0  0  0  0  0  0  0  0  0  0
   29.8563   -9.3089  -23.8994 C   0  0  0  0  0  0  0  0  0  0  0  0
   32.5005   -6.2140  -19.7670 O   0  0  0  0  0  0  0  0  0  0  0  0
  2  3  1  0
  2  1  1  6
  4  3  1  0
  4  5  2  0
  6  5  1  0
  7  6  1  0
  8  7  2  0
  9  8  1  0
 10  9  2  0
 10 11  1  0
 11 12  2  0
 12  7  1  0
 12  4  1  0
 13  2  1  0
 14 13  2  0
 15 13  1  0
 16 27  1  0
 16 15  1  0
 16 17  1  1
 18 17  1  0
 18 26  1  0
 19 20  1  0
 19 18  2  0
 20 21  1  0
 21 22  2  0
 21 26  1  0
 22 23  1  0
 23 24  2  0
 25 24  1  0
 26 25  2  0
 27 36  1  0
 28 27  2  0
 29 30  1  0
 30 40  2  0
 31 30  1  0
 31 32  2  0
 32 33  1  0
 33 39  2  0
 33 34  1  0
 35 34  1  6
 35 37  1  0
 36 35  1  0
 37 38  2  0
 37 41  1  0
 40 39  1  0
M  END
$$$$
