DDF.pdb
     RDKit          3D

 28 28  0  0  1  0  0  0  0  0999 V2000
    6.1321  -17.5839   22.8095 N   0  0  0  0  0  0  0  0  0  0  0  0
    6.9568  -18.6852   22.4112 C   0  0  1  0  0  0  0  0  0  0  0  0
    6.8185  -18.9386   20.9224 C   0  0  0  0  0  0  0  0  0  0  0  0
    7.3538  -20.2881   20.6253 C   0  0  0  0  0  0  0  0  0  0  0  0
    7.3890  -21.2318   21.4640 O   0  0  0  0  0  0  0  0  0  0  0  0
    8.3852  -18.5398   22.8011 C   0  0  0  0  0  0  0  0  0  0  0  0
    9.1989  -19.2135   22.0944 O   0  0  0  0  0  0  0  0  0  0  0  0
    7.8588  -20.5845   19.3639 O   0  0  0  0  0  0  0  0  0  0  0  0
    8.8060  -17.7109   23.8794 N   0  0  0  0  0  0  0  0  0  0  0  0
   10.2034  -17.3474   23.9488 C   0  0  1  0  0  0  0  0  0  0  0  0
   10.6625  -16.5748   22.7210 C   0  0  0  0  0  0  0  0  0  0  0  0
   12.0958  -16.2310   22.7732 C   0  0  0  0  0  0  0  0  0  0  0  0
   12.8902  -16.8519   23.5147 O   0  0  0  0  0  0  0  0  0  0  0  0
   10.4965  -16.4616   25.1065 C   0  0  0  0  0  0  0  0  0  0  0  0
   11.6493  -15.9555   25.1427 O   0  0  0  0  0  0  0  0  0  0  0  0
   12.5508  -15.2071   21.9861 O   0  0  0  0  0  0  0  0  0  0  0  0
    9.5148  -16.2203   26.0936 N   0  0  0  0  0  0  0  0  0  0  0  0
    9.9161  -15.7598   27.4286 C   0  0  1  0  0  0  0  0  0  0  0  0
    8.7629  -15.0475   28.0878 C   0  0  0  0  0  0  0  0  0  0  0  0
    8.2079  -14.0234   27.2003 C   0  0  0  0  0  0  0  0  0  0  0  0
    8.7960  -12.7849   27.0885 C   0  0  0  0  0  0  0  0  0  0  0  0
    8.2992  -11.8184   26.2439 C   0  0  0  0  0  0  0  0  0  0  0  0
    7.1805  -12.0840   25.4815 C   0  0  0  0  0  0  0  0  0  0  0  0
    6.5869  -13.3140   25.5849 C   0  0  0  0  0  0  0  0  0  0  0  0
    7.1044  -14.2741   26.4429 C   0  0  0  0  0  0  0  0  0  0  0  0
   10.4621  -16.8810   28.2207 C   0  0  0  0  0  0  0  0  0  0  0  0
   11.2660  -16.7136   29.3130 O   0  0  0  0  0  0  0  0  0  0  0  0
   10.1853  -18.0736   27.8873 O   0  0  0  0  0  0  0  0  0  0  0  0
  2  1  1  6
  3  2  1  0
  4  3  1  0
  5  4  2  0
  6  2  1  0
  7  6  2  0
  8  4  1  0
  9  6  1  0
 10 11  1  6
 10  9  1  0
 12 16  1  0
 12 11  1  0
 13 12  2  0
 14 10  1  0
 15 14  2  0
 17 14  1  0
 18 17  1  0
 18 19  1  1
 19 20  1  0
 20 21  2  0
 21 22  1  0
 23 22  2  0
 24 23  1  0
 25 20  1  0
 25 24  2  0
 26 18  1  0
 26 27  1  0
 28 26  2  0
M  END
$$$$
