DDF.pdb
     RDKit          3D

 28 28  0  0  1  0  0  0  0  0999 V2000
    8.3962  -15.9765   19.7124 N   0  0  0  0  0  0  0  0  0  0  0  0
    7.9583  -16.9494   20.6682 C   0  0  1  0  0  0  0  0  0  0  0  0
    7.5856  -18.2443   19.9723 C   0  0  0  0  0  0  0  0  0  0  0  0
    7.1575  -17.9264   18.5896 C   0  0  0  0  0  0  0  0  0  0  0  0
    7.3059  -16.7945   18.0493 O   0  0  0  0  0  0  0  0  0  0  0  0
    8.9292  -17.1912   21.7692 C   0  0  0  0  0  0  0  0  0  0  0  0
    8.6368  -18.1672   22.5290 O   0  0  0  0  0  0  0  0  0  0  0  0
    6.5519  -18.8965   17.7983 O   0  0  0  0  0  0  0  0  0  0  0  0
   10.0931  -16.3929   21.9554 N   0  0  0  0  0  0  0  0  0  0  0  0
   10.9640  -16.7133   23.0639 C   0  0  1  0  0  0  0  0  0  0  0  0
   12.3298  -16.0549   22.9365 C   0  0  0  0  0  0  0  0  0  0  0  0
   13.1123  -16.5914   21.8072 C   0  0  0  0  0  0  0  0  0  0  0  0
   12.8344  -17.6944   21.2852 O   0  0  0  0  0  0  0  0  0  0  0  0
   10.4164  -16.2411   24.3631 C   0  0  0  0  0  0  0  0  0  0  0  0
   10.9823  -15.2390   24.8747 O   0  0  0  0  0  0  0  0  0  0  0  0
   14.1628  -15.8531   21.3316 O   0  0  0  0  0  0  0  0  0  0  0  0
    9.3207  -16.9006   24.9637 N   0  0  0  0  0  0  0  0  0  0  0  0
    8.8501  -16.4808   26.2895 C   0  0  1  0  0  0  0  0  0  0  0  0
    7.4492  -15.9354   26.1816 C   0  0  0  0  0  0  0  0  0  0  0  0
    7.4669  -14.4763   26.0573 C   0  0  0  0  0  0  0  0  0  0  0  0
    7.4355  -13.6675   27.1695 C   0  0  0  0  0  0  0  0  0  0  0  0
    7.4723  -12.2952   27.0710 C   0  0  0  0  0  0  0  0  0  0  0  0
    7.5423  -11.6991   25.8289 C   0  0  0  0  0  0  0  0  0  0  0  0
    7.5741  -12.4949   24.7146 C   0  0  0  0  0  0  0  0  0  0  0  0
    7.5361  -13.8767   24.8367 C   0  0  0  0  0  0  0  0  0  0  0  0
    8.9928  -17.5832   27.2626 C   0  0  0  0  0  0  0  0  0  0  0  0
    9.1124  -17.3909   28.6102 O   0  0  0  0  0  0  0  0  0  0  0  0
    9.0096  -18.7827   26.8487 O   0  0  0  0  0  0  0  0  0  0  0  0
  2  1  1  6
  3  2  1  0
  4  3  1  0
  5  4  2  0
  6  2  1  0
  7  6  2  0
  8  4  1  0
  9  6  1  0
 10 11  1  6
 10  9  1  0
 12 16  1  0
 12 11  1  0
 13 12  2  0
 14 10  1  0
 15 14  2  0
 17 14  1  0
 18 17  1  0
 18 19  1  6
 19 20  1  0
 20 21  2  0
 21 22  1  0
 23 22  2  0
 24 23  1  0
 25 20  1  0
 25 24  2  0
 26 18  1  0
 26 27  1  0
 28 26  2  0
M  END
$$$$
