DDF.pdb
     RDKit          3D

 28 28  0  0  1  0  0  0  0  0999 V2000
   11.0801  -18.8961   21.6712 N   0  0  0  0  0  0  0  0  0  0  0  0
   11.5835  -17.5915   21.3610 C   0  0  1  0  0  0  0  0  0  0  0  0
   12.0497  -17.5332   19.9191 C   0  0  0  0  0  0  0  0  0  0  0  0
   13.2994  -18.3205   19.7988 C   0  0  0  0  0  0  0  0  0  0  0  0
   13.3698  -19.4472   19.2324 O   0  0  0  0  0  0  0  0  0  0  0  0
   10.6291  -16.4906   21.6621 C   0  0  0  0  0  0  0  0  0  0  0  0
   11.1449  -15.3289   21.6692 O   0  0  0  0  0  0  0  0  0  0  0  0
   14.4922  -17.8348   20.3235 O   0  0  0  0  0  0  0  0  0  0  0  0
    9.2482  -16.7211   21.9205 N   0  0  0  0  0  0  0  0  0  0  0  0
    8.4245  -15.5839   22.2644 C   0  0  1  0  0  0  0  0  0  0  0  0
    6.9405  -15.8685   22.0854 C   0  0  0  0  0  0  0  0  0  0  0  0
    6.6755  -16.8147   20.9855 C   0  0  0  0  0  0  0  0  0  0  0  0
    6.7958  -16.4741   19.7872 O   0  0  0  0  0  0  0  0  0  0  0  0
    8.5825  -15.1861   23.6883 C   0  0  0  0  0  0  0  0  0  0  0  0
    8.1572  -14.0415   23.9973 O   0  0  0  0  0  0  0  0  0  0  0  0
    6.2906  -18.0905   21.3002 O   0  0  0  0  0  0  0  0  0  0  0  0
    9.1797  -16.0661   24.6185 N   0  0  0  0  0  0  0  0  0  0  0  0
    9.3987  -15.6300   26.0031 C   0  0  1  0  0  0  0  0  0  0  0  0
    8.0739  -15.5014   26.7104 C   0  0  0  0  0  0  0  0  0  0  0  0
    7.5305  -14.1504   26.5559 C   0  0  0  0  0  0  0  0  0  0  0  0
    8.2287  -13.0488   26.9933 C   0  0  0  0  0  0  0  0  0  0  0  0
    7.7416  -11.7710   26.8374 C   0  0  0  0  0  0  0  0  0  0  0  0
    6.5202  -11.5731   26.2276 C   0  0  0  0  0  0  0  0  0  0  0  0
    5.8163  -12.6628   25.7882 C   0  0  0  0  0  0  0  0  0  0  0  0
    6.3261  -13.9426   25.9555 C   0  0  0  0  0  0  0  0  0  0  0  0
   10.3584  -16.5246   26.6822 C   0  0  0  0  0  0  0  0  0  0  0  0
   10.9871  -17.5681   26.0631 O   0  0  0  0  0  0  0  0  0  0  0  0
   10.6286  -16.3352   27.9075 O   0  0  0  0  0  0  0  0  0  0  0  0
  2  1  1  6
  3  2  1  0
  4  3  1  0
  5  4  2  0
  6  2  1  0
  7  6  2  0
  8  4  1  0
  9  6  1  0
 10 11  1  1
 10  9  1  0
 12 16  1  0
 12 11  1  0
 13 12  2  0
 14 10  1  0
 15 14  2  0
 17 14  1  0
 18 17  1  0
 18 19  1  1
 19 20  1  0
 20 21  2  0
 21 22  1  0
 23 22  2  0
 24 23  1  0
 25 20  1  0
 25 24  2  0
 26 18  1  0
 26 27  1  0
 28 26  2  0
M  END
$$$$
