DDF.pdb
     RDKit          3D

 28 28  0  0  1  0  0  0  0  0999 V2000
    8.8043  -12.6084   20.2729 N   0  0  0  0  0  0  0  0  0  0  0  0
    7.6739  -13.4808   20.3866 C   0  0  1  0  0  0  0  0  0  0  0  0
    7.0531  -13.7226   19.0243 C   0  0  0  0  0  0  0  0  0  0  0  0
    8.1313  -14.0922   18.0773 C   0  0  0  0  0  0  0  0  0  0  0  0
    9.3384  -14.2526   18.4125 O   0  0  0  0  0  0  0  0  0  0  0  0
    7.9710  -14.7646   21.0772 C   0  0  0  0  0  0  0  0  0  0  0  0
    6.9712  -15.5375   21.2127 O   0  0  0  0  0  0  0  0  0  0  0  0
    7.8502  -14.2856   16.7290 O   0  0  0  0  0  0  0  0  0  0  0  0
    9.2722  -15.0999   21.5476 N   0  0  0  0  0  0  0  0  0  0  0  0
    9.4320  -16.3418   22.2702 C   0  0  1  0  0  0  0  0  0  0  0  0
   10.3039  -17.3392   21.5216 C   0  0  0  0  0  0  0  0  0  0  0  0
   10.5092  -18.5888   22.2777 C   0  0  0  0  0  0  0  0  0  0  0  0
    9.5768  -19.1275   22.9154 O   0  0  0  0  0  0  0  0  0  0  0  0
   10.0960  -16.1447   23.5858 C   0  0  0  0  0  0  0  0  0  0  0  0
   11.0256  -16.9469   23.8662 O   0  0  0  0  0  0  0  0  0  0  0  0
   11.7541  -19.1589   22.2708 O   0  0  0  0  0  0  0  0  0  0  0  0
    9.6846  -15.1054   24.4502 N   0  0  0  0  0  0  0  0  0  0  0  0
    9.2415  -15.4194   25.8141 C   0  0  1  0  0  0  0  0  0  0  0  0
    7.7400  -15.3158   25.8966 C   0  0  0  0  0  0  0  0  0  0  0  0
    7.3239  -13.9246   26.0861 C   0  0  0  0  0  0  0  0  0  0  0  0
    8.2253  -12.9589   26.4697 C   0  0  0  0  0  0  0  0  0  0  0  0
    7.8551  -11.6433   26.6324 C   0  0  0  0  0  0  0  0  0  0  0  0
    6.5470  -11.2669   26.4084 C   0  0  0  0  0  0  0  0  0  0  0  0
    5.6410  -12.2203   26.0260 C   0  0  0  0  0  0  0  0  0  0  0  0
    6.0357  -13.5413   25.8678 C   0  0  0  0  0  0  0  0  0  0  0  0
    9.7784  -16.7265   26.2451 C   0  0  0  0  0  0  0  0  0  0  0  0
   10.3735  -17.6162   25.3957 O   0  0  0  0  0  0  0  0  0  0  0  0
    9.6925  -17.0648   27.4651 O   0  0  0  0  0  0  0  0  0  0  0  0
  2  1  1  6
  3  2  1  0
  4  3  1  0
  5  4  2  0
  6  2  1  0
  7  6  2  0
  8  4  1  0
  9  6  1  0
 10 11  1  6
 10  9  1  0
 12 16  1  0
 12 11  1  0
 13 12  2  0
 14 10  1  0
 15 14  2  0
 17 14  1  0
 18 17  1  0
 18 19  1  6
 19 20  1  0
 20 21  2  0
 21 22  1  0
 23 22  2  0
 24 23  1  0
 25 20  1  0
 25 24  2  0
 26 18  1  0
 26 27  1  0
 28 26  2  0
M  END
$$$$
