MGY.pdb
     RDKit          3D

 25 25  0  0  1  0  0  0  0  0999 V2000
   30.0363  -27.9170  -17.0835 C   0  0  0  0  0  0  0  0  0  0  0  0
   30.3954  -26.9363  -18.5677 S   0  0  0  0  0  0  0  0  0  0  0  0
   31.8450  -25.8790  -18.1423 C   0  0  0  0  0  0  0  0  0  0  0  0
   31.3028  -24.7609  -17.3335 C   0  0  0  0  0  0  0  0  0  0  0  0
   30.0115  -24.1618  -17.7651 C   0  0  2  0  0  0  0  0  0  0  0  0
   30.3578  -23.2301  -18.8620 N   0  0  0  0  0  0  0  0  0  0  0  0
   29.2809  -23.3768  -16.7827 C   0  0  0  0  0  0  0  0  0  0  0  0
   29.0848  -23.7408  -15.5970 O   0  0  0  0  0  0  0  0  0  0  0  0
   28.7494  -22.1170  -17.1668 N   0  0  0  0  0  0  0  0  0  0  0  0
   28.0766  -21.2993  -16.2236 C   0  0  0  0  0  0  0  0  0  0  0  0
   26.6490  -21.6176  -15.9907 C   0  0  0  0  0  0  0  0  0  0  0  0
   25.9090  -21.8237  -17.0207 O   0  0  0  0  0  0  0  0  0  0  0  0
   18.6369  -23.6909  -12.7686 O   0  0  0  0  0  0  0  0  0  0  0  0
   19.9721  -23.3727  -12.8941 C   0  0  0  0  0  0  0  0  0  0  0  0
   20.8499  -24.3001  -13.4000 C   0  0  0  0  0  0  0  0  0  0  0  0
   22.2068  -24.0079  -13.5390 C   0  0  0  0  0  0  0  0  0  0  0  0
   22.7116  -22.7798  -13.1732 C   0  0  0  0  0  0  0  0  0  0  0  0
   24.1480  -22.4712  -13.3206 C   0  0  0  0  0  0  0  0  0  0  0  0
   24.5636  -22.0137  -14.6779 C   0  0  2  0  0  0  0  0  0  0  0  0
   26.0024  -21.7163  -14.7477 N   0  0  0  0  0  0  0  0  0  0  0  0
   23.7908  -20.7946  -15.0197 C   0  0  0  0  0  0  0  0  0  0  0  0
   22.6469  -20.9192  -15.7684 O   0  0  0  0  0  0  0  0  0  0  0  0
   21.8304  -21.8617  -12.6706 C   0  0  0  0  0  0  0  0  0  0  0  0
   20.4687  -22.1427  -12.5266 C   0  0  0  0  0  0  0  0  0  0  0  0
   24.1670  -19.6735  -14.6376 O   0  0  0  0  0  0  0  0  0  0  0  0
  2  1  1  0
  3  2  1  0
  3  4  1  0
  5  4  1  0
  5  6  1  6
  7  5  1  0
  7  9  1  0
  8  7  2  0
 10 11  1  0
 10  9  1  0
 11 12  2  0
 14 13  1  0
 15 14  2  0
 16 15  1  0
 17 16  2  0
 17 23  1  0
 18 17  1  0
 19 18  1  1
 20 19  1  0
 20 11  1  0
 21 22  1  0
 21 19  1  0
 23 24  2  0
 24 14  1  0
 25 21  2  0
M  END
$$$$
