MGY.pdb
     RDKit          3D

 25 25  0  0  1  0  0  0  0  0999 V2000
   25.7931  -29.0780  -18.9034 C   0  0  0  0  0  0  0  0  0  0  0  0
   24.8270  -28.0650  -17.7483 S   0  0  0  0  0  0  0  0  0  0  0  0
   25.9744  -26.7598  -17.1316 C   0  0  0  0  0  0  0  0  0  0  0  0
   27.2899  -27.0581  -17.7473 C   0  0  0  0  0  0  0  0  0  0  0  0
   28.4348  -26.1807  -17.3841 C   0  0  2  0  0  0  0  0  0  0  0  0
   28.6875  -26.4387  -15.9485 N   0  0  0  0  0  0  0  0  0  0  0  0
   28.2387  -24.7451  -17.5090 C   0  0  0  0  0  0  0  0  0  0  0  0
   27.9630  -24.1645  -18.5878 O   0  0  0  0  0  0  0  0  0  0  0  0
   28.3603  -23.9313  -16.3515 N   0  0  0  0  0  0  0  0  0  0  0  0
   28.1409  -22.5323  -16.4260 C   0  0  0  0  0  0  0  0  0  0  0  0
   26.9888  -22.0144  -15.6527 C   0  0  0  0  0  0  0  0  0  0  0  0
   26.2628  -22.8668  -15.0226 O   0  0  0  0  0  0  0  0  0  0  0  0
   29.4285  -21.7160   -9.7249 O   0  0  0  0  0  0  0  0  0  0  0  0
   28.5631  -21.1537  -10.6384 C   0  0  0  0  0  0  0  0  0  0  0  0
   29.0499  -20.6532  -11.8212 C   0  0  0  0  0  0  0  0  0  0  0  0
   28.1993  -20.0781  -12.7653 C   0  0  0  0  0  0  0  0  0  0  0  0
   26.8428  -19.9926  -12.5429 C   0  0  0  0  0  0  0  0  0  0  0  0
   25.9430  -19.3836  -13.5428 C   0  0  0  0  0  0  0  0  0  0  0  0
   25.4924  -20.2973  -14.6320 C   0  0  2  0  0  0  0  0  0  0  0  0
   26.5924  -20.6721  -15.5335 N   0  0  0  0  0  0  0  0  0  0  0  0
   24.4293  -19.6139  -15.4086 C   0  0  0  0  0  0  0  0  0  0  0  0
   23.1700  -19.5159  -14.8708 O   0  0  0  0  0  0  0  0  0  0  0  0
   26.3661  -20.4938  -11.3624 C   0  0  0  0  0  0  0  0  0  0  0  0
   27.2084  -21.0724  -10.4087 C   0  0  0  0  0  0  0  0  0  0  0  0
   24.6675  -19.1346  -16.5301 O   0  0  0  0  0  0  0  0  0  0  0  0
  2  1  1  0
  3  2  1  0
  3  4  1  0
  5  4  1  0
  5  6  1  1
  7  5  1  0
  7  9  1  0
  8  7  2  0
 10 11  1  0
 10  9  1  0
 11 12  2  0
 14 13  1  0
 15 14  2  0
 16 15  1  0
 17 16  2  0
 17 23  1  0
 18 17  1  0
 19 18  1  1
 20 19  1  0
 20 11  1  0
 21 22  1  0
 21 19  1  0
 23 24  2  0
 24 14  1  0
 25 21  2  0
M  END
$$$$
