MGY.pdb
     RDKit          3D

 25 25  0  0  1  0  0  0  0  0999 V2000
   19.3410  -15.2350  -20.4757 C   0  0  0  0  0  0  0  0  0  0  0  0
   20.5250  -14.1440  -19.6381 S   0  0  0  0  0  0  0  0  0  0  0  0
   19.6358  -12.5555  -19.3447 C   0  0  0  0  0  0  0  0  0  0  0  0
   20.6641  -11.6032  -18.8608 C   0  0  0  0  0  0  0  0  0  0  0  0
   21.1400  -11.7570  -17.4599 C   0  0  2  0  0  0  0  0  0  0  0  0
   19.9242  -11.6698  -16.6201 N   0  0  0  0  0  0  0  0  0  0  0  0
   22.0552  -10.7464  -16.9534 C   0  0  0  0  0  0  0  0  0  0  0  0
   23.1472  -10.4506  -17.4983 O   0  0  0  0  0  0  0  0  0  0  0  0
   21.7112  -10.0375  -15.7720 N   0  0  0  0  0  0  0  0  0  0  0  0
   22.5806   -9.0497  -15.2436 C   0  0  0  0  0  0  0  0  0  0  0  0
   22.0878   -7.6542  -15.3008 C   0  0  0  0  0  0  0  0  0  0  0  0
   21.5095   -7.2706  -16.3821 O   0  0  0  0  0  0  0  0  0  0  0  0
   17.7189   -7.1969   -9.5668 O   0  0  0  0  0  0  0  0  0  0  0  0
   18.2839   -6.8054  -10.7615 C   0  0  0  0  0  0  0  0  0  0  0  0
   18.5833   -5.4818  -10.9736 C   0  0  0  0  0  0  0  0  0  0  0  0
   19.1553   -5.0550  -12.1720 C   0  0  0  0  0  0  0  0  0  0  0  0
   19.4388   -5.9465  -13.1828 C   0  0  0  0  0  0  0  0  0  0  0  0
   20.0443   -5.4938  -14.4512 C   0  0  0  0  0  0  0  0  0  0  0  0
   21.5312   -5.3786  -14.4398 C   0  0  2  0  0  0  0  0  0  0  0  0
   22.1887   -6.6856  -14.2886 N   0  0  0  0  0  0  0  0  0  0  0  0
   21.9253   -4.4952  -13.3153 C   0  0  0  0  0  0  0  0  0  0  0  0
   22.6921   -5.0111  -12.3001 O   0  0  0  0  0  0  0  0  0  0  0  0
   19.1378   -7.2630  -12.9633 C   0  0  0  0  0  0  0  0  0  0  0  0
   18.5644   -7.7029  -11.7668 C   0  0  0  0  0  0  0  0  0  0  0  0
   21.5705   -3.3046  -13.2855 O   0  0  0  0  0  0  0  0  0  0  0  0
  2  1  1  0
  3  2  1  0
  3  4  1  0
  5  4  1  0
  5  6  1  1
  7  5  1  0
  7  9  1  0
  8  7  2  0
 10 11  1  0
 10  9  1  0
 11 12  2  0
 14 13  1  0
 15 14  2  0
 16 15  1  0
 17 16  2  0
 17 23  1  0
 18 17  1  0
 19 18  1  1
 20 19  1  0
 20 11  1  0
 21 22  1  0
 21 19  1  0
 23 24  2  0
 24 14  1  0
 25 21  2  0
M  END
$$$$
