MGY.pdb
     RDKit          3D

 25 25  0  0  1  0  0  0  0  0999 V2000
   18.8241  -19.2019  -18.3838 C   0  0  0  0  0  0  0  0  0  0  0  0
   18.8929  -19.3243  -20.1933 S   0  0  0  0  0  0  0  0  0  0  0  0
   20.1308  -20.6382  -20.5692 C   0  0  0  0  0  0  0  0  0  0  0  0
   20.7991  -20.9406  -19.2806 C   0  0  0  0  0  0  0  0  0  0  0  0
   22.2276  -20.5509  -19.1378 C   0  0  2  0  0  0  0  0  0  0  0  0
   22.9520  -21.3291  -20.1678 N   0  0  0  0  0  0  0  0  0  0  0  0
   22.8762  -20.8529  -17.8716 C   0  0  0  0  0  0  0  0  0  0  0  0
   22.5428  -20.3456  -16.7724 O   0  0  0  0  0  0  0  0  0  0  0  0
   23.9543  -21.7772  -17.8547 N   0  0  0  0  0  0  0  0  0  0  0  0
   24.5615  -22.1560  -16.6305 C   0  0  0  0  0  0  0  0  0  0  0  0
   25.6032  -21.2396  -16.1123 C   0  0  0  0  0  0  0  0  0  0  0  0
   26.2259  -20.5041  -16.9622 O   0  0  0  0  0  0  0  0  0  0  0  0
   23.7929  -21.1839   -8.9453 O   0  0  0  0  0  0  0  0  0  0  0  0
   24.4508  -20.6829  -10.0479 C   0  0  0  0  0  0  0  0  0  0  0  0
   25.7699  -20.3139   -9.9462 C   0  0  0  0  0  0  0  0  0  0  0  0
   26.4626  -19.8036  -11.0441 C   0  0  0  0  0  0  0  0  0  0  0  0
   25.8468  -19.6523  -12.2668 C   0  0  0  0  0  0  0  0  0  0  0  0
   26.5808  -19.1120  -13.4286 C   0  0  0  0  0  0  0  0  0  0  0  0
   27.0534  -20.1298  -14.4108 C   0  0  2  0  0  0  0  0  0  0  0  0
   25.9960  -21.0861  -14.7724 N   0  0  0  0  0  0  0  0  0  0  0  0
   28.1976  -20.8618  -13.8149 C   0  0  0  0  0  0  0  0  0  0  0  0
   29.3877  -20.2024  -13.6317 O   0  0  0  0  0  0  0  0  0  0  0  0
   24.5329  -20.0226  -12.3596 C   0  0  0  0  0  0  0  0  0  0  0  0
   23.8282  -20.5353  -11.2666 C   0  0  0  0  0  0  0  0  0  0  0  0
   28.0883  -22.0546  -13.4838 O   0  0  0  0  0  0  0  0  0  0  0  0
  2  1  1  0
  3  2  1  0
  3  4  1  0
  5  4  1  0
  5  6  1  6
  7  5  1  0
  7  9  1  0
  8  7  2  0
 10 11  1  0
 10  9  1  0
 11 12  2  0
 14 13  1  0
 15 14  2  0
 16 15  1  0
 17 16  2  0
 17 23  1  0
 18 17  1  0
 19 18  1  1
 20 19  1  0
 20 11  1  0
 21 22  1  0
 21 19  1  0
 23 24  2  0
 24 14  1  0
 25 21  2  0
M  END
$$$$
