RLM.pdb
     RDKit          3D

 28 27  0  0  1  0  0  0  0  0999 V2000
   27.5273  -26.9575  -16.6285 N   0  0  0  0  0  0  0  0  0  0  0  0
   28.7424  -26.2668  -16.8780 C   0  0  0  0  0  0  0  0  0  0  0  0
   29.8785  -26.9090  -16.8461 N   0  0  0  0  0  0  0  0  0  0  0  0
   28.8262  -24.8823  -17.1709 N   0  0  0  0  0  0  0  0  0  0  0  0
   27.7851  -24.1222  -17.8290 C   0  0  0  0  0  0  0  0  0  0  0  0
   26.4428  -24.8132  -17.5641 C   0  0  0  0  0  0  0  0  0  0  0  0
   25.4643  -23.8511  -16.9153 C   0  0  0  0  0  0  0  0  0  0  0  0
   26.1309  -23.3542  -15.6526 C   0  0  2  0  0  0  0  0  0  0  0  0
   25.8155  -24.3505  -14.6212 N   0  0  0  0  0  0  0  0  0  0  0  0
   25.6551  -22.0168  -15.2295 C   0  0  0  0  0  0  0  0  0  0  0  0
   24.8351  -21.9349  -14.2746 O   0  0  0  0  0  0  0  0  0  0  0  0
   30.7857  -26.3994  -16.9306 C   0  0  0  0  0  0  0  0  0  0  0  0
   26.8733  -16.1476  -16.6998 C   0  0  1  0  0  0  0  0  0  0  0  0
   25.9468  -17.0316  -15.8531 C   0  0  0  0  0  0  0  0  0  0  0  0
   25.9933  -16.5072  -14.4607 C   0  0  0  0  0  0  0  0  0  0  0  0
   26.4472  -18.4435  -16.0225 C   0  0  2  0  0  0  0  0  0  0  0  0
   25.5686  -19.4944  -15.4351 N   0  0  0  0  0  0  0  0  0  0  0  0
   26.0714  -20.8100  -15.8414 C   0  0  0  0  0  0  0  0  0  0  0  0
   24.1515  -19.4270  -15.7117 O   0  0  0  0  0  0  0  0  0  0  0  0
   23.7333  -19.6773  -16.8751 C   0  0  0  0  0  0  0  0  0  0  0  0
   19.7412  -18.5449  -11.0627 S   0  0  0  0  0  0  0  0  0  0  0  0
   18.8787  -19.6487  -12.2157 C   0  0  0  0  0  0  0  0  0  0  0  0
   19.5041  -19.3664  -13.9215 C   0  0  0  0  0  0  0  0  0  0  0  0
   20.9930  -19.3358  -13.8141 C   0  0  1  0  0  0  0  0  0  0  0  0
   21.7203  -19.1219  -15.1212 N   0  0  0  0  0  0  0  0  0  0  0  0
   23.1444  -19.0952  -14.7604 C   0  0  0  0  0  0  0  0  0  0  0  0
   21.3020  -17.8521  -15.7160 O   0  0  0  0  0  0  0  0  0  0  0  0
   20.2228  -17.6783  -16.5521 O   0  0  0  0  0  0  0  0  0  0  0  0
  2  1  1  0
  3  2  2  0
  4  2  1  0
  5  4  1  0
  6  5  1  0
  7  6  1  0
  8  7  1  0
  8  9  1  1
 10  8  1  0
 10 11  2  0
 13 15  1  0
 13 12  1  6
 14 13  1  0
 16 15  1  1
 16 17  1  0
 16 18  1  0
 17 10  1  0
 18 19  2  0
 18 25  1  0
 20 21  1  0
 21 22  1  0
 22 23  1  0
 24 23  1  6
 24 26  1  0
 25 24  1  0
 26 28  2  0
 26 27  1  0
M  END
$$$$
