RLM.pdb
     RDKit          3D

 28 27  0  0  1  0  0  0  0  0999 V2000
   23.3124  -20.1314  -16.8656 N   0  0  0  0  0  0  0  0  0  0  0  0
   21.8938  -20.1363  -16.8089 C   0  0  0  0  0  0  0  0  0  0  0  0
   21.2266  -19.0350  -17.0237 N   0  0  0  0  0  0  0  0  0  0  0  0
   21.1116  -21.2846  -16.5273 N   0  0  0  0  0  0  0  0  0  0  0  0
   21.6525  -22.5552  -16.0941 C   0  0  0  0  0  0  0  0  0  0  0  0
   22.0260  -22.4400  -14.6119 C   0  0  0  0  0  0  0  0  0  0  0  0
   22.6315  -23.7384  -14.1101 C   0  0  0  0  0  0  0  0  0  0  0  0
   24.0216  -23.8147  -14.6995 C   0  0  2  0  0  0  0  0  0  0  0  0
   24.2383  -25.2316  -15.0177 N   0  0  0  0  0  0  0  0  0  0  0  0
   25.0744  -23.3350  -13.7746 C   0  0  0  0  0  0  0  0  0  0  0  0
   25.6002  -24.1532  -12.9715 O   0  0  0  0  0  0  0  0  0  0  0  0
   20.1829  -19.0270  -17.0023 C   0  0  0  0  0  0  0  0  0  0  0  0
   28.9347  -18.5998  -13.3492 C   0  0  1  0  0  0  0  0  0  0  0  0
   28.3886  -19.8047  -12.5703 C   0  0  0  0  0  0  0  0  0  0  0  0
   29.5356  -20.7194  -12.3181 C   0  0  0  0  0  0  0  0  0  0  0  0
   27.2829  -20.3826  -13.4164 C   0  0  2  0  0  0  0  0  0  0  0  0
   26.5534  -21.5260  -12.7985 N   0  0  0  0  0  0  0  0  0  0  0  0
   25.5308  -21.9954  -13.7380 C   0  0  0  0  0  0  0  0  0  0  0  0
   25.9440  -21.3225  -11.5038 O   0  0  0  0  0  0  0  0  0  0  0  0
   24.7134  -21.0554  -11.4318 C   0  0  0  0  0  0  0  0  0  0  0  0
   29.0023  -20.0482   -5.4199 S   0  0  0  0  0  0  0  0  0  0  0  0
   27.8543  -18.8421   -6.1406 C   0  0  0  0  0  0  0  0  0  0  0  0
   26.4378  -19.7257   -6.9109 C   0  0  0  0  0  0  0  0  0  0  0  0
   26.9436  -20.2611   -8.2096 C   0  0  1  0  0  0  0  0  0  0  0  0
   25.9414  -21.0741   -8.9957 N   0  0  0  0  0  0  0  0  0  0  0  0
   26.6249  -21.4000  -10.2549 C   0  0  0  0  0  0  0  0  0  0  0  0
   24.7400  -20.2748   -9.2380 O   0  0  0  0  0  0  0  0  0  0  0  0
   24.6509  -19.2079  -10.1027 O   0  0  0  0  0  0  0  0  0  0  0  0
  2  1  1  0
  3  2  2  0
  4  2  1  0
  5  4  1  0
  6  5  1  0
  7  6  1  0
  8  7  1  0
  8  9  1  1
 10  8  1  0
 10 11  2  0
 13 15  1  0
 13 12  1  1
 14 13  1  0
 16 15  1  6
 16 17  1  0
 16 18  1  0
 17 10  1  0
 18 19  2  0
 18 25  1  0
 20 21  1  0
 21 22  1  0
 22 23  1  0
 24 23  1  1
 24 26  1  0
 25 24  1  0
 26 28  2  0
 26 27  1  0
M  END
$$$$
