RLM.pdb
     RDKit          3D

 28 27  0  0  1  0  0  0  0  0999 V2000
   20.8699  -18.2899  -13.9559 N   0  0  0  0  0  0  0  0  0  0  0  0
   21.6180  -18.6981  -15.0915 C   0  0  0  0  0  0  0  0  0  0  0  0
   21.5004  -18.0515  -16.2194 N   0  0  0  0  0  0  0  0  0  0  0  0
   22.5180  -19.7933  -15.1010 N   0  0  0  0  0  0  0  0  0  0  0  0
   22.8121  -20.6190  -13.9493 C   0  0  0  0  0  0  0  0  0  0  0  0
   23.6600  -19.7979  -12.9714 C   0  0  0  0  0  0  0  0  0  0  0  0
   23.9999  -20.6170  -11.7394 C   0  0  0  0  0  0  0  0  0  0  0  0
   25.5066  -20.5950  -11.6168 C   0  0  2  0  0  0  0  0  0  0  0  0
   26.0011  -21.5001  -12.6619 N   0  0  0  0  0  0  0  0  0  0  0  0
   25.9903  -21.0396  -10.2893 C   0  0  0  0  0  0  0  0  0  0  0  0
   26.0553  -22.2755  -10.0461 O   0  0  0  0  0  0  0  0  0  0  0  0
   21.9833  -18.3856  -17.0825 C   0  0  0  0  0  0  0  0  0  0  0  0
   28.5634  -18.7728   -5.2361 C   0  0  1  0  0  0  0  0  0  0  0  0
   27.8931  -20.0366   -5.7931 C   0  0  0  0  0  0  0  0  0  0  0  0
   28.7974  -21.1803   -5.4934 C   0  0  0  0  0  0  0  0  0  0  0  0
   27.6579  -19.7732   -7.2586 C   0  0  2  0  0  0  0  0  0  0  0  0
   26.5466  -20.5589   -7.8661 N   0  0  0  0  0  0  0  0  0  0  0  0
   26.3886  -20.1481   -9.2643 C   0  0  0  0  0  0  0  0  0  0  0  0
   25.2557  -20.5225   -7.2170 O   0  0  0  0  0  0  0  0  0  0  0  0
   24.6038  -19.4430   -7.1910 C   0  0  0  0  0  0  0  0  0  0  0  0
   22.1140  -25.8272   -5.3970 S   0  0  0  0  0  0  0  0  0  0  0  0
   20.7554  -24.6965   -5.8068 C   0  0  0  0  0  0  0  0  0  0  0  0
   21.2901  -22.9617   -5.5151 C   0  0  0  0  0  0  0  0  0  0  0  0
   22.6502  -22.8430   -6.1196 C   0  0  1  0  0  0  0  0  0  0  0  0
   23.3069  -21.4931   -5.9471 N   0  0  0  0  0  0  0  0  0  0  0  0
   24.6246  -21.6309   -6.5824 C   0  0  0  0  0  0  0  0  0  0  0  0
   23.4367  -21.1865   -4.5222 O   0  0  0  0  0  0  0  0  0  0  0  0
   22.4848  -20.5615   -3.7493 O   0  0  0  0  0  0  0  0  0  0  0  0
  2  1  1  0
  3  2  2  0
  4  2  1  0
  5  4  1  0
  6  5  1  0
  7  6  1  0
  8  7  1  0
  8  9  1  6
 10  8  1  0
 10 11  2  0
 13 15  1  0
 13 12  1  1
 14 13  1  0
 16 15  1  6
 16 17  1  0
 16 18  1  0
 17 10  1  0
 18 19  2  0
 18 25  1  0
 20 21  1  0
 21 22  1  0
 22 23  1  0
 24 23  1  6
 24 26  1  0
 25 24  1  0
 26 28  2  0
 26 27  1  0
M  END
$$$$
