RLM.pdb
     RDKit          3D

 28 27  0  0  1  0  0  0  0  0999 V2000
   10.6221  -20.1733    1.0439 N   0  0  0  0  0  0  0  0  0  0  0  0
   11.5607  -20.8112    1.8971 C   0  0  0  0  0  0  0  0  0  0  0  0
   11.6646  -22.1124    1.8988 N   0  0  0  0  0  0  0  0  0  0  0  0
   12.4288  -20.1234    2.7820 N   0  0  0  0  0  0  0  0  0  0  0  0
   12.4868  -18.6834    2.9145 C   0  0  0  0  0  0  0  0  0  0  0  0
   13.5809  -18.3364    3.9304 C   0  0  0  0  0  0  0  0  0  0  0  0
   14.9520  -18.6867    3.3810 C   0  0  0  0  0  0  0  0  0  0  0  0
   15.9551  -18.2122    4.4078 C   0  0  2  0  0  0  0  0  0  0  0  0
   16.2319  -16.8101    4.0708 N   0  0  0  0  0  0  0  0  0  0  0  0
   17.2128  -18.9945    4.3994 C   0  0  0  0  0  0  0  0  0  0  0  0
   18.0211  -18.8400    3.4436 O   0  0  0  0  0  0  0  0  0  0  0  0
   12.2221  -22.6054    2.6310 C   0  0  0  0  0  0  0  0  0  0  0  0
   21.4832  -19.4979    5.5817 C   0  0  1  0  0  0  0  0  0  0  0  0
   20.4012  -19.3005    6.6527 C   0  0  0  0  0  0  0  0  0  0  0  0
   21.1018  -19.0500    7.9420 C   0  0  0  0  0  0  0  0  0  0  0  0
   19.5481  -20.5428    6.6184 C   0  0  2  0  0  0  0  0  0  0  0  0
   18.7778  -20.7395    5.3577 N   0  0  0  0  0  0  0  0  0  0  0  0
   17.5654  -19.9174    5.4133 C   0  0  0  0  0  0  0  0  0  0  0  0
   18.4142  -22.0886    4.9878 O   0  0  0  0  0  0  0  0  0  0  0  0
   17.3330  -22.5792    5.4136 C   0  0  0  0  0  0  0  0  0  0  0  0
   21.2691  -25.0755    0.3435 S   0  0  0  0  0  0  0  0  0  0  0  0
   19.9062  -26.2643    0.4893 C   0  0  0  0  0  0  0  0  0  0  0  0
   19.1291  -26.1085    2.1483 C   0  0  0  0  0  0  0  0  0  0  0  0
   19.3234  -24.6871    2.5620 C   0  0  1  0  0  0  0  0  0  0  0  0
   18.7958  -24.3472    3.9365 N   0  0  0  0  0  0  0  0  0  0  0  0
   19.1874  -22.9481    4.1554 C   0  0  0  0  0  0  0  0  0  0  0  0
   19.4074  -25.2290    4.9312 O   0  0  0  0  0  0  0  0  0  0  0  0
   20.5618  -24.9638    5.6320 O   0  0  0  0  0  0  0  0  0  0  0  0
  2  1  1  0
  3  2  2  0
  4  2  1  0
  5  4  1  0
  6  5  1  0
  7  6  1  0
  8  7  1  0
  8  9  1  6
 10  8  1  0
 10 11  2  0
 13 15  1  0
 13 12  1  6
 14 13  1  0
 16 15  1  6
 16 17  1  0
 16 18  1  0
 17 10  1  0
 18 19  2  0
 18 25  1  0
 20 21  1  0
 21 22  1  0
 22 23  1  0
 24 23  1  6
 24 26  1  0
 25 24  1  0
 26 28  2  0
 26 27  1  0
M  END
$$$$
