RLM.pdb
     RDKit          3D

 28 27  0  0  1  0  0  0  0  0999 V2000
   29.5258  -22.5011  -16.2026 N   0  0  0  0  0  0  0  0  0  0  0  0
   29.8809  -22.0922  -17.5151 C   0  0  0  0  0  0  0  0  0  0  0  0
   30.6192  -22.8656  -18.2641 N   0  0  0  0  0  0  0  0  0  0  0  0
   29.4833  -20.8646  -18.1021 N   0  0  0  0  0  0  0  0  0  0  0  0
   28.2883  -20.1340  -17.7375 C   0  0  0  0  0  0  0  0  0  0  0  0
   27.0695  -20.9780  -18.1269 C   0  0  0  0  0  0  0  0  0  0  0  0
   25.9432  -20.7847  -17.1278 C   0  0  0  0  0  0  0  0  0  0  0  0
   26.4043  -21.4256  -15.8384 C   0  0  2  0  0  0  0  0  0  0  0  0
   26.9587  -22.7300  -16.2220 N   0  0  0  0  0  0  0  0  0  0  0  0
   25.3124  -21.6073  -14.8543 C   0  0  0  0  0  0  0  0  0  0  0  0
   24.4784  -22.5365  -15.0328 O   0  0  0  0  0  0  0  0  0  0  0  0
   30.8965  -22.5739  -19.2273 C   0  0  0  0  0  0  0  0  0  0  0  0
   25.6400  -22.3145  -10.6634 C   0  0  2  0  0  0  0  0  0  0  0  0
   25.7792  -20.8017  -10.8841 C   0  0  0  0  0  0  0  0  0  0  0  0
   26.1485  -20.2001   -9.5736 C   0  0  0  0  0  0  0  0  0  0  0  0
   24.4615  -20.3396  -11.4521 C   0  0  2  0  0  0  0  0  0  0  0  0
   24.0707  -20.9878  -12.7360 N   0  0  0  0  0  0  0  0  0  0  0  0
   25.1471  -20.7890  -13.7109 C   0  0  0  0  0  0  0  0  0  0  0  0
   22.8147  -20.6005  -13.3373 O   0  0  0  0  0  0  0  0  0  0  0  0
   22.7088  -19.4658  -13.8779 C   0  0  0  0  0  0  0  0  0  0  0  0
   18.7278  -24.8348  -15.0343 S   0  0  0  0  0  0  0  0  0  0  0  0
   17.4438  -23.5529  -15.0394 C   0  0  0  0  0  0  0  0  0  0  0  0
   18.2234  -21.9009  -14.8304 C   0  0  0  0  0  0  0  0  0  0  0  0
   19.5557  -22.1507  -14.2045 C   0  0  1  0  0  0  0  0  0  0  0  0
   20.4041  -20.9169  -14.0015 N   0  0  0  0  0  0  0  0  0  0  0  0
   21.6423  -21.4085  -13.3817 C   0  0  0  0  0  0  0  0  0  0  0  0
   19.7078  -19.9794  -13.1198 O   0  0  0  0  0  0  0  0  0  0  0  0
   18.7992  -19.0277  -13.5231 O   0  0  0  0  0  0  0  0  0  0  0  0
  2  1  1  0
  3  2  2  0
  4  2  1  0
  5  4  1  0
  6  5  1  0
  7  6  1  0
  8  7  1  0
  8  9  1  6
 10  8  1  0
 10 11  2  0
 13 15  1  0
 13 12  1  6
 14 13  1  0
 16 15  1  1
 16 17  1  0
 16 18  1  0
 17 10  1  0
 18 19  2  0
 18 25  1  0
 20 21  1  0
 21 22  1  0
 22 23  1  0
 24 23  1  6
 24 26  1  0
 25 24  1  0
 26 28  2  0
 26 27  1  0
M  END
$$$$
