RLM.pdb
     RDKit          3D

 28 27  0  0  1  0  0  0  0  0999 V2000
   13.6349  -21.0118   -4.9363 N   0  0  0  0  0  0  0  0  0  0  0  0
   13.2346  -21.5287   -6.1967 C   0  0  0  0  0  0  0  0  0  0  0  0
   13.0433  -20.7210   -7.2043 N   0  0  0  0  0  0  0  0  0  0  0  0
   13.0176  -22.9044   -6.4610 N   0  0  0  0  0  0  0  0  0  0  0  0
   13.2336  -23.9649   -5.5001 C   0  0  0  0  0  0  0  0  0  0  0  0
   14.6903  -24.4286   -5.6131 C   0  0  0  0  0  0  0  0  0  0  0  0
   14.9182  -25.6829   -4.7893 C   0  0  0  0  0  0  0  0  0  0  0  0
   16.3995  -25.9761   -4.8625 C   0  0  2  0  0  0  0  0  0  0  0  0
   16.6094  -26.6274   -6.1616 N   0  0  0  0  0  0  0  0  0  0  0  0
   16.8745  -26.8566   -3.7702 C   0  0  0  0  0  0  0  0  0  0  0  0
   16.5872  -28.0842   -3.8074 O   0  0  0  0  0  0  0  0  0  0  0  0
   12.6907  -21.0787   -8.1194 C   0  0  0  0  0  0  0  0  0  0  0  0
   20.0197  -29.2318   -2.5770 C   0  0  2  0  0  0  0  0  0  0  0  0
   20.3328  -27.7294   -2.5378 C   0  0  0  0  0  0  0  0  0  0  0  0
   21.8084  -27.5931   -2.3976 C   0  0  0  0  0  0  0  0  0  0  0  0
   19.5264  -27.1645   -1.3963 C   0  0  2  0  0  0  0  0  0  0  0  0
   18.0487  -27.2632   -1.5638 N   0  0  0  0  0  0  0  0  0  0  0  0
   17.6413  -26.3959   -2.6730 C   0  0  0  0  0  0  0  0  0  0  0  0
   17.2152  -26.9821   -0.4169 O   0  0  0  0  0  0  0  0  0  0  0  0
   17.0430  -25.7869   -0.0524 C   0  0  0  0  0  0  0  0  0  0  0  0
   11.8950  -29.7725    2.9300 S   0  0  0  0  0  0  0  0  0  0  0  0
   12.6232  -30.0521    1.2919 C   0  0  0  0  0  0  0  0  0  0  0  0
   13.7158  -28.6392    0.8554 C   0  0  0  0  0  0  0  0  0  0  0  0
   14.8352  -28.6642    1.8430 C   0  0  2  0  0  0  0  0  0  0  0  0
   15.8901  -27.6024    1.6353 N   0  0  0  0  0  0  0  0  0  0  0  0
   16.5426  -27.9617    0.3689 C   0  0  0  0  0  0  0  0  0  0  0  0
   16.8419  -27.6291    2.7464 O   0  0  0  0  0  0  0  0  0  0  0  0
   16.6097  -27.1349    4.0097 O   0  0  0  0  0  0  0  0  0  0  0  0
  2  1  1  0
  3  2  2  0
  4  2  1  0
  5  4  1  0
  6  5  1  0
  7  6  1  0
  8  7  1  0
  8  9  1  6
 10  8  1  0
 10 11  2  0
 13 15  1  0
 13 12  1  6
 14 13  1  0
 16 15  1  6
 16 17  1  0
 16 18  1  0
 17 10  1  0
 18 19  2  0
 18 25  1  0
 20 21  1  0
 21 22  1  0
 22 23  1  0
 24 23  1  6
 24 26  1  0
 25 24  1  0
 26 28  2  0
 26 27  1  0
M  END
$$$$
