RLM.pdb
     RDKit          3D

 28 27  0  0  1  0  0  0  0  0999 V2000
   19.9214  -24.4728  -17.0976 N   0  0  0  0  0  0  0  0  0  0  0  0
   20.2788  -25.8446  -17.1766 C   0  0  0  0  0  0  0  0  0  0  0  0
   19.7110  -26.6188  -18.0611 N   0  0  0  0  0  0  0  0  0  0  0  0
   21.2403  -26.4668  -16.3410 N   0  0  0  0  0  0  0  0  0  0  0  0
   21.9449  -25.7983  -15.2681 C   0  0  0  0  0  0  0  0  0  0  0  0
   23.1599  -25.0785  -15.8641 C   0  0  0  0  0  0  0  0  0  0  0  0
   24.0113  -24.4668  -14.7664 C   0  0  0  0  0  0  0  0  0  0  0  0
   25.0663  -23.6354  -15.4603 C   0  0  2  0  0  0  0  0  0  0  0  0
   25.9785  -24.5993  -16.0886 N   0  0  0  0  0  0  0  0  0  0  0  0
   25.8163  -22.7546  -14.5353 C   0  0  0  0  0  0  0  0  0  0  0  0
   26.7760  -23.2388  -13.8754 O   0  0  0  0  0  0  0  0  0  0  0  0
   19.9799  -27.6240  -18.1460 C   0  0  0  0  0  0  0  0  0  0  0  0
   28.3263  -19.1645  -14.8102 C   0  0  2  0  0  0  0  0  0  0  0  0
   26.8458  -18.8485  -15.0652 C   0  0  0  0  0  0  0  0  0  0  0  0
   26.7733  -17.4365  -15.5307 C   0  0  0  0  0  0  0  0  0  0  0  0
   26.1289  -19.1333  -13.7700 C   0  0  2  0  0  0  0  0  0  0  0  0
   26.1722  -20.5564  -13.3296 N   0  0  0  0  0  0  0  0  0  0  0  0
   25.5157  -21.3843  -14.3456 C   0  0  0  0  0  0  0  0  0  0  0  0
   25.6247  -20.8825  -12.0323 O   0  0  0  0  0  0  0  0  0  0  0  0
   24.4828  -21.4128  -11.9556 C   0  0  0  0  0  0  0  0  0  0  0  0
   27.8315  -18.0550   -6.7276 S   0  0  0  0  0  0  0  0  0  0  0  0
   27.2219  -19.5979   -5.9929 C   0  0  0  0  0  0  0  0  0  0  0  0
   25.9227  -20.3223   -7.0737 C   0  0  0  0  0  0  0  0  0  0  0  0
   26.4724  -20.2826   -8.4613 C   0  0  1  0  0  0  0  0  0  0  0  0
   25.5918  -20.9174   -9.5123 N   0  0  0  0  0  0  0  0  0  0  0  0
   26.2764  -20.6563  -10.7859 C   0  0  0  0  0  0  0  0  0  0  0  0
   24.2675  -20.2956   -9.4871 O   0  0  0  0  0  0  0  0  0  0  0  0
   23.8487  -19.2737  -10.3082 O   0  0  0  0  0  0  0  0  0  0  0  0
  2  1  1  0
  3  2  2  0
  4  2  1  0
  5  4  1  0
  6  5  1  0
  7  6  1  0
  8  7  1  0
  8  9  1  1
 10  8  1  0
 10 11  2  0
 13 15  1  0
 13 12  1  6
 14 13  1  0
 16 15  1  6
 16 17  1  0
 16 18  1  0
 17 10  1  0
 18 19  2  0
 18 25  1  0
 20 21  1  0
 21 22  1  0
 22 23  1  0
 24 23  1  1
 24 26  1  0
 25 24  1  0
 26 28  2  0
 26 27  1  0
M  END
$$$$
