RLM.pdb
     RDKit          3D

 28 27  0  0  1  0  0  0  0  0999 V2000
   20.0203  -21.9345  -12.9511 N   0  0  0  0  0  0  0  0  0  0  0  0
   19.5033  -22.3615  -14.2026 C   0  0  0  0  0  0  0  0  0  0  0  0
   18.2472  -22.7001  -14.3105 N   0  0  0  0  0  0  0  0  0  0  0  0
   20.2697  -22.4534  -15.3916 N   0  0  0  0  0  0  0  0  0  0  0  0
   21.7095  -22.3177  -15.4480 C   0  0  0  0  0  0  0  0  0  0  0  0
   22.3287  -23.7185  -15.3857 C   0  0  0  0  0  0  0  0  0  0  0  0
   23.4935  -23.7460  -14.4127 C   0  0  0  0  0  0  0  0  0  0  0  0
   24.6409  -23.0447  -15.1036 C   0  0  2  0  0  0  0  0  0  0  0  0
   25.3185  -24.0804  -15.8936 N   0  0  0  0  0  0  0  0  0  0  0  0
   25.5959  -22.4198  -14.1594 C   0  0  0  0  0  0  0  0  0  0  0  0
   26.5339  -23.1191  -13.6882 O   0  0  0  0  0  0  0  0  0  0  0  0
   17.8441  -22.9803  -15.2318 C   0  0  0  0  0  0  0  0  0  0  0  0
   28.4124  -19.2514  -14.5031 C   0  0  2  0  0  0  0  0  0  0  0  0
   26.9922  -18.6858  -14.3627 C   0  0  0  0  0  0  0  0  0  0  0  0
   27.0707  -17.2280  -14.6533 C   0  0  0  0  0  0  0  0  0  0  0  0
   26.5387  -19.0372  -12.9686 C   0  0  2  0  0  0  0  0  0  0  0  0
   26.3795  -20.4964  -12.7106 N   0  0  0  0  0  0  0  0  0  0  0  0
   25.5169  -21.0671  -13.7493 C   0  0  0  0  0  0  0  0  0  0  0  0
   25.8889  -20.9071  -11.4145 O   0  0  0  0  0  0  0  0  0  0  0  0
   24.7024  -21.3200  -11.3019 C   0  0  0  0  0  0  0  0  0  0  0  0
   28.7449  -18.7949   -6.3506 S   0  0  0  0  0  0  0  0  0  0  0  0
   27.8832  -20.1001   -5.4307 C   0  0  0  0  0  0  0  0  0  0  0  0
   26.5290  -20.7900   -6.4654 C   0  0  0  0  0  0  0  0  0  0  0  0
   26.9704  -20.6281   -7.8825 C   0  0  1  0  0  0  0  0  0  0  0  0
   26.0174  -21.1877   -8.9131 N   0  0  0  0  0  0  0  0  0  0  0  0
   26.6459  -20.8918  -10.2078 C   0  0  0  0  0  0  0  0  0  0  0  0
   24.7177  -20.5262   -8.7931 O   0  0  0  0  0  0  0  0  0  0  0  0
   23.6598  -20.9744   -8.0357 O   0  0  0  0  0  0  0  0  0  0  0  0
  2  1  1  0
  3  2  2  0
  4  2  1  0
  5  4  1  0
  6  5  1  0
  7  6  1  0
  8  7  1  0
  8  9  1  1
 10  8  1  0
 10 11  2  0
 13 15  1  0
 13 12  1  6
 14 13  1  0
 16 15  1  6
 16 17  1  0
 16 18  1  0
 17 10  1  0
 18 19  2  0
 18 25  1  0
 20 21  1  0
 21 22  1  0
 22 23  1  0
 24 23  1  1
 24 26  1  0
 25 24  1  0
 26 28  2  0
 26 27  1  0
M  END
$$$$
