RLM.pdb
     RDKit          3D

 28 27  0  0  1  0  0  0  0  0999 V2000
   22.1607  -18.4711  -16.5307 N   0  0  0  0  0  0  0  0  0  0  0  0
   23.0763  -17.9783  -17.4975 C   0  0  0  0  0  0  0  0  0  0  0  0
   22.6398  -17.5296  -18.6430 N   0  0  0  0  0  0  0  0  0  0  0  0
   24.4811  -17.9314  -17.3132 N   0  0  0  0  0  0  0  0  0  0  0  0
   25.4472  -17.9473  -18.3907 C   0  0  0  0  0  0  0  0  0  0  0  0
   26.5894  -18.8920  -18.0002 C   0  0  0  0  0  0  0  0  0  0  0  0
   26.2825  -19.5888  -16.6871 C   0  0  0  0  0  0  0  0  0  0  0  0
   27.5189  -20.3810  -16.3273 C   0  0  2  0  0  0  0  0  0  0  0  0
   27.5820  -21.4783  -17.3008 N   0  0  0  0  0  0  0  0  0  0  0  0
   27.4826  -20.9251  -14.9501 C   0  0  0  0  0  0  0  0  0  0  0  0
   26.7280  -21.9045  -14.7007 O   0  0  0  0  0  0  0  0  0  0  0  0
   23.3031  -17.1937  -19.3758 C   0  0  0  0  0  0  0  0  0  0  0  0
   31.5062  -21.0327  -10.8459 C   0  0  1  0  0  0  0  0  0  0  0  0
   30.2745  -21.6246  -11.5454 C   0  0  0  0  0  0  0  0  0  0  0  0
   30.7487  -22.2560  -12.8072 C   0  0  0  0  0  0  0  0  0  0  0  0
   29.3073  -20.4824  -11.7252 C   0  0  2  0  0  0  0  0  0  0  0  0
   28.0736  -20.8204  -12.4899 N   0  0  0  0  0  0  0  0  0  0  0  0
   28.2543  -20.4041  -13.8837 C   0  0  0  0  0  0  0  0  0  0  0  0
   26.8125  -20.3063  -12.0057 O   0  0  0  0  0  0  0  0  0  0  0  0
   26.3462  -19.2419  -12.4965 C   0  0  0  0  0  0  0  0  0  0  0  0
   22.2865  -20.6324  -14.4750 S   0  0  0  0  0  0  0  0  0  0  0  0
   21.4257  -21.1328  -12.9582 C   0  0  0  0  0  0  0  0  0  0  0  0
   22.3296  -20.4824  -11.4951 C   0  0  0  0  0  0  0  0  0  0  0  0
   23.7646  -20.8357  -11.7075 C   0  0  1  0  0  0  0  0  0  0  0  0
   24.7042  -20.3563  -10.6255 N   0  0  0  0  0  0  0  0  0  0  0  0
   26.0149  -20.9102  -10.9916 C   0  0  0  0  0  0  0  0  0  0  0  0
   24.2602  -20.8634   -9.3268 O   0  0  0  0  0  0  0  0  0  0  0  0
   23.1769  -20.3998   -8.6157 O   0  0  0  0  0  0  0  0  0  0  0  0
  2  1  1  0
  3  2  2  0
  4  2  1  0
  5  4  1  0
  6  5  1  0
  7  6  1  0
  8  7  1  0
  8  9  1  6
 10  8  1  0
 10 11  2  0
 13 15  1  0
 13 12  1  1
 14 13  1  0
 16 15  1  6
 16 17  1  0
 16 18  1  0
 17 10  1  0
 18 19  2  0
 18 25  1  0
 20 21  1  0
 21 22  1  0
 22 23  1  0
 24 23  1  6
 24 26  1  0
 25 24  1  0
 26 28  2  0
 26 27  1  0
M  END
$$$$
