HAV.pdb
     RDKit          3D

 23 23  0  0  1  0  0  0  0  0999 V2000
   11.0498  -16.3458   20.1083 N   0  0  0  0  0  0  0  0  0  0  0  0
   10.7623  -17.2808   21.1559 C   0  0  1  0  0  0  0  0  0  0  0  0
   12.0274  -17.9588   21.5624 C   0  0  0  0  0  0  0  0  0  0  0  0
   12.3397  -19.0296   20.5785 C   0  0  0  0  0  0  0  0  0  0  0  0
   11.5778  -19.4777   19.5087 C   0  0  0  0  0  0  0  0  0  0  0  0
   12.2036  -20.4610   18.8553 N   0  0  0  0  0  0  0  0  0  0  0  0
   13.3776  -20.6601   19.4953 C   0  0  0  0  0  0  0  0  0  0  0  0
   13.4645  -19.8020   20.5322 N   0  0  0  0  0  0  0  0  0  0  0  0
   10.1070  -16.6317   22.3264 C   0  0  0  0  0  0  0  0  0  0  0  0
   10.2312  -15.4058   22.5713 O   0  0  0  0  0  0  0  0  0  0  0  0
    7.3495  -17.6159   24.6719 C   0  0  0  0  0  0  0  0  0  0  0  0
    8.6159  -16.8736   24.3425 C   0  0  2  0  0  0  0  0  0  0  0  0
    9.3134  -17.3863   23.2106 N   0  0  0  0  0  0  0  0  0  0  0  0
    9.5168  -16.7438   25.5043 C   0  0  0  0  0  0  0  0  0  0  0  0
   10.6029  -17.3667   25.4945 O   0  0  0  0  0  0  0  0  0  0  0  0
    9.8421  -13.3512   27.5932 C   0  0  0  0  0  0  0  0  0  0  0  0
    9.7686  -14.5769   28.5016 C   0  0  2  0  0  0  0  0  0  0  0  0
   10.6341  -14.4093   29.7073 C   0  0  0  0  0  0  0  0  0  0  0  0
   10.1404  -15.8315   27.7176 C   0  0  2  0  0  0  0  0  0  0  0  0
    9.2038  -15.9434   26.6306 N   0  0  0  0  0  0  0  0  0  0  0  0
   10.0425  -17.0346   28.5641 C   0  0  0  0  0  0  0  0  0  0  0  0
   11.0925  -17.4244   29.3833 O   0  0  0  0  0  0  0  0  0  0  0  0
    9.0064  -17.7392   28.5667 O   0  0  0  0  0  0  0  0  0  0  0  0
  2  1  1  6
  2  9  1  0
  2  3  1  0
  3  4  1  0
  4  5  2  0
  6  5  1  0
  7  6  1  0
  8  7  2  0
  8  4  1  0
  9 13  1  0
 10  9  2  0
 12 11  1  1
 12 14  1  0
 13 12  1  0
 14 15  2  0
 14 20  1  0
 17 16  1  6
 18 17  1  0
 19 21  1  0
 19 17  1  0
 19 20  1  6
 21 22  1  0
 23 21  2  0
M  END
$$$$
