HAV.pdb
     RDKit          3D

 23 23  0  0  1  0  0  0  0  0999 V2000
   10.3321  -16.9196   20.3601 N   0  0  0  0  0  0  0  0  0  0  0  0
   10.3340  -17.7919   21.4974 C   0  0  1  0  0  0  0  0  0  0  0  0
   11.6959  -18.3797   21.6564 C   0  0  0  0  0  0  0  0  0  0  0  0
   11.7617  -19.6585   20.8998 C   0  0  0  0  0  0  0  0  0  0  0  0
   10.7860  -20.6344   20.7534 C   0  0  0  0  0  0  0  0  0  0  0  0
   11.2276  -21.6413   19.9940 N   0  0  0  0  0  0  0  0  0  0  0  0
   12.4942  -21.3278   19.6405 C   0  0  0  0  0  0  0  0  0  0  0  0
   12.8204  -20.1366   20.1825 N   0  0  0  0  0  0  0  0  0  0  0  0
    9.9072  -17.0943   22.7432 C   0  0  0  0  0  0  0  0  0  0  0  0
   10.2547  -15.9160   23.0061 O   0  0  0  0  0  0  0  0  0  0  0  0
    7.2325  -17.8254   25.2958 C   0  0  0  0  0  0  0  0  0  0  0  0
    8.4841  -17.1383   24.8216 C   0  0  2  0  0  0  0  0  0  0  0  0
    9.0858  -17.7463   23.6819 N   0  0  0  0  0  0  0  0  0  0  0  0
    9.4714  -16.9473   25.9018 C   0  0  0  0  0  0  0  0  0  0  0  0
   10.5345  -17.6078   25.8674 O   0  0  0  0  0  0  0  0  0  0  0  0
    8.6558  -14.6616   29.4110 C   0  0  0  0  0  0  0  0  0  0  0  0
    9.9839  -14.5279   28.6687 C   0  0  2  0  0  0  0  0  0  0  0  0
    9.9635  -13.3677   27.7282 C   0  0  0  0  0  0  0  0  0  0  0  0
   10.3103  -15.8291   27.9429 C   0  0  2  0  0  0  0  0  0  0  0  0
    9.2663  -16.0473   26.9766 N   0  0  0  0  0  0  0  0  0  0  0  0
   10.3439  -16.9660   28.8811 C   0  0  0  0  0  0  0  0  0  0  0  0
    9.3505  -17.9349   28.8720 O   0  0  0  0  0  0  0  0  0  0  0  0
   11.2721  -17.0884   29.7137 O   0  0  0  0  0  0  0  0  0  0  0  0
  2  1  1  6
  2  9  1  0
  2  3  1  0
  3  4  1  0
  4  5  2  0
  6  5  1  0
  7  6  1  0
  8  7  2  0
  8  4  1  0
  9 13  1  0
 10  9  2  0
 12 11  1  1
 12 14  1  0
 13 12  1  0
 14 15  2  0
 14 20  1  0
 17 16  1  6
 18 17  1  0
 19 21  1  0
 19 17  1  0
 19 20  1  6
 21 22  1  0
 23 21  2  0
M  END
$$$$
