HAV.pdb
     RDKit          3D

 23 23  0  0  1  0  0  0  0  0999 V2000
    6.7767  -16.5246   20.5032 N   0  0  0  0  0  0  0  0  0  0  0  0
    7.7621  -15.7008   21.1394 C   0  0  1  0  0  0  0  0  0  0  0  0
    7.4810  -14.2714   20.8180 C   0  0  0  0  0  0  0  0  0  0  0  0
    7.7052  -14.0496   19.3645 C   0  0  0  0  0  0  0  0  0  0  0  0
    8.2345  -14.9206   18.4227 C   0  0  0  0  0  0  0  0  0  0  0  0
    8.2749  -14.3508   17.2147 N   0  0  0  0  0  0  0  0  0  0  0  0
    7.7721  -13.1046   17.3617 C   0  0  0  0  0  0  0  0  0  0  0  0
    7.4280  -12.9183   18.6524 N   0  0  0  0  0  0  0  0  0  0  0  0
    7.8093  -15.9151   22.6134 C   0  0  0  0  0  0  0  0  0  0  0  0
    6.9679  -15.4039   23.3938 O   0  0  0  0  0  0  0  0  0  0  0  0
    9.3503  -18.5039   24.7850 C   0  0  0  0  0  0  0  0  0  0  0  0
    8.8965  -17.0872   24.5604 C   0  0  2  0  0  0  0  0  0  0  0  0
    8.8171  -16.7121   23.1879 N   0  0  0  0  0  0  0  0  0  0  0  0
    9.6879  -16.1083   25.3309 C   0  0  0  0  0  0  0  0  0  0  0  0
   10.7218  -15.6298   24.8113 O   0  0  0  0  0  0  0  0  0  0  0  0
    8.0900  -13.9754   28.5398 C   0  0  0  0  0  0  0  0  0  0  0  0
    9.2632  -13.5378   27.6653 C   0  0  2  0  0  0  0  0  0  0  0  0
    8.7880  -12.8544   26.4251 C   0  0  0  0  0  0  0  0  0  0  0  0
   10.1471  -14.7371   27.3381 C   0  0  2  0  0  0  0  0  0  0  0  0
    9.3265  -15.6872   26.6344 N   0  0  0  0  0  0  0  0  0  0  0  0
   10.6655  -15.3652   28.5671 C   0  0  0  0  0  0  0  0  0  0  0  0
   11.6112  -14.7265   29.3568 O   0  0  0  0  0  0  0  0  0  0  0  0
   10.2656  -16.4949   28.9327 O   0  0  0  0  0  0  0  0  0  0  0  0
  2  1  1  1
  2  9  1  0
  2  3  1  0
  3  4  1  0
  4  5  2  0
  6  5  1  0
  7  6  1  0
  8  7  2  0
  8  4  1  0
  9 13  1  0
 10  9  2  0
 12 11  1  6
 12 14  1  0
 13 12  1  0
 14 15  2  0
 14 20  1  0
 17 16  1  6
 18 17  1  0
 19 21  1  0
 19 17  1  0
 19 20  1  1
 21 22  1  0
 23 21  2  0
M  END
$$$$
