HAV.pdb
     RDKit          3D

 23 23  0  0  1  0  0  0  0  0999 V2000
    8.6188  -16.1973   19.8684 N   0  0  0  0  0  0  0  0  0  0  0  0
    8.2862  -14.9792   20.5465 C   0  0  1  0  0  0  0  0  0  0  0  0
    7.1525  -14.3210   19.8345 C   0  0  0  0  0  0  0  0  0  0  0  0
    7.4893  -14.2075   18.3903 C   0  0  0  0  0  0  0  0  0  0  0  0
    8.2880  -13.2677   17.7541 C   0  0  0  0  0  0  0  0  0  0  0  0
    8.3474  -13.5024   16.4400 N   0  0  0  0  0  0  0  0  0  0  0  0
    7.5875  -14.5969   16.2113 C   0  0  0  0  0  0  0  0  0  0  0  0
    7.0693  -15.0249   17.3807 N   0  0  0  0  0  0  0  0  0  0  0  0
    7.9534  -15.2058   21.9813 C   0  0  0  0  0  0  0  0  0  0  0  0
    7.0503  -14.5617   22.5712 O   0  0  0  0  0  0  0  0  0  0  0  0
    8.7957  -17.9128   24.4595 C   0  0  0  0  0  0  0  0  0  0  0  0
    8.3875  -16.5125   24.0909 C   0  0  2  0  0  0  0  0  0  0  0  0
    8.6536  -16.1667   22.7344 N   0  0  0  0  0  0  0  0  0  0  0  0
    8.9375  -15.4993   25.0124 C   0  0  0  0  0  0  0  0  0  0  0  0
   10.0950  -15.0675   24.8085 O   0  0  0  0  0  0  0  0  0  0  0  0
    6.4521  -13.5297   27.7903 C   0  0  0  0  0  0  0  0  0  0  0  0
    7.6616  -12.8949   27.1070 C   0  0  2  0  0  0  0  0  0  0  0  0
    7.2798  -12.2642   25.8080 C   0  0  0  0  0  0  0  0  0  0  0  0
    8.7619  -13.9347   26.9206 C   0  0  2  0  0  0  0  0  0  0  0  0
    8.2101  -14.9946   26.1185 N   0  0  0  0  0  0  0  0  0  0  0  0
    9.1952  -14.4870   28.2171 C   0  0  0  0  0  0  0  0  0  0  0  0
    9.9218  -13.7212   29.1178 O   0  0  0  0  0  0  0  0  0  0  0  0
    8.9186  -15.6652   28.5416 O   0  0  0  0  0  0  0  0  0  0  0  0
  2  1  1  6
  2  9  1  0
  2  3  1  0
  3  4  1  0
  4  5  2  0
  6  5  1  0
  7  6  1  0
  8  7  2  0
  8  4  1  0
  9 13  1  0
 10  9  2  0
 12 11  1  1
 12 14  1  0
 13 12  1  0
 14 15  2  0
 14 20  1  0
 17 16  1  6
 18 17  1  0
 19 21  1  0
 19 17  1  0
 19 20  1  6
 21 22  1  0
 23 21  2  0
M  END
$$$$
