HAV.pdb
     RDKit          3D

 23 23  0  0  1  0  0  0  0  0999 V2000
   12.1187  -17.1149   20.6966 N   0  0  0  0  0  0  0  0  0  0  0  0
   11.0357  -17.6353   21.4778 C   0  0  1  0  0  0  0  0  0  0  0  0
   11.3774  -19.0180   21.9215 C   0  0  0  0  0  0  0  0  0  0  0  0
   10.7942  -19.9920   20.9606 C   0  0  0  0  0  0  0  0  0  0  0  0
   10.0053  -19.7483   19.8452 C   0  0  0  0  0  0  0  0  0  0  0  0
    9.6767  -20.8901   19.2338 N   0  0  0  0  0  0  0  0  0  0  0  0
   10.2496  -21.8854   19.9469 C   0  0  0  0  0  0  0  0  0  0  0  0
   10.9228  -21.3509   20.9863 N   0  0  0  0  0  0  0  0  0  0  0  0
   10.7145  -16.7664   22.6452 C   0  0  0  0  0  0  0  0  0  0  0  0
   11.5638  -16.0018   23.1672 O   0  0  0  0  0  0  0  0  0  0  0  0
    7.4865  -15.8890   24.4347 C   0  0  0  0  0  0  0  0  0  0  0  0
    8.9819  -15.9437   24.2784 C   0  0  2  0  0  0  0  0  0  0  0  0
    9.4254  -16.7756   23.2099 N   0  0  0  0  0  0  0  0  0  0  0  0
    9.6724  -16.2865   25.5369 C   0  0  0  0  0  0  0  0  0  0  0  0
   10.2465  -17.3958   25.6239 O   0  0  0  0  0  0  0  0  0  0  0  0
    9.0054  -14.3937   29.2805 C   0  0  0  0  0  0  0  0  0  0  0  0
   10.4315  -14.5668   28.7618 C   0  0  2  0  0  0  0  0  0  0  0  0
   10.9273  -13.3153   28.1146 C   0  0  0  0  0  0  0  0  0  0  0  0
   10.4998  -15.7541   27.8067 C   0  0  2  0  0  0  0  0  0  0  0  0
    9.7128  -15.4125   26.6512 N   0  0  0  0  0  0  0  0  0  0  0  0
    9.9408  -16.9683   28.4287 C   0  0  0  0  0  0  0  0  0  0  0  0
   10.6463  -17.6705   29.3957 O   0  0  0  0  0  0  0  0  0  0  0  0
    8.8113  -17.4001   28.1005 O   0  0  0  0  0  0  0  0  0  0  0  0
  2  1  1  1
  2  9  1  0
  2  3  1  0
  3  4  1  0
  4  5  2  0
  6  5  1  0
  7  6  1  0
  8  7  2  0
  8  4  1  0
  9 13  1  0
 10  9  2  0
 12 11  1  1
 12 14  1  0
 13 12  1  0
 14 15  2  0
 14 20  1  0
 17 16  1  6
 18 17  1  0
 19 21  1  0
 19 17  1  0
 19 20  1  6
 21 22  1  0
 23 21  2  0
M  END
$$$$
