HAV.pdb
     RDKit          3D

 23 23  0  0  1  0  0  0  0  0999 V2000
    7.4934  -16.8002   19.7079 N   0  0  0  0  0  0  0  0  0  0  0  0
    7.5123  -15.5414   20.3928 C   0  0  1  0  0  0  0  0  0  0  0  0
    6.6773  -14.5640   19.6359 C   0  0  0  0  0  0  0  0  0  0  0  0
    7.2933  -14.3331   18.3019 C   0  0  0  0  0  0  0  0  0  0  0  0
    8.4990  -14.8085   17.8060 C   0  0  0  0  0  0  0  0  0  0  0  0
    8.7045  -14.3792   16.5574 N   0  0  0  0  0  0  0  0  0  0  0  0
    7.6337  -13.6211   16.2316 C   0  0  0  0  0  0  0  0  0  0  0  0
    6.7821  -13.5900   17.2770 N   0  0  0  0  0  0  0  0  0  0  0  0
    7.0451  -15.6600   21.8030 C   0  0  0  0  0  0  0  0  0  0  0  0
    5.9401  -15.2007   22.1854 O   0  0  0  0  0  0  0  0  0  0  0  0
    7.3071  -17.8814   24.5756 C   0  0  0  0  0  0  0  0  0  0  0  0
    7.5152  -16.4544   24.1470 C   0  0  2  0  0  0  0  0  0  0  0  0
    7.8425  -16.3025   22.7685 N   0  0  0  0  0  0  0  0  0  0  0  0
    8.4830  -15.7398   25.0019 C   0  0  0  0  0  0  0  0  0  0  0  0
    9.6945  -15.7635   24.6868 O   0  0  0  0  0  0  0  0  0  0  0  0
    7.2243  -13.0764   28.0277 C   0  0  0  0  0  0  0  0  0  0  0  0
    8.5441  -12.9611   27.2676 C   0  0  2  0  0  0  0  0  0  0  0  0
    8.3839  -12.1461   26.0262 C   0  0  0  0  0  0  0  0  0  0  0  0
    9.0911  -14.3506   26.9564 C   0  0  2  0  0  0  0  0  0  0  0  0
    8.0983  -15.0280   26.1649 N   0  0  0  0  0  0  0  0  0  0  0  0
    9.3267  -15.1173   28.1935 C   0  0  0  0  0  0  0  0  0  0  0  0
   10.3829  -14.8100   29.0395 O   0  0  0  0  0  0  0  0  0  0  0  0
    8.5782  -16.0692   28.5152 O   0  0  0  0  0  0  0  0  0  0  0  0
  2  1  1  6
  2  9  1  0
  2  3  1  0
  3  4  1  0
  4  5  2  0
  6  5  1  0
  7  6  1  0
  8  7  2  0
  8  4  1  0
  9 13  1  0
 10  9  2  0
 12 11  1  1
 12 14  1  0
 13 12  1  0
 14 15  2  0
 14 20  1  0
 17 16  1  6
 18 17  1  0
 19 21  1  0
 19 17  1  0
 19 20  1  6
 21 22  1  0
 23 21  2  0
M  END
$$$$
