HAV.pdb
     RDKit          3D

 23 23  0  0  1  0  0  0  0  0999 V2000
    8.7378  -15.9376   20.1066 N   0  0  0  0  0  0  0  0  0  0  0  0
    8.1437  -14.7345   20.6103 C   0  0  1  0  0  0  0  0  0  0  0  0
    7.0347  -14.3229   19.7013 C   0  0  0  0  0  0  0  0  0  0  0  0
    7.5688  -14.1815   18.3204 C   0  0  0  0  0  0  0  0  0  0  0  0
    8.3677  -13.1758   17.7950 C   0  0  0  0  0  0  0  0  0  0  0  0
    8.6396  -13.4055   16.5070 N   0  0  0  0  0  0  0  0  0  0  0  0
    8.0194  -14.5627   16.1848 C   0  0  0  0  0  0  0  0  0  0  0  0
    7.3741  -15.0336   17.2716 N   0  0  0  0  0  0  0  0  0  0  0  0
    7.6544  -14.8905   22.0092 C   0  0  0  0  0  0  0  0  0  0  0  0
    7.0540  -13.9697   22.6175 O   0  0  0  0  0  0  0  0  0  0  0  0
    7.5493  -17.7937   24.4592 C   0  0  0  0  0  0  0  0  0  0  0  0
    7.4821  -16.3450   24.0590 C   0  0  2  0  0  0  0  0  0  0  0  0
    7.8535  -16.0972   22.7057 N   0  0  0  0  0  0  0  0  0  0  0  0
    8.2271  -15.4658   24.9810 C   0  0  0  0  0  0  0  0  0  0  0  0
    9.4526  -15.2952   24.7894 O   0  0  0  0  0  0  0  0  0  0  0  0
    6.2504  -13.1058   27.8939 C   0  0  0  0  0  0  0  0  0  0  0  0
    7.5683  -12.7188   27.2260 C   0  0  2  0  0  0  0  0  0  0  0  0
    7.3321  -11.9253   25.9828 C   0  0  0  0  0  0  0  0  0  0  0  0
    8.3970  -13.9675   26.9422 C   0  0  2  0  0  0  0  0  0  0  0  0
    7.6132  -14.8065   26.0744 N   0  0  0  0  0  0  0  0  0  0  0  0
    8.6919  -14.7026   28.1858 C   0  0  0  0  0  0  0  0  0  0  0  0
    9.5786  -14.1974   29.1262 O   0  0  0  0  0  0  0  0  0  0  0  0
    8.1489  -15.8055   28.4278 O   0  0  0  0  0  0  0  0  0  0  0  0
  2  1  1  6
  2  9  1  0
  2  3  1  0
  3  4  1  0
  4  5  2  0
  6  5  1  0
  7  6  1  0
  8  7  2  0
  8  4  1  0
  9 13  1  0
 10  9  2  0
 12 11  1  1
 12 14  1  0
 13 12  1  0
 14 15  2  0
 14 20  1  0
 17 16  1  6
 18 17  1  0
 19 21  1  0
 19 17  1  0
 19 20  1  6
 21 22  1  0
 23 21  2  0
M  END
$$$$
