YGT.pdb
     RDKit          3D

 24 24  0  0  1  0  0  0  0  0999 V2000
   27.5063  -19.2037   -4.1843 O   0  0  0  0  0  0  0  0  0  0  0  0
   27.4766  -19.5499   -5.5395 C   0  0  0  0  0  0  0  0  0  0  0  0
   26.8097  -20.6631   -5.9907 C   0  0  0  0  0  0  0  0  0  0  0  0
   26.7978  -20.9817   -7.3426 C   0  0  0  0  0  0  0  0  0  0  0  0
   27.4517  -20.1976   -8.2835 C   0  0  0  0  0  0  0  0  0  0  0  0
   27.4008  -20.5847   -9.6748 C   0  0  0  0  0  0  0  0  0  0  0  0
   26.2908  -20.0576  -10.5182 C   0  0  2  0  0  0  0  0  0  0  0  0
   25.1466  -20.9502  -10.2224 N   0  0  0  0  0  0  0  0  0  0  0  0
   26.5336  -20.1939  -11.9744 C   0  0  0  0  0  0  0  0  0  0  0  0
   26.3357  -21.2894  -12.5912 O   0  0  0  0  0  0  0  0  0  0  0  0
   28.1154  -19.0820   -7.7987 C   0  0  0  0  0  0  0  0  0  0  0  0
   28.1322  -18.7580   -6.4564 C   0  0  0  0  0  0  0  0  0  0  0  0
   27.0020  -19.1083  -12.7776 N   0  0  0  0  0  0  0  0  0  0  0  0
   26.9360  -19.0436  -14.1953 C   0  0  0  0  0  0  0  0  0  0  0  0
   25.7314  -19.5757  -14.8242 C   0  0  0  0  0  0  0  0  0  0  0  0
   25.7966  -19.8618  -16.0710 O   0  0  0  0  0  0  0  0  0  0  0  0
   24.0870  -22.6380  -14.7300 C   0  0  0  0  0  0  0  0  0  0  0  0
   23.0007  -21.6577  -14.4436 C   0  0  1  0  0  0  0  0  0  0  0  0
   22.8244  -21.6000  -13.0474 O   0  0  0  0  0  0  0  0  0  0  0  0
   23.2965  -20.2632  -14.9600 C   0  0  2  0  0  0  0  0  0  0  0  0
   24.4833  -19.8181  -14.2276 N   0  0  0  0  0  0  0  0  0  0  0  0
   22.1528  -19.3762  -14.7308 C   0  0  0  0  0  0  0  0  0  0  0  0
   22.2322  -18.4204  -13.9240 O   0  0  0  0  0  0  0  0  0  0  0  0
   20.9600  -19.5737  -15.3996 O   0  0  0  0  0  0  0  0  0  0  0  0
  2  1  1  0
  3  2  2  0
  4  3  1  0
  5 11  1  0
  5  4  2  0
  6  5  1  0
  7  6  1  0
  7  8  1  1
  9 10  2  0
  9  7  1  0
 11 12  2  0
 12  2  1  0
 13  9  1  0
 14 13  1  0
 14 15  1  0
 15 16  2  0
 18 17  1  1
 18 20  1  0
 18 19  1  0
 21 15  1  0
 20 21  1  1
 22 20  1  0
 22 24  1  0
 23 22  2  0
M  END
$$$$
