YGT.pdb
     RDKit          3D

 24 24  0  0  1  0  0  0  0  0999 V2000
   23.6663  -20.9533   -8.0753 O   0  0  0  0  0  0  0  0  0  0  0  0
   24.2864  -21.0567   -9.3250 C   0  0  0  0  0  0  0  0  0  0  0  0
   25.5948  -21.4548   -9.4564 C   0  0  0  0  0  0  0  0  0  0  0  0
   26.1839  -21.5481  -10.7107 C   0  0  0  0  0  0  0  0  0  0  0  0
   25.4833  -21.2465  -11.8709 C   0  0  0  0  0  0  0  0  0  0  0  0
   26.1549  -21.3638  -13.1450 C   0  0  0  0  0  0  0  0  0  0  0  0
   27.3504  -20.5107  -13.3987 C   0  0  2  0  0  0  0  0  0  0  0  0
   27.0275  -19.2199  -12.7482 N   0  0  0  0  0  0  0  0  0  0  0  0
   27.5602  -20.1910  -14.8310 C   0  0  0  0  0  0  0  0  0  0  0  0
   27.7789  -21.0960  -15.6987 O   0  0  0  0  0  0  0  0  0  0  0  0
   24.1664  -20.8480  -11.7069 C   0  0  0  0  0  0  0  0  0  0  0  0
   23.5730  -20.7525  -10.4636 C   0  0  0  0  0  0  0  0  0  0  0  0
   27.5289  -18.8516  -15.3293 N   0  0  0  0  0  0  0  0  0  0  0  0
   27.8117  -18.4629  -16.6662 C   0  0  0  0  0  0  0  0  0  0  0  0
   26.7561  -18.6738  -17.6515 C   0  0  0  0  0  0  0  0  0  0  0  0
   26.7782  -17.9418  -18.7024 O   0  0  0  0  0  0  0  0  0  0  0  0
   25.5964  -21.8098  -19.5348 C   0  0  0  0  0  0  0  0  0  0  0  0
   24.4392  -21.1672  -18.8486 C   0  0  1  0  0  0  0  0  0  0  0  0
   24.2504  -21.8174  -17.6136 O   0  0  0  0  0  0  0  0  0  0  0  0
   24.6347  -19.6846  -18.5991 C   0  0  2  0  0  0  0  0  0  0  0  0
   25.6960  -19.5933  -17.5950 N   0  0  0  0  0  0  0  0  0  0  0  0
   23.3887  -19.0731  -18.1292 C   0  0  0  0  0  0  0  0  0  0  0  0
   23.3123  -18.5679  -16.9847 O   0  0  0  0  0  0  0  0  0  0  0  0
   22.2689  -19.0395  -18.9378 O   0  0  0  0  0  0  0  0  0  0  0  0
  2  1  1  0
  3  2  2  0
  4  3  1  0
  5 11  1  0
  5  4  2  0
  6  5  1  0
  7  6  1  0
  7  8  1  1
  9 10  2  0
  9  7  1  0
 11 12  2  0
 12  2  1  0
 13  9  1  0
 14 13  1  0
 14 15  1  0
 15 16  2  0
 18 17  1  1
 18 20  1  0
 18 19  1  0
 21 15  1  0
 20 21  1  1
 22 20  1  0
 22 24  1  0
 23 22  2  0
M  END
$$$$
