YGT.pdb
     RDKit          3D

 24 24  0  0  1  0  0  0  0  0999 V2000
   22.1527  -21.4733   -7.4403 O   0  0  0  0  0  0  0  0  0  0  0  0
   23.1258  -21.1185   -8.3806 C   0  0  0  0  0  0  0  0  0  0  0  0
   24.4672  -21.1485   -8.0848 C   0  0  0  0  0  0  0  0  0  0  0  0
   25.4107  -20.7906   -9.0392 C   0  0  0  0  0  0  0  0  0  0  0  0
   25.0422  -20.3923  -10.3171 C   0  0  0  0  0  0  0  0  0  0  0  0
   26.0734  -20.0324  -11.2632 C   0  0  0  0  0  0  0  0  0  0  0  0
   25.8981  -20.4283  -12.6893 C   0  0  2  0  0  0  0  0  0  0  0  0
   25.7410  -21.9003  -12.6471 N   0  0  0  0  0  0  0  0  0  0  0  0
   27.0961  -20.1815  -13.5270 C   0  0  0  0  0  0  0  0  0  0  0  0
   27.5662  -19.0121  -13.7032 O   0  0  0  0  0  0  0  0  0  0  0  0
   23.6829  -20.3720  -10.5859 C   0  0  0  0  0  0  0  0  0  0  0  0
   22.7383  -20.7262   -9.6429 C   0  0  0  0  0  0  0  0  0  0  0  0
   27.7994  -21.2364  -14.1872 N   0  0  0  0  0  0  0  0  0  0  0  0
   28.9243  -21.0701  -15.0388 C   0  0  0  0  0  0  0  0  0  0  0  0
   28.6884  -21.1901  -16.4739 C   0  0  0  0  0  0  0  0  0  0  0  0
   28.6086  -20.1047  -17.1493 O   0  0  0  0  0  0  0  0  0  0  0  0
   30.2265  -23.6345  -19.2030 C   0  0  0  0  0  0  0  0  0  0  0  0
   28.7356  -23.6496  -19.2108 C   0  0  1  0  0  0  0  0  0  0  0  0
   28.3083  -24.7598  -18.4567 O   0  0  0  0  0  0  0  0  0  0  0  0
   28.1177  -22.3930  -18.6297 C   0  0  2  0  0  0  0  0  0  0  0  0
   28.5325  -22.3659  -17.2260 N   0  0  0  0  0  0  0  0  0  0  0  0
   26.6589  -22.4273  -18.7641 C   0  0  0  0  0  0  0  0  0  0  0  0
   25.9247  -22.5926  -17.7618 O   0  0  0  0  0  0  0  0  0  0  0  0
   26.0592  -22.2781  -19.9998 O   0  0  0  0  0  0  0  0  0  0  0  0
  2  1  1  0
  3  2  2  0
  4  3  1  0
  5 11  1  0
  5  4  2  0
  6  5  1  0
  7  6  1  0
  7  8  1  1
  9 10  2  0
  9  7  1  0
 11 12  2  0
 12  2  1  0
 13  9  1  0
 14 13  1  0
 14 15  1  0
 15 16  2  0
 18 17  1  1
 18 20  1  0
 18 19  1  0
 21 15  1  0
 20 21  1  1
 22 20  1  0
 22 24  1  0
 23 22  2  0
M  END
$$$$
