YGT.pdb
     RDKit          3D

 24 24  0  0  1  0  0  0  0  0999 V2000
   28.4482  -20.0665   -3.5170 O   0  0  0  0  0  0  0  0  0  0  0  0
   28.0905  -19.9336   -4.8629 C   0  0  0  0  0  0  0  0  0  0  0  0
   28.9171  -19.3281   -5.7781 C   0  0  0  0  0  0  0  0  0  0  0  0
   28.5349  -19.2105   -7.1083 C   0  0  0  0  0  0  0  0  0  0  0  0
   27.3156  -19.6943   -7.5633 C   0  0  0  0  0  0  0  0  0  0  0  0
   26.9780  -19.5398   -8.9598 C   0  0  0  0  0  0  0  0  0  0  0  0
   26.0716  -20.5433   -9.5863 C   0  0  2  0  0  0  0  0  0  0  0  0
   26.7522  -21.8408   -9.3707 N   0  0  0  0  0  0  0  0  0  0  0  0
   25.9500  -20.3992  -11.0568 C   0  0  0  0  0  0  0  0  0  0  0  0
   25.4437  -19.3619  -11.5929 O   0  0  0  0  0  0  0  0  0  0  0  0
   26.5036  -20.2996   -6.6175 C   0  0  0  0  0  0  0  0  0  0  0  0
   26.8759  -20.4206   -5.2933 C   0  0  0  0  0  0  0  0  0  0  0  0
   26.3930  -21.4105  -11.9646 N   0  0  0  0  0  0  0  0  0  0  0  0
   26.3381  -21.3271  -13.3818 C   0  0  0  0  0  0  0  0  0  0  0  0
   25.0181  -21.4204  -13.9972 C   0  0  0  0  0  0  0  0  0  0  0  0
   24.9083  -21.0357  -15.2140 O   0  0  0  0  0  0  0  0  0  0  0  0
   23.0562  -24.1327  -15.0743 C   0  0  0  0  0  0  0  0  0  0  0  0
   22.1314  -23.3388  -14.2155 C   0  0  1  0  0  0  0  0  0  0  0  0
   22.1214  -23.9213  -12.9332 O   0  0  0  0  0  0  0  0  0  0  0  0
   22.5283  -21.8809  -14.0905 C   0  0  2  0  0  0  0  0  0  0  0  0
   23.8274  -21.8855  -13.4156 N   0  0  0  0  0  0  0  0  0  0  0  0
   21.5225  -21.1374  -13.3270 C   0  0  0  0  0  0  0  0  0  0  0  0
   21.8033  -20.6330  -12.2145 O   0  0  0  0  0  0  0  0  0  0  0  0
   20.2408  -20.9754  -13.8167 O   0  0  0  0  0  0  0  0  0  0  0  0
  2  1  1  0
  3  2  2  0
  4  3  1  0
  5 11  1  0
  5  4  2  0
  6  5  1  0
  7  6  1  0
  7  8  1  6
  9 10  2  0
  9  7  1  0
 11 12  2  0
 12  2  1  0
 13  9  1  0
 14 13  1  0
 14 15  1  0
 15 16  2  0
 18 17  1  6
 18 20  1  0
 18 19  1  0
 21 15  1  0
 20 21  1  1
 22 20  1  0
 22 24  1  0
 23 22  2  0
M  END
$$$$
