YGT.pdb
     RDKit          3D

 24 24  0  0  1  0  0  0  0  0999 V2000
   28.9066  -19.5043   -3.9726 O   0  0  0  0  0  0  0  0  0  0  0  0
   28.5630  -19.6165   -5.3241 C   0  0  0  0  0  0  0  0  0  0  0  0
   27.2549  -19.6891   -5.7377 C   0  0  0  0  0  0  0  0  0  0  0  0
   26.9441  -19.8001   -7.0869 C   0  0  0  0  0  0  0  0  0  0  0  0
   27.9309  -19.8418   -8.0626 C   0  0  0  0  0  0  0  0  0  0  0  0
   27.5405  -19.9585   -9.4490 C   0  0  0  0  0  0  0  0  0  0  0  0
   26.9424  -21.2425   -9.9126 C   0  0  2  0  0  0  0  0  0  0  0  0
   28.0518  -22.2196   -9.8241 N   0  0  0  0  0  0  0  0  0  0  0  0
   26.5382  -21.2299  -11.3389 C   0  0  0  0  0  0  0  0  0  0  0  0
   27.2635  -21.7437  -12.2497 O   0  0  0  0  0  0  0  0  0  0  0  0
   29.2403  -19.7667   -7.6153 C   0  0  0  0  0  0  0  0  0  0  0  0
   29.5580  -19.6561   -6.2759 C   0  0  0  0  0  0  0  0  0  0  0  0
   25.3120  -20.6442  -11.7821 N   0  0  0  0  0  0  0  0  0  0  0  0
   24.3444  -21.2811  -12.6046 C   0  0  0  0  0  0  0  0  0  0  0  0
   23.2013  -20.4759  -13.0223 C   0  0  0  0  0  0  0  0  0  0  0  0
   22.5531  -19.8563  -12.1076 O   0  0  0  0  0  0  0  0  0  0  0  0
   23.0113  -18.3388  -16.3792 C   0  0  0  0  0  0  0  0  0  0  0  0
   22.1434  -18.1509  -15.1815 C   0  0  1  0  0  0  0  0  0  0  0  0
   21.0908  -17.2860  -15.5390 O   0  0  0  0  0  0  0  0  0  0  0  0
   21.5582  -19.4457  -14.6529 C   0  0  2  0  0  0  0  0  0  0  0  0
   22.7083  -20.2896  -14.3241 N   0  0  0  0  0  0  0  0  0  0  0  0
   20.6969  -20.0704  -15.6605 C   0  0  0  0  0  0  0  0  0  0  0  0
   21.0407  -21.1322  -16.2309 O   0  0  0  0  0  0  0  0  0  0  0  0
   19.4853  -19.5026  -16.0049 O   0  0  0  0  0  0  0  0  0  0  0  0
  2  1  1  0
  3  2  2  0
  4  3  1  0
  5 11  1  0
  5  4  2  0
  6  5  1  0
  7  6  1  0
  7  8  1  6
  9 10  2  0
  9  7  1  0
 11 12  2  0
 12  2  1  0
 13  9  1  0
 14 13  1  0
 14 15  1  0
 15 16  2  0
 18 17  1  6
 18 20  1  0
 18 19  1  0
 21 15  1  0
 20 21  1  6
 22 20  1  0
 22 24  1  0
 23 22  2  0
M  END
$$$$
