YGT.pdb
     RDKit          3D

 24 24  0  0  1  0  0  0  0  0999 V2000
   29.2727  -19.4655   -3.4081 O   0  0  0  0  0  0  0  0  0  0  0  0
   28.6298  -19.6080   -4.6423 C   0  0  0  0  0  0  0  0  0  0  0  0
   29.2989  -19.4540   -5.8324 C   0  0  0  0  0  0  0  0  0  0  0  0
   28.6338  -19.6016   -7.0428 C   0  0  0  0  0  0  0  0  0  0  0  0
   27.2807  -19.9074   -7.1000 C   0  0  0  0  0  0  0  0  0  0  0  0
   26.6483  -20.0471   -8.3918 C   0  0  0  0  0  0  0  0  0  0  0  0
   26.9002  -21.2899   -9.1749 C   0  0  2  0  0  0  0  0  0  0  0  0
   28.1562  -21.0150   -9.9098 N   0  0  0  0  0  0  0  0  0  0  0  0
   25.8802  -21.5529  -10.2181 C   0  0  0  0  0  0  0  0  0  0  0  0
   24.6973  -21.9212   -9.9268 O   0  0  0  0  0  0  0  0  0  0  0  0
   26.6329  -20.0567   -5.8842 C   0  0  0  0  0  0  0  0  0  0  0  0
   27.2865  -19.9117   -4.6764 C   0  0  0  0  0  0  0  0  0  0  0  0
   26.1567  -21.4090  -11.6131 N   0  0  0  0  0  0  0  0  0  0  0  0
   25.2371  -21.6622  -12.6660 C   0  0  0  0  0  0  0  0  0  0  0  0
   24.1044  -20.7499  -12.7857 C   0  0  0  0  0  0  0  0  0  0  0  0
   23.8959  -19.9411  -11.8146 O   0  0  0  0  0  0  0  0  0  0  0  0
   23.2634  -18.1103  -15.4072 C   0  0  0  0  0  0  0  0  0  0  0  0
   22.1185  -19.0509  -15.2418 C   0  0  1  0  0  0  0  0  0  0  0  0
   22.2342  -20.0534  -16.2243 O   0  0  0  0  0  0  0  0  0  0  0  0
   22.0692  -19.7051  -13.8750 C   0  0  2  0  0  0  0  0  0  0  0  0
   23.1932  -20.6427  -13.8490 N   0  0  0  0  0  0  0  0  0  0  0  0
   20.7879  -20.3881  -13.6772 C   0  0  0  0  0  0  0  0  0  0  0  0
   20.7003  -21.6338  -13.7837 O   0  0  0  0  0  0  0  0  0  0  0  0
   19.6463  -19.6736  -13.3685 O   0  0  0  0  0  0  0  0  0  0  0  0
  2  1  1  0
  3  2  2  0
  4  3  1  0
  5 11  1  0
  5  4  2  0
  6  5  1  0
  7  6  1  0
  7  8  1  6
  9 10  2  0
  9  7  1  0
 11 12  2  0
 12  2  1  0
 13  9  1  0
 14 13  1  0
 14 15  1  0
 15 16  2  0
 18 17  1  1
 18 20  1  0
 18 19  1  0
 21 15  1  0
 20 21  1  6
 22 20  1  0
 22 24  1  0
 23 22  2  0
M  END
$$$$
