YGT.pdb
     RDKit          3D

 24 24  0  0  1  0  0  0  0  0999 V2000
   26.7291  -16.4211  -19.5073 O   0  0  0  0  0  0  0  0  0  0  0  0
   26.1919  -15.4253  -18.6846 C   0  0  0  0  0  0  0  0  0  0  0  0
   26.9579  -14.3943  -18.1968 C   0  0  0  0  0  0  0  0  0  0  0  0
   26.3967  -13.4196  -17.3818 C   0  0  0  0  0  0  0  0  0  0  0  0
   25.0538  -13.4460  -17.0301 C   0  0  0  0  0  0  0  0  0  0  0  0
   24.5322  -12.4017  -16.1784 C   0  0  0  0  0  0  0  0  0  0  0  0
   23.2355  -11.7662  -16.5473 C   0  0  2  0  0  0  0  0  0  0  0  0
   23.5241  -11.0430  -17.8070 N   0  0  0  0  0  0  0  0  0  0  0  0
   22.7874  -10.7283  -15.5882 C   0  0  0  0  0  0  0  0  0  0  0  0
   22.5458  -10.9972  -14.3680 O   0  0  0  0  0  0  0  0  0  0  0  0
   24.3070  -14.4975  -17.5370 C   0  0  0  0  0  0  0  0  0  0  0  0
   24.8569  -15.4706  -18.3478 C   0  0  0  0  0  0  0  0  0  0  0  0
   22.6001   -9.3634  -15.9692 N   0  0  0  0  0  0  0  0  0  0  0  0
   22.0683   -8.3413  -15.1378 C   0  0  0  0  0  0  0  0  0  0  0  0
   21.1197   -7.4183  -15.7526 C   0  0  0  0  0  0  0  0  0  0  0  0
   21.3672   -7.0308  -16.9481 O   0  0  0  0  0  0  0  0  0  0  0  0
   17.3764   -7.7415  -16.3267 C   0  0  0  0  0  0  0  0  0  0  0  0
   17.6591   -6.4486  -15.6400 C   0  0  1  0  0  0  0  0  0  0  0  0
   17.4663   -6.6393  -14.2579 O   0  0  0  0  0  0  0  0  0  0  0  0
   19.0672   -5.9377  -15.8743 C   0  0  2  0  0  0  0  0  0  0  0  0
   19.9470   -6.8875  -15.1910 N   0  0  0  0  0  0  0  0  0  0  0  0
   19.2171   -4.5801  -15.3434 C   0  0  0  0  0  0  0  0  0  0  0  0
   18.6181   -3.6138  -15.8709 O   0  0  0  0  0  0  0  0  0  0  0  0
   20.0228   -4.3344  -14.2482 O   0  0  0  0  0  0  0  0  0  0  0  0
  2  1  1  0
  3  2  2  0
  4  3  1  0
  5 11  1  0
  5  4  2  0
  6  5  1  0
  7  6  1  0
  7  8  1  6
  9 10  2  0
  9  7  1  0
 11 12  2  0
 12  2  1  0
 13  9  1  0
 14 13  1  0
 14 15  1  0
 15 16  2  0
 18 17  1  6
 18 20  1  0
 18 19  1  0
 21 15  1  0
 20 21  1  1
 22 20  1  0
 22 24  1  0
 23 22  2  0
M  END
$$$$
