YGT.pdb
     RDKit          3D

 24 24  0  0  1  0  0  0  0  0999 V2000
   27.4707  -17.1060  -16.8150 O   0  0  0  0  0  0  0  0  0  0  0  0
   26.4970  -16.2015  -16.3778 C   0  0  0  0  0  0  0  0  0  0  0  0
   26.8039  -15.1448  -15.5551 C   0  0  0  0  0  0  0  0  0  0  0  0
   25.8157  -14.2628  -15.1372 C   0  0  0  0  0  0  0  0  0  0  0  0
   24.4919  -14.4103  -15.5287 C   0  0  0  0  0  0  0  0  0  0  0  0
   23.5121  -13.4581  -15.0583 C   0  0  0  0  0  0  0  0  0  0  0  0
   22.6280  -12.7960  -16.0589 C   0  0  2  0  0  0  0  0  0  0  0  0
   23.5596  -12.0631  -16.9469 N   0  0  0  0  0  0  0  0  0  0  0  0
   21.7398  -11.7618  -15.4763 C   0  0  0  0  0  0  0  0  0  0  0  0
   20.8332  -12.0503  -14.6309 O   0  0  0  0  0  0  0  0  0  0  0  0
   24.2130  -15.4848  -16.3581 C   0  0  0  0  0  0  0  0  0  0  0  0
   25.1894  -16.3664  -16.7783 C   0  0  0  0  0  0  0  0  0  0  0  0
   21.8443  -10.3790  -15.8229 N   0  0  0  0  0  0  0  0  0  0  0  0
   21.0790   -9.3265  -15.2529 C   0  0  0  0  0  0  0  0  0  0  0  0
   21.7278   -8.0239  -15.1439 C   0  0  0  0  0  0  0  0  0  0  0  0
   22.9633   -7.9530  -15.4742 O   0  0  0  0  0  0  0  0  0  0  0  0
   20.9357   -4.9277  -16.9162 C   0  0  0  0  0  0  0  0  0  0  0  0
   21.0394   -4.5687  -15.4728 C   0  0  1  0  0  0  0  0  0  0  0  0
   19.7373   -4.5430  -14.9367 O   0  0  0  0  0  0  0  0  0  0  0  0
   21.8829   -5.5396  -14.6700 C   0  0  2  0  0  0  0  0  0  0  0  0
   21.1618   -6.8129  -14.7131 N   0  0  0  0  0  0  0  0  0  0  0  0
   22.0540   -5.0588  -13.2964 C   0  0  0  0  0  0  0  0  0  0  0  0
   21.4536   -5.6086  -12.3434 O   0  0  0  0  0  0  0  0  0  0  0  0
   22.8818   -3.9876  -13.0204 O   0  0  0  0  0  0  0  0  0  0  0  0
  2  1  1  0
  3  2  2  0
  4  3  1  0
  5 11  1  0
  5  4  2  0
  6  5  1  0
  7  6  1  0
  7  8  1  6
  9 10  2  0
  9  7  1  0
 11 12  2  0
 12  2  1  0
 13  9  1  0
 14 13  1  0
 14 15  1  0
 15 16  2  0
 18 17  1  6
 18 20  1  0
 18 19  1  0
 21 15  1  0
 20 21  1  1
 22 20  1  0
 22 24  1  0
 23 22  2  0
M  END
$$$$
