YGT.pdb
     RDKit          3D

 24 24  0  0  1  0  0  0  0  0999 V2000
   15.9004  -26.1866    0.7281 O   0  0  0  0  0  0  0  0  0  0  0  0
   15.7131  -24.9728    1.3980 C   0  0  0  0  0  0  0  0  0  0  0  0
   16.5613  -24.5543    2.3944 C   0  0  0  0  0  0  0  0  0  0  0  0
   16.3501  -23.3438    3.0420 C   0  0  0  0  0  0  0  0  0  0  0  0
   15.2852  -22.5158    2.7132 C   0  0  0  0  0  0  0  0  0  0  0  0
   15.1214  -21.2692    3.4256 C   0  0  0  0  0  0  0  0  0  0  0  0
   15.4185  -19.9971    2.7082 C   0  0  2  0  0  0  0  0  0  0  0  0
   16.8903  -20.0011    2.5438 N   0  0  0  0  0  0  0  0  0  0  0  0
   15.1115  -18.7818    3.4998 C   0  0  0  0  0  0  0  0  0  0  0  0
   13.9163  -18.4340    3.7648 O   0  0  0  0  0  0  0  0  0  0  0  0
   14.4472  -22.9643    1.7049 C   0  0  0  0  0  0  0  0  0  0  0  0
   14.6500  -24.1662    1.0560 C   0  0  0  0  0  0  0  0  0  0  0  0
   16.1332  -17.9261    4.0164 N   0  0  0  0  0  0  0  0  0  0  0  0
   15.9146  -16.7642    4.8043 C   0  0  0  0  0  0  0  0  0  0  0  0
   17.0954  -16.0014    5.1959 C   0  0  0  0  0  0  0  0  0  0  0  0
   18.1808  -16.6544    5.3859 O   0  0  0  0  0  0  0  0  0  0  0  0
   19.5569  -11.7423    5.4076 C   0  0  0  0  0  0  0  0  0  0  0  0
   18.2732  -12.5006    5.3879 C   0  0  1  0  0  0  0  0  0  0  0  0
   17.7808  -12.4872    4.0684 O   0  0  0  0  0  0  0  0  0  0  0  0
   18.4166  -13.9390    5.8449 C   0  0  2  0  0  0  0  0  0  0  0  0
   17.1978  -14.6152    5.3974 N   0  0  0  0  0  0  0  0  0  0  0  0
   18.5698  -14.0036    7.3008 C   0  0  0  0  0  0  0  0  0  0  0  0
   17.5722  -14.1426    8.0467 O   0  0  0  0  0  0  0  0  0  0  0  0
   19.8187  -13.9127    7.8848 O   0  0  0  0  0  0  0  0  0  0  0  0
  2  1  1  0
  3  2  2  0
  4  3  1  0
  5 11  1  0
  5  4  2  0
  6  5  1  0
  7  6  1  0
  7  8  1  1
  9 10  2  0
  9  7  1  0
 11 12  2  0
 12  2  1  0
 13  9  1  0
 14 13  1  0
 14 15  1  0
 15 16  2  0
 18 17  1  6
 18 20  1  0
 18 19  1  0
 21 15  1  0
 20 21  1  1
 22 20  1  0
 22 24  1  0
 23 22  2  0
M  END
$$$$
