RVR.pdb
     RDKit          3D

 30 29  0  0  1  0  0  0  0  0999 V2000
   28.4000  -22.3226  -15.7631 N   0  0  0  0  0  0  0  0  0  0  0  0
   27.3547  -23.2944  -15.8723 C   0  0  0  0  0  0  0  0  0  0  0  0
   27.5818  -24.4592  -16.3838 N   0  0  0  0  0  0  0  0  0  0  0  0
   26.0333  -23.0247  -15.4276 N   0  0  0  0  0  0  0  0  0  0  0  0
   25.6700  -21.7403  -14.8668 C   0  0  0  0  0  0  0  0  0  0  0  0
   25.1612  -21.8334  -13.4739 C   0  0  0  0  0  0  0  0  0  0  0  0
   23.7620  -22.2916  -13.3153 C   0  0  0  0  0  0  0  0  0  0  0  0
   22.7140  -21.5378  -14.0506 C   0  0  2  0  0  0  0  0  0  0  0  0
   23.1505  -20.2073  -14.4037 N   0  0  0  0  0  0  0  0  0  0  0  0
   21.5450  -21.3841  -13.1342 C   0  0  0  0  0  0  0  0  0  0  0  0
   21.5764  -20.4500  -12.2764 O   0  0  0  0  0  0  0  0  0  0  0  0
   26.8071  -25.1228  -16.5481 C   0  0  0  0  0  0  0  0  0  0  0  0
   18.2056  -20.5711  -13.8968 C   0  0  1  0  0  0  0  0  0  0  0  0
   18.0537  -21.8717  -13.1400 C   0  0  0  0  0  0  0  0  0  0  0  0
   16.7736  -21.9313  -12.3439 C   0  0  2  0  0  0  0  0  0  0  0  0
   19.2735  -22.0299  -12.2564 N   0  0  0  0  0  0  0  0  0  0  0  0
   20.4150  -22.2114  -13.1662 C   0  0  0  0  0  0  0  0  0  0  0  0
   19.1396  -23.3093  -11.5185 O   0  0  0  0  0  0  0  0  0  0  0  0
   19.3501  -24.4373  -12.0235 N   0  0  0  0  0  0  0  0  0  0  0  0
   17.6388  -25.7162   -2.8937 C   0  0  0  0  0  0  0  0  0  0  0  0
   17.6441  -26.9103   -3.6558 N   0  0  0  0  0  0  0  0  0  0  0  0
   17.5699  -28.0499   -3.1073 N   0  0  0  0  0  0  0  0  0  0  0  0
   17.7367  -26.7996   -5.0824 C   0  0  0  0  0  0  0  0  0  0  0  0
   18.0837  -25.5549   -5.7272 C   0  0  0  0  0  0  0  0  0  0  0  0
   18.2258  -25.7698   -7.1983 C   0  0  0  0  0  0  0  0  0  0  0  0
   18.4831  -24.5420   -7.9603 C   0  0  1  0  0  0  0  0  0  0  0  0
   18.5522  -24.5579   -9.4327 N   0  0  0  0  0  0  0  0  0  0  0  0
   18.7427  -23.3158  -10.1209 C   0  0  0  0  0  0  0  0  0  0  0  0
   17.3716  -25.2556  -10.0081 O   0  0  0  0  0  0  0  0  0  0  0  0
   17.3859  -26.6176  -10.2632 O   0  0  0  0  0  0  0  0  0  0  0  0
  2  3  2  0
  2  1  1  0
  4  2  1  0
  5  6  1  0
  5  4  1  0
  7  6  1  0
  8  7  1  0
  8  9  1  1
 10  8  1  0
 10 11  2  0
 13 12  1  6
 13 15  1  0
 14 13  1  0
 15 16  1  1
 16 10  1  0
 17 15  1  0
 18 17  2  0
 19 20  1  0
 20 21  2  0
 22 23  1  0
 22 20  1  0
 23 24  1  0
 24 25  1  0
 26 25  1  1
 26 28  1  0
 26 27  1  0
 27 17  1  0
 28 29  1  0
 30 28  2  0
M  END
$$$$
