RVR.pdb
     RDKit          3D

 30 29  0  0  1  0  0  0  0  0999 V2000
   19.4855  -23.0984   -8.1083 N   0  0  0  0  0  0  0  0  0  0  0  0
   19.7050  -22.8998   -9.5088 C   0  0  0  0  0  0  0  0  0  0  0  0
   19.0724  -23.6061  -10.3866 N   0  0  0  0  0  0  0  0  0  0  0  0
   20.6195  -21.9268   -9.9919 N   0  0  0  0  0  0  0  0  0  0  0  0
   21.3348  -21.0465   -9.0921 C   0  0  0  0  0  0  0  0  0  0  0  0
   22.7863  -21.3520   -9.0063 C   0  0  0  0  0  0  0  0  0  0  0  0
   23.6557  -20.6956  -10.0093 C   0  0  0  0  0  0  0  0  0  0  0  0
   25.0655  -21.1573  -10.0907 C   0  0  2  0  0  0  0  0  0  0  0  0
   25.7581  -21.0080   -8.8325 N   0  0  0  0  0  0  0  0  0  0  0  0
   25.7669  -20.2862  -11.0803 C   0  0  0  0  0  0  0  0  0  0  0  0
   26.3510  -19.2447  -10.6520 O   0  0  0  0  0  0  0  0  0  0  0  0
   19.2399  -23.4652  -11.3964 C   0  0  0  0  0  0  0  0  0  0  0  0
   28.5345  -21.1743  -13.1695 C   0  0  2  0  0  0  0  0  0  0  0  0
   27.4957  -20.6705  -14.1465 C   0  0  0  0  0  0  0  0  0  0  0  0
   28.1112  -20.0153  -15.3580 C   0  0  2  0  0  0  0  0  0  0  0  0
   26.5859  -19.7213  -13.3949 N   0  0  0  0  0  0  0  0  0  0  0  0
   25.8176  -20.5518  -12.4549 C   0  0  0  0  0  0  0  0  0  0  0  0
   25.5950  -19.1812  -14.3572 O   0  0  0  0  0  0  0  0  0  0  0  0
   24.7881  -19.8878  -15.0062 N   0  0  0  0  0  0  0  0  0  0  0  0
   21.8467  -11.1029  -15.8233 C   0  0  0  0  0  0  0  0  0  0  0  0
   21.2169  -12.0008  -16.7199 N   0  0  0  0  0  0  0  0  0  0  0  0
   20.2446  -11.6412  -17.4480 N   0  0  0  0  0  0  0  0  0  0  0  0
   21.7109  -13.3453  -16.7861 C   0  0  0  0  0  0  0  0  0  0  0  0
   22.7315  -13.8254  -15.8843 C   0  0  0  0  0  0  0  0  0  0  0  0
   23.0532  -15.2499  -16.1968 C   0  0  0  0  0  0  0  0  0  0  0  0
   24.0572  -15.8457  -15.3072 C   0  0  1  0  0  0  0  0  0  0  0  0
   24.5178  -17.2331  -15.4969 N   0  0  0  0  0  0  0  0  0  0  0  0
   25.5097  -17.7518  -14.6025 C   0  0  0  0  0  0  0  0  0  0  0  0
   24.9652  -17.4529  -16.8980 O   0  0  0  0  0  0  0  0  0  0  0  0
   24.1063  -17.9500  -17.8652 O   0  0  0  0  0  0  0  0  0  0  0  0
  2  3  2  0
  2  1  1  0
  4  2  1  0
  5  6  1  0
  5  4  1  0
  7  6  1  0
  8  7  1  0
  8  9  1  1
 10  8  1  0
 10 11  2  0
 13 12  1  6
 13 15  1  0
 14 13  1  0
 15 16  1  1
 16 10  1  0
 17 15  1  0
 18 17  2  0
 19 20  1  0
 20 21  2  0
 22 23  1  0
 22 20  1  0
 23 24  1  0
 24 25  1  0
 26 25  1  1
 26 28  1  0
 26 27  1  0
 27 17  1  0
 28 29  1  0
 30 28  2  0
M  END
$$$$
