RVR.pdb
     RDKit          3D

 30 29  0  0  1  0  0  0  0  0999 V2000
   29.3611  -25.9370  -16.7656 N   0  0  0  0  0  0  0  0  0  0  0  0
   27.9640  -26.0251  -17.0642 C   0  0  0  0  0  0  0  0  0  0  0  0
   27.3861  -27.1724  -17.2041 N   0  0  0  0  0  0  0  0  0  0  0  0
   27.1577  -24.8664  -17.2188 N   0  0  0  0  0  0  0  0  0  0  0  0
   27.7084  -23.5353  -17.0743 C   0  0  0  0  0  0  0  0  0  0  0  0
   27.8384  -23.1071  -15.6575 C   0  0  0  0  0  0  0  0  0  0  0  0
   26.7157  -22.3150  -15.1054 C   0  0  0  0  0  0  0  0  0  0  0  0
   26.4052  -21.0234  -15.7709 C   0  0  2  0  0  0  0  0  0  0  0  0
   27.4806  -20.0699  -15.6319 N   0  0  0  0  0  0  0  0  0  0  0  0
   25.2139  -20.4398  -15.0850 C   0  0  0  0  0  0  0  0  0  0  0  0
   25.4006  -19.7907  -14.0112 O   0  0  0  0  0  0  0  0  0  0  0  0
   26.3947  -27.2319  -17.4891 C   0  0  0  0  0  0  0  0  0  0  0  0
   23.3254  -17.9193  -16.3832 C   0  0  2  0  0  0  0  0  0  0  0  0
   22.2441  -18.9277  -16.0648 C   0  0  0  0  0  0  0  0  0  0  0  0
   20.9418  -18.2746  -15.6731 C   0  0  2  0  0  0  0  0  0  0  0  0
   22.7719  -19.8313  -14.9699 N   0  0  0  0  0  0  0  0  0  0  0  0
   23.9015  -20.5672  -15.5581 C   0  0  0  0  0  0  0  0  0  0  0  0
   21.7346  -20.8508  -14.6802 O   0  0  0  0  0  0  0  0  0  0  0  0
   21.3653  -21.7291  -15.4950 N   0  0  0  0  0  0  0  0  0  0  0  0
   18.1180  -24.1454   -7.2437 C   0  0  0  0  0  0  0  0  0  0  0  0
   17.8757  -25.0587   -8.2992 N   0  0  0  0  0  0  0  0  0  0  0  0
   17.5172  -26.2530   -8.0762 N   0  0  0  0  0  0  0  0  0  0  0  0
   18.0479  -24.5951   -9.6450 C   0  0  0  0  0  0  0  0  0  0  0  0
   18.3506  -23.2144   -9.9406 C   0  0  0  0  0  0  0  0  0  0  0  0
   18.5837  -23.0502  -11.4066 C   0  0  0  0  0  0  0  0  0  0  0  0
   19.7171  -22.1786  -11.7384 C   0  0  1  0  0  0  0  0  0  0  0  0
   20.0273  -21.8290  -13.1365 N   0  0  0  0  0  0  0  0  0  0  0  0
   21.0717  -20.8808  -13.3877 C   0  0  0  0  0  0  0  0  0  0  0  0
   18.7992  -21.4008  -13.8575 O   0  0  0  0  0  0  0  0  0  0  0  0
   17.9758  -22.3146  -14.4957 O   0  0  0  0  0  0  0  0  0  0  0  0
  2  3  2  0
  2  1  1  0
  4  2  1  0
  5  6  1  0
  5  4  1  0
  7  6  1  0
  8  7  1  0
  8  9  1  1
 10  8  1  0
 10 11  2  0
 13 12  1  6
 13 15  1  0
 14 13  1  0
 15 16  1  1
 16 10  1  0
 17 15  1  0
 18 17  2  0
 19 20  1  0
 20 21  2  0
 22 23  1  0
 22 20  1  0
 23 24  1  0
 24 25  1  0
 26 25  1  6
 26 28  1  0
 26 27  1  0
 27 17  1  0
 28 29  1  0
 30 28  2  0
M  END
$$$$
