RVR.pdb
     RDKit          3D

 30 29  0  0  1  0  0  0  0  0999 V2000
   28.9648  -19.2422  -21.3531 N   0  0  0  0  0  0  0  0  0  0  0  0
   29.8250  -19.1967  -20.2098 C   0  0  0  0  0  0  0  0  0  0  0  0
   31.0042  -18.6738  -20.2867 N   0  0  0  0  0  0  0  0  0  0  0  0
   29.4250  -19.7194  -18.9516 N   0  0  0  0  0  0  0  0  0  0  0  0
   28.1743  -20.4305  -18.7895 C   0  0  0  0  0  0  0  0  0  0  0  0
   27.1660  -19.6691  -18.0077 C   0  0  0  0  0  0  0  0  0  0  0  0
   26.5364  -20.3851  -16.8747 C   0  0  0  0  0  0  0  0  0  0  0  0
   27.4400  -20.9154  -15.8213 C   0  0  2  0  0  0  0  0  0  0  0  0
   28.2373  -22.0211  -16.2975 N   0  0  0  0  0  0  0  0  0  0  0  0
   26.5827  -21.4400  -14.7168 C   0  0  0  0  0  0  0  0  0  0  0  0
   26.1080  -22.6106  -14.8328 O   0  0  0  0  0  0  0  0  0  0  0  0
   31.6278  -18.6568  -19.4631 C   0  0  0  0  0  0  0  0  0  0  0  0
   27.3891  -20.7649  -10.9730 C   0  0  1  0  0  0  0  0  0  0  0  0
   25.9167  -20.5121  -11.2088 C   0  0  0  0  0  0  0  0  0  0  0  0
   25.0696  -20.8720  -10.0134 C   0  0  2  0  0  0  0  0  0  0  0  0
   25.5118  -21.2940  -12.4410 N   0  0  0  0  0  0  0  0  0  0  0  0
   26.2718  -20.7148  -13.5592 C   0  0  0  0  0  0  0  0  0  0  0  0
   24.0874  -20.9937  -12.7243 O   0  0  0  0  0  0  0  0  0  0  0  0
   23.6532  -19.8534  -13.0122 N   0  0  0  0  0  0  0  0  0  0  0  0
   17.2714  -25.9898  -15.7933 C   0  0  0  0  0  0  0  0  0  0  0  0
   16.7358  -24.6901  -15.6183 N   0  0  0  0  0  0  0  0  0  0  0  0
   15.5391  -24.4162  -15.9307 N   0  0  0  0  0  0  0  0  0  0  0  0
   17.5902  -23.6765  -15.0720 C   0  0  0  0  0  0  0  0  0  0  0  0
   18.9385  -23.9679  -14.6448 C   0  0  0  0  0  0  0  0  0  0  0  0
   19.5801  -22.7282  -14.1138 C   0  0  0  0  0  0  0  0  0  0  0  0
   20.9756  -22.9084  -13.6961 C   0  0  1  0  0  0  0  0  0  0  0  0
   21.7516  -21.7925  -13.1255 N   0  0  0  0  0  0  0  0  0  0  0  0
   23.0890  -22.0483  -12.6797 C   0  0  0  0  0  0  0  0  0  0  0  0
   20.9939  -21.1287  -12.0315 O   0  0  0  0  0  0  0  0  0  0  0  0
   21.3333  -21.3085  -10.7000 O   0  0  0  0  0  0  0  0  0  0  0  0
  2  3  2  0
  2  1  1  0
  4  2  1  0
  5  6  1  0
  5  4  1  0
  7  6  1  0
  8  7  1  0
  8  9  1  6
 10  8  1  0
 10 11  2  0
 13 12  1  1
 13 15  1  0
 14 13  1  0
 15 16  1  6
 16 10  1  0
 17 15  1  0
 18 17  2  0
 19 20  1  0
 20 21  2  0
 22 23  1  0
 22 20  1  0
 23 24  1  0
 24 25  1  0
 26 25  1  6
 26 28  1  0
 26 27  1  0
 27 17  1  0
 28 29  1  0
 30 28  2  0
M  END
$$$$
