RVR.pdb
     RDKit          3D

 30 29  0  0  1  0  0  0  0  0999 V2000
   18.9023  -23.9953   -6.0814 N   0  0  0  0  0  0  0  0  0  0  0  0
   18.7383  -24.1398   -7.4961 C   0  0  0  0  0  0  0  0  0  0  0  0
   17.6496  -24.6286   -7.9918 N   0  0  0  0  0  0  0  0  0  0  0  0
   19.7553  -23.7561   -8.4100 N   0  0  0  0  0  0  0  0  0  0  0  0
   20.9715  -23.1105   -7.9628 C   0  0  0  0  0  0  0  0  0  0  0  0
   20.9994  -21.6530   -8.2500 C   0  0  0  0  0  0  0  0  0  0  0  0
   21.8596  -21.2221   -9.3756 C   0  0  0  0  0  0  0  0  0  0  0  0
   23.3287  -21.3495   -9.1940 C   0  0  2  0  0  0  0  0  0  0  0  0
   23.7770  -20.7437   -7.9622 N   0  0  0  0  0  0  0  0  0  0  0  0
   23.9854  -20.6055  -10.3098 C   0  0  0  0  0  0  0  0  0  0  0  0
   24.1435  -19.3533  -10.1821 O   0  0  0  0  0  0  0  0  0  0  0  0
   17.5382  -24.7379   -9.0131 C   0  0  0  0  0  0  0  0  0  0  0  0
   26.9763  -20.5708  -14.1268 C   0  0  1  0  0  0  0  0  0  0  0  0
   26.2693  -21.3136  -13.0150 C   0  0  0  0  0  0  0  0  0  0  0  0
   25.8183  -22.6904  -13.4353 C   0  0  2  0  0  0  0  0  0  0  0  0
   25.1072  -20.4552  -12.5607 N   0  0  0  0  0  0  0  0  0  0  0  0
   24.4374  -21.2096  -11.4902 C   0  0  0  0  0  0  0  0  0  0  0  0
   24.1303  -20.3833  -13.6742 O   0  0  0  0  0  0  0  0  0  0  0  0
   23.3496  -21.3135  -13.9854 N   0  0  0  0  0  0  0  0  0  0  0  0
   22.1614  -13.5923  -18.1331 C   0  0  0  0  0  0  0  0  0  0  0  0
   21.5363  -14.5189  -19.0033 N   0  0  0  0  0  0  0  0  0  0  0  0
   21.3997  -14.2820  -20.2403 N   0  0  0  0  0  0  0  0  0  0  0  0
   21.0543  -15.7487  -18.4455 C   0  0  0  0  0  0  0  0  0  0  0  0
   21.1401  -16.0270  -17.0311 C   0  0  0  0  0  0  0  0  0  0  0  0
   21.4925  -17.4627  -16.8185 C   0  0  0  0  0  0  0  0  0  0  0  0
   22.5113  -17.6820  -15.7848 C   0  0  1  0  0  0  0  0  0  0  0  0
   22.9554  -19.0414  -15.4273 N   0  0  0  0  0  0  0  0  0  0  0  0
   24.0284  -19.1845  -14.4886 C   0  0  0  0  0  0  0  0  0  0  0  0
   23.2695  -19.8312  -16.6476 O   0  0  0  0  0  0  0  0  0  0  0  0
   22.2912  -20.5419  -17.3245 O   0  0  0  0  0  0  0  0  0  0  0  0
  2  3  2  0
  2  1  1  0
  4  2  1  0
  5  6  1  0
  5  4  1  0
  7  6  1  0
  8  7  1  0
  8  9  1  1
 10  8  1  0
 10 11  2  0
 13 12  1  1
 13 15  1  0
 14 13  1  0
 15 16  1  6
 16 10  1  0
 17 15  1  0
 18 17  2  0
 19 20  1  0
 20 21  2  0
 22 23  1  0
 22 20  1  0
 23 24  1  0
 24 25  1  0
 26 25  1  1
 26 28  1  0
 26 27  1  0
 27 17  1  0
 28 29  1  0
 30 28  2  0
M  END
$$$$
