EFD.pdb
     RDKit          3D

 29 29  0  0  1  0  0  0  0  0999 V2000
   28.7747  -19.2708  -14.6544 N   0  0  0  0  0  0  0  0  0  0  0  0
   27.7340  -18.8488  -13.7743 C   0  0  1  0  0  0  0  0  0  0  0  0
   26.6672  -18.0278  -14.4470 C   0  0  0  0  0  0  0  0  0  0  0  0
   27.1966  -16.7364  -15.0154 C   0  0  0  0  0  0  0  0  0  0  0  0
   27.7055  -16.8543  -16.3744 C   0  0  0  0  0  0  0  0  0  0  0  0
   26.9351  -17.1222  -17.3193 O   0  0  0  0  0  0  0  0  0  0  0  0
   27.0808  -20.0458  -13.1821 C   0  0  0  0  0  0  0  0  0  0  0  0
   27.0998  -21.1714  -13.7776 O   0  0  0  0  0  0  0  0  0  0  0  0
   29.0460  -16.6721  -16.6413 O   0  0  0  0  0  0  0  0  0  0  0  0
   26.4020  -20.0193  -11.9340 N   0  0  0  0  0  0  0  0  0  0  0  0
   25.8881  -21.2356  -11.3048 C   0  0  1  0  0  0  0  0  0  0  0  0
   25.5142  -20.8579   -9.8918 C   0  0  0  0  0  0  0  0  0  0  0  0
   26.6914  -20.5684   -9.0628 C   0  0  0  0  0  0  0  0  0  0  0  0
   26.6488  -19.6257   -8.0350 C   0  0  0  0  0  0  0  0  0  0  0  0
   27.7479  -19.3551   -7.2584 C   0  0  0  0  0  0  0  0  0  0  0  0
   28.9240  -20.0317   -7.4998 C   0  0  0  0  0  0  0  0  0  0  0  0
   29.0047  -20.9789   -8.5162 C   0  0  0  0  0  0  0  0  0  0  0  0
   27.8897  -21.2302   -9.2783 C   0  0  0  0  0  0  0  0  0  0  0  0
   24.7910  -21.8254  -12.0779 C   0  0  0  0  0  0  0  0  0  0  0  0
   24.2443  -22.8994  -11.7342 O   0  0  0  0  0  0  0  0  0  0  0  0
   24.2829  -21.2087  -13.2670 N   0  0  0  0  0  0  0  0  0  0  0  0
   22.8465  -21.1513  -13.5512 C   0  0  1  0  0  0  0  0  0  0  0  0
   22.1668  -20.2334  -12.5760 C   0  0  0  0  0  0  0  0  0  0  0  0
   20.7671  -20.5958  -12.3679 C   0  0  0  0  0  0  0  0  0  0  0  0
   20.2730  -21.5969  -12.9158 O   0  0  0  0  0  0  0  0  0  0  0  0
   22.7013  -20.7366  -14.9660 C   0  0  0  0  0  0  0  0  0  0  0  0
   23.4895  -19.8945  -15.4570 O   0  0  0  0  0  0  0  0  0  0  0  0
   19.9729  -19.8073  -11.5423 O   0  0  0  0  0  0  0  0  0  0  0  0
   21.7131  -21.2446  -15.7983 O   0  0  0  0  0  0  0  0  0  0  0  0
  2  1  1  6
  2  7  1  0
  2  3  1  0
  4  3  1  0
  4  5  1  0
  5  6  2  0
  5  9  1  0
  7  8  2  0
 10 11  1  0
 10  7  1  0
 11 12  1  1
 13 14  2  0
 13 12  1  0
 15 14  1  0
 16 15  2  0
 17 16  1  0
 17 18  2  0
 18 13  1  0
 19 11  1  0
 20 19  2  0
 21 19  1  0
 22 26  1  0
 22 21  1  0
 22 23  1  1
 23 24  1  0
 24 28  1  0
 24 25  2  0
 26 29  1  0
 27 26  2  0
M  END
$$$$
