EFD.pdb
     RDKit          3D

 29 29  0  0  1  0  0  0  0  0999 V2000
   19.7977  -12.9480  -18.8815 N   0  0  0  0  0  0  0  0  0  0  0  0
   20.3016  -11.6237  -19.0493 C   0  0  1  0  0  0  0  0  0  0  0  0
   19.6037  -10.8422  -20.1294 C   0  0  0  0  0  0  0  0  0  0  0  0
   19.9423  -11.3306  -21.5143 C   0  0  0  0  0  0  0  0  0  0  0  0
   21.3559  -11.2281  -21.8473 C   0  0  0  0  0  0  0  0  0  0  0  0
   21.9314  -10.1205  -21.8371 O   0  0  0  0  0  0  0  0  0  0  0  0
   20.1443  -10.8768  -17.7737 C   0  0  0  0  0  0  0  0  0  0  0  0
   19.1568  -11.0928  -16.9989 O   0  0  0  0  0  0  0  0  0  0  0  0
   22.0831  -12.3516  -22.1793 O   0  0  0  0  0  0  0  0  0  0  0  0
   21.0665   -9.8879  -17.3368 N   0  0  0  0  0  0  0  0  0  0  0  0
   20.8806   -9.1527  -16.0861 C   0  0  1  0  0  0  0  0  0  0  0  0
   22.2567   -8.9665  -15.4938 C   0  0  0  0  0  0  0  0  0  0  0  0
   22.2229   -8.2149  -14.2325 C   0  0  0  0  0  0  0  0  0  0  0  0
   22.3512   -6.8258  -14.2046 C   0  0  0  0  0  0  0  0  0  0  0  0
   22.3184   -6.1218  -13.0266 C   0  0  0  0  0  0  0  0  0  0  0  0
   22.1547   -6.8043  -11.8405 C   0  0  0  0  0  0  0  0  0  0  0  0
   22.0235   -8.1898  -11.8287 C   0  0  0  0  0  0  0  0  0  0  0  0
   22.0598   -8.8694  -13.0220 C   0  0  0  0  0  0  0  0  0  0  0  0
   20.1437   -7.9026  -16.2951 C   0  0  0  0  0  0  0  0  0  0  0  0
   20.4136   -7.1282  -17.2428 O   0  0  0  0  0  0  0  0  0  0  0  0
   19.0762   -7.4968  -15.4303 N   0  0  0  0  0  0  0  0  0  0  0  0
   18.3752   -6.2237  -15.6175 C   0  0  1  0  0  0  0  0  0  0  0  0
   16.9193   -6.3861  -15.2865 C   0  0  0  0  0  0  0  0  0  0  0  0
   16.1929   -5.1221  -15.3788 C   0  0  0  0  0  0  0  0  0  0  0  0
   16.5955   -4.2002  -16.1099 O   0  0  0  0  0  0  0  0  0  0  0  0
   19.0717   -5.2188  -14.7811 C   0  0  0  0  0  0  0  0  0  0  0  0
   19.7149   -5.5826  -13.7685 O   0  0  0  0  0  0  0  0  0  0  0  0
   15.0305   -4.9466  -14.6358 O   0  0  0  0  0  0  0  0  0  0  0  0
   19.0494   -3.8604  -15.0669 O   0  0  0  0  0  0  0  0  0  0  0  0
  2  1  1  1
  2  7  1  0
  2  3  1  0
  4  3  1  0
  4  5  1  0
  5  6  2  0
  5  9  1  0
  7  8  2  0
 10 11  1  0
 10  7  1  0
 11 12  1  6
 13 14  2  0
 13 12  1  0
 15 14  1  0
 16 15  2  0
 17 16  1  0
 17 18  2  0
 18 13  1  0
 19 11  1  0
 20 19  2  0
 21 19  1  0
 22 26  1  0
 22 21  1  0
 22 23  1  1
 23 24  1  0
 24 28  1  0
 24 25  2  0
 26 29  1  0
 27 26  2  0
M  END
$$$$
