EFD.pdb
     RDKit          3D

 29 29  0  0  1  0  0  0  0  0999 V2000
   22.4491  -33.9964   -5.6658 N   0  0  0  0  0  0  0  0  0  0  0  0
   21.9801  -33.6819   -4.3555 C   0  0  1  0  0  0  0  0  0  0  0  0
   20.9096  -34.6136   -3.8552 C   0  0  0  0  0  0  0  0  0  0  0  0
   21.0976  -36.0297   -4.3352 C   0  0  0  0  0  0  0  0  0  0  0  0
   21.3438  -36.9875   -3.2667 C   0  0  0  0  0  0  0  0  0  0  0  0
   20.4105  -37.3729   -2.5327 O   0  0  0  0  0  0  0  0  0  0  0  0
   23.1190  -33.7441   -3.4020 C   0  0  0  0  0  0  0  0  0  0  0  0
   24.3045  -33.9804   -3.8031 O   0  0  0  0  0  0  0  0  0  0  0  0
   22.6107  -37.4853   -3.0470 O   0  0  0  0  0  0  0  0  0  0  0  0
   22.9685  -33.5483   -2.0026 N   0  0  0  0  0  0  0  0  0  0  0  0
   24.1197  -33.4216   -1.1091 C   0  0  1  0  0  0  0  0  0  0  0  0
   23.8696  -32.1953   -0.2649 C   0  0  0  0  0  0  0  0  0  0  0  0
   24.0477  -30.9509   -1.0242 C   0  0  0  0  0  0  0  0  0  0  0  0
   22.9816  -30.0852   -1.2710 C   0  0  0  0  0  0  0  0  0  0  0  0
   23.1468  -28.9210   -1.9792 C   0  0  0  0  0  0  0  0  0  0  0  0
   24.3977  -28.5985   -2.4592 C   0  0  0  0  0  0  0  0  0  0  0  0
   25.4851  -29.4371   -2.2330 C   0  0  0  0  0  0  0  0  0  0  0  0
   25.2917  -30.5960   -1.5211 C   0  0  0  0  0  0  0  0  0  0  0  0
   24.3442  -34.6465   -0.3354 C   0  0  0  0  0  0  0  0  0  0  0  0
   23.4038  -35.2506    0.2314 O   0  0  0  0  0  0  0  0  0  0  0  0
   25.6479  -35.2206   -0.1840 N   0  0  0  0  0  0  0  0  0  0  0  0
   25.8923  -36.3493    0.7181 C   0  0  1  0  0  0  0  0  0  0  0  0
   27.3256  -36.7861    0.6168 C   0  0  0  0  0  0  0  0  0  0  0  0
   27.6047  -37.9464    1.4592 C   0  0  0  0  0  0  0  0  0  0  0  0
   28.1606  -37.8206    2.5645 O   0  0  0  0  0  0  0  0  0  0  0  0
   25.4932  -35.9123    2.0762 C   0  0  0  0  0  0  0  0  0  0  0  0
   25.0249  -36.7427    2.8901 O   0  0  0  0  0  0  0  0  0  0  0  0
   27.2425  -39.2143    1.0173 O   0  0  0  0  0  0  0  0  0  0  0  0
   25.6137  -34.5978    2.5063 O   0  0  0  0  0  0  0  0  0  0  0  0
  2  1  1  6
  2  7  1  0
  2  3  1  0
  4  3  1  0
  4  5  1  0
  5  6  2  0
  5  9  1  0
  7  8  2  0
 10 11  1  0
 10  7  1  0
 11 12  1  1
 13 14  2  0
 13 12  1  0
 15 14  1  0
 16 15  2  0
 17 16  1  0
 17 18  2  0
 18 13  1  0
 19 11  1  0
 20 19  2  0
 21 19  1  0
 22 26  1  0
 22 21  1  0
 22 23  1  1
 23 24  1  0
 24 28  1  0
 24 25  2  0
 26 29  1  0
 27 26  2  0
M  END
$$$$
