EFD.pdb
     RDKit          3D

 29 29  0  0  1  0  0  0  0  0999 V2000
   28.9484  -21.5735  -14.3825 N   0  0  0  0  0  0  0  0  0  0  0  0
   28.0177  -20.4928  -14.3452 C   0  0  1  0  0  0  0  0  0  0  0  0
   27.6268  -19.9826  -15.7059 C   0  0  0  0  0  0  0  0  0  0  0  0
   26.7069  -18.7907  -15.6398 C   0  0  0  0  0  0  0  0  0  0  0  0
   27.3450  -17.5319  -15.9976 C   0  0  0  0  0  0  0  0  0  0  0  0
   27.3090  -17.1140  -17.1733 O   0  0  0  0  0  0  0  0  0  0  0  0
   26.7795  -20.9390  -13.6540 C   0  0  0  0  0  0  0  0  0  0  0  0
   26.2282  -22.0513  -13.9384 O   0  0  0  0  0  0  0  0  0  0  0  0
   27.9996  -16.7799  -15.0449 O   0  0  0  0  0  0  0  0  0  0  0  0
   26.1357  -20.1710  -12.6465 N   0  0  0  0  0  0  0  0  0  0  0  0
   25.0366  -20.7087  -11.8451 C   0  0  1  0  0  0  0  0  0  0  0  0
   25.0347  -19.9321  -10.5506 C   0  0  0  0  0  0  0  0  0  0  0  0
   26.1791  -20.2726   -9.6954 C   0  0  0  0  0  0  0  0  0  0  0  0
   26.9615  -21.4026   -9.9354 C   0  0  0  0  0  0  0  0  0  0  0  0
   28.0323  -21.7213   -9.1378 C   0  0  0  0  0  0  0  0  0  0  0  0
   28.3428  -20.9044   -8.0722 C   0  0  0  0  0  0  0  0  0  0  0  0
   27.5854  -19.7687   -7.8014 C   0  0  0  0  0  0  0  0  0  0  0  0
   26.5191  -19.4732   -8.6157 C   0  0  0  0  0  0  0  0  0  0  0  0
   23.7637  -20.6667  -12.5713 C   0  0  0  0  0  0  0  0  0  0  0  0
   23.4521  -19.6968  -13.3012 O   0  0  0  0  0  0  0  0  0  0  0  0
   22.8065  -21.7293  -12.4878 N   0  0  0  0  0  0  0  0  0  0  0  0
   21.5331  -21.6772  -13.2110 C   0  0  1  0  0  0  0  0  0  0  0  0
   20.9615  -23.0596  -13.3439 C   0  0  0  0  0  0  0  0  0  0  0  0
   19.6238  -23.0445  -13.9306 C   0  0  0  0  0  0  0  0  0  0  0  0
   18.6674  -22.5134  -13.3391 O   0  0  0  0  0  0  0  0  0  0  0  0
   20.6570  -20.7341  -12.4775 C   0  0  0  0  0  0  0  0  0  0  0  0
   19.7985  -20.0636  -13.0978 O   0  0  0  0  0  0  0  0  0  0  0  0
   19.4160  -23.6344  -15.1727 O   0  0  0  0  0  0  0  0  0  0  0  0
   20.7387  -20.5491  -11.1040 O   0  0  0  0  0  0  0  0  0  0  0  0
  2  1  1  6
  2  7  1  0
  2  3  1  0
  4  3  1  0
  4  5  1  0
  5  6  2  0
  5  9  1  0
  7  8  2  0
 10 11  1  0
 10  7  1  0
 11 12  1  1
 13 14  2  0
 13 12  1  0
 15 14  1  0
 16 15  2  0
 17 16  1  0
 17 18  2  0
 18 13  1  0
 19 11  1  0
 20 19  2  0
 21 19  1  0
 22 26  1  0
 22 21  1  0
 22 23  1  1
 23 24  1  0
 24 28  1  0
 24 25  2  0
 26 29  1  0
 27 26  2  0
M  END
$$$$
