EFD.pdb
     RDKit          3D

 29 29  0  0  1  0  0  0  0  0999 V2000
   16.1722  -19.1480    2.5299 N   0  0  0  0  0  0  0  0  0  0  0  0
   15.8110  -18.2878    3.6094 C   0  0  1  0  0  0  0  0  0  0  0  0
   15.3552  -19.0210    4.8420 C   0  0  0  0  0  0  0  0  0  0  0  0
   14.0756  -19.7869    4.6254 C   0  0  0  0  0  0  0  0  0  0  0  0
   13.0210  -19.4545    5.5727 C   0  0  0  0  0  0  0  0  0  0  0  0
   12.7694  -18.2637    5.8498 O   0  0  0  0  0  0  0  0  0  0  0  0
   16.9845  -17.4554    3.9834 C   0  0  0  0  0  0  0  0  0  0  0  0
   18.1744  -17.8623    3.7820 O   0  0  0  0  0  0  0  0  0  0  0  0
   12.2824  -20.4482    6.1796 O   0  0  0  0  0  0  0  0  0  0  0  0
   16.8641  -16.1716    4.5807 N   0  0  0  0  0  0  0  0  0  0  0  0
   18.0293  -15.4227    5.0510 C   0  0  1  0  0  0  0  0  0  0  0  0
   17.7197  -13.9638    4.8171 C   0  0  0  0  0  0  0  0  0  0  0  0
   18.8000  -13.0840    5.2816 C   0  0  0  0  0  0  0  0  0  0  0  0
   18.7749  -12.5007    6.5489 C   0  0  0  0  0  0  0  0  0  0  0  0
   19.7846  -11.6793    6.9851 C   0  0  0  0  0  0  0  0  0  0  0  0
   20.8507  -11.4237    6.1499 C   0  0  0  0  0  0  0  0  0  0  0  0
   20.9105  -11.9875    4.8789 C   0  0  0  0  0  0  0  0  0  0  0  0
   19.8865  -12.8058    4.4678 C   0  0  0  0  0  0  0  0  0  0  0  0
   18.3604  -15.7499    6.4411 C   0  0  0  0  0  0  0  0  0  0  0  0
   17.4716  -15.9477    7.3022 O   0  0  0  0  0  0  0  0  0  0  0  0
   19.7153  -15.8618    6.8927 N   0  0  0  0  0  0  0  0  0  0  0  0
   20.0393  -16.1380    8.2950 C   0  0  1  0  0  0  0  0  0  0  0  0
   21.3172  -16.9222    8.3815 C   0  0  0  0  0  0  0  0  0  0  0  0
   21.6223  -17.3214    9.7532 C   0  0  0  0  0  0  0  0  0  0  0  0
   22.1381  -18.4250   10.0028 O   0  0  0  0  0  0  0  0  0  0  0  0
   20.0888  -14.8322    8.9931 C   0  0  0  0  0  0  0  0  0  0  0  0
   20.8942  -13.9490    8.6154 O   0  0  0  0  0  0  0  0  0  0  0  0
   21.3308  -16.4517   10.7985 O   0  0  0  0  0  0  0  0  0  0  0  0
   19.2691  -14.5272   10.0713 O   0  0  0  0  0  0  0  0  0  0  0  0
  2  1  1  6
  2  7  1  0
  2  3  1  0
  4  3  1  0
  4  5  1  0
  5  6  2  0
  5  9  1  0
  7  8  2  0
 10 11  1  0
 10  7  1  0
 11 12  1  1
 13 14  2  0
 13 12  1  0
 15 14  1  0
 16 15  2  0
 17 16  1  0
 17 18  2  0
 18 13  1  0
 19 11  1  0
 20 19  2  0
 21 19  1  0
 22 26  1  0
 22 21  1  0
 22 23  1  6
 23 24  1  0
 24 28  1  0
 24 25  2  0
 26 29  1  0
 27 26  2  0
M  END
$$$$
