EFD.pdb
     RDKit          3D

 29 29  0  0  1  0  0  0  0  0999 V2000
   27.5487  -21.8149  -16.3724 N   0  0  0  0  0  0  0  0  0  0  0  0
   27.7034  -20.7863  -15.3958 C   0  0  1  0  0  0  0  0  0  0  0  0
   27.2161  -19.4381  -15.8533 C   0  0  0  0  0  0  0  0  0  0  0  0
   26.6045  -19.4752  -17.2302 C   0  0  0  0  0  0  0  0  0  0  0  0
   27.5523  -19.2149  -18.3044 C   0  0  0  0  0  0  0  0  0  0  0  0
   27.7643  -18.0483  -18.6945 O   0  0  0  0  0  0  0  0  0  0  0  0
   26.9407  -21.1549  -14.1742 C   0  0  0  0  0  0  0  0  0  0  0  0
   25.8210  -21.7571  -14.2509 O   0  0  0  0  0  0  0  0  0  0  0  0
   28.2316  -20.2514  -18.9089 O   0  0  0  0  0  0  0  0  0  0  0  0
   27.3978  -20.8670  -12.8599 N   0  0  0  0  0  0  0  0  0  0  0  0
   26.5747  -21.1252  -11.6786 C   0  0  1  0  0  0  0  0  0  0  0  0
   27.4604  -20.8788  -10.4812 C   0  0  0  0  0  0  0  0  0  0  0  0
   26.6868  -20.6018   -9.2640 C   0  0  0  0  0  0  0  0  0  0  0  0
   25.5402  -21.3297   -8.9441 C   0  0  0  0  0  0  0  0  0  0  0  0
   24.8169  -21.0729   -7.8060 C   0  0  0  0  0  0  0  0  0  0  0  0
   25.2336  -20.0703   -6.9571 C   0  0  0  0  0  0  0  0  0  0  0  0
   26.3724  -19.3231   -7.2429 C   0  0  0  0  0  0  0  0  0  0  0  0
   27.0775  -19.6011   -8.3887 C   0  0  0  0  0  0  0  0  0  0  0  0
   25.3447  -20.3275  -11.6887 C   0  0  0  0  0  0  0  0  0  0  0  0
   25.3700  -19.0752  -11.6486 O   0  0  0  0  0  0  0  0  0  0  0  0
   24.0476  -20.9330  -11.7449 N   0  0  0  0  0  0  0  0  0  0  0  0
   22.8276  -20.1301  -11.8645 C   0  0  1  0  0  0  0  0  0  0  0  0
   22.7391  -19.5331  -13.2397 C   0  0  0  0  0  0  0  0  0  0  0  0
   21.4966  -18.7900  -13.4346 C   0  0  0  0  0  0  0  0  0  0  0  0
   21.0142  -18.0926  -12.5250 O   0  0  0  0  0  0  0  0  0  0  0  0
   21.6909  -21.0160  -11.5212 C   0  0  0  0  0  0  0  0  0  0  0  0
   21.8562  -22.2576  -11.4703 O   0  0  0  0  0  0  0  0  0  0  0  0
   20.8416  -18.8637  -14.6592 O   0  0  0  0  0  0  0  0  0  0  0  0
   20.4194  -20.5313  -11.2458 O   0  0  0  0  0  0  0  0  0  0  0  0
  2  1  1  6
  2  7  1  0
  2  3  1  0
  4  3  1  0
  4  5  1  0
  5  6  2  0
  5  9  1  0
  7  8  2  0
 10 11  1  0
 10  7  1  0
 11 12  1  1
 13 14  2  0
 13 12  1  0
 15 14  1  0
 16 15  2  0
 17 16  1  0
 17 18  2  0
 18 13  1  0
 19 11  1  0
 20 19  2  0
 21 19  1  0
 22 26  1  0
 22 21  1  0
 22 23  1  6
 23 24  1  0
 24 28  1  0
 24 25  2  0
 26 29  1  0
 27 26  2  0
M  END
$$$$
