EFD.pdb
     RDKit          3D

 29 29  0  0  1  0  0  0  0  0999 V2000
   23.4689  -12.7946  -18.2600 N   0  0  0  0  0  0  0  0  0  0  0  0
   23.1006  -11.4973  -18.7258 C   0  0  1  0  0  0  0  0  0  0  0  0
   21.6737  -11.4042  -19.1948 C   0  0  0  0  0  0  0  0  0  0  0  0
   21.3316  -10.0484  -19.7567 C   0  0  0  0  0  0  0  0  0  0  0  0
   19.9614   -9.9367  -20.2361 C   0  0  0  0  0  0  0  0  0  0  0  0
   19.3699   -8.8376  -20.2161 O   0  0  0  0  0  0  0  0  0  0  0  0
   23.2827  -10.5141  -17.6257 C   0  0  0  0  0  0  0  0  0  0  0  0
   22.8056  -10.7265  -16.4641 O   0  0  0  0  0  0  0  0  0  0  0  0
   19.2938  -11.0418  -20.7203 O   0  0  0  0  0  0  0  0  0  0  0  0
   23.9882   -9.2915  -17.7891 N   0  0  0  0  0  0  0  0  0  0  0  0
   24.2559   -8.3945  -16.6651 C   0  0  1  0  0  0  0  0  0  0  0  0
   25.7509   -8.1869  -16.6336 C   0  0  0  0  0  0  0  0  0  0  0  0
   26.4836   -9.4445  -16.4373 C   0  0  0  0  0  0  0  0  0  0  0  0
   27.3200   -9.9660  -17.4249 C   0  0  0  0  0  0  0  0  0  0  0  0
   28.0067  -11.1405  -17.2423 C   0  0  0  0  0  0  0  0  0  0  0  0
   27.8665  -11.8226  -16.0530 C   0  0  0  0  0  0  0  0  0  0  0  0
   27.0412  -11.3335  -15.0448 C   0  0  0  0  0  0  0  0  0  0  0  0
   26.3657  -10.1558  -15.2539 C   0  0  0  0  0  0  0  0  0  0  0  0
   23.4804   -7.1543  -16.7631 C   0  0  0  0  0  0  0  0  0  0  0  0
   23.0750   -6.7149  -17.8646 O   0  0  0  0  0  0  0  0  0  0  0  0
   23.1429   -6.3765  -15.6084 N   0  0  0  0  0  0  0  0  0  0  0  0
   22.2322   -5.2315  -15.6905 C   0  0  1  0  0  0  0  0  0  0  0  0
   20.9176   -5.6623  -16.2751 C   0  0  0  0  0  0  0  0  0  0  0  0
   19.9404   -4.5765  -16.2835 C   0  0  0  0  0  0  0  0  0  0  0  0
   20.2162   -3.4661  -16.7706 O   0  0  0  0  0  0  0  0  0  0  0  0
   22.1246   -4.6651  -14.3258 C   0  0  0  0  0  0  0  0  0  0  0  0
   22.2062   -5.4172  -13.3262 O   0  0  0  0  0  0  0  0  0  0  0  0
   18.6793   -4.7884  -15.7369 O   0  0  0  0  0  0  0  0  0  0  0  0
   21.9334   -3.3105  -14.0893 O   0  0  0  0  0  0  0  0  0  0  0  0
  2  1  1  1
  2  7  1  0
  2  3  1  0
  4  3  1  0
  4  5  1  0
  5  6  2  0
  5  9  1  0
  7  8  2  0
 10 11  1  0
 10  7  1  0
 11 12  1  6
 13 14  2  0
 13 12  1  0
 15 14  1  0
 16 15  2  0
 17 16  1  0
 17 18  2  0
 18 13  1  0
 19 11  1  0
 20 19  2  0
 21 19  1  0
 22 26  1  0
 22 21  1  0
 22 23  1  1
 23 24  1  0
 24 28  1  0
 24 25  2  0
 26 29  1  0
 27 26  2  0
M  END
$$$$
