TSE.pdb
     RDKit          3D

 23 22  0  0  1  0  0  0  0  0999 V2000
   14.9077   -9.9477  -14.6524 C   0  0  0  0  0  0  0  0  0  0  0  0
   15.8548  -10.9322  -15.3101 C   0  0  1  0  0  0  0  0  0  0  0  0
   15.1451  -11.7396  -16.1617 O   0  0  0  0  0  0  0  0  0  0  0  0
   16.9452  -10.1520  -15.9907 C   0  0  2  0  0  0  0  0  0  0  0  0
   17.5778  -11.0056  -16.9762 N   0  0  0  0  0  0  0  0  0  0  0  0
   17.9363   -9.6051  -15.0608 C   0  0  0  0  0  0  0  0  0  0  0  0
   17.6833   -8.8761  -14.0816 O   0  0  0  0  0  0  0  0  0  0  0  0
   21.9427  -10.1948  -16.0883 O   0  0  0  0  0  0  0  0  0  0  0  0
   21.7247   -9.9509  -14.7315 C   0  0  0  0  0  0  0  0  0  0  0  0
   20.3733   -9.3054  -14.4964 C   0  0  2  0  0  0  0  0  0  0  0  0
   19.3282   -9.9164  -15.2660 N   0  0  0  0  0  0  0  0  0  0  0  0
   20.4998   -7.8992  -14.9638 C   0  0  0  0  0  0  0  0  0  0  0  0
   19.9699   -7.5423  -16.0441 O   0  0  0  0  0  0  0  0  0  0  0  0
   21.1985   -6.9009  -14.2534 N   0  0  0  0  0  0  0  0  0  0  0  0
   21.3027   -5.5255  -14.7243 C   0  0  1  0  0  0  0  0  0  0  0  0
   19.9706   -4.8915  -14.9282 C   0  0  0  0  0  0  0  0  0  0  0  0
   19.9674   -3.4306  -15.2081 C   0  0  0  0  0  0  0  0  0  0  0  0
   18.6273   -2.8195  -15.2701 C   0  0  0  0  0  0  0  0  0  0  0  0
   17.6381   -3.1694  -14.6065 O   0  0  0  0  0  0  0  0  0  0  0  0
   22.1966   -4.7943  -13.8134 C   0  0  0  0  0  0  0  0  0  0  0  0
   22.3328   -5.1850  -12.6392 O   0  0  0  0  0  0  0  0  0  0  0  0
   18.4405   -1.7466  -16.1533 O   0  0  0  0  0  0  0  0  0  0  0  0
   22.9240   -3.6582  -14.1883 O   0  0  0  0  0  0  0  0  0  0  0  0
  2  1  1  6
  2  3  1  0
  4  2  1  0
  4  5  1  6
  6  4  1  0
  7  6  2  0
  9  8  1  0
 10  9  1  6
 10 11  1  0
 10 12  1  0
 11  6  1  0
 12 14  1  0
 13 12  2  0
 14 15  1  0
 15 16  1  1
 15 20  1  0
 16 17  1  0
 17 18  1  0
 18 22  1  0
 19 18  2  0
 20 23  1  0
 21 20  2  0
M  END
$$$$
