TSE.pdb
     RDKit          3D

 23 22  0  0  1  0  0  0  0  0999 V2000
   24.7736  -13.0173  -15.4025 C   0  0  0  0  0  0  0  0  0  0  0  0
   24.0751  -11.7208  -15.7634 C   0  0  1  0  0  0  0  0  0  0  0  0
   24.7391  -11.1266  -16.8058 O   0  0  0  0  0  0  0  0  0  0  0  0
   22.6356  -12.0315  -16.0667 C   0  0  2  0  0  0  0  0  0  0  0  0
   22.5881  -12.9650  -17.1742 N   0  0  0  0  0  0  0  0  0  0  0  0
   21.8313  -10.8410  -16.3527 C   0  0  0  0  0  0  0  0  0  0  0  0
   21.5496  -10.4156  -17.4902 O   0  0  0  0  0  0  0  0  0  0  0  0
   19.4914   -9.3237  -13.3248 O   0  0  0  0  0  0  0  0  0  0  0  0
   19.2664   -8.8614  -14.6224 C   0  0  0  0  0  0  0  0  0  0  0  0
   20.5408   -8.8776  -15.4432 C   0  0  2  0  0  0  0  0  0  0  0  0
   21.3065  -10.0753  -15.2505 N   0  0  0  0  0  0  0  0  0  0  0  0
   21.3657   -7.7433  -14.9486 C   0  0  0  0  0  0  0  0  0  0  0  0
   22.3195   -7.9521  -14.1600 O   0  0  0  0  0  0  0  0  0  0  0  0
   21.1447   -6.3995  -15.3163 N   0  0  0  0  0  0  0  0  0  0  0  0
   22.0476   -5.3201  -14.9366 C   0  0  1  0  0  0  0  0  0  0  0  0
   21.8331   -4.0880  -15.7454 C   0  0  0  0  0  0  0  0  0  0  0  0
   22.6463   -2.8998  -15.3720 C   0  0  0  0  0  0  0  0  0  0  0  0
   22.3131   -1.6695  -16.1126 C   0  0  0  0  0  0  0  0  0  0  0  0
   22.8334   -0.5554  -15.9414 O   0  0  0  0  0  0  0  0  0  0  0  0
   21.9441   -5.1245  -13.4825 C   0  0  0  0  0  0  0  0  0  0  0  0
   20.8540   -5.3137  -12.9117 O   0  0  0  0  0  0  0  0  0  0  0  0
   21.3220   -1.7519  -17.1010 O   0  0  0  0  0  0  0  0  0  0  0  0
   23.0180   -4.7293  -12.6756 O   0  0  0  0  0  0  0  0  0  0  0  0
  2  1  1  6
  2  3  1  0
  4  2  1  0
  4  5  1  6
  6  4  1  0
  7  6  2  0
  9  8  1  0
 10  9  1  1
 10 11  1  0
 10 12  1  0
 11  6  1  0
 12 14  1  0
 13 12  2  0
 14 15  1  0
 15 16  1  6
 15 20  1  0
 16 17  1  0
 17 18  1  0
 18 22  1  0
 19 18  2  0
 20 23  1  0
 21 20  2  0
M  END
$$$$
