TSE.pdb
     RDKit          3D

 23 22  0  0  1  0  0  0  0  0999 V2000
   14.6601   -7.7671  -13.3323 C   0  0  0  0  0  0  0  0  0  0  0  0
   14.4418   -8.1162  -11.8730 C   0  0  1  0  0  0  0  0  0  0  0  0
   13.1447   -7.8310  -11.5309 O   0  0  0  0  0  0  0  0  0  0  0  0
   14.8120   -9.5600  -11.6751 C   0  0  2  0  0  0  0  0  0  0  0  0
   14.5090   -9.9311  -10.3074 N   0  0  0  0  0  0  0  0  0  0  0  0
   16.2112   -9.8510  -11.9971 C   0  0  0  0  0  0  0  0  0  0  0  0
   17.1942   -9.5345  -11.2987 O   0  0  0  0  0  0  0  0  0  0  0  0
   17.7909  -13.2293  -14.0644 O   0  0  0  0  0  0  0  0  0  0  0  0
   17.9179  -11.9698  -14.6522 C   0  0  0  0  0  0  0  0  0  0  0  0
   17.8545  -10.8669  -13.6142 C   0  0  2  0  0  0  0  0  0  0  0  0
   16.5111  -10.5612  -13.2145 N   0  0  0  0  0  0  0  0  0  0  0  0
   18.4068   -9.6509  -14.2685 C   0  0  0  0  0  0  0  0  0  0  0  0
   17.6907   -8.9683  -15.0407 O   0  0  0  0  0  0  0  0  0  0  0  0
   19.7270   -9.1929  -14.0761 N   0  0  0  0  0  0  0  0  0  0  0  0
   20.2501   -7.9999  -14.7297 C   0  0  1  0  0  0  0  0  0  0  0  0
   20.8133   -7.0202  -13.7595 C   0  0  0  0  0  0  0  0  0  0  0  0
   21.3725   -5.7664  -14.3321 C   0  0  0  0  0  0  0  0  0  0  0  0
   21.9824   -4.8580  -13.3443 C   0  0  0  0  0  0  0  0  0  0  0  0
   22.5961   -5.2033  -12.3218 O   0  0  0  0  0  0  0  0  0  0  0  0
   21.1842   -8.4253  -15.7833 C   0  0  0  0  0  0  0  0  0  0  0  0
   21.7804   -9.5129  -15.6753 O   0  0  0  0  0  0  0  0  0  0  0  0
   21.8660   -3.4787  -13.5683 O   0  0  0  0  0  0  0  0  0  0  0  0
   21.4551   -7.6689  -16.9300 O   0  0  0  0  0  0  0  0  0  0  0  0
  2  1  1  6
  2  3  1  0
  4  2  1  0
  4  5  1  1
  6  4  1  0
  7  6  2  0
  9  8  1  0
 10  9  1  6
 10 11  1  0
 10 12  1  0
 11  6  1  0
 12 14  1  0
 13 12  2  0
 14 15  1  0
 15 16  1  1
 15 20  1  0
 16 17  1  0
 17 18  1  0
 18 22  1  0
 19 18  2  0
 20 23  1  0
 21 20  2  0
M  END
$$$$
