TSE.pdb
     RDKit          3D

 23 22  0  0  1  0  0  0  0  0999 V2000
   19.6170  -10.7412  -20.3220 C   0  0  0  0  0  0  0  0  0  0  0  0
   19.5945   -9.9646  -19.0198 C   0  0  1  0  0  0  0  0  0  0  0  0
   18.4596   -9.1960  -18.9734 O   0  0  0  0  0  0  0  0  0  0  0  0
   19.7026  -10.9460  -17.8858 C   0  0  2  0  0  0  0  0  0  0  0  0
   18.6490  -11.9311  -18.0255 N   0  0  0  0  0  0  0  0  0  0  0  0
   19.6556  -10.3154  -16.5644 C   0  0  0  0  0  0  0  0  0  0  0  0
   18.6351  -10.1908  -15.8592 O   0  0  0  0  0  0  0  0  0  0  0  0
   23.1833   -9.6705  -14.4474 O   0  0  0  0  0  0  0  0  0  0  0  0
   21.9501   -9.5074  -13.8146 C   0  0  0  0  0  0  0  0  0  0  0  0
   20.8900   -9.0268  -14.7859 C   0  0  2  0  0  0  0  0  0  0  0  0
   20.8724   -9.7849  -16.0036 N   0  0  0  0  0  0  0  0  0  0  0  0
   21.2579   -7.6304  -15.1418 C   0  0  0  0  0  0  0  0  0  0  0  0
   22.0279   -7.4062  -16.1072 O   0  0  0  0  0  0  0  0  0  0  0  0
   20.7856   -6.4979  -14.4461 N   0  0  0  0  0  0  0  0  0  0  0  0
   21.1206   -5.1351  -14.8398 C   0  0  1  0  0  0  0  0  0  0  0  0
   19.9403   -4.2274  -14.8081 C   0  0  0  0  0  0  0  0  0  0  0  0
   20.1912   -2.8012  -15.1484 C   0  0  0  0  0  0  0  0  0  0  0  0
   19.0208   -1.9178  -14.9964 C   0  0  0  0  0  0  0  0  0  0  0  0
   18.0834   -1.8092  -15.8031 O   0  0  0  0  0  0  0  0  0  0  0  0
   22.2598   -4.6879  -14.0239 C   0  0  0  0  0  0  0  0  0  0  0  0
   22.3973   -5.1249  -12.8663 O   0  0  0  0  0  0  0  0  0  0  0  0
   18.9483   -1.1248  -13.8424 O   0  0  0  0  0  0  0  0  0  0  0  0
   23.2257   -3.7796  -14.4739 O   0  0  0  0  0  0  0  0  0  0  0  0
  2  1  1  6
  2  3  1  0
  4  2  1  0
  4  5  1  1
  6  4  1  0
  7  6  2  0
  9  8  1  0
 10  9  1  1
 10 11  1  0
 10 12  1  0
 11  6  1  0
 12 14  1  0
 13 12  2  0
 14 15  1  0
 15 16  1  1
 15 20  1  0
 16 17  1  0
 17 18  1  0
 18 22  1  0
 19 18  2  0
 20 23  1  0
 21 20  2  0
M  END
$$$$
