TSE.pdb
     RDKit          3D

 23 22  0  0  1  0  0  0  0  0999 V2000
   18.0275  -10.7271  -20.2981 C   0  0  0  0  0  0  0  0  0  0  0  0
   18.2596  -11.7083  -19.1657 C   0  0  1  0  0  0  0  0  0  0  0  0
   18.3919  -12.9711  -19.6840 O   0  0  0  0  0  0  0  0  0  0  0  0
   19.4606  -11.2499  -18.3858 C   0  0  2  0  0  0  0  0  0  0  0  0
   19.9144  -12.3441  -17.5510 N   0  0  0  0  0  0  0  0  0  0  0  0
   19.2096  -10.0504  -17.5830 C   0  0  0  0  0  0  0  0  0  0  0  0
   18.7705   -8.9681  -18.0189 O   0  0  0  0  0  0  0  0  0  0  0  0
   20.2996  -10.0701  -13.4685 O   0  0  0  0  0  0  0  0  0  0  0  0
   19.1120   -9.4333  -13.8317 C   0  0  0  0  0  0  0  0  0  0  0  0
   19.1336   -9.0133  -15.2882 C   0  0  2  0  0  0  0  0  0  0  0  0
   19.4819  -10.0911  -16.1686 N   0  0  0  0  0  0  0  0  0  0  0  0
   20.2018   -7.9854  -15.4064 C   0  0  0  0  0  0  0  0  0  0  0  0
   21.2821   -8.2600  -15.9831 O   0  0  0  0  0  0  0  0  0  0  0  0
   20.0831   -6.6750  -14.8978 N   0  0  0  0  0  0  0  0  0  0  0  0
   21.1353   -5.6765  -15.0400 C   0  0  1  0  0  0  0  0  0  0  0  0
   20.6349   -4.4026  -15.6274 C   0  0  0  0  0  0  0  0  0  0  0  0
   21.5979   -3.2698  -15.6722 C   0  0  0  0  0  0  0  0  0  0  0  0
   21.0213   -1.9902  -16.1231 C   0  0  0  0  0  0  0  0  0  0  0  0
   19.8492   -1.8115  -16.4912 O   0  0  0  0  0  0  0  0  0  0  0  0
   21.8081   -5.5296  -13.7403 C   0  0  0  0  0  0  0  0  0  0  0  0
   22.8597   -4.8678  -13.6627 O   0  0  0  0  0  0  0  0  0  0  0  0
   21.8612   -0.8676  -16.1423 O   0  0  0  0  0  0  0  0  0  0  0  0
   21.3325   -6.0993  -12.5530 O   0  0  0  0  0  0  0  0  0  0  0  0
  2  1  1  6
  2  3  1  0
  4  2  1  0
  4  5  1  1
  6  4  1  0
  7  6  2  0
  9  8  1  0
 10  9  1  1
 10 11  1  0
 10 12  1  0
 11  6  1  0
 12 14  1  0
 13 12  2  0
 14 15  1  0
 15 16  1  1
 15 20  1  0
 16 17  1  0
 17 18  1  0
 18 22  1  0
 19 18  2  0
 20 23  1  0
 21 20  2  0
M  END
$$$$
