TSE.pdb
     RDKit          3D

 23 22  0  0  1  0  0  0  0  0999 V2000
   26.9852  -10.4295  -15.5034 C   0  0  0  0  0  0  0  0  0  0  0  0
   26.9100  -11.2691  -16.7637 C   0  0  1  0  0  0  0  0  0  0  0  0
   28.0028  -12.0957  -16.8199 O   0  0  0  0  0  0  0  0  0  0  0  0
   25.5990  -12.0053  -16.7600 C   0  0  2  0  0  0  0  0  0  0  0  0
   25.6011  -12.9577  -17.8522 N   0  0  0  0  0  0  0  0  0  0  0  0
   24.4346  -11.1201  -16.8418 C   0  0  0  0  0  0  0  0  0  0  0  0
   24.0448  -10.5320  -17.8697 O   0  0  0  0  0  0  0  0  0  0  0  0
   20.3535   -9.6130  -14.6493 O   0  0  0  0  0  0  0  0  0  0  0  0
   21.4848  -10.4286  -14.5958 C   0  0  0  0  0  0  0  0  0  0  0  0
   22.5027  -10.0309  -15.6465 C   0  0  2  0  0  0  0  0  0  0  0  0
   23.6526  -10.8885  -15.6538 N   0  0  0  0  0  0  0  0  0  0  0  0
   22.9711   -8.6694  -15.2741 C   0  0  0  0  0  0  0  0  0  0  0  0
   23.8820   -8.5253  -14.4228 O   0  0  0  0  0  0  0  0  0  0  0  0
   22.4453   -7.4844  -15.8300 N   0  0  0  0  0  0  0  0  0  0  0  0
   23.0008   -6.1671  -15.5463 C   0  0  1  0  0  0  0  0  0  0  0  0
   22.8904   -5.2411  -16.7075 C   0  0  0  0  0  0  0  0  0  0  0  0
   21.5224   -4.7695  -17.0520 C   0  0  0  0  0  0  0  0  0  0  0  0
   21.4589   -3.8612  -18.2114 C   0  0  0  0  0  0  0  0  0  0  0  0
   21.7964   -4.1415  -19.3728 O   0  0  0  0  0  0  0  0  0  0  0  0
   22.3901   -5.6685  -14.3046 C   0  0  0  0  0  0  0  0  0  0  0  0
   21.2771   -6.0990  -13.9497 O   0  0  0  0  0  0  0  0  0  0  0  0
   20.9762   -2.5625  -17.9962 O   0  0  0  0  0  0  0  0  0  0  0  0
   22.9926   -4.7169  -13.4727 O   0  0  0  0  0  0  0  0  0  0  0  0
  2  1  1  1
  2  3  1  0
  4  2  1  0
  4  5  1  6
  6  4  1  0
  7  6  2  0
  9  8  1  0
 10  9  1  1
 10 11  1  0
 10 12  1  0
 11  6  1  0
 12 14  1  0
 13 12  2  0
 14 15  1  0
 15 16  1  6
 15 20  1  0
 16 17  1  0
 17 18  1  0
 18 22  1  0
 19 18  2  0
 20 23  1  0
 21 20  2  0
M  END
$$$$
