TSE.pdb
     RDKit          3D

 23 22  0  0  1  0  0  0  0  0999 V2000
   26.3385  -10.6887  -15.0504 C   0  0  0  0  0  0  0  0  0  0  0  0
   26.3987  -11.3644  -16.4065 C   0  0  1  0  0  0  0  0  0  0  0  0
   27.3562  -12.3458  -16.3786 O   0  0  0  0  0  0  0  0  0  0  0  0
   25.0239  -11.8752  -16.7381 C   0  0  2  0  0  0  0  0  0  0  0  0
   25.1107  -12.6943  -17.9305 N   0  0  0  0  0  0  0  0  0  0  0  0
   24.0328  -10.8098  -16.9078 C   0  0  0  0  0  0  0  0  0  0  0  0
   24.0264   -9.9689  -17.8282 O   0  0  0  0  0  0  0  0  0  0  0  0
   19.6963   -9.1211  -15.3604 O   0  0  0  0  0  0  0  0  0  0  0  0
   20.6535  -10.1364  -15.3306 C   0  0  0  0  0  0  0  0  0  0  0  0
   21.9040   -9.7391  -16.0899 C   0  0  2  0  0  0  0  0  0  0  0  0
   22.9631  -10.6964  -15.9491 N   0  0  0  0  0  0  0  0  0  0  0  0
   22.3743   -8.4687  -15.4761 C   0  0  0  0  0  0  0  0  0  0  0  0
   23.0695   -8.4909  -14.4314 O   0  0  0  0  0  0  0  0  0  0  0  0
   22.0841   -7.1931  -16.0038 N   0  0  0  0  0  0  0  0  0  0  0  0
   22.5098   -5.9578  -15.3579 C   0  0  1  0  0  0  0  0  0  0  0  0
   22.3899   -4.7757  -16.2558 C   0  0  0  0  0  0  0  0  0  0  0  0
   22.7653   -3.4596  -15.6732 C   0  0  0  0  0  0  0  0  0  0  0  0
   22.5436   -2.3068  -16.5649 C   0  0  0  0  0  0  0  0  0  0  0  0
   22.7125   -1.1139  -16.2653 O   0  0  0  0  0  0  0  0  0  0  0  0
   21.7885   -5.8341  -14.0820 C   0  0  0  0  0  0  0  0  0  0  0  0
   22.3484   -5.2987  -13.1075 O   0  0  0  0  0  0  0  0  0  0  0  0
   22.1028   -2.5677  -17.8701 O   0  0  0  0  0  0  0  0  0  0  0  0
   20.4795   -6.2904  -13.8848 O   0  0  0  0  0  0  0  0  0  0  0  0
  2  1  1  1
  2  3  1  0
  4  2  1  0
  4  5  1  6
  6  4  1  0
  7  6  2  0
  9  8  1  0
 10  9  1  1
 10 11  1  0
 10 12  1  0
 11  6  1  0
 12 14  1  0
 13 12  2  0
 14 15  1  0
 15 16  1  6
 15 20  1  0
 16 17  1  0
 17 18  1  0
 18 22  1  0
 19 18  2  0
 20 23  1  0
 21 20  2  0
M  END
$$$$
