TSE.pdb
     RDKit          3D

 23 22  0  0  1  0  0  0  0  0999 V2000
   16.2484   -8.0070  -17.3418 C   0  0  0  0  0  0  0  0  0  0  0  0
   15.4949   -8.5656  -16.1505 C   0  0  1  0  0  0  0  0  0  0  0  0
   14.2700   -9.0214  -16.5659 O   0  0  0  0  0  0  0  0  0  0  0  0
   16.3465   -9.6276  -15.5120 C   0  0  2  0  0  0  0  0  0  0  0  0
   15.5423  -10.3430  -14.5417 N   0  0  0  0  0  0  0  0  0  0  0  0
   17.5655   -9.1014  -14.8930 C   0  0  0  0  0  0  0  0  0  0  0  0
   17.6040   -8.2566  -13.9770 O   0  0  0  0  0  0  0  0  0  0  0  0
   21.2389  -10.1007  -16.6596 O   0  0  0  0  0  0  0  0  0  0  0  0
   21.2693   -9.9484  -15.2726 C   0  0  0  0  0  0  0  0  0  0  0  0
   20.0820   -9.1456  -14.7788 C   0  0  2  0  0  0  0  0  0  0  0  0
   18.8431   -9.5791  -15.3578 N   0  0  0  0  0  0  0  0  0  0  0  0
   20.3127   -7.7470  -15.2285 C   0  0  0  0  0  0  0  0  0  0  0  0
   19.7158   -7.3013  -16.2386 O   0  0  0  0  0  0  0  0  0  0  0  0
   21.1868   -6.8521  -14.5766 N   0  0  0  0  0  0  0  0  0  0  0  0
   21.3086   -5.4509  -14.9587 C   0  0  1  0  0  0  0  0  0  0  0  0
   20.0046   -4.7329  -14.9118 C   0  0  0  0  0  0  0  0  0  0  0  0
   20.0505   -3.2604  -15.1173 C   0  0  0  0  0  0  0  0  0  0  0  0
   18.7660   -2.5695  -14.9032 C   0  0  0  0  0  0  0  0  0  0  0  0
   17.6737   -3.1180  -14.6859 O   0  0  0  0  0  0  0  0  0  0  0  0
   22.3723   -4.8434  -14.1446 C   0  0  0  0  0  0  0  0  0  0  0  0
   22.7013   -5.3728  -13.0669 O   0  0  0  0  0  0  0  0  0  0  0  0
   18.7648   -1.1680  -14.9463 O   0  0  0  0  0  0  0  0  0  0  0  0
   23.0580   -3.6785  -14.5101 O   0  0  0  0  0  0  0  0  0  0  0  0
  2  1  1  6
  2  3  1  0
  4  2  1  0
  4  5  1  1
  6  4  1  0
  7  6  2  0
  9  8  1  0
 10  9  1  6
 10 11  1  0
 10 12  1  0
 11  6  1  0
 12 14  1  0
 13 12  2  0
 14 15  1  0
 15 16  1  1
 15 20  1  0
 16 17  1  0
 17 18  1  0
 18 22  1  0
 19 18  2  0
 20 23  1  0
 21 20  2  0
M  END
$$$$
