TSE.pdb
     RDKit          3D

 23 22  0  0  1  0  0  0  0  0999 V2000
   13.5744   -7.1455  -12.1180 C   0  0  0  0  0  0  0  0  0  0  0  0
   13.4634   -7.5000  -10.6480 C   0  0  1  0  0  0  0  0  0  0  0  0
   12.1806   -7.2648  -10.2237 O   0  0  0  0  0  0  0  0  0  0  0  0
   13.9014   -8.9279  -10.4748 C   0  0  2  0  0  0  0  0  0  0  0  0
   13.6693   -9.3185   -9.0987 N   0  0  0  0  0  0  0  0  0  0  0  0
   15.2975   -9.1581  -10.8542 C   0  0  0  0  0  0  0  0  0  0  0  0
   16.2896   -8.6323  -10.3125 O   0  0  0  0  0  0  0  0  0  0  0  0
   15.9422  -11.4172  -14.2938 O   0  0  0  0  0  0  0  0  0  0  0  0
   16.9872  -11.4798  -13.3707 C   0  0  0  0  0  0  0  0  0  0  0  0
   16.9204  -10.3324  -12.3822 C   0  0  2  0  0  0  0  0  0  0  0  0
   15.5829  -10.0620  -11.9395 N   0  0  0  0  0  0  0  0  0  0  0  0
   17.3939   -9.1277  -13.1144 C   0  0  0  0  0  0  0  0  0  0  0  0
   16.5697   -8.3601  -13.6681 O   0  0  0  0  0  0  0  0  0  0  0  0
   18.7537   -8.7727  -13.2354 N   0  0  0  0  0  0  0  0  0  0  0  0
   19.1947   -7.5653  -13.9224 C   0  0  1  0  0  0  0  0  0  0  0  0
   20.3932   -6.9533  -13.2844 C   0  0  0  0  0  0  0  0  0  0  0  0
   20.9225   -5.7158  -13.9177 C   0  0  0  0  0  0  0  0  0  0  0  0
   22.1748   -5.2100  -13.3269 C   0  0  0  0  0  0  0  0  0  0  0  0
   22.9873   -4.4546  -13.8839 O   0  0  0  0  0  0  0  0  0  0  0  0
   19.3543   -7.8812  -15.3501 C   0  0  0  0  0  0  0  0  0  0  0  0
   19.6334   -9.0441  -15.6960 O   0  0  0  0  0  0  0  0  0  0  0  0
   22.4871   -5.6105  -12.0200 O   0  0  0  0  0  0  0  0  0  0  0  0
   19.2097   -6.9365  -16.3734 O   0  0  0  0  0  0  0  0  0  0  0  0
  2  1  1  6
  2  3  1  0
  4  2  1  0
  4  5  1  1
  6  4  1  0
  7  6  2  0
  9  8  1  0
 10  9  1  6
 10 11  1  0
 10 12  1  0
 11  6  1  0
 12 14  1  0
 13 12  2  0
 14 15  1  0
 15 16  1  1
 15 20  1  0
 16 17  1  0
 17 18  1  0
 18 22  1  0
 19 18  2  0
 20 23  1  0
 21 20  2  0
M  END
$$$$
