TSE.pdb
     RDKit          3D

 23 22  0  0  1  0  0  0  0  0999 V2000
   19.9978  -11.2402  -17.3799 C   0  0  0  0  0  0  0  0  0  0  0  0
   18.5751  -11.3107  -17.8993 C   0  0  1  0  0  0  0  0  0  0  0  0
   18.4437  -12.4130  -18.7045 O   0  0  0  0  0  0  0  0  0  0  0  0
   17.6438  -11.3143  -16.7188 C   0  0  2  0  0  0  0  0  0  0  0  0
   16.2990  -11.5740  -17.1922 N   0  0  0  0  0  0  0  0  0  0  0  0
   17.6917  -10.0767  -15.9363 C   0  0  0  0  0  0  0  0  0  0  0  0
   17.4281   -8.9377  -16.3691 O   0  0  0  0  0  0  0  0  0  0  0  0
   18.4602   -8.1446  -11.4880 O   0  0  0  0  0  0  0  0  0  0  0  0
   18.3610   -9.3033  -12.2598 C   0  0  0  0  0  0  0  0  0  0  0  0
   18.2212   -8.9752  -13.7332 C   0  0  2  0  0  0  0  0  0  0  0  0
   18.0709  -10.1463  -14.5479 N   0  0  0  0  0  0  0  0  0  0  0  0
   19.4951   -8.3206  -14.1338 C   0  0  0  0  0  0  0  0  0  0  0  0
   20.5010   -9.0157  -14.4170 O   0  0  0  0  0  0  0  0  0  0  0  0
   19.6597   -6.9224  -14.2217 N   0  0  0  0  0  0  0  0  0  0  0  0
   20.9092   -6.3012  -14.6425 C   0  0  1  0  0  0  0  0  0  0  0  0
   20.7477   -5.4731  -15.8699 C   0  0  0  0  0  0  0  0  0  0  0  0
   21.9454   -4.7150  -16.3207 C   0  0  0  0  0  0  0  0  0  0  0  0
   21.7022   -3.7930  -17.4450 C   0  0  0  0  0  0  0  0  0  0  0  0
   20.6408   -3.6862  -18.0799 O   0  0  0  0  0  0  0  0  0  0  0  0
   21.4772   -5.5849  -13.4903 C   0  0  0  0  0  0  0  0  0  0  0  0
   20.7464   -5.2928  -12.5256 O   0  0  0  0  0  0  0  0  0  0  0  0
   22.7557   -2.9572  -17.8420 O   0  0  0  0  0  0  0  0  0  0  0  0
   22.8204   -5.1992  -13.4033 O   0  0  0  0  0  0  0  0  0  0  0  0
  2  1  1  1
  2  3  1  0
  4  2  1  0
  4  5  1  6
  6  4  1  0
  7  6  2  0
  9  8  1  0
 10  9  1  1
 10 11  1  0
 10 12  1  0
 11  6  1  0
 12 14  1  0
 13 12  2  0
 14 15  1  0
 15 16  1  6
 15 20  1  0
 16 17  1  0
 17 18  1  0
 18 22  1  0
 19 18  2  0
 20 23  1  0
 21 20  2  0
M  END
$$$$
