TSE.pdb
     RDKit          3D

 23 22  0  0  1  0  0  0  0  0999 V2000
   19.0125   -9.4536  -19.7177 C   0  0  0  0  0  0  0  0  0  0  0  0
   18.1277  -10.4635  -19.0133 C   0  0  1  0  0  0  0  0  0  0  0  0
   17.4244  -11.1767  -19.9500 O   0  0  0  0  0  0  0  0  0  0  0  0
   18.9984  -11.3192  -18.1355 C   0  0  2  0  0  0  0  0  0  0  0  0
   18.2279  -12.4661  -17.6983 N   0  0  0  0  0  0  0  0  0  0  0  0
   19.5564  -10.5976  -16.9892 C   0  0  0  0  0  0  0  0  0  0  0  0
   18.8938   -9.9870  -16.1276 O   0  0  0  0  0  0  0  0  0  0  0  0
   23.6737   -9.6687  -14.4716 O   0  0  0  0  0  0  0  0  0  0  0  0
   23.0843  -10.3050  -15.5650 C   0  0  0  0  0  0  0  0  0  0  0  0
   21.6082   -9.9746  -15.6666 C   0  0  2  0  0  0  0  0  0  0  0  0
   20.9863  -10.5719  -16.8131 N   0  0  0  0  0  0  0  0  0  0  0  0
   21.5255   -8.4998  -15.8391 C   0  0  0  0  0  0  0  0  0  0  0  0
   21.7638   -7.9798  -16.9562 O   0  0  0  0  0  0  0  0  0  0  0  0
   21.1855   -7.6105  -14.7982 N   0  0  0  0  0  0  0  0  0  0  0  0
   21.1778   -6.1632  -14.9696 C   0  0  1  0  0  0  0  0  0  0  0  0
   19.8034   -5.6190  -15.1507 C   0  0  0  0  0  0  0  0  0  0  0  0
   19.6930   -4.1490  -15.3493 C   0  0  0  0  0  0  0  0  0  0  0  0
   18.3177   -3.6572  -15.5492 C   0  0  0  0  0  0  0  0  0  0  0  0
   17.3063   -4.3641  -15.6854 O   0  0  0  0  0  0  0  0  0  0  0  0
   21.9324   -5.5648  -13.8578 C   0  0  0  0  0  0  0  0  0  0  0  0
   22.1504   -6.2340  -12.8309 O   0  0  0  0  0  0  0  0  0  0  0  0
   18.1214   -2.2695  -15.5909 O   0  0  0  0  0  0  0  0  0  0  0  0
   22.4352   -4.2582  -13.8774 O   0  0  0  0  0  0  0  0  0  0  0  0
  2  1  1  6
  2  3  1  0
  4  2  1  0
  4  5  1  1
  6  4  1  0
  7  6  2  0
  9  8  1  0
 10  9  1  6
 10 11  1  0
 10 12  1  0
 11  6  1  0
 12 14  1  0
 13 12  2  0
 14 15  1  0
 15 16  1  1
 15 20  1  0
 16 17  1  0
 17 18  1  0
 18 22  1  0
 19 18  2  0
 20 23  1  0
 21 20  2  0
M  END
$$$$
