PFR.pdb
     RDKit          3D

 30 31  0  0  1  0  0  0  0  0999 V2000
   29.2304  -20.2515  -12.0473 N   0  0  0  0  0  0  0  0  0  0  0  0
   30.6962  -20.2315  -12.1401 C   0  0  0  0  0  0  0  0  0  0  0  0
   31.1909  -21.2136  -11.1199 C   0  0  0  0  0  0  0  0  0  0  0  0
   29.9361  -21.8143  -10.5152 C   0  0  0  0  0  0  0  0  0  0  0  0
   28.9338  -21.6035  -11.6274 C   0  0  1  0  0  0  0  0  0  0  0  0
   27.5466  -21.6874  -11.1699 C   0  0  0  0  0  0  0  0  0  0  0  0
   27.0177  -22.7382  -10.7154 O   0  0  0  0  0  0  0  0  0  0  0  0
   26.7209  -20.5372  -11.2275 N   0  0  0  0  0  0  0  0  0  0  0  0
   25.3756  -20.5118  -10.6783 C   0  0  1  0  0  0  0  0  0  0  0  0
   25.2057  -19.3544   -9.7232 C   0  0  0  0  0  0  0  0  0  0  0  0
   25.8364  -19.5327   -8.4210 C   0  0  0  0  0  0  0  0  0  0  0  0
   26.7204  -18.6104   -7.9084 C   0  0  0  0  0  0  0  0  0  0  0  0
   27.3175  -18.7628   -6.6808 C   0  0  0  0  0  0  0  0  0  0  0  0
   27.0316  -19.8737   -5.9228 C   0  0  0  0  0  0  0  0  0  0  0  0
   26.1503  -20.8190   -6.4042 C   0  0  0  0  0  0  0  0  0  0  0  0
   25.5573  -20.6397   -7.6552 C   0  0  0  0  0  0  0  0  0  0  0  0
   24.3569  -20.5140  -11.7632 C   0  0  0  0  0  0  0  0  0  0  0  0
   24.5189  -19.9443  -12.8586 O   0  0  0  0  0  0  0  0  0  0  0  0
   17.2122  -25.7441  -12.5153 N   0  0  0  0  0  0  0  0  0  0  0  0
   18.6128  -25.8981  -12.3349 C   0  0  0  0  0  0  0  0  0  0  0  0
   19.0240  -27.0771  -11.9416 N   0  0  0  0  0  0  0  0  0  0  0  0
   19.5484  -24.8511  -12.5596 N   0  0  0  0  0  0  0  0  0  0  0  0
   19.0166  -23.5769  -12.9945 C   0  0  0  0  0  0  0  0  0  0  0  0
   20.0001  -22.5077  -13.2108 C   0  0  0  0  0  0  0  0  0  0  0  0
   21.1551  -22.2869  -12.3694 C   0  0  0  0  0  0  0  0  0  0  0  0
   22.1297  -21.2233  -12.6948 C   0  0  2  0  0  0  0  0  0  0  0  0
   23.1369  -21.1922  -11.5576 N   0  0  0  0  0  0  0  0  0  0  0  0
   21.5351  -19.8847  -12.5835 C   0  0  0  0  0  0  0  0  0  0  0  0
   21.2318  -19.0577  -13.6233 O   0  0  0  0  0  0  0  0  0  0  0  0
   21.2713  -19.4222  -11.4224 O   0  0  0  0  0  0  0  0  0  0  0  0
  1  5  1  0
  2  1  1  0
  2  3  1  0
  3  4  1  0
  5  6  1  1
  5  4  1  0
  6  7  2  0
  8  6  1  0
  8  9  1  0
  9 10  1  6
 11 10  1  0
 12 11  2  0
 13 12  1  0
 14 15  1  0
 14 13  2  0
 15 16  2  0
 16 11  1  0
 17 27  1  0
 17  9  1  0
 18 17  2  0
 19 20  1  0
 20 22  1  0
 21 20  2  0
 22 23  1  0
 23 24  1  0
 24 25  1  0
 26 25  1  1
 26 27  1  0
 28 29  1  0
 28 26  1  0
 30 28  2  0
M  END
$$$$
