PFR.pdb
     RDKit          3D

 30 31  0  0  1  0  0  0  0  0999 V2000
   29.3570  -19.8923  -11.8399 N   0  0  0  0  0  0  0  0  0  0  0  0
   30.8155  -19.8883  -11.6648 C   0  0  0  0  0  0  0  0  0  0  0  0
   31.1653  -21.2156  -11.0601 C   0  0  0  0  0  0  0  0  0  0  0  0
   29.8492  -21.9647  -10.9735 C   0  0  0  0  0  0  0  0  0  0  0  0
   29.0438  -21.2873  -12.0592 C   0  0  1  0  0  0  0  0  0  0  0  0
   27.6031  -21.4998  -11.9189 C   0  0  0  0  0  0  0  0  0  0  0  0
   27.0507  -22.6325  -11.9672 O   0  0  0  0  0  0  0  0  0  0  0  0
   26.7491  -20.3875  -11.7155 N   0  0  0  0  0  0  0  0  0  0  0  0
   25.3229  -20.5299  -11.4753 C   0  0  1  0  0  0  0  0  0  0  0  0
   24.8704  -19.6159  -10.3615 C   0  0  0  0  0  0  0  0  0  0  0  0
   25.3987  -19.9434   -9.0429 C   0  0  0  0  0  0  0  0  0  0  0  0
   25.0157  -21.0800   -8.3675 C   0  0  0  0  0  0  0  0  0  0  0  0
   25.5097  -21.4039   -7.1273 C   0  0  0  0  0  0  0  0  0  0  0  0
   26.4223  -20.5710   -6.5241 C   0  0  0  0  0  0  0  0  0  0  0  0
   26.8293  -19.4231   -7.1712 C   0  0  0  0  0  0  0  0  0  0  0  0
   26.3117  -19.1175   -8.4311 C   0  0  0  0  0  0  0  0  0  0  0  0
   24.5485  -20.3309  -12.7304 C   0  0  0  0  0  0  0  0  0  0  0  0
   24.6592  -19.3229  -13.4532 O   0  0  0  0  0  0  0  0  0  0  0  0
   18.5206  -23.2591  -16.4515 N   0  0  0  0  0  0  0  0  0  0  0  0
   19.1180  -23.5532  -17.7062 C   0  0  0  0  0  0  0  0  0  0  0  0
   18.3375  -23.4821  -18.7548 N   0  0  0  0  0  0  0  0  0  0  0  0
   20.4867  -23.9095  -17.8545 N   0  0  0  0  0  0  0  0  0  0  0  0
   21.2890  -23.9508  -16.6504 C   0  0  0  0  0  0  0  0  0  0  0  0
   21.6771  -22.6501  -16.0892 C   0  0  0  0  0  0  0  0  0  0  0  0
   22.5096  -22.4889  -14.9180 C   0  0  0  0  0  0  0  0  0  0  0  0
   22.9123  -21.1408  -14.4621 C   0  0  2  0  0  0  0  0  0  0  0  0
   23.6359  -21.3263  -13.1389 N   0  0  0  0  0  0  0  0  0  0  0  0
   21.7561  -20.3378  -14.0428 C   0  0  0  0  0  0  0  0  0  0  0  0
   21.0262  -19.5116  -14.8438 O   0  0  0  0  0  0  0  0  0  0  0  0
   21.3780  -20.3914  -12.8239 O   0  0  0  0  0  0  0  0  0  0  0  0
  1  5  1  0
  2  1  1  0
  2  3  1  0
  3  4  1  0
  5  6  1  1
  5  4  1  0
  6  7  2  0
  8  6  1  0
  8  9  1  0
  9 10  1  1
 11 10  1  0
 12 11  2  0
 13 12  1  0
 14 15  1  0
 14 13  2  0
 15 16  2  0
 16 11  1  0
 17 27  1  0
 17  9  1  0
 18 17  2  0
 19 20  1  0
 20 22  1  0
 21 20  2  0
 22 23  1  0
 23 24  1  0
 24 25  1  0
 26 25  1  1
 26 27  1  0
 28 29  1  0
 28 26  1  0
 30 28  2  0
M  END
$$$$
