PFR.pdb
     RDKit          3D

 30 31  0  0  1  0  0  0  0  0999 V2000
   25.2105  -14.5065  -17.4667 N   0  0  0  0  0  0  0  0  0  0  0  0
   24.9960  -15.9148  -17.8250 C   0  0  0  0  0  0  0  0  0  0  0  0
   23.8172  -16.3741  -17.0190 C   0  0  0  0  0  0  0  0  0  0  0  0
   23.3608  -15.1437  -16.2583 C   0  0  0  0  0  0  0  0  0  0  0  0
   23.8838  -14.0320  -17.1396 C   0  0  1  0  0  0  0  0  0  0  0  0
   23.9740  -12.7472  -16.4458 C   0  0  0  0  0  0  0  0  0  0  0  0
   22.9943  -12.1736  -15.8963 O   0  0  0  0  0  0  0  0  0  0  0  0
   25.2222  -12.0808  -16.3682 N   0  0  0  0  0  0  0  0  0  0  0  0
   25.3697  -10.7628  -15.7740 C   0  0  1  0  0  0  0  0  0  0  0  0
   26.6873  -10.6447  -15.0457 C   0  0  0  0  0  0  0  0  0  0  0  0
   27.8496  -11.1023  -15.7972 C   0  0  0  0  0  0  0  0  0  0  0  0
   28.5788  -10.2527  -16.5979 C   0  0  0  0  0  0  0  0  0  0  0  0
   29.6793  -10.6688  -17.3070 C   0  0  0  0  0  0  0  0  0  0  0  0
   30.0805  -11.9813  -17.2243 C   0  0  0  0  0  0  0  0  0  0  0  0
   29.3740  -12.8615  -16.4317 C   0  0  0  0  0  0  0  0  0  0  0  0
   28.2592  -12.4124  -15.7214 C   0  0  0  0  0  0  0  0  0  0  0  0
   25.1802   -9.6946  -16.7927 C   0  0  0  0  0  0  0  0  0  0  0  0
   25.5792   -9.7884  -17.9686 O   0  0  0  0  0  0  0  0  0  0  0  0
   17.8711   -6.3445  -19.2335 N   0  0  0  0  0  0  0  0  0  0  0  0
   18.4211   -6.3926  -17.9247 C   0  0  0  0  0  0  0  0  0  0  0  0
   17.5664   -6.4263  -16.9337 N   0  0  0  0  0  0  0  0  0  0  0  0
   19.8193   -6.4047  -17.6658 N   0  0  0  0  0  0  0  0  0  0  0  0
   20.7003   -6.3911  -18.8144 C   0  0  0  0  0  0  0  0  0  0  0  0
   22.1391   -6.4440  -18.5240 C   0  0  0  0  0  0  0  0  0  0  0  0
   22.7522   -7.4100  -17.6398 C   0  0  0  0  0  0  0  0  0  0  0  0
   24.2235   -7.4796  -17.5070 C   0  0  2  0  0  0  0  0  0  0  0  0
   24.5154   -8.5057  -16.4250 N   0  0  0  0  0  0  0  0  0  0  0  0
   24.7754   -6.2617  -16.8989 C   0  0  0  0  0  0  0  0  0  0  0  0
   25.1391   -5.1310  -17.5670 O   0  0  0  0  0  0  0  0  0  0  0  0
   24.9477   -6.2281  -15.6337 O   0  0  0  0  0  0  0  0  0  0  0  0
  1  5  1  0
  2  1  1  0
  2  3  1  0
  3  4  1  0
  5  6  1  1
  5  4  1  0
  6  7  2  0
  8  6  1  0
  8  9  1  0
  9 10  1  6
 11 10  1  0
 12 11  2  0
 13 12  1  0
 14 15  1  0
 14 13  2  0
 15 16  2  0
 16 11  1  0
 17 27  1  0
 17  9  1  0
 18 17  2  0
 19 20  1  0
 20 22  1  0
 21 20  2  0
 22 23  1  0
 23 24  1  0
 24 25  1  0
 26 25  1  1
 26 27  1  0
 28 29  1  0
 28 26  1  0
 30 28  2  0
M  END
$$$$
