PFR.pdb
     RDKit          3D

 30 31  0  0  1  0  0  0  0  0999 V2000
   30.8576  -20.6295   -9.9209 N   0  0  0  0  0  0  0  0  0  0  0  0
   32.2878  -20.9535  -10.0059 C   0  0  0  0  0  0  0  0  0  0  0  0
   32.4338  -22.3400   -9.4525 C   0  0  0  0  0  0  0  0  0  0  0  0
   31.0199  -22.7803   -9.1238 C   0  0  0  0  0  0  0  0  0  0  0  0
   30.2081  -21.9145  -10.0604 C   0  0  1  0  0  0  0  0  0  0  0  0
   28.8037  -21.8056   -9.6650 C   0  0  0  0  0  0  0  0  0  0  0  0
   28.0040  -22.7802   -9.6328 O   0  0  0  0  0  0  0  0  0  0  0  0
   28.2791  -20.5438   -9.2899 N   0  0  0  0  0  0  0  0  0  0  0  0
   26.8958  -20.3614   -8.8834 C   0  0  1  0  0  0  0  0  0  0  0  0
   26.7904  -19.3424   -7.7738 C   0  0  0  0  0  0  0  0  0  0  0  0
   27.5798  -19.6420   -6.5854 C   0  0  0  0  0  0  0  0  0  0  0  0
   28.7417  -18.9640   -6.2939 C   0  0  0  0  0  0  0  0  0  0  0  0
   29.4922  -19.2320   -5.1749 C   0  0  0  0  0  0  0  0  0  0  0  0
   29.0802  -20.2120   -4.3030 C   0  0  0  0  0  0  0  0  0  0  0  0
   27.9208  -20.9121   -4.5627 C   0  0  0  0  0  0  0  0  0  0  0  0
   27.1767  -20.6198   -5.7072 C   0  0  0  0  0  0  0  0  0  0  0  0
   26.0366  -20.0274  -10.0518 C   0  0  0  0  0  0  0  0  0  0  0  0
   26.1862  -19.0032  -10.7439 O   0  0  0  0  0  0  0  0  0  0  0  0
   25.1067  -25.5577  -15.0495 N   0  0  0  0  0  0  0  0  0  0  0  0
   23.7247  -25.4229  -14.7503 C   0  0  0  0  0  0  0  0  0  0  0  0
   23.0533  -26.5339  -14.5817 N   0  0  0  0  0  0  0  0  0  0  0  0
   23.0708  -24.1656  -14.6325 N   0  0  0  0  0  0  0  0  0  0  0  0
   23.8890  -22.9820  -14.7917 C   0  0  0  0  0  0  0  0  0  0  0  0
   23.6760  -21.9137  -13.8066 C   0  0  0  0  0  0  0  0  0  0  0  0
   24.4043  -21.8018  -12.5625 C   0  0  0  0  0  0  0  0  0  0  0  0
   24.2193  -20.6247  -11.6865 C   0  0  2  0  0  0  0  0  0  0  0  0
   24.9921  -20.9062  -10.4090 N   0  0  0  0  0  0  0  0  0  0  0  0
   22.8458  -20.5361  -11.1733 C   0  0  0  0  0  0  0  0  0  0  0  0
   22.4134  -21.0012   -9.9676 O   0  0  0  0  0  0  0  0  0  0  0  0
   21.9511  -19.9845  -11.8991 O   0  0  0  0  0  0  0  0  0  0  0  0
  1  5  1  0
  2  1  1  0
  2  3  1  0
  3  4  1  0
  5  6  1  1
  5  4  1  0
  6  7  2  0
  8  6  1  0
  8  9  1  0
  9 10  1  1
 11 10  1  0
 12 11  2  0
 13 12  1  0
 14 15  1  0
 14 13  2  0
 15 16  2  0
 16 11  1  0
 17 27  1  0
 17  9  1  0
 18 17  2  0
 19 20  1  0
 20 22  1  0
 21 20  2  0
 22 23  1  0
 23 24  1  0
 24 25  1  0
 26 25  1  6
 26 27  1  0
 28 29  1  0
 28 26  1  0
 30 28  2  0
M  END
$$$$
