PFR.pdb
     RDKit          3D

 30 31  0  0  1  0  0  0  0  0999 V2000
   28.1721  -20.8528  -17.5621 N   0  0  0  0  0  0  0  0  0  0  0  0
   29.1435  -20.8913  -18.6633 C   0  0  0  0  0  0  0  0  0  0  0  0
   29.9701  -22.1239  -18.4458 C   0  0  0  0  0  0  0  0  0  0  0  0
   29.3684  -22.7868  -17.2213 C   0  0  0  0  0  0  0  0  0  0  0  0
   27.9558  -22.2484  -17.2494 C   0  0  1  0  0  0  0  0  0  0  0  0
   27.2731  -22.3676  -15.9609 C   0  0  0  0  0  0  0  0  0  0  0  0
   26.9599  -23.4675  -15.4294 O   0  0  0  0  0  0  0  0  0  0  0  0
   26.9289  -21.1964  -15.2413 N   0  0  0  0  0  0  0  0  0  0  0  0
   26.2981  -21.2393  -13.9328 C   0  0  1  0  0  0  0  0  0  0  0  0
   27.0385  -20.3649  -12.9490 C   0  0  0  0  0  0  0  0  0  0  0  0
   26.4793  -20.3421  -11.6029 C   0  0  0  0  0  0  0  0  0  0  0  0
   26.9209  -21.1953  -10.6171 C   0  0  0  0  0  0  0  0  0  0  0  0
   26.4071  -21.1809   -9.3432 C   0  0  0  0  0  0  0  0  0  0  0  0
   25.4131  -20.2858   -9.0249 C   0  0  0  0  0  0  0  0  0  0  0  0
   24.9458  -19.4155   -9.9872 C   0  0  0  0  0  0  0  0  0  0  0  0
   25.4854  -19.4511  -11.2742 C   0  0  0  0  0  0  0  0  0  0  0  0
   24.8523  -20.8992  -14.0267 C   0  0  0  0  0  0  0  0  0  0  0  0
   24.4261  -19.8470  -14.5385 O   0  0  0  0  0  0  0  0  0  0  0  0
   17.4100  -23.5915  -12.7337 N   0  0  0  0  0  0  0  0  0  0  0  0
   17.7586  -24.4832  -13.7830 C   0  0  0  0  0  0  0  0  0  0  0  0
   17.2114  -25.6718  -13.7444 N   0  0  0  0  0  0  0  0  0  0  0  0
   18.6504  -24.1388  -14.8358 N   0  0  0  0  0  0  0  0  0  0  0  0
   19.3669  -22.8875  -14.7070 C   0  0  0  0  0  0  0  0  0  0  0  0
   20.2460  -22.7655  -13.5367 C   0  0  0  0  0  0  0  0  0  0  0  0
   21.6902  -22.7513  -13.6063 C   0  0  0  0  0  0  0  0  0  0  0  0
   22.4265  -21.4707  -13.6795 C   0  0  2  0  0  0  0  0  0  0  0  0
   23.8995  -21.8048  -13.5142 N   0  0  0  0  0  0  0  0  0  0  0  0
   22.1904  -20.6361  -12.4941 C   0  0  0  0  0  0  0  0  0  0  0  0
   21.2036  -19.7063  -12.3570 O   0  0  0  0  0  0  0  0  0  0  0  0
   22.9643  -20.7644  -11.4860 O   0  0  0  0  0  0  0  0  0  0  0  0
  1  5  1  0
  2  1  1  0
  2  3  1  0
  3  4  1  0
  5  6  1  1
  5  4  1  0
  6  7  2  0
  8  6  1  0
  8  9  1  0
  9 10  1  1
 11 10  1  0
 12 11  2  0
 13 12  1  0
 14 15  1  0
 14 13  2  0
 15 16  2  0
 16 11  1  0
 17 27  1  0
 17  9  1  0
 18 17  2  0
 19 20  1  0
 20 22  1  0
 21 20  2  0
 22 23  1  0
 23 24  1  0
 24 25  1  0
 26 25  1  1
 26 27  1  0
 28 29  1  0
 28 26  1  0
 30 28  2  0
M  END
$$$$
