PFR.pdb
     RDKit          3D

 30 31  0  0  1  0  0  0  0  0999 V2000
   23.7582  -22.0936   -6.5354 N   0  0  0  0  0  0  0  0  0  0  0  0
   22.5981  -22.3443   -5.6699 C   0  0  0  0  0  0  0  0  0  0  0  0
   21.8770  -21.0344   -5.5515 C   0  0  0  0  0  0  0  0  0  0  0  0
   22.6537  -20.0791   -6.4375 C   0  0  0  0  0  0  0  0  0  0  0  0
   23.3079  -21.0336   -7.4106 C   0  0  1  0  0  0  0  0  0  0  0  0
   24.4527  -20.4451   -8.1061 C   0  0  0  0  0  0  0  0  0  0  0  0
   24.3704  -19.4585   -8.8874 O   0  0  0  0  0  0  0  0  0  0  0  0
   25.7452  -20.9925   -7.9121 N   0  0  0  0  0  0  0  0  0  0  0  0
   26.9065  -20.5403   -8.6597 C   0  0  1  0  0  0  0  0  0  0  0  0
   28.1762  -20.7758   -7.8767 C   0  0  0  0  0  0  0  0  0  0  0  0
   28.2639  -20.0535   -6.6135 C   0  0  0  0  0  0  0  0  0  0  0  0
   28.0914  -18.6898   -6.5417 C   0  0  0  0  0  0  0  0  0  0  0  0
   28.1656  -17.9973   -5.3577 C   0  0  0  0  0  0  0  0  0  0  0  0
   28.4211  -18.6781   -4.1908 C   0  0  0  0  0  0  0  0  0  0  0  0
   28.5994  -20.0453   -4.2243 C   0  0  0  0  0  0  0  0  0  0  0  0
   28.5188  -20.7247   -5.4411 C   0  0  0  0  0  0  0  0  0  0  0  0
   26.9440  -21.1597  -10.0123 C   0  0  0  0  0  0  0  0  0  0  0  0
   27.0219  -22.3877  -10.2035 O   0  0  0  0  0  0  0  0  0  0  0  0
   20.3646  -20.2484  -12.1757 N   0  0  0  0  0  0  0  0  0  0  0  0
   20.9534  -19.1302  -12.8242 C   0  0  0  0  0  0  0  0  0  0  0  0
   20.2381  -18.0344  -12.8620 N   0  0  0  0  0  0  0  0  0  0  0  0
   22.2477  -19.1616  -13.4124 N   0  0  0  0  0  0  0  0  0  0  0  0
   23.0246  -20.3689  -13.2269 C   0  0  0  0  0  0  0  0  0  0  0  0
   24.4568  -20.1797  -12.9619 C   0  0  0  0  0  0  0  0  0  0  0  0
   25.3989  -21.2630  -12.7897 C   0  0  0  0  0  0  0  0  0  0  0  0
   26.8257  -20.9823  -12.5195 C   0  0  2  0  0  0  0  0  0  0  0  0
   26.8894  -20.3271  -11.1501 N   0  0  0  0  0  0  0  0  0  0  0  0
   27.3417  -19.9045  -13.3738 C   0  0  0  0  0  0  0  0  0  0  0  0
   27.6473  -20.0128  -14.6974 O   0  0  0  0  0  0  0  0  0  0  0  0
   27.5382  -18.7516  -12.8601 O   0  0  0  0  0  0  0  0  0  0  0  0
  1  5  1  0
  2  1  1  0
  2  3  1  0
  3  4  1  0
  5  6  1  1
  5  4  1  0
  6  7  2  0
  8  6  1  0
  8  9  1  0
  9 10  1  1
 11 10  1  0
 12 11  2  0
 13 12  1  0
 14 15  1  0
 14 13  2  0
 15 16  2  0
 16 11  1  0
 17 27  1  0
 17  9  1  0
 18 17  2  0
 19 20  1  0
 20 22  1  0
 21 20  2  0
 22 23  1  0
 23 24  1  0
 24 25  1  0
 26 25  1  6
 26 27  1  0
 28 29  1  0
 28 26  1  0
 30 28  2  0
M  END
$$$$
