PFR.pdb
     RDKit          3D

 30 31  0  0  1  0  0  0  0  0999 V2000
   27.9108  -20.6823  -17.3639 N   0  0  0  0  0  0  0  0  0  0  0  0
   28.9142  -20.6372  -18.4358 C   0  0  0  0  0  0  0  0  0  0  0  0
   29.7747  -21.8518  -18.2512 C   0  0  0  0  0  0  0  0  0  0  0  0
   29.1604  -22.5912  -17.0778 C   0  0  0  0  0  0  0  0  0  0  0  0
   27.7321  -22.0974  -17.1235 C   0  0  1  0  0  0  0  0  0  0  0  0
   27.0170  -22.2996  -15.8632 C   0  0  0  0  0  0  0  0  0  0  0  0
   26.6229  -23.4241  -15.4501 O   0  0  0  0  0  0  0  0  0  0  0  0
   26.7343  -21.1861  -15.0336 N   0  0  0  0  0  0  0  0  0  0  0  0
   26.0538  -21.3154  -13.7560 C   0  0  1  0  0  0  0  0  0  0  0  0
   26.7848  -20.5527  -12.6768 C   0  0  0  0  0  0  0  0  0  0  0  0
   26.1399  -20.5647  -11.3695 C   0  0  0  0  0  0  0  0  0  0  0  0
   26.3824  -21.5577  -10.4477 C   0  0  0  0  0  0  0  0  0  0  0  0
   25.7863  -21.5785   -9.2103 C   0  0  0  0  0  0  0  0  0  0  0  0
   24.9113  -20.5759   -8.8642 C   0  0  0  0  0  0  0  0  0  0  0  0
   24.6441  -19.5641   -9.7625 C   0  0  0  0  0  0  0  0  0  0  0  0
   25.2636  -19.5670  -11.0135 C   0  0  0  0  0  0  0  0  0  0  0  0
   24.6243  -20.9176  -13.8709 C   0  0  0  0  0  0  0  0  0  0  0  0
   24.2493  -19.8398  -14.3690 O   0  0  0  0  0  0  0  0  0  0  0  0
   18.0118  -24.3348  -11.5694 N   0  0  0  0  0  0  0  0  0  0  0  0
   18.8824  -25.2728  -12.1856 C   0  0  0  0  0  0  0  0  0  0  0  0
   19.1007  -26.3845  -11.5296 N   0  0  0  0  0  0  0  0  0  0  0  0
   19.5020  -25.0513  -13.4463 N   0  0  0  0  0  0  0  0  0  0  0  0
   19.1529  -23.8323  -14.1448 C   0  0  0  0  0  0  0  0  0  0  0  0
   19.9735  -22.6542  -13.8351 C   0  0  0  0  0  0  0  0  0  0  0  0
   21.4188  -22.6627  -13.7898 C   0  0  0  0  0  0  0  0  0  0  0  0
   22.1718  -21.4056  -13.5903 C   0  0  2  0  0  0  0  0  0  0  0  0
   23.6274  -21.7956  -13.3956 N   0  0  0  0  0  0  0  0  0  0  0  0
   21.8682  -20.7867  -12.2932 C   0  0  0  0  0  0  0  0  0  0  0  0
   21.1066  -19.6734  -12.0994 O   0  0  0  0  0  0  0  0  0  0  0  0
   22.3498  -21.3108  -11.2326 O   0  0  0  0  0  0  0  0  0  0  0  0
  1  5  1  0
  2  1  1  0
  2  3  1  0
  3  4  1  0
  5  6  1  1
  5  4  1  0
  6  7  2  0
  8  6  1  0
  8  9  1  0
  9 10  1  1
 11 10  1  0
 12 11  2  0
 13 12  1  0
 14 15  1  0
 14 13  2  0
 15 16  2  0
 16 11  1  0
 17 27  1  0
 17  9  1  0
 18 17  2  0
 19 20  1  0
 20 22  1  0
 21 20  2  0
 22 23  1  0
 23 24  1  0
 24 25  1  0
 26 25  1  1
 26 27  1  0
 28 29  1  0
 28 26  1  0
 30 28  2  0
M  END
$$$$
