PFR.pdb
     RDKit          3D

 30 31  0  0  1  0  0  0  0  0999 V2000
   27.8462  -20.4637  -16.7348 N   0  0  0  0  0  0  0  0  0  0  0  0
   28.8127  -20.5091  -17.8400 C   0  0  0  0  0  0  0  0  0  0  0  0
   29.6441  -21.7371  -17.6151 C   0  0  0  0  0  0  0  0  0  0  0  0
   29.0502  -22.3907  -16.3818 C   0  0  0  0  0  0  0  0  0  0  0  0
   27.6358  -21.8570  -16.4083 C   0  0  1  0  0  0  0  0  0  0  0  0
   26.9594  -21.9666  -15.1157 C   0  0  0  0  0  0  0  0  0  0  0  0
   26.2275  -22.9388  -14.7844 O   0  0  0  0  0  0  0  0  0  0  0  0
   27.1150  -20.9359  -14.1558 N   0  0  0  0  0  0  0  0  0  0  0  0
   26.5490  -21.0191  -12.8198 C   0  0  1  0  0  0  0  0  0  0  0  0
   27.4414  -20.3329  -11.8132 C   0  0  0  0  0  0  0  0  0  0  0  0
   26.9235  -20.3026  -10.4508 C   0  0  0  0  0  0  0  0  0  0  0  0
   27.4717  -21.0684   -9.4469 C   0  0  0  0  0  0  0  0  0  0  0  0
   26.9977  -21.0455   -8.1578 C   0  0  0  0  0  0  0  0  0  0  0  0
   25.9353  -20.2316   -7.8422 C   0  0  0  0  0  0  0  0  0  0  0  0
   25.3606  -19.4501   -8.8225 C   0  0  0  0  0  0  0  0  0  0  0  0
   25.8619  -19.4923  -10.1247 C   0  0  0  0  0  0  0  0  0  0  0  0
   25.1548  -20.4991  -12.7984 C   0  0  0  0  0  0  0  0  0  0  0  0
   24.8182  -19.4150  -13.3104 O   0  0  0  0  0  0  0  0  0  0  0  0
   18.5597  -24.7438  -15.9178 N   0  0  0  0  0  0  0  0  0  0  0  0
   18.6483  -23.3662  -16.2526 C   0  0  0  0  0  0  0  0  0  0  0  0
   18.0751  -22.9996  -17.3710 N   0  0  0  0  0  0  0  0  0  0  0  0
   19.3156  -22.4073  -15.4416 N   0  0  0  0  0  0  0  0  0  0  0  0
   19.9303  -22.8910  -14.2235 C   0  0  0  0  0  0  0  0  0  0  0  0
   20.6387  -21.8887  -13.4169 C   0  0  0  0  0  0  0  0  0  0  0  0
   22.0700  -21.8783  -13.2115 C   0  0  0  0  0  0  0  0  0  0  0  0
   22.7002  -20.8427  -12.3644 C   0  0  2  0  0  0  0  0  0  0  0  0
   24.1478  -21.2609  -12.1690 N   0  0  0  0  0  0  0  0  0  0  0  0
   22.2027  -20.8895  -10.9831 C   0  0  0  0  0  0  0  0  0  0  0  0
   21.0448  -20.3295  -10.5330 O   0  0  0  0  0  0  0  0  0  0  0  0
   22.8958  -21.4970  -10.0987 O   0  0  0  0  0  0  0  0  0  0  0  0
  1  5  1  0
  2  1  1  0
  2  3  1  0
  3  4  1  0
  5  6  1  1
  5  4  1  0
  6  7  2  0
  8  6  1  0
  8  9  1  0
  9 10  1  1
 11 10  1  0
 12 11  2  0
 13 12  1  0
 14 15  1  0
 14 13  2  0
 15 16  2  0
 16 11  1  0
 17 27  1  0
 17  9  1  0
 18 17  2  0
 19 20  1  0
 20 22  1  0
 21 20  2  0
 22 23  1  0
 23 24  1  0
 24 25  1  0
 26 25  1  6
 26 27  1  0
 28 29  1  0
 28 26  1  0
 30 28  2  0
M  END
$$$$
