PFR.pdb
     RDKit          3D

 30 31  0  0  1  0  0  0  0  0999 V2000
   15.8474  -16.5887    4.2956 N   0  0  0  0  0  0  0  0  0  0  0  0
   15.2561  -16.7437    2.9599 C   0  0  0  0  0  0  0  0  0  0  0  0
   16.4035  -16.7367    1.9938 C   0  0  0  0  0  0  0  0  0  0  0  0
   17.6440  -16.6369    2.8611 C   0  0  0  0  0  0  0  0  0  0  0  0
   17.1464  -17.2122    4.1678 C   0  0  1  0  0  0  0  0  0  0  0  0
   17.9857  -16.8474    5.3092 C   0  0  0  0  0  0  0  0  0  0  0  0
   19.1897  -17.1999    5.4387 O   0  0  0  0  0  0  0  0  0  0  0  0
   17.4442  -16.0513    6.3489 N   0  0  0  0  0  0  0  0  0  0  0  0
   18.2304  -15.6156    7.4908 C   0  0  1  0  0  0  0  0  0  0  0  0
   18.0104  -14.1473    7.7674 C   0  0  0  0  0  0  0  0  0  0  0  0
   18.6655  -13.2397    6.8335 C   0  0  0  0  0  0  0  0  0  0  0  0
   18.0866  -12.8858    5.6358 C   0  0  0  0  0  0  0  0  0  0  0  0
   18.6898  -12.0274    4.7491 C   0  0  0  0  0  0  0  0  0  0  0  0
   19.9191  -11.4928    5.0551 C   0  0  0  0  0  0  0  0  0  0  0  0
   20.5294  -11.8248    6.2464 C   0  0  0  0  0  0  0  0  0  0  0  0
   19.8945  -12.6996    7.1298 C   0  0  0  0  0  0  0  0  0  0  0  0
   17.9617  -16.4693    8.6798 C   0  0  0  0  0  0  0  0  0  0  0  0
   16.8398  -16.5756    9.2097 O   0  0  0  0  0  0  0  0  0  0  0  0
   17.1328  -21.6340    6.2140 N   0  0  0  0  0  0  0  0  0  0  0  0
   15.9931  -21.5200    7.0541 C   0  0  0  0  0  0  0  0  0  0  0  0
   15.0983  -22.4704    6.9555 N   0  0  0  0  0  0  0  0  0  0  0  0
   15.7998  -20.4457    7.9656 N   0  0  0  0  0  0  0  0  0  0  0  0
   16.9701  -19.6768    8.3326 C   0  0  0  0  0  0  0  0  0  0  0  0
   17.6913  -20.1314    9.5286 C   0  0  0  0  0  0  0  0  0  0  0  0
   18.8342  -19.4493   10.0937 C   0  0  0  0  0  0  0  0  0  0  0  0
   18.7389  -18.0290   10.4950 C   0  0  2  0  0  0  0  0  0  0  0  0
   19.0221  -17.2046    9.2505 N   0  0  0  0  0  0  0  0  0  0  0  0
   19.8569  -17.6296   11.3600 C   0  0  0  0  0  0  0  0  0  0  0  0
   20.0984  -18.0959   12.6175 O   0  0  0  0  0  0  0  0  0  0  0  0
   20.6926  -16.7658   10.9275 O   0  0  0  0  0  0  0  0  0  0  0  0
  1  5  1  0
  2  1  1  0
  2  3  1  0
  3  4  1  0
  5  6  1  1
  5  4  1  0
  6  7  2  0
  8  6  1  0
  8  9  1  0
  9 10  1  1
 11 10  1  0
 12 11  2  0
 13 12  1  0
 14 15  1  0
 14 13  2  0
 15 16  2  0
 16 11  1  0
 17 27  1  0
 17  9  1  0
 18 17  2  0
 19 20  1  0
 20 22  1  0
 21 20  2  0
 22 23  1  0
 23 24  1  0
 24 25  1  0
 26 25  1  6
 26 27  1  0
 28 29  1  0
 28 26  1  0
 30 28  2  0
M  END
$$$$
