AEE.pdb
     RDKit          3D

 24 23  0  0  1  0  0  0  0  0999 V2000
   17.6162  -12.4924  -17.3074 C   0  0  0  0  0  0  0  0  0  0  0  0
   18.4074  -11.9785  -16.1464 C   0  0  2  0  0  0  0  0  0  0  0  0
   17.6116  -12.1136  -14.9412 N   0  0  0  0  0  0  0  0  0  0  0  0
   18.8184  -10.5641  -16.2921 C   0  0  0  0  0  0  0  0  0  0  0  0
   19.7445  -10.2360  -17.0939 O   0  0  0  0  0  0  0  0  0  0  0  0
   18.2215   -9.4995  -15.5634 N   0  0  0  0  0  0  0  0  0  0  0  0
   18.4712   -8.1010  -15.8002 C   0  0  1  0  0  0  0  0  0  0  0  0
   17.3313   -7.2485  -15.2844 C   0  0  0  0  0  0  0  0  0  0  0  0
   17.5531   -5.7700  -15.5808 C   0  0  0  0  0  0  0  0  0  0  0  0
   16.4102   -5.0316  -15.0146 C   0  0  0  0  0  0  0  0  0  0  0  0
   16.6100   -4.0601  -14.2619 O   0  0  0  0  0  0  0  0  0  0  0  0
   19.7138   -7.6206  -15.1650 C   0  0  0  0  0  0  0  0  0  0  0  0
   19.8948   -7.9231  -13.9584 O   0  0  0  0  0  0  0  0  0  0  0  0
   15.1267   -5.4206  -15.3215 O   0  0  0  0  0  0  0  0  0  0  0  0
   20.7014   -6.8550  -15.8075 N   0  0  0  0  0  0  0  0  0  0  0  0
   21.9762   -6.4636  -15.1885 C   0  0  1  0  0  0  0  0  0  0  0  0
   22.8640   -6.0743  -16.3375 C   0  0  0  0  0  0  0  0  0  0  0  0
   24.2042   -5.6485  -15.8539 C   0  0  0  0  0  0  0  0  0  0  0  0
   25.0718   -5.3315  -17.0099 C   0  0  0  0  0  0  0  0  0  0  0  0
   26.0581   -6.0594  -17.2525 O   0  0  0  0  0  0  0  0  0  0  0  0
   21.7794   -5.4030  -14.1972 C   0  0  0  0  0  0  0  0  0  0  0  0
   20.9173   -4.3299  -14.3088 O   0  0  0  0  0  0  0  0  0  0  0  0
   24.7938   -4.2445  -17.8100 O   0  0  0  0  0  0  0  0  0  0  0  0
   22.4557   -5.4589  -13.1341 O   0  0  0  0  0  0  0  0  0  0  0  0
  2  1  1  6
  2  3  1  0
  4  2  1  0
  4  5  2  0
  6  4  1  0
  7  6  1  0
  7 12  1  0
  7  8  1  1
  9 10  1  0
  9  8  1  0
 10 14  1  0
 11 10  2  0
 12 13  2  0
 12 15  1  0
 15 16  1  0
 16 21  1  0
 16 17  1  6
 18 17  1  0
 19 18  1  0
 19 20  2  0
 21 24  2  0
 21 22  1  0
 23 19  1  0
M  END
$$$$
