AEE.pdb
     RDKit          3D

 24 23  0  0  1  0  0  0  0  0999 V2000
   18.4610  -13.9926  -16.2289 C   0  0  0  0  0  0  0  0  0  0  0  0
   18.1093  -12.7019  -15.5593 C   0  0  2  0  0  0  0  0  0  0  0  0
   16.6649  -12.5773  -15.5124 N   0  0  0  0  0  0  0  0  0  0  0  0
   18.6701  -11.5126  -16.2388 C   0  0  0  0  0  0  0  0  0  0  0  0
   19.9218  -11.3851  -16.3976 O   0  0  0  0  0  0  0  0  0  0  0  0
   17.8684  -10.4553  -16.7487 N   0  0  0  0  0  0  0  0  0  0  0  0
   18.3822   -9.2368  -17.3192 C   0  0  1  0  0  0  0  0  0  0  0  0
   17.5889   -8.8308  -18.5431 C   0  0  0  0  0  0  0  0  0  0  0  0
   18.0705   -9.5560  -19.7942 C   0  0  0  0  0  0  0  0  0  0  0  0
   17.1322   -9.2272  -20.8820 C   0  0  0  0  0  0  0  0  0  0  0  0
   16.7423   -8.0543  -21.0325 O   0  0  0  0  0  0  0  0  0  0  0  0
   18.3612   -8.1030  -16.3745 C   0  0  0  0  0  0  0  0  0  0  0  0
   17.3238   -7.9545  -15.6802 O   0  0  0  0  0  0  0  0  0  0  0  0
   16.6914  -10.2199  -21.7265 O   0  0  0  0  0  0  0  0  0  0  0  0
   19.4097   -7.1846  -16.1971 N   0  0  0  0  0  0  0  0  0  0  0  0
   19.4004   -6.1020  -15.2025 C   0  0  1  0  0  0  0  0  0  0  0  0
   20.8247   -5.9900  -14.7350 C   0  0  0  0  0  0  0  0  0  0  0  0
   20.9716   -4.9020  -13.7319 C   0  0  0  0  0  0  0  0  0  0  0  0
   22.3717   -4.8509  -13.2559 C   0  0  0  0  0  0  0  0  0  0  0  0
   23.3032   -4.9510  -14.0829 O   0  0  0  0  0  0  0  0  0  0  0  0
   18.8573   -4.8658  -15.7710 C   0  0  0  0  0  0  0  0  0  0  0  0
   18.2239   -3.8554  -15.0747 O   0  0  0  0  0  0  0  0  0  0  0  0
   22.6443   -4.6943  -11.9142 O   0  0  0  0  0  0  0  0  0  0  0  0
   18.9691   -4.6921  -17.0152 O   0  0  0  0  0  0  0  0  0  0  0  0
  2  1  1  6
  2  3  1  0
  4  2  1  0
  4  5  2  0
  6  4  1  0
  7  6  1  0
  7 12  1  0
  7  8  1  6
  9 10  1  0
  9  8  1  0
 10 14  1  0
 11 10  2  0
 12 13  2  0
 12 15  1  0
 15 16  1  0
 16 21  1  0
 16 17  1  6
 18 17  1  0
 19 18  1  0
 19 20  2  0
 21 24  2  0
 21 22  1  0
 23 19  1  0
M  END
$$$$
