AEE.pdb
     RDKit          3D

 24 23  0  0  1  0  0  0  0  0999 V2000
   20.9631  -12.4764  -18.5956 C   0  0  0  0  0  0  0  0  0  0  0  0
   21.2202  -11.7123  -17.3355 C   0  0  2  0  0  0  0  0  0  0  0  0
   21.1327  -12.6228  -16.2098 N   0  0  0  0  0  0  0  0  0  0  0  0
   20.2751  -10.5937  -17.1204 C   0  0  0  0  0  0  0  0  0  0  0  0
   20.4900   -9.4539  -17.6332 O   0  0  0  0  0  0  0  0  0  0  0  0
   19.0902  -10.7121  -16.3441 N   0  0  0  0  0  0  0  0  0  0  0  0
   18.0781   -9.6939  -16.2299 C   0  0  1  0  0  0  0  0  0  0  0  0
   16.7194  -10.3036  -15.9575 C   0  0  0  0  0  0  0  0  0  0  0  0
   15.6138   -9.2548  -15.9864 C   0  0  0  0  0  0  0  0  0  0  0  0
   14.3318   -9.9624  -15.8204 C   0  0  0  0  0  0  0  0  0  0  0  0
   14.0526  -10.4943  -14.7298 O   0  0  0  0  0  0  0  0  0  0  0  0
   18.3566   -8.7206  -15.1559 C   0  0  0  0  0  0  0  0  0  0  0  0
   19.0047   -9.1343  -14.1615 O   0  0  0  0  0  0  0  0  0  0  0  0
   13.4490  -10.0314  -16.8735 O   0  0  0  0  0  0  0  0  0  0  0  0
   17.9520   -7.3750  -15.1653 N   0  0  0  0  0  0  0  0  0  0  0  0
   18.5068   -6.3393  -14.2816 C   0  0  1  0  0  0  0  0  0  0  0  0
   19.9940   -6.4039  -14.4911 C   0  0  0  0  0  0  0  0  0  0  0  0
   20.6812   -5.2986  -13.7718 C   0  0  0  0  0  0  0  0  0  0  0  0
   22.1234   -5.3116  -14.1027 C   0  0  0  0  0  0  0  0  0  0  0  0
   22.7963   -4.2701  -13.9473 O   0  0  0  0  0  0  0  0  0  0  0  0
   17.9177   -5.0288  -14.5675 C   0  0  0  0  0  0  0  0  0  0  0  0
   17.4728   -4.5835  -15.7967 O   0  0  0  0  0  0  0  0  0  0  0  0
   22.7172   -6.4610  -14.5773 O   0  0  0  0  0  0  0  0  0  0  0  0
   17.7994   -4.2158  -13.6106 O   0  0  0  0  0  0  0  0  0  0  0  0
  2  1  1  6
  2  3  1  0
  4  2  1  0
  4  5  2  0
  6  4  1  0
  7  6  1  0
  7 12  1  0
  7  8  1  1
  9 10  1  0
  9  8  1  0
 10 14  1  0
 11 10  2  0
 12 13  2  0
 12 15  1  0
 15 16  1  0
 16 21  1  0
 16 17  1  6
 18 17  1  0
 19 18  1  0
 19 20  2  0
 21 24  2  0
 21 22  1  0
 23 19  1  0
M  END
$$$$
