RQY.pdb
     RDKit          3D

 33 33  0  0  1  0  0  0  0  0999 V2000
   19.7807  -20.1729  -11.3468 N   0  0  0  0  0  0  0  0  0  0  0  0
   19.4877  -18.8225  -11.6532 C   0  0  0  0  0  0  0  0  0  0  0  0
   18.7025  -18.1081  -10.8831 N   0  0  0  0  0  0  0  0  0  0  0  0
   20.0128  -18.1652  -12.7890 N   0  0  0  0  0  0  0  0  0  0  0  0
   20.9754  -18.8811  -13.6420 C   0  0  0  0  0  0  0  0  0  0  0  0
   20.3085  -20.0005  -14.3671 C   0  0  0  0  0  0  0  0  0  0  0  0
   21.0104  -21.3117  -14.3939 C   0  0  0  0  0  0  0  0  0  0  0  0
   22.4051  -21.2191  -14.8916 C   0  0  2  0  0  0  0  0  0  0  0  0
   22.6418  -21.8095  -16.1835 N   0  0  0  0  0  0  0  0  0  0  0  0
   23.3774  -21.8557  -13.9300 C   0  0  0  0  0  0  0  0  0  0  0  0
   23.3087  -23.0881  -13.7244 O   0  0  0  0  0  0  0  0  0  0  0  0
   18.5068  -17.1269  -11.1805 N   0  0  0  0  0  0  0  0  0  0  0  0
   29.1055  -20.9539  -14.0257 C   0  0  0  0  0  0  0  0  0  0  0  0
   28.0646  -20.1057  -14.5406 O   0  0  0  0  0  0  0  0  0  0  0  0
   28.3457  -19.2362  -15.3873 C   0  0  0  0  0  0  0  0  0  0  0  0
   26.7157  -20.3336  -14.0151 C   0  0  0  0  0  0  0  0  0  0  0  0
   26.6712  -21.4543  -13.0434 C   0  0  1  0  0  0  0  0  0  0  0  0
   25.3565  -21.6833  -12.3400 N   0  0  0  0  0  0  0  0  0  0  0  0
   24.3564  -21.1064  -13.2594 C   0  0  0  0  0  0  0  0  0  0  0  0
   25.2452  -21.0219  -11.0196 O   0  0  0  0  0  0  0  0  0  0  0  0
   24.7843  -19.8228  -10.9804 O   0  0  0  0  0  0  0  0  0  0  0  0
   29.2417  -18.5600   -3.4781 C   0  0  0  0  0  0  0  0  0  0  0  0
   28.7043  -19.2698   -4.5582 C   0  0  0  0  0  0  0  0  0  0  0  0
   27.4402  -19.8148   -4.5403 C   0  0  0  0  0  0  0  0  0  0  0  0
   26.9245  -20.5176   -5.6259 C   0  0  0  0  0  0  0  0  0  0  0  0
   27.6872  -20.6835   -6.7617 C   0  0  0  0  0  0  0  0  0  0  0  0
   27.1336  -21.4291   -7.8860 C   0  0  1  0  0  0  0  0  0  0  0  0
   26.0371  -20.7284   -8.6471 N   0  0  0  0  0  0  0  0  0  0  0  0
   25.5872  -21.5608   -9.7695 C   0  0  0  0  0  0  0  0  0  0  0  0
   26.5191  -19.4515   -9.1956 O   0  0  0  0  0  0  0  0  0  0  0  0
   27.4512  -19.4013  -10.2153 C   0  0  0  0  0  0  0  0  0  0  0  0
   28.9586  -20.1380   -6.7861 C   0  0  0  0  0  0  0  0  0  0  0  0
   29.4393  -19.4550   -5.7109 O   0  0  0  0  0  0  0  0  0  0  0  0
  2  3  2  0
  2  1  1  0
  4  2  1  0
  5  4  1  0
  6  7  1  0
  6  5  1  0
  8  9  1  6
  8  7  1  0
 10  8  1  0
 11 10  2  0
 12 13  1  0
 13 15  1  0
 14 13  2  0
 15 16  1  0
 17 16  1  6
 17 19  1  0
 17 18  1  0
 18 10  1  0
 19 28  1  0
 20 19  2  0
 22 21  1  0
 23 22  2  0
 24 23  1  0
 25 24  2  0
 25 31  1  0
 26 25  1  0
 27 28  1  0
 27 29  1  0
 27 26  1  1
 29 33  2  0
 29 30  1  0
 31 32  2  0
 32 22  1  0
M  END
$$$$
