RQY.pdb
     RDKit          3D

 33 33  0  0  1  0  0  0  0  0999 V2000
   23.1724  -27.3370  -12.3662 N   0  0  0  0  0  0  0  0  0  0  0  0
   22.9343  -27.2418  -13.7583 C   0  0  0  0  0  0  0  0  0  0  0  0
   22.1901  -28.1248  -14.3802 N   0  0  0  0  0  0  0  0  0  0  0  0
   23.4725  -26.2072  -14.5567 N   0  0  0  0  0  0  0  0  0  0  0  0
   24.2636  -25.1485  -13.9086 C   0  0  0  0  0  0  0  0  0  0  0  0
   23.3837  -24.2402  -13.1182 C   0  0  0  0  0  0  0  0  0  0  0  0
   23.4247  -22.7906  -13.4493 C   0  0  0  0  0  0  0  0  0  0  0  0
   24.7515  -22.1721  -13.2076 C   0  0  2  0  0  0  0  0  0  0  0  0
   25.2172  -22.2183  -11.8457 N   0  0  0  0  0  0  0  0  0  0  0  0
   24.7711  -20.7249  -13.6323 C   0  0  0  0  0  0  0  0  0  0  0  0
   24.3187  -19.8572  -12.8524 O   0  0  0  0  0  0  0  0  0  0  0  0
   22.0562  -27.9969  -15.4073 N   0  0  0  0  0  0  0  0  0  0  0  0
   28.8259  -18.5425  -17.4476 C   0  0  0  0  0  0  0  0  0  0  0  0
   27.9303  -17.4318  -17.6281 O   0  0  0  0  0  0  0  0  0  0  0  0
   28.2880  -16.4638  -18.3260 C   0  0  0  0  0  0  0  0  0  0  0  0
   26.6301  -17.5247  -16.9584 C   0  0  0  0  0  0  0  0  0  0  0  0
   26.4762  -18.7905  -16.1993 C   0  0  1  0  0  0  0  0  0  0  0  0
   25.2084  -18.9439  -15.3964 N   0  0  0  0  0  0  0  0  0  0  0  0
   25.2817  -20.3233  -14.8764 C   0  0  0  0  0  0  0  0  0  0  0  0
   23.9632  -18.7834  -16.1817 O   0  0  0  0  0  0  0  0  0  0  0  0
   23.8142  -19.5058  -17.2343 O   0  0  0  0  0  0  0  0  0  0  0  0
   18.3165  -18.4677  -10.3339 C   0  0  0  0  0  0  0  0  0  0  0  0
   19.0380  -18.7227  -11.5059 C   0  0  0  0  0  0  0  0  0  0  0  0
   18.5724  -18.3901  -12.7581 C   0  0  0  0  0  0  0  0  0  0  0  0
   19.3063  -18.6527  -13.9117 C   0  0  0  0  0  0  0  0  0  0  0  0
   20.5380  -19.2637  -13.8179 C   0  0  0  0  0  0  0  0  0  0  0  0
   21.2891  -19.5380  -15.0374 C   0  0  1  0  0  0  0  0  0  0  0  0
   21.4924  -18.3549  -15.9494 N   0  0  0  0  0  0  0  0  0  0  0  0
   22.8931  -17.9174  -15.9075 C   0  0  0  0  0  0  0  0  0  0  0  0
   20.6522  -17.2234  -15.5283 O   0  0  0  0  0  0  0  0  0  0  0  0
   19.2869  -17.2088  -15.7446 C   0  0  0  0  0  0  0  0  0  0  0  0
   21.0118  -19.6004  -12.5623 C   0  0  0  0  0  0  0  0  0  0  0  0
   20.2742  -19.3324  -11.4497 O   0  0  0  0  0  0  0  0  0  0  0  0
  2  3  2  0
  2  1  1  0
  4  2  1  0
  5  4  1  0
  6  7  1  0
  6  5  1  0
  8  9  1  1
  8  7  1  0
 10  8  1  0
 11 10  2  0
 12 13  1  0
 13 15  1  0
 14 13  2  0
 15 16  1  0
 17 16  1  1
 17 19  1  0
 17 18  1  0
 18 10  1  0
 19 28  1  0
 20 19  2  0
 22 21  1  0
 23 22  2  0
 24 23  1  0
 25 24  2  0
 25 31  1  0
 26 25  1  0
 27 28  1  0
 27 29  1  0
 27 26  1  6
 29 33  2  0
 29 30  1  0
 31 32  2  0
 32 22  1  0
M  END
$$$$
