RQY.pdb
     RDKit          3D

 33 33  0  0  1  0  0  0  0  0999 V2000
   19.7020  -15.5461  -20.8882 N   0  0  0  0  0  0  0  0  0  0  0  0
   20.9520  -15.0175  -21.2903 C   0  0  0  0  0  0  0  0  0  0  0  0
   21.1006  -14.4457  -22.4612 N   0  0  0  0  0  0  0  0  0  0  0  0
   22.1027  -15.0690  -20.4712 N   0  0  0  0  0  0  0  0  0  0  0  0
   22.0828  -15.9219  -19.2716 C   0  0  0  0  0  0  0  0  0  0  0  0
   23.3808  -15.8381  -18.5421 C   0  0  0  0  0  0  0  0  0  0  0  0
   23.4822  -16.5560  -17.2434 C   0  0  0  0  0  0  0  0  0  0  0  0
   23.3210  -18.0253  -17.3724 C   0  0  2  0  0  0  0  0  0  0  0  0
   22.4258  -18.4608  -18.4130 N   0  0  0  0  0  0  0  0  0  0  0  0
   22.8347  -18.6421  -16.0846 C   0  0  0  0  0  0  0  0  0  0  0  0
   21.6385  -18.4877  -15.7514 O   0  0  0  0  0  0  0  0  0  0  0  0
   22.0361  -14.0360  -22.6765 N   0  0  0  0  0  0  0  0  0  0  0  0
   20.2515  -21.1507  -13.7016 C   0  0  0  0  0  0  0  0  0  0  0  0
   21.0034  -22.1419  -12.9802 O   0  0  0  0  0  0  0  0  0  0  0  0
   20.4723  -22.7370  -12.0233 C   0  0  0  0  0  0  0  0  0  0  0  0
   22.3750  -22.3825  -13.4369 C   0  0  0  0  0  0  0  0  0  0  0  0
   22.7960  -21.4223  -14.4871 C   0  0  1  0  0  0  0  0  0  0  0  0
   23.2471  -20.0628  -14.0142 N   0  0  0  0  0  0  0  0  0  0  0  0
   23.6845  -19.3838  -15.2495 C   0  0  0  0  0  0  0  0  0  0  0  0
   24.3698  -20.0917  -13.0489 O   0  0  0  0  0  0  0  0  0  0  0  0
   25.5431  -20.3703  -13.4934 O   0  0  0  0  0  0  0  0  0  0  0  0
   29.3802  -19.8114   -5.6596 C   0  0  0  0  0  0  0  0  0  0  0  0
   28.3253  -19.7714   -6.5785 C   0  0  0  0  0  0  0  0  0  0  0  0
   27.7784  -20.9037   -7.1392 C   0  0  0  0  0  0  0  0  0  0  0  0
   26.7289  -20.8417   -8.0519 C   0  0  0  0  0  0  0  0  0  0  0  0
   26.2081  -19.6194   -8.4178 C   0  0  0  0  0  0  0  0  0  0  0  0
   25.1141  -19.5733   -9.3808 C   0  0  2  0  0  0  0  0  0  0  0  0
   25.4881  -19.9236  -10.7986 N   0  0  0  0  0  0  0  0  0  0  0  0
   24.3088  -19.8409  -11.6692 C   0  0  0  0  0  0  0  0  0  0  0  0
   26.0110  -21.2963  -10.8745 O   0  0  0  0  0  0  0  0  0  0  0  0
   27.3666  -21.5637  -10.8295 C   0  0  0  0  0  0  0  0  0  0  0  0
   26.7531  -18.4775   -7.8577 C   0  0  0  0  0  0  0  0  0  0  0  0
   27.7793  -18.5656   -6.9673 O   0  0  0  0  0  0  0  0  0  0  0  0
  2  3  2  0
  2  1  1  0
  4  2  1  0
  5  4  1  0
  6  7  1  0
  6  5  1  0
  8  9  1  6
  8  7  1  0
 10  8  1  0
 11 10  2  0
 12 13  1  0
 13 15  1  0
 14 13  2  0
 15 16  1  0
 17 16  1  6
 17 19  1  0
 17 18  1  0
 18 10  1  0
 19 28  1  0
 20 19  2  0
 22 21  1  0
 23 22  2  0
 24 23  1  0
 25 24  2  0
 25 31  1  0
 26 25  1  0
 27 28  1  0
 27 29  1  0
 27 26  1  6
 29 33  2  0
 29 30  1  0
 31 32  2  0
 32 22  1  0
M  END
$$$$
