RQY.pdb
     RDKit          3D

 33 33  0  0  1  0  0  0  0  0999 V2000
   22.3861  -31.9200  -13.5239 N   0  0  0  0  0  0  0  0  0  0  0  0
   21.3712  -31.5014  -14.4173 C   0  0  0  0  0  0  0  0  0  0  0  0
   21.1546  -32.1384  -15.5430 N   0  0  0  0  0  0  0  0  0  0  0  0
   20.5379  -30.3891  -14.1602 N   0  0  0  0  0  0  0  0  0  0  0  0
   20.7820  -29.5828  -12.9531 C   0  0  0  0  0  0  0  0  0  0  0  0
   20.0500  -30.1480  -11.7832 C   0  0  0  0  0  0  0  0  0  0  0  0
   19.5675  -29.1910  -10.7518 C   0  0  0  0  0  0  0  0  0  0  0  0
   20.0006  -27.7940  -11.0012 C   0  0  2  0  0  0  0  0  0  0  0  0
   21.4090  -27.6163  -11.2436 N   0  0  0  0  0  0  0  0  0  0  0  0
   19.6325  -26.8888   -9.8520 C   0  0  0  0  0  0  0  0  0  0  0  0
   20.0384  -27.1716   -8.7026 O   0  0  0  0  0  0  0  0  0  0  0  0
   20.4162  -31.7554  -16.1734 N   0  0  0  0  0  0  0  0  0  0  0  0
   17.5969  -20.9644  -10.4254 C   0  0  0  0  0  0  0  0  0  0  0  0
   17.1658  -22.1484  -11.1186 O   0  0  0  0  0  0  0  0  0  0  0  0
   16.0944  -22.1303  -11.7540 C   0  0  0  0  0  0  0  0  0  0  0  0
   18.0425  -23.3187  -11.0214 C   0  0  0  0  0  0  0  0  0  0  0  0
   18.7068  -23.4170   -9.6980 C   0  0  1  0  0  0  0  0  0  0  0  0
   18.5865  -24.7388   -8.9812 N   0  0  0  0  0  0  0  0  0  0  0  0
   18.8482  -25.7393  -10.0342 C   0  0  0  0  0  0  0  0  0  0  0  0
   17.2547  -24.9934   -8.3857 O   0  0  0  0  0  0  0  0  0  0  0  0
   16.3443  -25.5044   -9.1352 O   0  0  0  0  0  0  0  0  0  0  0  0
   19.0381  -27.5233   -1.8097 C   0  0  0  0  0  0  0  0  0  0  0  0
   18.1562  -27.2567   -2.8634 C   0  0  0  0  0  0  0  0  0  0  0  0
   18.5088  -27.3948   -4.1870 C   0  0  0  0  0  0  0  0  0  0  0  0
   17.6159  -27.1242   -5.2204 C   0  0  0  0  0  0  0  0  0  0  0  0
   16.3359  -26.7042   -4.9297 C   0  0  0  0  0  0  0  0  0  0  0  0
   15.4168  -26.4180   -6.0250 C   0  0  1  0  0  0  0  0  0  0  0  0
   15.4952  -25.0202   -6.5840 N   0  0  0  0  0  0  0  0  0  0  0  0
   16.8543  -24.7416   -7.0641 C   0  0  0  0  0  0  0  0  0  0  0  0
   15.1686  -24.0272   -5.5491 O   0  0  0  0  0  0  0  0  0  0  0  0
   13.9287  -23.9909   -4.9389 C   0  0  0  0  0  0  0  0  0  0  0  0
   15.9751  -26.5635   -3.6014 C   0  0  0  0  0  0  0  0  0  0  0  0
   16.8675  -26.8347   -2.6095 O   0  0  0  0  0  0  0  0  0  0  0  0
  2  3  2  0
  2  1  1  0
  4  2  1  0
  5  4  1  0
  6  7  1  0
  6  5  1  0
  8  9  1  1
  8  7  1  0
 10  8  1  0
 11 10  2  0
 12 13  1  0
 13 15  1  0
 14 13  2  0
 15 16  1  0
 17 16  1  1
 17 19  1  0
 17 18  1  0
 18 10  1  0
 19 28  1  0
 20 19  2  0
 22 21  1  0
 23 22  2  0
 24 23  1  0
 25 24  2  0
 25 31  1  0
 26 25  1  0
 27 28  1  0
 27 29  1  0
 27 26  1  6
 29 33  2  0
 29 30  1  0
 31 32  2  0
 32 22  1  0
M  END
$$$$
