RQY.pdb
     RDKit          3D

 33 33  0  0  1  0  0  0  0  0999 V2000
   22.5083  -17.5196  -18.1232 N   0  0  0  0  0  0  0  0  0  0  0  0
   22.0499  -18.4444  -19.0919 C   0  0  0  0  0  0  0  0  0  0  0  0
   21.1886  -18.0879  -20.0144 N   0  0  0  0  0  0  0  0  0  0  0  0
   22.4824  -19.7894  -19.1293 N   0  0  0  0  0  0  0  0  0  0  0  0
   23.3300  -20.2935  -18.0364 C   0  0  0  0  0  0  0  0  0  0  0  0
   22.4945  -20.8380  -16.9277 C   0  0  0  0  0  0  0  0  0  0  0  0
   23.2059  -21.3956  -15.7464 C   0  0  0  0  0  0  0  0  0  0  0  0
   24.4092  -22.1853  -16.1067 C   0  0  2  0  0  0  0  0  0  0  0  0
   24.1533  -23.5156  -16.5953 N   0  0  0  0  0  0  0  0  0  0  0  0
   25.3524  -22.3181  -14.9371 C   0  0  0  0  0  0  0  0  0  0  0  0
   25.4007  -23.4036  -14.3165 O   0  0  0  0  0  0  0  0  0  0  0  0
   20.8705  -18.8258  -20.6806 N   0  0  0  0  0  0  0  0  0  0  0  0
   28.9562  -19.6940  -15.9348 C   0  0  0  0  0  0  0  0  0  0  0  0
   28.2663  -18.6157  -15.2796 O   0  0  0  0  0  0  0  0  0  0  0  0
   28.2017  -17.5025  -15.8352 C   0  0  0  0  0  0  0  0  0  0  0  0
   27.6765  -18.9156  -13.9720 C   0  0  0  0  0  0  0  0  0  0  0  0
   28.0398  -20.2703  -13.4871 C   0  0  1  0  0  0  0  0  0  0  0  0
   26.8983  -21.2243  -13.2374 N   0  0  0  0  0  0  0  0  0  0  0  0
   26.1771  -21.2600  -14.5247 C   0  0  0  0  0  0  0  0  0  0  0  0
   25.9673  -20.7984  -12.1674 O   0  0  0  0  0  0  0  0  0  0  0  0
   25.3444  -19.6840  -12.3154 O   0  0  0  0  0  0  0  0  0  0  0  0
   29.0843  -19.7749   -5.4884 C   0  0  0  0  0  0  0  0  0  0  0  0
   28.0863  -19.7606   -6.4697 C   0  0  0  0  0  0  0  0  0  0  0  0
   27.2438  -20.8258   -6.6952 C   0  0  0  0  0  0  0  0  0  0  0  0
   26.2572  -20.7910   -7.6769 C   0  0  0  0  0  0  0  0  0  0  0  0
   26.1038  -19.6653   -8.4569 C   0  0  0  0  0  0  0  0  0  0  0  0
   25.0703  -19.6497   -9.4855 C   0  0  2  0  0  0  0  0  0  0  0  0
   24.6704  -21.0021  -10.0183 N   0  0  0  0  0  0  0  0  0  0  0  0
   25.6700  -21.4842  -10.9793 C   0  0  0  0  0  0  0  0  0  0  0  0
   23.3757  -20.9254  -10.7123 O   0  0  0  0  0  0  0  0  0  0  0  0
   23.2350  -20.2737  -11.9233 C   0  0  0  0  0  0  0  0  0  0  0  0
   26.9473  -18.5911   -8.2352 C   0  0  0  0  0  0  0  0  0  0  0  0
   27.9042  -18.6507   -7.2685 O   0  0  0  0  0  0  0  0  0  0  0  0
  2  3  2  0
  2  1  1  0
  4  2  1  0
  5  4  1  0
  6  7  1  0
  6  5  1  0
  8  9  1  1
  8  7  1  0
 10  8  1  0
 11 10  2  0
 12 13  1  0
 13 15  1  0
 14 13  2  0
 15 16  1  0
 17 16  1  6
 17 19  1  0
 17 18  1  0
 18 10  1  0
 19 28  1  0
 20 19  2  0
 22 21  1  0
 23 22  2  0
 24 23  1  0
 25 24  2  0
 25 31  1  0
 26 25  1  0
 27 28  1  0
 27 29  1  0
 27 26  1  1
 29 33  2  0
 29 30  1  0
 31 32  2  0
 32 22  1  0
M  END
$$$$
