AIS.pdb
     RDKit          3D

 20 19  0  0  1  0  0  0  0  0999 V2000
   13.3007  -17.7084    4.0636 C   0  0  0  0  0  0  0  0  0  0  0  0
   13.9138  -18.0125    2.6941 C   0  0  2  0  0  0  0  0  0  0  0  0
   13.2658  -19.2132    2.2115 N   0  0  0  0  0  0  0  0  0  0  0  0
   15.3361  -18.2763    2.8987 C   0  0  0  0  0  0  0  0  0  0  0  0
   15.7170  -19.4539    3.1162 O   0  0  0  0  0  0  0  0  0  0  0  0
   21.1423  -16.4419    1.6813 C   0  0  0  0  0  0  0  0  0  0  0  0
   20.1365  -17.2519    2.4375 C   0  0  0  0  0  0  0  0  0  0  0  0
   18.7294  -16.7596    2.3824 C   0  0  2  0  0  0  0  0  0  0  0  0
   18.6279  -15.2827    2.7474 C   0  0  0  0  0  0  0  0  0  0  0  0
   17.7074  -17.5823    3.0850 C   0  0  2  0  0  0  0  0  0  0  0  0
   16.3424  -17.2577    2.8664 N   0  0  0  0  0  0  0  0  0  0  0  0
   18.1148  -17.6620    4.5118 C   0  0  0  0  0  0  0  0  0  0  0  0
   17.7282  -16.7306    5.2512 O   0  0  0  0  0  0  0  0  0  0  0  0
   19.3098  -20.2992    8.3221 O   0  0  0  0  0  0  0  0  0  0  0  0
   19.0314  -20.2181    6.9591 C   0  0  0  0  0  0  0  0  0  0  0  0
   19.2125  -18.7953    6.4482 C   0  0  2  0  0  0  0  0  0  0  0  0
   18.8968  -18.7152    5.0480 N   0  0  0  0  0  0  0  0  0  0  0  0
   20.6330  -18.4194    6.6630 C   0  0  0  0  0  0  0  0  0  0  0  0
   21.5261  -18.7508    5.8258 O   0  0  0  0  0  0  0  0  0  0  0  0
   21.0624  -17.7009    7.7639 O   0  0  0  0  0  0  0  0  0  0  0  0
  2  1  1  1
  2  3  1  0
  4  2  1  0
  5  4  2  0
  7  6  1  0
  7  8  1  0
  8 10  1  0
  8  9  1  1
 10 12  1  0
 10 11  1  1
 11  4  1  0
 12 17  1  0
 13 12  2  0
 16 15  1  6
 15 14  1  0
 17 16  1  0
 18 16  1  0
 18 20  1  0
 19 18  2  0
M  END
$$$$
