AIS.pdb
     RDKit          3D

 20 19  0  0  1  0  0  0  0  0999 V2000
   27.3623  -18.3826  -16.0600 C   0  0  0  0  0  0  0  0  0  0  0  0
   27.9126  -19.4983  -15.1676 C   0  0  2  0  0  0  0  0  0  0  0  0
   28.6327  -20.4029  -16.0380 N   0  0  0  0  0  0  0  0  0  0  0  0
   26.7703  -20.1946  -14.5807 C   0  0  0  0  0  0  0  0  0  0  0  0
   26.2909  -21.1945  -15.1717 O   0  0  0  0  0  0  0  0  0  0  0  0
   26.0601  -20.6843   -9.0705 C   0  0  0  0  0  0  0  0  0  0  0  0
   26.1274  -20.9567  -10.5404 C   0  0  0  0  0  0  0  0  0  0  0  0
   24.9225  -20.5698  -11.3305 C   0  0  2  0  0  0  0  0  0  0  0  0
   23.6811  -21.3366  -10.8883 C   0  0  0  0  0  0  0  0  0  0  0  0
   25.0735  -20.5528  -12.8110 C   0  0  2  0  0  0  0  0  0  0  0  0
   26.1508  -19.8015  -13.3506 N   0  0  0  0  0  0  0  0  0  0  0  0
   23.7385  -20.2396  -13.3836 C   0  0  0  0  0  0  0  0  0  0  0  0
   23.3647  -19.0493  -13.2984 O   0  0  0  0  0  0  0  0  0  0  0  0
   20.2398  -21.2677  -16.5113 O   0  0  0  0  0  0  0  0  0  0  0  0
   21.4301  -21.6405  -15.8900 C   0  0  0  0  0  0  0  0  0  0  0  0
   21.6483  -20.8490  -14.6077 C   0  0  2  0  0  0  0  0  0  0  0  0
   22.9023  -21.2030  -14.0004 N   0  0  0  0  0  0  0  0  0  0  0  0
   20.5341  -21.1780  -13.6829 C   0  0  0  0  0  0  0  0  0  0  0  0
   20.6239  -22.1553  -12.8797 O   0  0  0  0  0  0  0  0  0  0  0  0
   19.3551  -20.4565  -13.6396 O   0  0  0  0  0  0  0  0  0  0  0  0
  2  1  1  6
  2  3  1  0
  4  2  1  0
  5  4  2  0
  7  6  1  0
  7  8  1  0
  8 10  1  0
  8  9  1  6
 10 12  1  0
 10 11  1  1
 11  4  1  0
 12 17  1  0
 13 12  2  0
 16 15  1  6
 15 14  1  0
 17 16  1  0
 18 16  1  0
 18 20  1  0
 19 18  2  0
M  END
$$$$
