AIS.pdb
     RDKit          3D

 20 19  0  0  1  0  0  0  0  0999 V2000
   20.8099  -11.1200  -20.0679 C   0  0  0  0  0  0  0  0  0  0  0  0
   22.1707  -11.6304  -19.5865 C   0  0  2  0  0  0  0  0  0  0  0  0
   22.0170  -13.0501  -19.3514 N   0  0  0  0  0  0  0  0  0  0  0  0
   22.4701  -10.9582  -18.3244 C   0  0  0  0  0  0  0  0  0  0  0  0
   21.7699  -11.2121  -17.3123 O   0  0  0  0  0  0  0  0  0  0  0  0
   27.0950  -11.0046  -15.7170 C   0  0  0  0  0  0  0  0  0  0  0  0
   25.6867  -10.9028  -16.2128 C   0  0  0  0  0  0  0  0  0  0  0  0
   25.1358   -9.5213  -16.3301 C   0  0  2  0  0  0  0  0  0  0  0  0
   25.2851   -8.7363  -15.0315 C   0  0  0  0  0  0  0  0  0  0  0  0
   23.7700   -9.3953  -16.9077 C   0  0  2  0  0  0  0  0  0  0  0  0
   23.5318  -10.0101  -18.1653 N   0  0  0  0  0  0  0  0  0  0  0  0
   23.3910   -7.9607  -16.8265 C   0  0  0  0  0  0  0  0  0  0  0  0
   23.9557   -7.1919  -17.6351 O   0  0  0  0  0  0  0  0  0  0  0  0
   20.1910   -4.5703  -15.7521 O   0  0  0  0  0  0  0  0  0  0  0  0
   20.5607   -5.9130  -15.8001 C   0  0  0  0  0  0  0  0  0  0  0  0
   22.0740   -6.0604  -15.8815 C   0  0  2  0  0  0  0  0  0  0  0  0
   22.4480   -7.4483  -15.9012 N   0  0  0  0  0  0  0  0  0  0  0  0
   22.6534   -5.4032  -14.6825 C   0  0  0  0  0  0  0  0  0  0  0  0
   22.8318   -6.0531  -13.6082 O   0  0  0  0  0  0  0  0  0  0  0  0
   23.0266   -4.0717  -14.6616 O   0  0  0  0  0  0  0  0  0  0  0  0
  2  1  1  1
  2  3  1  0
  4  2  1  0
  5  4  2  0
  7  6  1  0
  7  8  1  0
  8 10  1  0
  8  9  1  1
 10 12  1  0
 10 11  1  6
 11  4  1  0
 12 17  1  0
 13 12  2  0
 16 15  1  1
 15 14  1  0
 17 16  1  0
 18 16  1  0
 18 20  1  0
 19 18  2  0
M  END
$$$$
