AIS.pdb
     RDKit          3D

 20 19  0  0  1  0  0  0  0  0999 V2000
   21.8744  -14.8041  -18.4729 C   0  0  0  0  0  0  0  0  0  0  0  0
   21.9982  -13.3522  -18.9426 C   0  0  2  0  0  0  0  0  0  0  0  0
   23.0883  -13.3198  -19.8939 N   0  0  0  0  0  0  0  0  0  0  0  0
   22.3454  -12.5421  -17.7775 C   0  0  0  0  0  0  0  0  0  0  0  0
   21.5533  -12.4967  -16.8031 O   0  0  0  0  0  0  0  0  0  0  0  0
   27.4598  -11.6264  -15.6620 C   0  0  0  0  0  0  0  0  0  0  0  0
   26.0126  -11.8792  -15.9465 C   0  0  0  0  0  0  0  0  0  0  0  0
   25.1661  -10.6668  -16.1445 C   0  0  2  0  0  0  0  0  0  0  0  0
   25.2475   -9.7150  -14.9561 C   0  0  0  0  0  0  0  0  0  0  0  0
   23.7627  -10.8980  -16.5827 C   0  0  2  0  0  0  0  0  0  0  0  0
   23.5550  -11.7820  -17.6743 N   0  0  0  0  0  0  0  0  0  0  0  0
   23.1223   -9.5643  -16.7220 C   0  0  0  0  0  0  0  0  0  0  0  0
   23.5337   -8.8475  -17.6605 O   0  0  0  0  0  0  0  0  0  0  0  0
   19.6844   -8.6603  -17.4447 O   0  0  0  0  0  0  0  0  0  0  0  0
   19.9628   -7.9904  -16.2549 C   0  0  0  0  0  0  0  0  0  0  0  0
   21.4634   -7.8168  -16.0640 C   0  0  2  0  0  0  0  0  0  0  0  0
   22.0998   -9.0901  -15.8632 N   0  0  0  0  0  0  0  0  0  0  0  0
   21.6669   -6.9616  -14.8672 C   0  0  0  0  0  0  0  0  0  0  0  0
   22.1265   -7.4498  -13.7908 O   0  0  0  0  0  0  0  0  0  0  0  0
   21.3748   -5.6099  -14.8506 O   0  0  0  0  0  0  0  0  0  0  0  0
  2  1  1  1
  2  3  1  0
  4  2  1  0
  5  4  2  0
  7  6  1  0
  7  8  1  0
  8 10  1  0
  8  9  1  1
 10 12  1  0
 10 11  1  6
 11  4  1  0
 12 17  1  0
 13 12  2  0
 16 15  1  1
 15 14  1  0
 17 16  1  0
 18 16  1  0
 18 20  1  0
 19 18  2  0
M  END
$$$$
