AIS.pdb
     RDKit          3D

 20 19  0  0  1  0  0  0  0  0999 V2000
   24.7250  -23.4476  -16.8553 C   0  0  0  0  0  0  0  0  0  0  0  0
   25.4725  -23.5325  -15.5219 C   0  0  2  0  0  0  0  0  0  0  0  0
   25.6279  -24.9408  -15.2271 N   0  0  0  0  0  0  0  0  0  0  0  0
   24.6269  -22.9131  -14.5043 C   0  0  0  0  0  0  0  0  0  0  0  0
   23.5034  -23.4156  -14.2507 O   0  0  0  0  0  0  0  0  0  0  0  0
   26.5521  -20.9554   -9.7500 C   0  0  0  0  0  0  0  0  0  0  0  0
   25.7849  -21.5689  -10.8789 C   0  0  0  0  0  0  0  0  0  0  0  0
   24.7648  -20.6929  -11.5252 C   0  0  2  0  0  0  0  0  0  0  0  0
   23.7253  -20.1964  -10.5264 C   0  0  0  0  0  0  0  0  0  0  0  0
   24.1411  -21.2063  -12.7752 C   0  0  2  0  0  0  0  0  0  0  0  0
   25.0052  -21.7471  -13.7637 N   0  0  0  0  0  0  0  0  0  0  0  0
   23.2072  -20.1575  -13.2611 C   0  0  0  0  0  0  0  0  0  0  0  0
   23.7296  -19.1557  -13.7970 O   0  0  0  0  0  0  0  0  0  0  0  0
   20.2018  -19.4307  -16.3370 O   0  0  0  0  0  0  0  0  0  0  0  0
   21.0713  -20.0806  -15.4633 C   0  0  0  0  0  0  0  0  0  0  0  0
   20.9128  -19.5549  -14.0431 C   0  0  2  0  0  0  0  0  0  0  0  0
   21.7976  -20.2455  -13.1450 N   0  0  0  0  0  0  0  0  0  0  0  0
   19.5042  -19.7865  -13.6341 C   0  0  0  0  0  0  0  0  0  0  0  0
   19.2067  -20.7212  -12.8304 O   0  0  0  0  0  0  0  0  0  0  0  0
   18.4517  -19.0157  -14.0930 O   0  0  0  0  0  0  0  0  0  0  0  0
  2  1  1  6
  2  3  1  0
  4  2  1  0
  5  4  2  0
  7  6  1  0
  7  8  1  0
  8 10  1  0
  8  9  1  1
 10 12  1  0
 10 11  1  6
 11  4  1  0
 12 17  1  0
 13 12  2  0
 16 15  1  6
 15 14  1  0
 17 16  1  0
 18 16  1  0
 18 20  1  0
 19 18  2  0
M  END
$$$$
