AIS.pdb
     RDKit          3D

 20 19  0  0  1  0  0  0  0  0999 V2000
   22.6109   -7.9763  -20.9421 C   0  0  0  0  0  0  0  0  0  0  0  0
   22.8019   -9.1448  -19.9715 C   0  0  2  0  0  0  0  0  0  0  0  0
   21.9985  -10.2361  -20.4795 N   0  0  0  0  0  0  0  0  0  0  0  0
   22.2847   -8.7246  -18.6714 C   0  0  0  0  0  0  0  0  0  0  0  0
   21.0627   -8.4567  -18.5542 O   0  0  0  0  0  0  0  0  0  0  0  0
   23.1300  -11.4441  -14.1759 C   0  0  0  0  0  0  0  0  0  0  0  0
   22.6201  -10.5678  -15.2766 C   0  0  0  0  0  0  0  0  0  0  0  0
   22.8112   -9.1010  -15.0829 C   0  0  2  0  0  0  0  0  0  0  0  0
   22.1304   -8.6004  -13.8138 C   0  0  0  0  0  0  0  0  0  0  0  0
   22.5221   -8.2307  -16.2551 C   0  0  2  0  0  0  0  0  0  0  0  0
   23.0988   -8.5963  -17.5000 N   0  0  0  0  0  0  0  0  0  0  0  0
   22.7742   -6.8286  -15.8320 C   0  0  0  0  0  0  0  0  0  0  0  0
   23.9730   -6.4865  -15.7344 O   0  0  0  0  0  0  0  0  0  0  0  0
   21.9041   -2.2643  -15.9649 O   0  0  0  0  0  0  0  0  0  0  0  0
   21.6304   -3.5873  -16.3066 C   0  0  0  0  0  0  0  0  0  0  0  0
   22.0277   -4.5350  -15.1831 C   0  0  2  0  0  0  0  0  0  0  0  0
   21.7453   -5.8973  -15.5452 N   0  0  0  0  0  0  0  0  0  0  0  0
   21.2375   -4.1627  -13.9822 C   0  0  0  0  0  0  0  0  0  0  0  0
   20.0770   -4.6386  -13.7952 O   0  0  0  0  0  0  0  0  0  0  0  0
   21.7059   -3.2934  -13.0139 O   0  0  0  0  0  0  0  0  0  0  0  0
  2  1  1  6
  2  3  1  0
  4  2  1  0
  5  4  2  0
  7  6  1  0
  7  8  1  0
  8 10  1  0
  8  9  1  1
 10 12  1  0
 10 11  1  6
 11  4  1  0
 12 17  1  0
 13 12  2  0
 16 15  1  6
 15 14  1  0
 17 16  1  0
 18 16  1  0
 18 20  1  0
 19 18  2  0
M  END
$$$$
