AIS.pdb
     RDKit          3D

 20 19  0  0  1  0  0  0  0  0999 V2000
   21.1073  -22.6494  -14.8095 C   0  0  0  0  0  0  0  0  0  0  0  0
   21.1602  -21.7435  -13.5765 C   0  0  2  0  0  0  0  0  0  0  0  0
   20.1919  -20.6910  -13.7983 N   0  0  0  0  0  0  0  0  0  0  0  0
   22.5005  -21.1656  -13.5135 C   0  0  0  0  0  0  0  0  0  0  0  0
   22.7509  -20.1230  -14.1685 O   0  0  0  0  0  0  0  0  0  0  0  0
   25.1688  -21.1248   -8.9587 C   0  0  0  0  0  0  0  0  0  0  0  0
   24.8531  -20.5114  -10.2867 C   0  0  0  0  0  0  0  0  0  0  0  0
   25.5939  -21.0702  -11.4549 C   0  0  2  0  0  0  0  0  0  0  0  0
   26.9734  -20.4394  -11.6093 C   0  0  0  0  0  0  0  0  0  0  0  0
   24.8561  -21.1284  -12.7461 C   0  0  2  0  0  0  0  0  0  0  0  0
   23.5670  -21.7236  -12.7372 N   0  0  0  0  0  0  0  0  0  0  0  0
   25.7939  -21.6728  -13.7620 C   0  0  0  0  0  0  0  0  0  0  0  0
   26.2332  -22.8242  -13.5497 O   0  0  0  0  0  0  0  0  0  0  0  0
   25.6111  -23.5372  -16.4671 O   0  0  0  0  0  0  0  0  0  0  0  0
   25.9950  -22.2891  -16.9535 C   0  0  0  0  0  0  0  0  0  0  0  0
   26.9360  -21.5899  -15.9819 C   0  0  2  0  0  0  0  0  0  0  0  0
   26.1955  -20.9632  -14.9210 N   0  0  0  0  0  0  0  0  0  0  0  0
   27.6845  -20.5598  -16.7458 C   0  0  0  0  0  0  0  0  0  0  0  0
   27.2900  -19.3548  -16.7697 O   0  0  0  0  0  0  0  0  0  0  0  0
   28.8327  -20.8423  -17.4632 O   0  0  0  0  0  0  0  0  0  0  0  0
  2  1  1  6
  2  3  1  0
  4  2  1  0
  5  4  2  0
  7  6  1  0
  7  8  1  0
  8 10  1  0
  8  9  1  6
 10 12  1  0
 10 11  1  1
 11  4  1  0
 12 17  1  0
 13 12  2  0
 16 15  1  6
 15 14  1  0
 17 16  1  0
 18 16  1  0
 18 20  1  0
 19 18  2  0
M  END
$$$$
