TCV.pdb
     RDKit          3D

 21 20  0  0  1  0  0  0  0  0999 V2000
    8.6351  -12.7488   20.0340 C   0  0  0  0  0  0  0  0  0  0  0  0
    8.1092  -13.6549   18.9236 C   0  0  1  0  0  0  0  0  0  0  0  0
    8.7655  -13.3536   17.7291 O   0  0  0  0  0  0  0  0  0  0  0  0
    8.3321  -15.0916   19.3288 C   0  0  2  0  0  0  0  0  0  0  0  0
    7.8404  -15.9356   18.2555 N   0  0  0  0  0  0  0  0  0  0  0  0
    7.5217  -15.3423   20.5681 C   0  0  0  0  0  0  0  0  0  0  0  0
    6.3737  -15.8483   20.5364 O   0  0  0  0  0  0  0  0  0  0  0  0
    8.0347  -15.0075   21.8579 N   0  0  0  0  0  0  0  0  0  0  0  0
    7.5073  -15.5488   23.0856 C   0  0  1  0  0  0  0  0  0  0  0  0
    7.5964  -17.0355   23.0220 C   0  0  0  0  0  0  0  0  0  0  0  0
    7.0569  -17.6604   24.6576 S   0  0  0  0  0  0  0  0  0  0  0  0
    8.1739  -14.9579   24.2806 C   0  0  0  0  0  0  0  0  0  0  0  0
    9.4054  -15.1480   24.4095 O   0  0  0  0  0  0  0  0  0  0  0  0
    6.9706  -11.3391   25.9505 C   0  0  0  0  0  0  0  0  0  0  0  0
    7.2603  -12.4318   26.9406 C   0  0  1  0  0  0  0  0  0  0  0  0
    5.9863  -12.9158   27.5639 C   0  0  0  0  0  0  0  0  0  0  0  0
    8.1097  -13.5366   26.3714 C   0  0  2  0  0  0  0  0  0  0  0  0
    7.5098  -14.2053   25.2634 N   0  0  0  0  0  0  0  0  0  0  0  0
    8.4864  -14.4523   27.4741 C   0  0  0  0  0  0  0  0  0  0  0  0
    9.3037  -14.0591   28.5243 O   0  0  0  0  0  0  0  0  0  0  0  0
    8.0599  -15.6353   27.4788 O   0  0  0  0  0  0  0  0  0  0  0  0
  2  1  1  1
  2  3  1  0
  4  5  1  6
  4  2  1  0
  6  4  1  0
  7  6  2  0
  8  6  1  0
  9  8  1  0
  9 12  1  0
  9 10  1  6
 11 10  1  0
 12 18  1  0
 12 13  2  0
 15 16  1  6
 15 14  1  0
 17 15  1  0
 17 18  1  6
 19 17  1  0
 19 20  1  0
 21 19  2  0
M  END
$$$$
