TCV.pdb
     RDKit          3D

 21 20  0  0  1  0  0  0  0  0999 V2000
    4.0748  -16.8955   21.0906 C   0  0  0  0  0  0  0  0  0  0  0  0
    3.7453  -18.3798   21.2276 C   0  0  1  0  0  0  0  0  0  0  0  0
    2.4108  -18.5929   20.8783 O   0  0  0  0  0  0  0  0  0  0  0  0
    4.6804  -19.1643   20.3399 C   0  0  2  0  0  0  0  0  0  0  0  0
    4.3312  -20.5677   20.4597 N   0  0  0  0  0  0  0  0  0  0  0  0
    6.0752  -18.9543   20.8556 C   0  0  0  0  0  0  0  0  0  0  0  0
    6.4923  -19.4809   21.9156 O   0  0  0  0  0  0  0  0  0  0  0  0
    7.0008  -18.1298   20.1469 N   0  0  0  0  0  0  0  0  0  0  0  0
    8.3358  -17.8531   20.6156 C   0  0  1  0  0  0  0  0  0  0  0  0
    9.2358  -17.7358   19.4332 C   0  0  0  0  0  0  0  0  0  0  0  0
   10.8949  -17.3067   20.0814 S   0  0  0  0  0  0  0  0  0  0  0  0
    8.3696  -16.6658   21.5161 C   0  0  0  0  0  0  0  0  0  0  0  0
    8.0489  -15.5585   21.0260 O   0  0  0  0  0  0  0  0  0  0  0  0
    6.9484  -14.5411   23.9935 C   0  0  0  0  0  0  0  0  0  0  0  0
    8.1672  -15.1236   24.6521 C   0  0  1  0  0  0  0  0  0  0  0  0
    7.7654  -16.1491   25.6682 C   0  0  0  0  0  0  0  0  0  0  0  0
    9.1915  -15.6207   23.6674 C   0  0  2  0  0  0  0  0  0  0  0  0
    8.7357  -16.7132   22.8714 N   0  0  0  0  0  0  0  0  0  0  0  0
   10.4437  -15.9148   24.4035 C   0  0  0  0  0  0  0  0  0  0  0  0
   11.2441  -14.9176   24.9426 O   0  0  0  0  0  0  0  0  0  0  0  0
   10.8138  -17.1066   24.5582 O   0  0  0  0  0  0  0  0  0  0  0  0
  2  1  1  6
  2  3  1  0
  4  5  1  1
  4  2  1  0
  6  4  1  0
  7  6  2  0
  8  6  1  0
  9  8  1  0
  9 12  1  0
  9 10  1  6
 11 10  1  0
 12 18  1  0
 12 13  2  0
 15 16  1  1
 15 14  1  0
 17 15  1  0
 17 18  1  1
 19 17  1  0
 19 20  1  0
 21 19  2  0
M  END
$$$$
