TCV.pdb
     RDKit          3D

 21 20  0  0  1  0  0  0  0  0999 V2000
    7.2140  -17.2382   20.2219 C   0  0  0  0  0  0  0  0  0  0  0  0
    7.6937  -16.7037   21.5690 C   0  0  1  0  0  0  0  0  0  0  0  0
    8.7850  -17.4569   22.0050 O   0  0  0  0  0  0  0  0  0  0  0  0
    8.0570  -15.2478   21.4073 C   0  0  2  0  0  0  0  0  0  0  0  0
    9.2001  -15.1731   20.5164 N   0  0  0  0  0  0  0  0  0  0  0  0
    8.4477  -14.7268   22.7606 C   0  0  0  0  0  0  0  0  0  0  0  0
    9.6128  -14.8287   23.2156 O   0  0  0  0  0  0  0  0  0  0  0  0
    7.4899  -14.0824   23.6010 N   0  0  0  0  0  0  0  0  0  0  0  0
    7.7935  -13.6036   24.9264 C   0  0  1  0  0  0  0  0  0  0  0  0
    6.6447  -12.7838   25.4062 C   0  0  0  0  0  0  0  0  0  0  0  0
    7.0418  -12.2848   27.1239 S   0  0  0  0  0  0  0  0  0  0  0  0
    8.1611  -14.7182   25.8453 C   0  0  0  0  0  0  0  0  0  0  0  0
    7.3231  -15.6353   26.0067 O   0  0  0  0  0  0  0  0  0  0  0  0
   10.7188  -17.3134   25.6623 C   0  0  0  0  0  0  0  0  0  0  0  0
   10.9534  -16.6330   26.9816 C   0  0  1  0  0  0  0  0  0  0  0  0
   12.2336  -15.8550   26.9416 C   0  0  0  0  0  0  0  0  0  0  0  0
    9.7723  -15.8254   27.4494 C   0  0  2  0  0  0  0  0  0  0  0  0
    9.3817  -14.8024   26.5353 N   0  0  0  0  0  0  0  0  0  0  0  0
   10.0642  -15.3150   28.8098 C   0  0  0  0  0  0  0  0  0  0  0  0
   10.3054  -16.1564   29.8867 O   0  0  0  0  0  0  0  0  0  0  0  0
   10.1004  -14.0755   29.0190 O   0  0  0  0  0  0  0  0  0  0  0  0
  2  1  1  6
  2  3  1  0
  4  5  1  6
  4  2  1  0
  6  4  1  0
  7  6  2  0
  8  6  1  0
  9  8  1  0
  9 12  1  0
  9 10  1  1
 11 10  1  0
 12 18  1  0
 12 13  2  0
 15 16  1  6
 15 14  1  0
 17 15  1  0
 17 18  1  6
 19 17  1  0
 19 20  1  0
 21 19  2  0
M  END
$$$$
