TCV.pdb
     RDKit          3D

 21 20  0  0  1  0  0  0  0  0999 V2000
   -4.2656  -25.5108   26.7977 C   0  0  0  0  0  0  0  0  0  0  0  0
   -3.3033  -24.3447   26.5860 C   0  0  1  0  0  0  0  0  0  0  0  0
   -2.5454  -24.5715   25.4360 O   0  0  0  0  0  0  0  0  0  0  0  0
   -4.1067  -23.0718   26.4757 C   0  0  2  0  0  0  0  0  0  0  0  0
   -3.1850  -21.9911   26.1781 N   0  0  0  0  0  0  0  0  0  0  0  0
   -4.7467  -22.8244   27.8116 C   0  0  0  0  0  0  0  0  0  0  0  0
   -4.0826  -22.5554   28.8419 O   0  0  0  0  0  0  0  0  0  0  0  0
   -6.1648  -22.8873   27.9663 N   0  0  0  0  0  0  0  0  0  0  0  0
   -6.8273  -22.8001   29.2437 C   0  0  1  0  0  0  0  0  0  0  0  0
   -7.7725  -21.6480   29.2070 C   0  0  0  0  0  0  0  0  0  0  0  0
   -8.6435  -21.6368   30.8189 S   0  0  0  0  0  0  0  0  0  0  0  0
   -7.4688  -24.0913   29.6221 C   0  0  0  0  0  0  0  0  0  0  0  0
   -8.2951  -24.5839   28.8197 O   0  0  0  0  0  0  0  0  0  0  0  0
   -6.0731  -27.4939   30.1164 C   0  0  0  0  0  0  0  0  0  0  0  0
   -6.7741  -27.1296   31.3948 C   0  0  1  0  0  0  0  0  0  0  0  0
   -5.7716  -26.8654   32.4769 C   0  0  0  0  0  0  0  0  0  0  0  0
   -7.7807  -26.0236   31.2235 C   0  0  2  0  0  0  0  0  0  0  0  0
   -7.2040  -24.7845   30.8148 N   0  0  0  0  0  0  0  0  0  0  0  0
   -8.5749  -25.9169   32.4702 C   0  0  0  0  0  0  0  0  0  0  0  0
   -9.4588  -26.9056   32.8788 O   0  0  0  0  0  0  0  0  0  0  0  0
   -8.4588  -24.9005   33.2014 O   0  0  0  0  0  0  0  0  0  0  0  0
  2  1  1  6
  2  3  1  0
  4  5  1  1
  4  2  1  0
  6  4  1  0
  7  6  2  0
  8  6  1  0
  9  8  1  0
  9 12  1  0
  9 10  1  6
 11 10  1  0
 12 18  1  0
 12 13  2  0
 15 16  1  1
 15 14  1  0
 17 15  1  0
 17 18  1  1
 19 17  1  0
 19 20  1  0
 21 19  2  0
M  END
$$$$
