TCV.pdb
     RDKit          3D

 21 20  0  0  1  0  0  0  0  0999 V2000
    8.6473  -12.5317   20.0090 C   0  0  0  0  0  0  0  0  0  0  0  0
    8.2017  -13.4335   18.8607 C   0  0  1  0  0  0  0  0  0  0  0  0
    8.8660  -13.0587   17.6917 O   0  0  0  0  0  0  0  0  0  0  0  0
    8.5001  -14.8661   19.2302 C   0  0  2  0  0  0  0  0  0  0  0  0
    8.0631  -15.7070   18.1312 N   0  0  0  0  0  0  0  0  0  0  0  0
    7.6959  -15.1934   20.4556 C   0  0  0  0  0  0  0  0  0  0  0  0
    6.5926  -15.7892   20.4030 O   0  0  0  0  0  0  0  0  0  0  0  0
    8.1632  -14.8320   21.7555 N   0  0  0  0  0  0  0  0  0  0  0  0
    7.5014  -15.2270   22.9738 C   0  0  1  0  0  0  0  0  0  0  0  0
    7.4492  -16.7160   23.0206 C   0  0  0  0  0  0  0  0  0  0  0  0
    9.1463  -17.2851   23.4113 S   0  0  0  0  0  0  0  0  0  0  0  0
    8.1377  -14.6106   24.1725 C   0  0  0  0  0  0  0  0  0  0  0  0
    9.3895  -14.5821   24.2129 O   0  0  0  0  0  0  0  0  0  0  0  0
    6.9010  -11.1377   25.8868 C   0  0  0  0  0  0  0  0  0  0  0  0
    7.0856  -12.2546   26.8751 C   0  0  1  0  0  0  0  0  0  0  0  0
    5.7541  -12.7359   27.3661 C   0  0  0  0  0  0  0  0  0  0  0  0
    7.9730  -13.3575   26.3630 C   0  0  2  0  0  0  0  0  0  0  0  0
    7.4240  -14.0628   25.2512 N   0  0  0  0  0  0  0  0  0  0  0  0
    8.3256  -14.2401   27.5002 C   0  0  0  0  0  0  0  0  0  0  0  0
    9.0407  -13.7894   28.6007 O   0  0  0  0  0  0  0  0  0  0  0  0
    7.9729  -15.4470   27.4887 O   0  0  0  0  0  0  0  0  0  0  0  0
  2  1  1  1
  2  3  1  0
  4  5  1  6
  4  2  1  0
  6  4  1  0
  7  6  2  0
  8  6  1  0
  9  8  1  0
  9 12  1  0
  9 10  1  1
 11 10  1  0
 12 18  1  0
 12 13  2  0
 15 16  1  6
 15 14  1  0
 17 15  1  0
 17 18  1  6
 19 17  1  0
 19 20  1  0
 21 19  2  0
M  END
$$$$
