TCV.pdb
     RDKit          3D

 21 20  0  0  1  0  0  0  0  0999 V2000
    8.8235  -17.0553   21.2850 C   0  0  0  0  0  0  0  0  0  0  0  0
    8.8851  -15.8013   20.4164 C   0  0  1  0  0  0  0  0  0  0  0  0
    8.7611  -16.1607   19.0733 O   0  0  0  0  0  0  0  0  0  0  0  0
    7.7794  -14.8663   20.8421 C   0  0  2  0  0  0  0  0  0  0  0  0
    7.7214  -13.7821   19.8793 N   0  0  0  0  0  0  0  0  0  0  0  0
    8.1482  -14.3144   22.1892 C   0  0  0  0  0  0  0  0  0  0  0  0
    9.0410  -13.4463   22.3447 O   0  0  0  0  0  0  0  0  0  0  0  0
    7.4852  -14.7649   23.3709 N   0  0  0  0  0  0  0  0  0  0  0  0
    7.7558  -14.2330   24.6832 C   0  0  1  0  0  0  0  0  0  0  0  0
    6.4595  -14.0609   25.3987 C   0  0  0  0  0  0  0  0  0  0  0  0
    6.0553  -15.6855   26.1432 S   0  0  0  0  0  0  0  0  0  0  0  0
    8.7443  -15.0673   25.4239 C   0  0  0  0  0  0  0  0  0  0  0  0
    9.0352  -16.1858   24.9404 O   0  0  0  0  0  0  0  0  0  0  0  0
   11.5491  -13.3920   28.2105 C   0  0  0  0  0  0  0  0  0  0  0  0
   10.8738  -14.6888   28.5575 C   0  0  1  0  0  0  0  0  0  0  0  0
    9.8484  -14.4676   29.6277 C   0  0  0  0  0  0  0  0  0  0  0  0
   10.3401  -15.4189   27.3540 C   0  0  2  0  0  0  0  0  0  0  0  0
    9.3657  -14.6776   26.6219 N   0  0  0  0  0  0  0  0  0  0  0  0
    9.8566  -16.7499   27.7909 C   0  0  0  0  0  0  0  0  0  0  0  0
    8.5318  -17.1421   27.6612 O   0  0  0  0  0  0  0  0  0  0  0  0
   10.6604  -17.5716   28.3008 O   0  0  0  0  0  0  0  0  0  0  0  0
  2  1  1  1
  2  3  1  0
  4  5  1  6
  4  2  1  0
  6  4  1  0
  7  6  2  0
  8  6  1  0
  9  8  1  0
  9 12  1  0
  9 10  1  1
 11 10  1  0
 12 18  1  0
 12 13  2  0
 15 16  1  1
 15 14  1  0
 17 15  1  0
 17 18  1  1
 19 17  1  0
 19 20  1  0
 21 19  2  0
M  END
$$$$
