SQF.pdb
     RDKit          3D

 27 27  0  0  1  0  0  0  0  0999 V2000
   16.2993  -10.3487  -11.5428 O   0  0  0  0  0  0  0  0  0  0  0  0
   16.5624  -10.1501  -10.1881 C   0  0  0  0  0  0  0  0  0  0  0  0
   15.4732   -9.2636   -9.6135 C   0  0  2  0  0  0  0  0  0  0  0  0
   14.1557   -9.7093  -10.0221 N   0  0  0  0  0  0  0  0  0  0  0  0
   15.6603   -7.8756  -10.0604 C   0  0  0  0  0  0  0  0  0  0  0  0
   14.9269   -7.4006  -10.9949 O   0  0  0  0  0  0  0  0  0  0  0  0
   14.1990   -2.9364   -8.9514 N   0  0  0  0  0  0  0  0  0  0  0  0
   15.4033   -2.4136   -9.4688 C   0  0  0  0  0  0  0  0  0  0  0  0
   15.4378   -1.2344   -9.8740 O   0  0  0  0  0  0  0  0  0  0  0  0
   16.6814   -3.2110   -9.5646 C   0  0  0  0  0  0  0  0  0  0  0  0
   16.4816   -4.5974   -9.0237 C   0  0  0  0  0  0  0  0  0  0  0  0
   16.7926   -5.6204  -10.0434 C   0  0  2  0  0  0  0  0  0  0  0  0
   16.6054   -6.9803   -9.5408 N   0  0  0  0  0  0  0  0  0  0  0  0
   18.1796   -5.5397  -10.5411 C   0  0  0  0  0  0  0  0  0  0  0  0
   19.2011   -5.9631   -9.9368 O   0  0  0  0  0  0  0  0  0  0  0  0
   18.4776   -4.9367  -11.8257 N   0  0  0  0  0  0  0  0  0  0  0  0
   19.8143   -4.8030  -12.3188 C   0  0  1  0  0  0  0  0  0  0  0  0
   20.0287   -5.7539  -13.4950 C   0  0  0  0  0  0  0  0  0  0  0  0
   20.4098   -7.1106  -13.0471 C   0  0  0  0  0  0  0  0  0  0  0  0
   21.5786   -7.3055  -12.3455 C   0  0  0  0  0  0  0  0  0  0  0  0
   21.9307   -8.5812  -11.9279 C   0  0  0  0  0  0  0  0  0  0  0  0
   21.1249   -9.6453  -12.2087 C   0  0  0  0  0  0  0  0  0  0  0  0
   19.9567   -9.4438  -12.9111 C   0  0  0  0  0  0  0  0  0  0  0  0
   19.5906   -8.1918  -13.3327 C   0  0  0  0  0  0  0  0  0  0  0  0
   20.1144   -3.3918  -12.7227 C   0  0  0  0  0  0  0  0  0  0  0  0
   21.4117   -2.9736  -12.9757 O   0  0  0  0  0  0  0  0  0  0  0  0
   19.2018   -2.5368  -12.8465 O   0  0  0  0  0  0  0  0  0  0  0  0
  2  1  1  0
  3  2  1  0
  3  4  1  6
  5 13  1  0
  5  3  1  0
  6  5  2  0
  7  8  1  0
  8 10  1  0
  9  8  2  0
 10 11  1  0
 12 11  1  1
 12 14  1  0
 12 13  1  0
 14 16  1  0
 15 14  2  0
 16 17  1  0
 17 25  1  0
 17 18  1  6
 19 24  2  0
 19 18  1  0
 20 19  1  0
 21 22  1  0
 21 20  2  0
 22 23  2  0
 23 24  1  0
 25 26  1  0
 27 25  2  0
M  END
$$$$
