SQF.pdb
     RDKit          3D

 27 27  0  0  1  0  0  0  0  0999 V2000
   17.8946  -13.9406  -18.5914 O   0  0  0  0  0  0  0  0  0  0  0  0
   17.3252  -12.7710  -18.0897 C   0  0  0  0  0  0  0  0  0  0  0  0
   17.3833  -11.7079  -19.1709 C   0  0  2  0  0  0  0  0  0  0  0  0
   18.0773  -12.1875  -20.3497 N   0  0  0  0  0  0  0  0  0  0  0  0
   18.0766  -10.5123  -18.6700 C   0  0  0  0  0  0  0  0  0  0  0  0
   19.1194  -10.0791  -19.2714 O   0  0  0  0  0  0  0  0  0  0  0  0
   14.1638   -7.7832  -16.5112 N   0  0  0  0  0  0  0  0  0  0  0  0
   15.1851   -6.8177  -16.3834 C   0  0  0  0  0  0  0  0  0  0  0  0
   15.0044   -5.8249  -15.6503 O   0  0  0  0  0  0  0  0  0  0  0  0
   16.5128   -6.9141  -17.0951 C   0  0  0  0  0  0  0  0  0  0  0  0
   17.4985   -7.6928  -16.2725 C   0  0  0  0  0  0  0  0  0  0  0  0
   18.3603   -8.5366  -17.1258 C   0  0  2  0  0  0  0  0  0  0  0  0
   17.6910   -9.7656  -17.5481 N   0  0  0  0  0  0  0  0  0  0  0  0
   19.6136   -8.9434  -16.4613 C   0  0  0  0  0  0  0  0  0  0  0  0
   19.8963  -10.1111  -16.0812 O   0  0  0  0  0  0  0  0  0  0  0  0
   20.6597   -7.9778  -16.1857 N   0  0  0  0  0  0  0  0  0  0  0  0
   21.9241   -8.3538  -15.6309 C   0  0  1  0  0  0  0  0  0  0  0  0
   22.6562   -9.2835  -16.5968 C   0  0  0  0  0  0  0  0  0  0  0  0
   23.9987   -9.6526  -16.0989 C   0  0  0  0  0  0  0  0  0  0  0  0
   25.1140   -8.9865  -16.5557 C   0  0  0  0  0  0  0  0  0  0  0  0
   26.3713   -9.3376  -16.0845 C   0  0  0  0  0  0  0  0  0  0  0  0
   26.5093  -10.3402  -15.1701 C   0  0  0  0  0  0  0  0  0  0  0  0
   25.3895  -11.0029  -14.7170 C   0  0  0  0  0  0  0  0  0  0  0  0
   24.1387  -10.6716  -15.1696 C   0  0  0  0  0  0  0  0  0  0  0  0
   22.7660   -7.1553  -15.3154 C   0  0  0  0  0  0  0  0  0  0  0  0
   23.4217   -7.0334  -14.0999 O   0  0  0  0  0  0  0  0  0  0  0  0
   22.9081   -6.2179  -16.1402 O   0  0  0  0  0  0  0  0  0  0  0  0
  2  1  1  0
  3  2  1  0
  3  4  1  6
  5 13  1  0
  5  3  1  0
  6  5  2  0
  7  8  1  0
  8 10  1  0
  9  8  2  0
 10 11  1  0
 12 11  1  1
 12 14  1  0
 12 13  1  0
 14 16  1  0
 15 14  2  0
 16 17  1  0
 17 25  1  0
 17 18  1  6
 19 24  2  0
 19 18  1  0
 20 19  1  0
 21 22  1  0
 21 20  2  0
 22 23  2  0
 23 24  1  0
 25 26  1  0
 27 25  2  0
M  END
$$$$
