SQF.pdb
     RDKit          3D

 27 27  0  0  1  0  0  0  0  0999 V2000
   17.4371  -12.9560  -15.4627 O   0  0  0  0  0  0  0  0  0  0  0  0
   17.4536  -11.7867  -14.7037 C   0  0  0  0  0  0  0  0  0  0  0  0
   17.8516  -10.6346  -15.6074 C   0  0  2  0  0  0  0  0  0  0  0  0
   17.8909  -11.0405  -16.9984 N   0  0  0  0  0  0  0  0  0  0  0  0
   19.1778  -10.1265  -15.2275 C   0  0  0  0  0  0  0  0  0  0  0  0
   19.3845   -9.7070  -14.0367 O   0  0  0  0  0  0  0  0  0  0  0  0
   24.5515  -11.5408  -17.9255 N   0  0  0  0  0  0  0  0  0  0  0  0
   24.2743  -11.9146  -16.5932 C   0  0  0  0  0  0  0  0  0  0  0  0
   24.8612  -12.8960  -16.0952 O   0  0  0  0  0  0  0  0  0  0  0  0
   23.2892  -11.1837  -15.7134 C   0  0  0  0  0  0  0  0  0  0  0  0
   22.7030  -10.0074  -16.4396 C   0  0  0  0  0  0  0  0  0  0  0  0
   21.5589   -9.4365  -15.6994 C   0  0  2  0  0  0  0  0  0  0  0  0
   20.2888  -10.0527  -16.0790 N   0  0  0  0  0  0  0  0  0  0  0  0
   21.4028   -7.9834  -15.9044 C   0  0  0  0  0  0  0  0  0  0  0  0
   20.8428   -7.4384  -16.8929 O   0  0  0  0  0  0  0  0  0  0  0  0
   21.9093   -7.0340  -14.9324 N   0  0  0  0  0  0  0  0  0  0  0  0
   21.7194   -5.6221  -15.0680 C   0  0  1  0  0  0  0  0  0  0  0  0
   20.2261   -5.3011  -15.0865 C   0  0  0  0  0  0  0  0  0  0  0  0
   19.9736   -3.8511  -15.2285 C   0  0  0  0  0  0  0  0  0  0  0  0
   19.8127   -3.0633  -14.1105 C   0  0  0  0  0  0  0  0  0  0  0  0
   19.5761   -1.7031  -14.2505 C   0  0  0  0  0  0  0  0  0  0  0  0
   19.5018   -1.1405  -15.4909 C   0  0  0  0  0  0  0  0  0  0  0  0
   19.6636   -1.9340  -16.6056 C   0  0  0  0  0  0  0  0  0  0  0  0
   19.8982   -3.2797  -16.4892 C   0  0  0  0  0  0  0  0  0  0  0  0
   22.4059   -4.8658  -13.9719 C   0  0  0  0  0  0  0  0  0  0  0  0
   23.0982   -3.6923  -14.2285 O   0  0  0  0  0  0  0  0  0  0  0  0
   22.3792   -5.2673  -12.7815 O   0  0  0  0  0  0  0  0  0  0  0  0
  2  1  1  0
  3  2  1  0
  3  4  1  6
  5 13  1  0
  5  3  1  0
  6  5  2  0
  7  8  1  0
  8 10  1  0
  9  8  2  0
 10 11  1  0
 12 11  1  6
 12 14  1  0
 12 13  1  0
 14 16  1  0
 15 14  2  0
 16 17  1  0
 17 25  1  0
 17 18  1  1
 19 24  2  0
 19 18  1  0
 20 19  1  0
 21 22  1  0
 21 20  2  0
 22 23  2  0
 23 24  1  0
 25 26  1  0
 27 25  2  0
M  END
$$$$
