SQF.pdb
     RDKit          3D

 27 27  0  0  1  0  0  0  0  0999 V2000
   29.4049  -39.6780   -9.2770 O   0  0  0  0  0  0  0  0  0  0  0  0
   29.2980  -38.5146  -10.0378 C   0  0  0  0  0  0  0  0  0  0  0  0
   27.9451  -37.8849   -9.7627 C   0  0  2  0  0  0  0  0  0  0  0  0
   27.3122  -37.4318  -10.9855 N   0  0  0  0  0  0  0  0  0  0  0  0
   28.0946  -36.7371   -8.8565 C   0  0  0  0  0  0  0  0  0  0  0  0
   28.8048  -35.7329   -9.2086 O   0  0  0  0  0  0  0  0  0  0  0  0
   24.1915  -34.2708   -4.5250 N   0  0  0  0  0  0  0  0  0  0  0  0
   25.3546  -33.4721   -4.4981 C   0  0  0  0  0  0  0  0  0  0  0  0
   25.3437  -32.3905   -3.8771 O   0  0  0  0  0  0  0  0  0  0  0  0
   26.6406  -33.8543   -5.1902 C   0  0  0  0  0  0  0  0  0  0  0  0
   26.4583  -35.1141   -5.9867 C   0  0  0  0  0  0  0  0  0  0  0  0
   27.6964  -35.4767   -6.7067 C   0  0  2  0  0  0  0  0  0  0  0  0
   27.5097  -36.6285   -7.5873 N   0  0  0  0  0  0  0  0  0  0  0  0
   28.8153  -35.8102   -5.8041 C   0  0  0  0  0  0  0  0  0  0  0  0
   29.2280  -36.9727   -5.5465 O   0  0  0  0  0  0  0  0  0  0  0  0
   29.5548  -34.7698   -5.1162 N   0  0  0  0  0  0  0  0  0  0  0  0
   30.6055  -35.0604   -4.1891 C   0  0  1  0  0  0  0  0  0  0  0  0
   31.9376  -34.5593   -4.7443 C   0  0  0  0  0  0  0  0  0  0  0  0
   33.0605  -34.8376   -3.8235 C   0  0  0  0  0  0  0  0  0  0  0  0
   33.9368  -35.8657   -4.0907 C   0  0  0  0  0  0  0  0  0  0  0  0
   34.9887  -36.1218   -3.2224 C   0  0  0  0  0  0  0  0  0  0  0  0
   35.1604  -35.3601   -2.1041 C   0  0  0  0  0  0  0  0  0  0  0  0
   34.2802  -34.3328   -1.8423 C   0  0  0  0  0  0  0  0  0  0  0  0
   33.2347  -34.0632   -2.6869 C   0  0  0  0  0  0  0  0  0  0  0  0
   30.3366  -34.4573   -2.8443 C   0  0  0  0  0  0  0  0  0  0  0  0
   30.8674  -35.0068   -1.6874 O   0  0  0  0  0  0  0  0  0  0  0  0
   29.6207  -33.4325   -2.7162 O   0  0  0  0  0  0  0  0  0  0  0  0
  2  1  1  0
  3  2  1  0
  3  4  1  6
  5 13  1  0
  5  3  1  0
  6  5  2  0
  7  8  1  0
  8 10  1  0
  9  8  2  0
 10 11  1  0
 12 11  1  1
 12 14  1  0
 12 13  1  0
 14 16  1  0
 15 14  2  0
 16 17  1  0
 17 25  1  0
 17 18  1  6
 19 24  2  0
 19 18  1  0
 20 19  1  0
 21 22  1  0
 21 20  2  0
 22 23  2  0
 23 24  1  0
 25 26  1  0
 27 25  2  0
M  END
$$$$
