LEW.pdb
     RDKit          3D

 32 33  0  0  1  0  0  0  0  0999 V2000
   30.3394  -23.2319  -20.5783 C   0  0  0  0  0  0  0  0  0  0  0  0
   30.9206  -22.5333  -19.4008 C   0  0  2  0  0  0  0  0  0  0  0  0
   31.5887  -23.5906  -18.5212 C   0  0  0  0  0  0  0  0  0  0  0  0
   29.9793  -21.7793  -18.5540 C   0  0  0  0  0  0  0  0  0  0  0  0
   29.2102  -22.5099  -17.5242 C   0  0  2  0  0  0  0  0  0  0  0  0
   28.4107  -23.6049  -17.9713 N   0  0  0  0  0  0  0  0  0  0  0  0
   28.4843  -21.6282  -16.5518 C   0  0  0  0  0  0  0  0  0  0  0  0
   29.1074  -20.6842  -15.9758 O   0  0  0  0  0  0  0  0  0  0  0  0
   27.1173  -21.8035  -16.2419 N   0  0  0  0  0  0  0  0  0  0  0  0
   26.3830  -20.8800  -15.3135 C   0  0  1  0  0  0  0  0  0  0  0  0
   25.3536  -20.1745  -16.0850 C   0  0  0  0  0  0  0  0  0  0  0  0
   25.4706  -18.7667  -16.4612 C   0  0  0  0  0  0  0  0  0  0  0  0
   24.5074  -17.8223  -15.8526 C   0  0  0  0  0  0  0  0  0  0  0  0
   23.4574  -18.3610  -15.3573 O   0  0  0  0  0  0  0  0  0  0  0  0
   26.1487  -21.5198  -14.0521 C   0  0  0  0  0  0  0  0  0  0  0  0
   25.6990  -22.7281  -14.0743 O   0  0  0  0  0  0  0  0  0  0  0  0
   24.6905  -16.4612  -15.7995 O   0  0  0  0  0  0  0  0  0  0  0  0
   26.3650  -20.9932  -12.7485 N   0  0  0  0  0  0  0  0  0  0  0  0
   25.8624  -21.7032  -11.5624 C   0  0  1  0  0  0  0  0  0  0  0  0
   26.9855  -21.7463  -10.5501 C   0  0  0  0  0  0  0  0  0  0  0  0
   26.8789  -20.8107   -9.4430 C   0  0  0  0  0  0  0  0  0  0  0  0
   25.8163  -19.9571   -9.1283 C   0  0  0  0  0  0  0  0  0  0  0  0
   26.1484  -19.2580   -8.0559 N   0  0  0  0  0  0  0  0  0  0  0  0
   27.3789  -19.5860   -7.6190 C   0  0  0  0  0  0  0  0  0  0  0  0
   28.1331  -19.1538   -6.5539 C   0  0  0  0  0  0  0  0  0  0  0  0
   29.3757  -19.6961   -6.3360 C   0  0  0  0  0  0  0  0  0  0  0  0
   29.8534  -20.6796   -7.2018 C   0  0  0  0  0  0  0  0  0  0  0  0
   29.1074  -21.1172   -8.2686 C   0  0  0  0  0  0  0  0  0  0  0  0
   27.8595  -20.5724   -8.4885 C   0  0  0  0  0  0  0  0  0  0  0  0
   24.6754  -21.0989  -11.0379 C   0  0  0  0  0  0  0  0  0  0  0  0
   24.2810  -19.9197  -11.2800 O   0  0  0  0  0  0  0  0  0  0  0  0
   23.8284  -21.8191  -10.1760 O   0  0  0  0  0  0  0  0  0  0  0  0
  2  1  1  6
  3  2  1  0
  4  2  1  0
  5  4  1  0
  5  6  1  6
  7  5  1  0
  7  8  2  0
  9  7  1  0
 10  9  1  0
 10 11  1  6
 11 12  1  0
 12 13  1  0
 13 17  1  0
 14 13  2  0
 15 10  1  0
 16 15  2  0
 18 15  1  0
 19 18  1  0
 19 20  1  1
 20 21  1  0
 21 29  1  0
 22 21  2  0
 22 23  1  0
 23 24  1  0
 24 25  1  0
 25 26  2  0
 27 26  1  0
 28 27  2  0
 29 24  2  0
 29 28  1  0
 30 32  1  0
 30 19  1  0
 31 30  2  0
M  END
$$$$
