LEW.pdb
     RDKit          3D

 32 33  0  0  1  0  0  0  0  0999 V2000
   25.3809  -13.5671  -15.8720 C   0  0  0  0  0  0  0  0  0  0  0  0
   24.1275  -14.3432  -15.6753 C   0  0  2  0  0  0  0  0  0  0  0  0
   23.4299  -13.7854  -14.4344 C   0  0  0  0  0  0  0  0  0  0  0  0
   24.2781  -15.7969  -15.4861 C   0  0  0  0  0  0  0  0  0  0  0  0
   24.8900  -16.5936  -16.5708 C   0  0  2  0  0  0  0  0  0  0  0  0
   24.1756  -16.6601  -17.8050 N   0  0  0  0  0  0  0  0  0  0  0  0
   25.4132  -17.9309  -16.1374 C   0  0  0  0  0  0  0  0  0  0  0  0
   24.6566  -18.9486  -16.1946 O   0  0  0  0  0  0  0  0  0  0  0  0
   26.7302  -18.1128  -15.6601 N   0  0  0  0  0  0  0  0  0  0  0  0
   27.2219  -19.4384  -15.1552 C   0  0  1  0  0  0  0  0  0  0  0  0
   28.4786  -19.7555  -15.8428 C   0  0  0  0  0  0  0  0  0  0  0  0
   29.2068  -21.0046  -15.6271 C   0  0  0  0  0  0  0  0  0  0  0  0
   28.7734  -22.1833  -16.4102 C   0  0  0  0  0  0  0  0  0  0  0  0
   28.5356  -21.9563  -17.6470 O   0  0  0  0  0  0  0  0  0  0  0  0
   27.0310  -19.5369  -13.7377 C   0  0  0  0  0  0  0  0  0  0  0  0
   27.3930  -18.5294  -13.0190 O   0  0  0  0  0  0  0  0  0  0  0  0
   28.6276  -23.4458  -15.8868 O   0  0  0  0  0  0  0  0  0  0  0  0
   26.4689  -20.6167  -13.0019 N   0  0  0  0  0  0  0  0  0  0  0  0
   26.4547  -20.5921  -11.5312 C   0  0  1  0  0  0  0  0  0  0  0  0
   25.4263  -19.5681  -11.1048 C   0  0  0  0  0  0  0  0  0  0  0  0
   24.0429  -20.0135  -11.1187 C   0  0  0  0  0  0  0  0  0  0  0  0
   23.2321  -20.3584  -10.0323 C   0  0  0  0  0  0  0  0  0  0  0  0
   22.0523  -20.7341  -10.4970 N   0  0  0  0  0  0  0  0  0  0  0  0
   22.0106  -20.6651  -11.8409 C   0  0  0  0  0  0  0  0  0  0  0  0
   21.0185  -20.9301  -12.7551 C   0  0  0  0  0  0  0  0  0  0  0  0
   21.2602  -20.7441  -14.0939 C   0  0  0  0  0  0  0  0  0  0  0  0
   22.5123  -20.2880  -14.5053 C   0  0  0  0  0  0  0  0  0  0  0  0
   23.5095  -20.0212  -13.5996 C   0  0  0  0  0  0  0  0  0  0  0  0
   23.2676  -20.2084  -12.2546 C   0  0  0  0  0  0  0  0  0  0  0  0
   26.2016  -21.8868  -10.9752 C   0  0  0  0  0  0  0  0  0  0  0  0
   26.0044  -22.9474  -11.6392 O   0  0  0  0  0  0  0  0  0  0  0  0
   26.1557  -22.0685   -9.5810 O   0  0  0  0  0  0  0  0  0  0  0  0
  2  1  1  1
  3  2  1  0
  4  2  1  0
  5  4  1  0
  5  6  1  6
  7  5  1  0
  7  8  2  0
  9  7  1  0
 10  9  1  0
 10 11  1  1
 11 12  1  0
 12 13  1  0
 13 17  1  0
 14 13  2  0
 15 10  1  0
 16 15  2  0
 18 15  1  0
 19 18  1  0
 19 20  1  6
 20 21  1  0
 21 29  1  0
 22 21  2  0
 22 23  1  0
 23 24  1  0
 24 25  1  0
 25 26  2  0
 27 26  1  0
 28 27  2  0
 29 24  2  0
 29 28  1  0
 30 32  1  0
 30 19  1  0
 31 30  2  0
M  END
$$$$
