LEW.pdb
     RDKit          3D

 32 33  0  0  1  0  0  0  0  0999 V2000
   29.6634  -19.6220  -17.4688 C   0  0  0  0  0  0  0  0  0  0  0  0
   28.4790  -18.8307  -17.0410 C   0  0  2  0  0  0  0  0  0  0  0  0
   28.5081  -17.5073  -17.8062 C   0  0  0  0  0  0  0  0  0  0  0  0
   28.3852  -18.5130  -15.6051 C   0  0  0  0  0  0  0  0  0  0  0  0
   28.3141  -19.6269  -14.6355 C   0  0  2  0  0  0  0  0  0  0  0  0
   28.4490  -20.9481  -15.1591 N   0  0  0  0  0  0  0  0  0  0  0  0
   27.1948  -19.5138  -13.6434 C   0  0  0  0  0  0  0  0  0  0  0  0
   26.7734  -18.3661  -13.3019 O   0  0  0  0  0  0  0  0  0  0  0  0
   26.5785  -20.6439  -13.0617 N   0  0  0  0  0  0  0  0  0  0  0  0
   25.4032  -20.5257  -12.1352 C   0  0  1  0  0  0  0  0  0  0  0  0
   24.2198  -21.0542  -12.8230 C   0  0  0  0  0  0  0  0  0  0  0  0
   22.8901  -21.0677  -12.2156 C   0  0  0  0  0  0  0  0  0  0  0  0
   22.1044  -19.8153  -12.2817 C   0  0  0  0  0  0  0  0  0  0  0  0
   22.3407  -19.0787  -13.3013 O   0  0  0  0  0  0  0  0  0  0  0  0
   25.7821  -20.8759  -10.7976 C   0  0  0  0  0  0  0  0  0  0  0  0
   26.4848  -21.9457  -10.6410 O   0  0  0  0  0  0  0  0  0  0  0  0
   21.1775  -19.4357  -11.3404 O   0  0  0  0  0  0  0  0  0  0  0  0
   25.4927  -20.1769   -9.5931 N   0  0  0  0  0  0  0  0  0  0  0  0
   25.4489  -20.8896   -8.3071 C   0  0  1  0  0  0  0  0  0  0  0  0
   25.8545  -19.9076   -7.2304 C   0  0  0  0  0  0  0  0  0  0  0  0
   27.2802  -19.6541   -7.1064 C   0  0  0  0  0  0  0  0  0  0  0  0
   28.2006  -19.3636   -8.1188 C   0  0  0  0  0  0  0  0  0  0  0  0
   29.3961  -19.2326   -7.5687 N   0  0  0  0  0  0  0  0  0  0  0  0
   29.3449  -19.4170   -6.2360 C   0  0  0  0  0  0  0  0  0  0  0  0
   30.3045  -19.3655   -5.2527 C   0  0  0  0  0  0  0  0  0  0  0  0
   29.9489  -19.5790   -3.9438 C   0  0  0  0  0  0  0  0  0  0  0  0
   28.6158  -19.8456   -3.6326 C   0  0  0  0  0  0  0  0  0  0  0  0
   27.6505  -19.8996   -4.6080 C   0  0  0  0  0  0  0  0  0  0  0  0
   28.0071  -19.6859   -5.9231 C   0  0  0  0  0  0  0  0  0  0  0  0
   24.1653  -21.4734   -8.0603 C   0  0  0  0  0  0  0  0  0  0  0  0
   23.1311  -21.3054   -8.7723 O   0  0  0  0  0  0  0  0  0  0  0  0
   23.9654  -22.3164   -6.9521 O   0  0  0  0  0  0  0  0  0  0  0  0
  2  1  1  1
  3  2  1  0
  4  2  1  0
  5  4  1  0
  5  6  1  6
  7  5  1  0
  7  8  2  0
  9  7  1  0
 10  9  1  0
 10 11  1  6
 11 12  1  0
 12 13  1  0
 13 17  1  0
 14 13  2  0
 15 10  1  0
 16 15  2  0
 18 15  1  0
 19 18  1  0
 19 20  1  1
 20 21  1  0
 21 29  1  0
 22 21  2  0
 22 23  1  0
 23 24  1  0
 24 25  1  0
 25 26  2  0
 27 26  1  0
 28 27  2  0
 29 24  2  0
 29 28  1  0
 30 32  1  0
 30 19  1  0
 31 30  2  0
M  END
$$$$
