LEW.pdb
     RDKit          3D

 32 33  0  0  1  0  0  0  0  0999 V2000
   28.6176  -25.0164  -19.3283 C   0  0  0  0  0  0  0  0  0  0  0  0
   29.8757  -24.5850  -18.6625 C   0  0  2  0  0  0  0  0  0  0  0  0
   30.5345  -25.8312  -18.0704 C   0  0  0  0  0  0  0  0  0  0  0  0
   29.7394  -23.5957  -17.5788 C   0  0  0  0  0  0  0  0  0  0  0  0
   29.1156  -22.2906  -17.8844 C   0  0  2  0  0  0  0  0  0  0  0  0
   29.8312  -21.4231  -18.7639 N   0  0  0  0  0  0  0  0  0  0  0  0
   28.5679  -21.5707  -16.6879 C   0  0  0  0  0  0  0  0  0  0  0  0
   29.3269  -21.3306  -15.6991 O   0  0  0  0  0  0  0  0  0  0  0  0
   27.2245  -21.1413  -16.6090 N   0  0  0  0  0  0  0  0  0  0  0  0
   26.7178  -20.3048  -15.4700 C   0  0  1  0  0  0  0  0  0  0  0  0
   25.9397  -19.1923  -16.0265 C   0  0  0  0  0  0  0  0  0  0  0  0
   25.0973  -18.3251  -15.2046 C   0  0  0  0  0  0  0  0  0  0  0  0
   23.6482  -18.3094  -15.5047 C   0  0  0  0  0  0  0  0  0  0  0  0
   23.3501  -18.3671  -16.7480 O   0  0  0  0  0  0  0  0  0  0  0  0
   26.2734  -21.1406  -14.3932 C   0  0  0  0  0  0  0  0  0  0  0  0
   25.7589  -22.2820  -14.7017 O   0  0  0  0  0  0  0  0  0  0  0  0
   22.6632  -18.2420  -14.5485 O   0  0  0  0  0  0  0  0  0  0  0  0
   26.3392  -20.8797  -12.9965 N   0  0  0  0  0  0  0  0  0  0  0  0
   25.6666  -21.7691  -12.0372 C   0  0  1  0  0  0  0  0  0  0  0  0
   26.6353  -22.0305  -10.9052 C   0  0  0  0  0  0  0  0  0  0  0  0
   26.5358  -21.1351   -9.7647 C   0  0  0  0  0  0  0  0  0  0  0  0
   25.4457  -20.3531   -9.3686 C   0  0  0  0  0  0  0  0  0  0  0  0
   25.7948  -19.6678   -8.2928 N   0  0  0  0  0  0  0  0  0  0  0  0
   27.0631  -19.9377   -7.9303 C   0  0  0  0  0  0  0  0  0  0  0  0
   27.8476  -19.4944   -6.8920 C   0  0  0  0  0  0  0  0  0  0  0  0
   29.1281  -19.9710   -6.7557 C   0  0  0  0  0  0  0  0  0  0  0  0
   29.6131  -20.9000   -7.6759 C   0  0  0  0  0  0  0  0  0  0  0  0
   28.8370  -21.3481   -8.7166 C   0  0  0  0  0  0  0  0  0  0  0  0
   27.5509  -20.8692   -8.8546 C   0  0  0  0  0  0  0  0  0  0  0  0
   24.4243  -21.2242  -11.5800 C   0  0  0  0  0  0  0  0  0  0  0  0
   24.0988  -20.0005  -11.6180 O   0  0  0  0  0  0  0  0  0  0  0  0
   23.4356  -22.0618  -11.0325 O   0  0  0  0  0  0  0  0  0  0  0  0
  2  1  1  1
  3  2  1  0
  4  2  1  0
  5  4  1  0
  5  6  1  1
  7  5  1  0
  7  8  2  0
  9  7  1  0
 10  9  1  0
 10 11  1  6
 11 12  1  0
 12 13  1  0
 13 17  1  0
 14 13  2  0
 15 10  1  0
 16 15  2  0
 18 15  1  0
 19 18  1  0
 19 20  1  1
 20 21  1  0
 21 29  1  0
 22 21  2  0
 22 23  1  0
 23 24  1  0
 24 25  1  0
 25 26  2  0
 27 26  1  0
 28 27  2  0
 29 24  2  0
 29 28  1  0
 30 32  1  0
 30 19  1  0
 31 30  2  0
M  END
$$$$
