LEW.pdb
     RDKit          3D

 32 33  0  0  1  0  0  0  0  0999 V2000
   28.4706  -17.1858  -16.6722 C   0  0  0  0  0  0  0  0  0  0  0  0
   27.5299  -18.0063  -17.4808 C   0  0  2  0  0  0  0  0  0  0  0  0
   26.8840  -17.0829  -18.5141 C   0  0  0  0  0  0  0  0  0  0  0  0
   26.4450  -18.6787  -16.7443 C   0  0  0  0  0  0  0  0  0  0  0  0
   26.7948  -19.5298  -15.5872 C   0  0  2  0  0  0  0  0  0  0  0  0
   27.8329  -20.4901  -15.7824 N   0  0  0  0  0  0  0  0  0  0  0  0
   25.6142  -20.1005  -14.8589 C   0  0  0  0  0  0  0  0  0  0  0  0
   24.8939  -20.9797  -15.4243 O   0  0  0  0  0  0  0  0  0  0  0  0
   25.2607  -19.6976  -13.5519 N   0  0  0  0  0  0  0  0  0  0  0  0
   24.0749  -20.2709  -12.8315 C   0  0  1  0  0  0  0  0  0  0  0  0
   24.3327  -20.1971  -11.3891 C   0  0  0  0  0  0  0  0  0  0  0  0
   25.5575  -20.7078  -10.7756 C   0  0  0  0  0  0  0  0  0  0  0  0
   25.7102  -22.1776  -10.6939 C   0  0  0  0  0  0  0  0  0  0  0  0
   24.7050  -22.8523  -11.1090 O   0  0  0  0  0  0  0  0  0  0  0  0
   22.8560  -19.8465  -13.4557 C   0  0  0  0  0  0  0  0  0  0  0  0
   22.6362  -18.5779  -13.5263 O   0  0  0  0  0  0  0  0  0  0  0  0
   26.8329  -22.8110  -10.2170 O   0  0  0  0  0  0  0  0  0  0  0  0
   21.8396  -20.6559  -14.0345 N   0  0  0  0  0  0  0  0  0  0  0  0
   20.6390  -20.0419  -14.6222 C   0  0  1  0  0  0  0  0  0  0  0  0
   20.7892  -20.1018  -16.1262 C   0  0  0  0  0  0  0  0  0  0  0  0
   19.6605  -19.6081  -16.8973 C   0  0  0  0  0  0  0  0  0  0  0  0
   19.1992  -18.2928  -17.0144 C   0  0  0  0  0  0  0  0  0  0  0  0
   18.1295  -18.2951  -17.7920 N   0  0  0  0  0  0  0  0  0  0  0  0
   17.8333  -19.5388  -18.2139 C   0  0  0  0  0  0  0  0  0  0  0  0
   16.8466  -20.0319  -19.0346 C   0  0  0  0  0  0  0  0  0  0  0  0
   16.8027  -21.3756  -19.3136 C   0  0  0  0  0  0  0  0  0  0  0  0
   17.7629  -22.2207  -18.7579 C   0  0  0  0  0  0  0  0  0  0  0  0
   18.7519  -21.7374  -17.9367 C   0  0  0  0  0  0  0  0  0  0  0  0
   18.7962  -20.3878  -17.6554 C   0  0  0  0  0  0  0  0  0  0  0  0
   19.4365  -20.6710  -14.1665 C   0  0  0  0  0  0  0  0  0  0  0  0
   19.3241  -21.8868  -13.8290 O   0  0  0  0  0  0  0  0  0  0  0  0
   18.2424  -19.9353  -14.0588 O   0  0  0  0  0  0  0  0  0  0  0  0
  2  1  1  1
  3  2  1  0
  4  2  1  0
  5  4  1  0
  5  6  1  6
  7  5  1  0
  7  8  2  0
  9  7  1  0
 10  9  1  0
 10 11  1  1
 11 12  1  0
 12 13  1  0
 13 17  1  0
 14 13  2  0
 15 10  1  0
 16 15  2  0
 18 15  1  0
 19 18  1  0
 19 20  1  6
 20 21  1  0
 21 29  1  0
 22 21  2  0
 22 23  1  0
 23 24  1  0
 24 25  1  0
 25 26  2  0
 27 26  1  0
 28 27  2  0
 29 24  2  0
 29 28  1  0
 30 32  1  0
 30 19  1  0
 31 30  2  0
M  END
$$$$
