LEW.pdb
     RDKit          3D

 32 33  0  0  1  0  0  0  0  0999 V2000
   24.7354  -34.3609  -19.5149 C   0  0  0  0  0  0  0  0  0  0  0  0
   23.2538  -34.2921  -19.4038 C   0  0  2  0  0  0  0  0  0  0  0  0
   22.7568  -33.3136  -20.4684 C   0  0  0  0  0  0  0  0  0  0  0  0
   22.7124  -33.8513  -18.1060 C   0  0  0  0  0  0  0  0  0  0  0  0
   23.1267  -34.5717  -16.8832 C   0  0  2  0  0  0  0  0  0  0  0  0
   22.6422  -35.9051  -16.7240 N   0  0  0  0  0  0  0  0  0  0  0  0
   23.0164  -33.7662  -15.6227 C   0  0  0  0  0  0  0  0  0  0  0  0
   23.4146  -32.5610  -15.6121 O   0  0  0  0  0  0  0  0  0  0  0  0
   22.4818  -34.2959  -14.4273 N   0  0  0  0  0  0  0  0  0  0  0  0
   22.2893  -33.4576  -13.1969 C   0  0  1  0  0  0  0  0  0  0  0  0
   20.8515  -33.2267  -13.0175 C   0  0  0  0  0  0  0  0  0  0  0  0
   20.3144  -32.0171  -12.3966 C   0  0  0  0  0  0  0  0  0  0  0  0
   19.7604  -32.1478  -11.0305 C   0  0  0  0  0  0  0  0  0  0  0  0
   20.1956  -31.2927  -10.1835 O   0  0  0  0  0  0  0  0  0  0  0  0
   23.1733  -33.8883  -12.1535 C   0  0  0  0  0  0  0  0  0  0  0  0
   23.3419  -35.1581  -12.0055 O   0  0  0  0  0  0  0  0  0  0  0  0
   18.8424  -33.1006  -10.6584 O   0  0  0  0  0  0  0  0  0  0  0  0
   23.9184  -33.0832  -11.2480 N   0  0  0  0  0  0  0  0  0  0  0  0
   24.6735  -33.6999  -10.1466 C   0  0  1  0  0  0  0  0  0  0  0  0
   25.6324  -32.6578   -9.6150 C   0  0  0  0  0  0  0  0  0  0  0  0
   26.4204  -33.0508   -8.4588 C   0  0  0  0  0  0  0  0  0  0  0  0
   27.5476  -33.8781   -8.4182 C   0  0  0  0  0  0  0  0  0  0  0  0
   27.9336  -33.9931   -7.1585 N   0  0  0  0  0  0  0  0  0  0  0  0
   27.1335  -33.2902   -6.3349 C   0  0  0  0  0  0  0  0  0  0  0  0
   27.1438  -33.0919   -4.9745 C   0  0  0  0  0  0  0  0  0  0  0  0
   26.1927  -32.2869   -4.3975 C   0  0  0  0  0  0  0  0  0  0  0  0
   25.2290  -31.6819   -5.2038 C   0  0  0  0  0  0  0  0  0  0  0  0
   25.2105  -31.8746   -6.5635 C   0  0  0  0  0  0  0  0  0  0  0  0
   26.1651  -32.6836   -7.1437 C   0  0  0  0  0  0  0  0  0  0  0  0
   23.8108  -34.2197   -9.1293 C   0  0  0  0  0  0  0  0  0  0  0  0
   22.6988  -33.7219   -8.7821 O   0  0  0  0  0  0  0  0  0  0  0  0
   24.1653  -35.3794   -8.4164 O   0  0  0  0  0  0  0  0  0  0  0  0
  2  1  1  1
  3  2  1  0
  4  2  1  0
  5  4  1  0
  5  6  1  1
  7  5  1  0
  7  8  2  0
  9  7  1  0
 10  9  1  0
 10 11  1  1
 11 12  1  0
 12 13  1  0
 13 17  1  0
 14 13  2  0
 15 10  1  0
 16 15  2  0
 18 15  1  0
 19 18  1  0
 19 20  1  1
 20 21  1  0
 21 29  1  0
 22 21  2  0
 22 23  1  0
 23 24  1  0
 24 25  1  0
 25 26  2  0
 27 26  1  0
 28 27  2  0
 29 24  2  0
 29 28  1  0
 30 32  1  0
 30 19  1  0
 31 30  2  0
M  END
$$$$
