LEW.pdb
     RDKit          3D

 32 33  0  0  1  0  0  0  0  0999 V2000
   19.4353  -15.0293  -21.0780 C   0  0  0  0  0  0  0  0  0  0  0  0
   19.4314  -14.2602  -22.3511 C   0  0  2  0  0  0  0  0  0  0  0  0
   20.4642  -14.9001  -23.2792 C   0  0  0  0  0  0  0  0  0  0  0  0
   19.7501  -12.8248  -22.2521 C   0  0  0  0  0  0  0  0  0  0  0  0
   18.9161  -11.9717  -21.3790 C   0  0  2  0  0  0  0  0  0  0  0  0
   17.5595  -11.7723  -21.7765 N   0  0  0  0  0  0  0  0  0  0  0  0
   19.5788  -10.6997  -20.9403 C   0  0  0  0  0  0  0  0  0  0  0  0
   20.8317  -10.6834  -20.7369 O   0  0  0  0  0  0  0  0  0  0  0  0
   18.8613   -9.4997  -20.7388 N   0  0  0  0  0  0  0  0  0  0  0  0
   19.5454   -8.2039  -20.4125 C   0  0  1  0  0  0  0  0  0  0  0  0
   18.6559   -7.1033  -20.7998 C   0  0  0  0  0  0  0  0  0  0  0  0
   18.9613   -5.7013  -20.5200 C   0  0  0  0  0  0  0  0  0  0  0  0
   19.0403   -5.2977  -19.0983 C   0  0  0  0  0  0  0  0  0  0  0  0
   18.1082   -5.7560  -18.3507 O   0  0  0  0  0  0  0  0  0  0  0  0
   20.2127   -8.2943  -19.1467 C   0  0  0  0  0  0  0  0  0  0  0  0
   19.5088   -8.6596  -18.1299 O   0  0  0  0  0  0  0  0  0  0  0  0
   20.0270   -4.4944  -18.5784 O   0  0  0  0  0  0  0  0  0  0  0  0
   21.5828   -8.0436  -18.8582 N   0  0  0  0  0  0  0  0  0  0  0  0
   22.0989   -8.1972  -17.4894 C   0  0  1  0  0  0  0  0  0  0  0  0
   22.8899   -9.4857  -17.4451 C   0  0  0  0  0  0  0  0  0  0  0  0
   23.6528   -9.7211  -16.2306 C   0  0  0  0  0  0  0  0  0  0  0  0
   23.1754   -9.9071  -14.9290 C   0  0  0  0  0  0  0  0  0  0  0  0
   24.2132  -10.0610  -14.1237 N   0  0  0  0  0  0  0  0  0  0  0  0
   25.3741   -9.9912  -14.8019 C   0  0  0  0  0  0  0  0  0  0  0  0
   26.6872  -10.1072  -14.4116 C   0  0  0  0  0  0  0  0  0  0  0  0
   27.6861  -10.0121  -15.3490 C   0  0  0  0  0  0  0  0  0  0  0  0
   27.3508   -9.7987  -16.6857 C   0  0  0  0  0  0  0  0  0  0  0  0
   26.0420   -9.6809  -17.0849 C   0  0  0  0  0  0  0  0  0  0  0  0
   25.0381   -9.7756  -16.1438 C   0  0  0  0  0  0  0  0  0  0  0  0
   22.8724   -7.0653  -17.0771 C   0  0  0  0  0  0  0  0  0  0  0  0
   23.5786   -6.3397  -17.8384 O   0  0  0  0  0  0  0  0  0  0  0  0
   22.8943   -6.6687  -15.7277 O   0  0  0  0  0  0  0  0  0  0  0  0
  2  1  1  1
  3  2  1  0
  4  2  1  0
  5  4  1  0
  5  6  1  6
  7  5  1  0
  7  8  2  0
  9  7  1  0
 10  9  1  0
 10 11  1  1
 11 12  1  0
 12 13  1  0
 13 17  1  0
 14 13  2  0
 15 10  1  0
 16 15  2  0
 18 15  1  0
 19 18  1  0
 19 20  1  6
 20 21  1  0
 21 29  1  0
 22 21  2  0
 22 23  1  0
 23 24  1  0
 24 25  1  0
 25 26  2  0
 27 26  1  0
 28 27  2  0
 29 24  2  0
 29 28  1  0
 30 32  1  0
 30 19  1  0
 31 30  2  0
M  END
$$$$
