LEW.pdb
     RDKit          3D

 32 33  0  0  1  0  0  0  0  0999 V2000
   30.9183  -22.9315  -19.2208 C   0  0  0  0  0  0  0  0  0  0  0  0
   29.5727  -22.8989  -18.5882 C   0  0  2  0  0  0  0  0  0  0  0  0
   28.6637  -22.0544  -19.4817 C   0  0  0  0  0  0  0  0  0  0  0  0
   29.5007  -22.3415  -17.2259 C   0  0  0  0  0  0  0  0  0  0  0  0
   28.3043  -22.6262  -16.4054 C   0  0  2  0  0  0  0  0  0  0  0  0
   27.0804  -22.8513  -17.1049 N   0  0  0  0  0  0  0  0  0  0  0  0
   28.1322  -21.7169  -15.2250 C   0  0  0  0  0  0  0  0  0  0  0  0
   29.1488  -21.3667  -14.5502 O   0  0  0  0  0  0  0  0  0  0  0  0
   26.8706  -21.2252  -14.8226 N   0  0  0  0  0  0  0  0  0  0  0  0
   26.7200  -20.2139  -13.7234 C   0  0  1  0  0  0  0  0  0  0  0  0
   25.9999  -19.0539  -14.2605 C   0  0  0  0  0  0  0  0  0  0  0  0
   26.6256  -17.7445  -14.4369 C   0  0  0  0  0  0  0  0  0  0  0  0
   27.3809  -17.5199  -15.6896 C   0  0  0  0  0  0  0  0  0  0  0  0
   26.7024  -17.6598  -16.7657 O   0  0  0  0  0  0  0  0  0  0  0  0
   26.3957  -20.8625  -12.4866 C   0  0  0  0  0  0  0  0  0  0  0  0
   25.6247  -21.8945  -12.5424 O   0  0  0  0  0  0  0  0  0  0  0  0
   28.7122  -17.1815  -15.7374 O   0  0  0  0  0  0  0  0  0  0  0  0
   26.8330  -20.5210  -11.1768 N   0  0  0  0  0  0  0  0  0  0  0  0
   26.4203  -21.3264  -10.0171 C   0  0  1  0  0  0  0  0  0  0  0  0
   27.5418  -21.2696   -9.0036 C   0  0  0  0  0  0  0  0  0  0  0  0
   27.4357  -20.2267   -7.9968 C   0  0  0  0  0  0  0  0  0  0  0  0
   26.6283  -19.0846   -8.0131 C   0  0  0  0  0  0  0  0  0  0  0  0
   26.8654  -18.3923   -6.9115 N   0  0  0  0  0  0  0  0  0  0  0  0
   27.7898  -18.9974   -6.1421 C   0  0  0  0  0  0  0  0  0  0  0  0
   28.3387  -18.6771   -4.9229 C   0  0  0  0  0  0  0  0  0  0  0  0
   29.2671  -19.5140   -4.3544 C   0  0  0  0  0  0  0  0  0  0  0  0
   29.6389  -20.6786   -5.0253 C   0  0  0  0  0  0  0  0  0  0  0  0
   29.0964  -21.0065   -6.2437 C   0  0  0  0  0  0  0  0  0  0  0  0
   28.1643  -20.1661   -6.8157 C   0  0  0  0  0  0  0  0  0  0  0  0
   25.1702  -20.8866   -9.4757 C   0  0  0  0  0  0  0  0  0  0  0  0
   24.4811  -19.9159   -9.9089 O   0  0  0  0  0  0  0  0  0  0  0  0
   24.6002  -21.5436   -8.3701 O   0  0  0  0  0  0  0  0  0  0  0  0
  2  1  1  6
  3  2  1  0
  4  2  1  0
  5  4  1  0
  5  6  1  6
  7  5  1  0
  7  8  2  0
  9  7  1  0
 10  9  1  0
 10 11  1  6
 11 12  1  0
 12 13  1  0
 13 17  1  0
 14 13  2  0
 15 10  1  0
 16 15  2  0
 18 15  1  0
 19 18  1  0
 19 20  1  1
 20 21  1  0
 21 29  1  0
 22 21  2  0
 22 23  1  0
 23 24  1  0
 24 25  1  0
 25 26  2  0
 27 26  1  0
 28 27  2  0
 29 24  2  0
 29 28  1  0
 30 32  1  0
 30 19  1  0
 31 30  2  0
M  END
$$$$
