LEW.pdb
     RDKit          3D

 32 33  0  0  1  0  0  0  0  0999 V2000
   31.6428  -26.4219  -19.1377 C   0  0  0  0  0  0  0  0  0  0  0  0
   30.7296  -25.5346  -19.9064 C   0  0  2  0  0  0  0  0  0  0  0  0
   31.4908  -25.0470  -21.1395 C   0  0  0  0  0  0  0  0  0  0  0  0
   30.2191  -24.3466  -19.1994 C   0  0  0  0  0  0  0  0  0  0  0  0
   29.4431  -24.5404  -17.9560 C   0  0  2  0  0  0  0  0  0  0  0  0
   28.2165  -25.2623  -18.0664 N   0  0  0  0  0  0  0  0  0  0  0  0
   29.3103  -23.3085  -17.1107 C   0  0  0  0  0  0  0  0  0  0  0  0
   30.2730  -22.4833  -17.0498 O   0  0  0  0  0  0  0  0  0  0  0  0
   28.1448  -23.0200  -16.3665 N   0  0  0  0  0  0  0  0  0  0  0  0
   27.8308  -21.6360  -15.8769 C   0  0  1  0  0  0  0  0  0  0  0  0
   27.4058  -20.8269  -17.0246 C   0  0  0  0  0  0  0  0  0  0  0  0
   26.9320  -19.4503  -16.8920 C   0  0  0  0  0  0  0  0  0  0  0  0
   25.5150  -19.2571  -16.5113 C   0  0  0  0  0  0  0  0  0  0  0  0
   25.2846  -18.2365  -15.7743 O   0  0  0  0  0  0  0  0  0  0  0  0
   27.1304  -21.6935  -14.6271 C   0  0  0  0  0  0  0  0  0  0  0  0
   26.2435  -22.6188  -14.4862 O   0  0  0  0  0  0  0  0  0  0  0  0
   24.4915  -20.0873  -16.9017 O   0  0  0  0  0  0  0  0  0  0  0  0
   27.2974  -20.8560  -13.4895 N   0  0  0  0  0  0  0  0  0  0  0  0
   26.5998  -21.1578  -12.2301 C   0  0  1  0  0  0  0  0  0  0  0  0
   27.5292  -20.7847  -11.0965 C   0  0  0  0  0  0  0  0  0  0  0  0
   26.9052  -20.6070   -9.7960 C   0  0  0  0  0  0  0  0  0  0  0  0
   25.5416  -20.5623   -9.4873 C   0  0  0  0  0  0  0  0  0  0  0  0
   25.4163  -20.3563   -8.1870 N   0  0  0  0  0  0  0  0  0  0  0  0
   26.6183  -20.2579   -7.5886 C   0  0  0  0  0  0  0  0  0  0  0  0
   26.9923  -20.0668   -6.2795 C   0  0  0  0  0  0  0  0  0  0  0  0
   28.3251  -20.0302   -5.9515 C   0  0  0  0  0  0  0  0  0  0  0  0
   29.2804  -20.1880   -6.9552 C   0  0  0  0  0  0  0  0  0  0  0  0
   28.9164  -20.3789   -8.2656 C   0  0  0  0  0  0  0  0  0  0  0  0
   27.5778  -20.4151   -8.5959 C   0  0  0  0  0  0  0  0  0  0  0  0
   25.3357  -20.4916  -12.1437 C   0  0  0  0  0  0  0  0  0  0  0  0
   25.0533  -19.3768  -12.6748 O   0  0  0  0  0  0  0  0  0  0  0  0
   24.2725  -21.0681  -11.4253 O   0  0  0  0  0  0  0  0  0  0  0  0
  2  1  1  1
  3  2  1  0
  4  2  1  0
  5  4  1  0
  5  6  1  6
  7  5  1  0
  7  8  2  0
  9  7  1  0
 10  9  1  0
 10 11  1  6
 11 12  1  0
 12 13  1  0
 13 17  1  0
 14 13  2  0
 15 10  1  0
 16 15  2  0
 18 15  1  0
 19 18  1  0
 19 20  1  1
 20 21  1  0
 21 29  1  0
 22 21  2  0
 22 23  1  0
 23 24  1  0
 24 25  1  0
 25 26  2  0
 27 26  1  0
 28 27  2  0
 29 24  2  0
 29 28  1  0
 30 32  1  0
 30 19  1  0
 31 30  2  0
M  END
$$$$
