LEW.pdb
     RDKit          3D

 32 33  0  0  1  0  0  0  0  0999 V2000
   21.3743  -16.5320  -15.3136 C   0  0  0  0  0  0  0  0  0  0  0  0
   20.9330  -17.8776  -14.8587 C   0  0  2  0  0  0  0  0  0  0  0  0
   19.9423  -17.6743  -13.7120 C   0  0  0  0  0  0  0  0  0  0  0  0
   21.9884  -18.7877  -14.3795 C   0  0  0  0  0  0  0  0  0  0  0  0
   23.1370  -19.0709  -15.2662 C   0  0  2  0  0  0  0  0  0  0  0  0
   22.8372  -19.5269  -16.5854 N   0  0  0  0  0  0  0  0  0  0  0  0
   24.2369  -19.8611  -14.6216 C   0  0  0  0  0  0  0  0  0  0  0  0
   24.1322  -21.1230  -14.5315 O   0  0  0  0  0  0  0  0  0  0  0  0
   25.4022  -19.2560  -14.1009 N   0  0  0  0  0  0  0  0  0  0  0  0
   26.5003  -20.0547  -13.4606 C   0  0  1  0  0  0  0  0  0  0  0  0
   27.7824  -19.5943  -14.0055 C   0  0  0  0  0  0  0  0  0  0  0  0
   29.0615  -20.2035  -13.6449 C   0  0  0  0  0  0  0  0  0  0  0  0
   29.3833  -21.5118  -14.2573 C   0  0  0  0  0  0  0  0  0  0  0  0
   28.9989  -21.6534  -15.4698 O   0  0  0  0  0  0  0  0  0  0  0  0
   26.2372  -20.2382  -12.0632 C   0  0  0  0  0  0  0  0  0  0  0  0
   26.0651  -19.1792  -11.3480 O   0  0  0  0  0  0  0  0  0  0  0  0
   30.0471  -22.5250  -13.6077 O   0  0  0  0  0  0  0  0  0  0  0  0
   26.1230  -21.4613  -11.3460 N   0  0  0  0  0  0  0  0  0  0  0  0
   25.8160  -21.4586   -9.9075 C   0  0  1  0  0  0  0  0  0  0  0  0
   27.0034  -20.8536   -9.1917 C   0  0  0  0  0  0  0  0  0  0  0  0
   26.8837  -20.7392   -7.7478 C   0  0  0  0  0  0  0  0  0  0  0  0
   25.8220  -21.1420   -6.9310 C   0  0  0  0  0  0  0  0  0  0  0  0
   26.1152  -20.8242   -5.6812 N   0  0  0  0  0  0  0  0  0  0  0  0
   27.3188  -20.2266   -5.5972 C   0  0  0  0  0  0  0  0  0  0  0  0
   28.0449  -19.7438   -4.5343 C   0  0  0  0  0  0  0  0  0  0  0  0
   29.2837  -19.1926   -4.7515 C   0  0  0  0  0  0  0  0  0  0  0  0
   29.7862  -19.1316   -6.0510 C   0  0  0  0  0  0  0  0  0  0  0  0
   29.0679  -19.6108   -7.1189 C   0  0  0  0  0  0  0  0  0  0  0  0
   27.8232  -20.1639   -6.9017 C   0  0  0  0  0  0  0  0  0  0  0  0
   24.5944  -20.7696   -9.6205 C   0  0  0  0  0  0  0  0  0  0  0  0
   24.3834  -19.5351   -9.8109 O   0  0  0  0  0  0  0  0  0  0  0  0
   23.4942  -21.4610   -9.0818 O   0  0  0  0  0  0  0  0  0  0  0  0
  2  1  1  1
  3  2  1  0
  4  2  1  0
  5  4  1  0
  5  6  1  6
  7  5  1  0
  7  8  2  0
  9  7  1  0
 10  9  1  0
 10 11  1  1
 11 12  1  0
 12 13  1  0
 13 17  1  0
 14 13  2  0
 15 10  1  0
 16 15  2  0
 18 15  1  0
 19 18  1  0
 19 20  1  1
 20 21  1  0
 21 29  1  0
 22 21  2  0
 22 23  1  0
 23 24  1  0
 24 25  1  0
 25 26  2  0
 27 26  1  0
 28 27  2  0
 29 24  2  0
 29 28  1  0
 30 32  1  0
 30 19  1  0
 31 30  2  0
M  END
$$$$
