NAG.pdb
     RDKit          3D

 18 17  0  0  1  0  0  0  0  0999 V2000
   26.4569  -21.9498  -10.1286 N   0  0  0  0  0  0  0  0  0  0  0  0
   25.6139  -20.8102  -10.1421 C   0  0  0  0  0  0  0  0  0  0  0  0
   25.4075  -20.1304   -9.1057 O   0  0  0  0  0  0  0  0  0  0  0  0
   24.9473  -20.3906  -11.4019 C   0  0  0  0  0  0  0  0  0  0  0  0
   25.3282  -21.3257  -12.5495 C   0  0  2  0  0  0  0  0  0  0  0  0
   26.6261  -21.0209  -13.0730 N   0  0  0  0  0  0  0  0  0  0  0  0
   24.3092  -21.1238  -13.6043 C   0  0  0  0  0  0  0  0  0  0  0  0
   24.3827  -20.0839  -14.3052 O   0  0  0  0  0  0  0  0  0  0  0  0
   21.7008  -23.1343  -15.2632 C   0  0  0  0  0  0  0  0  0  0  0  0
   22.3428  -21.7972  -14.9018 C   0  0  2  0  0  0  0  0  0  0  0  0
   23.2641  -22.0564  -13.8462 N   0  0  0  0  0  0  0  0  0  0  0  0
   21.2963  -20.8219  -14.5550 C   0  0  0  0  0  0  0  0  0  0  0  0
   20.9543  -20.6034  -13.3671 O   0  0  0  0  0  0  0  0  0  0  0  0
   20.6654  -20.1155  -15.6151 N   0  0  0  0  0  0  0  0  0  0  0  0
   19.7086  -19.0517  -15.3781 C   0  0  0  0  0  0  0  0  0  0  0  0
   18.3927  -19.4671  -15.8721 C   0  0  0  0  0  0  0  0  0  0  0  0
   18.2618  -20.1591  -16.9195 O   0  0  0  0  0  0  0  0  0  0  0  0
   17.2484  -19.1073  -15.1955 O   0  0  0  0  0  0  0  0  0  0  0  0
  2  1  1  0
  3  2  2  0
  4  2  1  0
  5  4  1  0
  5  6  1  6
  7  5  1  0
  8  7  2  0
 10  9  1  1
 10 12  1  0
 10 11  1  0
 11  7  1  0
 12 13  2  0
 14 15  1  0
 14 12  1  0
 15 16  1  0
 16 17  2  0
 16 18  1  0
M  END
$$$$
