NAG.pdb
     RDKit          3D

 18 17  0  0  1  0  0  0  0  0999 V2000
   27.7079  -34.0568   -5.9110 N   0  0  0  0  0  0  0  0  0  0  0  0
   28.2785  -33.6684   -4.6728 C   0  0  0  0  0  0  0  0  0  0  0  0
   28.4466  -32.4594   -4.3747 O   0  0  0  0  0  0  0  0  0  0  0  0
   28.6955  -34.6995   -3.6878 C   0  0  0  0  0  0  0  0  0  0  0  0
   30.1098  -35.1933   -3.9917 C   0  0  2  0  0  0  0  0  0  0  0  0
   30.1367  -36.0514   -5.1381 N   0  0  0  0  0  0  0  0  0  0  0  0
   30.5506  -35.9489   -2.7974 C   0  0  0  0  0  0  0  0  0  0  0  0
   29.9024  -36.9760   -2.4759 O   0  0  0  0  0  0  0  0  0  0  0  0
   33.4677  -36.0154   -0.5414 C   0  0  0  0  0  0  0  0  0  0  0  0
   32.0087  -36.3273   -0.8648 C   0  0  2  0  0  0  0  0  0  0  0  0
   31.6688  -35.5551   -2.0131 N   0  0  0  0  0  0  0  0  0  0  0  0
   31.1691  -36.0491    0.3118 C   0  0  0  0  0  0  0  0  0  0  0  0
   30.5578  -34.9619    0.4539 O   0  0  0  0  0  0  0  0  0  0  0  0
   31.0608  -37.0580    1.3074 N   0  0  0  0  0  0  0  0  0  0  0  0
   30.4408  -36.8144    2.5956 C   0  0  0  0  0  0  0  0  0  0  0  0
   29.0050  -37.0928    2.5006 C   0  0  0  0  0  0  0  0  0  0  0  0
   28.2675  -37.1479    3.5233 O   0  0  0  0  0  0  0  0  0  0  0  0
   28.4154  -37.3044    1.2741 O   0  0  0  0  0  0  0  0  0  0  0  0
  2  1  1  0
  3  2  2  0
  4  2  1  0
  5  4  1  0
  5  6  1  6
  7  5  1  0
  8  7  2  0
 10  9  1  1
 10 12  1  0
 10 11  1  0
 11  7  1  0
 12 13  2  0
 14 15  1  0
 14 12  1  0
 15 16  1  0
 16 17  2  0
 16 18  1  0
M  END
$$$$
