NAG.pdb
     RDKit          3D

 18 17  0  0  1  0  0  0  0  0999 V2000
   17.2440  -13.0418  -16.4246 N   0  0  0  0  0  0  0  0  0  0  0  0
   17.5288  -12.5350  -15.1317 C   0  0  0  0  0  0  0  0  0  0  0  0
   17.1149  -13.1082  -14.0930 O   0  0  0  0  0  0  0  0  0  0  0  0
   18.3352  -11.2968  -14.9771 C   0  0  0  0  0  0  0  0  0  0  0  0
   18.7063  -10.7220  -16.3440 C   0  0  2  0  0  0  0  0  0  0  0  0
   19.7445  -11.4814  -16.9741 N   0  0  0  0  0  0  0  0  0  0  0  0
   19.1821   -9.3419  -16.0980 C   0  0  0  0  0  0  0  0  0  0  0  0
   20.4219   -9.1432  -16.0567 O   0  0  0  0  0  0  0  0  0  0  0  0
   17.6457   -5.9698  -15.9256 C   0  0  0  0  0  0  0  0  0  0  0  0
   18.8296   -6.9303  -15.8457 C   0  0  2  0  0  0  0  0  0  0  0  0
   18.2932   -8.2489  -15.9096 N   0  0  0  0  0  0  0  0  0  0  0  0
   19.6063   -6.6602  -14.6249 C   0  0  0  0  0  0  0  0  0  0  0  0
   19.4540   -7.3305  -13.5744 O   0  0  0  0  0  0  0  0  0  0  0  0
   20.5543   -5.6014  -14.6582 N   0  0  0  0  0  0  0  0  0  0  0  0
   21.4611   -5.3360  -13.5580 C   0  0  0  0  0  0  0  0  0  0  0  0
   22.3296   -4.2089  -13.9095 C   0  0  0  0  0  0  0  0  0  0  0  0
   23.1308   -3.7000  -13.0777 O   0  0  0  0  0  0  0  0  0  0  0  0
   22.2926   -3.6685  -15.1757 O   0  0  0  0  0  0  0  0  0  0  0  0
  2  1  1  0
  3  2  2  0
  4  2  1  0
  5  4  1  0
  5  6  1  1
  7  5  1  0
  8  7  2  0
 10  9  1  1
 10 12  1  0
 10 11  1  0
 11  7  1  0
 12 13  2  0
 14 15  1  0
 14 12  1  0
 15 16  1  0
 16 17  2  0
 16 18  1  0
M  END
$$$$
