NAG.pdb
     RDKit          3D

 18 17  0  0  1  0  0  0  0  0999 V2000
   19.3412  -14.1919  -16.9672 N   0  0  0  0  0  0  0  0  0  0  0  0
   18.6468  -13.5245  -15.9270 C   0  0  0  0  0  0  0  0  0  0  0  0
   17.7652  -14.1045  -15.2448 O   0  0  0  0  0  0  0  0  0  0  0  0
   18.9524  -12.1037  -15.6183 C   0  0  0  0  0  0  0  0  0  0  0  0
   17.6651  -11.2854  -15.5197 C   0  0  2  0  0  0  0  0  0  0  0  0
   17.0305  -11.1402  -16.7955 N   0  0  0  0  0  0  0  0  0  0  0  0
   18.0590   -9.9532  -15.0083 C   0  0  0  0  0  0  0  0  0  0  0  0
   18.5219   -9.1197  -15.8264 O   0  0  0  0  0  0  0  0  0  0  0  0
   17.8116   -8.0968  -11.8050 C   0  0  0  0  0  0  0  0  0  0  0  0
   18.3023   -8.2749  -13.2396 C   0  0  2  0  0  0  0  0  0  0  0  0
   17.9319   -9.5915  -13.6395 N   0  0  0  0  0  0  0  0  0  0  0  0
   19.7498   -8.0161  -13.3048 C   0  0  0  0  0  0  0  0  0  0  0  0
   20.5982   -8.9347  -13.1930 O   0  0  0  0  0  0  0  0  0  0  0  0
   20.1795   -6.6753  -13.5012 N   0  0  0  0  0  0  0  0  0  0  0  0
   21.5758   -6.3250  -13.6765 C   0  0  0  0  0  0  0  0  0  0  0  0
   21.7048   -4.8659  -13.7265 C   0  0  0  0  0  0  0  0  0  0  0  0
   20.6987   -4.1109  -13.8293 O   0  0  0  0  0  0  0  0  0  0  0  0
   22.9462   -4.2730  -13.6618 O   0  0  0  0  0  0  0  0  0  0  0  0
  2  1  1  0
  3  2  2  0
  4  2  1  0
  5  4  1  0
  5  6  1  6
  7  5  1  0
  8  7  2  0
 10  9  1  1
 10 12  1  0
 10 11  1  0
 11  7  1  0
 12 13  2  0
 14 15  1  0
 14 12  1  0
 15 16  1  0
 16 17  2  0
 16 18  1  0
M  END
$$$$
