NAG.pdb
     RDKit          3D

 18 17  0  0  1  0  0  0  0  0999 V2000
   16.9806  -13.2238  -16.4636 N   0  0  0  0  0  0  0  0  0  0  0  0
   17.7614  -12.9839  -15.3051 C   0  0  0  0  0  0  0  0  0  0  0  0
   17.5312  -13.5754  -14.2207 O   0  0  0  0  0  0  0  0  0  0  0  0
   18.8851  -12.0129  -15.3510 C   0  0  0  0  0  0  0  0  0  0  0  0
   19.0459  -11.4422  -16.7598 C   0  0  2  0  0  0  0  0  0  0  0  0
   20.0017  -12.1841  -17.5263 N   0  0  0  0  0  0  0  0  0  0  0  0
   19.5199  -10.0499  -16.5914 C   0  0  0  0  0  0  0  0  0  0  0  0
   20.7577   -9.8539  -16.5034 O   0  0  0  0  0  0  0  0  0  0  0  0
   18.0244   -6.6538  -16.6190 C   0  0  0  0  0  0  0  0  0  0  0  0
   19.1755   -7.6317  -16.3971 C   0  0  2  0  0  0  0  0  0  0  0  0
   18.6314   -8.9422  -16.5268 N   0  0  0  0  0  0  0  0  0  0  0  0
   19.8026   -7.3720  -15.0910 C   0  0  0  0  0  0  0  0  0  0  0  0
   19.5165   -8.0411  -14.0680 O   0  0  0  0  0  0  0  0  0  0  0  0
   20.7606   -6.3250  -15.0075 N   0  0  0  0  0  0  0  0  0  0  0  0
   21.4668   -6.0148  -13.7794 C   0  0  0  0  0  0  0  0  0  0  0  0
   22.3860   -4.8989  -14.0199 C   0  0  0  0  0  0  0  0  0  0  0  0
   22.5531   -4.4090  -15.1710 O   0  0  0  0  0  0  0  0  0  0  0  0
   23.1015   -4.3482  -12.9799 O   0  0  0  0  0  0  0  0  0  0  0  0
  2  1  1  0
  3  2  2  0
  4  2  1  0
  5  4  1  0
  5  6  1  6
  7  5  1  0
  8  7  2  0
 10  9  1  1
 10 12  1  0
 10 11  1  0
 11  7  1  0
 12 13  2  0
 14 15  1  0
 14 12  1  0
 15 16  1  0
 16 17  2  0
 16 18  1  0
M  END
$$$$
