NAG.pdb
     RDKit          3D

 18 17  0  0  1  0  0  0  0  0999 V2000
   18.0302  -13.7173  -16.9065 N   0  0  0  0  0  0  0  0  0  0  0  0
   18.5059  -13.2201  -15.6672 C   0  0  0  0  0  0  0  0  0  0  0  0
   18.1097  -13.6914  -14.5719 O   0  0  0  0  0  0  0  0  0  0  0  0
   19.4981  -12.1146  -15.6386 C   0  0  0  0  0  0  0  0  0  0  0  0
   19.8574  -11.6770  -17.0584 C   0  0  2  0  0  0  0  0  0  0  0  0
   20.8877  -12.4975  -17.6211 N   0  0  0  0  0  0  0  0  0  0  0  0
   20.3386  -10.2810  -16.9527 C   0  0  0  0  0  0  0  0  0  0  0  0
   21.5560  -10.0931  -16.7055 O   0  0  0  0  0  0  0  0  0  0  0  0
   18.9665   -6.8763  -17.4799 C   0  0  0  0  0  0  0  0  0  0  0  0
   20.0169   -7.8520  -16.9553 C   0  0  2  0  0  0  0  0  0  0  0  0
   19.4792   -9.1612  -17.1195 N   0  0  0  0  0  0  0  0  0  0  0  0
   20.3550   -7.5157  -15.5627 C   0  0  0  0  0  0  0  0  0  0  0  0
   19.9135   -8.1755  -14.5903 O   0  0  0  0  0  0  0  0  0  0  0  0
   21.2109   -6.4039  -15.3340 N   0  0  0  0  0  0  0  0  0  0  0  0
   21.6270   -6.0049  -14.0033 C   0  0  0  0  0  0  0  0  0  0  0  0
   22.3804   -4.7507  -14.0889 C   0  0  0  0  0  0  0  0  0  0  0  0
   22.3146   -3.8706  -13.1867 O   0  0  0  0  0  0  0  0  0  0  0  0
   23.1918   -4.4972  -15.1725 O   0  0  0  0  0  0  0  0  0  0  0  0
  2  1  1  0
  3  2  2  0
  4  2  1  0
  5  4  1  0
  5  6  1  1
  7  5  1  0
  8  7  2  0
 10  9  1  1
 10 12  1  0
 10 11  1  0
 11  7  1  0
 12 13  2  0
 14 15  1  0
 14 12  1  0
 15 16  1  0
 16 17  2  0
 16 18  1  0
M  END
$$$$
