NAG.pdb
     RDKit          3D

 18 17  0  0  1  0  0  0  0  0999 V2000
   27.5057  -25.0760  -16.2634 N   0  0  0  0  0  0  0  0  0  0  0  0
   28.6571  -25.4185  -17.0161 C   0  0  0  0  0  0  0  0  0  0  0  0
   29.5539  -24.5757  -17.2695 O   0  0  0  0  0  0  0  0  0  0  0  0
   28.8286  -26.8026  -17.5283 C   0  0  0  0  0  0  0  0  0  0  0  0
   27.6584  -27.6856  -17.0951 C   0  0  2  0  0  0  0  0  0  0  0  0
   27.6642  -27.9174  -15.6817 N   0  0  0  0  0  0  0  0  0  0  0  0
   27.8238  -28.9722  -17.8085 C   0  0  0  0  0  0  0  0  0  0  0  0
   27.7340  -28.9686  -19.0615 O   0  0  0  0  0  0  0  0  0  0  0  0
   29.1443  -32.3104  -17.1816 C   0  0  0  0  0  0  0  0  0  0  0  0
   28.1424  -31.4004  -17.8879 C   0  0  2  0  0  0  0  0  0  0  0  0
   28.0777  -30.1954  -17.1302 N   0  0  0  0  0  0  0  0  0  0  0  0
   26.8503  -32.0928  -18.0200 C   0  0  0  0  0  0  0  0  0  0  0  0
   25.9215  -31.9376  -17.1898 O   0  0  0  0  0  0  0  0  0  0  0  0
   26.6694  -32.9610  -19.1311 N   0  0  0  0  0  0  0  0  0  0  0  0
   25.4191  -33.6519  -19.3812 C   0  0  0  0  0  0  0  0  0  0  0  0
   25.2833  -34.7622  -18.4342 C   0  0  0  0  0  0  0  0  0  0  0  0
   26.2303  -35.1119  -17.6767 O   0  0  0  0  0  0  0  0  0  0  0  0
   24.1008  -35.4626  -18.3457 O   0  0  0  0  0  0  0  0  0  0  0  0
  2  1  1  0
  3  2  2  0
  4  2  1  0
  5  4  1  0
  5  6  1  1
  7  5  1  0
  8  7  2  0
 10  9  1  1
 10 12  1  0
 10 11  1  0
 11  7  1  0
 12 13  2  0
 14 15  1  0
 14 12  1  0
 15 16  1  0
 16 17  2  0
 16 18  1  0
M  END
$$$$
