NAG.pdb
     RDKit          3D

 18 17  0  0  1  0  0  0  0  0999 V2000
   17.6012  -11.8281  -16.3184 N   0  0  0  0  0  0  0  0  0  0  0  0
   18.6439  -11.3211  -15.5027 C   0  0  0  0  0  0  0  0  0  0  0  0
   19.2428  -12.0477  -14.6708 O   0  0  0  0  0  0  0  0  0  0  0  0
   19.0555   -9.8981  -15.6173 C   0  0  0  0  0  0  0  0  0  0  0  0
   18.0854   -9.1277  -16.5128 C   0  0  2  0  0  0  0  0  0  0  0  0
   18.1321   -9.5916  -17.8670 N   0  0  0  0  0  0  0  0  0  0  0  0
   18.5093   -7.7103  -16.4601 C   0  0  0  0  0  0  0  0  0  0  0  0
   19.3857   -7.3254  -17.2738 O   0  0  0  0  0  0  0  0  0  0  0  0
   17.0604   -4.6051  -15.2984 C   0  0  0  0  0  0  0  0  0  0  0  0
   18.3115   -5.4064  -15.6497 C   0  0  2  0  0  0  0  0  0  0  0  0
   17.9638   -6.7831  -15.5310 N   0  0  0  0  0  0  0  0  0  0  0  0
   19.4251   -4.9945  -14.7798 C   0  0  0  0  0  0  0  0  0  0  0  0
   19.7499   -3.7905  -14.6356 O   0  0  0  0  0  0  0  0  0  0  0  0
   20.1429   -6.0092  -14.0898 N   0  0  0  0  0  0  0  0  0  0  0  0
   21.2226   -5.7078  -13.1697 C   0  0  0  0  0  0  0  0  0  0  0  0
   22.2718   -4.9722  -13.8811 C   0  0  0  0  0  0  0  0  0  0  0  0
   23.0797   -5.5495  -14.6601 O   0  0  0  0  0  0  0  0  0  0  0  0
   22.4046   -3.6115  -13.7148 O   0  0  0  0  0  0  0  0  0  0  0  0
  2  1  1  0
  3  2  2  0
  4  2  1  0
  5  4  1  0
  5  6  1  6
  7  5  1  0
  8  7  2  0
 10  9  1  1
 10 12  1  0
 10 11  1  0
 11  7  1  0
 12 13  2  0
 14 15  1  0
 14 12  1  0
 15 16  1  0
 16 17  2  0
 16 18  1  0
M  END
$$$$
