NAG.pdb
     RDKit          3D

 18 17  0  0  1  0  0  0  0  0999 V2000
   24.1834  -20.5741   -8.2369 N   0  0  0  0  0  0  0  0  0  0  0  0
   23.4770  -20.9645   -9.4023 C   0  0  0  0  0  0  0  0  0  0  0  0
   22.2394  -21.1806   -9.3818 O   0  0  0  0  0  0  0  0  0  0  0  0
   24.1976  -21.1283  -10.6913 C   0  0  0  0  0  0  0  0  0  0  0  0
   25.6953  -20.8857  -10.5051 C   0  0  2  0  0  0  0  0  0  0  0  0
   25.9597  -20.0443   -9.3766 N   0  0  0  0  0  0  0  0  0  0  0  0
   26.1638  -20.2183  -11.7407 C   0  0  0  0  0  0  0  0  0  0  0  0
   25.9517  -18.9861  -11.8632 O   0  0  0  0  0  0  0  0  0  0  0  0
   28.4295  -20.8531  -14.5324 C   0  0  0  0  0  0  0  0  0  0  0  0
   27.1523  -20.2229  -13.9828 C   0  0  2  0  0  0  0  0  0  0  0  0
   26.8370  -20.9174  -12.7792 N   0  0  0  0  0  0  0  0  0  0  0  0
   26.0916  -20.2817  -15.0016 C   0  0  0  0  0  0  0  0  0  0  0  0
   25.2932  -21.2474  -15.0794 O   0  0  0  0  0  0  0  0  0  0  0  0
   25.9855  -19.1995  -15.9172 N   0  0  0  0  0  0  0  0  0  0  0  0
   24.8946  -19.0894  -16.8664 C   0  0  0  0  0  0  0  0  0  0  0  0
   25.1131  -17.9177  -17.7192 C   0  0  0  0  0  0  0  0  0  0  0  0
   24.5849  -16.8001  -17.4648 O   0  0  0  0  0  0  0  0  0  0  0  0
   25.9128  -18.0081  -18.8369 O   0  0  0  0  0  0  0  0  0  0  0  0
  2  1  1  0
  3  2  2  0
  4  2  1  0
  5  4  1  0
  5  6  1  1
  7  5  1  0
  8  7  2  0
 10  9  1  6
 10 12  1  0
 10 11  1  0
 11  7  1  0
 12 13  2  0
 14 15  1  0
 14 12  1  0
 15 16  1  0
 16 17  2  0
 16 18  1  0
M  END
$$$$
