YTY.pdb
     RDKit          3D

 32 33  0  0  1  0  0  0  0  0999 V2000
    8.7310  -12.1090   22.8284 O   0  0  0  0  0  0  0  0  0  0  0  0
    8.2656  -12.7466   21.6826 C   0  0  0  0  0  0  0  0  0  0  0  0
    7.3844  -13.8054   21.7575 C   0  0  0  0  0  0  0  0  0  0  0  0
    6.9302  -14.4295   20.6115 C   0  0  0  0  0  0  0  0  0  0  0  0
    7.3268  -14.0342   19.3500 C   0  0  0  0  0  0  0  0  0  0  0  0
    6.8204  -14.7259   18.1343 C   0  0  0  0  0  0  0  0  0  0  0  0
    7.8911  -15.7493   17.7399 C   0  0  2  0  0  0  0  0  0  0  0  0
    7.4170  -16.4710   16.5996 N   0  0  0  0  0  0  0  0  0  0  0  0
    8.2152  -16.6357   18.8867 C   0  0  0  0  0  0  0  0  0  0  0  0
    7.3694  -17.4645   19.3084 O   0  0  0  0  0  0  0  0  0  0  0  0
    8.2082  -12.9754   19.2720 C   0  0  0  0  0  0  0  0  0  0  0  0
    8.6592  -12.3549   20.4199 C   0  0  0  0  0  0  0  0  0  0  0  0
   10.5119  -19.3108   19.2759 C   0  0  0  0  0  0  0  0  0  0  0  0
   10.9221  -18.3430   20.3755 C   0  0  1  0  0  0  0  0  0  0  0  0
   12.0377  -17.6433   19.9457 O   0  0  0  0  0  0  0  0  0  0  0  0
    9.7590  -17.4080   20.6942 C   0  0  2  0  0  0  0  0  0  0  0  0
    9.4733  -16.5707   19.5286 N   0  0  0  0  0  0  0  0  0  0  0  0
   10.0867  -16.5699   21.8696 C   0  0  0  0  0  0  0  0  0  0  0  0
   10.6156  -15.4292   21.7535 O   0  0  0  0  0  0  0  0  0  0  0  0
   10.3497  -13.8590   30.3268 O   0  0  0  0  0  0  0  0  0  0  0  0
   10.0623  -14.4671   29.1073 C   0  0  0  0  0  0  0  0  0  0  0  0
   10.3783  -15.7801   28.8500 C   0  0  0  0  0  0  0  0  0  0  0  0
   10.0920  -16.3821   27.6383 C   0  0  0  0  0  0  0  0  0  0  0  0
    9.4693  -15.6740   26.6293 C   0  0  0  0  0  0  0  0  0  0  0  0
    9.1480  -16.2632   25.3264 C   0  0  0  0  0  0  0  0  0  0  0  0
   10.2809  -16.2094   24.3263 C   0  0  2  0  0  0  0  0  0  0  0  0
    9.8206  -17.0089   23.1800 N   0  0  0  0  0  0  0  0  0  0  0  0
   11.5238  -16.7517   24.8846 C   0  0  0  0  0  0  0  0  0  0  0  0
   12.4028  -15.9518   25.3051 O   0  0  0  0  0  0  0  0  0  0  0  0
    9.1447  -14.3406   26.8814 C   0  0  0  0  0  0  0  0  0  0  0  0
    9.4394  -13.7689   28.0904 C   0  0  0  0  0  0  0  0  0  0  0  0
   11.7697  -18.1109   24.9686 O   0  0  0  0  0  0  0  0  0  0  0  0
  1  2  1  0
  2  3  2  0
  3  4  1  0
  5  6  1  0
  5  4  2  0
  7  8  1  6
  7  6  1  0
  9  7  1  0
  9 10  2  0
 11  5  1  0
 12 11  2  0
 12  2  1  0
 14 13  1  6
 14 15  1  0
 14 16  1  0
 16 17  1  6
 16 18  1  0
 17  9  1  0
 18 19  2  0
 18 27  1  0
 20 21  1  0
 21 31  2  0
 21 22  1  0
 22 23  2  0
 23 24  1  0
 24 25  1  0
 26 25  1  1
 26 28  1  0
 27 26  1  0
 28 29  2  0
 28 32  1  0
 30 24  2  0
 31 30  1  0
M  END
$$$$
