YTY.pdb
     RDKit          3D

 32 33  0  0  1  0  0  0  0  0999 V2000
    3.1980  -25.0478   25.0118 O   0  0  0  0  0  0  0  0  0  0  0  0
    4.1782  -24.1402   24.6229 C   0  0  0  0  0  0  0  0  0  0  0  0
    5.5094  -24.4986   24.5720 C   0  0  0  0  0  0  0  0  0  0  0  0
    6.4726  -23.5870   24.1839 C   0  0  0  0  0  0  0  0  0  0  0  0
    6.1605  -22.2895   23.8319 C   0  0  0  0  0  0  0  0  0  0  0  0
    7.2199  -21.3306   23.4181 C   0  0  0  0  0  0  0  0  0  0  0  0
    6.9172  -20.9508   21.9643 C   0  0  2  0  0  0  0  0  0  0  0  0
    7.1784  -22.0927   21.1435 N   0  0  0  0  0  0  0  0  0  0  0  0
    7.7068  -19.7598   21.5595 C   0  0  0  0  0  0  0  0  0  0  0  0
    8.9260  -19.8721   21.2745 O   0  0  0  0  0  0  0  0  0  0  0  0
    4.8298  -21.9282   23.8818 C   0  0  0  0  0  0  0  0  0  0  0  0
    3.8710  -22.8425   24.2702 C   0  0  0  0  0  0  0  0  0  0  0  0
    7.4839  -17.6105   18.8068 C   0  0  0  0  0  0  0  0  0  0  0  0
    7.4602  -16.6108   19.9531 C   0  0  1  0  0  0  0  0  0  0  0  0
    6.1702  -16.1215   20.0773 O   0  0  0  0  0  0  0  0  0  0  0  0
    7.9303  -17.2915   21.2354 C   0  0  2  0  0  0  0  0  0  0  0  0
    7.1124  -18.4790   21.4848 N   0  0  0  0  0  0  0  0  0  0  0  0
    7.8416  -16.3496   22.3740 C   0  0  0  0  0  0  0  0  0  0  0  0
    6.7999  -16.2476   23.0804 O   0  0  0  0  0  0  0  0  0  0  0  0
    5.8247  -10.5162   27.9140 O   0  0  0  0  0  0  0  0  0  0  0  0
    6.2004  -11.4363   26.9383 C   0  0  0  0  0  0  0  0  0  0  0  0
    7.1246  -11.1372   25.9654 C   0  0  0  0  0  0  0  0  0  0  0  0
    7.4963  -12.0522   24.9974 C   0  0  0  0  0  0  0  0  0  0  0  0
    6.9433  -13.3175   24.9742 C   0  0  0  0  0  0  0  0  0  0  0  0
    7.2993  -14.3220   23.9681 C   0  0  0  0  0  0  0  0  0  0  0  0
    8.7851  -14.5739   23.8435 C   0  0  2  0  0  0  0  0  0  0  0  0
    8.9226  -15.5196   22.7246 N   0  0  0  0  0  0  0  0  0  0  0  0
    9.3467  -15.1302   25.0786 C   0  0  0  0  0  0  0  0  0  0  0  0
   10.1544  -14.4322   25.7491 O   0  0  0  0  0  0  0  0  0  0  0  0
    6.0044  -13.6301   25.9578 C   0  0  0  0  0  0  0  0  0  0  0  0
    5.6541  -12.7051   26.9051 C   0  0  0  0  0  0  0  0  0  0  0  0
    9.0231  -16.3948   25.5383 O   0  0  0  0  0  0  0  0  0  0  0  0
  1  2  1  0
  2  3  2  0
  3  4  1  0
  5  6  1  0
  5  4  2  0
  7  8  1  6
  7  6  1  0
  9  7  1  0
  9 10  2  0
 11  5  1  0
 12 11  2  0
 12  2  1  0
 14 13  1  6
 14 15  1  0
 14 16  1  0
 16 17  1  1
 16 18  1  0
 17  9  1  0
 18 19  2  0
 18 27  1  0
 20 21  1  0
 21 31  2  0
 21 22  1  0
 22 23  2  0
 23 24  1  0
 24 25  1  0
 26 25  1  1
 26 28  1  0
 27 26  1  0
 28 29  2  0
 28 32  1  0
 30 24  2  0
 31 30  1  0
M  END
$$$$
