YTY.pdb
     RDKit          3D

 32 33  0  0  1  0  0  0  0  0999 V2000
    4.9806  -10.1111   26.3054 O   0  0  0  0  0  0  0  0  0  0  0  0
    5.7641  -11.2521   26.1630 C   0  0  0  0  0  0  0  0  0  0  0  0
    6.5040  -11.4773   25.0207 C   0  0  0  0  0  0  0  0  0  0  0  0
    7.2779  -12.6148   24.8926 C   0  0  0  0  0  0  0  0  0  0  0  0
    7.3516  -13.5720   25.8842 C   0  0  0  0  0  0  0  0  0  0  0  0
    8.1939  -14.7868   25.7172 C   0  0  0  0  0  0  0  0  0  0  0  0
    7.3824  -15.7624   24.8575 C   0  0  2  0  0  0  0  0  0  0  0  0
    6.4337  -16.4170   25.7044 N   0  0  0  0  0  0  0  0  0  0  0  0
    8.2813  -16.7153   24.1578 C   0  0  0  0  0  0  0  0  0  0  0  0
    8.6147  -17.7955   24.7076 O   0  0  0  0  0  0  0  0  0  0  0  0
    6.6125  -13.3494   27.0279 C   0  0  0  0  0  0  0  0  0  0  0  0
    5.8407  -12.2113   27.1513 C   0  0  0  0  0  0  0  0  0  0  0  0
    8.3724  -17.6971   20.4273 C   0  0  0  0  0  0  0  0  0  0  0  0
    9.7833  -17.2696   20.8024 C   0  0  1  0  0  0  0  0  0  0  0  0
   10.0403  -16.0459   20.2064 O   0  0  0  0  0  0  0  0  0  0  0  0
    9.9080  -17.1936   22.3213 C   0  0  2  0  0  0  0  0  0  0  0  0
    8.7815  -16.4344   22.8654 N   0  0  0  0  0  0  0  0  0  0  0  0
   11.1923  -16.5598   22.6958 C   0  0  0  0  0  0  0  0  0  0  0  0
   11.5191  -15.4119   22.2834 O   0  0  0  0  0  0  0  0  0  0  0  0
    9.6672  -17.1008   29.2857 O   0  0  0  0  0  0  0  0  0  0  0  0
   10.4109  -16.6522   28.1970 C   0  0  0  0  0  0  0  0  0  0  0  0
   10.1275  -15.4719   27.5516 C   0  0  0  0  0  0  0  0  0  0  0  0
   10.8671  -15.0282   26.4706 C   0  0  0  0  0  0  0  0  0  0  0  0
   11.9324  -15.7671   25.9947 C   0  0  0  0  0  0  0  0  0  0  0  0
   12.7449  -15.3441   24.8506 C   0  0  0  0  0  0  0  0  0  0  0  0
   13.2961  -16.4860   24.0267 C   0  0  2  0  0  0  0  0  0  0  0  0
   12.1141  -17.2119   23.5357 N   0  0  0  0  0  0  0  0  0  0  0  0
   14.1616  -17.3616   24.8234 C   0  0  0  0  0  0  0  0  0  0  0  0
   15.2373  -16.8963   25.2877 O   0  0  0  0  0  0  0  0  0  0  0  0
   12.2276  -16.9664   26.6435 C   0  0  0  0  0  0  0  0  0  0  0  0
   11.4789  -17.3827   27.7121 C   0  0  0  0  0  0  0  0  0  0  0  0
   13.8423  -18.6822   25.0865 O   0  0  0  0  0  0  0  0  0  0  0  0
  1  2  1  0
  2  3  2  0
  3  4  1  0
  5  6  1  0
  5  4  2  0
  7  8  1  1
  7  6  1  0
  9  7  1  0
  9 10  2  0
 11  5  1  0
 12 11  2  0
 12  2  1  0
 14 13  1  1
 14 15  1  0
 14 16  1  0
 16 17  1  6
 16 18  1  0
 17  9  1  0
 18 19  2  0
 18 27  1  0
 20 21  1  0
 21 31  2  0
 21 22  1  0
 22 23  2  0
 23 24  1  0
 24 25  1  0
 26 25  1  1
 26 28  1  0
 27 26  1  0
 28 29  2  0
 28 32  1  0
 30 24  2  0
 31 30  1  0
M  END
$$$$
