YTY.pdb
     RDKit          3D

 32 33  0  0  1  0  0  0  0  0999 V2000
    8.2415  -11.7952   17.1726 O   0  0  0  0  0  0  0  0  0  0  0  0
    8.0090  -12.5558   18.3142 C   0  0  0  0  0  0  0  0  0  0  0  0
    9.0450  -12.9648   19.1281 C   0  0  0  0  0  0  0  0  0  0  0  0
    8.7998  -13.7199   20.2590 C   0  0  0  0  0  0  0  0  0  0  0  0
    7.5259  -14.0999   20.6299 C   0  0  0  0  0  0  0  0  0  0  0  0
    7.2932  -14.9133   21.8536 C   0  0  0  0  0  0  0  0  0  0  0  0
    7.8808  -16.3003   21.5705 C   0  0  2  0  0  0  0  0  0  0  0  0
    7.0386  -16.9528   20.6160 N   0  0  0  0  0  0  0  0  0  0  0  0
    8.0275  -17.0733   22.8302 C   0  0  0  0  0  0  0  0  0  0  0  0
    7.3976  -18.1489   22.9932 O   0  0  0  0  0  0  0  0  0  0  0  0
    6.4876  -13.6923   19.8177 C   0  0  0  0  0  0  0  0  0  0  0  0
    6.7375  -12.9379   18.6888 C   0  0  0  0  0  0  0  0  0  0  0  0
    8.9317  -19.5107   23.5663 C   0  0  0  0  0  0  0  0  0  0  0  0
    9.8731  -18.7597   24.4957 C   0  0  1  0  0  0  0  0  0  0  0  0
   11.0336  -18.4688   23.7975 O   0  0  0  0  0  0  0  0  0  0  0  0
    9.1888  -17.4937   25.0032 C   0  0  2  0  0  0  0  0  0  0  0  0
    8.8728  -16.6230   23.8704 N   0  0  0  0  0  0  0  0  0  0  0  0
   10.0649  -16.7937   25.9695 C   0  0  0  0  0  0  0  0  0  0  0  0
   11.1152  -16.1925   25.6091 O   0  0  0  0  0  0  0  0  0  0  0  0
    6.6548  -11.8143   25.2613 O   0  0  0  0  0  0  0  0  0  0  0  0
    7.3676  -12.6089   26.1559 C   0  0  0  0  0  0  0  0  0  0  0  0
    6.8800  -13.8068   26.6220 C   0  0  0  0  0  0  0  0  0  0  0  0
    7.5894  -14.5944   27.5103 C   0  0  0  0  0  0  0  0  0  0  0  0
    8.8311  -14.1984   27.9670 C   0  0  0  0  0  0  0  0  0  0  0  0
    9.6211  -14.9934   28.9113 C   0  0  0  0  0  0  0  0  0  0  0  0
   10.5873  -15.9540   28.2553 C   0  0  2  0  0  0  0  0  0  0  0  0
    9.7645  -16.7649   27.3440 N   0  0  0  0  0  0  0  0  0  0  0  0
   11.2699  -16.7961   29.2428 C   0  0  0  0  0  0  0  0  0  0  0  0
   10.9397  -18.0087   29.3418 O   0  0  0  0  0  0  0  0  0  0  0  0
    9.3341  -12.9839   27.4992 C   0  0  0  0  0  0  0  0  0  0  0  0
    8.6108  -12.2232   26.6196 C   0  0  0  0  0  0  0  0  0  0  0  0
   12.2656  -16.3102   30.0721 O   0  0  0  0  0  0  0  0  0  0  0  0
  1  2  1  0
  2  3  2  0
  3  4  1  0
  5  6  1  0
  5  4  2  0
  7  8  1  6
  7  6  1  0
  9  7  1  0
  9 10  2  0
 11  5  1  0
 12 11  2  0
 12  2  1  0
 14 13  1  6
 14 15  1  0
 14 16  1  0
 16 17  1  6
 16 18  1  0
 17  9  1  0
 18 19  2  0
 18 27  1  0
 20 21  1  0
 21 31  2  0
 21 22  1  0
 22 23  2  0
 23 24  1  0
 24 25  1  0
 26 25  1  1
 26 28  1  0
 27 26  1  0
 28 29  2  0
 28 32  1  0
 30 24  2  0
 31 30  1  0
M  END
$$$$
