YTY.pdb
     RDKit          3D

 32 33  0  0  1  0  0  0  0  0999 V2000
   20.6374  -12.7800   14.2792 O   0  0  0  0  0  0  0  0  0  0  0  0
   19.4498  -12.9260   14.9892 C   0  0  0  0  0  0  0  0  0  0  0  0
   18.6153  -11.8524   15.2215 C   0  0  0  0  0  0  0  0  0  0  0  0
   17.4386  -12.0116   15.9282 C   0  0  0  0  0  0  0  0  0  0  0  0
   17.0407  -13.2334   16.4320 C   0  0  0  0  0  0  0  0  0  0  0  0
   15.7678  -13.3736   17.1892 C   0  0  0  0  0  0  0  0  0  0  0  0
   14.9090  -14.3772   16.4116 C   0  0  2  0  0  0  0  0  0  0  0  0
   14.4502  -13.7374   15.2174 N   0  0  0  0  0  0  0  0  0  0  0  0
   13.7967  -14.8798   17.2578 C   0  0  0  0  0  0  0  0  0  0  0  0
   12.7961  -14.1548   17.4889 O   0  0  0  0  0  0  0  0  0  0  0  0
   17.8735  -14.3090   16.2012 C   0  0  0  0  0  0  0  0  0  0  0  0
   19.0481  -14.1450   15.4945 C   0  0  0  0  0  0  0  0  0  0  0  0
   13.1043  -18.9523   17.8845 C   0  0  0  0  0  0  0  0  0  0  0  0
   12.0815  -17.8497   18.1130 C   0  0  1  0  0  0  0  0  0  0  0  0
   11.0898  -18.3418   18.9456 O   0  0  0  0  0  0  0  0  0  0  0  0
   12.7707  -16.6299   18.7178 C   0  0  2  0  0  0  0  0  0  0  0  0
   13.8341  -16.1763   17.8207 N   0  0  0  0  0  0  0  0  0  0  0  0
   13.3212  -16.9646   20.0505 C   0  0  0  0  0  0  0  0  0  0  0  0
   14.4284  -17.5556   20.1896 O   0  0  0  0  0  0  0  0  0  0  0  0
   18.7051  -13.9862   21.1366 O   0  0  0  0  0  0  0  0  0  0  0  0
   17.4654  -14.4028   21.6153 C   0  0  0  0  0  0  0  0  0  0  0  0
   16.2827  -13.9496   21.0805 C   0  0  0  0  0  0  0  0  0  0  0  0
   15.0527  -14.3644   21.5573 C   0  0  0  0  0  0  0  0  0  0  0  0
   14.9686  -15.2622   22.6033 C   0  0  0  0  0  0  0  0  0  0  0  0
   13.6911  -15.7300   23.1484 C   0  0  0  0  0  0  0  0  0  0  0  0
   13.1924  -17.0200   22.5371 C   0  0  2  0  0  0  0  0  0  0  0  0
   12.6314  -16.6359   21.2322 N   0  0  0  0  0  0  0  0  0  0  0  0
   12.1796  -17.6639   23.3797 C   0  0  0  0  0  0  0  0  0  0  0  0
   10.9920  -17.7302   22.9620 O   0  0  0  0  0  0  0  0  0  0  0  0
   16.1638  -15.7277   23.1524 C   0  0  0  0  0  0  0  0  0  0  0  0
   17.3687  -15.3006   22.6612 C   0  0  0  0  0  0  0  0  0  0  0  0
   12.4777  -18.2034   24.6187 O   0  0  0  0  0  0  0  0  0  0  0  0
  1  2  1  0
  2  3  2  0
  3  4  1  0
  5  6  1  0
  5  4  2  0
  7  8  1  6
  7  6  1  0
  9  7  1  0
  9 10  2  0
 11  5  1  0
 12 11  2  0
 12  2  1  0
 14 13  1  1
 14 15  1  0
 14 16  1  0
 16 17  1  6
 16 18  1  0
 17  9  1  0
 18 19  2  0
 18 27  1  0
 20 21  1  0
 21 31  2  0
 21 22  1  0
 22 23  2  0
 23 24  1  0
 24 25  1  0
 26 25  1  1
 26 28  1  0
 27 26  1  0
 28 29  2  0
 28 32  1  0
 30 24  2  0
 31 30  1  0
M  END
$$$$
