YTY.pdb
     RDKit          3D

 32 33  0  0  1  0  0  0  0  0999 V2000
    0.0404  -21.2001   21.6690 O   0  0  0  0  0  0  0  0  0  0  0  0
    1.1860  -20.4776   21.9876 C   0  0  0  0  0  0  0  0  0  0  0  0
    1.9362  -20.7772   23.1059 C   0  0  0  0  0  0  0  0  0  0  0  0
    3.0719  -20.0514   23.4104 C   0  0  0  0  0  0  0  0  0  0  0  0
    3.5104  -19.0044   22.6254 C   0  0  0  0  0  0  0  0  0  0  0  0
    4.7374  -18.2413   22.9792 C   0  0  0  0  0  0  0  0  0  0  0  0
    5.7571  -18.5210   21.8696 C   0  0  2  0  0  0  0  0  0  0  0  0
    6.1740  -19.8845   21.9832 N   0  0  0  0  0  0  0  0  0  0  0  0
    6.8911  -17.5651   21.9481 C   0  0  0  0  0  0  0  0  0  0  0  0
    8.0292  -17.9572   22.3104 O   0  0  0  0  0  0  0  0  0  0  0  0
    2.7619  -18.7025   21.5063 C   0  0  0  0  0  0  0  0  0  0  0  0
    1.6279  -19.4305   21.2060 C   0  0  0  0  0  0  0  0  0  0  0  0
    8.7301  -13.1850   20.5517 C   0  0  0  0  0  0  0  0  0  0  0  0
    7.5757  -14.1755   20.5581 C   0  0  1  0  0  0  0  0  0  0  0  0
    7.4041  -14.6522   19.2688 O   0  0  0  0  0  0  0  0  0  0  0  0
    7.8753  -15.3040   21.5406 C   0  0  2  0  0  0  0  0  0  0  0  0
    6.7213  -16.2003   21.6199 N   0  0  0  0  0  0  0  0  0  0  0  0
    8.1945  -14.7468   22.8743 C   0  0  0  0  0  0  0  0  0  0  0  0
    7.4807  -13.8586   23.4183 O   0  0  0  0  0  0  0  0  0  0  0  0
    9.0210  -18.1242   29.9146 O   0  0  0  0  0  0  0  0  0  0  0  0
    8.9513  -17.1786   28.8945 C   0  0  0  0  0  0  0  0  0  0  0  0
    9.6293  -15.9840   28.9544 C   0  0  0  0  0  0  0  0  0  0  0  0
    9.5588  -15.0462   27.9404 C   0  0  0  0  0  0  0  0  0  0  0  0
    8.7931  -15.2810   26.8154 C   0  0  0  0  0  0  0  0  0  0  0  0
    8.6811  -14.3191   25.7153 C   0  0  0  0  0  0  0  0  0  0  0  0
    9.8212  -14.3772   24.7236 C   0  0  2  0  0  0  0  0  0  0  0  0
    9.3156  -15.1856   23.6029 N   0  0  0  0  0  0  0  0  0  0  0  0
   11.0217  -14.9800   25.3117 C   0  0  0  0  0  0  0  0  0  0  0  0
   11.6647  -14.3329   26.1818 O   0  0  0  0  0  0  0  0  0  0  0  0
    8.1015  -16.4908   26.7457 C   0  0  0  0  0  0  0  0  0  0  0  0
    8.1887  -17.4023   27.7642 C   0  0  0  0  0  0  0  0  0  0  0  0
   11.4771  -16.2352   24.9481 O   0  0  0  0  0  0  0  0  0  0  0  0
  1  2  1  0
  2  3  2  0
  3  4  1  0
  5  6  1  0
  5  4  2  0
  7  8  1  1
  7  6  1  0
  9  7  1  0
  9 10  2  0
 11  5  1  0
 12 11  2  0
 12  2  1  0
 14 13  1  6
 14 15  1  0
 14 16  1  0
 16 17  1  1
 16 18  1  0
 17  9  1  0
 18 19  2  0
 18 27  1  0
 20 21  1  0
 21 31  2  0
 21 22  1  0
 22 23  2  0
 23 24  1  0
 24 25  1  0
 26 25  1  1
 26 28  1  0
 27 26  1  0
 28 29  2  0
 28 32  1  0
 30 24  2  0
 31 30  1  0
M  END
$$$$
