YTY.pdb
     RDKit          3D

 32 33  0  0  1  0  0  0  0  0999 V2000
    7.1287  -13.1198   15.4065 O   0  0  0  0  0  0  0  0  0  0  0  0
    7.3638  -13.4237   16.7438 C   0  0  0  0  0  0  0  0  0  0  0  0
    6.6308  -12.8355   17.7535 C   0  0  0  0  0  0  0  0  0  0  0  0
    6.8748  -13.1464   19.0776 C   0  0  0  0  0  0  0  0  0  0  0  0
    7.8493  -14.0476   19.4558 C   0  0  0  0  0  0  0  0  0  0  0  0
    8.0888  -14.3622   20.8899 C   0  0  0  0  0  0  0  0  0  0  0  0
    7.5760  -15.7894   21.1123 C   0  0  2  0  0  0  0  0  0  0  0  0
    6.1500  -15.7382   21.2124 N   0  0  0  0  0  0  0  0  0  0  0  0
    8.2144  -16.3941   22.3092 C   0  0  0  0  0  0  0  0  0  0  0  0
    7.7893  -16.1246   23.4611 O   0  0  0  0  0  0  0  0  0  0  0  0
    8.5841  -14.6375   18.4478 C   0  0  0  0  0  0  0  0  0  0  0  0
    8.3366  -14.3237   17.1264 C   0  0  0  0  0  0  0  0  0  0  0  0
   11.5244  -19.4977   24.2947 C   0  0  0  0  0  0  0  0  0  0  0  0
   10.8104  -19.0015   23.0465 C   0  0  1  0  0  0  0  0  0  0  0  0
    9.9583  -20.0010   22.6061 O   0  0  0  0  0  0  0  0  0  0  0  0
   10.0526  -17.7164   23.3674 C   0  0  2  0  0  0  0  0  0  0  0  0
    9.3083  -17.2814   22.1850 N   0  0  0  0  0  0  0  0  0  0  0  0
   10.9973  -16.6638   23.8043 C   0  0  0  0  0  0  0  0  0  0  0  0
   11.7073  -16.0174   22.9842 O   0  0  0  0  0  0  0  0  0  0  0  0
   10.3623  -17.4966   31.3446 O   0  0  0  0  0  0  0  0  0  0  0  0
   10.6000  -16.7463   30.1956 C   0  0  0  0  0  0  0  0  0  0  0  0
   11.6483  -15.8618   30.1013 C   0  0  0  0  0  0  0  0  0  0  0  0
   11.8827  -15.1176   28.9595 C   0  0  0  0  0  0  0  0  0  0  0  0
   11.0590  -15.2390   27.8577 C   0  0  0  0  0  0  0  0  0  0  0  0
   11.2609  -14.4707   26.6260 C   0  0  0  0  0  0  0  0  0  0  0  0
   12.0217  -15.2135   25.5508 C   0  0  2  0  0  0  0  0  0  0  0  0
   11.1475  -16.3320   25.1636 N   0  0  0  0  0  0  0  0  0  0  0  0
   13.3167  -15.6984   26.0389 C   0  0  0  0  0  0  0  0  0  0  0  0
   14.2550  -14.8722   26.2007 O   0  0  0  0  0  0  0  0  0  0  0  0
    9.9924  -16.1343   27.9442 C   0  0  0  0  0  0  0  0  0  0  0  0
    9.7829  -16.8593   29.0871 C   0  0  0  0  0  0  0  0  0  0  0  0
   13.5492  -17.0311   26.3301 O   0  0  0  0  0  0  0  0  0  0  0  0
  1  2  1  0
  2  3  2  0
  3  4  1  0
  5  6  1  0
  5  4  2  0
  7  8  1  1
  7  6  1  0
  9  7  1  0
  9 10  2  0
 11  5  1  0
 12 11  2  0
 12  2  1  0
 14 13  1  1
 14 15  1  0
 14 16  1  0
 16 17  1  6
 16 18  1  0
 17  9  1  0
 18 19  2  0
 18 27  1  0
 20 21  1  0
 21 31  2  0
 21 22  1  0
 22 23  2  0
 23 24  1  0
 24 25  1  0
 26 25  1  1
 26 28  1  0
 27 26  1  0
 28 29  2  0
 28 32  1  0
 30 24  2  0
 31 30  1  0
M  END
$$$$
