HYH.pdb
     RDKit          3D

 33 35  0  0  1  0  0  0  0  0999 V2000
    9.5129  -17.3741   19.0789 N   0  0  0  0  0  0  0  0  0  0  0  0
   10.7265  -16.6591   19.3542 C   0  0  1  0  0  0  0  0  0  0  0  0
   11.0957  -15.7084   18.2288 C   0  0  0  0  0  0  0  0  0  0  0  0
   10.5532  -16.1763   16.9387 C   0  0  0  0  0  0  0  0  0  0  0  0
    9.2535  -15.9719   16.5284 C   0  0  0  0  0  0  0  0  0  0  0  0
    9.0840  -16.5232   15.3066 N   0  0  0  0  0  0  0  0  0  0  0  0
   10.2637  -17.0756   14.9371 C   0  0  0  0  0  0  0  0  0  0  0  0
   11.1425  -16.8563   15.9373 N   0  0  0  0  0  0  0  0  0  0  0  0
   10.6310  -15.9266   20.6427 C   0  0  0  0  0  0  0  0  0  0  0  0
   11.2498  -14.8604   20.7695 O   0  0  0  0  0  0  0  0  0  0  0  0
    6.3240  -13.4147   18.1624 O   0  0  0  0  0  0  0  0  0  0  0  0
    7.0497  -13.6589   19.3247 C   0  0  0  0  0  0  0  0  0  0  0  0
    7.8858  -12.6945   19.8510 C   0  0  0  0  0  0  0  0  0  0  0  0
    8.6190  -12.9176   21.0098 C   0  0  0  0  0  0  0  0  0  0  0  0
    8.5334  -14.1263   21.6798 C   0  0  0  0  0  0  0  0  0  0  0  0
    9.3228  -14.3550   22.9190 C   0  0  0  0  0  0  0  0  0  0  0  0
    9.7923  -15.7929   23.0145 C   0  0  2  0  0  0  0  0  0  0  0  0
    9.8493  -16.4257   21.7191 N   0  0  0  0  0  0  0  0  0  0  0  0
    9.0390  -16.5693   24.0032 C   0  0  0  0  0  0  0  0  0  0  0  0
    7.9847  -17.1539   23.6370 O   0  0  0  0  0  0  0  0  0  0  0  0
    7.6973  -15.0824   21.1480 C   0  0  0  0  0  0  0  0  0  0  0  0
    6.9682  -14.8610   19.9959 C   0  0  0  0  0  0  0  0  0  0  0  0
    9.4125  -16.7146   25.3615 N   0  0  0  0  0  0  0  0  0  0  0  0
   10.3366  -17.7683   25.7561 C   0  0  1  0  0  0  0  0  0  0  0  0
   11.6781  -17.5641   25.1170 C   0  0  0  0  0  0  0  0  0  0  0  0
   11.9401  -18.6262   24.1320 C   0  0  0  0  0  0  0  0  0  0  0  0
   11.0079  -19.5799   23.7625 C   0  0  0  0  0  0  0  0  0  0  0  0
   11.6059  -20.3865   22.8386 N   0  0  0  0  0  0  0  0  0  0  0  0
   12.8523  -19.9633   22.6353 C   0  0  0  0  0  0  0  0  0  0  0  0
   13.0277  -18.8981   23.4297 N   0  0  0  0  0  0  0  0  0  0  0  0
   10.4842  -17.7258   27.2264 C   0  0  0  0  0  0  0  0  0  0  0  0
   10.0985  -16.6770   27.8392 O   0  0  0  0  0  0  0  0  0  0  0  0
   11.0137  -18.7492   27.9975 O   0  0  0  0  0  0  0  0  0  0  0  0
  2  1  1  6
  2  3  1  0
  3  4  1  0
  4  5  2  0
  4  8  1  0
  5  6  1  0
  6  7  1  0
  8  7  2  0
  9 18  1  0
  9  2  1  0
 10  9  2  0
 11 12  1  0
 12 22  2  0
 13 14  2  0
 13 12  1  0
 14 15  1  0
 15 16  1  0
 15 21  2  0
 17 16  1  6
 17 18  1  0
 19 17  1  0
 20 19  2  0
 22 21  1  0
 23 19  1  0
 24 31  1  0
 24 23  1  0
 24 25  1  6
 26 27  2  0
 26 25  1  0
 28 27  1  0
 29 30  2  0
 29 28  1  0
 30 26  1  0
 31 33  1  0
 32 31  2  0
M  END
$$$$
