HYH.pdb
     RDKit          3D

 33 35  0  0  1  0  0  0  0  0999 V2000
   11.1065  -17.3385   19.1142 N   0  0  0  0  0  0  0  0  0  0  0  0
   10.1725  -17.7776   20.1116 C   0  0  1  0  0  0  0  0  0  0  0  0
   10.5586  -19.1231   20.7009 C   0  0  0  0  0  0  0  0  0  0  0  0
   10.4303  -20.1985   19.6985 C   0  0  0  0  0  0  0  0  0  0  0  0
    9.3752  -21.0835   19.6469 C   0  0  0  0  0  0  0  0  0  0  0  0
    9.5638  -21.9363   18.6160 N   0  0  0  0  0  0  0  0  0  0  0  0
   10.7286  -21.6012   18.0125 C   0  0  0  0  0  0  0  0  0  0  0  0
   11.2402  -20.5465   18.6810 N   0  0  0  0  0  0  0  0  0  0  0  0
   10.0264  -16.7626   21.1860 C   0  0  0  0  0  0  0  0  0  0  0  0
   11.0475  -16.2408   21.6559 O   0  0  0  0  0  0  0  0  0  0  0  0
    6.5299  -11.0124   26.9093 O   0  0  0  0  0  0  0  0  0  0  0  0
    6.6731  -11.9697   25.9091 C   0  0  0  0  0  0  0  0  0  0  0  0
    7.3277  -11.6683   24.7316 C   0  0  0  0  0  0  0  0  0  0  0  0
    7.4817  -12.6088   23.7206 C   0  0  0  0  0  0  0  0  0  0  0  0
    6.9783  -13.8907   23.8640 C   0  0  0  0  0  0  0  0  0  0  0  0
    7.1480  -14.8897   22.7757 C   0  0  0  0  0  0  0  0  0  0  0  0
    8.5591  -15.4424   22.7516 C   0  0  2  0  0  0  0  0  0  0  0  0
    8.7471  -16.3863   21.6767 N   0  0  0  0  0  0  0  0  0  0  0  0
    8.9863  -15.9594   24.0546 C   0  0  0  0  0  0  0  0  0  0  0  0
    8.6364  -17.1231   24.3876 O   0  0  0  0  0  0  0  0  0  0  0  0
    6.3269  -14.1827   25.0414 C   0  0  0  0  0  0  0  0  0  0  0  0
    6.1737  -13.2479   26.0468 C   0  0  0  0  0  0  0  0  0  0  0  0
    9.7755  -15.2381   24.9833 N   0  0  0  0  0  0  0  0  0  0  0  0
   10.2807  -15.8971   26.1793 C   0  0  1  0  0  0  0  0  0  0  0  0
   11.0404  -14.9294   27.0374 C   0  0  0  0  0  0  0  0  0  0  0  0
   11.4222  -15.5665   28.3083 C   0  0  0  0  0  0  0  0  0  0  0  0
   10.8855  -15.2181   29.5354 C   0  0  0  0  0  0  0  0  0  0  0  0
   11.4761  -16.0163   30.4712 N   0  0  0  0  0  0  0  0  0  0  0  0
   12.3416  -16.8274   29.8654 C   0  0  0  0  0  0  0  0  0  0  0  0
   12.2888  -16.5341   28.5586 N   0  0  0  0  0  0  0  0  0  0  0  0
    9.1265  -16.4221   26.9393 C   0  0  0  0  0  0  0  0  0  0  0  0
    8.0411  -15.7543   26.9214 O   0  0  0  0  0  0  0  0  0  0  0  0
    9.1333  -17.5968   27.6757 O   0  0  0  0  0  0  0  0  0  0  0  0
  2  1  1  6
  2  3  1  0
  3  4  1  0
  4  5  2  0
  4  8  1  0
  5  6  1  0
  6  7  1  0
  8  7  2  0
  9 18  1  0
  9  2  1  0
 10  9  2  0
 11 12  1  0
 12 22  2  0
 13 14  2  0
 13 12  1  0
 14 15  1  0
 15 16  1  0
 15 21  2  0
 17 16  1  1
 17 18  1  0
 19 17  1  0
 20 19  2  0
 22 21  1  0
 23 19  1  0
 24 31  1  0
 24 23  1  0
 24 25  1  1
 26 27  2  0
 26 25  1  0
 28 27  1  0
 29 30  2  0
 29 28  1  0
 30 26  1  0
 31 33  1  0
 32 31  2  0
M  END
$$$$
