HYH.pdb
     RDKit          3D

 33 35  0  0  1  0  0  0  0  0999 V2000
   10.3375  -16.7036   18.7264 N   0  0  0  0  0  0  0  0  0  0  0  0
    9.0736  -16.7538   19.4046 C   0  0  1  0  0  0  0  0  0  0  0  0
    8.4816  -18.1524   19.4038 C   0  0  0  0  0  0  0  0  0  0  0  0
    8.1812  -18.6014   18.0306 C   0  0  0  0  0  0  0  0  0  0  0  0
    7.0147  -18.3047   17.3595 C   0  0  0  0  0  0  0  0  0  0  0  0
    7.0573  -18.8644   16.1305 N   0  0  0  0  0  0  0  0  0  0  0  0
    8.2398  -19.5136   16.0147 C   0  0  0  0  0  0  0  0  0  0  0  0
    8.9082  -19.3440   17.1747 N   0  0  0  0  0  0  0  0  0  0  0  0
    9.1953  -16.2420   20.7935 C   0  0  0  0  0  0  0  0  0  0  0  0
   10.2078  -16.5289   21.4479 O   0  0  0  0  0  0  0  0  0  0  0  0
    7.3331  -12.1497   28.4213 O   0  0  0  0  0  0  0  0  0  0  0  0
    7.2615  -12.6126   27.1105 C   0  0  0  0  0  0  0  0  0  0  0  0
    8.0890  -12.0967   26.1332 C   0  0  0  0  0  0  0  0  0  0  0  0
    8.0339  -12.5443   24.8192 C   0  0  0  0  0  0  0  0  0  0  0  0
    7.1384  -13.5317   24.4448 C   0  0  0  0  0  0  0  0  0  0  0  0
    7.0872  -14.0035   23.0356 C   0  0  0  0  0  0  0  0  0  0  0  0
    8.2562  -14.9141   22.7175 C   0  0  2  0  0  0  0  0  0  0  0  0
    8.1787  -15.4375   21.3752 N   0  0  0  0  0  0  0  0  0  0  0  0
    8.4556  -15.9534   23.7314 C   0  0  0  0  0  0  0  0  0  0  0  0
    7.5871  -16.8587   23.8481 O   0  0  0  0  0  0  0  0  0  0  0  0
    6.3170  -14.0406   25.4258 C   0  0  0  0  0  0  0  0  0  0  0  0
    6.3714  -13.5959   26.7324 C   0  0  0  0  0  0  0  0  0  0  0  0
    9.5689  -16.0183   24.6042 N   0  0  0  0  0  0  0  0  0  0  0  0
    9.6463  -17.0660   25.6124 C   0  0  1  0  0  0  0  0  0  0  0  0
   10.8805  -17.8966   25.4205 C   0  0  0  0  0  0  0  0  0  0  0  0
   10.6819  -18.8583   24.3240 C   0  0  0  0  0  0  0  0  0  0  0  0
    9.6557  -19.7861   24.2906 C   0  0  0  0  0  0  0  0  0  0  0  0
    9.7947  -20.4946   23.1328 N   0  0  0  0  0  0  0  0  0  0  0  0
   10.8550  -20.0372   22.4691 C   0  0  0  0  0  0  0  0  0  0  0  0
   11.3723  -19.0485   23.2117 N   0  0  0  0  0  0  0  0  0  0  0  0
    9.6917  -16.4235   26.9430 C   0  0  0  0  0  0  0  0  0  0  0  0
    9.7343  -15.1507   26.9948 O   0  0  0  0  0  0  0  0  0  0  0  0
    9.6899  -17.1052   28.1503 O   0  0  0  0  0  0  0  0  0  0  0  0
  2  1  1  1
  2  3  1  0
  3  4  1  0
  4  5  2  0
  4  8  1  0
  5  6  1  0
  6  7  1  0
  8  7  2  0
  9 18  1  0
  9  2  1  0
 10  9  2  0
 11 12  1  0
 12 22  2  0
 13 14  2  0
 13 12  1  0
 14 15  1  0
 15 16  1  0
 15 21  2  0
 17 16  1  1
 17 18  1  0
 19 17  1  0
 20 19  2  0
 22 21  1  0
 23 19  1  0
 24 31  1  0
 24 23  1  0
 24 25  1  6
 26 27  2  0
 26 25  1  0
 28 27  1  0
 29 30  2  0
 29 28  1  0
 30 26  1  0
 31 33  1  0
 32 31  2  0
M  END
$$$$
