HYH.pdb
     RDKit          3D

 33 35  0  0  1  0  0  0  0  0999 V2000
   10.7620  -16.5371   18.9352 N   0  0  0  0  0  0  0  0  0  0  0  0
    9.7445  -17.0118   19.8292 C   0  0  1  0  0  0  0  0  0  0  0  0
    9.8626  -18.5040   20.0862 C   0  0  0  0  0  0  0  0  0  0  0  0
    9.7537  -19.2697   18.8294 C   0  0  0  0  0  0  0  0  0  0  0  0
   10.8250  -19.8455   18.1812 C   0  0  0  0  0  0  0  0  0  0  0  0
   10.3840  -20.4690   17.0666 N   0  0  0  0  0  0  0  0  0  0  0  0
    9.0429  -20.2946   17.0009 C   0  0  0  0  0  0  0  0  0  0  0  0
    8.6777  -19.5660   18.0764 N   0  0  0  0  0  0  0  0  0  0  0  0
    9.7701  -16.2605   21.1101 C   0  0  0  0  0  0  0  0  0  0  0  0
   10.8377  -15.7531   21.4823 O   0  0  0  0  0  0  0  0  0  0  0  0
    6.7333  -11.6685   28.0545 O   0  0  0  0  0  0  0  0  0  0  0  0
    6.8860  -12.3209   26.8344 C   0  0  0  0  0  0  0  0  0  0  0  0
    6.2614  -13.5290   26.5966 C   0  0  0  0  0  0  0  0  0  0  0  0
    6.4005  -14.1967   25.3863 C   0  0  0  0  0  0  0  0  0  0  0  0
    7.1776  -13.6662   24.3705 C   0  0  0  0  0  0  0  0  0  0  0  0
    7.3203  -14.3892   23.0790 C   0  0  0  0  0  0  0  0  0  0  0  0
    8.5429  -15.2851   23.0822 C   0  0  2  0  0  0  0  0  0  0  0  0
    8.6011  -16.1173   21.9051 N   0  0  0  0  0  0  0  0  0  0  0  0
    8.6876  -16.0398   24.3301 C   0  0  0  0  0  0  0  0  0  0  0  0
    7.8543  -16.9493   24.5867 O   0  0  0  0  0  0  0  0  0  0  0  0
    7.7968  -12.4612   24.6162 C   0  0  0  0  0  0  0  0  0  0  0  0
    7.6588  -11.7969   25.8194 C   0  0  0  0  0  0  0  0  0  0  0  0
    9.7101  -15.8207   25.2851 N   0  0  0  0  0  0  0  0  0  0  0  0
   10.0250  -16.8490   26.2667 C   0  0  1  0  0  0  0  0  0  0  0  0
   11.4154  -17.3721   26.0594 C   0  0  0  0  0  0  0  0  0  0  0  0
   11.3996  -18.4998   25.1134 C   0  0  0  0  0  0  0  0  0  0  0  0
   10.2544  -18.9682   24.4935 C   0  0  0  0  0  0  0  0  0  0  0  0
   10.6289  -20.0106   23.6968 N   0  0  0  0  0  0  0  0  0  0  0  0
   11.9439  -20.1910   23.8080 C   0  0  0  0  0  0  0  0  0  0  0  0
   12.3843  -19.2643   24.6705 N   0  0  0  0  0  0  0  0  0  0  0  0
    9.9250  -16.2474   27.6134 C   0  0  0  0  0  0  0  0  0  0  0  0
    9.9686  -14.9772   27.7090 O   0  0  0  0  0  0  0  0  0  0  0  0
    9.7847  -16.9652   28.7912 O   0  0  0  0  0  0  0  0  0  0  0  0
  2  1  1  6
  2  3  1  0
  3  4  1  0
  4  5  2  0
  4  8  1  0
  5  6  1  0
  6  7  1  0
  8  7  2  0
  9 18  1  0
  9  2  1  0
 10  9  2  0
 11 12  1  0
 12 22  2  0
 13 14  2  0
 13 12  1  0
 14 15  1  0
 15 16  1  0
 15 21  2  0
 17 16  1  1
 17 18  1  0
 19 17  1  0
 20 19  2  0
 22 21  1  0
 23 19  1  0
 24 31  1  0
 24 23  1  0
 24 25  1  6
 26 27  2  0
 26 25  1  0
 28 27  1  0
 29 30  2  0
 29 28  1  0
 30 26  1  0
 31 33  1  0
 32 31  2  0
M  END
$$$$
