HYH.pdb
     RDKit          3D

 33 35  0  0  1  0  0  0  0  0999 V2000
    9.0949  -16.8080   19.5451 N   0  0  0  0  0  0  0  0  0  0  0  0
   10.2721  -16.0459   19.8501 C   0  0  1  0  0  0  0  0  0  0  0  0
   10.5819  -15.0203   18.7735 C   0  0  0  0  0  0  0  0  0  0  0  0
    9.5270  -14.9980   17.7419 C   0  0  0  0  0  0  0  0  0  0  0  0
    8.4625  -15.8725   17.7076 C   0  0  0  0  0  0  0  0  0  0  0  0
    7.6862  -15.5821   16.6405 N   0  0  0  0  0  0  0  0  0  0  0  0
    8.2477  -14.5315   15.9969 C   0  0  0  0  0  0  0  0  0  0  0  0
    9.3619  -14.1904   16.6775 N   0  0  0  0  0  0  0  0  0  0  0  0
   10.1499  -15.3869   21.1755 C   0  0  0  0  0  0  0  0  0  0  0  0
   11.0842  -14.6789   21.5776 O   0  0  0  0  0  0  0  0  0  0  0  0
    6.8192  -11.3414   28.2045 O   0  0  0  0  0  0  0  0  0  0  0  0
    6.9700  -12.0523   27.0174 C   0  0  0  0  0  0  0  0  0  0  0  0
    6.4900  -13.3415   26.9004 C   0  0  0  0  0  0  0  0  0  0  0  0
    6.6300  -14.0687   25.7249 C   0  0  0  0  0  0  0  0  0  0  0  0
    7.2616  -13.5176   24.6228 C   0  0  0  0  0  0  0  0  0  0  0  0
    7.4066  -14.3046   23.3695 C   0  0  0  0  0  0  0  0  0  0  0  0
    8.8006  -14.8859   23.2432 C   0  0  2  0  0  0  0  0  0  0  0  0
    8.9902  -15.5551   21.9791 N   0  0  0  0  0  0  0  0  0  0  0  0
    9.1758  -15.7110   24.3948 C   0  0  0  0  0  0  0  0  0  0  0  0
    9.0703  -15.2199   25.5503 O   0  0  0  0  0  0  0  0  0  0  0  0
    7.7371  -12.2315   24.7482 C   0  0  0  0  0  0  0  0  0  0  0  0
    7.5982  -11.5082   25.9167 C   0  0  0  0  0  0  0  0  0  0  0  0
    9.6559  -17.0403   24.3057 N   0  0  0  0  0  0  0  0  0  0  0  0
    9.9581  -17.7902   25.5167 C   0  0  1  0  0  0  0  0  0  0  0  0
    9.4912  -19.2101   25.3917 C   0  0  0  0  0  0  0  0  0  0  0  0
    8.0839  -19.2475   24.9615 C   0  0  0  0  0  0  0  0  0  0  0  0
    7.0855  -18.4740   25.5272 C   0  0  0  0  0  0  0  0  0  0  0  0
    5.9261  -18.7784   24.8752 N   0  0  0  0  0  0  0  0  0  0  0  0
    6.1800  -19.6974   23.9452 C   0  0  0  0  0  0  0  0  0  0  0  0
    7.4917  -19.9628   24.0192 N   0  0  0  0  0  0  0  0  0  0  0  0
   11.4228  -17.7733   25.7164 C   0  0  0  0  0  0  0  0  0  0  0  0
   11.8986  -18.3856   26.7279 O   0  0  0  0  0  0  0  0  0  0  0  0
   12.3273  -17.1379   24.8795 O   0  0  0  0  0  0  0  0  0  0  0  0
  2  1  1  6
  2  3  1  0
  3  4  1  0
  4  5  2  0
  4  8  1  0
  5  6  1  0
  6  7  1  0
  8  7  2  0
  9 18  1  0
  9  2  1  0
 10  9  2  0
 11 12  1  0
 12 22  2  0
 13 14  2  0
 13 12  1  0
 14 15  1  0
 15 16  1  0
 15 21  2  0
 17 16  1  1
 17 18  1  0
 19 17  1  0
 20 19  2  0
 22 21  1  0
 23 19  1  0
 24 31  1  0
 24 23  1  0
 24 25  1  6
 26 27  2  0
 26 25  1  0
 28 27  1  0
 29 30  2  0
 29 28  1  0
 30 26  1  0
 31 33  1  0
 32 31  2  0
M  END
$$$$
