HYH.pdb
     RDKit          3D

 33 35  0  0  1  0  0  0  0  0999 V2000
    9.9690  -16.7561   18.7139 N   0  0  0  0  0  0  0  0  0  0  0  0
    8.7081  -16.6297   19.3876 C   0  0  1  0  0  0  0  0  0  0  0  0
    7.9210  -17.9285   19.3723 C   0  0  0  0  0  0  0  0  0  0  0  0
    7.4990  -18.2778   18.0020 C   0  0  0  0  0  0  0  0  0  0  0  0
    7.8747  -17.5768   16.8766 C   0  0  0  0  0  0  0  0  0  0  0  0
    7.3190  -18.1556   15.7895 N   0  0  0  0  0  0  0  0  0  0  0  0
    6.5940  -19.2174   16.2140 C   0  0  0  0  0  0  0  0  0  0  0  0
    6.7140  -19.2767   17.5567 N   0  0  0  0  0  0  0  0  0  0  0  0
    8.8960  -16.1526   20.7815 C   0  0  0  0  0  0  0  0  0  0  0  0
    9.8062  -16.6459   21.4627 O   0  0  0  0  0  0  0  0  0  0  0  0
    7.3900  -12.1342   28.5201 O   0  0  0  0  0  0  0  0  0  0  0  0
    7.3179  -12.5014   27.1794 C   0  0  0  0  0  0  0  0  0  0  0  0
    8.3633  -12.2367   26.3174 C   0  0  0  0  0  0  0  0  0  0  0  0
    8.3119  -12.5945   24.9760 C   0  0  0  0  0  0  0  0  0  0  0  0
    7.1993  -13.2344   24.4564 C   0  0  0  0  0  0  0  0  0  0  0  0
    7.1541  -13.6127   23.0191 C   0  0  0  0  0  0  0  0  0  0  0  0
    8.1622  -14.7000   22.7046 C   0  0  2  0  0  0  0  0  0  0  0  0
    8.0565  -15.1504   21.3380 N   0  0  0  0  0  0  0  0  0  0  0  0
    8.1338  -15.7960   23.6771 C   0  0  0  0  0  0  0  0  0  0  0  0
    7.1888  -16.6276   23.6233 O   0  0  0  0  0  0  0  0  0  0  0  0
    6.1614  -13.4945   25.3230 C   0  0  0  0  0  0  0  0  0  0  0  0
    6.2122  -13.1389   26.6568 C   0  0  0  0  0  0  0  0  0  0  0  0
    9.1041  -15.9945   24.6893 N   0  0  0  0  0  0  0  0  0  0  0  0
    9.0981  -17.2194   25.4764 C   0  0  1  0  0  0  0  0  0  0  0  0
    9.8475  -18.3087   24.7681 C   0  0  0  0  0  0  0  0  0  0  0  0
    9.8202  -19.5466   25.5643 C   0  0  0  0  0  0  0  0  0  0  0  0
    9.1482  -19.6730   26.7674 C   0  0  0  0  0  0  0  0  0  0  0  0
    9.3489  -20.9496   27.2052 N   0  0  0  0  0  0  0  0  0  0  0  0
   10.1091  -21.5962   26.3232 C   0  0  0  0  0  0  0  0  0  0  0  0
   10.3794  -20.7246   25.3414 N   0  0  0  0  0  0  0  0  0  0  0  0
    9.7527  -16.9387   26.7719 C   0  0  0  0  0  0  0  0  0  0  0  0
   10.5740  -15.9659   26.8319 O   0  0  0  0  0  0  0  0  0  0  0  0
    9.5389  -17.6578   27.9377 O   0  0  0  0  0  0  0  0  0  0  0  0
  2  1  1  1
  2  3  1  0
  3  4  1  0
  4  5  2  0
  4  8  1  0
  5  6  1  0
  6  7  1  0
  8  7  2  0
  9 18  1  0
  9  2  1  0
 10  9  2  0
 11 12  1  0
 12 22  2  0
 13 14  2  0
 13 12  1  0
 14 15  1  0
 15 16  1  0
 15 21  2  0
 17 16  1  1
 17 18  1  0
 19 17  1  0
 20 19  2  0
 22 21  1  0
 23 19  1  0
 24 31  1  0
 24 23  1  0
 24 25  1  6
 26 27  2  0
 26 25  1  0
 28 27  1  0
 29 30  2  0
 29 28  1  0
 30 26  1  0
 31 33  1  0
 32 31  2  0
M  END
$$$$
