HYH.pdb
     RDKit          3D

 33 35  0  0  1  0  0  0  0  0999 V2000
   10.8020  -16.3566   18.7949 N   0  0  0  0  0  0  0  0  0  0  0  0
    9.5679  -16.6366   19.4721 C   0  0  1  0  0  0  0  0  0  0  0  0
    9.2437  -18.1204   19.4757 C   0  0  0  0  0  0  0  0  0  0  0  0
    9.0307  -18.6209   18.1039 C   0  0  0  0  0  0  0  0  0  0  0  0
    7.8599  -18.4568   17.3957 C   0  0  0  0  0  0  0  0  0  0  0  0
    7.9951  -19.0299   16.1796 N   0  0  0  0  0  0  0  0  0  0  0  0
    9.2405  -19.5562   16.1089 C   0  0  0  0  0  0  0  0  0  0  0  0
    9.8541  -19.2994   17.2829 N   0  0  0  0  0  0  0  0  0  0  0  0
    9.5910  -16.1065   20.8593 C   0  0  0  0  0  0  0  0  0  0  0  0
   10.6063  -16.2827   21.5478 O   0  0  0  0  0  0  0  0  0  0  0  0
    7.1395  -11.9791   28.3044 O   0  0  0  0  0  0  0  0  0  0  0  0
    7.1555  -12.4827   27.0070 C   0  0  0  0  0  0  0  0  0  0  0  0
    7.8290  -11.8199   26.0004 C   0  0  0  0  0  0  0  0  0  0  0  0
    7.8576  -12.3050   24.6989 C   0  0  0  0  0  0  0  0  0  0  0  0
    7.2050  -13.4803   24.3672 C   0  0  0  0  0  0  0  0  0  0  0  0
    7.2414  -13.9907   22.9710 C   0  0  0  0  0  0  0  0  0  0  0  0
    8.4685  -14.8471   22.7302 C   0  0  2  0  0  0  0  0  0  0  0  0
    8.4783  -15.4087   21.4013 N   0  0  0  0  0  0  0  0  0  0  0  0
    8.6749  -15.8476   23.7810 C   0  0  0  0  0  0  0  0  0  0  0  0
    7.8426  -16.7868   23.8933 O   0  0  0  0  0  0  0  0  0  0  0  0
    6.5359  -14.1348   25.3771 C   0  0  0  0  0  0  0  0  0  0  0  0
    6.5072  -13.6528   26.6712 C   0  0  0  0  0  0  0  0  0  0  0  0
    9.7568  -15.8386   24.6947 N   0  0  0  0  0  0  0  0  0  0  0  0
    9.8916  -16.9046   25.6773 C   0  0  1  0  0  0  0  0  0  0  0  0
   11.3018  -17.4141   25.7170 C   0  0  0  0  0  0  0  0  0  0  0  0
   11.5412  -18.3384   24.5966 C   0  0  0  0  0  0  0  0  0  0  0  0
   10.5703  -18.7064   23.6817 C   0  0  0  0  0  0  0  0  0  0  0  0
   11.1573  -19.5662   22.7998 N   0  0  0  0  0  0  0  0  0  0  0  0
   12.4340  -19.7325   23.1408 C   0  0  0  0  0  0  0  0  0  0  0  0
   12.6391  -18.9790   24.2301 N   0  0  0  0  0  0  0  0  0  0  0  0
    9.5320  -16.3583   27.0031 C   0  0  0  0  0  0  0  0  0  0  0  0
    9.2107  -15.1272   27.0789 O   0  0  0  0  0  0  0  0  0  0  0  0
    9.5158  -17.0891   28.1812 O   0  0  0  0  0  0  0  0  0  0  0  0
  2  1  1  1
  2  3  1  0
  3  4  1  0
  4  5  2  0
  4  8  1  0
  5  6  1  0
  6  7  1  0
  8  7  2  0
  9 18  1  0
  9  2  1  0
 10  9  2  0
 11 12  1  0
 12 22  2  0
 13 14  2  0
 13 12  1  0
 14 15  1  0
 15 16  1  0
 15 21  2  0
 17 16  1  1
 17 18  1  0
 19 17  1  0
 20 19  2  0
 22 21  1  0
 23 19  1  0
 24 31  1  0
 24 23  1  0
 24 25  1  1
 26 27  2  0
 26 25  1  0
 28 27  1  0
 29 30  2  0
 29 28  1  0
 30 26  1  0
 31 33  1  0
 32 31  2  0
M  END
$$$$
