AIL.pdb
     RDKit          3D

 22 21  0  0  1  0  0  0  0  0999 V2000
    5.9433  -18.8541   23.4593 C   0  0  0  0  0  0  0  0  0  0  0  0
    6.1751  -18.5550   22.0086 C   0  0  2  0  0  0  0  0  0  0  0  0
    6.4101  -19.7375   21.2143 N   0  0  0  0  0  0  0  0  0  0  0  0
    7.3100  -17.5900   21.9165 C   0  0  0  0  0  0  0  0  0  0  0  0
    8.4421  -18.0828   21.6678 O   0  0  0  0  0  0  0  0  0  0  0  0
    6.8088  -12.7006   19.6118 C   0  0  0  0  0  0  0  0  0  0  0  0
    7.3662  -14.0674   19.9758 C   0  0  0  0  0  0  0  0  0  0  0  0
    7.8745  -13.9721   21.3910 C   0  0  2  0  0  0  0  0  0  0  0  0
    8.9783  -12.9724   21.4829 C   0  0  0  0  0  0  0  0  0  0  0  0
    8.2533  -15.3218   21.9581 C   0  0  2  0  0  0  0  0  0  0  0  0
    7.1240  -16.1950   22.0989 N   0  0  0  0  0  0  0  0  0  0  0  0
    8.8477  -15.1163   23.3089 C   0  0  0  0  0  0  0  0  0  0  0  0
   10.0587  -14.8150   23.4525 O   0  0  0  0  0  0  0  0  0  0  0  0
    5.4539  -12.7805   26.5720 C   0  0  0  0  0  0  0  0  0  0  0  0
    6.7884  -13.1269   25.8985 C   0  0  1  0  0  0  0  0  0  0  0  0
    7.7150  -11.9685   26.1957 C   0  0  0  0  0  0  0  0  0  0  0  0
    7.2607  -14.3939   26.5446 C   0  0  0  0  0  0  0  0  0  0  0  0
    8.4599  -14.9562   25.8069 C   0  0  2  0  0  0  0  0  0  0  0  0
    8.0425  -15.2610   24.4468 N   0  0  0  0  0  0  0  0  0  0  0  0
    9.0186  -16.1378   26.4859 C   0  0  0  0  0  0  0  0  0  0  0  0
    8.9005  -17.2746   25.9863 O   0  0  0  0  0  0  0  0  0  0  0  0
    9.6798  -15.9939   27.6857 O   0  0  0  0  0  0  0  0  0  0  0  0
  2  1  1  1
  2  3  1  0
  4  2  1  0
  4  5  2  0
  6  7  1  0
  7  8  1  0
  8 10  1  0
  8  9  1  6
 10 11  1  1
 10 12  1  0
 11  4  1  0
 12 19  1  0
 13 12  2  0
 15 14  1  1
 15 16  1  0
 17 15  1  0
 18 17  1  1
 19 18  1  0
 20 22  1  0
 20 18  1  0
 21 20  2  0
M  END
$$$$
