AIL.pdb
     RDKit          3D

 22 21  0  0  1  0  0  0  0  0999 V2000
    6.4101  -16.1999   21.1541 C   0  0  0  0  0  0  0  0  0  0  0  0
    6.7831  -14.7489   21.2107 C   0  0  2  0  0  0  0  0  0  0  0  0
    7.4338  -14.2814   20.0096 N   0  0  0  0  0  0  0  0  0  0  0  0
    7.6342  -14.5424   22.4192 C   0  0  0  0  0  0  0  0  0  0  0  0
    8.8798  -14.5580   22.2333 O   0  0  0  0  0  0  0  0  0  0  0  0
    5.8879  -11.5530   26.6804 C   0  0  0  0  0  0  0  0  0  0  0  0
    6.7531  -12.0658   25.5402 C   0  0  0  0  0  0  0  0  0  0  0  0
    7.2863  -13.4099   25.9634 C   0  0  2  0  0  0  0  0  0  0  0  0
    8.1695  -13.2686   27.1576 C   0  0  0  0  0  0  0  0  0  0  0  0
    7.9503  -14.1498   24.8238 C   0  0  2  0  0  0  0  0  0  0  0  0
    7.0715  -14.3397   23.7062 N   0  0  0  0  0  0  0  0  0  0  0  0
    8.3691  -15.4932   25.3138 C   0  0  0  0  0  0  0  0  0  0  0  0
    7.5258  -16.3474   25.6839 O   0  0  0  0  0  0  0  0  0  0  0  0
   12.7686  -17.4860   23.0489 C   0  0  0  0  0  0  0  0  0  0  0  0
   11.3729  -17.3435   23.6703 C   0  0  1  0  0  0  0  0  0  0  0  0
   10.5944  -18.5611   23.2229 C   0  0  0  0  0  0  0  0  0  0  0  0
   11.5804  -17.3332   25.1544 C   0  0  0  0  0  0  0  0  0  0  0  0
   10.2740  -17.0654   25.8757 C   0  0  2  0  0  0  0  0  0  0  0  0
    9.7321  -15.8154   25.3647 N   0  0  0  0  0  0  0  0  0  0  0  0
   10.4506  -17.0286   27.3375 C   0  0  0  0  0  0  0  0  0  0  0  0
   10.6826  -18.0738   27.9774 O   0  0  0  0  0  0  0  0  0  0  0  0
   10.3599  -15.8310   28.0120 O   0  0  0  0  0  0  0  0  0  0  0  0
  2  1  1  6
  2  3  1  0
  4  2  1  0
  4  5  2  0
  6  7  1  0
  7  8  1  0
  8 10  1  0
  8  9  1  1
 10 11  1  6
 10 12  1  0
 11  4  1  0
 12 19  1  0
 13 12  2  0
 15 14  1  6
 15 16  1  0
 17 15  1  0
 18 17  1  6
 19 18  1  0
 20 22  1  0
 20 18  1  0
 21 20  2  0
M  END
$$$$
