AIL.pdb
     RDKit          3D

 22 21  0  0  1  0  0  0  0  0999 V2000
    6.9276  -19.1306   25.6759 C   0  0  0  0  0  0  0  0  0  0  0  0
    6.0477  -18.3402   24.7547 C   0  0  2  0  0  0  0  0  0  0  0  0
    5.6281  -19.0844   23.5909 N   0  0  0  0  0  0  0  0  0  0  0  0
    6.7786  -17.0933   24.3824 C   0  0  0  0  0  0  0  0  0  0  0  0
    7.4114  -17.1219   23.2938 O   0  0  0  0  0  0  0  0  0  0  0  0
    5.3783  -12.3074   26.7884 C   0  0  0  0  0  0  0  0  0  0  0  0
    5.6277  -13.2452   25.6180 C   0  0  0  0  0  0  0  0  0  0  0  0
    7.1042  -13.5452   25.6021 C   0  0  2  0  0  0  0  0  0  0  0  0
    7.8789  -12.3326   25.2077 C   0  0  0  0  0  0  0  0  0  0  0  0
    7.4358  -14.7561   24.7591 C   0  0  2  0  0  0  0  0  0  0  0  0
    6.7618  -15.9397   25.2089 N   0  0  0  0  0  0  0  0  0  0  0  0
    8.9030  -15.0018   24.8426 C   0  0  0  0  0  0  0  0  0  0  0  0
    9.7188  -14.3338   24.1598 O   0  0  0  0  0  0  0  0  0  0  0  0
   11.6927  -13.7735   28.5448 C   0  0  0  0  0  0  0  0  0  0  0  0
   11.1492  -15.1664   28.8892 C   0  0  1  0  0  0  0  0  0  0  0  0
   10.6738  -15.0824   30.3230 C   0  0  0  0  0  0  0  0  0  0  0  0
   10.0137  -15.4126   27.9427 C   0  0  0  0  0  0  0  0  0  0  0  0
   10.5323  -15.8499   26.5868 C   0  0  2  0  0  0  0  0  0  0  0  0
    9.3884  -15.9985   25.7000 N   0  0  0  0  0  0  0  0  0  0  0  0
   11.3222  -17.0900   26.6742 C   0  0  0  0  0  0  0  0  0  0  0  0
   10.7584  -18.1999   26.7536 O   0  0  0  0  0  0  0  0  0  0  0  0
   12.6984  -17.0316   26.6686 O   0  0  0  0  0  0  0  0  0  0  0  0
  2  1  1  1
  2  3  1  0
  4  2  1  0
  4  5  2  0
  6  7  1  0
  7  8  1  0
  8 10  1  0
  8  9  1  6
 10 11  1  1
 10 12  1  0
 11  4  1  0
 12 19  1  0
 13 12  2  0
 15 14  1  6
 15 16  1  0
 17 15  1  0
 18 17  1  1
 19 18  1  0
 20 22  1  0
 20 18  1  0
 21 20  2  0
M  END
$$$$
