AIL.pdb
     RDKit          3D

 22 21  0  0  1  0  0  0  0  0999 V2000
    5.9158  -18.6153   23.8826 C   0  0  0  0  0  0  0  0  0  0  0  0
    6.0993  -18.4237   22.4070 C   0  0  2  0  0  0  0  0  0  0  0  0
    6.3109  -19.6614   21.6945 N   0  0  0  0  0  0  0  0  0  0  0  0
    7.2283  -17.4682   22.2070 C   0  0  0  0  0  0  0  0  0  0  0  0
    8.3588  -17.9787   21.9883 O   0  0  0  0  0  0  0  0  0  0  0  0
    6.6362  -12.6939   19.6085 C   0  0  0  0  0  0  0  0  0  0  0  0
    7.2454  -14.0297   20.0034 C   0  0  0  0  0  0  0  0  0  0  0  0
    7.7589  -13.8793   21.4119 C   0  0  2  0  0  0  0  0  0  0  0  0
    8.8470  -12.8598   21.4646 C   0  0  0  0  0  0  0  0  0  0  0  0
    8.1621  -15.2033   22.0213 C   0  0  2  0  0  0  0  0  0  0  0  0
    7.0388  -16.0627   22.2603 N   0  0  0  0  0  0  0  0  0  0  0  0
    8.8256  -14.9384   23.3289 C   0  0  0  0  0  0  0  0  0  0  0  0
   10.0373  -14.6137   23.3944 O   0  0  0  0  0  0  0  0  0  0  0  0
    5.8131  -12.3280   26.7222 C   0  0  0  0  0  0  0  0  0  0  0  0
    7.0390  -12.8236   25.9438 C   0  0  1  0  0  0  0  0  0  0  0  0
    8.0769  -11.7297   26.0659 C   0  0  0  0  0  0  0  0  0  0  0  0
    7.4795  -14.0836   26.6251 C   0  0  0  0  0  0  0  0  0  0  0  0
    8.5934  -14.7530   25.8444 C   0  0  2  0  0  0  0  0  0  0  0  0
    8.0862  -15.0525   24.5139 N   0  0  0  0  0  0  0  0  0  0  0  0
    9.0928  -15.9603   26.5245 C   0  0  0  0  0  0  0  0  0  0  0  0
    9.6633  -15.8781   27.6307 O   0  0  0  0  0  0  0  0  0  0  0  0
    8.9319  -17.1967   25.9390 O   0  0  0  0  0  0  0  0  0  0  0  0
  2  1  1  1
  2  3  1  0
  4  2  1  0
  4  5  2  0
  6  7  1  0
  7  8  1  0
  8 10  1  0
  8  9  1  6
 10 11  1  1
 10 12  1  0
 11  4  1  0
 12 19  1  0
 13 12  2  0
 15 14  1  1
 15 16  1  0
 17 15  1  0
 18 17  1  1
 19 18  1  0
 20 22  1  0
 20 18  1  0
 21 20  2  0
M  END
$$$$
