AIL.pdb
     RDKit          3D

 22 21  0  0  1  0  0  0  0  0999 V2000
   10.3959  -19.3497   18.8003 C   0  0  0  0  0  0  0  0  0  0  0  0
   10.4085  -17.9831   18.1839 C   0  0  2  0  0  0  0  0  0  0  0  0
   11.4820  -17.7959   17.2369 N   0  0  0  0  0  0  0  0  0  0  0  0
   10.4638  -16.9831   19.2905 C   0  0  0  0  0  0  0  0  0  0  0  0
   11.6129  -16.6233   19.6600 O   0  0  0  0  0  0  0  0  0  0  0  0
    6.6202  -13.1038   20.0557 C   0  0  0  0  0  0  0  0  0  0  0  0
    7.9513  -13.8116   19.8586 C   0  0  0  0  0  0  0  0  0  0  0  0
    8.2020  -14.6296   21.0989 C   0  0  2  0  0  0  0  0  0  0  0  0
    8.2579  -13.7492   22.3022 C   0  0  0  0  0  0  0  0  0  0  0  0
    9.4161  -15.5209   20.9640 C   0  0  2  0  0  0  0  0  0  0  0  0
    9.2874  -16.4663   19.8930 N   0  0  0  0  0  0  0  0  0  0  0  0
    9.5852  -16.2832   22.2331 C   0  0  0  0  0  0  0  0  0  0  0  0
    8.7540  -17.1554   22.5888 O   0  0  0  0  0  0  0  0  0  0  0  0
   14.7354  -16.6844   23.6203 C   0  0  0  0  0  0  0  0  0  0  0  0
   13.2739  -17.0566   23.3376 C   0  0  1  0  0  0  0  0  0  0  0  0
   13.2504  -18.5626   23.1953 C   0  0  0  0  0  0  0  0  0  0  0  0
   12.4929  -16.6009   24.5326 C   0  0  0  0  0  0  0  0  0  0  0  0
   11.0038  -16.7361   24.2822 C   0  0  2  0  0  0  0  0  0  0  0  0
   10.6936  -16.0253   23.0510 N   0  0  0  0  0  0  0  0  0  0  0  0
   10.2079  -16.2382   25.4172 C   0  0  0  0  0  0  0  0  0  0  0  0
    9.6221  -15.1390   25.3507 O   0  0  0  0  0  0  0  0  0  0  0  0
   10.1048  -16.9889   26.5675 O   0  0  0  0  0  0  0  0  0  0  0  0
  2  1  1  1
  2  3  1  0
  4  2  1  0
  4  5  2  0
  6  7  1  0
  7  8  1  0
  8 10  1  0
  8  9  1  1
 10 11  1  6
 10 12  1  0
 11  4  1  0
 12 19  1  0
 13 12  2  0
 15 14  1  1
 15 16  1  0
 17 15  1  0
 18 17  1  1
 19 18  1  0
 20 22  1  0
 20 18  1  0
 21 20  2  0
M  END
$$$$
