AIL.pdb
     RDKit          3D

 22 21  0  0  1  0  0  0  0  0999 V2000
    6.0779  -18.6211   23.5665 C   0  0  0  0  0  0  0  0  0  0  0  0
    6.2020  -18.2779   22.1124 C   0  0  2  0  0  0  0  0  0  0  0  0
    6.4773  -19.4241   21.2787 N   0  0  0  0  0  0  0  0  0  0  0  0
    7.2549  -17.2286   21.9786 C   0  0  0  0  0  0  0  0  0  0  0  0
    8.4281  -17.6388   21.7740 O   0  0  0  0  0  0  0  0  0  0  0  0
    6.9377  -12.7414   19.1052 C   0  0  0  0  0  0  0  0  0  0  0  0
    7.4455  -14.0093   19.7729 C   0  0  0  0  0  0  0  0  0  0  0  0
    7.6961  -13.6737   21.2203 C   0  0  2  0  0  0  0  0  0  0  0  0
    8.7246  -12.5990   21.3363 C   0  0  0  0  0  0  0  0  0  0  0  0
    8.0269  -14.8972   22.0453 C   0  0  2  0  0  0  0  0  0  0  0  0
    6.9514  -15.8458   22.0765 N   0  0  0  0  0  0  0  0  0  0  0  0
    8.2990  -14.4633   23.4445 C   0  0  0  0  0  0  0  0  0  0  0  0
    8.3671  -13.2472   23.7515 O   0  0  0  0  0  0  0  0  0  0  0  0
    5.9373  -12.5024   26.3653 C   0  0  0  0  0  0  0  0  0  0  0  0
    7.3148  -13.0338   25.9479 C   0  0  1  0  0  0  0  0  0  0  0  0
    8.3245  -12.2383   26.7458 C   0  0  0  0  0  0  0  0  0  0  0  0
    7.3298  -14.4841   26.3247 C   0  0  0  0  0  0  0  0  0  0  0  0
    8.6148  -15.1437   25.8639 C   0  0  2  0  0  0  0  0  0  0  0  0
    8.4835  -15.4291   24.4432 N   0  0  0  0  0  0  0  0  0  0  0  0
    8.9187  -16.3578   26.6405 C   0  0  0  0  0  0  0  0  0  0  0  0
    8.5013  -17.4728   26.2685 O   0  0  0  0  0  0  0  0  0  0  0  0
    9.6713  -16.2689   27.7907 O   0  0  0  0  0  0  0  0  0  0  0  0
  2  1  1  1
  2  3  1  0
  4  2  1  0
  4  5  2  0
  6  7  1  0
  7  8  1  0
  8 10  1  0
  8  9  1  6
 10 11  1  1
 10 12  1  0
 11  4  1  0
 12 19  1  0
 13 12  2  0
 15 14  1  1
 15 16  1  0
 17 15  1  0
 18 17  1  1
 19 18  1  0
 20 22  1  0
 20 18  1  0
 21 20  2  0
M  END
$$$$
