HQV.pdb
     RDKit          3D

 27 27  0  0  1  0  0  0  0  0999 V2000
   14.8036  -10.6723  -14.5205 N   0  0  0  0  0  0  0  0  0  0  0  0
   16.0274  -10.6331  -13.7598 C   0  0  1  0  0  0  0  0  0  0  0  0
   17.1856  -11.0694  -14.6429 C   0  0  0  0  0  0  0  0  0  0  0  0
   17.0705  -12.5198  -14.9250 C   0  0  0  0  0  0  0  0  0  0  0  0
   16.8560  -13.0735  -16.1572 C   0  0  0  0  0  0  0  0  0  0  0  0
   16.8140  -14.3999  -15.9977 N   0  0  0  0  0  0  0  0  0  0  0  0
   16.9962  -14.6957  -14.6986 C   0  0  0  0  0  0  0  0  0  0  0  0
   17.1571  -13.5366  -14.0193 N   0  0  0  0  0  0  0  0  0  0  0  0
   16.3240   -9.2426  -13.3285 C   0  0  0  0  0  0  0  0  0  0  0  0
   15.9289   -8.3004  -14.0680 O   0  0  0  0  0  0  0  0  0  0  0  0
   15.1423   -6.7109   -8.1270 N   0  0  0  0  0  0  0  0  0  0  0  0
   15.9294   -5.6750   -8.6953 C   0  0  0  0  0  0  0  0  0  0  0  0
   16.0042   -4.5854   -8.0809 O   0  0  0  0  0  0  0  0  0  0  0  0
   16.6494   -5.8515   -9.9730 C   0  0  0  0  0  0  0  0  0  0  0  0
   16.4458   -7.2408  -10.4738 C   0  0  0  0  0  0  0  0  0  0  0  0
   17.1789   -7.5408  -11.7424 C   0  0  2  0  0  0  0  0  0  0  0  0
   17.0206   -8.9279  -12.1410 N   0  0  0  0  0  0  0  0  0  0  0  0
   18.6359   -7.2403  -11.6381 C   0  0  0  0  0  0  0  0  0  0  0  0
   19.3382   -7.7158  -10.7098 O   0  0  0  0  0  0  0  0  0  0  0  0
   20.8180   -6.3251  -14.9663 C   0  0  0  0  0  0  0  0  0  0  0  0
   21.3932   -6.8908  -13.6838 C   0  0  2  0  0  0  0  0  0  0  0  0
   21.1741   -8.3792  -13.6328 C   0  0  0  0  0  0  0  0  0  0  0  0
   20.7111   -6.2190  -12.5130 C   0  0  2  0  0  0  0  0  0  0  0  0
   19.2755   -6.4026  -12.5912 N   0  0  0  0  0  0  0  0  0  0  0  0
   20.9927   -4.7533  -12.5234 C   0  0  0  0  0  0  0  0  0  0  0  0
   22.2538   -4.3274  -12.1600 O   0  0  0  0  0  0  0  0  0  0  0  0
   20.1289   -3.9022  -12.8487 O   0  0  0  0  0  0  0  0  0  0  0  0
  2  1  1  6
  3  2  1  0
  4  3  1  0
  5  4  2  0
  6  5  1  0
  7  6  1  0
  7  8  2  0
  8  4  1  0
  9  2  1  0
 10  9  2  0
 11 12  1  0
 12 14  1  0
 13 12  2  0
 14 15  1  0
 16 15  1  1
 16 17  1  0
 17  9  1  0
 18 16  1  0
 18 19  2  0
 21 20  1  6
 21 23  1  0
 22 21  1  0
 23 24  1  6
 24 18  1  0
 25 23  1  0
 26 25  1  0
 27 25  2  0
M  END
$$$$
