HQV.pdb
     RDKit          3D

 27 27  0  0  1  0  0  0  0  0999 V2000
   23.0247  -25.7750  -16.7481 N   0  0  0  0  0  0  0  0  0  0  0  0
   21.9734  -26.3710  -15.9624 C   0  0  1  0  0  0  0  0  0  0  0  0
   22.5600  -27.4564  -15.0738 C   0  0  0  0  0  0  0  0  0  0  0  0
   22.9256  -28.6284  -15.9040 C   0  0  0  0  0  0  0  0  0  0  0  0
   22.6050  -28.7970  -17.2230 C   0  0  0  0  0  0  0  0  0  0  0  0
   23.1101  -29.9723  -17.6102 N   0  0  0  0  0  0  0  0  0  0  0  0
   23.7398  -30.5478  -16.5707 C   0  0  0  0  0  0  0  0  0  0  0  0
   23.6334  -29.7237  -15.5028 N   0  0  0  0  0  0  0  0  0  0  0  0
   21.3697  -25.3612  -15.0552 C   0  0  0  0  0  0  0  0  0  0  0  0
   22.1297  -24.4825  -14.5641 O   0  0  0  0  0  0  0  0  0  0  0  0
   19.1196  -21.0353  -12.9012 N   0  0  0  0  0  0  0  0  0  0  0  0
   20.1404  -21.0528  -13.8876 C   0  0  0  0  0  0  0  0  0  0  0  0
   21.0069  -20.1480  -13.8569 O   0  0  0  0  0  0  0  0  0  0  0  0
   20.2017  -22.0966  -14.9311 C   0  0  0  0  0  0  0  0  0  0  0  0
   19.0923  -23.0717  -14.7284 C   0  0  0  0  0  0  0  0  0  0  0  0
   19.4729  -24.2588  -13.9022 C   0  0  2  0  0  0  0  0  0  0  0  0
   19.9981  -25.3378  -14.7193 N   0  0  0  0  0  0  0  0  0  0  0  0
   18.3275  -24.7826  -13.1035 C   0  0  0  0  0  0  0  0  0  0  0  0
   17.3713  -25.3898  -13.6495 O   0  0  0  0  0  0  0  0  0  0  0  0
   18.0896  -24.2861   -8.8487 C   0  0  0  0  0  0  0  0  0  0  0  0
   17.6109  -25.5408   -9.5503 C   0  0  2  0  0  0  0  0  0  0  0  0
   18.7182  -26.5593   -9.5982 C   0  0  0  0  0  0  0  0  0  0  0  0
   17.1748  -25.1726  -10.9508 C   0  0  2  0  0  0  0  0  0  0  0  0
   18.2844  -24.6090  -11.6938 N   0  0  0  0  0  0  0  0  0  0  0  0
   16.0850  -24.1540  -10.9009 C   0  0  0  0  0  0  0  0  0  0  0  0
   16.4091  -22.8370  -11.1547 O   0  0  0  0  0  0  0  0  0  0  0  0
   14.8939  -24.4520  -10.6382 O   0  0  0  0  0  0  0  0  0  0  0  0
  2  1  1  1
  3  2  1  0
  4  3  1  0
  5  4  2  0
  6  5  1  0
  7  6  1  0
  7  8  2  0
  8  4  1  0
  9  2  1  0
 10  9  2  0
 11 12  1  0
 12 14  1  0
 13 12  2  0
 14 15  1  0
 16 15  1  6
 16 17  1  0
 17  9  1  0
 18 16  1  0
 18 19  2  0
 21 20  1  6
 21 23  1  0
 22 21  1  0
 23 24  1  6
 24 18  1  0
 25 23  1  0
 26 25  1  0
 27 25  2  0
M  END
$$$$
