HQV.pdb
     RDKit          3D

 27 27  0  0  1  0  0  0  0  0999 V2000
   17.0743  -12.7605  -16.1743 N   0  0  0  0  0  0  0  0  0  0  0  0
   16.8657  -11.3366  -16.2567 C   0  0  1  0  0  0  0  0  0  0  0  0
   16.2062  -10.8475  -14.9770 C   0  0  0  0  0  0  0  0  0  0  0  0
   14.7858  -11.2702  -14.9624 C   0  0  0  0  0  0  0  0  0  0  0  0
   14.1644  -11.9965  -15.9408 C   0  0  0  0  0  0  0  0  0  0  0  0
   12.8948  -12.1732  -15.5621 N   0  0  0  0  0  0  0  0  0  0  0  0
   12.7006  -11.5779  -14.3720 C   0  0  0  0  0  0  0  0  0  0  0  0
   13.8677  -11.0121  -13.9866 N   0  0  0  0  0  0  0  0  0  0  0  0
   18.1676  -10.6282  -16.3598 C   0  0  0  0  0  0  0  0  0  0  0  0
   19.1759  -11.1704  -15.8305 O   0  0  0  0  0  0  0  0  0  0  0  0
   20.1531   -6.4825  -20.5929 N   0  0  0  0  0  0  0  0  0  0  0  0
   21.2526   -6.5747  -19.6995 C   0  0  0  0  0  0  0  0  0  0  0  0
   22.3169   -5.9912  -20.0108 O   0  0  0  0  0  0  0  0  0  0  0  0
   21.1697   -7.3307  -18.4331 C   0  0  0  0  0  0  0  0  0  0  0  0
   19.8388   -7.9951  -18.3337 C   0  0  0  0  0  0  0  0  0  0  0  0
   19.6382   -8.7623  -17.0657 C   0  0  2  0  0  0  0  0  0  0  0  0
   18.3291   -9.3881  -17.0161 N   0  0  0  0  0  0  0  0  0  0  0  0
   19.8013   -7.9066  -15.8552 C   0  0  0  0  0  0  0  0  0  0  0  0
   18.8217   -7.3149  -15.3342 O   0  0  0  0  0  0  0  0  0  0  0  0
   21.3067   -9.1395  -12.7784 C   0  0  0  0  0  0  0  0  0  0  0  0
   21.9793   -7.7992  -12.9949 C   0  0  2  0  0  0  0  0  0  0  0  0
   22.0675   -7.0501  -11.6923 C   0  0  0  0  0  0  0  0  0  0  0  0
   21.1696   -7.0112  -14.0003 C   0  0  2  0  0  0  0  0  0  0  0  0
   21.0767   -7.7348  -15.2527 N   0  0  0  0  0  0  0  0  0  0  0  0
   21.8221   -5.6965  -14.2714 C   0  0  0  0  0  0  0  0  0  0  0  0
   21.5022   -4.6282  -13.4588 O   0  0  0  0  0  0  0  0  0  0  0  0
   22.6449   -5.5309  -15.2053 O   0  0  0  0  0  0  0  0  0  0  0  0
  2  1  1  1
  3  2  1  0
  4  3  1  0
  5  4  2  0
  6  5  1  0
  7  6  1  0
  7  8  2  0
  8  4  1  0
  9  2  1  0
 10  9  2  0
 11 12  1  0
 12 14  1  0
 13 12  2  0
 14 15  1  0
 16 15  1  6
 16 17  1  0
 17  9  1  0
 18 16  1  0
 18 19  2  0
 21 20  1  1
 21 23  1  0
 22 21  1  0
 23 24  1  6
 24 18  1  0
 25 23  1  0
 26 25  1  0
 27 25  2  0
M  END
$$$$
