HQV.pdb
     RDKit          3D

 27 27  0  0  1  0  0  0  0  0999 V2000
   28.1599  -21.6453  -16.6514 N   0  0  0  0  0  0  0  0  0  0  0  0
   27.6647  -20.5244  -15.8923 C   0  0  1  0  0  0  0  0  0  0  0  0
   27.0960  -19.4824  -16.8424 C   0  0  0  0  0  0  0  0  0  0  0  0
   28.2079  -18.7820  -17.5277 C   0  0  0  0  0  0  0  0  0  0  0  0
   28.8835  -17.6978  -17.0388 C   0  0  0  0  0  0  0  0  0  0  0  0
   29.8070  -17.3605  -17.9442 N   0  0  0  0  0  0  0  0  0  0  0  0
   29.7309  -18.2031  -18.9895 C   0  0  0  0  0  0  0  0  0  0  0  0
   28.7409  -19.0924  -18.7447 N   0  0  0  0  0  0  0  0  0  0  0  0
   26.5463  -20.9497  -15.0116 C   0  0  0  0  0  0  0  0  0  0  0  0
   25.7554  -21.8298  -15.4484 O   0  0  0  0  0  0  0  0  0  0  0  0
   25.9696  -20.2665   -8.7796 N   0  0  0  0  0  0  0  0  0  0  0  0
   24.8215  -21.0224   -9.1342 C   0  0  0  0  0  0  0  0  0  0  0  0
   24.0828  -21.4416   -8.2129 O   0  0  0  0  0  0  0  0  0  0  0  0
   24.4852  -21.3200  -10.5416 C   0  0  0  0  0  0  0  0  0  0  0  0
   25.5371  -20.7583  -11.4363 C   0  0  0  0  0  0  0  0  0  0  0  0
   25.2600  -20.9526  -12.8931 C   0  0  2  0  0  0  0  0  0  0  0  0
   26.3281  -20.4209  -13.7203 N   0  0  0  0  0  0  0  0  0  0  0  0
   23.9755  -20.3220  -13.3134 C   0  0  0  0  0  0  0  0  0  0  0  0
   23.8763  -19.0783  -13.4690 O   0  0  0  0  0  0  0  0  0  0  0  0
   21.0369  -22.4224  -15.3197 C   0  0  0  0  0  0  0  0  0  0  0  0
   21.1711  -20.9133  -15.3280 C   0  0  2  0  0  0  0  0  0  0  0  0
   22.1941  -20.4922  -16.3487 C   0  0  0  0  0  0  0  0  0  0  0  0
   21.5892  -20.4596  -13.9472 C   0  0  2  0  0  0  0  0  0  0  0  0
   22.8201  -21.1145  -13.5512 N   0  0  0  0  0  0  0  0  0  0  0  0
   20.5362  -20.8084  -12.9486 C   0  0  0  0  0  0  0  0  0  0  0  0
   19.3863  -20.0464  -12.9180 O   0  0  0  0  0  0  0  0  0  0  0  0
   20.6599  -21.7631  -12.1425 O   0  0  0  0  0  0  0  0  0  0  0  0
  2  1  1  6
  3  2  1  0
  4  3  1  0
  5  4  2  0
  6  5  1  0
  7  6  1  0
  7  8  2  0
  8  4  1  0
  9  2  1  0
 10  9  2  0
 11 12  1  0
 12 14  1  0
 13 12  2  0
 14 15  1  0
 16 15  1  1
 16 17  1  0
 17  9  1  0
 18 16  1  0
 18 19  2  0
 21 20  1  1
 21 23  1  0
 22 21  1  0
 23 24  1  1
 24 18  1  0
 25 23  1  0
 26 25  1  0
 27 25  2  0
M  END
$$$$
