HQV.pdb
     RDKit          3D

 27 27  0  0  1  0  0  0  0  0999 V2000
   19.9069  -13.0496  -17.6837 N   0  0  0  0  0  0  0  0  0  0  0  0
   19.9319  -11.7251  -18.2519 C   0  0  1  0  0  0  0  0  0  0  0  0
   18.6924  -11.5191  -19.1081 C   0  0  0  0  0  0  0  0  0  0  0  0
   18.7448  -12.4285  -20.2771 C   0  0  0  0  0  0  0  0  0  0  0  0
   19.8812  -12.8054  -20.9385 C   0  0  0  0  0  0  0  0  0  0  0  0
   19.5145  -13.6261  -21.9277 N   0  0  0  0  0  0  0  0  0  0  0  0
   18.1783  -13.7758  -21.9067 C   0  0  0  0  0  0  0  0  0  0  0  0
   17.6859  -13.0370  -20.8856 N   0  0  0  0  0  0  0  0  0  0  0  0
   19.8797  -10.7003  -17.1775 C   0  0  0  0  0  0  0  0  0  0  0  0
   19.4209  -11.0475  -16.0551 O   0  0  0  0  0  0  0  0  0  0  0  0
   19.2722   -9.1960  -13.2892 N   0  0  0  0  0  0  0  0  0  0  0  0
   20.3459   -8.3056  -13.0249 C   0  0  0  0  0  0  0  0  0  0  0  0
   20.3218   -7.6523  -11.9558 O   0  0  0  0  0  0  0  0  0  0  0  0
   21.4711   -8.1361  -13.9669 C   0  0  0  0  0  0  0  0  0  0  0  0
   21.2858   -9.0435  -15.1353 C   0  0  0  0  0  0  0  0  0  0  0  0
   20.4031   -8.4819  -16.2041 C   0  0  2  0  0  0  0  0  0  0  0  0
   20.3151   -9.3680  -17.3508 N   0  0  0  0  0  0  0  0  0  0  0  0
   20.8642   -7.1433  -16.6729 C   0  0  0  0  0  0  0  0  0  0  0  0
   22.0194   -6.9748  -17.1399 O   0  0  0  0  0  0  0  0  0  0  0  0
   19.0026   -5.2876  -19.2398 C   0  0  0  0  0  0  0  0  0  0  0  0
   19.2669   -4.2783  -18.1411 C   0  0  2  0  0  0  0  0  0  0  0  0
   19.6300   -2.9464  -18.7409 C   0  0  0  0  0  0  0  0  0  0  0  0
   20.3978   -4.7915  -17.2779 C   0  0  2  0  0  0  0  0  0  0  0  0
   20.0051   -6.0135  -16.6045 N   0  0  0  0  0  0  0  0  0  0  0  0
   20.7517   -3.7817  -16.2374 C   0  0  0  0  0  0  0  0  0  0  0  0
   21.7355   -2.8593  -16.5296 O   0  0  0  0  0  0  0  0  0  0  0  0
   20.1899   -3.7431  -15.1152 O   0  0  0  0  0  0  0  0  0  0  0  0
  2  1  1  1
  3  2  1  0
  4  3  1  0
  5  4  2  0
  6  5  1  0
  7  6  1  0
  7  8  2  0
  8  4  1  0
  9  2  1  0
 10  9  2  0
 11 12  1  0
 12 14  1  0
 13 12  2  0
 14 15  1  0
 16 15  1  1
 16 17  1  0
 17  9  1  0
 18 16  1  0
 18 19  2  0
 21 20  1  6
 21 23  1  0
 22 21  1  0
 23 24  1  1
 24 18  1  0
 25 23  1  0
 26 25  1  0
 27 25  2  0
M  END
$$$$
