HQV.pdb
     RDKit          3D

 27 27  0  0  1  0  0  0  0  0999 V2000
   21.1371  -30.1232  -15.4439 N   0  0  0  0  0  0  0  0  0  0  0  0
   21.7492  -29.3856  -16.5205 C   0  0  1  0  0  0  0  0  0  0  0  0
   21.0114  -28.0706  -16.7157 C   0  0  0  0  0  0  0  0  0  0  0  0
   19.6650  -28.3395  -17.2737 C   0  0  0  0  0  0  0  0  0  0  0  0
   18.5001  -28.3648  -16.5573 C   0  0  0  0  0  0  0  0  0  0  0  0
   17.5105  -28.6394  -17.4127 N   0  0  0  0  0  0  0  0  0  0  0  0
   18.0211  -28.7876  -18.6479 C   0  0  0  0  0  0  0  0  0  0  0  0
   19.3598  -28.6039  -18.5770 N   0  0  0  0  0  0  0  0  0  0  0  0
   23.1520  -29.0373  -16.1768 C   0  0  0  0  0  0  0  0  0  0  0  0
   23.4427  -28.9023  -14.9569 O   0  0  0  0  0  0  0  0  0  0  0  0
   30.0836  -29.9730  -17.6421 N   0  0  0  0  0  0  0  0  0  0  0  0
   28.7005  -30.2833  -17.5640 C   0  0  0  0  0  0  0  0  0  0  0  0
   28.2340  -31.1111  -18.3809 O   0  0  0  0  0  0  0  0  0  0  0  0
   27.8154  -29.6618  -16.5578 C   0  0  0  0  0  0  0  0  0  0  0  0
   26.3926  -29.8370  -16.9674 C   0  0  0  0  0  0  0  0  0  0  0  0
   25.5377  -28.6360  -16.7154 C   0  0  2  0  0  0  0  0  0  0  0  0
   24.1667  -28.8517  -17.1415 N   0  0  0  0  0  0  0  0  0  0  0  0
   26.0603  -27.4168  -17.3970 C   0  0  0  0  0  0  0  0  0  0  0  0
   25.8944  -27.2334  -18.6298 O   0  0  0  0  0  0  0  0  0  0  0  0
   25.3130  -23.9338  -16.3912 C   0  0  0  0  0  0  0  0  0  0  0  0
   26.8204  -23.9936  -16.5306 C   0  0  2  0  0  0  0  0  0  0  0  0
   27.3263  -22.7446  -17.2013 C   0  0  0  0  0  0  0  0  0  0  0  0
   27.1801  -25.2125  -17.3505 C   0  0  2  0  0  0  0  0  0  0  0  0
   26.7649  -26.4215  -16.6673 N   0  0  0  0  0  0  0  0  0  0  0  0
   28.6570  -25.2793  -17.5551 C   0  0  0  0  0  0  0  0  0  0  0  0
   29.1838  -24.7219  -18.7022 O   0  0  0  0  0  0  0  0  0  0  0  0
   29.4297  -25.8205  -16.7265 O   0  0  0  0  0  0  0  0  0  0  0  0
  2  1  1  1
  3  2  1  0
  4  3  1  0
  5  4  2  0
  6  5  1  0
  7  6  1  0
  7  8  2  0
  8  4  1  0
  9  2  1  0
 10  9  2  0
 11 12  1  0
 12 14  1  0
 13 12  2  0
 14 15  1  0
 16 15  1  6
 16 17  1  0
 17  9  1  0
 18 16  1  0
 18 19  2  0
 21 20  1  6
 21 23  1  0
 22 21  1  0
 23 24  1  1
 24 18  1  0
 25 23  1  0
 26 25  1  0
 27 25  2  0
M  END
$$$$
