HQV.pdb
     RDKit          3D

 27 27  0  0  1  0  0  0  0  0999 V2000
   19.8966  -13.2230  -19.5290 N   0  0  0  0  0  0  0  0  0  0  0  0
   20.8276  -12.6604  -18.5832 C   0  0  1  0  0  0  0  0  0  0  0  0
   22.1900  -12.5130  -19.2417 C   0  0  0  0  0  0  0  0  0  0  0  0
   22.7472  -13.8565  -19.5264 C   0  0  0  0  0  0  0  0  0  0  0  0
   23.4053  -14.6492  -18.6267 C   0  0  0  0  0  0  0  0  0  0  0  0
   23.7495  -15.7739  -19.2615 N   0  0  0  0  0  0  0  0  0  0  0  0
   23.3258  -15.7104  -20.5363 C   0  0  0  0  0  0  0  0  0  0  0  0
   22.7008  -14.5238  -20.7156 N   0  0  0  0  0  0  0  0  0  0  0  0
   20.3992  -11.2944  -18.1857 C   0  0  0  0  0  0  0  0  0  0  0  0
   20.0564  -10.4960  -19.1001 O   0  0  0  0  0  0  0  0  0  0  0  0
   16.0163  -10.2403  -14.5306 N   0  0  0  0  0  0  0  0  0  0  0  0
   16.3851   -8.9014  -14.8253 C   0  0  0  0  0  0  0  0  0  0  0  0
   15.5857   -7.9871  -14.5167 O   0  0  0  0  0  0  0  0  0  0  0  0
   17.6688   -8.5693  -15.4766 C   0  0  0  0  0  0  0  0  0  0  0  0
   18.3741   -9.8253  -15.8607 C   0  0  0  0  0  0  0  0  0  0  0  0
   19.6978   -9.5994  -16.5191 C   0  0  2  0  0  0  0  0  0  0  0  0
   20.3577  -10.8507  -16.8456 N   0  0  0  0  0  0  0  0  0  0  0  0
   20.6176   -8.7840  -15.6747 C   0  0  0  0  0  0  0  0  0  0  0  0
   21.3107   -9.3085  -14.7660 O   0  0  0  0  0  0  0  0  0  0  0  0
   22.6871   -5.4488  -16.8552 C   0  0  0  0  0  0  0  0  0  0  0  0
   21.8857   -5.2577  -15.5837 C   0  0  2  0  0  0  0  0  0  0  0  0
   22.6619   -4.4161  -14.6064 C   0  0  0  0  0  0  0  0  0  0  0  0
   21.5937   -6.6176  -14.9898 C   0  0  2  0  0  0  0  0  0  0  0  0
   20.7374   -7.3822  -15.8746 N   0  0  0  0  0  0  0  0  0  0  0  0
   20.8932   -6.4691  -13.6802 C   0  0  0  0  0  0  0  0  0  0  0  0
   19.5134   -6.4613  -13.6742 O   0  0  0  0  0  0  0  0  0  0  0  0
   21.5111   -6.3521  -12.5935 O   0  0  0  0  0  0  0  0  0  0  0  0
  2  1  1  6
  3  2  1  0
  4  3  1  0
  5  4  2  0
  6  5  1  0
  7  6  1  0
  7  8  2  0
  8  4  1  0
  9  2  1  0
 10  9  2  0
 11 12  1  0
 12 14  1  0
 13 12  2  0
 14 15  1  0
 16 15  1  1
 16 17  1  0
 17  9  1  0
 18 16  1  0
 18 19  2  0
 21 20  1  6
 21 23  1  0
 22 21  1  0
 23 24  1  6
 24 18  1  0
 25 23  1  0
 26 25  1  0
 27 25  2  0
M  END
$$$$
