HQV.pdb
     RDKit          3D

 27 27  0  0  1  0  0  0  0  0999 V2000
   21.7120  -19.5023  -17.5001 N   0  0  0  0  0  0  0  0  0  0  0  0
   22.5925  -18.5836  -16.8230 C   0  0  1  0  0  0  0  0  0  0  0  0
   21.8139  -17.8309  -15.7558 C   0  0  0  0  0  0  0  0  0  0  0  0
   20.9687  -16.7977  -16.3997 C   0  0  0  0  0  0  0  0  0  0  0  0
   19.6144  -16.8769  -16.5744 C   0  0  0  0  0  0  0  0  0  0  0  0
   19.2244  -15.7562  -17.1897 N   0  0  0  0  0  0  0  0  0  0  0  0
   20.2966  -14.9741  -17.4068 C   0  0  0  0  0  0  0  0  0  0  0  0
   21.3884  -15.6087  -16.9209 N   0  0  0  0  0  0  0  0  0  0  0  0
   23.6700  -19.3245  -16.1178 C   0  0  0  0  0  0  0  0  0  0  0  0
   23.3809  -20.4433  -15.6121 O   0  0  0  0  0  0  0  0  0  0  0  0
   27.5236  -21.8882  -17.0763 N   0  0  0  0  0  0  0  0  0  0  0  0
   28.4363  -21.5700  -16.0365 C   0  0  0  0  0  0  0  0  0  0  0  0
   29.2441  -22.4545  -15.6686 O   0  0  0  0  0  0  0  0  0  0  0  0
   28.4535  -20.2416  -15.3906 C   0  0  0  0  0  0  0  0  0  0  0  0
   27.3673  -19.3944  -15.9607 C   0  0  0  0  0  0  0  0  0  0  0  0
   26.0134  -19.6842  -15.3953 C   0  0  2  0  0  0  0  0  0  0  0  0
   24.9905  -18.8410  -15.9874 N   0  0  0  0  0  0  0  0  0  0  0  0
   25.9706  -19.5133  -13.9144 C   0  0  0  0  0  0  0  0  0  0  0  0
   25.9494  -18.3722  -13.3869 O   0  0  0  0  0  0  0  0  0  0  0  0
   23.4987  -20.8470  -11.5692 C   0  0  0  0  0  0  0  0  0  0  0  0
   24.8319  -21.2690  -10.9862 C   0  0  2  0  0  0  0  0  0  0  0  0
   24.8258  -21.0774   -9.4932 C   0  0  0  0  0  0  0  0  0  0  0  0
   25.9207  -20.4314  -11.6189 C   0  0  2  0  0  0  0  0  0  0  0  0
   25.9524  -20.6429  -13.0524 N   0  0  0  0  0  0  0  0  0  0  0  0
   27.2529  -20.8126  -11.0642 C   0  0  0  0  0  0  0  0  0  0  0  0
   27.6795  -20.1957   -9.9060 O   0  0  0  0  0  0  0  0  0  0  0  0
   27.9922  -21.6678  -11.6106 O   0  0  0  0  0  0  0  0  0  0  0  0
  2  1  1  1
  3  2  1  0
  4  3  1  0
  5  4  2  0
  6  5  1  0
  7  6  1  0
  7  8  2  0
  8  4  1  0
  9  2  1  0
 10  9  2  0
 11 12  1  0
 12 14  1  0
 13 12  2  0
 14 15  1  0
 16 15  1  6
 16 17  1  0
 17  9  1  0
 18 16  1  0
 18 19  2  0
 21 20  1  6
 21 23  1  0
 22 21  1  0
 23 24  1  6
 24 18  1  0
 25 23  1  0
 26 25  1  0
 27 25  2  0
M  END
$$$$
