HQV.pdb
     RDKit          3D

 27 27  0  0  1  0  0  0  0  0999 V2000
   14.4470  -11.2351  -13.5694 N   0  0  0  0  0  0  0  0  0  0  0  0
   15.8495  -10.9028  -13.5955 C   0  0  1  0  0  0  0  0  0  0  0  0
   16.4229  -11.2382  -14.9631 C   0  0  0  0  0  0  0  0  0  0  0  0
   16.4554  -12.7098  -15.1360 C   0  0  0  0  0  0  0  0  0  0  0  0
   17.5854  -13.4799  -15.1678 C   0  0  0  0  0  0  0  0  0  0  0  0
   17.2002  -14.7483  -15.3387 N   0  0  0  0  0  0  0  0  0  0  0  0
   15.8585  -14.7972  -15.4152 C   0  0  0  0  0  0  0  0  0  0  0  0
   15.3815  -13.5371  -15.2908 N   0  0  0  0  0  0  0  0  0  0  0  0
   16.0385   -9.4418  -13.4036 C   0  0  0  0  0  0  0  0  0  0  0  0
   15.0446   -8.6896  -13.5968 O   0  0  0  0  0  0  0  0  0  0  0  0
   16.1250   -6.5851   -8.8103 N   0  0  0  0  0  0  0  0  0  0  0  0
   16.0350   -5.5254   -9.7506 C   0  0  0  0  0  0  0  0  0  0  0  0
   15.8837   -4.3604   -9.3146 O   0  0  0  0  0  0  0  0  0  0  0  0
   16.1145   -5.7630  -11.2064 C   0  0  0  0  0  0  0  0  0  0  0  0
   16.3615   -7.2105  -11.4639 C   0  0  0  0  0  0  0  0  0  0  0  0
   17.3060   -7.4720  -12.5936 C   0  0  2  0  0  0  0  0  0  0  0  0
   17.2664   -8.8597  -13.0187 N   0  0  0  0  0  0  0  0  0  0  0  0
   18.7136   -7.1221  -12.2463 C   0  0  0  0  0  0  0  0  0  0  0  0
   19.3119   -7.6825  -11.2929 O   0  0  0  0  0  0  0  0  0  0  0  0
   20.8413   -7.9914  -14.7305 C   0  0  0  0  0  0  0  0  0  0  0  0
   21.3300   -6.5893  -14.4290 C   0  0  2  0  0  0  0  0  0  0  0  0
   22.8319   -6.5371  -14.5147 C   0  0  0  0  0  0  0  0  0  0  0  0
   20.8695   -6.2073  -13.0400 C   0  0  2  0  0  0  0  0  0  0  0  0
   19.4226   -6.1392  -12.9882 N   0  0  0  0  0  0  0  0  0  0  0  0
   21.4106   -4.8671  -12.6674 C   0  0  0  0  0  0  0  0  0  0  0  0
   22.6218   -4.8113  -12.0087 O   0  0  0  0  0  0  0  0  0  0  0  0
   20.8067   -3.7982  -12.9306 O   0  0  0  0  0  0  0  0  0  0  0  0
  2  1  1  6
  3  2  1  0
  4  3  1  0
  5  4  2  0
  6  5  1  0
  7  6  1  0
  7  8  2  0
  8  4  1  0
  9  2  1  0
 10  9  2  0
 11 12  1  0
 12 14  1  0
 13 12  2  0
 14 15  1  0
 16 15  1  1
 16 17  1  0
 17  9  1  0
 18 16  1  0
 18 19  2  0
 21 20  1  1
 21 23  1  0
 22 21  1  0
 23 24  1  6
 24 18  1  0
 25 23  1  0
 26 25  1  0
 27 25  2  0
M  END
$$$$
