RKI.pdb
     RDKit          3D

 29 28  0  0  1  0  0  0  0  0999 V2000
   18.5193  -15.1566  -15.0108 N   0  0  0  0  0  0  0  0  0  0  0  0
   18.6377  -14.6037  -16.3140 C   0  0  0  0  0  0  0  0  0  0  0  0
   18.7038  -13.3205  -16.5124 N   0  0  0  0  0  0  0  0  0  0  0  0
   18.6828  -15.4991  -17.4154 N   0  0  0  0  0  0  0  0  0  0  0  0
   19.4160  -16.7729  -17.3120 C   0  0  0  0  0  0  0  0  0  0  0  0
   19.1980  -17.2908  -15.9366 C   0  0  0  0  0  0  0  0  0  0  0  0
   19.9164  -18.5221  -15.5520 C   0  0  0  0  0  0  0  0  0  0  0  0
   20.4306  -19.3849  -16.6581 C   0  0  2  0  0  0  0  0  0  0  0  0
   19.5149  -20.4587  -17.0001 N   0  0  0  0  0  0  0  0  0  0  0  0
   21.7071  -19.9575  -16.1936 C   0  0  0  0  0  0  0  0  0  0  0  0
   21.7252  -20.7183  -15.2151 O   0  0  0  0  0  0  0  0  0  0  0  0
   18.8295  -12.9343  -17.4507 N   0  0  0  0  0  0  0  0  0  0  0  0
   22.9029  -19.6397  -16.8615 C   0  0  2  0  0  0  0  0  0  0  0  0
   24.1736  -20.1758  -16.4062 C   0  0  0  0  0  0  0  0  0  0  0  0
   25.1565  -20.0016  -17.5567 C   0  0  0  0  0  0  0  0  0  0  0  0
   26.5317  -20.5111  -17.1310 C   0  0  0  0  0  0  0  0  0  0  0  0
   26.8012  -21.8673  -17.7309 C   0  0  0  0  0  0  0  0  0  0  0  0
   28.1945  -22.3007  -17.3284 N   0  0  0  0  0  0  0  0  0  0  0  0
   28.5524  -23.5303  -17.9868 C   0  0  0  0  0  0  0  0  0  0  0  0
   24.6512  -19.5096  -15.1802 O   0  0  0  0  0  0  0  0  0  0  0  0
   24.4935  -18.2628  -14.9695 C   0  0  0  0  0  0  0  0  0  0  0  0
   25.2661  -20.3795   -9.3425 C   0  0  0  0  0  0  0  0  0  0  0  0
   25.9682  -19.7595  -10.5314 C   0  0  2  0  0  0  0  0  0  0  0  0
   25.3720  -20.3080  -11.7849 C   0  0  0  0  0  0  0  0  0  0  0  0
   25.5200  -21.8182  -11.7915 C   0  0  2  0  0  0  0  0  0  0  0  0
   25.9792  -19.7051  -13.0488 N   0  0  0  0  0  0  0  0  0  0  0  0
   25.3105  -20.2753  -14.1950 C   0  0  0  0  0  0  0  0  0  0  0  0
   27.4218  -19.9967  -13.1550 O   0  0  0  0  0  0  0  0  0  0  0  0
   28.3514  -19.1545  -12.5756 O   0  0  0  0  0  0  0  0  0  0  0  0
  2  1  1  0
  2  3  2  0
  4  2  1  0
  5  4  1  0
  6  5  1  0
  7  6  1  0
  8  7  1  0
  8  9  1  1
 10  8  1  0
 10 12  1  0
 11 10  2  0
 13 12  1  0
 13 14  1  6
 15 14  1  0
 16 15  1  0
 17 16  1  0
 18 17  1  0
 19 26  1  0
 19 13  1  0
 20 19  2  0
 21 22  1  0
 23 22  1  0
 23 25  1  0
 23 24  1  6
 25 26  1  6
 25 27  1  0
 27 28  1  0
 29 27  2  0
M  END
$$$$
