RKI.pdb
     RDKit          3D

 29 28  0  0  1  0  0  0  0  0999 V2000
   30.0980  -25.3852  -16.3998 N   0  0  0  0  0  0  0  0  0  0  0  0
   30.3296  -25.1098  -17.7741 C   0  0  0  0  0  0  0  0  0  0  0  0
   30.4067  -26.0573  -18.6611 N   0  0  0  0  0  0  0  0  0  0  0  0
   30.4780  -23.7527  -18.1652 N   0  0  0  0  0  0  0  0  0  0  0  0
   29.3974  -22.7822  -17.9175 C   0  0  0  0  0  0  0  0  0  0  0  0
   28.9984  -22.9285  -16.4937 C   0  0  0  0  0  0  0  0  0  0  0  0
   28.2212  -21.8282  -15.8891 C   0  0  0  0  0  0  0  0  0  0  0  0
   27.6268  -20.8219  -16.8199 C   0  0  2  0  0  0  0  0  0  0  0  0
   28.6117  -19.8868  -17.3338 N   0  0  0  0  0  0  0  0  0  0  0  0
   26.6036  -20.0861  -16.0551 C   0  0  0  0  0  0  0  0  0  0  0  0
   26.9456  -19.2210  -15.2358 O   0  0  0  0  0  0  0  0  0  0  0  0
   30.6254  -25.8526  -19.6386 N   0  0  0  0  0  0  0  0  0  0  0  0
   25.2407  -20.3671  -16.2561 C   0  0  2  0  0  0  0  0  0  0  0  0
   24.2212  -19.7153  -15.4528 C   0  0  0  0  0  0  0  0  0  0  0  0
   23.1295  -19.2669  -16.4157 C   0  0  0  0  0  0  0  0  0  0  0  0
   22.0068  -18.5914  -15.6312 C   0  0  0  0  0  0  0  0  0  0  0  0
   20.9078  -18.1448  -16.5608 C   0  0  0  0  0  0  0  0  0  0  0  0
   19.8686  -17.3998  -15.7508 N   0  0  0  0  0  0  0  0  0  0  0  0
   19.5651  -16.1312  -16.3606 C   0  0  0  0  0  0  0  0  0  0  0  0
   23.6869  -20.6041  -14.4041 O   0  0  0  0  0  0  0  0  0  0  0  0
   23.2290  -21.7662  -14.6557 C   0  0  0  0  0  0  0  0  0  0  0  0
   26.0683  -20.2675   -9.5202 C   0  0  0  0  0  0  0  0  0  0  0  0
   25.4015  -20.8251  -10.7594 C   0  0  2  0  0  0  0  0  0  0  0  0
   23.9402  -20.5284  -10.6970 C   0  0  0  0  0  0  0  0  0  0  0  0
   23.3435  -21.2013   -9.4749 C   0  0  2  0  0  0  0  0  0  0  0  0
   23.1909  -20.9484  -11.9586 N   0  0  0  0  0  0  0  0  0  0  0  0
   23.6782  -20.1582  -13.0651 C   0  0  0  0  0  0  0  0  0  0  0  0
   21.7375  -20.7283  -11.8300 O   0  0  0  0  0  0  0  0  0  0  0  0
   20.8960  -21.7760  -11.5085 O   0  0  0  0  0  0  0  0  0  0  0  0
  2  1  1  0
  2  3  2  0
  4  2  1  0
  5  4  1  0
  6  5  1  0
  7  6  1  0
  8  7  1  0
  8  9  1  1
 10  8  1  0
 10 12  1  0
 11 10  2  0
 13 12  1  0
 13 14  1  6
 15 14  1  0
 16 15  1  0
 17 16  1  0
 18 17  1  0
 19 26  1  0
 19 13  1  0
 20 19  2  0
 21 22  1  0
 23 22  1  0
 23 25  1  0
 23 24  1  6
 25 26  1  6
 25 27  1  0
 27 28  1  0
 29 27  2  0
M  END
$$$$
