RKI.pdb
     RDKit          3D

 29 28  0  0  1  0  0  0  0  0999 V2000
   17.8330  -23.9929   -7.2938 N   0  0  0  0  0  0  0  0  0  0  0  0
   17.9752  -25.1985   -8.0316 C   0  0  0  0  0  0  0  0  0  0  0  0
   17.2711  -26.2572   -7.7600 N   0  0  0  0  0  0  0  0  0  0  0  0
   18.9202  -25.2229   -9.0914 N   0  0  0  0  0  0  0  0  0  0  0  0
   19.4931  -23.9681   -9.6094 C   0  0  0  0  0  0  0  0  0  0  0  0
   18.5883  -23.4875  -10.6854 C   0  0  0  0  0  0  0  0  0  0  0  0
   18.9668  -22.2449  -11.3874 C   0  0  0  0  0  0  0  0  0  0  0  0
   19.7203  -21.2211  -10.6024 C   0  0  2  0  0  0  0  0  0  0  0  0
   18.8728  -20.1351  -10.1431 N   0  0  0  0  0  0  0  0  0  0  0  0
   20.7653  -20.6851  -11.4934 C   0  0  0  0  0  0  0  0  0  0  0  0
   20.4983  -19.7616  -12.2760 O   0  0  0  0  0  0  0  0  0  0  0  0
   17.4214  -27.1369   -8.2588 N   0  0  0  0  0  0  0  0  0  0  0  0
   22.0640  -21.2226  -11.4541 C   0  0  2  0  0  0  0  0  0  0  0  0
   23.0935  -20.7453  -12.3606 C   0  0  0  0  0  0  0  0  0  0  0  0
   24.3955  -21.4062  -11.9268 C   0  0  0  0  0  0  0  0  0  0  0  0
   25.5301  -20.9369  -12.8349 C   0  0  0  0  0  0  0  0  0  0  0  0
   26.8292  -21.5891  -12.4367 C   0  0  0  0  0  0  0  0  0  0  0  0
   27.9363  -21.0143  -13.2940 N   0  0  0  0  0  0  0  0  0  0  0  0
   27.7785  -21.4228  -14.6657 C   0  0  0  0  0  0  0  0  0  0  0  0
   22.7769  -21.0455  -13.7695 O   0  0  0  0  0  0  0  0  0  0  0  0
   22.3690  -22.1899  -14.1535 C   0  0  0  0  0  0  0  0  0  0  0  0
   20.1590  -18.4072  -18.3795 C   0  0  0  0  0  0  0  0  0  0  0  0
   21.3177  -19.3264  -18.0576 C   0  0  2  0  0  0  0  0  0  0  0  0
   21.5675  -19.2925  -16.5866 C   0  0  0  0  0  0  0  0  0  0  0  0
   21.8640  -17.8664  -16.1610 C   0  0  2  0  0  0  0  0  0  0  0  0
   22.6929  -20.2263  -16.1500 N   0  0  0  0  0  0  0  0  0  0  0  0
   22.9287  -20.0307  -14.7385 C   0  0  0  0  0  0  0  0  0  0  0  0
   23.9466  -19.9489  -16.8772 O   0  0  0  0  0  0  0  0  0  0  0  0
   24.1322  -20.4256  -18.1608 O   0  0  0  0  0  0  0  0  0  0  0  0
  2  1  1  0
  2  3  2  0
  4  2  1  0
  5  4  1  0
  6  5  1  0
  7  6  1  0
  8  7  1  0
  8  9  1  6
 10  8  1  0
 10 12  1  0
 11 10  2  0
 13 12  1  0
 13 14  1  1
 15 14  1  0
 16 15  1  0
 17 16  1  0
 18 17  1  0
 19 26  1  0
 19 13  1  0
 20 19  2  0
 21 22  1  0
 23 22  1  0
 23 25  1  0
 23 24  1  1
 25 26  1  6
 25 27  1  0
 27 28  1  0
 29 27  2  0
M  END
$$$$
