RKN.pdb
     RDKit          3D

 29 28  0  0  1  0  0  0  0  0999 V2000
   31.1347  -25.2900  -15.4326 N   0  0  0  0  0  0  0  0  0  0  0  0
   31.2065  -25.0555  -16.8244 C   0  0  0  0  0  0  0  0  0  0  0  0
   31.6760  -25.9751  -17.5988 N   0  0  0  0  0  0  0  0  0  0  0  0
   30.7799  -23.8305  -17.4427 N   0  0  0  0  0  0  0  0  0  0  0  0
   30.1007  -22.8010  -16.7458 C   0  0  0  0  0  0  0  0  0  0  0  0
   28.6706  -23.0827  -16.4847 C   0  0  0  0  0  0  0  0  0  0  0  0
   27.7194  -22.4706  -17.4272 C   0  0  0  0  0  0  0  0  0  0  0  0
   27.0320  -21.2163  -17.0000 C   0  0  2  0  0  0  0  0  0  0  0  0
   28.0213  -20.2362  -16.5733 N   0  0  0  0  0  0  0  0  0  0  0  0
   26.1410  -21.5005  -15.8214 C   0  0  0  0  0  0  0  0  0  0  0  0
   25.2544  -22.3596  -15.9402 O   0  0  0  0  0  0  0  0  0  0  0  0
   31.7824  -25.8683  -18.6196 N   0  0  0  0  0  0  0  0  0  0  0  0
   26.3220  -20.7987  -14.6180 C   0  0  1  0  0  0  0  0  0  0  0  0
   25.4255  -21.0985  -13.4957 C   0  0  0  0  0  0  0  0  0  0  0  0
   26.0840  -20.6172  -12.2126 C   0  0  0  0  0  0  0  0  0  0  0  0
   25.2799  -20.9362  -11.0233 C   0  0  0  0  0  0  0  0  0  0  0  0
   26.0146  -20.5261   -9.7574 C   0  0  0  0  0  0  0  0  0  0  0  0
   25.1635  -20.8459   -8.5656 N   0  0  0  0  0  0  0  0  0  0  0  0
   25.9298  -20.4589   -7.3802 C   0  0  0  0  0  0  0  0  0  0  0  0
   24.1302  -20.4411  -13.6654 O   0  0  0  0  0  0  0  0  0  0  0  0
   24.0936  -19.2039  -13.8749 N   0  0  0  0  0  0  0  0  0  0  0  0
   20.9355  -18.6215  -15.7788 C   0  0  0  0  0  0  0  0  0  0  0  0
   20.7949  -19.9838  -16.1352 O   0  0  0  0  0  0  0  0  0  0  0  0
   20.3823  -20.2732  -17.2681 C   0  0  0  0  0  0  0  0  0  0  0  0
   21.1394  -21.0155  -15.1591 C   0  0  2  0  0  0  0  0  0  0  0  0
   21.6688  -20.5292  -13.8440 N   0  0  0  0  0  0  0  0  0  0  0  0
   22.9351  -21.2227  -13.5890 C   0  0  0  0  0  0  0  0  0  0  0  0
   20.8062  -20.8714  -12.6833 O   0  0  0  0  0  0  0  0  0  0  0  0
   19.9009  -19.9658  -12.1806 O   0  0  0  0  0  0  0  0  0  0  0  0
  2  1  1  0
  3  2  2  0
  4  2  1  0
  5  4  1  0
  6  5  1  0
  7  6  1  0
  8  7  1  0
  8  9  1  1
 10  8  1  0
 10 11  2  0
 12 10  1  0
 13 12  1  0
 13 14  1  6
 15 14  1  0
 16 17  1  0
 16 15  1  0
 18 17  1  0
 19 13  1  0
 20 19  2  0
 22 23  2  0
 22 21  1  0
 24 22  1  0
 25 24  1  6
 25 26  1  0
 26 19  1  0
 27 28  1  0
 27 25  1  0
 29 27  2  0
M  END
$$$$
