RKN.pdb
     RDKit          3D

 29 28  0  0  1  0  0  0  0  0999 V2000
   26.4437  -20.3380   -8.8988 N   0  0  0  0  0  0  0  0  0  0  0  0
   25.2181  -20.9030   -9.3183 C   0  0  0  0  0  0  0  0  0  0  0  0
   24.2185  -20.9261   -8.5023 N   0  0  0  0  0  0  0  0  0  0  0  0
   25.0128  -21.4646  -10.6250 N   0  0  0  0  0  0  0  0  0  0  0  0
   26.0450  -21.6016  -11.5854 C   0  0  0  0  0  0  0  0  0  0  0  0
   26.2919  -20.3849  -12.3925 C   0  0  0  0  0  0  0  0  0  0  0  0
   25.5919  -20.3271  -13.6865 C   0  0  0  0  0  0  0  0  0  0  0  0
   25.6746  -21.5259  -14.5721 C   0  0  2  0  0  0  0  0  0  0  0  0
   26.8366  -21.4127  -15.4429 N   0  0  0  0  0  0  0  0  0  0  0  0
   24.4562  -21.5934  -15.4522 C   0  0  0  0  0  0  0  0  0  0  0  0
   24.3996  -20.8544  -16.4466 O   0  0  0  0  0  0  0  0  0  0  0  0
   23.3012  -21.3412   -8.7282 N   0  0  0  0  0  0  0  0  0  0  0  0
   23.4123  -22.4804  -15.1405 C   0  0  2  0  0  0  0  0  0  0  0  0
   22.2532  -22.5343  -16.0386 C   0  0  0  0  0  0  0  0  0  0  0  0
   21.5656  -23.8780  -15.8560 C   0  0  0  0  0  0  0  0  0  0  0  0
   20.3981  -24.0278  -16.7378 C   0  0  0  0  0  0  0  0  0  0  0  0
   20.7762  -24.7889  -17.9981 C   0  0  0  0  0  0  0  0  0  0  0  0
   19.5808  -24.8810  -18.8978 N   0  0  0  0  0  0  0  0  0  0  0  0
   20.0029  -25.6159  -20.0912 C   0  0  0  0  0  0  0  0  0  0  0  0
   21.3123  -21.4523  -15.7507 O   0  0  0  0  0  0  0  0  0  0  0  0
   21.1340  -21.0958  -14.5603 N   0  0  0  0  0  0  0  0  0  0  0  0
   18.5921  -16.6492  -18.1676 C   0  0  0  0  0  0  0  0  0  0  0  0
   18.3750  -17.9285  -17.6029 O   0  0  0  0  0  0  0  0  0  0  0  0
   17.2977  -18.1649  -17.0364 C   0  0  0  0  0  0  0  0  0  0  0  0
   19.4261  -18.9392  -17.7016 C   0  0  1  0  0  0  0  0  0  0  0  0
   19.6454  -19.7842  -16.4834 N   0  0  0  0  0  0  0  0  0  0  0  0
   20.6171  -20.8253  -16.8317 C   0  0  0  0  0  0  0  0  0  0  0  0
   18.4364  -20.5247  -16.0379 O   0  0  0  0  0  0  0  0  0  0  0  0
   17.9875  -21.6290  -16.7246 O   0  0  0  0  0  0  0  0  0  0  0  0
  2  1  1  0
  3  2  2  0
  4  2  1  0
  5  4  1  0
  6  5  1  0
  7  6  1  0
  8  7  1  0
  8  9  1  6
 10  8  1  0
 10 11  2  0
 12 10  1  0
 13 12  1  0
 13 14  1  1
 15 14  1  0
 16 17  1  0
 16 15  1  0
 18 17  1  0
 19 13  1  0
 20 19  2  0
 22 23  2  0
 22 21  1  0
 24 22  1  0
 25 24  1  1
 25 26  1  0
 26 19  1  0
 27 28  1  0
 27 25  1  0
 29 27  2  0
M  END
$$$$
