RKN.pdb
     RDKit          3D

 29 28  0  0  1  0  0  0  0  0999 V2000
   25.3441  -24.8700  -14.8459 N   0  0  0  0  0  0  0  0  0  0  0  0
   26.0184  -24.0742  -15.7995 C   0  0  0  0  0  0  0  0  0  0  0  0
   26.6366  -24.6449  -16.7781 N   0  0  0  0  0  0  0  0  0  0  0  0
   26.0582  -22.6387  -15.7449 N   0  0  0  0  0  0  0  0  0  0  0  0
   25.7328  -21.8935  -14.5850 C   0  0  0  0  0  0  0  0  0  0  0  0
   24.7597  -20.8014  -14.8152 C   0  0  0  0  0  0  0  0  0  0  0  0
   23.5364  -20.8566  -13.9978 C   0  0  0  0  0  0  0  0  0  0  0  0
   22.4850  -21.8403  -14.3914 C   0  0  2  0  0  0  0  0  0  0  0  0
   22.0634  -21.5851  -15.7620 N   0  0  0  0  0  0  0  0  0  0  0  0
   21.2773  -21.6744  -13.5095 C   0  0  0  0  0  0  0  0  0  0  0  0
   21.1605  -20.6292  -12.8522 O   0  0  0  0  0  0  0  0  0  0  0  0
   27.2397  -24.1430  -17.4483 N   0  0  0  0  0  0  0  0  0  0  0  0
   20.3107  -22.6917  -13.4427 C   0  0  1  0  0  0  0  0  0  0  0  0
   19.1259  -22.4722  -12.6053 C   0  0  0  0  0  0  0  0  0  0  0  0
   17.9078  -22.3814  -13.5105 C   0  0  0  0  0  0  0  0  0  0  0  0
   16.6661  -22.1741  -12.7500 C   0  0  0  0  0  0  0  0  0  0  0  0
   15.4764  -22.0689  -13.6902 C   0  0  0  0  0  0  0  0  0  0  0  0
   14.2404  -21.7778  -12.8937 N   0  0  0  0  0  0  0  0  0  0  0  0
   14.3426  -20.3889  -12.4433 C   0  0  0  0  0  0  0  0  0  0  0  0
   18.9502  -23.5608  -11.6447 O   0  0  0  0  0  0  0  0  0  0  0  0
   19.1933  -24.7393  -12.0026 N   0  0  0  0  0  0  0  0  0  0  0  0
   18.0900  -26.1193   -7.1892 C   0  0  0  0  0  0  0  0  0  0  0  0
   18.3709  -24.7643   -6.8927 O   0  0  0  0  0  0  0  0  0  0  0  0
   18.4963  -24.4174   -5.7090 C   0  0  0  0  0  0  0  0  0  0  0  0
   18.5061  -23.8077   -7.9894 C   0  0  1  0  0  0  0  0  0  0  0  0
   18.4219  -24.3751   -9.3740 N   0  0  0  0  0  0  0  0  0  0  0  0
   18.5056  -23.2579  -10.3197 C   0  0  0  0  0  0  0  0  0  0  0  0
   17.1253  -25.0349   -9.6772 O   0  0  0  0  0  0  0  0  0  0  0  0
   16.9978  -26.4039   -9.6307 O   0  0  0  0  0  0  0  0  0  0  0  0
  2  1  1  0
  3  2  2  0
  4  2  1  0
  5  4  1  0
  6  5  1  0
  7  6  1  0
  8  7  1  0
  8  9  1  6
 10  8  1  0
 10 11  2  0
 12 10  1  0
 13 12  1  0
 13 14  1  1
 15 14  1  0
 16 17  1  0
 16 15  1  0
 18 17  1  0
 19 13  1  0
 20 19  2  0
 22 23  2  0
 22 21  1  0
 24 22  1  0
 25 24  1  6
 25 26  1  0
 26 19  1  0
 27 28  1  0
 27 25  1  0
 29 27  2  0
M  END
$$$$
