RKN.pdb
     RDKit          3D

 29 28  0  0  1  0  0  0  0  0999 V2000
   19.2703  -20.8479  -11.7913 N   0  0  0  0  0  0  0  0  0  0  0  0
   19.9043  -19.5943  -11.6367 C   0  0  0  0  0  0  0  0  0  0  0  0
   19.8903  -19.0150  -10.4836 N   0  0  0  0  0  0  0  0  0  0  0  0
   20.5774  -18.9116  -12.7070 N   0  0  0  0  0  0  0  0  0  0  0  0
   20.4532  -19.2829  -14.0684 C   0  0  0  0  0  0  0  0  0  0  0  0
   21.3097  -20.4220  -14.4701 C   0  0  0  0  0  0  0  0  0  0  0  0
   22.0680  -20.2384  -15.7187 C   0  0  0  0  0  0  0  0  0  0  0  0
   23.4964  -20.6718  -15.7309 C   0  0  2  0  0  0  0  0  0  0  0  0
   23.7798  -21.4595  -14.5391 N   0  0  0  0  0  0  0  0  0  0  0  0
   24.3945  -19.4652  -15.6985 C   0  0  0  0  0  0  0  0  0  0  0  0
   24.6941  -18.9767  -14.5985 O   0  0  0  0  0  0  0  0  0  0  0  0
   20.3642  -18.1204  -10.2837 N   0  0  0  0  0  0  0  0  0  0  0  0
   24.8757  -18.9146  -16.8980 C   0  0  1  0  0  0  0  0  0  0  0  0
   25.8334  -17.8057  -16.8201 C   0  0  0  0  0  0  0  0  0  0  0  0
   26.9370  -18.0513  -17.8366 C   0  0  0  0  0  0  0  0  0  0  0  0
   27.9968  -17.0344  -17.7609 C   0  0  0  0  0  0  0  0  0  0  0  0
   29.0903  -17.3276  -18.7752 C   0  0  0  0  0  0  0  0  0  0  0  0
   30.1414  -16.2623  -18.6916 N   0  0  0  0  0  0  0  0  0  0  0  0
   31.2403  -16.6803  -19.5634 C   0  0  0  0  0  0  0  0  0  0  0  0
   25.1815  -16.5257  -17.0951 O   0  0  0  0  0  0  0  0  0  0  0  0
   24.2473  -16.4811  -17.9326 N   0  0  0  0  0  0  0  0  0  0  0  0
   23.8133  -11.5100  -16.5864 C   0  0  0  0  0  0  0  0  0  0  0  0
   24.2756  -12.0294  -15.3538 O   0  0  0  0  0  0  0  0  0  0  0  0
   24.2298  -11.3154  -14.3411 C   0  0  0  0  0  0  0  0  0  0  0  0
   24.7955  -13.3944  -15.3053 C   0  0  1  0  0  0  0  0  0  0  0  0
   24.8484  -14.1271  -16.6117 N   0  0  0  0  0  0  0  0  0  0  0  0
   25.6229  -15.3544  -16.4037 C   0  0  0  0  0  0  0  0  0  0  0  0
   25.5728  -13.3961  -17.6838 O   0  0  0  0  0  0  0  0  0  0  0  0
   24.8933  -12.6421  -18.6124 O   0  0  0  0  0  0  0  0  0  0  0  0
  2  1  1  0
  3  2  2  0
  4  2  1  0
  5  4  1  0
  6  5  1  0
  7  6  1  0
  8  7  1  0
  8  9  1  1
 10  8  1  0
 10 11  2  0
 12 10  1  0
 13 12  1  0
 13 14  1  6
 15 14  1  0
 16 17  1  0
 16 15  1  0
 18 17  1  0
 19 13  1  0
 20 19  2  0
 22 23  2  0
 22 21  1  0
 24 22  1  0
 25 24  1  1
 25 26  1  0
 26 19  1  0
 27 28  1  0
 27 25  1  0
 29 27  2  0
M  END
$$$$
