RKN.pdb
     RDKit          3D

 29 28  0  0  1  0  0  0  0  0999 V2000
   28.7693  -16.8655  -19.6310 N   0  0  0  0  0  0  0  0  0  0  0  0
   27.7689  -17.0594  -18.6518 C   0  0  0  0  0  0  0  0  0  0  0  0
   26.6647  -17.6412  -18.9802 N   0  0  0  0  0  0  0  0  0  0  0  0
   27.9091  -16.6396  -17.2846 N   0  0  0  0  0  0  0  0  0  0  0  0
   27.0229  -17.0356  -16.2529 C   0  0  0  0  0  0  0  0  0  0  0  0
   26.9613  -18.4983  -16.0304 C   0  0  0  0  0  0  0  0  0  0  0  0
   28.0014  -19.0517  -15.1474 C   0  0  0  0  0  0  0  0  0  0  0  0
   27.9575  -20.5157  -14.8594 C   0  0  2  0  0  0  0  0  0  0  0  0
   28.0261  -21.2630  -16.1076 N   0  0  0  0  0  0  0  0  0  0  0  0
   26.6533  -20.8649  -14.1955 C   0  0  0  0  0  0  0  0  0  0  0  0
   25.7859  -21.4508  -14.8609 O   0  0  0  0  0  0  0  0  0  0  0  0
   25.8688  -17.7699  -18.3362 N   0  0  0  0  0  0  0  0  0  0  0  0
   26.4374  -20.5273  -12.8490 C   0  0  2  0  0  0  0  0  0  0  0  0
   25.1647  -20.9142  -12.2298 C   0  0  0  0  0  0  0  0  0  0  0  0
   25.2896  -20.7395  -10.7247 C   0  0  0  0  0  0  0  0  0  0  0  0
   24.0545  -21.1124  -10.0188 C   0  0  0  0  0  0  0  0  0  0  0  0
   24.1680  -20.7878   -8.5382 C   0  0  0  0  0  0  0  0  0  0  0  0
   22.9087  -21.2072   -7.8417 N   0  0  0  0  0  0  0  0  0  0  0  0
   23.0770  -20.8788   -6.4253 C   0  0  0  0  0  0  0  0  0  0  0  0
   24.0625  -20.0961  -12.7345 O   0  0  0  0  0  0  0  0  0  0  0  0
   24.3037  -18.9429  -13.1679 N   0  0  0  0  0  0  0  0  0  0  0  0
   23.0141  -19.5742  -17.3415 C   0  0  0  0  0  0  0  0  0  0  0  0
   22.4427  -19.3616  -16.0644 O   0  0  0  0  0  0  0  0  0  0  0  0
   21.9544  -18.2538  -15.7968 C   0  0  0  0  0  0  0  0  0  0  0  0
   22.4425  -20.4533  -15.0926 C   0  0  2  0  0  0  0  0  0  0  0  0
   21.8184  -20.1535  -13.7634 N   0  0  0  0  0  0  0  0  0  0  0  0
   22.7353  -20.6285  -12.7228 C   0  0  0  0  0  0  0  0  0  0  0  0
   20.5485  -20.8843  -13.5153 O   0  0  0  0  0  0  0  0  0  0  0  0
   20.5382  -22.2480  -13.3345 O   0  0  0  0  0  0  0  0  0  0  0  0
  2  1  1  0
  3  2  2  0
  4  2  1  0
  5  4  1  0
  6  5  1  0
  7  6  1  0
  8  7  1  0
  8  9  1  6
 10  8  1  0
 10 11  2  0
 12 10  1  0
 13 12  1  0
 13 14  1  1
 15 14  1  0
 16 17  1  0
 16 15  1  0
 18 17  1  0
 19 13  1  0
 20 19  2  0
 22 23  2  0
 22 21  1  0
 24 22  1  0
 25 24  1  1
 25 26  1  0
 26 19  1  0
 27 28  1  0
 27 25  1  0
 29 27  2  0
M  END
$$$$
