RKN.pdb
     RDKit          3D

 29 28  0  0  1  0  0  0  0  0999 V2000
   17.3222  -16.9728  -16.1540 N   0  0  0  0  0  0  0  0  0  0  0  0
   17.9260  -17.6328  -17.2481 C   0  0  0  0  0  0  0  0  0  0  0  0
   17.7524  -18.9030  -17.3966 N   0  0  0  0  0  0  0  0  0  0  0  0
   18.7380  -16.9619  -18.2256 N   0  0  0  0  0  0  0  0  0  0  0  0
   18.8737  -15.5534  -18.2921 C   0  0  0  0  0  0  0  0  0  0  0  0
   17.7318  -14.8606  -18.9316 C   0  0  0  0  0  0  0  0  0  0  0  0
   17.3355  -13.5842  -18.3139 C   0  0  0  0  0  0  0  0  0  0  0  0
   17.8345  -12.3263  -18.9437 C   0  0  2  0  0  0  0  0  0  0  0  0
   18.1620  -12.5743  -20.3411 N   0  0  0  0  0  0  0  0  0  0  0  0
   19.0963  -11.8792  -18.2570 C   0  0  0  0  0  0  0  0  0  0  0  0
   19.0646  -11.6654  -17.0357 O   0  0  0  0  0  0  0  0  0  0  0  0
   18.2416  -19.4713  -18.1054 N   0  0  0  0  0  0  0  0  0  0  0  0
   20.2782  -11.7117  -18.9978 C   0  0  1  0  0  0  0  0  0  0  0  0
   21.4366  -11.1047  -18.3324 C   0  0  0  0  0  0  0  0  0  0  0  0
   22.6531  -11.2839  -19.2266 C   0  0  0  0  0  0  0  0  0  0  0  0
   23.8846  -10.7889  -18.5932 C   0  0  0  0  0  0  0  0  0  0  0  0
   25.0835  -11.0340  -19.4949 C   0  0  0  0  0  0  0  0  0  0  0  0
   26.3062  -10.4375  -18.8656 N   0  0  0  0  0  0  0  0  0  0  0  0
   27.4547  -10.9012  -19.6456 C   0  0  0  0  0  0  0  0  0  0  0  0
   21.2129   -9.6819  -18.0783 O   0  0  0  0  0  0  0  0  0  0  0  0
   20.9786   -8.9161  -19.0451 N   0  0  0  0  0  0  0  0  0  0  0  0
   19.7753   -4.9127  -17.3092 C   0  0  0  0  0  0  0  0  0  0  0  0
   19.2570   -6.0511  -16.6473 O   0  0  0  0  0  0  0  0  0  0  0  0
   18.4075   -5.8989  -15.7571 C   0  0  0  0  0  0  0  0  0  0  0  0
   19.7361   -7.3779  -17.0296 C   0  0  1  0  0  0  0  0  0  0  0  0
   21.1033   -7.7514  -16.5423 N   0  0  0  0  0  0  0  0  0  0  0  0
   21.2662   -9.1957  -16.7346 C   0  0  0  0  0  0  0  0  0  0  0  0
   21.3038   -7.5356  -15.0857 O   0  0  0  0  0  0  0  0  0  0  0  0
   21.6322   -8.5796  -14.2523 O   0  0  0  0  0  0  0  0  0  0  0  0
  2  1  1  0
  3  2  2  0
  4  2  1  0
  5  4  1  0
  6  5  1  0
  7  6  1  0
  8  7  1  0
  8  9  1  6
 10  8  1  0
 10 11  2  0
 12 10  1  0
 13 12  1  0
 13 14  1  1
 15 14  1  0
 16 17  1  0
 16 15  1  0
 18 17  1  0
 19 13  1  0
 20 19  2  0
 22 23  2  0
 22 21  1  0
 24 22  1  0
 25 24  1  6
 25 26  1  0
 26 19  1  0
 27 28  1  0
 27 25  1  0
 29 27  2  0
M  END
$$$$
