RKN.pdb
     RDKit          3D

 29 28  0  0  1  0  0  0  0  0999 V2000
   27.0740  -30.0152  -16.7138 N   0  0  0  0  0  0  0  0  0  0  0  0
   28.0840  -29.9540  -17.7004 C   0  0  0  0  0  0  0  0  0  0  0  0
   28.2014  -30.9201  -18.5481 N   0  0  0  0  0  0  0  0  0  0  0  0
   29.0071  -28.8592  -17.8198 N   0  0  0  0  0  0  0  0  0  0  0  0
   28.9287  -27.6842  -17.0325 C   0  0  0  0  0  0  0  0  0  0  0  0
   28.0110  -26.6524  -17.5672 C   0  0  0  0  0  0  0  0  0  0  0  0
   27.8876  -25.4293  -16.7568 C   0  0  0  0  0  0  0  0  0  0  0  0
   28.9635  -24.4027  -16.8851 C   0  0  2  0  0  0  0  0  0  0  0  0
   30.0688  -24.7376  -15.9976 N   0  0  0  0  0  0  0  0  0  0  0  0
   28.4370  -23.0582  -16.4625 C   0  0  0  0  0  0  0  0  0  0  0  0
   28.5346  -22.7296  -15.2705 O   0  0  0  0  0  0  0  0  0  0  0  0
   28.9479  -30.9743  -19.2584 N   0  0  0  0  0  0  0  0  0  0  0  0
   27.8494  -22.2038  -17.4104 C   0  0  2  0  0  0  0  0  0  0  0  0
   27.4180  -20.8712  -16.9734 C   0  0  0  0  0  0  0  0  0  0  0  0
   27.8629  -19.8565  -18.0145 C   0  0  0  0  0  0  0  0  0  0  0  0
   27.4591  -18.4869  -17.6620 C   0  0  0  0  0  0  0  0  0  0  0  0
   27.9207  -17.5045  -18.7261 C   0  0  0  0  0  0  0  0  0  0  0  0
   27.4774  -16.1229  -18.3498 N   0  0  0  0  0  0  0  0  0  0  0  0
   28.0093  -15.2144  -19.3666 C   0  0  0  0  0  0  0  0  0  0  0  0
   25.9655  -20.8134  -16.8133 O   0  0  0  0  0  0  0  0  0  0  0  0
   25.2379  -21.5082  -17.5643 N   0  0  0  0  0  0  0  0  0  0  0  0
   21.3232  -19.9328  -18.3784 C   0  0  0  0  0  0  0  0  0  0  0  0
   22.4095  -19.3898  -17.6520 O   0  0  0  0  0  0  0  0  0  0  0  0
   22.4988  -18.1595  -17.5265 C   0  0  0  0  0  0  0  0  0  0  0  0
   23.3993  -20.2928  -17.0680 C   0  0  2  0  0  0  0  0  0  0  0  0
   23.9447  -19.8973  -15.7293 N   0  0  0  0  0  0  0  0  0  0  0  0
   25.4071  -19.9668  -15.8051 C   0  0  0  0  0  0  0  0  0  0  0  0
   23.5753  -20.8262  -14.6297 O   0  0  0  0  0  0  0  0  0  0  0  0
   24.1868  -22.0517  -14.5005 O   0  0  0  0  0  0  0  0  0  0  0  0
  2  1  1  0
  3  2  2  0
  4  2  1  0
  5  4  1  0
  6  5  1  0
  7  6  1  0
  8  7  1  0
  8  9  1  1
 10  8  1  0
 10 11  2  0
 12 10  1  0
 13 12  1  0
 13 14  1  1
 15 14  1  0
 16 17  1  0
 16 15  1  0
 18 17  1  0
 19 13  1  0
 20 19  2  0
 22 23  2  0
 22 21  1  0
 24 22  1  0
 25 24  1  6
 25 26  1  0
 26 19  1  0
 27 28  1  0
 27 25  1  0
 29 27  2  0
M  END
$$$$
