RKN.pdb
     RDKit          3D

 29 28  0  0  1  0  0  0  0  0999 V2000
   26.7544  -20.6575  -18.7880 N   0  0  0  0  0  0  0  0  0  0  0  0
   27.9544  -20.0474  -18.3578 C   0  0  0  0  0  0  0  0  0  0  0  0
   28.5384  -19.1880  -19.1234 N   0  0  0  0  0  0  0  0  0  0  0  0
   28.5766  -20.3313  -17.0940 N   0  0  0  0  0  0  0  0  0  0  0  0
   28.1345  -21.3546  -16.2200 C   0  0  0  0  0  0  0  0  0  0  0  0
   28.0657  -20.9527  -14.7964 C   0  0  0  0  0  0  0  0  0  0  0  0
   26.8158  -21.2962  -14.0982 C   0  0  0  0  0  0  0  0  0  0  0  0
   25.5348  -20.8180  -14.6970 C   0  0  2  0  0  0  0  0  0  0  0  0
   25.5031  -19.3619  -14.6883 N   0  0  0  0  0  0  0  0  0  0  0  0
   24.3749  -21.2995  -13.8685 C   0  0  0  0  0  0  0  0  0  0  0  0
   24.2201  -22.5206  -13.7155 O   0  0  0  0  0  0  0  0  0  0  0  0
   29.4225  -18.7124  -18.8846 N   0  0  0  0  0  0  0  0  0  0  0  0
   23.4939  -20.3726  -13.2867 C   0  0  1  0  0  0  0  0  0  0  0  0
   22.3473  -20.8841  -12.5273 C   0  0  0  0  0  0  0  0  0  0  0  0
   22.2992  -20.1665  -11.1878 C   0  0  0  0  0  0  0  0  0  0  0  0
   21.9119  -21.0659  -10.0905 C   0  0  0  0  0  0  0  0  0  0  0  0
   21.8028  -20.2966   -8.7841 C   0  0  0  0  0  0  0  0  0  0  0  0
   21.4209  -21.2408   -7.6843 N   0  0  0  0  0  0  0  0  0  0  0  0
   20.0749  -21.7276   -7.9906 C   0  0  0  0  0  0  0  0  0  0  0  0
   21.0957  -20.6666  -13.2519 O   0  0  0  0  0  0  0  0  0  0  0  0
   21.0773  -19.8626  -14.2158 N   0  0  0  0  0  0  0  0  0  0  0  0
   16.8500  -21.0444  -15.7793 C   0  0  0  0  0  0  0  0  0  0  0  0
   18.0754  -21.6811  -16.0887 O   0  0  0  0  0  0  0  0  0  0  0  0
   18.2650  -22.1017  -17.2396 C   0  0  0  0  0  0  0  0  0  0  0  0
   19.0868  -21.8271  -15.0439 C   0  0  2  0  0  0  0  0  0  0  0  0
   18.7396  -21.2515  -13.7043 N   0  0  0  0  0  0  0  0  0  0  0  0
   19.9216  -21.3749  -12.8459 C   0  0  0  0  0  0  0  0  0  0  0  0
   17.6694  -21.9936  -12.9886 O   0  0  0  0  0  0  0  0  0  0  0  0
   16.3518  -21.6106  -13.0883 O   0  0  0  0  0  0  0  0  0  0  0  0
  2  1  1  0
  3  2  2  0
  4  2  1  0
  5  4  1  0
  6  5  1  0
  7  6  1  0
  8  7  1  0
  8  9  1  1
 10  8  1  0
 10 11  2  0
 12 10  1  0
 13 12  1  0
 13 14  1  6
 15 14  1  0
 16 17  1  0
 16 15  1  0
 18 17  1  0
 19 13  1  0
 20 19  2  0
 22 23  2  0
 22 21  1  0
 24 22  1  0
 25 24  1  6
 25 26  1  0
 26 19  1  0
 27 28  1  0
 27 25  1  0
 29 27  2  0
M  END
$$$$
