RKN.pdb
     RDKit          3D

 29 28  0  0  1  0  0  0  0  0999 V2000
   24.4135  -11.5350  -19.1458 N   0  0  0  0  0  0  0  0  0  0  0  0
   23.3985  -12.3289  -19.7261 C   0  0  0  0  0  0  0  0  0  0  0  0
   22.6294  -11.8158  -20.6266 N   0  0  0  0  0  0  0  0  0  0  0  0
   23.1658  -13.7008  -19.3674 N   0  0  0  0  0  0  0  0  0  0  0  0
   23.7195  -14.3095  -18.2143 C   0  0  0  0  0  0  0  0  0  0  0  0
   24.4450  -15.5726  -18.4807 C   0  0  0  0  0  0  0  0  0  0  0  0
   23.7292  -16.8064  -18.1158 C   0  0  0  0  0  0  0  0  0  0  0  0
   23.5681  -17.1091  -16.6630 C   0  0  2  0  0  0  0  0  0  0  0  0
   24.8787  -17.2292  -16.0391 N   0  0  0  0  0  0  0  0  0  0  0  0
   22.8648  -18.4282  -16.4930 C   0  0  0  0  0  0  0  0  0  0  0  0
   21.7915  -18.6104  -17.0872 O   0  0  0  0  0  0  0  0  0  0  0  0
   21.9122  -12.3492  -21.1423 N   0  0  0  0  0  0  0  0  0  0  0  0
   23.4251  -19.4231  -15.6745 C   0  0  1  0  0  0  0  0  0  0  0  0
   22.7480  -20.7225  -15.5958 C   0  0  0  0  0  0  0  0  0  0  0  0
   23.7679  -21.7717  -15.1828 C   0  0  0  0  0  0  0  0  0  0  0  0
   24.1915  -22.6091  -16.3151 C   0  0  0  0  0  0  0  0  0  0  0  0
   25.3208  -23.5373  -15.8985 C   0  0  0  0  0  0  0  0  0  0  0  0
   25.7706  -24.3335  -17.0862 N   0  0  0  0  0  0  0  0  0  0  0  0
   26.8352  -25.2243  -16.6221 C   0  0  0  0  0  0  0  0  0  0  0  0
   21.6519  -20.6881  -14.6282 O   0  0  0  0  0  0  0  0  0  0  0  0
   21.8842  -20.3161  -13.4519 N   0  0  0  0  0  0  0  0  0  0  0  0
   18.5156  -17.6933  -14.9669 C   0  0  0  0  0  0  0  0  0  0  0  0
   18.2847  -18.7372  -14.0398 O   0  0  0  0  0  0  0  0  0  0  0  0
   18.1489  -18.4607  -12.8388 C   0  0  0  0  0  0  0  0  0  0  0  0
   18.2123  -20.1153  -14.5211 C   0  0  2  0  0  0  0  0  0  0  0  0
   19.2824  -21.0427  -14.0303 N   0  0  0  0  0  0  0  0  0  0  0  0
   20.3407  -21.0790  -15.0441 C   0  0  0  0  0  0  0  0  0  0  0  0
   18.8392  -22.4543  -13.8911 O   0  0  0  0  0  0  0  0  0  0  0  0
   17.9364  -22.8223  -12.9205 O   0  0  0  0  0  0  0  0  0  0  0  0
  2  1  1  0
  3  2  2  0
  4  2  1  0
  5  4  1  0
  6  5  1  0
  7  6  1  0
  8  7  1  0
  8  9  1  6
 10  8  1  0
 10 11  2  0
 12 10  1  0
 13 12  1  0
 13 14  1  6
 15 14  1  0
 16 17  1  0
 16 15  1  0
 18 17  1  0
 19 13  1  0
 20 19  2  0
 22 23  2  0
 22 21  1  0
 24 22  1  0
 25 24  1  1
 25 26  1  0
 26 19  1  0
 27 28  1  0
 27 25  1  0
 29 27  2  0
M  END
$$$$
