PLN.pdb
     RDKit          3D

 24 24  0  0  1  0  0  0  0  0999 V2000
    7.1100  -14.9848   21.1908 N   0  0  0  0  0  0  0  0  0  0  0  0
    6.4561  -14.0677   20.2952 C   0  0  0  0  0  0  0  0  0  0  0  0
    7.5272  -13.2242   19.6535 C   0  0  0  0  0  0  0  0  0  0  0  0
    8.6766  -13.2824   20.6317 C   0  0  0  0  0  0  0  0  0  0  0  0
    8.4492  -14.5545   21.4063 C   0  0  1  0  0  0  0  0  0  0  0  0
    8.7332  -14.4172   22.8559 C   0  0  0  0  0  0  0  0  0  0  0  0
    9.9452  -14.3499   23.2406 O   0  0  0  0  0  0  0  0  0  0  0  0
    5.6287  -11.3726   26.0909 C   0  0  0  0  0  0  0  0  0  0  0  0
    6.8175  -12.0939   25.5158 C   0  0  1  0  0  0  0  0  0  0  0  0
    8.0464  -11.2976   25.9853 C   0  0  0  0  0  0  0  0  0  0  0  0
    7.0106  -13.4896   26.0010 C   0  0  0  0  0  0  0  0  0  0  0  0
    7.9990  -14.3263   25.2725 C   0  0  2  0  0  0  0  0  0  0  0  0
    7.7518  -14.3545   23.8517 N   0  0  0  0  0  0  0  0  0  0  0  0
    8.1278  -15.6540   25.8970 C   0  0  0  0  0  0  0  0  0  0  0  0
    8.3214  -15.7141   27.1317 O   0  0  0  0  0  0  0  0  0  0  0  0
    8.2551  -21.5367   25.3602 N   0  0  0  0  0  0  0  0  0  0  0  0
    7.3380  -20.5171   25.7400 C   0  0  0  0  0  0  0  0  0  0  0  0
    6.5731  -20.7247   26.6953 O   0  0  0  0  0  0  0  0  0  0  0  0
    7.2523  -19.2007   25.0384 C   0  0  0  0  0  0  0  0  0  0  0  0
    8.1151  -18.1898   25.7684 C   0  0  2  0  0  0  0  0  0  0  0  0
    8.0452  -16.8862   25.1670 N   0  0  0  0  0  0  0  0  0  0  0  0
    9.5180  -18.6806   25.6693 C   0  0  0  0  0  0  0  0  0  0  0  0
    9.9161  -19.6623   26.3531 O   0  0  0  0  0  0  0  0  0  0  0  0
   10.4541  -18.0932   24.8298 O   0  0  0  0  0  0  0  0  0  0  0  0
  2  1  1  0
  3  2  1  0
  4  3  1  0
  4  5  1  0
  5  6  1  1
  5  1  1  0
  6  7  2  0
  9  8  1  1
  9 10  1  0
 11  9  1  0
 12 11  1  1
 13 12  1  0
 13  6  1  0
 14 15  2  0
 14 12  1  0
 16 17  1  0
 17 19  1  0
 17 18  2  0
 20 19  1  6
 20 21  1  0
 21 14  1  0
 22 20  1  0
 22 24  1  0
 23 22  2  0
M  END
$$$$
