PLN.pdb
     RDKit          3D

 24 24  0  0  1  0  0  0  0  0999 V2000
    7.3389  -15.0271   21.1996 N   0  0  0  0  0  0  0  0  0  0  0  0
    6.5603  -14.1680   20.3473 C   0  0  0  0  0  0  0  0  0  0  0  0
    7.5246  -13.2998   19.5812 C   0  0  0  0  0  0  0  0  0  0  0  0
    8.7643  -13.2774   20.4438 C   0  0  0  0  0  0  0  0  0  0  0  0
    8.6714  -14.5329   21.2715 C   0  0  1  0  0  0  0  0  0  0  0  0
    9.0871  -14.3375   22.6821 C   0  0  0  0  0  0  0  0  0  0  0  0
   10.3287  -14.2467   22.9495 O   0  0  0  0  0  0  0  0  0  0  0  0
    5.6692  -11.8649   26.3065 C   0  0  0  0  0  0  0  0  0  0  0  0
    6.8761  -12.3136   25.5278 C   0  0  1  0  0  0  0  0  0  0  0  0
    7.9298  -11.2129   25.7348 C   0  0  0  0  0  0  0  0  0  0  0  0
    7.4984  -13.5844   25.9952 C   0  0  0  0  0  0  0  0  0  0  0  0
    8.5791  -14.1567   25.1513 C   0  0  2  0  0  0  0  0  0  0  0  0
    8.2015  -14.2433   23.7618 N   0  0  0  0  0  0  0  0  0  0  0  0
    9.0872  -15.4138   25.7262 C   0  0  0  0  0  0  0  0  0  0  0  0
    9.4246  -15.4230   26.9311 O   0  0  0  0  0  0  0  0  0  0  0  0
   10.7634  -21.1140   24.4889 N   0  0  0  0  0  0  0  0  0  0  0  0
    9.9172  -20.2948   25.2874 C   0  0  0  0  0  0  0  0  0  0  0  0
    9.7303  -20.6047   26.4748 O   0  0  0  0  0  0  0  0  0  0  0  0
    9.2395  -19.0719   24.7604 C   0  0  0  0  0  0  0  0  0  0  0  0
    9.7421  -17.8581   25.5177 C   0  0  2  0  0  0  0  0  0  0  0  0
    9.2192  -16.6319   24.9800 N   0  0  0  0  0  0  0  0  0  0  0  0
   11.2236  -17.8468   25.3640 C   0  0  0  0  0  0  0  0  0  0  0  0
   11.9571  -18.6080   26.0513 O   0  0  0  0  0  0  0  0  0  0  0  0
   11.8723  -17.0091   24.4676 O   0  0  0  0  0  0  0  0  0  0  0  0
  2  1  1  0
  3  2  1  0
  4  3  1  0
  4  5  1  0
  5  6  1  1
  5  1  1  0
  6  7  2  0
  9  8  1  1
  9 10  1  0
 11  9  1  0
 12 11  1  1
 13 12  1  0
 13  6  1  0
 14 15  2  0
 14 12  1  0
 16 17  1  0
 17 19  1  0
 17 18  2  0
 20 19  1  6
 20 21  1  0
 21 14  1  0
 22 20  1  0
 22 24  1  0
 23 22  2  0
M  END
$$$$
