PLN.pdb
     RDKit          3D

 24 24  0  0  1  0  0  0  0  0999 V2000
    7.4002  -14.8603   20.8298 N   0  0  0  0  0  0  0  0  0  0  0  0
    6.4314  -14.0727   20.1142 C   0  0  0  0  0  0  0  0  0  0  0  0
    7.1712  -12.9347   19.4597 C   0  0  0  0  0  0  0  0  0  0  0  0
    8.4167  -12.7746   20.2990 C   0  0  0  0  0  0  0  0  0  0  0  0
    8.6098  -14.1202   20.9489 C   0  0  1  0  0  0  0  0  0  0  0  0
    9.0371  -14.0308   22.3667 C   0  0  0  0  0  0  0  0  0  0  0  0
   10.2478  -13.7334   22.6257 O   0  0  0  0  0  0  0  0  0  0  0  0
    5.5094  -12.5373   26.3552 C   0  0  0  0  0  0  0  0  0  0  0  0
    6.7613  -12.7146   25.5394 C   0  0  1  0  0  0  0  0  0  0  0  0
    7.6995  -11.5771   25.9761 C   0  0  0  0  0  0  0  0  0  0  0  0
    7.5019  -13.9854   25.7785 C   0  0  0  0  0  0  0  0  0  0  0  0
    8.6100  -14.3068   24.8424 C   0  0  2  0  0  0  0  0  0  0  0  0
    8.1945  -14.2523   23.4622 N   0  0  0  0  0  0  0  0  0  0  0  0
    9.2809  -15.5594   25.2298 C   0  0  0  0  0  0  0  0  0  0  0  0
    9.5400  -15.7456   26.4397 O   0  0  0  0  0  0  0  0  0  0  0  0
    9.6544  -20.2709   25.7037 N   0  0  0  0  0  0  0  0  0  0  0  0
    9.7877  -20.1586   24.2915 C   0  0  0  0  0  0  0  0  0  0  0  0
    9.5928  -21.1637   23.5894 O   0  0  0  0  0  0  0  0  0  0  0  0
   10.1534  -18.8800   23.6102 C   0  0  0  0  0  0  0  0  0  0  0  0
   10.3380  -17.7948   24.6531 C   0  0  2  0  0  0  0  0  0  0  0  0
    9.6566  -16.5809   24.2952 N   0  0  0  0  0  0  0  0  0  0  0  0
   11.7994  -17.5142   24.7178 C   0  0  0  0  0  0  0  0  0  0  0  0
   12.5446  -18.1181   25.5363 O   0  0  0  0  0  0  0  0  0  0  0  0
   12.4158  -16.5845   23.8920 O   0  0  0  0  0  0  0  0  0  0  0  0
  2  1  1  0
  3  2  1  0
  4  3  1  0
  4  5  1  0
  5  6  1  1
  5  1  1  0
  6  7  2  0
  9  8  1  1
  9 10  1  0
 11  9  1  0
 12 11  1  1
 13 12  1  0
 13  6  1  0
 14 15  2  0
 14 12  1  0
 16 17  1  0
 17 19  1  0
 17 18  2  0
 20 19  1  6
 20 21  1  0
 21 14  1  0
 22 20  1  0
 22 24  1  0
 23 22  2  0
M  END
$$$$
