PLN.pdb
     RDKit          3D

 24 24  0  0  1  0  0  0  0  0999 V2000
    7.3173  -14.9803   20.7434 N   0  0  0  0  0  0  0  0  0  0  0  0
    6.4638  -14.1157   19.9722 C   0  0  0  0  0  0  0  0  0  0  0  0
    7.3326  -13.0360   19.3809 C   0  0  0  0  0  0  0  0  0  0  0  0
    8.5268  -12.9781   20.3039 C   0  0  0  0  0  0  0  0  0  0  0  0
    8.5699  -14.3378   20.9515 C   0  0  1  0  0  0  0  0  0  0  0  0
    8.9053  -14.2892   22.3958 C   0  0  0  0  0  0  0  0  0  0  0  0
   10.1196  -14.1185   22.7389 O   0  0  0  0  0  0  0  0  0  0  0  0
    5.3907  -12.2644   26.2551 C   0  0  0  0  0  0  0  0  0  0  0  0
    6.6590  -12.6063   25.5210 C   0  0  1  0  0  0  0  0  0  0  0  0
    7.7479  -11.7211   26.1500 C   0  0  0  0  0  0  0  0  0  0  0  0
    7.1223  -14.0145   25.6731 C   0  0  0  0  0  0  0  0  0  0  0  0
    8.2765  -14.4387   24.8391 C   0  0  2  0  0  0  0  0  0  0  0  0
    7.9707  -14.4188   23.4296 N   0  0  0  0  0  0  0  0  0  0  0  0
    8.8387  -15.7104   25.3248 C   0  0  0  0  0  0  0  0  0  0  0  0
    8.9395  -15.8827   26.5600 O   0  0  0  0  0  0  0  0  0  0  0  0
    9.4846  -18.2885   21.4842 N   0  0  0  0  0  0  0  0  0  0  0  0
   10.2378  -18.7309   22.6076 C   0  0  0  0  0  0  0  0  0  0  0  0
   11.4742  -18.7907   22.5141 O   0  0  0  0  0  0  0  0  0  0  0  0
    9.6062  -19.1289   23.9019 C   0  0  0  0  0  0  0  0  0  0  0  0
    9.8093  -18.0209   24.9170 C   0  0  2  0  0  0  0  0  0  0  0  0
    9.2802  -16.7655   24.4588 N   0  0  0  0  0  0  0  0  0  0  0  0
   11.2809  -17.8755   25.0961 C   0  0  0  0  0  0  0  0  0  0  0  0
   11.9560  -18.7564   25.6945 O   0  0  0  0  0  0  0  0  0  0  0  0
   11.9833  -16.7768   24.6209 O   0  0  0  0  0  0  0  0  0  0  0  0
  2  1  1  0
  3  2  1  0
  4  3  1  0
  4  5  1  0
  5  6  1  1
  5  1  1  0
  6  7  2  0
  9  8  1  1
  9 10  1  0
 11  9  1  0
 12 11  1  1
 13 12  1  0
 13  6  1  0
 14 15  2  0
 14 12  1  0
 16 17  1  0
 17 19  1  0
 17 18  2  0
 20 19  1  6
 20 21  1  0
 21 14  1  0
 22 20  1  0
 22 24  1  0
 23 22  2  0
M  END
$$$$
