PLN.pdb
     RDKit          3D

 24 24  0  0  1  0  0  0  0  0999 V2000
    7.2676  -15.0508   20.1109 N   0  0  0  0  0  0  0  0  0  0  0  0
    6.4533  -14.2419   19.2428 C   0  0  0  0  0  0  0  0  0  0  0  0
    7.3471  -13.1903   18.6380 C   0  0  0  0  0  0  0  0  0  0  0  0
    8.4866  -13.0660   19.6215 C   0  0  0  0  0  0  0  0  0  0  0  0
    8.5020  -14.3846   20.3503 C   0  0  1  0  0  0  0  0  0  0  0  0
    8.7546  -14.2474   21.8057 C   0  0  0  0  0  0  0  0  0  0  0  0
    9.9520  -14.0893   22.2089 O   0  0  0  0  0  0  0  0  0  0  0  0
    8.1315  -12.2444   26.7318 C   0  0  0  0  0  0  0  0  0  0  0  0
    7.0530  -13.2288   26.3687 C   0  0  1  0  0  0  0  0  0  0  0  0
    5.7397  -12.5980   26.8608 C   0  0  0  0  0  0  0  0  0  0  0  0
    6.8804  -13.4738   24.9088 C   0  0  0  0  0  0  0  0  0  0  0  0
    7.9793  -14.1896   24.2105 C   0  0  2  0  0  0  0  0  0  0  0  0
    7.7580  -14.2787   22.7879 N   0  0  0  0  0  0  0  0  0  0  0  0
    8.2703  -15.4762   24.8656 C   0  0  0  0  0  0  0  0  0  0  0  0
    7.3236  -16.2700   25.0640 O   0  0  0  0  0  0  0  0  0  0  0  0
   11.4471  -20.1426   24.5907 N   0  0  0  0  0  0  0  0  0  0  0  0
   11.0620  -18.8279   24.2060 C   0  0  0  0  0  0  0  0  0  0  0  0
   10.5285  -18.6599   23.0978 O   0  0  0  0  0  0  0  0  0  0  0  0
   11.2707  -17.6333   25.0790 C   0  0  0  0  0  0  0  0  0  0  0  0
    9.9405  -17.2105   25.6715 C   0  0  2  0  0  0  0  0  0  0  0  0
    9.5818  -15.8714   25.2919 N   0  0  0  0  0  0  0  0  0  0  0  0
   10.1035  -17.2538   27.1515 C   0  0  0  0  0  0  0  0  0  0  0  0
   10.3763  -18.3312   27.7471 O   0  0  0  0  0  0  0  0  0  0  0  0
    9.9662  -16.1259   27.9485 O   0  0  0  0  0  0  0  0  0  0  0  0
  2  1  1  0
  3  2  1  0
  4  3  1  0
  4  5  1  0
  5  6  1  1
  5  1  1  0
  6  7  2  0
  9  8  1  6
  9 10  1  0
 11  9  1  0
 12 11  1  1
 13 12  1  0
 13  6  1  0
 14 15  2  0
 14 12  1  0
 16 17  1  0
 17 19  1  0
 17 18  2  0
 20 19  1  6
 20 21  1  0
 21 14  1  0
 22 20  1  0
 22 24  1  0
 23 22  2  0
M  END
$$$$
