PLN.pdb
     RDKit          3D

 24 24  0  0  1  0  0  0  0  0999 V2000
    7.1073  -14.7441   20.5276 N   0  0  0  0  0  0  0  0  0  0  0  0
    6.3653  -13.6991   19.8732 C   0  0  0  0  0  0  0  0  0  0  0  0
    7.3639  -12.7085   19.3327 C   0  0  0  0  0  0  0  0  0  0  0  0
    8.5853  -12.9077   20.1987 C   0  0  0  0  0  0  0  0  0  0  0  0
    8.4482  -14.3118   20.7279 C   0  0  1  0  0  0  0  0  0  0  0  0
    8.8380  -14.4420   22.1533 C   0  0  0  0  0  0  0  0  0  0  0  0
   10.0718  -14.5625   22.4441 O   0  0  0  0  0  0  0  0  0  0  0  0
    5.7106  -12.1853   26.1913 C   0  0  0  0  0  0  0  0  0  0  0  0
    6.8988  -12.6431   25.3894 C   0  0  1  0  0  0  0  0  0  0  0  0
    8.0972  -11.8581   25.9480 C   0  0  0  0  0  0  0  0  0  0  0  0
    7.2410  -14.0869   25.5271 C   0  0  0  0  0  0  0  0  0  0  0  0
    8.2810  -14.6239   24.6118 C   0  0  2  0  0  0  0  0  0  0  0  0
    7.9356  -14.4422   23.2232 N   0  0  0  0  0  0  0  0  0  0  0  0
    8.6422  -16.0044   24.9763 C   0  0  0  0  0  0  0  0  0  0  0  0
    7.8175  -16.9161   24.7433 O   0  0  0  0  0  0  0  0  0  0  0  0
   13.2795  -19.5759   26.2106 N   0  0  0  0  0  0  0  0  0  0  0  0
   12.1644  -19.3256   25.3628 C   0  0  0  0  0  0  0  0  0  0  0  0
   11.5651  -20.2898   24.8608 O   0  0  0  0  0  0  0  0  0  0  0  0
   11.6784  -17.9484   25.0470 C   0  0  0  0  0  0  0  0  0  0  0  0
   10.3533  -17.7150   25.7464 C   0  0  2  0  0  0  0  0  0  0  0  0
    9.8896  -16.3638   25.5869 N   0  0  0  0  0  0  0  0  0  0  0  0
   10.5898  -17.9648   27.1956 C   0  0  0  0  0  0  0  0  0  0  0  0
   10.6575  -17.0129   28.0197 O   0  0  0  0  0  0  0  0  0  0  0  0
   10.7469  -19.2424   27.7145 O   0  0  0  0  0  0  0  0  0  0  0  0
  2  1  1  0
  3  2  1  0
  4  3  1  0
  4  5  1  0
  5  6  1  1
  5  1  1  0
  6  7  2  0
  9  8  1  1
  9 10  1  0
 11  9  1  0
 12 11  1  1
 13 12  1  0
 13  6  1  0
 14 15  2  0
 14 12  1  0
 16 17  1  0
 17 19  1  0
 17 18  2  0
 20 19  1  6
 20 21  1  0
 21 14  1  0
 22 20  1  0
 22 24  1  0
 23 22  2  0
M  END
$$$$
