PLN.pdb
     RDKit          3D

 24 24  0  0  1  0  0  0  0  0999 V2000
    7.2674  -14.8870   21.0207 N   0  0  0  0  0  0  0  0  0  0  0  0
    6.3826  -14.0041   20.3076 C   0  0  0  0  0  0  0  0  0  0  0  0
    7.2372  -12.9791   19.6078 C   0  0  0  0  0  0  0  0  0  0  0  0
    8.5141  -12.9524   20.4141 C   0  0  0  0  0  0  0  0  0  0  0  0
    8.5601  -14.2965   21.0933 C   0  0  1  0  0  0  0  0  0  0  0  0
    9.0314  -14.2278   22.4983 C   0  0  0  0  0  0  0  0  0  0  0  0
   10.2781  -14.0982   22.7222 O   0  0  0  0  0  0  0  0  0  0  0  0
    5.4761  -12.3963   26.2088 C   0  0  0  0  0  0  0  0  0  0  0  0
    6.7552  -12.6262   25.4502 C   0  0  1  0  0  0  0  0  0  0  0  0
    7.6088  -11.3710   25.6962 C   0  0  0  0  0  0  0  0  0  0  0  0
    7.5694  -13.7855   25.9125 C   0  0  0  0  0  0  0  0  0  0  0  0
    8.6286  -14.2754   24.9929 C   0  0  2  0  0  0  0  0  0  0  0  0
    8.1939  -14.2956   23.6177 N   0  0  0  0  0  0  0  0  0  0  0  0
    9.1972  -15.5463   25.4730 C   0  0  0  0  0  0  0  0  0  0  0  0
    9.4754  -15.6517   26.6884 O   0  0  0  0  0  0  0  0  0  0  0  0
   11.4853  -21.0632   23.8137 N   0  0  0  0  0  0  0  0  0  0  0  0
   10.6095  -20.2317   24.5663 C   0  0  0  0  0  0  0  0  0  0  0  0
   10.3321  -20.5540   25.7325 O   0  0  0  0  0  0  0  0  0  0  0  0
   10.0047  -18.9815   24.0151 C   0  0  0  0  0  0  0  0  0  0  0  0
   10.1048  -17.8801   25.0525 C   0  0  2  0  0  0  0  0  0  0  0  0
    9.4525  -16.6734   24.6230 N   0  0  0  0  0  0  0  0  0  0  0  0
   11.5561  -17.5950   25.2285 C   0  0  0  0  0  0  0  0  0  0  0  0
   12.1915  -18.0339   26.2252 O   0  0  0  0  0  0  0  0  0  0  0  0
   12.2819  -16.8401   24.3176 O   0  0  0  0  0  0  0  0  0  0  0  0
  2  1  1  0
  3  2  1  0
  4  3  1  0
  4  5  1  0
  5  6  1  1
  5  1  1  0
  6  7  2  0
  9  8  1  1
  9 10  1  0
 11  9  1  0
 12 11  1  1
 13 12  1  0
 13  6  1  0
 14 15  2  0
 14 12  1  0
 16 17  1  0
 17 19  1  0
 17 18  2  0
 20 19  1  6
 20 21  1  0
 21 14  1  0
 22 20  1  0
 22 24  1  0
 23 22  2  0
M  END
$$$$
