PLN.pdb
     RDKit          3D

 24 24  0  0  1  0  0  0  0  0999 V2000
    7.3523  -14.9805   20.1943 N   0  0  0  0  0  0  0  0  0  0  0  0
    6.4974  -14.1854   19.3530 C   0  0  0  0  0  0  0  0  0  0  0  0
    7.3489  -13.1039   18.7400 C   0  0  0  0  0  0  0  0  0  0  0  0
    8.5062  -12.9586   19.6996 C   0  0  0  0  0  0  0  0  0  0  0  0
    8.5733  -14.2835   20.4138 C   0  0  1  0  0  0  0  0  0  0  0  0
    8.8544  -14.1541   21.8647 C   0  0  0  0  0  0  0  0  0  0  0  0
   10.0474  -13.9147   22.2401 O   0  0  0  0  0  0  0  0  0  0  0  0
    8.3968  -12.2732   26.8130 C   0  0  0  0  0  0  0  0  0  0  0  0
    7.3101  -13.2602   26.4829 C   0  0  1  0  0  0  0  0  0  0  0  0
    6.0133  -12.6399   27.0291 C   0  0  0  0  0  0  0  0  0  0  0  0
    7.0839  -13.4945   25.0287 C   0  0  0  0  0  0  0  0  0  0  0  0
    8.1463  -14.2244   24.2897 C   0  0  2  0  0  0  0  0  0  0  0  0
    7.8898  -14.2772   22.8713 N   0  0  0  0  0  0  0  0  0  0  0  0
    8.4173  -15.5320   24.9110 C   0  0  0  0  0  0  0  0  0  0  0  0
    7.4455  -16.2620   25.2081 O   0  0  0  0  0  0  0  0  0  0  0  0
   10.5595  -18.9225   22.9646 N   0  0  0  0  0  0  0  0  0  0  0  0
   11.2520  -17.9133   23.6904 C   0  0  0  0  0  0  0  0  0  0  0  0
   11.8283  -17.0116   23.0614 O   0  0  0  0  0  0  0  0  0  0  0  0
   11.3180  -17.8882   25.1829 C   0  0  0  0  0  0  0  0  0  0  0  0
   10.0223  -17.3211   25.7296 C   0  0  2  0  0  0  0  0  0  0  0  0
    9.7368  -16.0169   25.1971 N   0  0  0  0  0  0  0  0  0  0  0  0
   10.2017  -17.2001   27.2033 C   0  0  0  0  0  0  0  0  0  0  0  0
   10.2655  -18.2219   27.9394 O   0  0  0  0  0  0  0  0  0  0  0  0
   10.3075  -15.9723   27.8417 O   0  0  0  0  0  0  0  0  0  0  0  0
  2  1  1  0
  3  2  1  0
  4  3  1  0
  4  5  1  0
  5  6  1  1
  5  1  1  0
  6  7  2  0
  9  8  1  6
  9 10  1  0
 11  9  1  0
 12 11  1  1
 13 12  1  0
 13  6  1  0
 14 15  2  0
 14 12  1  0
 16 17  1  0
 17 19  1  0
 17 18  2  0
 20 19  1  6
 20 21  1  0
 21 14  1  0
 22 20  1  0
 22 24  1  0
 23 22  2  0
M  END
$$$$
