CYV.pdb
     RDKit          3D

 26 26  0  0  1  0  0  0  0  0999 V2000
    8.2873  -18.2844   20.0492 N   0  0  0  0  0  0  0  0  0  0  0  0
    8.8720  -17.0863   20.5607 C   0  0  1  0  0  0  0  0  0  0  0  0
    8.2323  -15.9005   19.8489 C   0  0  0  0  0  0  0  0  0  0  0  0
    8.6177  -15.9372   18.0808 S   0  0  0  0  0  0  0  0  0  0  0  0
    8.7063  -16.9211   22.0160 C   0  0  0  0  0  0  0  0  0  0  0  0
    7.5954  -17.2446   22.5378 O   0  0  0  0  0  0  0  0  0  0  0  0
   10.9488  -16.1223   30.6594 O   0  0  0  0  0  0  0  0  0  0  0  0
   10.8958  -16.2709   29.2784 C   0  0  0  0  0  0  0  0  0  0  0  0
   11.2897  -15.2492   28.4337 C   0  0  0  0  0  0  0  0  0  0  0  0
   11.2379  -15.3951   27.0681 C   0  0  0  0  0  0  0  0  0  0  0  0
   10.7881  -16.5741   26.4579 C   0  0  0  0  0  0  0  0  0  0  0  0
   10.7119  -16.6835   24.9944 C   0  0  0  0  0  0  0  0  0  0  0  0
    9.4703  -16.2397   24.3295 C   0  0  2  0  0  0  0  0  0  0  0  0
    9.7086  -16.4241   22.8673 N   0  0  0  0  0  0  0  0  0  0  0  0
    9.0905  -14.8465   24.5873 C   0  0  0  0  0  0  0  0  0  0  0  0
    9.7893  -13.9511   23.9826 O   0  0  0  0  0  0  0  0  0  0  0  0
   10.4005  -17.5794   27.3143 C   0  0  0  0  0  0  0  0  0  0  0  0
   10.4508  -17.4373   28.6846 C   0  0  0  0  0  0  0  0  0  0  0  0
    5.4286  -13.1714   26.0114 C   0  0  0  0  0  0  0  0  0  0  0  0
    6.5520  -12.4557   25.3280 C   0  0  2  0  0  0  0  0  0  0  0  0
    6.3411  -12.5853   23.8371 C   0  0  0  0  0  0  0  0  0  0  0  0
    7.9130  -13.0075   25.6946 C   0  0  2  0  0  0  0  0  0  0  0  0
    8.0305  -14.4077   25.4276 N   0  0  0  0  0  0  0  0  0  0  0  0
    8.1469  -12.7358   27.1270 C   0  0  0  0  0  0  0  0  0  0  0  0
    8.1762  -11.5986   27.6203 O   0  0  0  0  0  0  0  0  0  0  0  0
    8.3558  -13.7956   28.0377 O   0  0  0  0  0  0  0  0  0  0  0  0
  2  3  1  0
  2  1  1  6
  4  3  1  0
  5  6  2  0
  5  2  1  0
  7  8  1  0
  8 18  2  0
  9 10  2  0
  9  8  1  0
 10 11  1  0
 11 17  2  0
 11 12  1  0
 13 12  1  1
 13 14  1  0
 14  5  1  0
 15 13  1  0
 15 16  2  0
 18 17  1  0
 20 19  1  1
 20 21  1  0
 22 23  1  1
 22 20  1  0
 23 15  1  0
 24 22  1  0
 25 24  2  0
 26 24  1  0
M  END
$$$$
