CYV.pdb
     RDKit          3D

 26 26  0  0  1  0  0  0  0  0999 V2000
    6.0511  -19.2704   19.6712 N   0  0  0  0  0  0  0  0  0  0  0  0
    5.5759  -18.5587   20.8143 C   0  0  1  0  0  0  0  0  0  0  0  0
    4.7853  -19.5270   21.6856 C   0  0  0  0  0  0  0  0  0  0  0  0
    4.1283  -18.6790   23.1434 S   0  0  0  0  0  0  0  0  0  0  0  0
    6.6489  -17.9505   21.6214 C   0  0  0  0  0  0  0  0  0  0  0  0
    7.7223  -18.6063   21.7912 O   0  0  0  0  0  0  0  0  0  0  0  0
    8.7764  -12.4724   17.6538 O   0  0  0  0  0  0  0  0  0  0  0  0
    8.4726  -12.9852   18.9095 C   0  0  0  0  0  0  0  0  0  0  0  0
    9.4470  -13.5691   19.6982 C   0  0  0  0  0  0  0  0  0  0  0  0
    9.1477  -14.0764   20.9400 C   0  0  0  0  0  0  0  0  0  0  0  0
    7.8527  -14.0324   21.4742 C   0  0  0  0  0  0  0  0  0  0  0  0
    7.5603  -14.6163   22.7907 C   0  0  0  0  0  0  0  0  0  0  0  0
    7.7092  -16.0769   22.9501 C   0  0  2  0  0  0  0  0  0  0  0  0
    6.5566  -16.6812   22.2185 N   0  0  0  0  0  0  0  0  0  0  0  0
    7.7078  -16.5544   24.3370 C   0  0  0  0  0  0  0  0  0  0  0  0
    6.7074  -16.1874   25.0581 O   0  0  0  0  0  0  0  0  0  0  0  0
    6.8966  -13.4478   20.6752 C   0  0  0  0  0  0  0  0  0  0  0  0
    7.1923  -12.9378   19.4290 C   0  0  0  0  0  0  0  0  0  0  0  0
    9.4426  -20.0661   25.9559 C   0  0  0  0  0  0  0  0  0  0  0  0
    8.3020  -19.2482   26.4771 C   0  0  2  0  0  0  0  0  0  0  0  0
    7.0570  -19.6647   25.7284 C   0  0  0  0  0  0  0  0  0  0  0  0
    8.5178  -17.7596   26.3083 C   0  0  2  0  0  0  0  0  0  0  0  0
    8.6959  -17.3797   24.9410 N   0  0  0  0  0  0  0  0  0  0  0  0
    9.6984  -17.3743   27.1070 C   0  0  0  0  0  0  0  0  0  0  0  0
   10.7503  -16.9343   26.6200 O   0  0  0  0  0  0  0  0  0  0  0  0
    9.6868  -17.4920   28.5150 O   0  0  0  0  0  0  0  0  0  0  0  0
  2  3  1  0
  2  1  1  6
  4  3  1  0
  5  6  2  0
  5  2  1  0
  7  8  1  0
  8 18  2  0
  9 10  2  0
  9  8  1  0
 10 11  1  0
 11 17  2  0
 11 12  1  0
 13 12  1  1
 13 14  1  0
 14  5  1  0
 15 13  1  0
 15 16  2  0
 18 17  1  0
 20 19  1  6
 20 21  1  0
 22 23  1  6
 22 20  1  0
 23 15  1  0
 24 22  1  0
 25 24  2  0
 26 24  1  0
M  END
$$$$
