CYV.pdb
     RDKit          3D

 26 26  0  0  1  0  0  0  0  0999 V2000
   10.1347  -17.0022   18.4169 N   0  0  0  0  0  0  0  0  0  0  0  0
    8.9616  -16.9433   19.2289 C   0  0  1  0  0  0  0  0  0  0  0  0
    8.4532  -18.3644   19.4382 C   0  0  0  0  0  0  0  0  0  0  0  0
    7.8745  -19.0691   17.8747 S   0  0  0  0  0  0  0  0  0  0  0  0
    9.1819  -16.3121   20.5426 C   0  0  0  0  0  0  0  0  0  0  0  0
   10.3565  -16.3128   21.0234 O   0  0  0  0  0  0  0  0  0  0  0  0
    6.9937  -11.8944   28.1104 O   0  0  0  0  0  0  0  0  0  0  0  0
    7.0595  -12.4542   26.8399 C   0  0  0  0  0  0  0  0  0  0  0  0
    6.3418  -13.5929   26.5223 C   0  0  0  0  0  0  0  0  0  0  0  0
    6.4061  -14.1473   25.2663 C   0  0  0  0  0  0  0  0  0  0  0  0
    7.1935  -13.5979   24.2451 C   0  0  0  0  0  0  0  0  0  0  0  0
    7.2669  -14.2368   22.9238 C   0  0  0  0  0  0  0  0  0  0  0  0
    8.4508  -15.0652   22.6188 C   0  0  2  0  0  0  0  0  0  0  0  0
    8.1653  -15.7057   21.3008 N   0  0  0  0  0  0  0  0  0  0  0  0
    8.7538  -16.1050   23.6082 C   0  0  0  0  0  0  0  0  0  0  0  0
    7.9402  -17.1011   23.6455 O   0  0  0  0  0  0  0  0  0  0  0  0
    7.9003  -12.4654   24.5798 C   0  0  0  0  0  0  0  0  0  0  0  0
    7.8388  -11.9060   25.8383 C   0  0  0  0  0  0  0  0  0  0  0  0
   12.5637  -16.9259   25.1910 C   0  0  0  0  0  0  0  0  0  0  0  0
   11.4397  -17.9030   25.0376 C   0  0  2  0  0  0  0  0  0  0  0  0
   11.4895  -18.4444   23.6276 C   0  0  0  0  0  0  0  0  0  0  0  0
   10.0817  -17.2850   25.2929 C   0  0  2  0  0  0  0  0  0  0  0  0
    9.8541  -16.1106   24.5090 N   0  0  0  0  0  0  0  0  0  0  0  0
    9.9853  -16.9692   26.7321 C   0  0  0  0  0  0  0  0  0  0  0  0
   10.0521  -17.8181   27.6333 O   0  0  0  0  0  0  0  0  0  0  0  0
    9.8060  -15.6373   27.1681 O   0  0  0  0  0  0  0  0  0  0  0  0
  2  3  1  0
  2  1  1  1
  4  3  1  0
  5  6  2  0
  5  2  1  0
  7  8  1  0
  8 18  2  0
  9 10  2  0
  9  8  1  0
 10 11  1  0
 11 17  2  0
 11 12  1  0
 13 12  1  1
 13 14  1  0
 14  5  1  0
 15 13  1  0
 15 16  2  0
 18 17  1  0
 20 19  1  6
 20 21  1  0
 22 23  1  6
 22 20  1  0
 23 15  1  0
 24 22  1  0
 25 24  2  0
 26 24  1  0
M  END
$$$$
