CYV.pdb
     RDKit          3D

 26 26  0  0  1  0  0  0  0  0999 V2000
    7.8938  -13.7663   19.3279 N   0  0  0  0  0  0  0  0  0  0  0  0
    7.5563  -14.9018   20.1253 C   0  0  1  0  0  0  0  0  0  0  0  0
    8.0073  -16.1558   19.3865 C   0  0  0  0  0  0  0  0  0  0  0  0
    6.6492  -16.8370   18.4029 S   0  0  0  0  0  0  0  0  0  0  0  0
    8.1680  -14.8865   21.4663 C   0  0  0  0  0  0  0  0  0  0  0  0
    9.3385  -14.4117   21.5906 O   0  0  0  0  0  0  0  0  0  0  0  0
    6.6304  -10.0212   27.4926 O   0  0  0  0  0  0  0  0  0  0  0  0
    6.7526  -11.2522   26.8588 C   0  0  0  0  0  0  0  0  0  0  0  0
    5.6908  -12.1366   26.8038 C   0  0  0  0  0  0  0  0  0  0  0  0
    5.8104  -13.3540   26.1773 C   0  0  0  0  0  0  0  0  0  0  0  0
    7.0015  -13.7664   25.5644 C   0  0  0  0  0  0  0  0  0  0  0  0
    7.1058  -15.0899   24.9343 C   0  0  0  0  0  0  0  0  0  0  0  0
    8.1936  -15.3105   23.9603 C   0  0  2  0  0  0  0  0  0  0  0  0
    7.5314  -15.3682   22.6234 N   0  0  0  0  0  0  0  0  0  0  0  0
    8.9754  -16.5343   24.1677 C   0  0  0  0  0  0  0  0  0  0  0  0
    8.3770  -17.6389   23.8894 O   0  0  0  0  0  0  0  0  0  0  0  0
    8.0469  -12.8735   25.6293 C   0  0  0  0  0  0  0  0  0  0  0  0
    7.9313  -11.6513   26.2567 C   0  0  0  0  0  0  0  0  0  0  0  0
   13.1975  -16.8736   24.4756 C   0  0  0  0  0  0  0  0  0  0  0  0
   12.2680  -17.9781   24.0787 C   0  0  2  0  0  0  0  0  0  0  0  0
   12.0744  -17.9012   22.5819 C   0  0  0  0  0  0  0  0  0  0  0  0
   10.9223  -17.8927   24.7664 C   0  0  2  0  0  0  0  0  0  0  0  0
   10.3167  -16.6037   24.6349 N   0  0  0  0  0  0  0  0  0  0  0  0
   11.1140  -18.2278   26.1916 C   0  0  0  0  0  0  0  0  0  0  0  0
   11.5862  -19.3016   26.5931 O   0  0  0  0  0  0  0  0  0  0  0  0
   10.7564  -17.3086   27.2033 O   0  0  0  0  0  0  0  0  0  0  0  0
  2  3  1  0
  2  1  1  6
  4  3  1  0
  5  6  2  0
  5  2  1  0
  7  8  1  0
  8 18  2  0
  9 10  2  0
  9  8  1  0
 10 11  1  0
 11 17  2  0
 11 12  1  0
 13 12  1  1
 13 14  1  0
 14  5  1  0
 15 13  1  0
 15 16  2  0
 18 17  1  0
 20 19  1  1
 20 21  1  0
 22 23  1  1
 22 20  1  0
 23 15  1  0
 24 22  1  0
 25 24  2  0
 26 24  1  0
M  END
$$$$
