CYV.pdb
     RDKit          3D

 26 26  0  0  1  0  0  0  0  0999 V2000
    3.8771  -20.5054   23.1495 N   0  0  0  0  0  0  0  0  0  0  0  0
    5.2455  -20.1815   23.3979 C   0  0  1  0  0  0  0  0  0  0  0  0
    6.0965  -20.8441   22.3215 C   0  0  0  0  0  0  0  0  0  0  0  0
    7.8554  -20.6982   22.7226 S   0  0  0  0  0  0  0  0  0  0  0  0
    5.5193  -18.7332   23.4047 C   0  0  0  0  0  0  0  0  0  0  0  0
    4.9085  -17.9993   22.5685 O   0  0  0  0  0  0  0  0  0  0  0  0
    7.0940  -10.7549   27.1191 O   0  0  0  0  0  0  0  0  0  0  0  0
    7.0556  -12.0973   26.7610 C   0  0  0  0  0  0  0  0  0  0  0  0
    5.8549  -12.7757   26.6575 C   0  0  0  0  0  0  0  0  0  0  0  0
    5.8158  -14.1031   26.3034 C   0  0  0  0  0  0  0  0  0  0  0  0
    6.9768  -14.8391   26.0295 C   0  0  0  0  0  0  0  0  0  0  0  0
    6.9011  -16.2665   25.6883 C   0  0  0  0  0  0  0  0  0  0  0  0
    6.6152  -16.6301   24.2859 C   0  0  2  0  0  0  0  0  0  0  0  0
    6.4208  -18.1104   24.2854 N   0  0  0  0  0  0  0  0  0  0  0  0
    7.6667  -16.2785   23.3255 C   0  0  0  0  0  0  0  0  0  0  0  0
    8.5949  -17.1543   23.1609 O   0  0  0  0  0  0  0  0  0  0  0  0
    8.1617  -14.1475   26.1375 C   0  0  0  0  0  0  0  0  0  0  0  0
    8.2056  -12.8160   26.4924 C   0  0  0  0  0  0  0  0  0  0  0  0
    8.6481  -12.5591   21.2666 C   0  0  0  0  0  0  0  0  0  0  0  0
    8.3497  -13.8359   20.5440 C   0  0  2  0  0  0  0  0  0  0  0  0
    6.9070  -13.7856   20.0971 C   0  0  0  0  0  0  0  0  0  0  0  0
    8.5698  -15.0642   21.4008 C   0  0  2  0  0  0  0  0  0  0  0  0
    7.7436  -15.0773   22.5683 N   0  0  0  0  0  0  0  0  0  0  0  0
    9.9962  -15.1090   21.7798 C   0  0  0  0  0  0  0  0  0  0  0  0
   10.9275  -15.1760   20.9641 O   0  0  0  0  0  0  0  0  0  0  0  0
   10.3833  -15.0763   23.1382 O   0  0  0  0  0  0  0  0  0  0  0  0
  2  3  1  0
  2  1  1  6
  4  3  1  0
  5  6  2  0
  5  2  1  0
  7  8  1  0
  8 18  2  0
  9 10  2  0
  9  8  1  0
 10 11  1  0
 11 17  2  0
 11 12  1  0
 13 12  1  1
 13 14  1  0
 14  5  1  0
 15 13  1  0
 15 16  2  0
 18 17  1  0
 20 19  1  1
 20 21  1  0
 22 23  1  1
 22 20  1  0
 23 15  1  0
 24 22  1  0
 25 24  2  0
 26 24  1  0
M  END
$$$$
