VNG.pdb
     RDKit          3D

 20 19  0  0  1  0  0  0  0  0999 V2000
    7.3205  -12.6105   19.9769 C   0  0  0  0  0  0  0  0  0  0  0  0
    8.5698  -13.1027   19.2790 C   0  0  1  0  0  0  0  0  0  0  0  0
    9.7553  -12.2249   19.6099 C   0  0  0  0  0  0  0  0  0  0  0  0
    8.8264  -14.5322   19.7096 C   0  0  2  0  0  0  0  0  0  0  0  0
    8.9667  -14.6180   21.1638 N   0  0  0  0  0  0  0  0  0  0  0  0
   10.0059  -15.1065   19.0303 C   0  0  0  0  0  0  0  0  0  0  0  0
   10.0310  -15.1680   17.7905 O   0  0  0  0  0  0  0  0  0  0  0  0
   15.0282  -15.7176   17.9989 N   0  0  0  0  0  0  0  0  0  0  0  0
   14.3903  -14.4693   18.1904 C   0  0  0  0  0  0  0  0  0  0  0  0
   14.9923  -13.4418   17.7964 O   0  0  0  0  0  0  0  0  0  0  0  0
   13.0598  -14.3650   18.8316 C   0  0  0  0  0  0  0  0  0  0  0  0
   12.4544  -15.7127   19.1393 C   0  0  2  0  0  0  0  0  0  0  0  0
   11.1389  -15.6036   19.7358 N   0  0  0  0  0  0  0  0  0  0  0  0
   13.4016  -16.3772   20.0873 C   0  0  0  0  0  0  0  0  0  0  0  0
   14.2080  -17.2081   19.6295 O   0  0  0  0  0  0  0  0  0  0  0  0
   13.4223  -16.1078   21.4628 N   0  0  0  0  0  0  0  0  0  0  0  0
   12.7747  -17.0048   22.3988 C   0  0  0  0  0  0  0  0  0  0  0  0
   12.9324  -16.4875   23.7862 C   0  0  0  0  0  0  0  0  0  0  0  0
   12.3525  -17.1534   24.8565 O   0  0  0  0  0  0  0  0  0  0  0  0
   13.5856  -15.4451   24.0402 O   0  0  0  0  0  0  0  0  0  0  0  0
  2  1  1  1
  3  2  1  0
  4  2  1  0
  4  5  1  1
  6  4  1  0
  6  7  2  0
  8  9  1  0
  9 11  1  0
 10  9  2  0
 12 11  1  1
 12 13  1  0
 12 14  1  0
 13  6  1  0
 14 16  1  0
 15 14  2  0
 16 17  1  0
 17 18  1  0
 18 19  1  0
 20 18  2  0
M  END
$$$$
