VNG.pdb
     RDKit          3D

 20 19  0  0  1  0  0  0  0  0999 V2000
    7.0626  -12.4682   19.4965 C   0  0  0  0  0  0  0  0  0  0  0  0
    8.3961  -12.9143   18.9371 C   0  0  1  0  0  0  0  0  0  0  0  0
    9.5316  -12.1331   19.5582 C   0  0  0  0  0  0  0  0  0  0  0  0
    8.5562  -14.3963   19.2071 C   0  0  2  0  0  0  0  0  0  0  0  0
    8.4977  -14.6705   20.6434 N   0  0  0  0  0  0  0  0  0  0  0  0
    9.8014  -14.9299   18.6177 C   0  0  0  0  0  0  0  0  0  0  0  0
    9.8021  -15.3302   17.4424 O   0  0  0  0  0  0  0  0  0  0  0  0
   13.8281  -16.6997   16.5223 N   0  0  0  0  0  0  0  0  0  0  0  0
   13.0433  -15.5291   16.3963 C   0  0  0  0  0  0  0  0  0  0  0  0
   12.6431  -15.2178   15.2489 O   0  0  0  0  0  0  0  0  0  0  0  0
   12.6993  -14.6922   17.5682 C   0  0  0  0  0  0  0  0  0  0  0  0
   12.2549  -15.5091   18.7567 C   0  0  2  0  0  0  0  0  0  0  0  0
   11.0261  -15.0113   19.3403 N   0  0  0  0  0  0  0  0  0  0  0  0
   13.3721  -15.4262   19.7480 C   0  0  0  0  0  0  0  0  0  0  0  0
   13.7244  -14.3005   20.1465 O   0  0  0  0  0  0  0  0  0  0  0  0
   14.0377  -16.5546   20.2468 N   0  0  0  0  0  0  0  0  0  0  0  0
   14.4483  -16.6136   21.6353 C   0  0  0  0  0  0  0  0  0  0  0  0
   15.7262  -15.8712   21.8165 C   0  0  0  0  0  0  0  0  0  0  0  0
   16.8970  -16.3304   21.2302 O   0  0  0  0  0  0  0  0  0  0  0  0
   15.7957  -14.8170   22.4960 O   0  0  0  0  0  0  0  0  0  0  0  0
  2  1  1  1
  3  2  1  0
  4  2  1  0
  4  5  1  1
  6  4  1  0
  6  7  2  0
  8  9  1  0
  9 11  1  0
 10  9  2  0
 12 11  1  6
 12 13  1  0
 12 14  1  0
 13  6  1  0
 14 16  1  0
 15 14  2  0
 16 17  1  0
 17 18  1  0
 18 19  1  0
 20 18  2  0
M  END
$$$$
