VNG.pdb
     RDKit          3D

 20 19  0  0  1  0  0  0  0  0999 V2000
    8.9634  -14.5260   17.5755 C   0  0  0  0  0  0  0  0  0  0  0  0
    9.3059  -14.4357   19.0467 C   0  0  1  0  0  0  0  0  0  0  0  0
   10.4414  -13.4651   19.2790 C   0  0  0  0  0  0  0  0  0  0  0  0
    8.0665  -13.9986   19.8003 C   0  0  2  0  0  0  0  0  0  0  0  0
    7.5314  -12.7566   19.2412 N   0  0  0  0  0  0  0  0  0  0  0  0
    8.3257  -13.8578   21.2478 C   0  0  0  0  0  0  0  0  0  0  0  0
    7.9068  -12.8574   21.8522 O   0  0  0  0  0  0  0  0  0  0  0  0
    7.7298  -16.3625   25.7501 N   0  0  0  0  0  0  0  0  0  0  0  0
    6.8899  -16.4875   24.6183 C   0  0  0  0  0  0  0  0  0  0  0  0
    5.7868  -17.0643   24.7734 O   0  0  0  0  0  0  0  0  0  0  0  0
    7.2862  -15.9610   23.2924 C   0  0  0  0  0  0  0  0  0  0  0  0
    8.6289  -15.2726   23.3169 C   0  0  2  0  0  0  0  0  0  0  0  0
    9.0452  -14.8279   22.0027 N   0  0  0  0  0  0  0  0  0  0  0  0
    9.5937  -16.2816   23.8542 C   0  0  0  0  0  0  0  0  0  0  0  0
    9.4733  -16.6390   25.0407 O   0  0  0  0  0  0  0  0  0  0  0  0
   10.6234  -16.8408   23.0849 N   0  0  0  0  0  0  0  0  0  0  0  0
   11.8138  -16.0732   22.7781 C   0  0  0  0  0  0  0  0  0  0  0  0
   12.9026  -16.4269   23.7303 C   0  0  0  0  0  0  0  0  0  0  0  0
   12.6826  -16.3838   25.0996 O   0  0  0  0  0  0  0  0  0  0  0  0
   14.0452  -16.7727   23.3397 O   0  0  0  0  0  0  0  0  0  0  0  0
  2  1  1  6
  3  2  1  0
  4  2  1  0
  4  5  1  6
  6  4  1  0
  6  7  2  0
  8  9  1  0
  9 11  1  0
 10  9  2  0
 12 11  1  6
 12 13  1  0
 12 14  1  0
 13  6  1  0
 14 16  1  0
 15 14  2  0
 16 17  1  0
 17 18  1  0
 18 19  1  0
 20 18  2  0
M  END
$$$$
