VNG.pdb
     RDKit          3D

 20 19  0  0  1  0  0  0  0  0999 V2000
    9.3217  -12.6330   20.4898 C   0  0  0  0  0  0  0  0  0  0  0  0
    8.1506  -13.2861   19.7885 C   0  0  1  0  0  0  0  0  0  0  0  0
    7.5064  -12.3318   18.8088 C   0  0  0  0  0  0  0  0  0  0  0  0
    8.6506  -14.5262   19.0764 C   0  0  2  0  0  0  0  0  0  0  0  0
    7.5661  -15.1707   18.3349 N   0  0  0  0  0  0  0  0  0  0  0  0
    9.2886  -15.4758   20.0112 C   0  0  0  0  0  0  0  0  0  0  0  0
    8.5823  -16.2494   20.6778 O   0  0  0  0  0  0  0  0  0  0  0  0
   10.5121  -19.3455   19.5170 N   0  0  0  0  0  0  0  0  0  0  0  0
   11.3259  -18.2263   19.2221 C   0  0  0  0  0  0  0  0  0  0  0  0
   11.3469  -17.8187   18.0359 O   0  0  0  0  0  0  0  0  0  0  0  0
   12.1293  -17.5507   20.2663 C   0  0  0  0  0  0  0  0  0  0  0  0
   11.3323  -16.5354   21.0482 C   0  0  2  0  0  0  0  0  0  0  0  0
   10.6992  -15.5530   20.1925 N   0  0  0  0  0  0  0  0  0  0  0  0
   12.3084  -15.8723   21.9674 C   0  0  0  0  0  0  0  0  0  0  0  0
   13.0874  -15.0268   21.4897 O   0  0  0  0  0  0  0  0  0  0  0  0
   12.3853  -16.1588   23.3375 N   0  0  0  0  0  0  0  0  0  0  0  0
   13.2601  -17.2074   23.8227 C   0  0  0  0  0  0  0  0  0  0  0  0
   14.6220  -16.6569   24.0663 C   0  0  0  0  0  0  0  0  0  0  0  0
   15.1067  -16.5227   25.3594 O   0  0  0  0  0  0  0  0  0  0  0  0
   15.3750  -16.2977   23.1273 O   0  0  0  0  0  0  0  0  0  0  0  0
  2  1  1  6
  3  2  1  0
  4  2  1  0
  4  5  1  1
  6  4  1  0
  6  7  2  0
  8  9  1  0
  9 11  1  0
 10  9  2  0
 12 11  1  6
 12 13  1  0
 12 14  1  0
 13  6  1  0
 14 16  1  0
 15 14  2  0
 16 17  1  0
 17 18  1  0
 18 19  1  0
 20 18  2  0
M  END
$$$$
