VNG.pdb
     RDKit          3D

 20 19  0  0  1  0  0  0  0  0999 V2000
    7.2590  -14.2863   17.3125 C   0  0  0  0  0  0  0  0  0  0  0  0
    7.9644  -14.6220   18.6085 C   0  0  1  0  0  0  0  0  0  0  0  0
    9.3575  -15.1469   18.3456 C   0  0  0  0  0  0  0  0  0  0  0  0
    8.0165  -13.3717   19.4624 C   0  0  2  0  0  0  0  0  0  0  0  0
    8.7823  -12.3192   18.7936 N   0  0  0  0  0  0  0  0  0  0  0  0
    8.5617  -13.6482   20.8073 C   0  0  0  0  0  0  0  0  0  0  0  0
    9.7353  -13.3395   21.0696 O   0  0  0  0  0  0  0  0  0  0  0  0
    8.9382  -14.7031   26.0766 N   0  0  0  0  0  0  0  0  0  0  0  0
    7.8760  -15.3888   25.4415 C   0  0  0  0  0  0  0  0  0  0  0  0
    7.4257  -16.4145   26.0061 O   0  0  0  0  0  0  0  0  0  0  0  0
    7.3067  -14.9236   24.1563 C   0  0  0  0  0  0  0  0  0  0  0  0
    8.3646  -14.6564   23.1137 C   0  0  2  0  0  0  0  0  0  0  0  0
    7.7974  -14.2626   21.8403 N   0  0  0  0  0  0  0  0  0  0  0  0
    9.1267  -15.9355   22.9701 C   0  0  0  0  0  0  0  0  0  0  0  0
    8.5648  -16.8973   22.4140 O   0  0  0  0  0  0  0  0  0  0  0  0
   10.4401  -16.0995   23.4318 N   0  0  0  0  0  0  0  0  0  0  0  0
   11.1639  -17.3280   23.1725 C   0  0  0  0  0  0  0  0  0  0  0  0
   11.4798  -18.0094   24.4582 C   0  0  0  0  0  0  0  0  0  0  0  0
   12.5103  -18.9358   24.5299 O   0  0  0  0  0  0  0  0  0  0  0  0
   10.8376  -17.7775   25.5125 O   0  0  0  0  0  0  0  0  0  0  0  0
  2  1  1  6
  3  2  1  0
  4  2  1  0
  4  5  1  6
  6  4  1  0
  6  7  2  0
  8  9  1  0
  9 11  1  0
 10  9  2  0
 12 11  1  1
 12 13  1  0
 12 14  1  0
 13  6  1  0
 14 16  1  0
 15 14  2  0
 16 17  1  0
 17 18  1  0
 18 19  1  0
 20 18  2  0
M  END
$$$$
