VNG.pdb
     RDKit          3D

 20 19  0  0  1  0  0  0  0  0999 V2000
    7.3023  -19.4721   18.2803 C   0  0  0  0  0  0  0  0  0  0  0  0
    8.2976  -19.2621   17.1600 C   0  0  1  0  0  0  0  0  0  0  0  0
    7.7779  -19.8342   15.8607 C   0  0  0  0  0  0  0  0  0  0  0  0
    8.5575  -17.7759   17.0236 C   0  0  2  0  0  0  0  0  0  0  0  0
    9.5100  -17.5134   15.9441 N   0  0  0  0  0  0  0  0  0  0  0  0
    9.0216  -17.1812   18.2938 C   0  0  0  0  0  0  0  0  0  0  0  0
   10.1742  -17.4108   18.6943 O   0  0  0  0  0  0  0  0  0  0  0  0
    6.8931  -12.7414   19.4003 N   0  0  0  0  0  0  0  0  0  0  0  0
    7.9890  -13.4409   19.9586 C   0  0  0  0  0  0  0  0  0  0  0  0
    9.1415  -13.0179   19.7005 O   0  0  0  0  0  0  0  0  0  0  0  0
    7.7970  -14.6309   20.8182 C   0  0  0  0  0  0  0  0  0  0  0  0
    8.6307  -15.8088   20.3767 C   0  0  2  0  0  0  0  0  0  0  0  0
    8.2009  -16.3416   19.1001 N   0  0  0  0  0  0  0  0  0  0  0  0
    8.4773  -16.8406   21.4488 C   0  0  0  0  0  0  0  0  0  0  0  0
    7.6723  -17.7715   21.2605 O   0  0  0  0  0  0  0  0  0  0  0  0
    9.1964  -16.8068   22.6516 N   0  0  0  0  0  0  0  0  0  0  0  0
   10.6117  -16.4952   22.6551 C   0  0  0  0  0  0  0  0  0  0  0  0
   11.0979  -16.3683   24.0568 C   0  0  0  0  0  0  0  0  0  0  0  0
   10.4736  -15.5025   24.9434 O   0  0  0  0  0  0  0  0  0  0  0  0
   12.0762  -17.0284   24.4868 O   0  0  0  0  0  0  0  0  0  0  0  0
  2  1  1  1
  3  2  1  0
  4  2  1  0
  4  5  1  6
  6  4  1  0
  6  7  2  0
  8  9  1  0
  9 11  1  0
 10  9  2  0
 12 11  1  1
 12 13  1  0
 12 14  1  0
 13  6  1  0
 14 16  1  0
 15 14  2  0
 16 17  1  0
 17 18  1  0
 18 19  1  0
 20 18  2  0
M  END
$$$$
