VNG.pdb
     RDKit          3D

 20 19  0  0  1  0  0  0  0  0999 V2000
    7.6760  -13.8909   18.4458 C   0  0  0  0  0  0  0  0  0  0  0  0
    7.9402  -13.6849   19.9215 C   0  0  1  0  0  0  0  0  0  0  0  0
    7.2892  -12.4129   20.4149 C   0  0  0  0  0  0  0  0  0  0  0  0
    7.4062  -14.8858   20.6750 C   0  0  2  0  0  0  0  0  0  0  0  0
    6.0166  -15.1547   20.3032 N   0  0  0  0  0  0  0  0  0  0  0  0
    7.5393  -14.7197   22.1369 C   0  0  0  0  0  0  0  0  0  0  0  0
    6.6076  -14.2164   22.7851 O   0  0  0  0  0  0  0  0  0  0  0  0
    7.0676  -18.6153   25.9986 N   0  0  0  0  0  0  0  0  0  0  0  0
    7.6735  -17.3724   25.6989 C   0  0  0  0  0  0  0  0  0  0  0  0
    8.0852  -16.6792   26.6599 O   0  0  0  0  0  0  0  0  0  0  0  0
    7.8228  -16.8945   24.3055 C   0  0  0  0  0  0  0  0  0  0  0  0
    8.6554  -15.6399   24.2063 C   0  0  2  0  0  0  0  0  0  0  0  0
    8.7029  -15.1142   22.8573 N   0  0  0  0  0  0  0  0  0  0  0  0
   10.0270  -16.0245   24.6629 C   0  0  0  0  0  0  0  0  0  0  0  0
   10.4671  -15.5086   25.7070 O   0  0  0  0  0  0  0  0  0  0  0  0
   10.8361  -16.9363   23.9709 N   0  0  0  0  0  0  0  0  0  0  0  0
   12.2157  -16.6135   23.6666 C   0  0  0  0  0  0  0  0  0  0  0  0
   13.1227  -17.3525   24.5876 C   0  0  0  0  0  0  0  0  0  0  0  0
   14.4966  -17.1708   24.5194 O   0  0  0  0  0  0  0  0  0  0  0  0
   12.6889  -18.1569   25.4493 O   0  0  0  0  0  0  0  0  0  0  0  0
  2  1  1  6
  3  2  1  0
  4  2  1  0
  4  5  1  1
  6  4  1  0
  6  7  2  0
  8  9  1  0
  9 11  1  0
 10  9  2  0
 12 11  1  6
 12 13  1  0
 12 14  1  0
 13  6  1  0
 14 16  1  0
 15 14  2  0
 16 17  1  0
 17 18  1  0
 18 19  1  0
 20 18  2  0
M  END
$$$$
