VNG.pdb
     RDKit          3D

 20 19  0  0  1  0  0  0  0  0999 V2000
    7.8435  -12.2765   19.2068 C   0  0  0  0  0  0  0  0  0  0  0  0
    8.7089  -13.3231   19.8743 C   0  0  1  0  0  0  0  0  0  0  0  0
    7.9232  -14.0933   20.9111 C   0  0  0  0  0  0  0  0  0  0  0  0
    9.2415  -14.2556   18.8058 C   0  0  2  0  0  0  0  0  0  0  0  0
    8.1579  -15.0466   18.2215 N   0  0  0  0  0  0  0  0  0  0  0  0
   10.3131  -15.1299   19.3252 C   0  0  0  0  0  0  0  0  0  0  0  0
   10.1393  -16.3587   19.3619 O   0  0  0  0  0  0  0  0  0  0  0  0
   14.7120  -13.8119   17.8809 N   0  0  0  0  0  0  0  0  0  0  0  0
   14.4381  -14.9687   18.6482 C   0  0  0  0  0  0  0  0  0  0  0  0
   14.5866  -16.0837   18.0930 O   0  0  0  0  0  0  0  0  0  0  0  0
   13.9914  -14.8809   20.0571 C   0  0  0  0  0  0  0  0  0  0  0  0
   12.6258  -15.4856   20.2736 C   0  0  2  0  0  0  0  0  0  0  0  0
   11.5604  -14.6284   19.7956 N   0  0  0  0  0  0  0  0  0  0  0  0
   12.5026  -15.6941   21.7497 C   0  0  0  0  0  0  0  0  0  0  0  0
   13.4272  -16.2815   22.3414 O   0  0  0  0  0  0  0  0  0  0  0  0
   11.3971  -15.2597   22.4942 N   0  0  0  0  0  0  0  0  0  0  0  0
   11.3684  -15.4230   23.9338 C   0  0  0  0  0  0  0  0  0  0  0  0
   10.7867  -16.7490   24.2806 C   0  0  0  0  0  0  0  0  0  0  0  0
   10.6165  -17.1185   25.6072 O   0  0  0  0  0  0  0  0  0  0  0  0
   10.4322  -17.5734   23.4017 O   0  0  0  0  0  0  0  0  0  0  0  0
  2  1  1  6
  3  2  1  0
  4  2  1  0
  4  5  1  1
  6  4  1  0
  6  7  2  0
  8  9  1  0
  9 11  1  0
 10  9  2  0
 12 11  1  1
 12 13  1  0
 12 14  1  0
 13  6  1  0
 14 16  1  0
 15 14  2  0
 16 17  1  0
 17 18  1  0
 18 19  1  0
 20 18  2  0
M  END
$$$$
