VNG.pdb
     RDKit          3D

 20 19  0  0  1  0  0  0  0  0999 V2000
    8.9156  -13.3609   20.8929 C   0  0  0  0  0  0  0  0  0  0  0  0
    8.0921  -13.6753   19.6629 C   0  0  1  0  0  0  0  0  0  0  0  0
    7.2038  -12.5089   19.2943 C   0  0  0  0  0  0  0  0  0  0  0  0
    9.0374  -14.0072   18.5266 C   0  0  2  0  0  0  0  0  0  0  0  0
    8.2930  -14.2855   17.2978 N   0  0  0  0  0  0  0  0  0  0  0  0
    9.9323  -15.1319   18.8682 C   0  0  0  0  0  0  0  0  0  0  0  0
    9.6204  -16.2872   18.5375 O   0  0  0  0  0  0  0  0  0  0  0  0
   14.4780  -13.7829   18.4922 N   0  0  0  0  0  0  0  0  0  0  0  0
   14.0350  -15.1157   18.6633 C   0  0  0  0  0  0  0  0  0  0  0  0
   14.1096  -15.8849   17.6752 O   0  0  0  0  0  0  0  0  0  0  0  0
   13.5004  -15.5987   19.9568 C   0  0  0  0  0  0  0  0  0  0  0  0
   12.0641  -16.0515   19.8605 C   0  0  2  0  0  0  0  0  0  0  0  0
   11.1589  -14.9583   19.5711 N   0  0  0  0  0  0  0  0  0  0  0  0
   11.7388  -16.6582   21.1886 C   0  0  0  0  0  0  0  0  0  0  0  0
   12.3071  -17.7191   21.5072 O   0  0  0  0  0  0  0  0  0  0  0  0
   10.8264  -16.0882   22.0873 N   0  0  0  0  0  0  0  0  0  0  0  0
   10.4463  -16.7913   23.2961 C   0  0  0  0  0  0  0  0  0  0  0  0
   11.4391  -16.5196   24.3722 C   0  0  0  0  0  0  0  0  0  0  0  0
   11.2348  -17.0016   25.6572 O   0  0  0  0  0  0  0  0  0  0  0  0
   12.4842  -15.8546   24.1644 O   0  0  0  0  0  0  0  0  0  0  0  0
  2  1  1  1
  3  2  1  0
  4  2  1  0
  4  5  1  6
  6  4  1  0
  6  7  2  0
  8  9  1  0
  9 11  1  0
 10  9  2  0
 12 11  1  1
 12 13  1  0
 12 14  1  0
 13  6  1  0
 14 16  1  0
 15 14  2  0
 16 17  1  0
 17 18  1  0
 18 19  1  0
 20 18  2  0
M  END
$$$$
