EVY.pdb
     RDKit          3D

 29 29  0  0  1  0  0  0  0  0999 V2000
   19.6008  -12.8412  -18.6383 N   0  0  0  0  0  0  0  0  0  0  0  0
   20.7205  -12.0695  -18.1228 C   0  0  1  0  0  0  0  0  0  0  0  0
   21.9082  -12.2317  -19.0178 C   0  0  0  0  0  0  0  0  0  0  0  0
   23.1068  -11.4326  -18.6171 C   0  0  0  0  0  0  0  0  0  0  0  0
   24.2142  -11.6693  -19.5546 C   0  0  0  0  0  0  0  0  0  0  0  0
   24.4036  -11.0288  -20.6150 O   0  0  0  0  0  0  0  0  0  0  0  0
   20.3674  -10.6169  -18.0560 C   0  0  0  0  0  0  0  0  0  0  0  0
   20.0754  -10.0460  -19.1317 O   0  0  0  0  0  0  0  0  0  0  0  0
   25.1551  -12.6802  -19.2793 O   0  0  0  0  0  0  0  0  0  0  0  0
   17.7130   -8.5768  -17.8352 C   0  0  0  0  0  0  0  0  0  0  0  0
   18.4866   -8.3899  -16.5638 C   0  0  2  0  0  0  0  0  0  0  0  0
   18.2463   -6.9789  -16.0642 C   0  0  0  0  0  0  0  0  0  0  0  0
   19.9783   -8.5576  -16.7433 C   0  0  2  0  0  0  0  0  0  0  0  0
   20.3685   -9.9413  -16.8239 N   0  0  0  0  0  0  0  0  0  0  0  0
   20.7451   -7.8912  -15.6749 C   0  0  0  0  0  0  0  0  0  0  0  0
   20.6061   -8.3243  -14.5015 O   0  0  0  0  0  0  0  0  0  0  0  0
   25.7787   -4.6058  -19.9158 O   0  0  0  0  0  0  0  0  0  0  0  0
   25.2915   -5.0849  -18.7018 C   0  0  0  0  0  0  0  0  0  0  0  0
   24.8404   -6.3670  -18.5517 C   0  0  0  0  0  0  0  0  0  0  0  0
   24.3629   -6.8018  -17.3233 C   0  0  0  0  0  0  0  0  0  0  0  0
   24.3138   -5.9886  -16.2026 C   0  0  0  0  0  0  0  0  0  0  0  0
   23.8000   -6.4363  -14.8907 C   0  0  0  0  0  0  0  0  0  0  0  0
   22.3353   -6.2167  -14.7959 C   0  0  2  0  0  0  0  0  0  0  0  0
   21.6180   -6.7933  -15.9233 N   0  0  0  0  0  0  0  0  0  0  0  0
   22.0413   -4.7596  -14.7668 C   0  0  0  0  0  0  0  0  0  0  0  0
   22.4356   -4.0343  -13.6400 O   0  0  0  0  0  0  0  0  0  0  0  0
   24.7824   -4.6796  -16.3839 C   0  0  0  0  0  0  0  0  0  0  0  0
   25.2556   -4.2527  -17.6059 C   0  0  0  0  0  0  0  0  0  0  0  0
   21.4683   -4.1174  -15.6647 O   0  0  0  0  0  0  0  0  0  0  0  0
  2  1  1  6
  2  3  1  0
  3  4  1  0
  4  5  1  0
  5  6  2  0
  5  9  1  0
  7  8  2  0
  7  2  1  0
 11 10  1  6
 11 13  1  0
 12 11  1  0
 13 14  1  1
 14  7  1  0
 15 24  1  0
 15 13  1  0
 16 15  2  0
 18 17  1  0
 19 18  2  0
 20 19  1  0
 21 27  1  0
 21 20  2  0
 23 22  1  6
 22 21  1  0
 23 25  1  0
 23 24  1  0
 25 26  1  0
 27 28  2  0
 28 18  1  0
 29 25  2  0
M  END
$$$$
