EVY.pdb
     RDKit          3D

 29 29  0  0  1  0  0  0  0  0999 V2000
   16.5156  -11.7680  -19.2725 N   0  0  0  0  0  0  0  0  0  0  0  0
   17.3044  -11.2987  -18.1445 C   0  0  1  0  0  0  0  0  0  0  0  0
   18.7430  -11.6581  -18.3421 C   0  0  0  0  0  0  0  0  0  0  0  0
   18.9756  -13.0335  -18.8808 C   0  0  0  0  0  0  0  0  0  0  0  0
   19.4900  -13.9153  -17.8230 C   0  0  0  0  0  0  0  0  0  0  0  0
   18.8898  -14.9193  -17.3733 O   0  0  0  0  0  0  0  0  0  0  0  0
   17.1971   -9.8118  -18.0142 C   0  0  0  0  0  0  0  0  0  0  0  0
   16.9952   -9.1558  -19.0616 O   0  0  0  0  0  0  0  0  0  0  0  0
   20.7463  -13.6493  -17.2450 O   0  0  0  0  0  0  0  0  0  0  0  0
   14.6136   -7.7597  -16.7799 C   0  0  0  0  0  0  0  0  0  0  0  0
   15.8110   -7.4484  -15.9318 C   0  0  2  0  0  0  0  0  0  0  0  0
   15.8141   -5.9606  -15.6413 C   0  0  0  0  0  0  0  0  0  0  0  0
   17.1224   -7.7796  -16.6072 C   0  0  2  0  0  0  0  0  0  0  0  0
   17.3194   -9.1982  -16.7560 N   0  0  0  0  0  0  0  0  0  0  0  0
   18.2755   -7.1939  -15.8995 C   0  0  0  0  0  0  0  0  0  0  0  0
   18.2967   -5.9439  -15.7556 O   0  0  0  0  0  0  0  0  0  0  0  0
   23.1737  -11.9278  -18.1575 O   0  0  0  0  0  0  0  0  0  0  0  0
   22.7725  -11.0056  -17.1936 C   0  0  0  0  0  0  0  0  0  0  0  0
   23.3701   -9.7829  -17.0604 C   0  0  0  0  0  0  0  0  0  0  0  0
   22.9379   -8.8950  -16.0853 C   0  0  0  0  0  0  0  0  0  0  0  0
   21.9034   -9.1819  -15.2093 C   0  0  0  0  0  0  0  0  0  0  0  0
   21.4388   -8.2490  -14.1609 C   0  0  0  0  0  0  0  0  0  0  0  0
   20.4368   -7.2998  -14.7067 C   0  0  2  0  0  0  0  0  0  0  0  0
   19.3457   -7.9818  -15.3866 N   0  0  0  0  0  0  0  0  0  0  0  0
   21.0834   -6.3869  -15.6861 C   0  0  0  0  0  0  0  0  0  0  0  0
   20.6663   -6.4535  -17.0176 O   0  0  0  0  0  0  0  0  0  0  0  0
   21.3082  -10.4415  -15.3677 C   0  0  0  0  0  0  0  0  0  0  0  0
   21.7411  -11.3196  -16.3377 C   0  0  0  0  0  0  0  0  0  0  0  0
   21.9740   -5.5585  -15.4268 O   0  0  0  0  0  0  0  0  0  0  0  0
  2  1  1  6
  2  3  1  0
  3  4  1  0
  4  5  1  0
  5  6  2  0
  5  9  1  0
  7  8  2  0
  7  2  1  0
 11 10  1  6
 11 13  1  0
 12 11  1  0
 13 14  1  1
 14  7  1  0
 15 24  1  0
 15 13  1  0
 16 15  2  0
 18 17  1  0
 19 18  2  0
 20 19  1  0
 21 27  1  0
 21 20  2  0
 23 22  1  6
 22 21  1  0
 23 25  1  0
 23 24  1  0
 25 26  1  0
 27 28  2  0
 28 18  1  0
 29 25  2  0
M  END
$$$$
