EVY.pdb
     RDKit          3D

 29 29  0  0  1  0  0  0  0  0999 V2000
   27.4977  -23.2941  -15.9184 N   0  0  0  0  0  0  0  0  0  0  0  0
   27.0190  -21.9548  -15.6151 C   0  0  1  0  0  0  0  0  0  0  0  0
   26.5251  -21.2937  -16.8628 C   0  0  0  0  0  0  0  0  0  0  0  0
   27.4285  -20.2348  -17.4091 C   0  0  0  0  0  0  0  0  0  0  0  0
   28.6185  -20.8450  -18.0198 C   0  0  0  0  0  0  0  0  0  0  0  0
   28.5941  -21.7516  -18.8846 O   0  0  0  0  0  0  0  0  0  0  0  0
   25.8956  -22.0124  -14.6281 C   0  0  0  0  0  0  0  0  0  0  0  0
   25.1027  -22.9777  -14.7150 O   0  0  0  0  0  0  0  0  0  0  0  0
   29.9004  -20.4080  -17.6340 O   0  0  0  0  0  0  0  0  0  0  0  0
   26.2827  -21.4454  -10.6668 C   0  0  0  0  0  0  0  0  0  0  0  0
   25.2207  -20.5919  -11.2942 C   0  0  2  0  0  0  0  0  0  0  0  0
   24.0222  -20.5656  -10.3662 C   0  0  0  0  0  0  0  0  0  0  0  0
   24.7461  -21.1168  -12.6302 C   0  0  2  0  0  0  0  0  0  0  0  0
   25.7569  -21.0126  -13.6505 N   0  0  0  0  0  0  0  0  0  0  0  0
   23.5155  -20.4448  -13.0859 C   0  0  0  0  0  0  0  0  0  0  0  0
   23.5864  -19.2163  -13.3496 O   0  0  0  0  0  0  0  0  0  0  0  0
   17.2402  -24.9165  -11.5457 O   0  0  0  0  0  0  0  0  0  0  0  0
   17.9687  -23.9999  -12.3005 C   0  0  0  0  0  0  0  0  0  0  0  0
   17.5803  -22.6961  -12.4384 C   0  0  0  0  0  0  0  0  0  0  0  0
   18.3368  -21.8172  -13.2007 C   0  0  0  0  0  0  0  0  0  0  0  0
   19.5003  -22.1931  -13.8523 C   0  0  0  0  0  0  0  0  0  0  0  0
   20.3109  -21.2695  -14.6741 C   0  0  0  0  0  0  0  0  0  0  0  0
   21.1549  -20.4024  -13.8147 C   0  0  2  0  0  0  0  0  0  0  0  0
   22.2737  -21.1275  -13.2313 N   0  0  0  0  0  0  0  0  0  0  0  0
   20.3423  -19.8468  -12.7006 C   0  0  0  0  0  0  0  0  0  0  0  0
   20.5676  -20.3435  -11.4146 O   0  0  0  0  0  0  0  0  0  0  0  0
   19.8759  -23.5347  -13.6942 C   0  0  0  0  0  0  0  0  0  0  0  0
   19.1211  -24.4036  -12.9360 C   0  0  0  0  0  0  0  0  0  0  0  0
   19.4677  -18.9692  -12.8086 O   0  0  0  0  0  0  0  0  0  0  0  0
  2  1  1  6
  2  3  1  0
  3  4  1  0
  4  5  1  0
  5  6  2  0
  5  9  1  0
  7  8  2  0
  7  2  1  0
 11 10  1  1
 11 13  1  0
 12 11  1  0
 13 14  1  6
 14  7  1  0
 15 24  1  0
 15 13  1  0
 16 15  2  0
 18 17  1  0
 19 18  2  0
 20 19  1  0
 21 27  1  0
 21 20  2  0
 23 22  1  1
 22 21  1  0
 23 25  1  0
 23 24  1  0
 25 26  1  0
 27 28  2  0
 28 18  1  0
 29 25  2  0
M  END
$$$$
