EVY.pdb
     RDKit          3D

 29 29  0  0  1  0  0  0  0  0999 V2000
   22.6723  -13.2038  -19.5683 N   0  0  0  0  0  0  0  0  0  0  0  0
   23.0396  -11.8029  -19.4356 C   0  0  1  0  0  0  0  0  0  0  0  0
   22.4255  -11.0064  -20.5430 C   0  0  0  0  0  0  0  0  0  0  0  0
   22.9511  -11.3229  -21.9066 C   0  0  0  0  0  0  0  0  0  0  0  0
   22.0127  -12.1978  -22.6244 C   0  0  0  0  0  0  0  0  0  0  0  0
   20.9643  -12.6785  -22.1341 O   0  0  0  0  0  0  0  0  0  0  0  0
   22.5552  -11.2571  -18.1291 C   0  0  0  0  0  0  0  0  0  0  0  0
   21.4249  -11.6256  -17.7356 O   0  0  0  0  0  0  0  0  0  0  0  0
   22.2721  -12.5466  -23.9639 O   0  0  0  0  0  0  0  0  0  0  0  0
   23.2801  -10.3360  -13.6043 C   0  0  0  0  0  0  0  0  0  0  0  0
   23.5100  -10.8587  -14.9913 C   0  0  2  0  0  0  0  0  0  0  0  0
   25.0051  -10.9750  -15.2138 C   0  0  0  0  0  0  0  0  0  0  0  0
   22.9621   -9.9511  -16.0691 C   0  0  2  0  0  0  0  0  0  0  0  0
   23.3549  -10.3692  -17.3898 N   0  0  0  0  0  0  0  0  0  0  0  0
   23.3514   -8.5444  -15.8618 C   0  0  0  0  0  0  0  0  0  0  0  0
   24.4973   -8.1946  -16.2466 O   0  0  0  0  0  0  0  0  0  0  0  0
   17.1947   -5.4323  -17.7784 O   0  0  0  0  0  0  0  0  0  0  0  0
   18.5391   -5.4072  -17.4142 C   0  0  0  0  0  0  0  0  0  0  0  0
   19.0458   -4.4679  -16.5594 C   0  0  0  0  0  0  0  0  0  0  0  0
   20.3924   -4.4804  -16.2242 C   0  0  0  0  0  0  0  0  0  0  0  0
   21.2842   -5.4179  -16.7198 C   0  0  0  0  0  0  0  0  0  0  0  0
   22.7223   -5.4376  -16.3777 C   0  0  0  0  0  0  0  0  0  0  0  0
   22.9578   -6.2155  -15.1359 C   0  0  2  0  0  0  0  0  0  0  0  0
   22.4902   -7.5889  -15.2496 N   0  0  0  0  0  0  0  0  0  0  0  0
   22.2403   -5.5835  -13.9973 C   0  0  0  0  0  0  0  0  0  0  0  0
   22.6592   -4.3177  -13.5808 O   0  0  0  0  0  0  0  0  0  0  0  0
   20.7387   -6.3692  -17.5935 C   0  0  0  0  0  0  0  0  0  0  0  0
   19.4006   -6.3524  -17.9231 C   0  0  0  0  0  0  0  0  0  0  0  0
   21.2890   -6.0843  -13.3719 O   0  0  0  0  0  0  0  0  0  0  0  0
  2  1  1  6
  2  3  1  0
  3  4  1  0
  4  5  1  0
  5  6  2  0
  5  9  1  0
  7  8  2  0
  7  2  1  0
 11 10  1  1
 11 13  1  0
 12 11  1  0
 13 14  1  6
 14  7  1  0
 15 24  1  0
 15 13  1  0
 16 15  2  0
 18 17  1  0
 19 18  2  0
 20 19  1  0
 21 27  1  0
 21 20  2  0
 23 22  1  6
 22 21  1  0
 23 25  1  0
 23 24  1  0
 25 26  1  0
 27 28  2  0
 28 18  1  0
 29 25  2  0
M  END
$$$$
