EVY.pdb
     RDKit          3D

 29 29  0  0  1  0  0  0  0  0999 V2000
   28.1698  -20.6084  -18.3864 N   0  0  0  0  0  0  0  0  0  0  0  0
   27.0104  -19.9143  -17.8489 C   0  0  1  0  0  0  0  0  0  0  0  0
   26.0113  -19.6708  -18.9353 C   0  0  0  0  0  0  0  0  0  0  0  0
   25.9149  -18.2493  -19.3891 C   0  0  0  0  0  0  0  0  0  0  0  0
   26.8870  -17.9891  -20.4608 C   0  0  0  0  0  0  0  0  0  0  0  0
   26.9435  -16.9344  -21.1353 O   0  0  0  0  0  0  0  0  0  0  0  0
   26.3613  -20.7331  -16.7776 C   0  0  0  0  0  0  0  0  0  0  0  0
   26.2479  -21.9632  -16.9833 O   0  0  0  0  0  0  0  0  0  0  0  0
   27.8437  -18.9700  -20.7859 O   0  0  0  0  0  0  0  0  0  0  0  0
   27.4675  -21.2168  -13.2530 C   0  0  0  0  0  0  0  0  0  0  0  0
   26.0493  -20.7291  -13.2227 C   0  0  2  0  0  0  0  0  0  0  0  0
   25.2947  -21.5263  -12.1772 C   0  0  0  0  0  0  0  0  0  0  0  0
   25.3275  -20.9123  -14.5384 C   0  0  2  0  0  0  0  0  0  0  0  0
   25.9065  -20.1245  -15.5956 N   0  0  0  0  0  0  0  0  0  0  0  0
   23.8888  -20.6092  -14.4299 C   0  0  0  0  0  0  0  0  0  0  0  0
   23.5633  -19.4375  -14.1062 O   0  0  0  0  0  0  0  0  0  0  0  0
   15.3188  -19.7455  -15.2964 O   0  0  0  0  0  0  0  0  0  0  0  0
   16.6003  -20.2906  -15.3342 C   0  0  0  0  0  0  0  0  0  0  0  0
   16.9213  -21.4455  -14.6762 C   0  0  0  0  0  0  0  0  0  0  0  0
   18.2116  -21.9526  -14.7411 C   0  0  0  0  0  0  0  0  0  0  0  0
   19.2278  -21.3392  -15.4558 C   0  0  0  0  0  0  0  0  0  0  0  0
   20.6081  -21.8638  -15.5264 C   0  0  0  0  0  0  0  0  0  0  0  0
   21.4856  -21.1709  -14.5503 C   0  0  2  0  0  0  0  0  0  0  0  0
   22.8764  -21.5817  -14.6719 N   0  0  0  0  0  0  0  0  0  0  0  0
   21.0413  -21.4737  -13.1641 C   0  0  0  0  0  0  0  0  0  0  0  0
   20.2834  -20.5105  -12.4942 O   0  0  0  0  0  0  0  0  0  0  0  0
   18.8717  -20.1573  -16.1209 C   0  0  0  0  0  0  0  0  0  0  0  0
   17.5889  -19.6580  -16.0533 C   0  0  0  0  0  0  0  0  0  0  0  0
   21.2858  -22.5193  -12.5365 O   0  0  0  0  0  0  0  0  0  0  0  0
  2  1  1  6
  2  3  1  0
  3  4  1  0
  4  5  1  0
  5  6  2  0
  5  9  1  0
  7  8  2  0
  7  2  1  0
 11 10  1  6
 11 13  1  0
 12 11  1  0
 13 14  1  6
 14  7  1  0
 15 24  1  0
 15 13  1  0
 16 15  2  0
 18 17  1  0
 19 18  2  0
 20 19  1  0
 21 27  1  0
 21 20  2  0
 23 22  1  6
 22 21  1  0
 23 25  1  0
 23 24  1  0
 25 26  1  0
 27 28  2  0
 28 18  1  0
 29 25  2  0
M  END
$$$$
