EVY.pdb
     RDKit          3D

 29 29  0  0  1  0  0  0  0  0999 V2000
   29.9659    5.3748  -10.1517 N   0  0  0  0  0  0  0  0  0  0  0  0
   28.6825    5.1501   -9.5056 C   0  0  1  0  0  0  0  0  0  0  0  0
   27.8831    4.1572  -10.2885 C   0  0  0  0  0  0  0  0  0  0  0  0
   27.3952    4.6519  -11.6125 C   0  0  0  0  0  0  0  0  0  0  0  0
   26.4383    3.6981  -12.1922 C   0  0  0  0  0  0  0  0  0  0  0  0
   26.4406    3.3183  -13.3864 O   0  0  0  0  0  0  0  0  0  0  0  0
   28.8806    4.6186   -8.1208 C   0  0  0  0  0  0  0  0  0  0  0  0
   29.9137    3.9443   -7.9060 O   0  0  0  0  0  0  0  0  0  0  0  0
   25.4285    3.1455  -11.3810 O   0  0  0  0  0  0  0  0  0  0  0  0
   30.0665    6.1859   -5.2561 C   0  0  0  0  0  0  0  0  0  0  0  0
   28.6595    5.7663   -4.9488 C   0  0  2  0  0  0  0  0  0  0  0  0
   28.5833    5.3979   -3.4803 C   0  0  0  0  0  0  0  0  0  0  0  0
   28.2106    4.5595   -5.7412 C   0  0  2  0  0  0  0  0  0  0  0  0
   27.9324    4.8799   -7.1172 N   0  0  0  0  0  0  0  0  0  0  0  0
   27.0335    3.9065   -5.1400 C   0  0  0  0  0  0  0  0  0  0  0  0
   25.9324    4.5118   -5.2103 O   0  0  0  0  0  0  0  0  0  0  0  0
   23.9546    1.0027   -9.8478 O   0  0  0  0  0  0  0  0  0  0  0  0
   24.3738    0.9419   -8.5207 C   0  0  0  0  0  0  0  0  0  0  0  0
   25.6709    0.6792   -8.1768 C   0  0  0  0  0  0  0  0  0  0  0  0
   26.0443    0.6277   -6.8411 C   0  0  0  0  0  0  0  0  0  0  0  0
   25.1528    0.8329   -5.8005 C   0  0  0  0  0  0  0  0  0  0  0  0
   25.5353    0.7726   -4.3737 C   0  0  0  0  0  0  0  0  0  0  0  0
   25.8951    2.1205   -3.8674 C   0  0  2  0  0  0  0  0  0  0  0  0
   27.1023    2.6393   -4.4928 N   0  0  0  0  0  0  0  0  0  0  0  0
   26.1304    2.0655   -2.4003 C   0  0  0  0  0  0  0  0  0  0  0  0
   25.0346    1.8177   -1.5702 O   0  0  0  0  0  0  0  0  0  0  0  0
   23.8300    1.1004   -6.1808 C   0  0  0  0  0  0  0  0  0  0  0  0
   23.4644    1.1505   -7.5087 C   0  0  0  0  0  0  0  0  0  0  0  0
   27.2272    2.2224   -1.8355 O   0  0  0  0  0  0  0  0  0  0  0  0
  2  1  1  6
  2  3  1  0
  3  4  1  0
  4  5  1  0
  5  6  2  0
  5  9  1  0
  7  8  2  0
  7  2  1  0
 11 10  1  6
 11 13  1  0
 12 11  1  0
 13 14  1  6
 14  7  1  0
 15 24  1  0
 15 13  1  0
 16 15  2  0
 18 17  1  0
 19 18  2  0
 20 19  1  0
 21 27  1  0
 21 20  2  0
 23 22  1  6
 22 21  1  0
 23 25  1  0
 23 24  1  0
 25 26  1  0
 27 28  2  0
 28 18  1  0
 29 25  2  0
M  END
$$$$
