EVY.pdb
     RDKit          3D

 29 29  0  0  1  0  0  0  0  0999 V2000
   19.2339  -13.5232  -18.8021 N   0  0  0  0  0  0  0  0  0  0  0  0
   20.2837  -12.5290  -18.6463 C   0  0  1  0  0  0  0  0  0  0  0  0
   20.8527  -12.1727  -19.9831 C   0  0  0  0  0  0  0  0  0  0  0  0
   21.5404  -13.2969  -20.6897 C   0  0  0  0  0  0  0  0  0  0  0  0
   22.0904  -12.8330  -21.9717 C   0  0  0  0  0  0  0  0  0  0  0  0
   23.2230  -12.3177  -22.1203 O   0  0  0  0  0  0  0  0  0  0  0  0
   19.7381  -11.2876  -18.0132 C   0  0  0  0  0  0  0  0  0  0  0  0
   18.7296  -10.7676  -18.5428 O   0  0  0  0  0  0  0  0  0  0  0  0
   21.3215  -12.9584  -23.1450 O   0  0  0  0  0  0  0  0  0  0  0  0
   19.8514  -10.5013  -13.9830 C   0  0  0  0  0  0  0  0  0  0  0  0
   19.0885   -9.7359  -15.0233 C   0  0  2  0  0  0  0  0  0  0  0  0
   17.8515  -10.5328  -15.3879 C   0  0  0  0  0  0  0  0  0  0  0  0
   19.8741   -9.5137  -16.2957 C   0  0  2  0  0  0  0  0  0  0  0  0
   20.3487  -10.7463  -16.8692 N   0  0  0  0  0  0  0  0  0  0  0  0
   21.0094   -8.5949  -16.0946 C   0  0  0  0  0  0  0  0  0  0  0  0
   22.1323   -8.9512  -16.5371 O   0  0  0  0  0  0  0  0  0  0  0  0
   26.5510   -2.1289  -16.7482 O   0  0  0  0  0  0  0  0  0  0  0  0
   25.5682   -3.1161  -16.7563 C   0  0  0  0  0  0  0  0  0  0  0  0
   25.8623   -4.4397  -16.5794 C   0  0  0  0  0  0  0  0  0  0  0  0
   24.8508   -5.3898  -16.5954 C   0  0  0  0  0  0  0  0  0  0  0  0
   23.5168   -5.0678  -16.7862 C   0  0  0  0  0  0  0  0  0  0  0  0
   22.4307   -6.0704  -16.8138 C   0  0  0  0  0  0  0  0  0  0  0  0
   22.0169   -6.4369  -15.4364 C   0  0  2  0  0  0  0  0  0  0  0  0
   20.8787   -7.3437  -15.4264 N   0  0  0  0  0  0  0  0  0  0  0  0
   21.6326   -5.2159  -14.6800 C   0  0  0  0  0  0  0  0  0  0  0  0
   20.2854   -4.8468  -14.6732 O   0  0  0  0  0  0  0  0  0  0  0  0
   23.2429   -3.7044  -16.9648 C   0  0  0  0  0  0  0  0  0  0  0  0
   24.2511   -2.7648  -16.9480 C   0  0  0  0  0  0  0  0  0  0  0  0
   22.4099   -4.4820  -14.0446 O   0  0  0  0  0  0  0  0  0  0  0  0
  2  1  1  6
  2  3  1  0
  3  4  1  0
  4  5  1  0
  5  6  2  0
  5  9  1  0
  7  8  2  0
  7  2  1  0
 11 10  1  1
 11 13  1  0
 12 11  1  0
 13 14  1  1
 14  7  1  0
 15 24  1  0
 15 13  1  0
 16 15  2  0
 18 17  1  0
 19 18  2  0
 20 19  1  0
 21 27  1  0
 21 20  2  0
 23 22  1  6
 22 21  1  0
 23 25  1  0
 23 24  1  0
 25 26  1  0
 27 28  2  0
 28 18  1  0
 29 25  2  0
M  END
$$$$
