EVY.pdb
     RDKit          3D

 29 29  0  0  1  0  0  0  0  0999 V2000
   24.4436   -6.9404  -21.8731 N   0  0  0  0  0  0  0  0  0  0  0  0
   24.6261   -7.4220  -20.5131 C   0  0  1  0  0  0  0  0  0  0  0  0
   25.6821   -6.6177  -19.8235 C   0  0  0  0  0  0  0  0  0  0  0  0
   27.0756   -6.8754  -20.3004 C   0  0  0  0  0  0  0  0  0  0  0  0
   27.5680   -8.1548  -19.7694 C   0  0  0  0  0  0  0  0  0  0  0  0
   27.8232   -9.1669  -20.4630 O   0  0  0  0  0  0  0  0  0  0  0  0
   23.3509   -7.2994  -19.7397 C   0  0  0  0  0  0  0  0  0  0  0  0
   22.6246   -6.3083  -19.9816 O   0  0  0  0  0  0  0  0  0  0  0  0
   27.7833   -8.2971  -18.3850 O   0  0  0  0  0  0  0  0  0  0  0  0
   20.2311   -9.3275  -19.6707 C   0  0  0  0  0  0  0  0  0  0  0  0
   20.8499   -9.3443  -18.3043 C   0  0  2  0  0  0  0  0  0  0  0  0
   19.7366   -9.2785  -17.2775 C   0  0  0  0  0  0  0  0  0  0  0  0
   21.7680   -8.1702  -18.0511 C   0  0  2  0  0  0  0  0  0  0  0  0
   23.0020   -8.2709  -18.7862 N   0  0  0  0  0  0  0  0  0  0  0  0
   22.0620   -7.9937  -16.6173 C   0  0  0  0  0  0  0  0  0  0  0  0
   22.7800   -8.8633  -16.0588 O   0  0  0  0  0  0  0  0  0  0  0  0
   21.4249   -0.6589  -16.2682 O   0  0  0  0  0  0  0  0  0  0  0  0
   21.8152   -1.8964  -15.7613 C   0  0  0  0  0  0  0  0  0  0  0  0
   21.6197   -2.2432  -14.4531 C   0  0  0  0  0  0  0  0  0  0  0  0
   22.0249   -3.4874  -13.9908 C   0  0  0  0  0  0  0  0  0  0  0  0
   22.6359   -4.4307  -14.8012 C   0  0  0  0  0  0  0  0  0  0  0  0
   23.0800   -5.7561  -14.3199 C   0  0  0  0  0  0  0  0  0  0  0  0
   22.0001   -6.7622  -14.4761 C   0  0  2  0  0  0  0  0  0  0  0  0
   21.5666   -6.8942  -15.8590 N   0  0  0  0  0  0  0  0  0  0  0  0
   20.8182   -6.3684  -13.6645 C   0  0  0  0  0  0  0  0  0  0  0  0
   20.9213   -6.4524  -12.2740 O   0  0  0  0  0  0  0  0  0  0  0  0
   22.8240   -4.0497  -16.1374 C   0  0  0  0  0  0  0  0  0  0  0  0
   22.4196   -2.8129  -16.5915 C   0  0  0  0  0  0  0  0  0  0  0  0
   19.7308   -5.9663  -14.1148 O   0  0  0  0  0  0  0  0  0  0  0  0
  2  1  1  6
  2  3  1  0
  3  4  1  0
  4  5  1  0
  5  6  2  0
  5  9  1  0
  7  8  2  0
  7  2  1  0
 11 10  1  6
 11 13  1  0
 12 11  1  0
 13 14  1  6
 14  7  1  0
 15 24  1  0
 15 13  1  0
 16 15  2  0
 18 17  1  0
 19 18  2  0
 20 19  1  0
 21 27  1  0
 21 20  2  0
 23 22  1  6
 22 21  1  0
 23 25  1  0
 23 24  1  0
 25 26  1  0
 27 28  2  0
 28 18  1  0
 29 25  2  0
M  END
$$$$
