MME.pdb
     RDKit          3D

 26 25  0  0  1  0  0  0  0  0999 V2000
    8.2999  -12.0806   27.3728 C   0  0  0  0  0  0  0  0  0  0  0  0
    6.5579  -12.3841   27.0344 S   0  0  0  0  0  0  0  0  0  0  0  0
    6.3045  -13.5484   25.6795 C   0  0  0  0  0  0  0  0  0  0  0  0
    6.1749  -14.9368   26.2162 C   0  0  0  0  0  0  0  0  0  0  0  0
    7.1556  -15.9024   25.5790 C   0  0  2  0  0  0  0  0  0  0  0  0
    8.5105  -15.5750   26.0611 N   0  0  0  0  0  0  0  0  0  0  0  0
    7.1667  -15.8130   24.1211 C   0  0  0  0  0  0  0  0  0  0  0  0
    6.1840  -16.2896   23.4550 O   0  0  0  0  0  0  0  0  0  0  0  0
    8.2375  -11.4243   20.3337 C   0  0  0  0  0  0  0  0  0  0  0  0
    8.0505  -12.6632   18.9938 S   0  0  0  0  0  0  0  0  0  0  0  0
    8.2169  -14.3363   19.7040 C   0  0  0  0  0  0  0  0  0  0  0  0
    8.2357  -14.1883   21.1884 C   0  0  0  0  0  0  0  0  0  0  0  0
    8.3144  -15.5152   21.9293 C   0  0  2  0  0  0  0  0  0  0  0  0
    8.2222  -15.2145   23.3424 N   0  0  0  0  0  0  0  0  0  0  0  0
    9.5928  -16.1229   21.5290 C   0  0  0  0  0  0  0  0  0  0  0  0
    9.6455  -16.5424   20.3299 O   0  0  0  0  0  0  0  0  0  0  0  0
   10.6479  -16.2047   22.4489 N   0  0  0  0  0  0  0  0  0  0  0  0
   11.8996  -16.8324   22.0103 C   0  0  1  0  0  0  0  0  0  0  0  0
   12.7345  -15.8099   21.2561 C   0  0  0  0  0  0  0  0  0  0  0  0
   12.6977  -15.9927   19.7695 C   0  0  0  0  0  0  0  0  0  0  0  0
   13.7382  -15.1204   19.1346 C   0  0  0  0  0  0  0  0  0  0  0  0
   14.5140  -14.4694   19.8589 O   0  0  0  0  0  0  0  0  0  0  0  0
   12.6024  -17.4435   23.1513 C   0  0  0  0  0  0  0  0  0  0  0  0
   13.7015  -18.0114   22.9347 O   0  0  0  0  0  0  0  0  0  0  0  0
   13.8385  -15.0363   17.7632 O   0  0  0  0  0  0  0  0  0  0  0  0
   12.1258  -17.4305   24.4500 O   0  0  0  0  0  0  0  0  0  0  0  0
  2  3  1  0
  2  1  1  0
  4  5  1  0
  4  3  1  0
  5  6  1  1
  7  8  2  0
  7  5  1  0
 10  9  1  0
 11 12  1  0
 11 10  1  0
 13 12  1  6
 13 14  1  0
 14  7  1  0
 15 13  1  0
 15 16  2  0
 17 15  1  0
 18 17  1  0
 18 19  1  1
 19 20  1  0
 20 21  1  0
 21 22  2  0
 23 18  1  0
 24 23  2  0
 25 21  1  0
 26 23  1  0
M  END
$$$$
