MME.pdb
     RDKit          3D

 26 25  0  0  1  0  0  0  0  0999 V2000
    8.7990  -20.9797   20.6785 C   0  0  0  0  0  0  0  0  0  0  0  0
    7.3056  -20.5948   19.7497 S   0  0  0  0  0  0  0  0  0  0  0  0
    7.0646  -18.8210   19.5230 C   0  0  0  0  0  0  0  0  0  0  0  0
    7.7677  -18.0674   20.6047 C   0  0  0  0  0  0  0  0  0  0  0  0
    7.4351  -16.5877   20.5956 C   0  0  2  0  0  0  0  0  0  0  0  0
    8.0006  -15.9915   19.3708 N   0  0  0  0  0  0  0  0  0  0  0  0
    7.9998  -15.8769   21.7400 C   0  0  0  0  0  0  0  0  0  0  0  0
    9.2597  -15.6601   21.7855 O   0  0  0  0  0  0  0  0  0  0  0  0
    6.9455  -10.7943   25.8243 C   0  0  0  0  0  0  0  0  0  0  0  0
    6.3650  -12.3108   26.6777 S   0  0  0  0  0  0  0  0  0  0  0  0
    7.4382  -13.7082   26.2016 C   0  0  0  0  0  0  0  0  0  0  0  0
    6.8741  -14.2949   24.9513 C   0  0  0  0  0  0  0  0  0  0  0  0
    7.9341  -14.8386   24.0044 C   0  0  2  0  0  0  0  0  0  0  0  0
    7.2362  -15.3818   22.8583 N   0  0  0  0  0  0  0  0  0  0  0  0
    8.6862  -15.8396   24.7766 C   0  0  0  0  0  0  0  0  0  0  0  0
    8.0571  -16.9136   25.0361 O   0  0  0  0  0  0  0  0  0  0  0  0
   10.0053  -15.5738   25.1705 N   0  0  0  0  0  0  0  0  0  0  0  0
   10.8102  -16.6875   25.6854 C   0  0  1  0  0  0  0  0  0  0  0  0
   12.2666  -16.4683   25.3085 C   0  0  0  0  0  0  0  0  0  0  0  0
   13.1837  -17.5279   25.8387 C   0  0  0  0  0  0  0  0  0  0  0  0
   14.3211  -17.7259   24.8828 C   0  0  0  0  0  0  0  0  0  0  0  0
   15.1712  -16.8259   24.7505 O   0  0  0  0  0  0  0  0  0  0  0  0
   10.5936  -16.8602   27.1320 C   0  0  0  0  0  0  0  0  0  0  0  0
   10.8775  -17.9710   27.6449 O   0  0  0  0  0  0  0  0  0  0  0  0
   14.4286  -18.8907   24.1552 O   0  0  0  0  0  0  0  0  0  0  0  0
   10.0959  -15.8722   27.9628 O   0  0  0  0  0  0  0  0  0  0  0  0
  2  3  1  0
  2  1  1  0
  4  5  1  0
  4  3  1  0
  5  6  1  6
  7  8  2  0
  7  5  1  0
 10  9  1  0
 11 12  1  0
 11 10  1  0
 13 12  1  1
 13 14  1  0
 14  7  1  0
 15 13  1  0
 15 16  2  0
 17 15  1  0
 18 17  1  0
 18 19  1  1
 19 20  1  0
 20 21  1  0
 21 22  2  0
 23 18  1  0
 24 23  2  0
 25 21  1  0
 26 23  1  0
M  END
$$$$
