MME.pdb
     RDKit          3D

 26 25  0  0  1  0  0  0  0  0999 V2000
    9.1221  -16.0288   15.7761 C   0  0  0  0  0  0  0  0  0  0  0  0
    7.8640  -14.8346   16.2583 S   0  0  0  0  0  0  0  0  0  0  0  0
    6.8584  -15.4041   17.6439 C   0  0  0  0  0  0  0  0  0  0  0  0
    7.6552  -15.3570   18.9070 C   0  0  0  0  0  0  0  0  0  0  0  0
    7.5440  -14.0217   19.6173 C   0  0  2  0  0  0  0  0  0  0  0  0
    8.3237  -13.0253   18.8593 N   0  0  0  0  0  0  0  0  0  0  0  0
    8.0738  -14.0621   20.9779 C   0  0  0  0  0  0  0  0  0  0  0  0
    9.3401  -14.0568   21.1594 O   0  0  0  0  0  0  0  0  0  0  0  0
    7.2422  -11.3309   27.8766 C   0  0  0  0  0  0  0  0  0  0  0  0
    6.2582  -12.4507   26.8076 S   0  0  0  0  0  0  0  0  0  0  0  0
    7.3949  -13.5272   25.8694 C   0  0  0  0  0  0  0  0  0  0  0  0
    6.8765  -13.6097   24.4729 C   0  0  0  0  0  0  0  0  0  0  0  0
    7.9192  -14.0710   23.4651 C   0  0  2  0  0  0  0  0  0  0  0  0
    7.2681  -14.1082   22.1727 N   0  0  0  0  0  0  0  0  0  0  0  0
    8.3824  -15.3840   23.9398 C   0  0  0  0  0  0  0  0  0  0  0  0
    7.5809  -16.3504   23.7390 O   0  0  0  0  0  0  0  0  0  0  0  0
    9.6333  -15.5024   24.5621 N   0  0  0  0  0  0  0  0  0  0  0  0
   10.1390  -16.8504   24.8455 C   0  0  1  0  0  0  0  0  0  0  0  0
   11.5841  -16.9499   24.3836 C   0  0  0  0  0  0  0  0  0  0  0  0
   12.1982  -18.2926   24.6381 C   0  0  0  0  0  0  0  0  0  0  0  0
   13.5931  -18.3142   24.0899 C   0  0  0  0  0  0  0  0  0  0  0  0
   14.4905  -17.6834   24.6790 O   0  0  0  0  0  0  0  0  0  0  0  0
    9.9478  -17.1894   26.2660 C   0  0  0  0  0  0  0  0  0  0  0  0
   10.2761  -18.3394   26.6498 O   0  0  0  0  0  0  0  0  0  0  0  0
   13.8838  -19.0233   22.9452 O   0  0  0  0  0  0  0  0  0  0  0  0
    9.4280  -16.3175   27.2059 O   0  0  0  0  0  0  0  0  0  0  0  0
  2  3  1  0
  2  1  1  0
  4  5  1  0
  4  3  1  0
  5  6  1  6
  7  8  2  0
  7  5  1  0
 10  9  1  0
 11 12  1  0
 11 10  1  0
 13 12  1  1
 13 14  1  0
 14  7  1  0
 15 13  1  0
 15 16  2  0
 17 15  1  0
 18 17  1  0
 18 19  1  1
 19 20  1  0
 20 21  1  0
 21 22  2  0
 23 18  1  0
 24 23  2  0
 25 21  1  0
 26 23  1  0
M  END
$$$$
