MME.pdb
     RDKit          3D

 26 25  0  0  1  0  0  0  0  0999 V2000
    7.6907  -11.5737   26.9574 C   0  0  0  0  0  0  0  0  0  0  0  0
    6.6640  -12.5945   28.0274 S   0  0  0  0  0  0  0  0  0  0  0  0
    6.1353  -14.1249   27.2313 C   0  0  0  0  0  0  0  0  0  0  0  0
    7.1413  -14.5430   26.2087 C   0  0  0  0  0  0  0  0  0  0  0  0
    6.6749  -15.7249   25.3807 C   0  0  2  0  0  0  0  0  0  0  0  0
    6.5648  -16.8989   26.2667 N   0  0  0  0  0  0  0  0  0  0  0  0
    7.6056  -16.0619   24.3066 C   0  0  0  0  0  0  0  0  0  0  0  0
    8.2381  -17.1731   24.3489 O   0  0  0  0  0  0  0  0  0  0  0  0
    8.2687  -11.7644   19.8738 C   0  0  0  0  0  0  0  0  0  0  0  0
    7.4723  -13.2609   19.1728 S   0  0  0  0  0  0  0  0  0  0  0  0
    7.4072  -14.5561   20.4571 C   0  0  0  0  0  0  0  0  0  0  0  0
    8.7816  -14.6911   21.0212 C   0  0  0  0  0  0  0  0  0  0  0  0
    8.8638  -15.6574   22.1940 C   0  0  2  0  0  0  0  0  0  0  0  0
    7.8819  -15.2248   23.1657 N   0  0  0  0  0  0  0  0  0  0  0  0
   10.2524  -15.5875   22.6746 C   0  0  0  0  0  0  0  0  0  0  0  0
   10.5220  -14.5939   23.4206 O   0  0  0  0  0  0  0  0  0  0  0  0
   11.1723  -16.5790   22.3047 N   0  0  0  0  0  0  0  0  0  0  0  0
   12.5566  -16.4461   22.7729 C   0  0  1  0  0  0  0  0  0  0  0  0
   13.0106  -17.7671   23.3731 C   0  0  0  0  0  0  0  0  0  0  0  0
   12.1266  -18.2512   24.4818 C   0  0  0  0  0  0  0  0  0  0  0  0
   12.6242  -19.5771   24.9726 C   0  0  0  0  0  0  0  0  0  0  0  0
   13.6105  -20.1010   24.4222 O   0  0  0  0  0  0  0  0  0  0  0  0
   13.4274  -15.9588   21.6895 C   0  0  0  0  0  0  0  0  0  0  0  0
   14.6188  -15.6764   21.9690 O   0  0  0  0  0  0  0  0  0  0  0  0
   11.9989  -20.2140   26.0220 O   0  0  0  0  0  0  0  0  0  0  0  0
   13.0132  -15.7930   20.3800 O   0  0  0  0  0  0  0  0  0  0  0  0
  2  3  1  0
  2  1  1  0
  4  5  1  0
  4  3  1  0
  5  6  1  1
  7  8  2  0
  7  5  1  0
 10  9  1  0
 11 12  1  0
 11 10  1  0
 13 12  1  6
 13 14  1  0
 14  7  1  0
 15 13  1  0
 15 16  2  0
 17 15  1  0
 18 17  1  0
 18 19  1  6
 19 20  1  0
 20 21  1  0
 21 22  2  0
 23 18  1  0
 24 23  2  0
 25 21  1  0
 26 23  1  0
M  END
$$$$
