MME.pdb
     RDKit          3D

 26 25  0  0  1  0  0  0  0  0999 V2000
    7.9392  -11.7523   18.3575 C   0  0  0  0  0  0  0  0  0  0  0  0
    6.4873  -12.7506   18.7270 S   0  0  0  0  0  0  0  0  0  0  0  0
    6.8631  -14.1591   19.7902 C   0  0  0  0  0  0  0  0  0  0  0  0
    8.2720  -14.6049   19.5690 C   0  0  0  0  0  0  0  0  0  0  0  0
    8.6568  -15.7797   20.4474 C   0  0  2  0  0  0  0  0  0  0  0  0
    7.4955  -16.6831   20.5510 N   0  0  0  0  0  0  0  0  0  0  0  0
    9.0281  -15.3730   21.8003 C   0  0  0  0  0  0  0  0  0  0  0  0
   10.2222  -14.9765   22.0317 O   0  0  0  0  0  0  0  0  0  0  0  0
    6.9452  -11.3296   27.5149 C   0  0  0  0  0  0  0  0  0  0  0  0
    6.3960  -13.0084   27.0197 S   0  0  0  0  0  0  0  0  0  0  0  0
    7.8293  -13.9365   26.3752 C   0  0  0  0  0  0  0  0  0  0  0  0
    7.4602  -14.4374   25.0193 C   0  0  0  0  0  0  0  0  0  0  0  0
    8.6427  -14.9816   24.2310 C   0  0  2  0  0  0  0  0  0  0  0  0
    8.1373  -15.3788   22.9340 N   0  0  0  0  0  0  0  0  0  0  0  0
    9.1796  -16.0939   25.0302 C   0  0  0  0  0  0  0  0  0  0  0  0
    8.4016  -17.0895   25.1710 O   0  0  0  0  0  0  0  0  0  0  0  0
   10.4695  -16.0074   25.5731 N   0  0  0  0  0  0  0  0  0  0  0  0
   11.0487  -17.2147   26.1733 C   0  0  1  0  0  0  0  0  0  0  0  0
   12.5469  -17.2319   25.9158 C   0  0  0  0  0  0  0  0  0  0  0  0
   12.8993  -17.2792   24.4602 C   0  0  0  0  0  0  0  0  0  0  0  0
   14.3904  -17.2939   24.3091 C   0  0  0  0  0  0  0  0  0  0  0  0
   14.9371  -18.2574   23.7409 O   0  0  0  0  0  0  0  0  0  0  0  0
   10.6929  -17.3084   27.5994 C   0  0  0  0  0  0  0  0  0  0  0  0
   10.2209  -16.2885   28.1603 O   0  0  0  0  0  0  0  0  0  0  0  0
   15.1528  -16.2536   24.7933 O   0  0  0  0  0  0  0  0  0  0  0  0
   10.8464  -18.4530   28.3612 O   0  0  0  0  0  0  0  0  0  0  0  0
  2  3  1  0
  2  1  1  0
  4  5  1  0
  4  3  1  0
  5  6  1  1
  7  8  2  0
  7  5  1  0
 10  9  1  0
 11 12  1  0
 11 10  1  0
 13 12  1  1
 13 14  1  0
 14  7  1  0
 15 13  1  0
 15 16  2  0
 17 15  1  0
 18 17  1  0
 18 19  1  1
 19 20  1  0
 20 21  1  0
 21 22  2  0
 23 18  1  0
 24 23  2  0
 25 21  1  0
 26 23  1  0
M  END
$$$$
