MME.pdb
     RDKit          3D

 26 25  0  0  1  0  0  0  0  0999 V2000
    8.0422  -11.4038   19.7525 C   0  0  0  0  0  0  0  0  0  0  0  0
    7.7836  -12.8068   18.6544 S   0  0  0  0  0  0  0  0  0  0  0  0
    8.0046  -14.3923   19.4869 C   0  0  0  0  0  0  0  0  0  0  0  0
    9.1470  -14.3107   20.4465 C   0  0  0  0  0  0  0  0  0  0  0  0
    9.3573  -15.6018   21.2140 C   0  0  2  0  0  0  0  0  0  0  0  0
    8.1694  -16.4549   21.0236 N   0  0  0  0  0  0  0  0  0  0  0  0
    9.5245  -15.3828   22.6485 C   0  0  0  0  0  0  0  0  0  0  0  0
   10.6641  -15.0159   23.0994 O   0  0  0  0  0  0  0  0  0  0  0  0
    7.2449  -11.1570   27.0637 C   0  0  0  0  0  0  0  0  0  0  0  0
    6.3617  -12.7473   26.8269 S   0  0  0  0  0  0  0  0  0  0  0  0
    6.9817  -13.5512   25.3102 C   0  0  0  0  0  0  0  0  0  0  0  0
    7.4700  -14.9074   25.6948 C   0  0  0  0  0  0  0  0  0  0  0  0
    8.7813  -15.2924   25.0253 C   0  0  2  0  0  0  0  0  0  0  0  0
    8.4834  -15.5488   23.6321 N   0  0  0  0  0  0  0  0  0  0  0  0
    9.2753  -16.4686   25.7579 C   0  0  0  0  0  0  0  0  0  0  0  0
    9.3189  -16.3447   27.0225 O   0  0  0  0  0  0  0  0  0  0  0  0
    9.6557  -17.6216   25.0566 N   0  0  0  0  0  0  0  0  0  0  0  0
   10.2127  -18.7432   25.8215 C   0  0  1  0  0  0  0  0  0  0  0  0
   10.7280  -19.7995   24.8571 C   0  0  0  0  0  0  0  0  0  0  0  0
   10.3947  -19.5102   23.4253 C   0  0  0  0  0  0  0  0  0  0  0  0
   11.0761  -20.5123   22.5432 C   0  0  0  0  0  0  0  0  0  0  0  0
   11.6990  -21.4578   23.0610 O   0  0  0  0  0  0  0  0  0  0  0  0
   11.2290  -18.2679   26.7758 C   0  0  0  0  0  0  0  0  0  0  0  0
   11.6622  -19.0781   27.6320 O   0  0  0  0  0  0  0  0  0  0  0  0
   11.0168  -20.3919   21.1721 O   0  0  0  0  0  0  0  0  0  0  0  0
   11.7373  -16.9812   26.7870 O   0  0  0  0  0  0  0  0  0  0  0  0
  2  3  1  0
  2  1  1  0
  4  5  1  0
  4  3  1  0
  5  6  1  1
  7  8  2  0
  7  5  1  0
 10  9  1  0
 11 12  1  0
 11 10  1  0
 13 12  1  1
 13 14  1  0
 14  7  1  0
 15 13  1  0
 15 16  2  0
 17 15  1  0
 18 17  1  0
 18 19  1  6
 19 20  1  0
 20 21  1  0
 21 22  2  0
 23 18  1  0
 24 23  2  0
 25 21  1  0
 26 23  1  0
M  END
$$$$
