MME.pdb
     RDKit          3D

 26 25  0  0  1  0  0  0  0  0999 V2000
    8.4474  -11.6520   19.2859 C   0  0  0  0  0  0  0  0  0  0  0  0
    7.4100  -12.8958   18.4999 S   0  0  0  0  0  0  0  0  0  0  0  0
    7.6035  -14.5310   19.2376 C   0  0  0  0  0  0  0  0  0  0  0  0
    8.8209  -14.5602   20.1035 C   0  0  0  0  0  0  0  0  0  0  0  0
    8.9842  -15.8781   20.8360 C   0  0  2  0  0  0  0  0  0  0  0  0
    7.7733  -16.6892   20.6096 N   0  0  0  0  0  0  0  0  0  0  0  0
    9.1425  -15.7048   22.2777 C   0  0  0  0  0  0  0  0  0  0  0  0
   10.3170  -15.5890   22.7713 O   0  0  0  0  0  0  0  0  0  0  0  0
    8.3139  -12.0730   28.0242 C   0  0  0  0  0  0  0  0  0  0  0  0
    7.1054  -12.6612   26.7757 S   0  0  0  0  0  0  0  0  0  0  0  0
    7.1942  -14.4814   26.6743 C   0  0  0  0  0  0  0  0  0  0  0  0
    7.0532  -14.8530   25.2364 C   0  0  0  0  0  0  0  0  0  0  0  0
    8.3427  -15.3678   24.6136 C   0  0  2  0  0  0  0  0  0  0  0  0
    8.0554  -15.6504   23.2232 N   0  0  0  0  0  0  0  0  0  0  0  0
    8.7223  -16.5524   25.3989 C   0  0  0  0  0  0  0  0  0  0  0  0
    7.7996  -17.4095   25.5736 O   0  0  0  0  0  0  0  0  0  0  0  0
   10.0284  -16.6754   25.8940 N   0  0  0  0  0  0  0  0  0  0  0  0
   10.3937  -17.9219   26.5767 C   0  0  1  0  0  0  0  0  0  0  0  0
   11.7967  -18.3298   26.1563 C   0  0  0  0  0  0  0  0  0  0  0  0
   11.9941  -18.3351   24.6711 C   0  0  0  0  0  0  0  0  0  0  0  0
   13.3910  -18.7777   24.3560 C   0  0  0  0  0  0  0  0  0  0  0  0
   14.1740  -19.0382   25.2884 O   0  0  0  0  0  0  0  0  0  0  0  0
   10.2300  -17.7838   28.0339 C   0  0  0  0  0  0  0  0  0  0  0  0
   10.4633  -18.7862   28.7537 O   0  0  0  0  0  0  0  0  0  0  0  0
   13.8092  -18.8960   23.0487 O   0  0  0  0  0  0  0  0  0  0  0  0
    9.8345  -16.6154   28.6604 O   0  0  0  0  0  0  0  0  0  0  0  0
  2  3  1  0
  2  1  1  0
  4  5  1  0
  4  3  1  0
  5  6  1  1
  7  8  2  0
  7  5  1  0
 10  9  1  0
 11 12  1  0
 11 10  1  0
 13 12  1  1
 13 14  1  0
 14  7  1  0
 15 13  1  0
 15 16  2  0
 17 15  1  0
 18 17  1  0
 18 19  1  1
 19 20  1  0
 20 21  1  0
 21 22  2  0
 23 18  1  0
 24 23  2  0
 25 21  1  0
 26 23  1  0
M  END
$$$$
