MME.pdb
     RDKit          3D

 26 25  0  0  1  0  0  0  0  0999 V2000
    7.6905  -11.6104   18.7491 C   0  0  0  0  0  0  0  0  0  0  0  0
    6.4844  -12.9436   18.6538 S   0  0  0  0  0  0  0  0  0  0  0  0
    6.9239  -14.3551   19.6883 C   0  0  0  0  0  0  0  0  0  0  0  0
    8.2757  -14.8658   19.3086 C   0  0  0  0  0  0  0  0  0  0  0  0
    8.7467  -15.9934   20.2068 C   0  0  2  0  0  0  0  0  0  0  0  0
    7.6540  -16.9761   20.3314 N   0  0  0  0  0  0  0  0  0  0  0  0
    9.0912  -15.5360   21.5506 C   0  0  0  0  0  0  0  0  0  0  0  0
   10.2072  -14.9415   21.7449 O   0  0  0  0  0  0  0  0  0  0  0  0
    6.4710  -12.0956   27.9825 C   0  0  0  0  0  0  0  0  0  0  0  0
    6.1412  -13.1512   26.5190 S   0  0  0  0  0  0  0  0  0  0  0  0
    7.7179  -13.8532   25.9253 C   0  0  0  0  0  0  0  0  0  0  0  0
    7.4355  -14.5526   24.6382 C   0  0  0  0  0  0  0  0  0  0  0  0
    8.6788  -15.1256   23.9736 C   0  0  2  0  0  0  0  0  0  0  0  0
    8.2561  -15.7007   22.7142 N   0  0  0  0  0  0  0  0  0  0  0  0
    9.2266  -16.1051   24.9248 C   0  0  0  0  0  0  0  0  0  0  0  0
    8.5877  -17.2012   25.0074 O   0  0  0  0  0  0  0  0  0  0  0  0
   10.3792  -15.7971   25.6614 N   0  0  0  0  0  0  0  0  0  0  0  0
   11.1918  -16.9083   26.1694 C   0  0  1  0  0  0  0  0  0  0  0  0
   12.6431  -16.6885   25.7735 C   0  0  0  0  0  0  0  0  0  0  0  0
   12.9816  -17.2438   24.4236 C   0  0  0  0  0  0  0  0  0  0  0  0
   14.4205  -16.9599   24.1149 C   0  0  0  0  0  0  0  0  0  0  0  0
   15.1097  -16.3321   24.9402 O   0  0  0  0  0  0  0  0  0  0  0  0
   10.9936  -17.0770   27.6190 C   0  0  0  0  0  0  0  0  0  0  0  0
   10.2995  -16.2237   28.2252 O   0  0  0  0  0  0  0  0  0  0  0  0
   14.9792  -17.3870   22.9303 O   0  0  0  0  0  0  0  0  0  0  0  0
   11.5256  -18.1200   28.3560 O   0  0  0  0  0  0  0  0  0  0  0  0
  2  3  1  0
  2  1  1  0
  4  5  1  0
  4  3  1  0
  5  6  1  1
  7  8  2  0
  7  5  1  0
 10  9  1  0
 11 12  1  0
 11 10  1  0
 13 12  1  1
 13 14  1  0
 14  7  1  0
 15 13  1  0
 15 16  2  0
 17 15  1  0
 18 17  1  0
 18 19  1  1
 19 20  1  0
 20 21  1  0
 21 22  2  0
 23 18  1  0
 24 23  2  0
 25 21  1  0
 26 23  1  0
M  END
$$$$
