FCF.pdb
     RDKit          3D

 29 30  0  0  1  0  0  0  0  0999 V2000
   21.7475  -17.0694  -17.9030 N   0  0  0  0  0  0  0  0  0  0  0  0
   21.8521  -18.2696  -17.0976 C   0  0  1  0  0  0  0  0  0  0  0  0
   22.3602  -17.8588  -15.7306 C   0  0  0  0  0  0  0  0  0  0  0  0
   23.7719  -17.4141  -15.7846 C   0  0  0  0  0  0  0  0  0  0  0  0
   24.7701  -18.2192  -16.3020 C   0  0  0  0  0  0  0  0  0  0  0  0
   26.0933  -17.7926  -16.3483 C   0  0  0  0  0  0  0  0  0  0  0  0
   26.4536  -16.5570  -15.8815 C   0  0  0  0  0  0  0  0  0  0  0  0
   25.4757  -15.7360  -15.3607 C   0  0  0  0  0  0  0  0  0  0  0  0
   24.1633  -16.1597  -15.3151 C   0  0  0  0  0  0  0  0  0  0  0  0
   20.5044  -18.8790  -17.0183 C   0  0  0  0  0  0  0  0  0  0  0  0
   19.4752  -18.1670  -16.9158 O   0  0  0  0  0  0  0  0  0  0  0  0
   20.3006  -20.2974  -17.0537 N   0  0  0  0  0  0  0  0  0  0  0  0
   18.9997  -20.9031  -16.8625 C   0  0  1  0  0  0  0  0  0  0  0  0
   18.5899  -21.6116  -18.1333 C   0  0  0  0  0  0  0  0  0  0  0  0
   16.9962  -22.4461  -17.9016 S   0  0  0  0  0  0  0  0  0  0  0  0
   18.9780  -21.8025  -15.6886 C   0  0  0  0  0  0  0  0  0  0  0  0
   19.8701  -22.6902  -15.5923 O   0  0  0  0  0  0  0  0  0  0  0  0
   18.0005  -21.7124  -14.6668 N   0  0  0  0  0  0  0  0  0  0  0  0
   17.9126  -22.6571  -13.5616 C   0  0  1  0  0  0  0  0  0  0  0  0
   18.3283  -21.9910  -12.2846 C   0  0  0  0  0  0  0  0  0  0  0  0
   19.5911  -21.2435  -12.3479 C   0  0  0  0  0  0  0  0  0  0  0  0
   19.6197  -19.8451  -12.2931 C   0  0  0  0  0  0  0  0  0  0  0  0
   20.8062  -19.1490  -12.3372 C   0  0  0  0  0  0  0  0  0  0  0  0
   22.0237  -19.7852  -12.4370 C   0  0  0  0  0  0  0  0  0  0  0  0
   22.0144  -21.1606  -12.4919 C   0  0  0  0  0  0  0  0  0  0  0  0
   20.8317  -21.8624  -12.4481 C   0  0  0  0  0  0  0  0  0  0  0  0
   16.5468  -23.2023  -13.4310 C   0  0  0  0  0  0  0  0  0  0  0  0
   16.3255  -24.0836  -12.5687 O   0  0  0  0  0  0  0  0  0  0  0  0
   15.4735  -22.7917  -14.2183 O   0  0  0  0  0  0  0  0  0  0  0  0
  2  1  1  6
  2 10  1  0
  2  3  1  0
  4  3  1  0
  4  9  1  0
  5  4  2  0
  6  5  1  0
  6  7  2  0
  7  8  1  0
  8  9  2  0
 10 11  2  0
 12 13  1  0
 12 10  1  0
 14 15  1  0
 13 14  1  6
 16 13  1  0
 16 17  2  0
 18 16  1  0
 19 18  1  0
 19 27  1  0
 19 20  1  1
 21 20  1  0
 21 22  2  0
 23 22  1  0
 24 23  2  0
 25 26  2  0
 25 24  1  0
 26 21  1  0
 27 28  2  0
 27 29  1  0
M  END
$$$$
