FCF.pdb
     RDKit          3D

 29 30  0  0  1  0  0  0  0  0999 V2000
   19.3534  -13.0148  -17.8227 N   0  0  0  0  0  0  0  0  0  0  0  0
   20.1625  -11.9043  -18.2833 C   0  0  1  0  0  0  0  0  0  0  0  0
   19.2465  -10.9460  -19.0170 C   0  0  0  0  0  0  0  0  0  0  0  0
   18.8002  -11.5037  -20.3145 C   0  0  0  0  0  0  0  0  0  0  0  0
   17.4907  -11.8931  -20.5284 C   0  0  0  0  0  0  0  0  0  0  0  0
   17.0811  -12.4160  -21.7506 C   0  0  0  0  0  0  0  0  0  0  0  0
   17.9636  -12.5633  -22.7868 C   0  0  0  0  0  0  0  0  0  0  0  0
   19.2752  -12.1820  -22.5976 C   0  0  0  0  0  0  0  0  0  0  0  0
   19.6809  -11.6633  -21.3850 C   0  0  0  0  0  0  0  0  0  0  0  0
   20.7768  -11.2696  -17.0943 C   0  0  0  0  0  0  0  0  0  0  0  0
   20.1049  -11.0481  -16.0570 O   0  0  0  0  0  0  0  0  0  0  0  0
   22.1550  -10.8771  -17.0603 N   0  0  0  0  0  0  0  0  0  0  0  0
   22.7291  -10.1418  -15.9532 C   0  0  1  0  0  0  0  0  0  0  0  0
   24.1786  -10.5388  -15.7915 C   0  0  0  0  0  0  0  0  0  0  0  0
   24.2990  -12.2380  -15.1684 S   0  0  0  0  0  0  0  0  0  0  0  0
   22.5639   -8.6813  -16.1174 C   0  0  0  0  0  0  0  0  0  0  0  0
   22.5990   -8.1974  -17.2827 O   0  0  0  0  0  0  0  0  0  0  0  0
   22.3680   -7.8003  -15.0251 N   0  0  0  0  0  0  0  0  0  0  0  0
   22.1646   -6.3666  -15.1831 C   0  0  1  0  0  0  0  0  0  0  0  0
   21.0016   -6.1120  -16.0940 C   0  0  0  0  0  0  0  0  0  0  0  0
   20.7044   -4.6970  -16.3532 C   0  0  0  0  0  0  0  0  0  0  0  0
   21.7045   -3.7949  -16.7346 C   0  0  0  0  0  0  0  0  0  0  0  0
   21.4192   -2.4733  -16.9915 C   0  0  0  0  0  0  0  0  0  0  0  0
   20.1422   -1.9676  -16.8883 C   0  0  0  0  0  0  0  0  0  0  0  0
   19.1460   -2.8408  -16.5144 C   0  0  0  0  0  0  0  0  0  0  0  0
   19.4246   -4.1633  -16.2563 C   0  0  0  0  0  0  0  0  0  0  0  0
   21.9439   -5.7105  -13.8790 C   0  0  0  0  0  0  0  0  0  0  0  0
   21.2585   -6.3000  -13.0119 O   0  0  0  0  0  0  0  0  0  0  0  0
   22.4578   -4.4588  -13.5482 O   0  0  0  0  0  0  0  0  0  0  0  0
  2  1  1  1
  2 10  1  0
  2  3  1  0
  4  3  1  0
  4  9  1  0
  5  4  2  0
  6  5  1  0
  6  7  2  0
  7  8  1  0
  8  9  2  0
 10 11  2  0
 12 13  1  0
 12 10  1  0
 14 15  1  0
 13 14  1  6
 16 13  1  0
 16 17  2  0
 18 16  1  0
 19 18  1  0
 19 27  1  0
 19 20  1  6
 21 20  1  0
 21 22  2  0
 23 22  1  0
 24 23  2  0
 25 26  2  0
 25 24  1  0
 26 21  1  0
 27 28  2  0
 27 29  1  0
M  END
$$$$
