FCF.pdb
     RDKit          3D

 29 30  0  0  1  0  0  0  0  0999 V2000
   24.0352  -33.9210   -8.4073 N   0  0  0  0  0  0  0  0  0  0  0  0
   24.8129  -32.9879   -7.6169 C   0  0  1  0  0  0  0  0  0  0  0  0
   23.8468  -31.9979   -6.9987 C   0  0  0  0  0  0  0  0  0  0  0  0
   23.2956  -31.0686   -8.0117 C   0  0  0  0  0  0  0  0  0  0  0  0
   24.0162  -29.9818   -8.4720 C   0  0  0  0  0  0  0  0  0  0  0  0
   23.4898  -29.1144   -9.4236 C   0  0  0  0  0  0  0  0  0  0  0  0
   22.2362  -29.3080   -9.9386 C   0  0  0  0  0  0  0  0  0  0  0  0
   21.4982  -30.3850   -9.4950 C   0  0  0  0  0  0  0  0  0  0  0  0
   22.0208  -31.2451   -8.5510 C   0  0  0  0  0  0  0  0  0  0  0  0
   25.5348  -33.7645   -6.5826 C   0  0  0  0  0  0  0  0  0  0  0  0
   25.0009  -34.7539   -6.0236 O   0  0  0  0  0  0  0  0  0  0  0  0
   26.8663  -33.4353   -6.1664 N   0  0  0  0  0  0  0  0  0  0  0  0
   27.5523  -34.1501   -5.1107 C   0  0  1  0  0  0  0  0  0  0  0  0
   29.0109  -34.2993   -5.4781 C   0  0  0  0  0  0  0  0  0  0  0  0
   29.1729  -35.1256   -7.0846 S   0  0  0  0  0  0  0  0  0  0  0  0
   27.3703  -33.4981   -3.7957 C   0  0  0  0  0  0  0  0  0  0  0  0
   27.0053  -32.2901   -3.7667 O   0  0  0  0  0  0  0  0  0  0  0  0
   27.5873  -34.1687   -2.5665 N   0  0  0  0  0  0  0  0  0  0  0  0
   27.2474  -33.5923   -1.2726 C   0  0  1  0  0  0  0  0  0  0  0  0
   25.7944  -33.2251   -1.2416 C   0  0  0  0  0  0  0  0  0  0  0  0
   25.2921  -32.7571    0.0570 C   0  0  0  0  0  0  0  0  0  0  0  0
   24.6528  -33.6230    0.9518 C   0  0  0  0  0  0  0  0  0  0  0  0
   24.1972  -33.1841    2.1741 C   0  0  0  0  0  0  0  0  0  0  0  0
   24.3438  -31.8768    2.5824 C   0  0  0  0  0  0  0  0  0  0  0  0
   24.9705  -31.0112    1.7148 C   0  0  0  0  0  0  0  0  0  0  0  0
   25.4284  -31.4438    0.4915 C   0  0  0  0  0  0  0  0  0  0  0  0
   27.5610  -34.5255   -0.1722 C   0  0  0  0  0  0  0  0  0  0  0  0
   28.0221  -34.0673    0.8985 O   0  0  0  0  0  0  0  0  0  0  0  0
   27.3732  -35.9034   -0.2519 O   0  0  0  0  0  0  0  0  0  0  0  0
  2  1  1  6
  2 10  1  0
  2  3  1  0
  4  3  1  0
  4  9  1  0
  5  4  2  0
  6  5  1  0
  6  7  2  0
  7  8  1  0
  8  9  2  0
 10 11  2  0
 12 13  1  0
 12 10  1  0
 14 15  1  0
 13 14  1  6
 16 13  1  0
 16 17  2  0
 18 16  1  0
 19 18  1  0
 19 27  1  0
 19 20  1  6
 21 20  1  0
 21 22  2  0
 23 22  1  0
 24 23  2  0
 25 26  2  0
 25 24  1  0
 26 21  1  0
 27 28  2  0
 27 29  1  0
M  END
$$$$
