FCF.pdb
     RDKit          3D

 29 30  0  0  1  0  0  0  0  0999 V2000
   25.1002  -23.6582   10.2013 N   0  0  0  0  0  0  0  0  0  0  0  0
   26.5078  -23.4351    9.9386 C   0  0  1  0  0  0  0  0  0  0  0  0
   27.0173  -22.4603   10.9806 C   0  0  0  0  0  0  0  0  0  0  0  0
   28.0083  -21.5196   10.4089 C   0  0  0  0  0  0  0  0  0  0  0  0
   27.8760  -20.1499   10.5457 C   0  0  0  0  0  0  0  0  0  0  0  0
   28.8120  -19.2744   10.0051 C   0  0  0  0  0  0  0  0  0  0  0  0
   29.8998  -19.7406    9.3169 C   0  0  0  0  0  0  0  0  0  0  0  0
   30.0535  -21.1028    9.1673 C   0  0  0  0  0  0  0  0  0  0  0  0
   29.1247  -21.9708    9.7038 C   0  0  0  0  0  0  0  0  0  0  0  0
   27.1972  -24.7428   10.0315 C   0  0  0  0  0  0  0  0  0  0  0  0
   26.5562  -25.8003   10.2489 O   0  0  0  0  0  0  0  0  0  0  0  0
   28.6165  -24.8741    9.8805 N   0  0  0  0  0  0  0  0  0  0  0  0
   29.2941  -26.1511    9.9593 C   0  0  1  0  0  0  0  0  0  0  0  0
   28.7061  -27.0899    8.9310 C   0  0  0  0  0  0  0  0  0  0  0  0
   29.6224  -28.6551    8.9123 S   0  0  0  0  0  0  0  0  0  0  0  0
   30.7588  -26.0073    9.8130 C   0  0  0  0  0  0  0  0  0  0  0  0
   31.2029  -25.2463    8.9090 O   0  0  0  0  0  0  0  0  0  0  0  0
   31.6864  -26.6855   10.6420 N   0  0  0  0  0  0  0  0  0  0  0  0
   33.1224  -26.4459   10.5947 C   0  0  1  0  0  0  0  0  0  0  0  0
   33.4122  -25.0092   10.9096 C   0  0  0  0  0  0  0  0  0  0  0  0
   33.2494  -24.6296   12.3192 C   0  0  0  0  0  0  0  0  0  0  0  0
   32.2043  -23.7987   12.7395 C   0  0  0  0  0  0  0  0  0  0  0  0
   32.0462  -23.4579   14.0635 C   0  0  0  0  0  0  0  0  0  0  0  0
   32.9019  -23.9122   15.0425 C   0  0  0  0  0  0  0  0  0  0  0  0
   33.9355  -24.7306   14.6471 C   0  0  0  0  0  0  0  0  0  0  0  0
   34.0990  -25.0753   13.3251 C   0  0  0  0  0  0  0  0  0  0  0  0
   33.8434  -27.3288   11.5329 C   0  0  0  0  0  0  0  0  0  0  0  0
   35.0922  -27.2548   11.5971 O   0  0  0  0  0  0  0  0  0  0  0  0
   33.2122  -28.2524   12.3630 O   0  0  0  0  0  0  0  0  0  0  0  0
  2  1  1  1
  2 10  1  0
  2  3  1  0
  4  3  1  0
  4  9  1  0
  5  4  2  0
  6  5  1  0
  6  7  2  0
  7  8  1  0
  8  9  2  0
 10 11  2  0
 12 13  1  0
 12 10  1  0
 14 15  1  0
 13 14  1  6
 16 13  1  0
 16 17  2  0
 18 16  1  0
 19 18  1  0
 19 27  1  0
 19 20  1  1
 21 20  1  0
 21 22  2  0
 23 22  1  0
 24 23  2  0
 25 26  2  0
 25 24  1  0
 26 21  1  0
 27 28  2  0
 27 29  1  0
M  END
$$$$
