FCF.pdb
     RDKit          3D

 29 30  0  0  1  0  0  0  0  0999 V2000
   21.8501  -11.3617  -17.6306 N   0  0  0  0  0  0  0  0  0  0  0  0
   22.6104  -10.7876  -16.5385 C   0  0  1  0  0  0  0  0  0  0  0  0
   24.0092  -10.5125  -17.0517 C   0  0  0  0  0  0  0  0  0  0  0  0
   24.7218  -11.7657  -17.3911 C   0  0  0  0  0  0  0  0  0  0  0  0
   25.2603  -11.9806  -18.6465 C   0  0  0  0  0  0  0  0  0  0  0  0
   25.9279  -13.1612  -18.9557 C   0  0  0  0  0  0  0  0  0  0  0  0
   26.0750  -14.1538  -18.0245 C   0  0  0  0  0  0  0  0  0  0  0  0
   25.5466  -13.9627  -16.7652 C   0  0  0  0  0  0  0  0  0  0  0  0
   24.8844  -12.7914  -16.4590 C   0  0  0  0  0  0  0  0  0  0  0  0
   21.9280   -9.5415  -16.1194 C   0  0  0  0  0  0  0  0  0  0  0  0
   21.3683   -8.7943  -16.9591 O   0  0  0  0  0  0  0  0  0  0  0  0
   21.8684   -9.1230  -14.7499 N   0  0  0  0  0  0  0  0  0  0  0  0
   21.1910   -7.9133  -14.3331 C   0  0  1  0  0  0  0  0  0  0  0  0
   20.8447   -8.0182  -12.8655 C   0  0  0  0  0  0  0  0  0  0  0  0
   19.7024   -9.3994  -12.5866 S   0  0  0  0  0  0  0  0  0  0  0  0
   21.9874   -6.7042  -14.6350 C   0  0  0  0  0  0  0  0  0  0  0  0
   23.2213   -6.8366  -14.8657 O   0  0  0  0  0  0  0  0  0  0  0  0
   21.4275   -5.4033  -14.6770 N   0  0  0  0  0  0  0  0  0  0  0  0
   22.1700   -4.2290  -15.1146 C   0  0  1  0  0  0  0  0  0  0  0  0
   22.6832   -4.4377  -16.5075 C   0  0  0  0  0  0  0  0  0  0  0  0
   23.3926   -3.2929  -17.0940 C   0  0  0  0  0  0  0  0  0  0  0  0
   22.7406   -2.3710  -17.9212 C   0  0  0  0  0  0  0  0  0  0  0  0
   23.4053   -1.2911  -18.4563 C   0  0  0  0  0  0  0  0  0  0  0  0
   24.7402   -1.0587  -18.2094 C   0  0  0  0  0  0  0  0  0  0  0  0
   25.3973   -1.9554  -17.3976 C   0  0  0  0  0  0  0  0  0  0  0  0
   24.7386   -3.0369  -16.8595 C   0  0  0  0  0  0  0  0  0  0  0  0
   21.3329   -3.0142  -15.0564 C   0  0  0  0  0  0  0  0  0  0  0  0
   20.1228   -3.0961  -15.3697 O   0  0  0  0  0  0  0  0  0  0  0  0
   21.8120   -1.7648  -14.6693 O   0  0  0  0  0  0  0  0  0  0  0  0
  2  1  1  6
  2 10  1  0
  2  3  1  0
  4  3  1  0
  4  9  1  0
  5  4  2  0
  6  5  1  0
  6  7  2  0
  7  8  1  0
  8  9  2  0
 10 11  2  0
 12 13  1  0
 12 10  1  0
 14 15  1  0
 13 14  1  1
 16 13  1  0
 16 17  2  0
 18 16  1  0
 19 18  1  0
 19 27  1  0
 19 20  1  6
 21 20  1  0
 21 22  2  0
 23 22  1  0
 24 23  2  0
 25 26  2  0
 25 24  1  0
 26 21  1  0
 27 28  2  0
 27 29  1  0
M  END
$$$$
