FCF.pdb
     RDKit          3D

 29 30  0  0  1  0  0  0  0  0999 V2000
   19.4934   -9.9621  -21.0798 N   0  0  0  0  0  0  0  0  0  0  0  0
   20.3530  -10.2412  -19.9469 C   0  0  1  0  0  0  0  0  0  0  0  0
   21.7749   -9.9261  -20.3646 C   0  0  0  0  0  0  0  0  0  0  0  0
   22.2859  -10.9107  -21.3460 C   0  0  0  0  0  0  0  0  0  0  0  0
   22.3505  -10.6258  -22.6976 C   0  0  0  0  0  0  0  0  0  0  0  0
   22.8319  -11.5573  -23.6118 C   0  0  0  0  0  0  0  0  0  0  0  0
   23.2596  -12.7919  -23.2029 C   0  0  0  0  0  0  0  0  0  0  0  0
   23.2048  -13.0993  -21.8598 C   0  0  0  0  0  0  0  0  0  0  0  0
   22.7271  -12.1750  -20.9535 C   0  0  0  0  0  0  0  0  0  0  0  0
   19.9115   -9.3833  -18.8230 C   0  0  0  0  0  0  0  0  0  0  0  0
   19.5616   -8.1926  -19.0142 O   0  0  0  0  0  0  0  0  0  0  0  0
   19.8592   -9.8567  -17.4712 N   0  0  0  0  0  0  0  0  0  0  0  0
   19.4542   -9.0147  -16.3653 C   0  0  1  0  0  0  0  0  0  0  0  0
   18.3494   -9.7020  -15.5962 C   0  0  0  0  0  0  0  0  0  0  0  0
   18.1813   -8.9673  -13.9463 S   0  0  0  0  0  0  0  0  0  0  0  0
   20.5981   -8.6542  -15.4998 C   0  0  0  0  0  0  0  0  0  0  0  0
   21.2679   -9.5824  -14.9678 O   0  0  0  0  0  0  0  0  0  0  0  0
   20.9760   -7.3135  -15.2407 N   0  0  0  0  0  0  0  0  0  0  0  0
   22.0969   -6.9520  -14.3836 C   0  0  1  0  0  0  0  0  0  0  0  0
   22.9892   -5.9776  -15.0917 C   0  0  0  0  0  0  0  0  0  0  0  0
   22.4265   -4.6343  -15.2826 C   0  0  0  0  0  0  0  0  0  0  0  0
   22.6036   -3.6225  -14.3317 C   0  0  0  0  0  0  0  0  0  0  0  0
   22.0878   -2.3607  -14.5215 C   0  0  0  0  0  0  0  0  0  0  0  0
   21.3733   -2.0251  -15.6501 C   0  0  0  0  0  0  0  0  0  0  0  0
   21.1896   -3.0080  -16.5961 C   0  0  0  0  0  0  0  0  0  0  0  0
   21.7027   -4.2715  -16.4125 C   0  0  0  0  0  0  0  0  0  0  0  0
   21.6302   -6.3798  -13.1051 C   0  0  0  0  0  0  0  0  0  0  0  0
   20.4349   -6.0195  -13.0025 O   0  0  0  0  0  0  0  0  0  0  0  0
   22.4481   -6.2133  -11.9899 O   0  0  0  0  0  0  0  0  0  0  0  0
  2  1  1  6
  2 10  1  0
  2  3  1  0
  4  3  1  0
  4  9  1  0
  5  4  2  0
  6  5  1  0
  6  7  2  0
  7  8  1  0
  8  9  2  0
 10 11  2  0
 12 13  1  0
 12 10  1  0
 14 15  1  0
 13 14  1  1
 16 13  1  0
 16 17  2  0
 18 16  1  0
 19 18  1  0
 19 27  1  0
 19 20  1  6
 21 20  1  0
 21 22  2  0
 23 22  1  0
 24 23  2  0
 25 26  2  0
 25 24  1  0
 26 21  1  0
 27 28  2  0
 27 29  1  0
M  END
$$$$
