FCF.pdb
     RDKit          3D

 29 30  0  0  1  0  0  0  0  0999 V2000
   18.6224  -11.7998  -15.4505 N   0  0  0  0  0  0  0  0  0  0  0  0
   19.1034  -10.7528  -16.3295 C   0  0  1  0  0  0  0  0  0  0  0  0
   18.1022  -10.6086  -17.4576 C   0  0  0  0  0  0  0  0  0  0  0  0
   18.1868  -11.7398  -18.4098 C   0  0  0  0  0  0  0  0  0  0  0  0
   19.2614  -11.8918  -19.2669 C   0  0  0  0  0  0  0  0  0  0  0  0
   19.3318  -12.9578  -20.1579 C   0  0  0  0  0  0  0  0  0  0  0  0
   18.3363  -13.8957  -20.2167 C   0  0  0  0  0  0  0  0  0  0  0  0
   17.2544  -13.7655  -19.3718 C   0  0  0  0  0  0  0  0  0  0  0  0
   17.1850  -12.7080  -18.4881 C   0  0  0  0  0  0  0  0  0  0  0  0
   19.2109   -9.5086  -15.5330 C   0  0  0  0  0  0  0  0  0  0  0  0
   18.3004   -9.1654  -14.7394 O   0  0  0  0  0  0  0  0  0  0  0  0
   20.3453   -8.6369  -15.6214 N   0  0  0  0  0  0  0  0  0  0  0  0
   20.4310   -7.3920  -14.8874 C   0  0  1  0  0  0  0  0  0  0  0  0
   21.8652   -7.1584  -14.4710 C   0  0  0  0  0  0  0  0  0  0  0  0
   22.0259   -5.5516  -13.6448 S   0  0  0  0  0  0  0  0  0  0  0  0
   19.8811   -6.2576  -15.6609 C   0  0  0  0  0  0  0  0  0  0  0  0
   20.2223   -6.1297  -16.8694 O   0  0  0  0  0  0  0  0  0  0  0  0
   18.9880   -5.3077  -15.1062 N   0  0  0  0  0  0  0  0  0  0  0  0
   18.5109   -4.1406  -15.8356 C   0  0  1  0  0  0  0  0  0  0  0  0
   17.1640   -4.4236  -16.4295 C   0  0  0  0  0  0  0  0  0  0  0  0
   16.5394   -3.2973  -17.1359 C   0  0  0  0  0  0  0  0  0  0  0  0
   17.1275   -2.7253  -18.2701 C   0  0  0  0  0  0  0  0  0  0  0  0
   16.5314   -1.6801  -18.9381 C   0  0  0  0  0  0  0  0  0  0  0  0
   15.3307   -1.1420  -18.5308 C   0  0  0  0  0  0  0  0  0  0  0  0
   14.7379   -1.6924  -17.4171 C   0  0  0  0  0  0  0  0  0  0  0  0
   15.3286   -2.7376  -16.7448 C   0  0  0  0  0  0  0  0  0  0  0  0
   18.4428   -2.9535  -14.9604 C   0  0  0  0  0  0  0  0  0  0  0  0
   18.4703   -3.1136  -13.7183 O   0  0  0  0  0  0  0  0  0  0  0  0
   18.3487   -1.6479  -15.4367 O   0  0  0  0  0  0  0  0  0  0  0  0
  2  1  1  1
  2 10  1  0
  2  3  1  0
  4  3  1  0
  4  9  1  0
  5  4  2  0
  6  5  1  0
  6  7  2  0
  7  8  1  0
  8  9  2  0
 10 11  2  0
 12 13  1  0
 12 10  1  0
 14 15  1  0
 13 14  1  6
 16 13  1  0
 16 17  2  0
 18 16  1  0
 19 18  1  0
 19 27  1  0
 19 20  1  1
 21 20  1  0
 21 22  2  0
 23 22  1  0
 24 23  2  0
 25 26  2  0
 25 24  1  0
 26 21  1  0
 27 28  2  0
 27 29  1  0
M  END
$$$$
