FCF.pdb
     RDKit          3D

 29 30  0  0  1  0  0  0  0  0999 V2000
   21.1863  -12.1030  -20.8232 N   0  0  0  0  0  0  0  0  0  0  0  0
   20.9922  -11.7025  -19.4440 C   0  0  1  0  0  0  0  0  0  0  0  0
   22.2084  -12.1553  -18.6621 C   0  0  0  0  0  0  0  0  0  0  0  0
   22.3011  -13.6324  -18.6049 C   0  0  0  0  0  0  0  0  0  0  0  0
   23.0976  -14.3470  -19.4809 C   0  0  0  0  0  0  0  0  0  0  0  0
   23.1779  -15.7343  -19.4193 C   0  0  0  0  0  0  0  0  0  0  0  0
   22.4688  -16.4419  -18.4862 C   0  0  0  0  0  0  0  0  0  0  0  0
   21.6674  -15.7515  -17.6015 C   0  0  0  0  0  0  0  0  0  0  0  0
   21.5881  -14.3752  -17.6631 C   0  0  0  0  0  0  0  0  0  0  0  0
   20.8445  -10.2289  -19.4183 C   0  0  0  0  0  0  0  0  0  0  0  0
   20.8078   -9.5618  -20.4814 O   0  0  0  0  0  0  0  0  0  0  0  0
   20.7365   -9.4901  -18.1948 N   0  0  0  0  0  0  0  0  0  0  0  0
   20.4873   -8.0643  -18.1645 C   0  0  1  0  0  0  0  0  0  0  0  0
   19.2062   -7.7678  -18.9097 C   0  0  0  0  0  0  0  0  0  0  0  0
   17.8390   -8.7407  -18.2210 S   0  0  0  0  0  0  0  0  0  0  0  0
   20.4652   -7.5384  -16.7823 C   0  0  0  0  0  0  0  0  0  0  0  0
   19.7756   -8.1455  -15.9168 O   0  0  0  0  0  0  0  0  0  0  0  0
   21.1835   -6.3832  -16.3857 N   0  0  0  0  0  0  0  0  0  0  0  0
   21.1668   -5.8612  -15.0259 C   0  0  1  0  0  0  0  0  0  0  0  0
   22.5241   -6.0043  -14.4061 C   0  0  0  0  0  0  0  0  0  0  0  0
   23.1332   -7.3354  -14.5272 C   0  0  0  0  0  0  0  0  0  0  0  0
   24.0404   -7.6371  -15.5497 C   0  0  0  0  0  0  0  0  0  0  0  0
   24.6206   -8.8810  -15.6507 C   0  0  0  0  0  0  0  0  0  0  0  0
   24.3430   -9.8919  -14.7573 C   0  0  0  0  0  0  0  0  0  0  0  0
   23.4529   -9.6127  -13.7451 C   0  0  0  0  0  0  0  0  0  0  0  0
   22.8695   -8.3711  -13.6385 C   0  0  0  0  0  0  0  0  0  0  0  0
   20.7412   -4.4477  -15.0006 C   0  0  0  0  0  0  0  0  0  0  0  0
   20.6253   -3.8298  -16.0841 O   0  0  0  0  0  0  0  0  0  0  0  0
   20.4566   -3.7484  -13.8299 O   0  0  0  0  0  0  0  0  0  0  0  0
  2  1  1  6
  2 10  1  0
  2  3  1  0
  4  3  1  0
  4  9  1  0
  5  4  2  0
  6  5  1  0
  6  7  2  0
  7  8  1  0
  8  9  2  0
 10 11  2  0
 12 13  1  0
 12 10  1  0
 14 15  1  0
 13 14  1  1
 16 13  1  0
 16 17  2  0
 18 16  1  0
 19 18  1  0
 19 27  1  0
 19 20  1  6
 21 20  1  0
 21 22  2  0
 23 22  1  0
 24 23  2  0
 25 26  2  0
 25 24  1  0
 26 21  1  0
 27 28  2  0
 27 29  1  0
M  END
$$$$
