FCF.pdb
     RDKit          3D

 29 30  0  0  1  0  0  0  0  0999 V2000
   22.6525  -12.2362  -21.0824 N   0  0  0  0  0  0  0  0  0  0  0  0
   22.5782  -12.0569  -19.6463 C   0  0  1  0  0  0  0  0  0  0  0  0
   23.9429  -12.3832  -19.0747 C   0  0  0  0  0  0  0  0  0  0  0  0
   24.2537  -13.8263  -19.1948 C   0  0  0  0  0  0  0  0  0  0  0  0
   23.8148  -14.7463  -18.2603 C   0  0  0  0  0  0  0  0  0  0  0  0
   24.1119  -16.0999  -18.3818 C   0  0  0  0  0  0  0  0  0  0  0  0
   24.8515  -16.5686  -19.4342 C   0  0  0  0  0  0  0  0  0  0  0  0
   25.3004  -15.6703  -20.3791 C   0  0  0  0  0  0  0  0  0  0  0  0
   25.0054  -14.3277  -20.2581 C   0  0  0  0  0  0  0  0  0  0  0  0
   22.2000  -10.6486  -19.3860 C   0  0  0  0  0  0  0  0  0  0  0  0
   22.6905   -9.7098  -20.0603 O   0  0  0  0  0  0  0  0  0  0  0  0
   21.2651  -10.2819  -18.3634 N   0  0  0  0  0  0  0  0  0  0  0  0
   20.8253   -8.9174  -18.1621 C   0  0  1  0  0  0  0  0  0  0  0  0
   19.3282   -8.8439  -18.3575 C   0  0  0  0  0  0  0  0  0  0  0  0
   18.8855   -9.3871  -20.0305 S   0  0  0  0  0  0  0  0  0  0  0  0
   21.2440   -8.3925  -16.8443 C   0  0  0  0  0  0  0  0  0  0  0  0
   21.0118   -9.0876  -15.8166 O   0  0  0  0  0  0  0  0  0  0  0  0
   21.8942   -7.1439  -16.6834 N   0  0  0  0  0  0  0  0  0  0  0  0
   22.2388   -6.5858  -15.3828 C   0  0  1  0  0  0  0  0  0  0  0  0
   23.7275   -6.4628  -15.2568 C   0  0  0  0  0  0  0  0  0  0  0  0
   24.4755   -7.7198  -15.3911 C   0  0  0  0  0  0  0  0  0  0  0  0
   25.2474   -7.9969  -16.5255 C   0  0  0  0  0  0  0  0  0  0  0  0
   25.9591   -9.1692  -16.6407 C   0  0  0  0  0  0  0  0  0  0  0  0
   25.9518  -10.1289  -15.6528 C   0  0  0  0  0  0  0  0  0  0  0  0
   25.1980   -9.8729  -14.5299 C   0  0  0  0  0  0  0  0  0  0  0  0
   24.4843   -8.7029  -14.4084 C   0  0  0  0  0  0  0  0  0  0  0  0
   21.5996   -5.2707  -15.1784 C   0  0  0  0  0  0  0  0  0  0  0  0
   21.0021   -4.7312  -16.1381 O   0  0  0  0  0  0  0  0  0  0  0  0
   21.6198   -4.5828  -13.9673 O   0  0  0  0  0  0  0  0  0  0  0  0
  2  1  1  6
  2 10  1  0
  2  3  1  0
  4  3  1  0
  4  9  1  0
  5  4  2  0
  6  5  1  0
  6  7  2  0
  7  8  1  0
  8  9  2  0
 10 11  2  0
 12 13  1  0
 12 10  1  0
 14 15  1  0
 13 14  1  1
 16 13  1  0
 16 17  2  0
 18 16  1  0
 19 18  1  0
 19 27  1  0
 19 20  1  6
 21 20  1  0
 21 22  2  0
 23 22  1  0
 24 23  2  0
 25 26  2  0
 25 24  1  0
 26 21  1  0
 27 28  2  0
 27 29  1  0
M  END
$$$$
