MLM.pdb
     RDKit          3D

 25 24  0  0  1  0  0  0  0  0999 V2000
    7.6517  -19.5319   28.4933 C   0  0  0  0  0  0  0  0  0  0  0  0
    6.4860  -20.7959   27.8660 S   0  0  0  0  0  0  0  0  0  0  0  0
    5.9600  -20.2992   26.2135 C   0  0  0  0  0  0  0  0  0  0  0  0
    6.8996  -19.2020   25.7071 C   0  0  0  0  0  0  0  0  0  0  0  0
    6.3261  -18.7528   24.3633 C   0  0  2  0  0  0  0  0  0  0  0  0
    6.5387  -19.8555   23.4474 N   0  0  0  0  0  0  0  0  0  0  0  0
    7.0700  -17.5797   23.8392 C   0  0  0  0  0  0  0  0  0  0  0  0
    7.8936  -17.6757   22.8875 O   0  0  0  0  0  0  0  0  0  0  0  0
    7.1475  -12.0528   25.7418 C   0  0  0  0  0  0  0  0  0  0  0  0
    6.7667  -13.5615   25.7524 C   0  0  1  0  0  0  0  0  0  0  0  0
    5.4000  -13.5867   26.3948 C   0  0  0  0  0  0  0  0  0  0  0  0
    6.7559  -13.9656   24.3373 C   0  0  0  0  0  0  0  0  0  0  0  0
    7.5826  -15.0869   23.8483 C   0  0  2  0  0  0  0  0  0  0  0  0
    6.8838  -16.3044   24.3884 N   0  0  0  0  0  0  0  0  0  0  0  0
    8.9567  -15.2315   24.2854 C   0  0  0  0  0  0  0  0  0  0  0  0
    9.7757  -14.2490   24.0954 O   0  0  0  0  0  0  0  0  0  0  0  0
   10.8489  -14.3893   30.8557 C   0  0  0  0  0  0  0  0  0  0  0  0
   10.5597  -13.7575   29.1869 S   0  0  0  0  0  0  0  0  0  0  0  0
   11.1925  -14.9447   27.9995 C   0  0  0  0  0  0  0  0  0  0  0  0
   10.3279  -15.1741   26.8311 C   0  0  0  0  0  0  0  0  0  0  0  0
   10.7390  -16.1825   25.8008 C   0  0  2  0  0  0  0  0  0  0  0  0
    9.5587  -16.3498   24.9330 N   0  0  0  0  0  0  0  0  0  0  0  0
   11.2767  -17.4401   26.2783 C   0  0  0  0  0  0  0  0  0  0  0  0
   10.7364  -18.6952   26.0383 O   0  0  0  0  0  0  0  0  0  0  0  0
   12.3329  -17.4637   26.9909 O   0  0  0  0  0  0  0  0  0  0  0  0
  1  2  1  0
  2  3  1  0
  4  3  1  0
  4  5  1  0
  5  7  1  0
  5  6  1  6
  7  8  2  0
 10  9  1  6
 11 10  1  0
 13 12  1  1
 12 10  1  0
 14 13  1  0
 14  7  1  0
 15 16  2  0
 15 13  1  0
 17 18  1  0
 19 20  1  0
 19 18  1  0
 21 20  1  1
 21 22  1  0
 21 23  1  0
 22 15  1  0
 23 24  1  0
 25 23  2  0
M  END
$$$$
