MLM.pdb
     RDKit          3D

 25 24  0  0  1  0  0  0  0  0999 V2000
    8.0679  -12.2271   18.6741 C   0  0  0  0  0  0  0  0  0  0  0  0
    6.5900  -13.2997   18.7981 S   0  0  0  0  0  0  0  0  0  0  0  0
    6.9488  -14.6096   19.9855 C   0  0  0  0  0  0  0  0  0  0  0  0
    8.4628  -14.8308   20.0313 C   0  0  0  0  0  0  0  0  0  0  0  0
    8.6947  -15.8883   21.1105 C   0  0  2  0  0  0  0  0  0  0  0  0
    7.3832  -16.3892   21.4699 N   0  0  0  0  0  0  0  0  0  0  0  0
    9.2943  -15.2790   22.3243 C   0  0  0  0  0  0  0  0  0  0  0  0
   10.4848  -14.8604   22.3489 O   0  0  0  0  0  0  0  0  0  0  0  0
    6.0004  -12.8189   26.3369 C   0  0  0  0  0  0  0  0  0  0  0  0
    7.0727  -12.8645   25.2104 C   0  0  1  0  0  0  0  0  0  0  0  0
    7.8594  -11.5901   25.4059 C   0  0  0  0  0  0  0  0  0  0  0  0
    7.8560  -14.0822   25.4738 C   0  0  0  0  0  0  0  0  0  0  0  0
    9.0742  -14.3987   24.7020 C   0  0  2  0  0  0  0  0  0  0  0  0
    8.5516  -15.1438   23.5045 N   0  0  0  0  0  0  0  0  0  0  0  0
   10.0904  -15.2695   25.2581 C   0  0  0  0  0  0  0  0  0  0  0  0
   11.1616  -14.7387   25.7509 O   0  0  0  0  0  0  0  0  0  0  0  0
    9.8013  -14.1642   29.6893 C   0  0  0  0  0  0  0  0  0  0  0  0
   10.9688  -15.5440   29.6610 S   0  0  0  0  0  0  0  0  0  0  0  0
   10.1230  -17.0073   29.0583 C   0  0  0  0  0  0  0  0  0  0  0  0
    9.6565  -16.9242   27.6652 C   0  0  0  0  0  0  0  0  0  0  0  0
   10.5605  -17.3816   26.5602 C   0  0  2  0  0  0  0  0  0  0  0  0
   10.0717  -16.6919   25.3521 N   0  0  0  0  0  0  0  0  0  0  0  0
   10.7158  -18.8102   26.3760 C   0  0  0  0  0  0  0  0  0  0  0  0
   11.6561  -19.6108   27.0082 O   0  0  0  0  0  0  0  0  0  0  0  0
    9.9576  -19.4455   25.5726 O   0  0  0  0  0  0  0  0  0  0  0  0
  1  2  1  0
  2  3  1  0
  4  3  1  0
  4  5  1  0
  5  7  1  0
  5  6  1  1
  7  8  2  0
 10  9  1  1
 11 10  1  0
 13 12  1  1
 12 10  1  0
 14 13  1  0
 14  7  1  0
 15 16  2  0
 15 13  1  0
 17 18  1  0
 19 20  1  0
 19 18  1  0
 21 20  1  1
 21 22  1  0
 21 23  1  0
 22 15  1  0
 23 24  1  0
 25 23  2  0
M  END
$$$$
