MLM.pdb
     RDKit          3D

 25 24  0  0  1  0  0  0  0  0999 V2000
    7.2887  -11.9979   26.7584 C   0  0  0  0  0  0  0  0  0  0  0  0
    5.5314  -12.5087   26.7896 S   0  0  0  0  0  0  0  0  0  0  0  0
    5.4410  -14.2307   26.2595 C   0  0  0  0  0  0  0  0  0  0  0  0
    6.6885  -14.5576   25.4348 C   0  0  0  0  0  0  0  0  0  0  0  0
    6.3265  -15.7904   24.6067 C   0  0  2  0  0  0  0  0  0  0  0  0
    6.1880  -16.8814   25.5504 N   0  0  0  0  0  0  0  0  0  0  0  0
    7.4262  -16.1380   23.6718 C   0  0  0  0  0  0  0  0  0  0  0  0
    7.9475  -17.2871   23.6438 O   0  0  0  0  0  0  0  0  0  0  0  0
    8.4426  -12.2982   19.8867 C   0  0  0  0  0  0  0  0  0  0  0  0
    7.9431  -13.5478   20.6678 C   0  0  1  0  0  0  0  0  0  0  0  0
    7.0199  -14.2403   19.6934 C   0  0  0  0  0  0  0  0  0  0  0  0
    9.1573  -14.3208   20.9741 C   0  0  0  0  0  0  0  0  0  0  0  0
    9.1279  -15.4693   21.9015 C   0  0  2  0  0  0  0  0  0  0  0  0
    7.9340  -15.1909   22.7729 N   0  0  0  0  0  0  0  0  0  0  0  0
   10.2160  -15.6889   22.8332 C   0  0  0  0  0  0  0  0  0  0  0  0
   11.4079  -15.8686   22.3652 O   0  0  0  0  0  0  0  0  0  0  0  0
    9.7878  -14.0567   28.9734 C   0  0  0  0  0  0  0  0  0  0  0  0
   11.5909  -14.1240   28.8637 S   0  0  0  0  0  0  0  0  0  0  0  0
   12.0487  -15.1075   27.4344 C   0  0  0  0  0  0  0  0  0  0  0  0
   11.1095  -15.0331   26.3040 C   0  0  0  0  0  0  0  0  0  0  0  0
   11.3858  -15.8330   25.0666 C   0  0  2  0  0  0  0  0  0  0  0  0
   10.1579  -15.7271   24.2572 N   0  0  0  0  0  0  0  0  0  0  0  0
   11.8340  -17.1992   25.2440 C   0  0  0  0  0  0  0  0  0  0  0  0
   11.1040  -18.3377   24.9345 O   0  0  0  0  0  0  0  0  0  0  0  0
   12.9873  -17.4446   25.7273 O   0  0  0  0  0  0  0  0  0  0  0  0
  1  2  1  0
  2  3  1  0
  4  3  1  0
  4  5  1  0
  5  7  1  0
  5  6  1  1
  7  8  2  0
 10  9  1  6
 11 10  1  0
 13 12  1  6
 12 10  1  0
 14 13  1  0
 14  7  1  0
 15 16  2  0
 15 13  1  0
 17 18  1  0
 19 20  1  0
 19 18  1  0
 21 20  1  1
 21 22  1  0
 21 23  1  0
 22 15  1  0
 23 24  1  0
 25 23  2  0
M  END
$$$$
