MLM.pdb
     RDKit          3D

 25 24  0  0  1  0  0  0  0  0999 V2000
    8.1084  -13.4106   17.2693 C   0  0  0  0  0  0  0  0  0  0  0  0
    7.6173  -15.1040   16.7782 S   0  0  0  0  0  0  0  0  0  0  0  0
    7.8057  -16.1788   18.2148 C   0  0  0  0  0  0  0  0  0  0  0  0
    8.4221  -15.3685   19.3579 C   0  0  0  0  0  0  0  0  0  0  0  0
    8.5847  -16.3484   20.5198 C   0  0  2  0  0  0  0  0  0  0  0  0
    7.2492  -16.8028   20.8515 N   0  0  0  0  0  0  0  0  0  0  0  0
    9.1384  -15.6617   21.7140 C   0  0  0  0  0  0  0  0  0  0  0  0
   10.3299  -15.2479   21.7600 O   0  0  0  0  0  0  0  0  0  0  0  0
    7.7859  -12.0258   25.6245 C   0  0  0  0  0  0  0  0  0  0  0  0
    7.4951  -13.5182   25.9548 C   0  0  1  0  0  0  0  0  0  0  0  0
    6.1324  -13.4875   26.6055 C   0  0  0  0  0  0  0  0  0  0  0  0
    7.5080  -14.2095   24.6557 C   0  0  0  0  0  0  0  0  0  0  0  0
    8.7720  -14.5183   23.9579 C   0  0  2  0  0  0  0  0  0  0  0  0
    8.3487  -15.4439   22.8505 N   0  0  0  0  0  0  0  0  0  0  0  0
    9.8335  -15.2295   24.6417 C   0  0  0  0  0  0  0  0  0  0  0  0
   10.9497  -14.6159   24.8640 O   0  0  0  0  0  0  0  0  0  0  0  0
   10.5346  -13.5303   29.1507 C   0  0  0  0  0  0  0  0  0  0  0  0
   10.7776  -15.1445   29.9272 S   0  0  0  0  0  0  0  0  0  0  0  0
   11.1229  -16.3565   28.6499 C   0  0  0  0  0  0  0  0  0  0  0  0
   10.4185  -16.1340   27.3773 C   0  0  0  0  0  0  0  0  0  0  0  0
   10.7457  -16.9980   26.1967 C   0  0  2  0  0  0  0  0  0  0  0  0
    9.8178  -16.5671   25.1349 N   0  0  0  0  0  0  0  0  0  0  0  0
   10.7485  -18.4321   26.4022 C   0  0  0  0  0  0  0  0  0  0  0  0
   10.0086  -19.3554   25.6778 O   0  0  0  0  0  0  0  0  0  0  0  0
   11.4673  -18.9538   27.3160 O   0  0  0  0  0  0  0  0  0  0  0  0
  1  2  1  0
  2  3  1  0
  4  3  1  0
  4  5  1  0
  5  7  1  0
  5  6  1  1
  7  8  2  0
 10  9  1  6
 11 10  1  0
 13 12  1  1
 12 10  1  0
 14 13  1  0
 14  7  1  0
 15 16  2  0
 15 13  1  0
 17 18  1  0
 19 20  1  0
 19 18  1  0
 21 20  1  1
 21 22  1  0
 21 23  1  0
 22 15  1  0
 23 24  1  0
 25 23  2  0
M  END
$$$$
