MLM.pdb
     RDKit          3D

 25 24  0  0  1  0  0  0  0  0999 V2000
    7.1829  -20.7180   25.3219 C   0  0  0  0  0  0  0  0  0  0  0  0
    5.5685  -20.9626   24.4948 S   0  0  0  0  0  0  0  0  0  0  0  0
    5.6065  -20.0776   22.9233 C   0  0  0  0  0  0  0  0  0  0  0  0
    6.8372  -19.1676   22.9008 C   0  0  0  0  0  0  0  0  0  0  0  0
    6.8154  -18.4747   21.5385 C   0  0  2  0  0  0  0  0  0  0  0  0
    7.0852  -19.5076   20.5585 N   0  0  0  0  0  0  0  0  0  0  0  0
    7.9010  -17.4664   21.4433 C   0  0  0  0  0  0  0  0  0  0  0  0
    9.0847  -17.7792   21.1363 O   0  0  0  0  0  0  0  0  0  0  0  0
    7.1690  -12.5122   19.4863 C   0  0  0  0  0  0  0  0  0  0  0  0
    7.7562  -13.9277   19.7560 C   0  0  1  0  0  0  0  0  0  0  0  0
    8.8915  -14.0446   18.7667 C   0  0  0  0  0  0  0  0  0  0  0  0
    8.2023  -13.8984   21.1581 C   0  0  0  0  0  0  0  0  0  0  0  0
    8.7546  -15.0983   21.8178 C   0  0  2  0  0  0  0  0  0  0  0  0
    7.6496  -16.1112   21.6940 N   0  0  0  0  0  0  0  0  0  0  0  0
    9.0736  -15.0779   23.2313 C   0  0  0  0  0  0  0  0  0  0  0  0
   10.1165  -14.4216   23.6235 O   0  0  0  0  0  0  0  0  0  0  0  0
    6.8506  -11.2274   27.6466 C   0  0  0  0  0  0  0  0  0  0  0  0
    6.0901  -12.5839   26.7251 S   0  0  0  0  0  0  0  0  0  0  0  0
    7.3675  -13.4534   25.8130 C   0  0  0  0  0  0  0  0  0  0  0  0
    7.7561  -14.7552   26.3783 C   0  0  0  0  0  0  0  0  0  0  0  0
    8.8186  -15.5635   25.6964 C   0  0  2  0  0  0  0  0  0  0  0  0
    8.3636  -15.6988   24.3004 N   0  0  0  0  0  0  0  0  0  0  0  0
    9.1827  -16.8287   26.3010 C   0  0  0  0  0  0  0  0  0  0  0  0
    9.8433  -16.9880   27.5106 O   0  0  0  0  0  0  0  0  0  0  0  0
    8.9057  -17.9279   25.7188 O   0  0  0  0  0  0  0  0  0  0  0  0
  1  2  1  0
  2  3  1  0
  4  3  1  0
  4  5  1  0
  5  7  1  0
  5  6  1  6
  7  8  2  0
 10  9  1  6
 11 10  1  0
 13 12  1  1
 12 10  1  0
 14 13  1  0
 14  7  1  0
 15 16  2  0
 15 13  1  0
 17 18  1  0
 19 20  1  0
 19 18  1  0
 21 20  1  1
 21 22  1  0
 21 23  1  0
 22 15  1  0
 23 24  1  0
 25 23  2  0
M  END
$$$$
