MLM.pdb
     RDKit          3D

 25 24  0  0  1  0  0  0  0  0999 V2000
    7.7781  -11.6352   19.7454 C   0  0  0  0  0  0  0  0  0  0  0  0
    7.7093  -12.7934   18.3298 S   0  0  0  0  0  0  0  0  0  0  0  0
    8.2184  -14.4219   18.9156 C   0  0  0  0  0  0  0  0  0  0  0  0
    7.4054  -14.7718   20.1645 C   0  0  0  0  0  0  0  0  0  0  0  0
    8.2310  -15.8144   20.9180 C   0  0  2  0  0  0  0  0  0  0  0  0
    7.2977  -16.8428   21.3320 N   0  0  0  0  0  0  0  0  0  0  0  0
    8.8295  -15.2270   22.1431 C   0  0  0  0  0  0  0  0  0  0  0  0
    9.9705  -14.6874   22.1423 O   0  0  0  0  0  0  0  0  0  0  0  0
    5.4658  -13.4564   26.3222 C   0  0  0  0  0  0  0  0  0  0  0  0
    6.6016  -13.2567   25.2776 C   0  0  1  0  0  0  0  0  0  0  0  0
    7.2340  -11.9438   25.6749 C   0  0  0  0  0  0  0  0  0  0  0  0
    7.4942  -14.4134   25.4540 C   0  0  0  0  0  0  0  0  0  0  0  0
    8.6882  -14.6035   24.6065 C   0  0  2  0  0  0  0  0  0  0  0  0
    8.1412  -15.2494   23.3631 N   0  0  0  0  0  0  0  0  0  0  0  0
    9.7589  -15.4822   25.0328 C   0  0  0  0  0  0  0  0  0  0  0  0
   10.9724  -15.0356   25.0175 O   0  0  0  0  0  0  0  0  0  0  0  0
   11.4268  -13.7925   29.1594 C   0  0  0  0  0  0  0  0  0  0  0  0
   11.5080  -15.3842   30.0125 S   0  0  0  0  0  0  0  0  0  0  0  0
   11.4404  -16.6995   28.7938 C   0  0  0  0  0  0  0  0  0  0  0  0
   10.7068  -16.3668   27.5624 C   0  0  0  0  0  0  0  0  0  0  0  0
   10.6352  -17.3755   26.4558 C   0  0  2  0  0  0  0  0  0  0  0  0
    9.6590  -16.8266   25.4966 N   0  0  0  0  0  0  0  0  0  0  0  0
   10.3594  -18.7492   26.8245 C   0  0  0  0  0  0  0  0  0  0  0  0
   11.2560  -19.6227   27.4228 O   0  0  0  0  0  0  0  0  0  0  0  0
    9.2144  -19.2620   26.6012 O   0  0  0  0  0  0  0  0  0  0  0  0
  1  2  1  0
  2  3  1  0
  4  3  1  0
  4  5  1  0
  5  7  1  0
  5  6  1  1
  7  8  2  0
 10  9  1  1
 11 10  1  0
 13 12  1  1
 12 10  1  0
 14 13  1  0
 14  7  1  0
 15 16  2  0
 15 13  1  0
 17 18  1  0
 19 20  1  0
 19 18  1  0
 21 20  1  1
 21 22  1  0
 21 23  1  0
 22 15  1  0
 23 24  1  0
 25 23  2  0
M  END
$$$$
