MLM.pdb
     RDKit          3D

 25 24  0  0  1  0  0  0  0  0999 V2000
    2.1321  -18.5521   21.9079 C   0  0  0  0  0  0  0  0  0  0  0  0
    3.5130  -18.5464   20.7065 S   0  0  0  0  0  0  0  0  0  0  0  0
    5.0588  -18.6334   21.6323 C   0  0  0  0  0  0  0  0  0  0  0  0
    6.2264  -18.4608   20.6575 C   0  0  0  0  0  0  0  0  0  0  0  0
    7.4895  -18.4669   21.5184 C   0  0  2  0  0  0  0  0  0  0  0  0
    7.1304  -19.1353   22.7531 N   0  0  0  0  0  0  0  0  0  0  0  0
    7.9020  -17.0816   21.8576 C   0  0  0  0  0  0  0  0  0  0  0  0
    8.5622  -16.3615   21.0585 O   0  0  0  0  0  0  0  0  0  0  0  0
    7.3288  -12.3552   24.3634 C   0  0  0  0  0  0  0  0  0  0  0  0
    7.3692  -13.5358   25.3761 C   0  0  1  0  0  0  0  0  0  0  0  0
    6.2433  -13.2303   26.3354 C   0  0  0  0  0  0  0  0  0  0  0  0
    7.1382  -14.7439   24.5681 C   0  0  0  0  0  0  0  0  0  0  0  0
    8.0971  -15.1741   23.5311 C   0  0  2  0  0  0  0  0  0  0  0  0
    7.5697  -16.5133   23.0943 N   0  0  0  0  0  0  0  0  0  0  0  0
    9.4840  -15.4217   23.8707 C   0  0  0  0  0  0  0  0  0  0  0  0
   10.3478  -14.4781   23.6821 O   0  0  0  0  0  0  0  0  0  0  0  0
   10.2387  -12.9147   29.0172 C   0  0  0  0  0  0  0  0  0  0  0  0
    9.6640  -14.6272   29.0881 S   0  0  0  0  0  0  0  0  0  0  0  0
   10.6731  -15.6236   27.9887 C   0  0  0  0  0  0  0  0  0  0  0  0
   10.1047  -15.8368   26.6482 C   0  0  0  0  0  0  0  0  0  0  0  0
   10.9153  -16.5578   25.6137 C   0  0  2  0  0  0  0  0  0  0  0  0
   10.0556  -16.6081   24.4167 N   0  0  0  0  0  0  0  0  0  0  0  0
   11.4602  -17.8501   25.9773 C   0  0  0  0  0  0  0  0  0  0  0  0
   11.1874  -19.0522   25.3407 O   0  0  0  0  0  0  0  0  0  0  0  0
   12.2613  -17.9610   26.9621 O   0  0  0  0  0  0  0  0  0  0  0  0
  1  2  1  0
  2  3  1  0
  4  3  1  0
  4  5  1  0
  5  7  1  0
  5  6  1  1
  7  8  2  0
 10  9  1  6
 11 10  1  0
 13 12  1  1
 12 10  1  0
 14 13  1  0
 14  7  1  0
 15 16  2  0
 15 13  1  0
 17 18  1  0
 19 20  1  0
 19 18  1  0
 21 20  1  1
 21 22  1  0
 21 23  1  0
 22 15  1  0
 23 24  1  0
 25 23  2  0
M  END
$$$$
