MLM.pdb
     RDKit          3D

 25 24  0  0  1  0  0  0  0  0999 V2000
    5.2677  -12.8983   25.5616 C   0  0  0  0  0  0  0  0  0  0  0  0
    6.4532  -13.7101   26.6954 S   0  0  0  0  0  0  0  0  0  0  0  0
    6.7232  -15.3944   26.1085 C   0  0  0  0  0  0  0  0  0  0  0  0
    5.7808  -15.6625   24.9324 C   0  0  0  0  0  0  0  0  0  0  0  0
    6.2812  -16.9545   24.2866 C   0  0  2  0  0  0  0  0  0  0  0  0
    6.4984  -17.8884   25.3732 N   0  0  0  0  0  0  0  0  0  0  0  0
    7.5851  -16.7349   23.6115 C   0  0  0  0  0  0  0  0  0  0  0  0
    8.4223  -17.6649   23.4465 O   0  0  0  0  0  0  0  0  0  0  0  0
    7.9285  -11.9982   20.6828 C   0  0  0  0  0  0  0  0  0  0  0  0
    7.7698  -13.5163   20.9846 C   0  0  1  0  0  0  0  0  0  0  0  0
    7.7022  -14.1536   19.6169 C   0  0  0  0  0  0  0  0  0  0  0  0
    8.9752  -13.8859   21.7436 C   0  0  0  0  0  0  0  0  0  0  0  0
    9.1635  -15.2494   22.2778 C   0  0  2  0  0  0  0  0  0  0  0  0
    7.9407  -15.4700   23.1254 N   0  0  0  0  0  0  0  0  0  0  0  0
   10.2757  -15.5461   23.1582 C   0  0  0  0  0  0  0  0  0  0  0  0
   11.4794  -15.4101   22.7060 O   0  0  0  0  0  0  0  0  0  0  0  0
   10.1589  -13.8373   28.9319 C   0  0  0  0  0  0  0  0  0  0  0  0
   11.5945  -13.4481   27.9048 S   0  0  0  0  0  0  0  0  0  0  0  0
   12.2588  -14.9742   27.2343 C   0  0  0  0  0  0  0  0  0  0  0  0
   11.2604  -15.8762   26.6385 C   0  0  0  0  0  0  0  0  0  0  0  0
   11.4573  -16.3641   25.2348 C   0  0  2  0  0  0  0  0  0  0  0  0
   10.2292  -15.9769   24.5164 N   0  0  0  0  0  0  0  0  0  0  0  0
   11.8036  -17.7596   25.0580 C   0  0  0  0  0  0  0  0  0  0  0  0
   11.0995  -18.6782   24.2930 O   0  0  0  0  0  0  0  0  0  0  0  0
   12.8296  -18.2500   25.6333 O   0  0  0  0  0  0  0  0  0  0  0  0
  1  2  1  0
  2  3  1  0
  4  3  1  0
  4  5  1  0
  5  7  1  0
  5  6  1  1
  7  8  2  0
 10  9  1  6
 11 10  1  0
 13 12  1  1
 12 10  1  0
 14 13  1  0
 14  7  1  0
 15 16  2  0
 15 13  1  0
 17 18  1  0
 19 20  1  0
 19 18  1  0
 21 20  1  1
 21 22  1  0
 21 23  1  0
 22 15  1  0
 23 24  1  0
 25 23  2  0
M  END
$$$$
