PPG.pdb
     RDKit          3D

 19 20  0  0  1  0  0  0  0  0999 V2000
    9.0074  -13.6006   20.7071 N   0  0  0  0  0  0  0  0  0  0  0  0
    8.3373  -13.8560   19.4395 C   0  0  0  0  0  0  0  0  0  0  0  0
    6.8967  -13.4819   19.6218 C   0  0  0  0  0  0  0  0  0  0  0  0
    6.6723  -13.6906   21.0840 C   0  0  0  0  0  0  0  0  0  0  0  0
    8.0248  -13.3552   21.6811 C   0  0  1  0  0  0  0  0  0  0  0  0
    8.2027  -13.9679   23.0162 C   0  0  0  0  0  0  0  0  0  0  0  0
    8.7576  -15.1252   22.9368 O   0  0  0  0  0  0  0  0  0  0  0  0
    7.8541  -13.4517   24.2594 N   0  0  0  0  0  0  0  0  0  0  0  0
    7.4189  -12.0807   24.6008 C   0  0  0  0  0  0  0  0  0  0  0  0
    6.1011  -12.4277   25.3134 C   0  0  0  0  0  0  0  0  0  0  0  0
    6.2583  -13.8768   25.7893 C   0  0  0  0  0  0  0  0  0  0  0  0
    7.7566  -14.0471   25.5467 C   0  0  1  0  0  0  0  0  0  0  0  0
    8.2742  -15.3363   25.8417 C   0  0  0  0  0  0  0  0  0  0  0  0
    8.3122  -15.8561   26.9511 O   0  0  0  0  0  0  0  0  0  0  0  0
    8.8083  -16.1212   24.7523 N   0  0  0  0  0  0  0  0  0  0  0  0
   10.0319  -16.8727   24.9355 C   0  0  0  0  0  0  0  0  0  0  0  0
    9.7596  -18.2739   25.3341 C   0  0  0  0  0  0  0  0  0  0  0  0
    9.2396  -18.6307   26.5548 O   0  0  0  0  0  0  0  0  0  0  0  0
   10.0209  -19.1821   24.5053 O   0  0  0  0  0  0  0  0  0  0  0  0
  1  5  1  0
  1  2  1  0
  2  3  1  0
  3  4  1  0
  5  6  1  1
  5  4  1  0
  6  8  1  0
  7  6  2  0
  8 12  1  0
  8  9  1  0
 10  9  1  0
 11 12  1  0
 11 10  1  0
 12 13  1  6
 13 14  2  0
 13 15  1  0
 15 16  1  0
 17 16  1  0
 17 18  1  0
 19 17  2  0
M  END
$$$$
