PPG.pdb
     RDKit          3D

 19 20  0  0  1  0  0  0  0  0999 V2000
    9.0539  -14.3653   21.4311 N   0  0  0  0  0  0  0  0  0  0  0  0
    8.4625  -14.6452   20.1300 C   0  0  0  0  0  0  0  0  0  0  0  0
    7.0852  -14.0523   20.1374 C   0  0  0  0  0  0  0  0  0  0  0  0
    6.7088  -14.0819   21.5829 C   0  0  0  0  0  0  0  0  0  0  0  0
    8.0410  -13.8869   22.2795 C   0  0  1  0  0  0  0  0  0  0  0  0
    8.0101  -14.3846   23.6727 C   0  0  0  0  0  0  0  0  0  0  0  0
    8.3693  -15.6173   23.7440 O   0  0  0  0  0  0  0  0  0  0  0  0
    7.6565  -13.6990   24.8296 N   0  0  0  0  0  0  0  0  0  0  0  0
    7.5898  -12.2393   25.0539 C   0  0  0  0  0  0  0  0  0  0  0  0
    6.1429  -12.1506   25.5670 C   0  0  0  0  0  0  0  0  0  0  0  0
    5.8111  -13.5457   26.1098 C   0  0  0  0  0  0  0  0  0  0  0  0
    7.2162  -14.1443   26.1059 C   0  0  1  0  0  0  0  0  0  0  0  0
    7.2968  -15.5005   26.5200 C   0  0  0  0  0  0  0  0  0  0  0  0
    7.3394  -15.8937   27.6802 O   0  0  0  0  0  0  0  0  0  0  0  0
    7.3333  -16.5229   25.4996 N   0  0  0  0  0  0  0  0  0  0  0  0
    7.1790  -17.9149   25.8658 C   0  0  0  0  0  0  0  0  0  0  0  0
    8.4574  -18.5043   26.3292 C   0  0  0  0  0  0  0  0  0  0  0  0
    8.8540  -18.5238   27.6445 O   0  0  0  0  0  0  0  0  0  0  0  0
    9.2169  -19.0131   25.4665 O   0  0  0  0  0  0  0  0  0  0  0  0
  1  5  1  0
  1  2  1  0
  2  3  1  0
  3  4  1  0
  5  6  1  1
  5  4  1  0
  6  8  1  0
  7  6  2  0
  8 12  1  0
  8  9  1  0
 10  9  1  0
 11 12  1  0
 11 10  1  0
 12 13  1  6
 13 14  2  0
 13 15  1  0
 15 16  1  0
 17 16  1  0
 17 18  1  0
 19 17  2  0
M  END
$$$$
