PPG.pdb
     RDKit          3D

 19 20  0  0  1  0  0  0  0  0999 V2000
    8.9895  -14.0684   21.1858 N   0  0  0  0  0  0  0  0  0  0  0  0
    8.3920  -14.0472   19.8579 C   0  0  0  0  0  0  0  0  0  0  0  0
    7.1351  -13.2353   19.9554 C   0  0  0  0  0  0  0  0  0  0  0  0
    6.7231  -13.4140   21.3803 C   0  0  0  0  0  0  0  0  0  0  0  0
    8.0513  -13.5551   22.0973 C   0  0  1  0  0  0  0  0  0  0  0  0
    7.9019  -14.2411   23.3998 C   0  0  0  0  0  0  0  0  0  0  0  0
    8.1358  -15.5018   23.3015 O   0  0  0  0  0  0  0  0  0  0  0  0
    7.5586  -13.6952   24.6318 N   0  0  0  0  0  0  0  0  0  0  0  0
    7.6125  -12.2821   25.0628 C   0  0  0  0  0  0  0  0  0  0  0  0
    6.1574  -12.1297   25.5362 C   0  0  0  0  0  0  0  0  0  0  0  0
    5.6778  -13.5495   25.8602 C   0  0  0  0  0  0  0  0  0  0  0  0
    7.0224  -14.2724   25.8152 C   0  0  1  0  0  0  0  0  0  0  0  0
    6.9624  -15.6749   26.0309 C   0  0  0  0  0  0  0  0  0  0  0  0
    6.3247  -16.2369   26.9140 O   0  0  0  0  0  0  0  0  0  0  0  0
    7.7122  -16.5331   25.1424 N   0  0  0  0  0  0  0  0  0  0  0  0
    7.6178  -17.9713   25.2772 C   0  0  0  0  0  0  0  0  0  0  0  0
    8.8014  -18.5354   25.9681 C   0  0  0  0  0  0  0  0  0  0  0  0
    8.8963  -18.6648   27.3327 O   0  0  0  0  0  0  0  0  0  0  0  0
    9.7690  -18.9151   25.2614 O   0  0  0  0  0  0  0  0  0  0  0  0
  1  5  1  0
  1  2  1  0
  2  3  1  0
  3  4  1  0
  5  6  1  1
  5  4  1  0
  6  8  1  0
  7  6  2  0
  8 12  1  0
  8  9  1  0
 10  9  1  0
 11 12  1  0
 11 10  1  0
 12 13  1  6
 13 14  2  0
 13 15  1  0
 15 16  1  0
 17 16  1  0
 17 18  1  0
 19 17  2  0
M  END
$$$$
