PPG.pdb
     RDKit          3D

 19 20  0  0  1  0  0  0  0  0999 V2000
    8.9086  -14.3379   21.6282 N   0  0  0  0  0  0  0  0  0  0  0  0
    8.3181  -14.9242   20.4331 C   0  0  0  0  0  0  0  0  0  0  0  0
    6.8511  -14.6160   20.4722 C   0  0  0  0  0  0  0  0  0  0  0  0
    6.5667  -14.4953   21.9339 C   0  0  0  0  0  0  0  0  0  0  0  0
    7.8664  -13.9405   22.4828 C   0  0  1  0  0  0  0  0  0  0  0  0
    8.0125  -14.2143   23.9296 C   0  0  0  0  0  0  0  0  0  0  0  0
    8.5544  -15.3609   24.1430 O   0  0  0  0  0  0  0  0  0  0  0  0
    7.6481  -13.4107   25.0043 N   0  0  0  0  0  0  0  0  0  0  0  0
    7.4331  -11.9483   25.0324 C   0  0  0  0  0  0  0  0  0  0  0  0
    6.0148  -11.9351   25.6266 C   0  0  0  0  0  0  0  0  0  0  0  0
    5.8683  -13.2653   26.3751 C   0  0  0  0  0  0  0  0  0  0  0  0
    7.3286  -13.7124   26.3564 C   0  0  1  0  0  0  0  0  0  0  0  0
    7.5803  -14.9806   26.9441 C   0  0  0  0  0  0  0  0  0  0  0  0
    7.7068  -15.2018   28.1430 O   0  0  0  0  0  0  0  0  0  0  0  0
    7.7016  -16.1244   26.0695 N   0  0  0  0  0  0  0  0  0  0  0  0
    7.6234  -17.4628   26.6154 C   0  0  0  0  0  0  0  0  0  0  0  0
    8.9519  -17.9555   27.0499 C   0  0  0  0  0  0  0  0  0  0  0  0
   10.1101  -17.2258   26.9326 O   0  0  0  0  0  0  0  0  0  0  0  0
    9.0165  -19.1057   27.5529 O   0  0  0  0  0  0  0  0  0  0  0  0
  1  5  1  0
  1  2  1  0
  2  3  1  0
  3  4  1  0
  5  6  1  1
  5  4  1  0
  6  8  1  0
  7  6  2  0
  8 12  1  0
  8  9  1  0
 10  9  1  0
 11 12  1  0
 11 10  1  0
 12 13  1  6
 13 14  2  0
 13 15  1  0
 15 16  1  0
 17 16  1  0
 17 18  1  0
 19 17  2  0
M  END
$$$$
