PPG.pdb
     RDKit          3D

 19 20  0  0  1  0  0  0  0  0999 V2000
    9.0232  -14.0026   21.0430 N   0  0  0  0  0  0  0  0  0  0  0  0
    8.3154  -14.1858   19.7835 C   0  0  0  0  0  0  0  0  0  0  0  0
    6.9377  -13.6234   19.9686 C   0  0  0  0  0  0  0  0  0  0  0  0
    6.6995  -13.7802   21.4351 C   0  0  0  0  0  0  0  0  0  0  0  0
    8.0889  -13.6166   22.0191 C   0  0  1  0  0  0  0  0  0  0  0  0
    8.1955  -14.2284   23.3621 C   0  0  0  0  0  0  0  0  0  0  0  0
    8.7553  -15.3851   23.3133 O   0  0  0  0  0  0  0  0  0  0  0  0
    7.7799  -13.7121   24.5845 N   0  0  0  0  0  0  0  0  0  0  0  0
    7.3461  -12.3358   24.9059 C   0  0  0  0  0  0  0  0  0  0  0  0
    5.9822  -12.6650   25.5352 C   0  0  0  0  0  0  0  0  0  0  0  0
    6.0875  -14.1184   26.0122 C   0  0  0  0  0  0  0  0  0  0  0  0
    7.5949  -14.3114   25.8604 C   0  0  1  0  0  0  0  0  0  0  0  0
    8.0735  -15.6099   26.1795 C   0  0  0  0  0  0  0  0  0  0  0  0
    8.4493  -15.9828   27.2850 O   0  0  0  0  0  0  0  0  0  0  0  0
    8.1309  -16.5933   25.1224 N   0  0  0  0  0  0  0  0  0  0  0  0
    8.6495  -17.9171   25.3946 C   0  0  0  0  0  0  0  0  0  0  0  0
    7.5654  -18.8737   25.7203 C   0  0  0  0  0  0  0  0  0  0  0  0
    7.3734  -19.4097   26.9707 O   0  0  0  0  0  0  0  0  0  0  0  0
    6.7811  -19.2098   24.7972 O   0  0  0  0  0  0  0  0  0  0  0  0
  1  5  1  0
  1  2  1  0
  2  3  1  0
  3  4  1  0
  5  6  1  1
  5  4  1  0
  6  8  1  0
  7  6  2  0
  8 12  1  0
  8  9  1  0
 10  9  1  0
 11 12  1  0
 11 10  1  0
 12 13  1  6
 13 14  2  0
 13 15  1  0
 15 16  1  0
 17 16  1  0
 17 18  1  0
 19 17  2  0
M  END
$$$$
