PPG.pdb
     RDKit          3D

 19 20  0  0  1  0  0  0  0  0999 V2000
    9.0346  -14.5168   21.4390 N   0  0  0  0  0  0  0  0  0  0  0  0
    8.4735  -14.5799   20.0965 C   0  0  0  0  0  0  0  0  0  0  0  0
    7.2506  -13.7121   20.0909 C   0  0  0  0  0  0  0  0  0  0  0  0
    6.7941  -13.7568   21.5128 C   0  0  0  0  0  0  0  0  0  0  0  0
    8.0957  -13.8928   22.2779 C   0  0  1  0  0  0  0  0  0  0  0  0
    7.8828  -14.4633   23.6265 C   0  0  0  0  0  0  0  0  0  0  0  0
    8.0545  -15.7377   23.6348 O   0  0  0  0  0  0  0  0  0  0  0  0
    7.5403  -13.8037   24.8017 N   0  0  0  0  0  0  0  0  0  0  0  0
    7.6570  -12.3648   25.1205 C   0  0  0  0  0  0  0  0  0  0  0  0
    6.2014  -12.1031   25.5416 C   0  0  0  0  0  0  0  0  0  0  0  0
    5.6423  -13.4668   25.9644 C   0  0  0  0  0  0  0  0  0  0  0  0
    6.9487  -14.2565   26.0126 C   0  0  1  0  0  0  0  0  0  0  0  0
    6.8120  -15.6324   26.3371 C   0  0  0  0  0  0  0  0  0  0  0  0
    5.7567  -16.2130   26.5646 O   0  0  0  0  0  0  0  0  0  0  0  0
    8.0100  -16.4368   26.4112 N   0  0  0  0  0  0  0  0  0  0  0  0
    7.9077  -17.8753   26.5358 C   0  0  0  0  0  0  0  0  0  0  0  0
    9.2419  -18.5126   26.6370 C   0  0  0  0  0  0  0  0  0  0  0  0
    9.6671  -19.2181   27.7367 O   0  0  0  0  0  0  0  0  0  0  0  0
   10.0237  -18.3980   25.6594 O   0  0  0  0  0  0  0  0  0  0  0  0
  1  5  1  0
  1  2  1  0
  2  3  1  0
  3  4  1  0
  5  6  1  1
  5  4  1  0
  6  8  1  0
  7  6  2  0
  8 12  1  0
  8  9  1  0
 10  9  1  0
 11 12  1  0
 11 10  1  0
 12 13  1  6
 13 14  2  0
 13 15  1  0
 15 16  1  0
 17 16  1  0
 17 18  1  0
 19 17  2  0
M  END
$$$$
