PPG.pdb
     RDKit          3D

 19 20  0  0  1  0  0  0  0  0999 V2000
    8.9737  -14.5800   21.5383 N   0  0  0  0  0  0  0  0  0  0  0  0
    8.3841  -14.8151   20.2275 C   0  0  0  0  0  0  0  0  0  0  0  0
    7.0568  -14.1176   20.2121 C   0  0  0  0  0  0  0  0  0  0  0  0
    6.6553  -14.1163   21.6511 C   0  0  0  0  0  0  0  0  0  0  0  0
    7.9868  -14.0239   22.3698 C   0  0  1  0  0  0  0  0  0  0  0  0
    7.8945  -14.5160   23.7622 C   0  0  0  0  0  0  0  0  0  0  0  0
    8.1112  -15.7816   23.8333 O   0  0  0  0  0  0  0  0  0  0  0  0
    7.6167  -13.7957   24.9188 N   0  0  0  0  0  0  0  0  0  0  0  0
    7.7944  -12.3498   25.1709 C   0  0  0  0  0  0  0  0  0  0  0  0
    6.3644  -12.0183   25.6293 C   0  0  0  0  0  0  0  0  0  0  0  0
    5.7738  -13.3421   26.1293 C   0  0  0  0  0  0  0  0  0  0  0  0
    7.0530  -14.1756   26.1674 C   0  0  1  0  0  0  0  0  0  0  0  0
    6.8804  -15.5308   26.5556 C   0  0  0  0  0  0  0  0  0  0  0  0
    5.8801  -16.2108   26.3565 O   0  0  0  0  0  0  0  0  0  0  0  0
    7.9673  -16.1846   27.2476 N   0  0  0  0  0  0  0  0  0  0  0  0
    7.8624  -17.5853   27.5974 C   0  0  0  0  0  0  0  0  0  0  0  0
    9.1126  -18.3209   27.2936 C   0  0  0  0  0  0  0  0  0  0  0  0
    9.2572  -19.1650   26.2191 O   0  0  0  0  0  0  0  0  0  0  0  0
   10.0917  -18.1597   28.0651 O   0  0  0  0  0  0  0  0  0  0  0  0
  1  5  1  0
  1  2  1  0
  2  3  1  0
  3  4  1  0
  5  6  1  1
  5  4  1  0
  6  8  1  0
  7  6  2  0
  8 12  1  0
  8  9  1  0
 10  9  1  0
 11 12  1  0
 11 10  1  0
 12 13  1  6
 13 14  2  0
 13 15  1  0
 15 16  1  0
 17 16  1  0
 17 18  1  0
 19 17  2  0
M  END
$$$$
