PPG.pdb
     RDKit          3D

 19 20  0  0  1  0  0  0  0  0999 V2000
    8.8853  -13.7074   21.4346 N   0  0  0  0  0  0  0  0  0  0  0  0
    8.2893  -14.1461   20.1803 C   0  0  0  0  0  0  0  0  0  0  0  0
    6.8277  -13.8186   20.2509 C   0  0  0  0  0  0  0  0  0  0  0  0
    6.5399  -13.8569   21.7164 C   0  0  0  0  0  0  0  0  0  0  0  0
    7.8468  -13.3897   22.3263 C   0  0  1  0  0  0  0  0  0  0  0  0
    7.9827  -13.8259   23.7337 C   0  0  0  0  0  0  0  0  0  0  0  0
    8.4613  -15.0166   23.8171 O   0  0  0  0  0  0  0  0  0  0  0  0
    7.6667  -13.1246   24.8921 N   0  0  0  0  0  0  0  0  0  0  0  0
    7.5029  -11.6665   25.0729 C   0  0  0  0  0  0  0  0  0  0  0  0
    6.0976  -11.6680   25.6971 C   0  0  0  0  0  0  0  0  0  0  0  0
    5.9195  -13.0621   26.3102 C   0  0  0  0  0  0  0  0  0  0  0  0
    7.3629  -13.5520   26.2135 C   0  0  1  0  0  0  0  0  0  0  0  0
    7.5817  -14.8810   26.6641 C   0  0  0  0  0  0  0  0  0  0  0  0
    7.5984  -15.2470   27.8338 O   0  0  0  0  0  0  0  0  0  0  0  0
    7.8070  -15.9077   25.6726 N   0  0  0  0  0  0  0  0  0  0  0  0
    7.8889  -17.2956   26.0756 C   0  0  0  0  0  0  0  0  0  0  0  0
    9.2608  -17.6629   26.4991 C   0  0  0  0  0  0  0  0  0  0  0  0
   10.3693  -17.5149   25.7008 O   0  0  0  0  0  0  0  0  0  0  0  0
    9.4127  -18.1355   27.6539 O   0  0  0  0  0  0  0  0  0  0  0  0
  1  5  1  0
  1  2  1  0
  2  3  1  0
  3  4  1  0
  5  6  1  1
  5  4  1  0
  6  8  1  0
  7  6  2  0
  8 12  1  0
  8  9  1  0
 10  9  1  0
 11 12  1  0
 11 10  1  0
 12 13  1  6
 13 14  2  0
 13 15  1  0
 15 16  1  0
 17 16  1  0
 17 18  1  0
 19 17  2  0
M  END
$$$$
