PPG.pdb
     RDKit          3D

 19 20  0  0  1  0  0  0  0  0999 V2000
    8.9182  -13.7873   21.0215 N   0  0  0  0  0  0  0  0  0  0  0  0
    8.1773  -13.9639   19.7802 C   0  0  0  0  0  0  0  0  0  0  0  0
    6.8592  -13.2703   19.9536 C   0  0  0  0  0  0  0  0  0  0  0  0
    6.6306  -13.3360   21.4285 C   0  0  0  0  0  0  0  0  0  0  0  0
    8.0380  -13.2726   21.9884 C   0  0  1  0  0  0  0  0  0  0  0  0
    8.1096  -13.8281   23.3579 C   0  0  0  0  0  0  0  0  0  0  0  0
    8.5623  -15.0318   23.3584 O   0  0  0  0  0  0  0  0  0  0  0  0
    7.7608  -13.2197   24.5587 N   0  0  0  0  0  0  0  0  0  0  0  0
    7.4905  -11.7909   24.8253 C   0  0  0  0  0  0  0  0  0  0  0  0
    6.0998  -11.9349   25.4655 C   0  0  0  0  0  0  0  0  0  0  0  0
    6.0375  -13.3710   25.9992 C   0  0  0  0  0  0  0  0  0  0  0  0
    7.5119  -13.7432   25.8568 C   0  0  1  0  0  0  0  0  0  0  0  0
    7.8378  -15.0750   26.2272 C   0  0  0  0  0  0  0  0  0  0  0  0
    7.2096  -15.7734   27.0146 O   0  0  0  0  0  0  0  0  0  0  0  0
    9.0096  -15.6789   25.6355 N   0  0  0  0  0  0  0  0  0  0  0  0
    9.3481  -17.0523   25.9433 C   0  0  0  0  0  0  0  0  0  0  0  0
   10.5393  -17.5055   25.1870 C   0  0  0  0  0  0  0  0  0  0  0  0
   11.8052  -17.0131   25.3941 O   0  0  0  0  0  0  0  0  0  0  0  0
   10.3764  -18.3898   24.3086 O   0  0  0  0  0  0  0  0  0  0  0  0
  1  5  1  0
  1  2  1  0
  2  3  1  0
  3  4  1  0
  5  6  1  1
  5  4  1  0
  6  8  1  0
  7  6  2  0
  8 12  1  0
  8  9  1  0
 10  9  1  0
 11 12  1  0
 11 10  1  0
 12 13  1  6
 13 14  2  0
 13 15  1  0
 15 16  1  0
 17 16  1  0
 17 18  1  0
 19 17  2  0
M  END
$$$$
