PPG.pdb
     RDKit          3D

 19 20  0  0  1  0  0  0  0  0999 V2000
    8.9813  -14.4206   21.8087 N   0  0  0  0  0  0  0  0  0  0  0  0
    8.3786  -14.8041   20.5396 C   0  0  0  0  0  0  0  0  0  0  0  0
    6.9873  -14.2448   20.5280 C   0  0  0  0  0  0  0  0  0  0  0  0
    6.6324  -14.1829   21.9779 C   0  0  0  0  0  0  0  0  0  0  0  0
    7.9692  -13.9086   22.6381 C   0  0  1  0  0  0  0  0  0  0  0  0
    7.9703  -14.3090   24.0626 C   0  0  0  0  0  0  0  0  0  0  0  0
    8.2247  -15.5618   24.2029 O   0  0  0  0  0  0  0  0  0  0  0  0
    7.7404  -13.5200   25.1842 N   0  0  0  0  0  0  0  0  0  0  0  0
    7.8544  -12.0522   25.3197 C   0  0  0  0  0  0  0  0  0  0  0  0
    6.4467  -11.7609   25.8657 C   0  0  0  0  0  0  0  0  0  0  0  0
    5.9713  -13.0723   26.5025 C   0  0  0  0  0  0  0  0  0  0  0  0
    7.2948  -13.8344   26.4972 C   0  0  1  0  0  0  0  0  0  0  0  0
    7.2289  -15.1641   26.9918 C   0  0  0  0  0  0  0  0  0  0  0  0
    6.7518  -15.5048   28.0682 O   0  0  0  0  0  0  0  0  0  0  0  0
    7.7662  -16.2238   26.1696 N   0  0  0  0  0  0  0  0  0  0  0  0
    7.6222  -17.6033   26.5840 C   0  0  0  0  0  0  0  0  0  0  0  0
    8.6991  -18.0101   27.5173 C   0  0  0  0  0  0  0  0  0  0  0  0
    8.7687  -19.2499   28.1054 O   0  0  0  0  0  0  0  0  0  0  0  0
    9.5960  -17.1701   27.7819 O   0  0  0  0  0  0  0  0  0  0  0  0
  1  5  1  0
  1  2  1  0
  2  3  1  0
  3  4  1  0
  5  6  1  1
  5  4  1  0
  6  8  1  0
  7  6  2  0
  8 12  1  0
  8  9  1  0
 10  9  1  0
 11 12  1  0
 11 10  1  0
 12 13  1  6
 13 14  2  0
 13 15  1  0
 15 16  1  0
 17 16  1  0
 17 18  1  0
 19 17  2  0
M  END
$$$$
