PPG.pdb
     RDKit          3D

 19 20  0  0  1  0  0  0  0  0999 V2000
    9.0173  -13.7970   20.9490 N   0  0  0  0  0  0  0  0  0  0  0  0
    8.3788  -13.9936   19.6549 C   0  0  0  0  0  0  0  0  0  0  0  0
    6.9688  -13.4992   19.7817 C   0  0  0  0  0  0  0  0  0  0  0  0
    6.6698  -13.6895   21.2331 C   0  0  0  0  0  0  0  0  0  0  0  0
    8.0210  -13.4702   21.8845 C   0  0  1  0  0  0  0  0  0  0  0  0
    8.0934  -14.0969   23.2230 C   0  0  0  0  0  0  0  0  0  0  0  0
    8.5596  -15.2938   23.1616 O   0  0  0  0  0  0  0  0  0  0  0  0
    7.7330  -13.5571   24.4527 N   0  0  0  0  0  0  0  0  0  0  0  0
    7.5392  -12.1374   24.8167 C   0  0  0  0  0  0  0  0  0  0  0  0
    6.1171  -12.2391   25.3928 C   0  0  0  0  0  0  0  0  0  0  0  0
    5.9459  -13.7035   25.8137 C   0  0  0  0  0  0  0  0  0  0  0  0
    7.3996  -14.1574   25.6976 C   0  0  1  0  0  0  0  0  0  0  0  0
    7.6285  -15.5307   25.9778 C   0  0  0  0  0  0  0  0  0  0  0  0
    7.1516  -16.1593   26.9158 O   0  0  0  0  0  0  0  0  0  0  0  0
    8.4973  -16.2708   25.0917 N   0  0  0  0  0  0  0  0  0  0  0  0
    8.6994  -17.6895   25.2968 C   0  0  0  0  0  0  0  0  0  0  0  0
    9.9810  -17.9659   25.9877 C   0  0  0  0  0  0  0  0  0  0  0  0
   10.8403  -16.9845   26.4194 O   0  0  0  0  0  0  0  0  0  0  0  0
   10.2942  -19.1668   26.1872 O   0  0  0  0  0  0  0  0  0  0  0  0
  1  5  1  0
  1  2  1  0
  2  3  1  0
  3  4  1  0
  5  6  1  1
  5  4  1  0
  6  8  1  0
  7  6  2  0
  8 12  1  0
  8  9  1  0
 10  9  1  0
 11 12  1  0
 11 10  1  0
 12 13  1  6
 13 14  2  0
 13 15  1  0
 15 16  1  0
 17 16  1  0
 17 18  1  0
 19 17  2  0
M  END
$$$$
