YTE.pdb
     RDKit          3D

 29 29  0  0  1  0  0  0  0  0999 V2000
   13.9544  -14.3986   20.6253 O   0  0  0  0  0  0  0  0  0  0  0  0
   12.6904  -14.0982   20.1681 C   0  0  0  0  0  0  0  0  0  0  0  0
   12.4792  -13.7792   18.8322 C   0  0  0  0  0  0  0  0  0  0  0  0
   11.2010  -13.4757   18.3667 C   0  0  0  0  0  0  0  0  0  0  0  0
   10.1753  -13.5043   19.2705 C   0  0  0  0  0  0  0  0  0  0  0  0
    8.7950  -13.1895   18.8374 C   0  0  0  0  0  0  0  0  0  0  0  0
    8.1630  -14.3480   18.1020 C   0  0  2  0  0  0  0  0  0  0  0  0
    6.7711  -13.9887   17.8917 N   0  0  0  0  0  0  0  0  0  0  0  0
    8.2914  -15.6107   18.8874 C   0  0  0  0  0  0  0  0  0  0  0  0
    7.5777  -15.8090   19.9151 O   0  0  0  0  0  0  0  0  0  0  0  0
   10.3887  -13.8232   20.6046 C   0  0  0  0  0  0  0  0  0  0  0  0
   11.6285  -14.1220   21.0763 C   0  0  0  0  0  0  0  0  0  0  0  0
    7.8746  -19.2350   18.0886 C   0  0  0  0  0  0  0  0  0  0  0  0
    9.3399  -19.0228   18.4279 C   0  0  1  0  0  0  0  0  0  0  0  0
   10.0803  -19.0434   17.2209 O   0  0  0  0  0  0  0  0  0  0  0  0
    9.5829  -17.7645   19.1773 C   0  0  2  0  0  0  0  0  0  0  0  0
    9.2078  -16.5812   18.4821 N   0  0  0  0  0  0  0  0  0  0  0  0
   10.9609  -17.7837   19.7303 C   0  0  0  0  0  0  0  0  0  0  0  0
   11.9917  -17.3695   19.1964 O   0  0  0  0  0  0  0  0  0  0  0  0
   11.1168  -18.3465   21.0421 N   0  0  0  0  0  0  0  0  0  0  0  0
   12.4473  -18.4651   21.6340 C   0  0  1  0  0  0  0  0  0  0  0  0
   12.3443  -18.5289   23.1399 C   0  0  0  0  0  0  0  0  0  0  0  0
   11.9279  -17.1259   23.6177 C   0  0  0  0  0  0  0  0  0  0  0  0
   10.5159  -17.1465   24.0705 C   0  0  0  0  0  0  0  0  0  0  0  0
    9.8282  -18.1961   24.0217 O   0  0  0  0  0  0  0  0  0  0  0  0
   13.0833  -19.6994   21.1190 C   0  0  0  0  0  0  0  0  0  0  0  0
   12.4364  -20.4976   20.4047 O   0  0  0  0  0  0  0  0  0  0  0  0
    9.9004  -15.9931   24.5640 O   0  0  0  0  0  0  0  0  0  0  0  0
   14.3974  -19.9819   21.4204 O   0  0  0  0  0  0  0  0  0  0  0  0
  1  2  1  0
  2 12  2  0
  3  2  1  0
  3  4  2  0
  4  5  1  0
  5 11  2  0
  5  6  1  0
  7  8  1  1
  7  6  1  0
  9 10  2  0
  9  7  1  0
 12 11  1  0
 14 13  1  6
 14 16  1  0
 15 14  1  0
 16 17  1  6
 17  9  1  0
 18 19  2  0
 18 16  1  0
 20 18  1  0
 21 20  1  0
 21 22  1  1
 22 23  1  0
 23 24  1  0
 24 28  1  0
 25 24  2  0
 26 21  1  0
 27 26  2  0
 29 26  1  0
M  END
$$$$
