YTE.pdb
     RDKit          3D

 29 29  0  0  1  0  0  0  0  0999 V2000
    6.9028  -11.1780   18.0651 O   0  0  0  0  0  0  0  0  0  0  0  0
    7.4015  -12.2039   18.8371 C   0  0  0  0  0  0  0  0  0  0  0  0
    8.7694  -12.4401   18.9007 C   0  0  0  0  0  0  0  0  0  0  0  0
    9.2767  -13.4769   19.6819 C   0  0  0  0  0  0  0  0  0  0  0  0
    8.3811  -14.2434   20.3748 C   0  0  0  0  0  0  0  0  0  0  0  0
    8.8583  -15.3608   21.2207 C   0  0  0  0  0  0  0  0  0  0  0  0
    9.3906  -16.5035   20.3879 C   0  0  2  0  0  0  0  0  0  0  0  0
    8.2554  -17.0414   19.6582 N   0  0  0  0  0  0  0  0  0  0  0  0
   10.0289  -17.5397   21.2519 C   0  0  0  0  0  0  0  0  0  0  0  0
    9.3447  -18.1861   22.0999 O   0  0  0  0  0  0  0  0  0  0  0  0
    7.0151  -14.0056   20.3097 C   0  0  0  0  0  0  0  0  0  0  0  0
    6.5024  -12.9988   19.5531 C   0  0  0  0  0  0  0  0  0  0  0  0
   12.0515  -20.5468   20.1809 C   0  0  0  0  0  0  0  0  0  0  0  0
   12.9435  -19.6881   21.0609 C   0  0  1  0  0  0  0  0  0  0  0  0
   13.8820  -19.0297   20.2296 O   0  0  0  0  0  0  0  0  0  0  0  0
   12.1806  -18.7102   21.8769 C   0  0  2  0  0  0  0  0  0  0  0  0
   11.3936  -17.7971   21.1213 N   0  0  0  0  0  0  0  0  0  0  0  0
   13.0854  -18.1061   22.8875 C   0  0  0  0  0  0  0  0  0  0  0  0
   13.7088  -17.0464   22.8013 O   0  0  0  0  0  0  0  0  0  0  0  0
   13.2555  -18.8358   24.1125 N   0  0  0  0  0  0  0  0  0  0  0  0
   14.0843  -18.2859   25.1826 C   0  0  1  0  0  0  0  0  0  0  0  0
   13.5098  -18.6565   26.5298 C   0  0  0  0  0  0  0  0  0  0  0  0
   13.2688  -20.1768   26.5084 C   0  0  0  0  0  0  0  0  0  0  0  0
   12.7394  -20.6214   27.8203 C   0  0  0  0  0  0  0  0  0  0  0  0
   11.5853  -21.1040   27.9309 O   0  0  0  0  0  0  0  0  0  0  0  0
   15.4525  -18.8366   25.0487 C   0  0  0  0  0  0  0  0  0  0  0  0
   15.6834  -19.7813   24.2612 O   0  0  0  0  0  0  0  0  0  0  0  0
   13.5086  -20.5133   28.9820 O   0  0  0  0  0  0  0  0  0  0  0  0
   16.4883  -18.3127   25.7905 O   0  0  0  0  0  0  0  0  0  0  0  0
  1  2  1  0
  2 12  2  0
  3  2  1  0
  3  4  2  0
  4  5  1  0
  5 11  2  0
  5  6  1  0
  7  8  1  1
  7  6  1  0
  9 10  2  0
  9  7  1  0
 12 11  1  0
 14 13  1  6
 14 16  1  0
 15 14  1  0
 16 17  1  6
 17  9  1  0
 18 19  2  0
 18 16  1  0
 20 18  1  0
 21 20  1  0
 21 22  1  1
 22 23  1  0
 23 24  1  0
 24 28  1  0
 25 24  2  0
 26 21  1  0
 27 26  2  0
 29 26  1  0
M  END
$$$$
