YTE.pdb
     RDKit          3D

 29 29  0  0  1  0  0  0  0  0999 V2000
    6.5097  -19.4130   10.9193 O   0  0  0  0  0  0  0  0  0  0  0  0
    7.1024  -18.8915   12.0480 C   0  0  0  0  0  0  0  0  0  0  0  0
    6.3269  -18.4364   13.1074 C   0  0  0  0  0  0  0  0  0  0  0  0
    6.9241  -17.9091   14.2511 C   0  0  0  0  0  0  0  0  0  0  0  0
    8.2901  -17.8586   14.2854 C   0  0  0  0  0  0  0  0  0  0  0  0
    8.9832  -17.3076   15.4721 C   0  0  0  0  0  0  0  0  0  0  0  0
    8.6294  -15.8568   15.7012 C   0  0  2  0  0  0  0  0  0  0  0  0
    9.1235  -15.1278   14.5458 N   0  0  0  0  0  0  0  0  0  0  0  0
    9.2374  -15.3545   16.9684 C   0  0  0  0  0  0  0  0  0  0  0  0
   10.4591  -15.0221   17.0127 O   0  0  0  0  0  0  0  0  0  0  0  0
    9.0627  -18.3138   13.2259 C   0  0  0  0  0  0  0  0  0  0  0  0
    8.4975  -18.8314   12.1026 C   0  0  0  0  0  0  0  0  0  0  0  0
    7.4659  -12.7611   19.3118 C   0  0  0  0  0  0  0  0  0  0  0  0
    7.8783  -13.9773   20.1231 C   0  0  1  0  0  0  0  0  0  0  0  0
    6.7093  -14.7050   20.4537 O   0  0  0  0  0  0  0  0  0  0  0  0
    8.8567  -14.8398   19.4140 C   0  0  2  0  0  0  0  0  0  0  0  0
    8.4489  -15.2506   18.1144 N   0  0  0  0  0  0  0  0  0  0  0  0
    9.3049  -15.9222   20.3265 C   0  0  0  0  0  0  0  0  0  0  0  0
    9.4563  -17.1161   20.0602 O   0  0  0  0  0  0  0  0  0  0  0  0
    9.6015  -15.5387   21.6781 N   0  0  0  0  0  0  0  0  0  0  0  0
   10.5170  -16.3440   22.4830 C   0  0  1  0  0  0  0  0  0  0  0  0
   11.9062  -16.3027   21.8906 C   0  0  0  0  0  0  0  0  0  0  0  0
   12.8084  -17.1439   22.8116 C   0  0  0  0  0  0  0  0  0  0  0  0
   14.2107  -17.0860   22.3327 C   0  0  0  0  0  0  0  0  0  0  0  0
   15.0216  -16.2392   22.7826 O   0  0  0  0  0  0  0  0  0  0  0  0
   10.5388  -15.7978   23.8593 C   0  0  0  0  0  0  0  0  0  0  0  0
   11.1534  -16.3954   24.7709 O   0  0  0  0  0  0  0  0  0  0  0  0
   14.6765  -17.9723   21.3578 O   0  0  0  0  0  0  0  0  0  0  0  0
    9.8822  -14.6225   24.1510 O   0  0  0  0  0  0  0  0  0  0  0  0
  1  2  1  0
  2 12  2  0
  3  2  1  0
  3  4  2  0
  4  5  1  0
  5 11  2  0
  5  6  1  0
  7  8  1  6
  7  6  1  0
  9 10  2  0
  9  7  1  0
 12 11  1  0
 14 13  1  6
 14 16  1  0
 15 14  1  0
 16 17  1  6
 17  9  1  0
 18 19  2  0
 18 16  1  0
 20 18  1  0
 21 20  1  0
 21 22  1  6
 22 23  1  0
 23 24  1  0
 24 28  1  0
 25 24  2  0
 26 21  1  0
 27 26  2  0
 29 26  1  0
M  END
$$$$
