YTE.pdb
     RDKit          3D

 29 29  0  0  1  0  0  0  0  0999 V2000
    4.9782  -10.4245   27.9347 O   0  0  0  0  0  0  0  0  0  0  0  0
    5.7349  -11.3869   27.3035 C   0  0  0  0  0  0  0  0  0  0  0  0
    6.7912  -12.0017   27.9647 C   0  0  0  0  0  0  0  0  0  0  0  0
    7.5579  -12.9764   27.3285 C   0  0  0  0  0  0  0  0  0  0  0  0
    7.2305  -13.2978   26.0404 C   0  0  0  0  0  0  0  0  0  0  0  0
    8.0086  -14.3243   25.3106 C   0  0  0  0  0  0  0  0  0  0  0  0
    7.1278  -15.4518   24.8253 C   0  0  2  0  0  0  0  0  0  0  0  0
    6.6458  -16.1349   26.0134 N   0  0  0  0  0  0  0  0  0  0  0  0
    7.8883  -16.3745   23.9319 C   0  0  0  0  0  0  0  0  0  0  0  0
    8.2000  -17.5397   24.3195 O   0  0  0  0  0  0  0  0  0  0  0  0
    6.1749  -12.6823   25.3819 C   0  0  0  0  0  0  0  0  0  0  0  0
    5.4161  -11.7296   25.9867 C   0  0  0  0  0  0  0  0  0  0  0  0
    7.5729  -15.9206   19.9558 C   0  0  0  0  0  0  0  0  0  0  0  0
    9.0202  -16.1695   20.3437 C   0  0  1  0  0  0  0  0  0  0  0  0
    9.7612  -14.9961   20.0617 O   0  0  0  0  0  0  0  0  0  0  0  0
    9.1771  -16.5664   21.7656 C   0  0  2  0  0  0  0  0  0  0  0  0
    8.2576  -15.9463   22.6568 N   0  0  0  0  0  0  0  0  0  0  0  0
   10.6103  -16.4741   22.1432 C   0  0  0  0  0  0  0  0  0  0  0  0
   11.2382  -15.4659   22.4721 O   0  0  0  0  0  0  0  0  0  0  0  0
   11.3567  -17.7008   22.1287 N   0  0  0  0  0  0  0  0  0  0  0  0
   12.7571  -17.7100   22.5447 C   0  0  1  0  0  0  0  0  0  0  0  0
   13.0826  -19.0051   23.2512 C   0  0  0  0  0  0  0  0  0  0  0  0
   12.3336  -18.9795   24.5959 C   0  0  0  0  0  0  0  0  0  0  0  0
   12.5589  -20.2525   25.3223 C   0  0  0  0  0  0  0  0  0  0  0  0
   13.6893  -20.7988   25.3503 O   0  0  0  0  0  0  0  0  0  0  0  0
   13.6069  -17.5646   21.3406 C   0  0  0  0  0  0  0  0  0  0  0  0
   13.0985  -17.5844   20.1974 O   0  0  0  0  0  0  0  0  0  0  0  0
   11.5157  -20.8910   25.9984 O   0  0  0  0  0  0  0  0  0  0  0  0
   14.9693  -17.4045   21.4666 O   0  0  0  0  0  0  0  0  0  0  0  0
  1  2  1  0
  2 12  2  0
  3  2  1  0
  3  4  2  0
  4  5  1  0
  5 11  2  0
  5  6  1  0
  7  8  1  1
  7  6  1  0
  9 10  2  0
  9  7  1  0
 12 11  1  0
 14 13  1  1
 14 16  1  0
 15 14  1  0
 16 17  1  1
 17  9  1  0
 18 19  2  0
 18 16  1  0
 20 18  1  0
 21 20  1  0
 21 22  1  6
 22 23  1  0
 23 24  1  0
 24 28  1  0
 25 24  2  0
 26 21  1  0
 27 26  2  0
 29 26  1  0
M  END
$$$$
