YTE.pdb
     RDKit          3D

 29 29  0  0  1  0  0  0  0  0999 V2000
    5.3939  -10.2802   28.4744 O   0  0  0  0  0  0  0  0  0  0  0  0
    6.0704  -11.2781   27.8083 C   0  0  0  0  0  0  0  0  0  0  0  0
    7.0546  -12.0172   28.4533 C   0  0  0  0  0  0  0  0  0  0  0  0
    7.7400  -13.0281   27.7818 C   0  0  0  0  0  0  0  0  0  0  0  0
    7.4069  -13.2585   26.4758 C   0  0  0  0  0  0  0  0  0  0  0  0
    8.1006  -14.3177   25.7084 C   0  0  0  0  0  0  0  0  0  0  0  0
    7.1235  -15.2045   24.9726 C   0  0  2  0  0  0  0  0  0  0  0  0
    6.3710  -15.9172   25.9907 N   0  0  0  0  0  0  0  0  0  0  0  0
    7.8401  -16.1443   24.0609 C   0  0  0  0  0  0  0  0  0  0  0  0
    7.9819  -17.3645   24.3708 O   0  0  0  0  0  0  0  0  0  0  0  0
    6.4234  -12.5189   25.8335 C   0  0  0  0  0  0  0  0  0  0  0  0
    5.7445  -11.5292   26.4727 C   0  0  0  0  0  0  0  0  0  0  0  0
    7.5981  -15.2931   20.2601 C   0  0  0  0  0  0  0  0  0  0  0  0
    8.9466  -15.9506   20.4980 C   0  0  1  0  0  0  0  0  0  0  0  0
    9.9576  -15.0374   20.1113 O   0  0  0  0  0  0  0  0  0  0  0  0
    9.1364  -16.3870   21.9042 C   0  0  2  0  0  0  0  0  0  0  0  0
    8.3575  -15.6707   22.8552 N   0  0  0  0  0  0  0  0  0  0  0  0
   10.5896  -16.4819   22.1943 C   0  0  0  0  0  0  0  0  0  0  0  0
   11.2697  -15.7223   22.8867 O   0  0  0  0  0  0  0  0  0  0  0  0
   11.2895  -17.5883   21.6044 N   0  0  0  0  0  0  0  0  0  0  0  0
   12.7048  -17.7996   21.8991 C   0  0  1  0  0  0  0  0  0  0  0  0
   13.5175  -16.6159   21.4292 C   0  0  0  0  0  0  0  0  0  0  0  0
   14.9965  -16.9650   21.6757 C   0  0  0  0  0  0  0  0  0  0  0  0
   15.8606  -15.8532   21.2107 C   0  0  0  0  0  0  0  0  0  0  0  0
   15.7955  -14.7120   21.7309 O   0  0  0  0  0  0  0  0  0  0  0  0
   12.8608  -17.9700   23.3619 C   0  0  0  0  0  0  0  0  0  0  0  0
   11.8975  -17.7606   24.1327 O   0  0  0  0  0  0  0  0  0  0  0  0
   16.7763  -16.0382   20.1713 O   0  0  0  0  0  0  0  0  0  0  0  0
   14.0705  -18.3631   23.8908 O   0  0  0  0  0  0  0  0  0  0  0  0
  1  2  1  0
  2 12  2  0
  3  2  1  0
  3  4  2  0
  4  5  1  0
  5 11  2  0
  5  6  1  0
  7  8  1  1
  7  6  1  0
  9 10  2  0
  9  7  1  0
 12 11  1  0
 14 13  1  1
 14 16  1  0
 15 14  1  0
 16 17  1  1
 17  9  1  0
 18 19  2  0
 18 16  1  0
 20 18  1  0
 21 20  1  0
 21 22  1  1
 22 23  1  0
 23 24  1  0
 24 28  1  0
 25 24  2  0
 26 21  1  0
 27 26  2  0
 29 26  1  0
M  END
$$$$
