TID.pdb
     RDKit          3D

 24 23  0  0  1  0  0  0  0  0999 V2000
    6.0985  -16.6026   20.0187 C   0  0  0  0  0  0  0  0  0  0  0  0
    6.9650  -16.4247   21.2490 C   0  0  1  0  0  0  0  0  0  0  0  0
    8.0113  -17.3311   21.2514 O   0  0  0  0  0  0  0  0  0  0  0  0
    7.4233  -14.9935   21.4055 C   0  0  2  0  0  0  0  0  0  0  0  0
    8.1736  -14.6318   20.2308 N   0  0  0  0  0  0  0  0  0  0  0  0
    8.1984  -14.7860   22.6500 C   0  0  0  0  0  0  0  0  0  0  0  0
    9.4315  -14.8213   22.5856 O   0  0  0  0  0  0  0  0  0  0  0  0
    6.2282  -11.4504   26.2014 C   0  0  0  0  0  0  0  0  0  0  0  0
    7.1739  -12.3105   25.4298 C   0  0  0  0  0  0  0  0  0  0  0  0
    7.3917  -13.6696   26.0901 C   0  0  2  0  0  0  0  0  0  0  0  0
    7.8583  -13.5401   27.4939 C   0  0  0  0  0  0  0  0  0  0  0  0
    8.2568  -14.4387   25.1544 C   0  0  2  0  0  0  0  0  0  0  0  0
    7.5199  -14.5538   23.8730 N   0  0  0  0  0  0  0  0  0  0  0  0
    8.6944  -15.7631   25.6126 C   0  0  0  0  0  0  0  0  0  0  0  0
    7.8613  -16.7377   25.7399 O   0  0  0  0  0  0  0  0  0  0  0  0
   10.0106  -16.0713   25.9381 N   0  0  0  0  0  0  0  0  0  0  0  0
   10.4176  -17.4532   26.3514 C   0  0  1  0  0  0  0  0  0  0  0  0
   11.8468  -17.5872   25.8805 C   0  0  0  0  0  0  0  0  0  0  0  0
   12.0692  -17.4403   24.4518 C   0  0  0  0  0  0  0  0  0  0  0  0
   11.3207  -17.9491   23.6100 O   0  0  0  0  0  0  0  0  0  0  0  0
   10.3024  -17.5484   27.8181 C   0  0  0  0  0  0  0  0  0  0  0  0
   10.3857  -18.7520   28.4670 O   0  0  0  0  0  0  0  0  0  0  0  0
   13.1924  -16.6813   24.0495 O   0  0  0  0  0  0  0  0  0  0  0  0
   10.1223  -16.5105   28.5024 O   0  0  0  0  0  0  0  0  0  0  0  0
  2  1  1  6
  2  3  1  0
  4  2  1  0
  4  6  1  0
  4  5  1  6
  6  7  2  0
  8  9  1  0
  9 10  1  0
 10 12  1  0
 10 11  1  1
 12 14  1  0
 12 13  1  6
 13  6  1  0
 14 16  1  0
 14 15  2  0
 16 17  1  0
 17 21  1  0
 17 18  1  1
 19 18  1  0
 20 19  2  0
 21 24  2  0
 21 22  1  0
 23 19  1  0
M  END
$$$$
