TID.pdb
     RDKit          3D

 24 23  0  0  1  0  0  0  0  0999 V2000
    6.0842  -16.4966   19.8632 C   0  0  0  0  0  0  0  0  0  0  0  0
    6.8881  -16.2690   21.1273 C   0  0  1  0  0  0  0  0  0  0  0  0
    7.9343  -17.1710   21.2164 O   0  0  0  0  0  0  0  0  0  0  0  0
    7.3360  -14.8313   21.2514 C   0  0  2  0  0  0  0  0  0  0  0  0
    8.1073  -14.4992   20.0815 N   0  0  0  0  0  0  0  0  0  0  0  0
    8.0855  -14.5837   22.5041 C   0  0  0  0  0  0  0  0  0  0  0  0
    9.3189  -14.6456   22.4716 O   0  0  0  0  0  0  0  0  0  0  0  0
    5.8041  -11.4361   26.0990 C   0  0  0  0  0  0  0  0  0  0  0  0
    6.8683  -12.1725   25.3543 C   0  0  0  0  0  0  0  0  0  0  0  0
    7.1566  -13.5438   25.9601 C   0  0  2  0  0  0  0  0  0  0  0  0
    7.5956  -13.4478   27.3755 C   0  0  0  0  0  0  0  0  0  0  0  0
    8.0781  -14.2204   25.0069 C   0  0  2  0  0  0  0  0  0  0  0  0
    7.3831  -14.2846   23.6988 N   0  0  0  0  0  0  0  0  0  0  0  0
    8.5550  -15.5527   25.3978 C   0  0  0  0  0  0  0  0  0  0  0  0
    7.8510  -16.6087   25.1762 O   0  0  0  0  0  0  0  0  0  0  0  0
    9.7758  -15.7831   26.0223 N   0  0  0  0  0  0  0  0  0  0  0  0
   10.2318  -17.1662   26.3762 C   0  0  1  0  0  0  0  0  0  0  0  0
   11.4012  -17.4296   25.4567 C   0  0  0  0  0  0  0  0  0  0  0  0
   12.1742  -18.6302   25.7278 C   0  0  0  0  0  0  0  0  0  0  0  0
   11.8971  -19.4003   26.6540 O   0  0  0  0  0  0  0  0  0  0  0  0
   10.6266  -17.1721   27.7966 C   0  0  0  0  0  0  0  0  0  0  0  0
   10.7084  -16.0133   28.5225 O   0  0  0  0  0  0  0  0  0  0  0  0
   13.2752  -18.8924   24.8799 O   0  0  0  0  0  0  0  0  0  0  0  0
   10.8983  -18.2571   28.3682 O   0  0  0  0  0  0  0  0  0  0  0  0
  2  1  1  6
  2  3  1  0
  4  2  1  0
  4  6  1  0
  4  5  1  6
  6  7  2  0
  8  9  1  0
  9 10  1  0
 10 12  1  0
 10 11  1  1
 12 14  1  0
 12 13  1  6
 13  6  1  0
 14 16  1  0
 14 15  2  0
 16 17  1  0
 17 21  1  0
 17 18  1  6
 19 18  1  0
 20 19  2  0
 21 24  2  0
 21 22  1  0
 23 19  1  0
M  END
$$$$
