TID.pdb
     RDKit          3D

 24 23  0  0  1  0  0  0  0  0999 V2000
    6.0577  -16.7877   21.8557 C   0  0  0  0  0  0  0  0  0  0  0  0
    6.9157  -16.0750   20.8300 C   0  0  1  0  0  0  0  0  0  0  0  0
    6.3958  -16.2318   19.5567 O   0  0  0  0  0  0  0  0  0  0  0  0
    7.1416  -14.6279   21.2013 C   0  0  2  0  0  0  0  0  0  0  0  0
    7.7089  -13.9556   20.0612 N   0  0  0  0  0  0  0  0  0  0  0  0
    7.9831  -14.4844   22.4111 C   0  0  0  0  0  0  0  0  0  0  0  0
    9.2109  -14.5161   22.2785 O   0  0  0  0  0  0  0  0  0  0  0  0
    6.2569  -11.3386   26.2197 C   0  0  0  0  0  0  0  0  0  0  0  0
    7.1452  -12.1746   25.3587 C   0  0  0  0  0  0  0  0  0  0  0  0
    7.3846  -13.5624   25.9478 C   0  0  2  0  0  0  0  0  0  0  0  0
    7.9448  -13.4968   27.3216 C   0  0  0  0  0  0  0  0  0  0  0  0
    8.1738  -14.3037   24.9265 C   0  0  2  0  0  0  0  0  0  0  0  0
    7.3721  -14.3156   23.6793 N   0  0  0  0  0  0  0  0  0  0  0  0
    8.5823  -15.6677   25.2841 C   0  0  0  0  0  0  0  0  0  0  0  0
    7.7122  -16.5866   25.5260 O   0  0  0  0  0  0  0  0  0  0  0  0
    9.9079  -16.0744   25.3876 N   0  0  0  0  0  0  0  0  0  0  0  0
   10.2751  -17.4924   25.7048 C   0  0  1  0  0  0  0  0  0  0  0  0
   11.5116  -17.7604   24.8793 C   0  0  0  0  0  0  0  0  0  0  0  0
   12.1881  -19.0228   25.1263 C   0  0  0  0  0  0  0  0  0  0  0  0
   13.0804  -19.1405   25.9734 O   0  0  0  0  0  0  0  0  0  0  0  0
   10.5392  -17.5875   27.1522 C   0  0  0  0  0  0  0  0  0  0  0  0
   10.8233  -16.4776   27.9032 O   0  0  0  0  0  0  0  0  0  0  0  0
   11.7834  -20.1331   24.3496 O   0  0  0  0  0  0  0  0  0  0  0  0
   10.5075  -18.7054   27.7241 O   0  0  0  0  0  0  0  0  0  0  0  0
  2  1  1  1
  2  3  1  0
  4  2  1  0
  4  6  1  0
  4  5  1  6
  6  7  2  0
  8  9  1  0
  9 10  1  0
 10 12  1  0
 10 11  1  1
 12 14  1  0
 12 13  1  6
 13  6  1  0
 14 16  1  0
 14 15  2  0
 16 17  1  0
 17 21  1  0
 17 18  1  6
 19 18  1  0
 20 19  2  0
 21 24  2  0
 21 22  1  0
 23 19  1  0
M  END
$$$$
