TID.pdb
     RDKit          3D

 24 23  0  0  1  0  0  0  0  0999 V2000
    6.6947  -16.0189   20.8224 C   0  0  0  0  0  0  0  0  0  0  0  0
    7.4571  -14.9160   20.1164 C   0  0  1  0  0  0  0  0  0  0  0  0
    7.0623  -14.8112   18.7938 O   0  0  0  0  0  0  0  0  0  0  0  0
    7.3647  -13.6071   20.8655 C   0  0  2  0  0  0  0  0  0  0  0  0
    7.8793  -12.5658   20.0143 N   0  0  0  0  0  0  0  0  0  0  0  0
    8.0617  -13.6578   22.1709 C   0  0  0  0  0  0  0  0  0  0  0  0
    9.2953  -13.5937   22.1799 O   0  0  0  0  0  0  0  0  0  0  0  0
    6.0005  -11.1991   26.3090 C   0  0  0  0  0  0  0  0  0  0  0  0
    6.9542  -11.9017   25.3999 C   0  0  0  0  0  0  0  0  0  0  0  0
    7.0629  -13.3917   25.7134 C   0  0  2  0  0  0  0  0  0  0  0  0
    7.4129  -13.6391   27.1352 C   0  0  0  0  0  0  0  0  0  0  0  0
    7.9745  -13.9558   24.6808 C   0  0  2  0  0  0  0  0  0  0  0  0
    7.3104  -13.7770   23.3673 N   0  0  0  0  0  0  0  0  0  0  0  0
    8.3770  -15.3559   24.8632 C   0  0  0  0  0  0  0  0  0  0  0  0
    7.5117  -16.3102   24.8450 O   0  0  0  0  0  0  0  0  0  0  0  0
    9.6919  -15.7612   25.0639 N   0  0  0  0  0  0  0  0  0  0  0  0
   10.0654  -17.2099   25.1533 C   0  0  1  0  0  0  0  0  0  0  0  0
   11.3731  -17.3139   24.4041 C   0  0  0  0  0  0  0  0  0  0  0  0
   12.0786  -18.5797   24.5154 C   0  0  0  0  0  0  0  0  0  0  0  0
   11.5877  -19.5633   25.0802 O   0  0  0  0  0  0  0  0  0  0  0  0
   10.2090  -17.5618   26.5778 C   0  0  0  0  0  0  0  0  0  0  0  0
   10.0467  -18.8488   27.0179 O   0  0  0  0  0  0  0  0  0  0  0  0
   13.3706  -18.6492   23.9447 O   0  0  0  0  0  0  0  0  0  0  0  0
   10.4855  -16.6715   27.4196 O   0  0  0  0  0  0  0  0  0  0  0  0
  2  1  1  1
  2  3  1  0
  4  2  1  0
  4  6  1  0
  4  5  1  6
  6  7  2  0
  8  9  1  0
  9 10  1  0
 10 12  1  0
 10 11  1  1
 12 14  1  0
 12 13  1  6
 13  6  1  0
 14 16  1  0
 14 15  2  0
 16 17  1  0
 17 21  1  0
 17 18  1  6
 19 18  1  0
 20 19  2  0
 21 24  2  0
 21 22  1  0
 23 19  1  0
M  END
$$$$
