TID.pdb
     RDKit          3D

 24 23  0  0  1  0  0  0  0  0999 V2000
    5.6406  -17.3316   20.8812 C   0  0  0  0  0  0  0  0  0  0  0  0
    6.6004  -16.7766   21.9140 C   0  0  1  0  0  0  0  0  0  0  0  0
    7.8048  -17.4585   21.8856 O   0  0  0  0  0  0  0  0  0  0  0  0
    6.7652  -15.2812   21.7746 C   0  0  2  0  0  0  0  0  0  0  0  0
    7.1128  -14.9938   20.4070 N   0  0  0  0  0  0  0  0  0  0  0  0
    7.7557  -14.7348   22.7300 C   0  0  0  0  0  0  0  0  0  0  0  0
    8.8722  -14.4231   22.3031 O   0  0  0  0  0  0  0  0  0  0  0  0
    5.7228  -11.5078   26.2772 C   0  0  0  0  0  0  0  0  0  0  0  0
    6.6730  -12.2168   25.3695 C   0  0  0  0  0  0  0  0  0  0  0  0
    7.4873  -13.2816   26.1000 C   0  0  2  0  0  0  0  0  0  0  0  0
    8.1848  -12.7321   27.2904 C   0  0  0  0  0  0  0  0  0  0  0  0
    8.3291  -13.9310   25.0583 C   0  0  2  0  0  0  0  0  0  0  0  0
    7.4082  -14.5822   24.0960 N   0  0  0  0  0  0  0  0  0  0  0  0
    9.3305  -14.8918   25.5371 C   0  0  0  0  0  0  0  0  0  0  0  0
   10.2674  -14.5365   26.3471 O   0  0  0  0  0  0  0  0  0  0  0  0
    9.3520  -16.2325   25.1688 N   0  0  0  0  0  0  0  0  0  0  0  0
   10.4264  -17.1634   25.6433 C   0  0  1  0  0  0  0  0  0  0  0  0
    9.7454  -18.5073   25.7548 C   0  0  0  0  0  0  0  0  0  0  0  0
    9.0758  -18.7860   27.0143 C   0  0  0  0  0  0  0  0  0  0  0  0
    7.8549  -18.9630   27.0894 O   0  0  0  0  0  0  0  0  0  0  0  0
   11.5082  -17.1676   24.6416 C   0  0  0  0  0  0  0  0  0  0  0  0
   11.4403  -16.3981   23.5103 O   0  0  0  0  0  0  0  0  0  0  0  0
    9.8838  -18.8487   28.1731 O   0  0  0  0  0  0  0  0  0  0  0  0
   12.5217  -17.8891   24.8151 O   0  0  0  0  0  0  0  0  0  0  0  0
  2  1  1  6
  2  3  1  0
  4  2  1  0
  4  6  1  0
  4  5  1  6
  6  7  2  0
  8  9  1  0
  9 10  1  0
 10 12  1  0
 10 11  1  1
 12 14  1  0
 12 13  1  6
 13  6  1  0
 14 16  1  0
 14 15  2  0
 16 17  1  0
 17 21  1  0
 17 18  1  6
 19 18  1  0
 20 19  2  0
 21 24  2  0
 21 22  1  0
 23 19  1  0
M  END
$$$$
