TID.pdb
     RDKit          3D

 24 23  0  0  1  0  0  0  0  0999 V2000
    6.6933  -19.6686   16.9659 C   0  0  0  0  0  0  0  0  0  0  0  0
    7.5069  -18.9674   18.0347 C   0  0  1  0  0  0  0  0  0  0  0  0
    8.4372  -19.8281   18.5913 O   0  0  0  0  0  0  0  0  0  0  0  0
    8.1220  -17.6880   17.5170 C   0  0  2  0  0  0  0  0  0  0  0  0
    8.9708  -18.0178   16.4014 N   0  0  0  0  0  0  0  0  0  0  0  0
    8.8492  -16.9481   18.5735 C   0  0  0  0  0  0  0  0  0  0  0  0
   10.0719  -17.1010   18.6608 O   0  0  0  0  0  0  0  0  0  0  0  0
    6.8504  -12.2207   20.0272 C   0  0  0  0  0  0  0  0  0  0  0  0
    7.8379  -13.3177   19.8020 C   0  0  0  0  0  0  0  0  0  0  0  0
    7.9229  -14.2739   20.9890 C   0  0  2  0  0  0  0  0  0  0  0  0
    8.2715  -13.5699   22.2493 C   0  0  0  0  0  0  0  0  0  0  0  0
    8.8233  -15.3768   20.5550 C   0  0  2  0  0  0  0  0  0  0  0  0
    8.1382  -16.0909   19.4509 N   0  0  0  0  0  0  0  0  0  0  0  0
    9.2392  -16.3249   21.5960 C   0  0  0  0  0  0  0  0  0  0  0  0
    8.3924  -17.1150   22.1605 O   0  0  0  0  0  0  0  0  0  0  0  0
   10.5481  -16.4493   22.0483 N   0  0  0  0  0  0  0  0  0  0  0  0
   10.9223  -17.4288   23.1192 C   0  0  1  0  0  0  0  0  0  0  0  0
   11.6793  -18.5166   22.3941 C   0  0  0  0  0  0  0  0  0  0  0  0
   12.3384  -19.5071   23.2288 C   0  0  0  0  0  0  0  0  0  0  0  0
   11.7745  -20.0439   24.1888 O   0  0  0  0  0  0  0  0  0  0  0  0
   11.7617  -16.7304   24.1098 C   0  0  0  0  0  0  0  0  0  0  0  0
   12.3144  -15.5054   23.8444 O   0  0  0  0  0  0  0  0  0  0  0  0
   13.6722  -19.8421   22.8995 O   0  0  0  0  0  0  0  0  0  0  0  0
   11.9851  -17.2586   25.2274 O   0  0  0  0  0  0  0  0  0  0  0  0
  2  1  1  6
  2  3  1  0
  4  2  1  0
  4  6  1  0
  4  5  1  6
  6  7  2  0
  8  9  1  0
  9 10  1  0
 10 12  1  0
 10 11  1  1
 12 14  1  0
 12 13  1  6
 13  6  1  0
 14 16  1  0
 14 15  2  0
 16 17  1  0
 17 21  1  0
 17 18  1  6
 19 18  1  0
 20 19  2  0
 21 24  2  0
 21 22  1  0
 23 19  1  0
M  END
$$$$
