TID.pdb
     RDKit          3D

 24 23  0  0  1  0  0  0  0  0999 V2000
    5.0061  -16.7796   20.4299 C   0  0  0  0  0  0  0  0  0  0  0  0
    6.1262  -16.4642   21.4004 C   0  0  1  0  0  0  0  0  0  0  0  0
    7.2404  -17.2426   21.1384 O   0  0  0  0  0  0  0  0  0  0  0  0
    6.4339  -14.9853   21.4345 C   0  0  2  0  0  0  0  0  0  0  0  0
    6.8477  -14.5828   20.1152 N   0  0  0  0  0  0  0  0  0  0  0  0
    7.4420  -14.6460   22.4646 C   0  0  0  0  0  0  0  0  0  0  0  0
    8.6282  -14.5829   22.1258 O   0  0  0  0  0  0  0  0  0  0  0  0
    5.9744  -11.3177   26.2416 C   0  0  0  0  0  0  0  0  0  0  0  0
    6.8218  -12.1249   25.3144 C   0  0  0  0  0  0  0  0  0  0  0  0
    7.3168  -13.4174   25.9586 C   0  0  2  0  0  0  0  0  0  0  0  0
    8.0737  -13.1630   27.2107 C   0  0  0  0  0  0  0  0  0  0  0  0
    8.0197  -14.1628   24.8789 C   0  0  2  0  0  0  0  0  0  0  0  0
    7.0317  -14.4035   23.7998 N   0  0  0  0  0  0  0  0  0  0  0  0
    8.6645  -15.4221   25.2712 C   0  0  0  0  0  0  0  0  0  0  0  0
    7.9736  -16.4320   25.6748 O   0  0  0  0  0  0  0  0  0  0  0  0
   10.0393  -15.6279   25.2398 N   0  0  0  0  0  0  0  0  0  0  0  0
   10.6451  -16.9581   25.5714 C   0  0  1  0  0  0  0  0  0  0  0  0
   12.0229  -16.9148   24.9534 C   0  0  0  0  0  0  0  0  0  0  0  0
   12.8922  -18.0433   25.2414 C   0  0  0  0  0  0  0  0  0  0  0  0
   12.4518  -19.1525   25.5631 O   0  0  0  0  0  0  0  0  0  0  0  0
   10.6958  -17.0885   27.0391 C   0  0  0  0  0  0  0  0  0  0  0  0
   10.7925  -15.9910   27.8531 O   0  0  0  0  0  0  0  0  0  0  0  0
   14.2857  -17.8253   25.1393 O   0  0  0  0  0  0  0  0  0  0  0  0
   10.6513  -18.2259   27.5703 O   0  0  0  0  0  0  0  0  0  0  0  0
  2  1  1  6
  2  3  1  0
  4  2  1  0
  4  6  1  0
  4  5  1  6
  6  7  2  0
  8  9  1  0
  9 10  1  0
 10 12  1  0
 10 11  1  1
 12 14  1  0
 12 13  1  6
 13  6  1  0
 14 16  1  0
 14 15  2  0
 16 17  1  0
 17 21  1  0
 17 18  1  1
 19 18  1  0
 20 19  2  0
 21 24  2  0
 21 22  1  0
 23 19  1  0
M  END
$$$$
