TID.pdb
     RDKit          3D

 24 23  0  0  1  0  0  0  0  0999 V2000
    5.9240  -15.1078   19.1563 C   0  0  0  0  0  0  0  0  0  0  0  0
    6.7467  -15.1640   20.4275 C   0  0  1  0  0  0  0  0  0  0  0  0
    7.8284  -16.0148   20.2784 O   0  0  0  0  0  0  0  0  0  0  0  0
    7.1418  -13.7833   20.8969 C   0  0  2  0  0  0  0  0  0  0  0  0
    7.8911  -13.1487   19.8435 N   0  0  0  0  0  0  0  0  0  0  0  0
    7.8913  -13.8183   22.1734 C   0  0  0  0  0  0  0  0  0  0  0  0
    9.1255  -13.7904   22.1297 O   0  0  0  0  0  0  0  0  0  0  0  0
    5.7060  -11.3573   26.2578 C   0  0  0  0  0  0  0  0  0  0  0  0
    6.7044  -12.0027   25.3545 C   0  0  0  0  0  0  0  0  0  0  0  0
    6.9889  -13.4507   25.7455 C   0  0  2  0  0  0  0  0  0  0  0  0
    7.4334  -13.5708   27.1573 C   0  0  0  0  0  0  0  0  0  0  0  0
    7.9040  -13.9793   24.6973 C   0  0  2  0  0  0  0  0  0  0  0  0
    7.1879  -13.8818   23.4027 N   0  0  0  0  0  0  0  0  0  0  0  0
    8.4076  -15.3432   24.9010 C   0  0  0  0  0  0  0  0  0  0  0  0
    7.6202  -16.3621   24.8586 O   0  0  0  0  0  0  0  0  0  0  0  0
    9.7424  -15.6443   25.1485 N   0  0  0  0  0  0  0  0  0  0  0  0
   10.2123  -17.0565   25.3251 C   0  0  1  0  0  0  0  0  0  0  0  0
   11.4878  -17.1380   24.5196 C   0  0  0  0  0  0  0  0  0  0  0  0
   12.2621  -18.3594   24.6637 C   0  0  0  0  0  0  0  0  0  0  0  0
   11.7512  -19.4811   24.5729 O   0  0  0  0  0  0  0  0  0  0  0  0
   10.4445  -17.2887   26.7624 C   0  0  0  0  0  0  0  0  0  0  0  0
   10.3573  -16.2716   27.6759 O   0  0  0  0  0  0  0  0  0  0  0  0
   13.6462  -18.2183   24.9165 O   0  0  0  0  0  0  0  0  0  0  0  0
   10.7307  -18.4404   27.1741 O   0  0  0  0  0  0  0  0  0  0  0  0
  2  1  1  6
  2  3  1  0
  4  2  1  0
  4  6  1  0
  4  5  1  6
  6  7  2  0
  8  9  1  0
  9 10  1  0
 10 12  1  0
 10 11  1  1
 12 14  1  0
 12 13  1  6
 13  6  1  0
 14 16  1  0
 14 15  2  0
 16 17  1  0
 17 21  1  0
 17 18  1  6
 19 18  1  0
 20 19  2  0
 21 24  2  0
 21 22  1  0
 23 19  1  0
M  END
$$$$
