TID.pdb
     RDKit          3D

 24 23  0  0  1  0  0  0  0  0999 V2000
    5.8511  -16.4947   20.1610 C   0  0  0  0  0  0  0  0  0  0  0  0
    6.7287  -16.2199   21.3653 C   0  0  1  0  0  0  0  0  0  0  0  0
    7.7007  -17.1962   21.5010 O   0  0  0  0  0  0  0  0  0  0  0  0
    7.2979  -14.8207   21.3323 C   0  0  2  0  0  0  0  0  0  0  0  0
    7.9901  -14.6474   20.0814 N   0  0  0  0  0  0  0  0  0  0  0  0
    8.1690  -14.5422   22.4967 C   0  0  0  0  0  0  0  0  0  0  0  0
    9.3837  -14.7339   22.3796 O   0  0  0  0  0  0  0  0  0  0  0  0
    5.7455  -12.2653   26.9859 C   0  0  0  0  0  0  0  0  0  0  0  0
    6.3891  -13.1957   26.0114 C   0  0  0  0  0  0  0  0  0  0  0  0
    7.8454  -12.8301   25.7359 C   0  0  2  0  0  0  0  0  0  0  0  0
    7.9795  -11.4692   25.1569 C   0  0  0  0  0  0  0  0  0  0  0  0
    8.4034  -13.9624   24.9472 C   0  0  2  0  0  0  0  0  0  0  0  0
    7.6001  -14.0676   23.7055 N   0  0  0  0  0  0  0  0  0  0  0  0
    8.4640  -15.2618   25.6279 C   0  0  0  0  0  0  0  0  0  0  0  0
    7.8487  -16.2929   25.1609 O   0  0  0  0  0  0  0  0  0  0  0  0
    9.1735  -15.4854   26.8027 N   0  0  0  0  0  0  0  0  0  0  0  0
    9.8358  -16.7998   27.0857 C   0  0  1  0  0  0  0  0  0  0  0  0
   10.8867  -16.9373   26.0092 C   0  0  0  0  0  0  0  0  0  0  0  0
   11.7850  -18.0735   26.1292 C   0  0  0  0  0  0  0  0  0  0  0  0
   11.6535  -18.9305   27.0101 O   0  0  0  0  0  0  0  0  0  0  0  0
   10.4249  -16.7379   28.4357 C   0  0  0  0  0  0  0  0  0  0  0  0
   11.2988  -15.7449   28.7915 O   0  0  0  0  0  0  0  0  0  0  0  0
   12.8346  -18.1672   25.1862 O   0  0  0  0  0  0  0  0  0  0  0  0
   10.1289  -17.6096   29.2904 O   0  0  0  0  0  0  0  0  0  0  0  0
  2  1  1  6
  2  3  1  0
  4  2  1  0
  4  6  1  0
  4  5  1  6
  6  7  2  0
  8  9  1  0
  9 10  1  0
 10 12  1  0
 10 11  1  6
 12 14  1  0
 12 13  1  6
 13  6  1  0
 14 16  1  0
 14 15  2  0
 16 17  1  0
 17 21  1  0
 17 18  1  6
 19 18  1  0
 20 19  2  0
 21 24  2  0
 21 22  1  0
 23 19  1  0
M  END
$$$$
