TID.pdb
     RDKit          3D

 24 23  0  0  1  0  0  0  0  0999 V2000
    5.8129  -15.9552   19.5718 C   0  0  0  0  0  0  0  0  0  0  0  0
    6.7189  -15.8083   20.7774 C   0  0  1  0  0  0  0  0  0  0  0  0
    7.8646  -16.5711   20.6300 O   0  0  0  0  0  0  0  0  0  0  0  0
    7.0107  -14.3574   21.0817 C   0  0  2  0  0  0  0  0  0  0  0  0
    7.6574  -13.7794   19.9321 N   0  0  0  0  0  0  0  0  0  0  0  0
    7.8124  -14.1936   22.3157 C   0  0  0  0  0  0  0  0  0  0  0  0
    9.0359  -14.0621   22.2070 O   0  0  0  0  0  0  0  0  0  0  0  0
    5.7673  -11.4912   26.3617 C   0  0  0  0  0  0  0  0  0  0  0  0
    6.7406  -12.1646   25.4514 C   0  0  0  0  0  0  0  0  0  0  0  0
    7.0525  -13.5929   25.8907 C   0  0  2  0  0  0  0  0  0  0  0  0
    7.5337  -13.6529   27.2943 C   0  0  0  0  0  0  0  0  0  0  0  0
    7.9475  -14.1516   24.8408 C   0  0  2  0  0  0  0  0  0  0  0  0
    7.1694  -14.1906   23.5792 N   0  0  0  0  0  0  0  0  0  0  0  0
    8.5347  -15.4680   25.1196 C   0  0  0  0  0  0  0  0  0  0  0  0
    7.7972  -16.5148   25.2616 O   0  0  0  0  0  0  0  0  0  0  0  0
    9.9009  -15.6920   25.2488 N   0  0  0  0  0  0  0  0  0  0  0  0
   10.4512  -17.0518   25.5563 C   0  0  1  0  0  0  0  0  0  0  0  0
   11.8330  -17.0514   24.9457 C   0  0  0  0  0  0  0  0  0  0  0  0
   12.6479  -18.2279   25.1990 C   0  0  0  0  0  0  0  0  0  0  0  0
   12.1852  -19.2570   25.7034 O   0  0  0  0  0  0  0  0  0  0  0  0
   10.4886  -17.2134   27.0212 C   0  0  0  0  0  0  0  0  0  0  0  0
   10.5383  -18.4519   27.6046 O   0  0  0  0  0  0  0  0  0  0  0  0
   14.0143  -18.1538   24.8423 O   0  0  0  0  0  0  0  0  0  0  0  0
   10.4743  -16.2014   27.7651 O   0  0  0  0  0  0  0  0  0  0  0  0
  2  1  1  6
  2  3  1  0
  4  2  1  0
  4  6  1  0
  4  5  1  6
  6  7  2  0
  8  9  1  0
  9 10  1  0
 10 12  1  0
 10 11  1  1
 12 14  1  0
 12 13  1  6
 13  6  1  0
 14 16  1  0
 14 15  2  0
 16 17  1  0
 17 21  1  0
 17 18  1  1
 19 18  1  0
 20 19  2  0
 21 24  2  0
 21 22  1  0
 23 19  1  0
M  END
$$$$
