TID.pdb
     RDKit          3D

 24 23  0  0  1  0  0  0  0  0999 V2000
    6.4811  -16.0584   20.4681 C   0  0  0  0  0  0  0  0  0  0  0  0
    7.3874  -15.1123   19.7068 C   0  0  1  0  0  0  0  0  0  0  0  0
    7.0401  -15.0664   18.3676 O   0  0  0  0  0  0  0  0  0  0  0  0
    7.4349  -13.7467   20.3515 C   0  0  2  0  0  0  0  0  0  0  0  0
    8.0688  -12.8381   19.4315 N   0  0  0  0  0  0  0  0  0  0  0  0
    8.1115  -13.7717   21.6683 C   0  0  0  0  0  0  0  0  0  0  0  0
    9.3437  -13.8558   21.6930 O   0  0  0  0  0  0  0  0  0  0  0  0
    7.1379  -11.9295   27.4037 C   0  0  0  0  0  0  0  0  0  0  0  0
    7.8752  -12.7584   26.4044 C   0  0  0  0  0  0  0  0  0  0  0  0
    7.0855  -12.9463   25.1115 C   0  0  2  0  0  0  0  0  0  0  0  0
    5.7391  -13.5222   25.3582 C   0  0  0  0  0  0  0  0  0  0  0  0
    7.9870  -13.6942   24.1931 C   0  0  2  0  0  0  0  0  0  0  0  0
    7.3431  -13.6994   22.8576 N   0  0  0  0  0  0  0  0  0  0  0  0
    8.3375  -15.0616   24.5964 C   0  0  0  0  0  0  0  0  0  0  0  0
    7.4991  -16.0323   24.4753 O   0  0  0  0  0  0  0  0  0  0  0  0
    9.5723  -15.4171   25.1278 N   0  0  0  0  0  0  0  0  0  0  0  0
    9.9293  -16.8460   25.4053 C   0  0  1  0  0  0  0  0  0  0  0  0
   11.1362  -17.1136   24.5369 C   0  0  0  0  0  0  0  0  0  0  0  0
   11.7330  -18.4335   24.6550 C   0  0  0  0  0  0  0  0  0  0  0  0
   11.2889  -19.2940   25.4230 O   0  0  0  0  0  0  0  0  0  0  0  0
   10.2362  -16.9738   26.8417 C   0  0  0  0  0  0  0  0  0  0  0  0
   10.2735  -18.1953   27.4606 O   0  0  0  0  0  0  0  0  0  0  0  0
   12.8606  -18.7051   23.8460 O   0  0  0  0  0  0  0  0  0  0  0  0
   10.4701  -15.9477   27.5274 O   0  0  0  0  0  0  0  0  0  0  0  0
  2  1  1  1
  2  3  1  0
  4  2  1  0
  4  6  1  0
  4  5  1  6
  6  7  2  0
  8  9  1  0
  9 10  1  0
 10 12  1  0
 10 11  1  1
 12 14  1  0
 12 13  1  6
 13  6  1  0
 14 16  1  0
 14 15  2  0
 16 17  1  0
 17 21  1  0
 17 18  1  6
 19 18  1  0
 20 19  2  0
 21 24  2  0
 21 22  1  0
 23 19  1  0
M  END
$$$$
