STG.pdb
     RDKit          3D

 18 17  0  0  1  0  0  0  0  0999 V2000
   12.9646  -16.6761   16.0644 O   0  0  0  0  0  0  0  0  0  0  0  0
   12.7465  -16.3376   17.3987 C   0  0  0  0  0  0  0  0  0  0  0  0
   12.5914  -14.8380   17.4969 C   0  0  2  0  0  0  0  0  0  0  0  0
   13.8348  -14.1636   17.2469 N   0  0  0  0  0  0  0  0  0  0  0  0
   12.0528  -14.4060   18.7962 C   0  0  0  0  0  0  0  0  0  0  0  0
   12.8016  -13.9060   19.7018 O   0  0  0  0  0  0  0  0  0  0  0  0
    8.5839  -12.3255   19.4608 C   0  0  0  0  0  0  0  0  0  0  0  0
    8.6493  -13.6616   20.1268 C   0  0  1  0  0  0  0  0  0  0  0  0
    7.9153  -14.5971   19.3692 O   0  0  0  0  0  0  0  0  0  0  0  0
   10.0429  -14.1897   20.2866 C   0  0  2  0  0  0  0  0  0  0  0  0
   10.6588  -14.5555   19.0354 N   0  0  0  0  0  0  0  0  0  0  0  0
    9.9407  -15.4474   21.1078 C   0  0  0  0  0  0  0  0  0  0  0  0
    9.8370  -16.5280   20.4864 O   0  0  0  0  0  0  0  0  0  0  0  0
    9.9592  -15.4299   22.5188 N   0  0  0  0  0  0  0  0  0  0  0  0
    9.9935  -16.6675   23.2662 C   0  0  0  0  0  0  0  0  0  0  0  0
   10.0182  -16.3607   24.7058 C   0  0  0  0  0  0  0  0  0  0  0  0
   10.1602  -17.3672   25.6309 O   0  0  0  0  0  0  0  0  0  0  0  0
    9.9078  -15.1587   25.1028 O   0  0  0  0  0  0  0  0  0  0  0  0
  2  1  1  0
  2  3  1  0
  3  4  1  1
  5 11  1  0
  5  3  1  0
  6  5  2  0
  8  7  1  6
  8 10  1  0
  9  8  1  0
 10 11  1  6
 10 12  1  0
 12 13  2  0
 14 12  1  0
 14 15  1  0
 16 15  1  0
 16 17  1  0
 18 16  2  0
M  END
$$$$
