STG.pdb
     RDKit          3D

 18 17  0  0  1  0  0  0  0  0999 V2000
    9.5090  -15.1789   14.8214 O   0  0  0  0  0  0  0  0  0  0  0  0
    9.6779  -14.7272   16.1290 C   0  0  0  0  0  0  0  0  0  0  0  0
    8.3154  -14.5200   16.7478 C   0  0  2  0  0  0  0  0  0  0  0  0
    7.5867  -13.4792   16.0777 N   0  0  0  0  0  0  0  0  0  0  0  0
    8.3839  -14.2211   18.1869 C   0  0  0  0  0  0  0  0  0  0  0  0
    8.3738  -13.0219   18.6258 O   0  0  0  0  0  0  0  0  0  0  0  0
    6.1627  -14.7699   21.0917 C   0  0  0  0  0  0  0  0  0  0  0  0
    7.3864  -15.6047   21.2879 C   0  0  1  0  0  0  0  0  0  0  0  0
    7.1207  -16.9265   20.8756 O   0  0  0  0  0  0  0  0  0  0  0  0
    8.5806  -15.1153   20.5256 C   0  0  2  0  0  0  0  0  0  0  0  0
    8.4633  -15.3074   19.1015 N   0  0  0  0  0  0  0  0  0  0  0  0
    9.7560  -15.9375   20.9824 C   0  0  0  0  0  0  0  0  0  0  0  0
   10.2985  -16.6788   20.1334 O   0  0  0  0  0  0  0  0  0  0  0  0
   10.2409  -15.8887   22.3068 N   0  0  0  0  0  0  0  0  0  0  0  0
   11.3986  -16.6652   22.6920 C   0  0  0  0  0  0  0  0  0  0  0  0
   11.6515  -16.4728   24.1294 C   0  0  0  0  0  0  0  0  0  0  0  0
   10.8854  -15.5973   24.8611 O   0  0  0  0  0  0  0  0  0  0  0  0
   12.5834  -17.1178   24.7040 O   0  0  0  0  0  0  0  0  0  0  0  0
  2  1  1  0
  2  3  1  0
  3  4  1  6
  5 11  1  0
  5  3  1  0
  6  5  2  0
  8  7  1  6
  8 10  1  0
  9  8  1  0
 10 11  1  6
 10 12  1  0
 12 13  2  0
 14 12  1  0
 14 15  1  0
 16 15  1  0
 16 17  1  0
 18 16  2  0
M  END
$$$$
