STG.pdb
     RDKit          3D

 18 17  0  0  1  0  0  0  0  0999 V2000
    9.9580  -15.0838   15.6399 O   0  0  0  0  0  0  0  0  0  0  0  0
    9.7567  -14.6618   16.9529 C   0  0  0  0  0  0  0  0  0  0  0  0
    8.2704  -14.5679   17.2071 C   0  0  2  0  0  0  0  0  0  0  0  0
    7.6845  -13.4651   16.4973 N   0  0  0  0  0  0  0  0  0  0  0  0
    7.9440  -14.4584   18.6376 C   0  0  0  0  0  0  0  0  0  0  0  0
    7.6608  -13.3368   19.1787 O   0  0  0  0  0  0  0  0  0  0  0  0
    6.4763  -16.8214   22.7146 C   0  0  0  0  0  0  0  0  0  0  0  0
    6.8666  -16.8460   21.2724 C   0  0  1  0  0  0  0  0  0  0  0  0
    5.7063  -16.9333   20.4763 O   0  0  0  0  0  0  0  0  0  0  0  0
    7.6367  -15.6372   20.8339 C   0  0  2  0  0  0  0  0  0  0  0  0
    7.9482  -15.6420   19.4262 N   0  0  0  0  0  0  0  0  0  0  0  0
    8.9485  -15.6649   21.5721 C   0  0  0  0  0  0  0  0  0  0  0  0
    9.9027  -16.2545   21.0185 O   0  0  0  0  0  0  0  0  0  0  0  0
    9.1156  -15.0580   22.8352 N   0  0  0  0  0  0  0  0  0  0  0  0
   10.4320  -14.9383   23.4218 C   0  0  0  0  0  0  0  0  0  0  0  0
   10.7365  -16.1646   24.1771 C   0  0  0  0  0  0  0  0  0  0  0  0
   11.9452  -16.3085   24.8153 O   0  0  0  0  0  0  0  0  0  0  0  0
    9.8800  -17.1009   24.2435 O   0  0  0  0  0  0  0  0  0  0  0  0
  2  1  1  0
  2  3  1  0
  3  4  1  6
  5 11  1  0
  5  3  1  0
  6  5  2  0
  8  7  1  1
  8 10  1  0
  9  8  1  0
 10 11  1  6
 10 12  1  0
 12 13  2  0
 14 12  1  0
 14 15  1  0
 16 15  1  0
 16 17  1  0
 18 16  2  0
M  END
$$$$
