STG.pdb
     RDKit          3D

 18 17  0  0  1  0  0  0  0  0999 V2000
   10.1402  -17.5273   15.0522 O   0  0  0  0  0  0  0  0  0  0  0  0
    8.8386  -17.1445   15.3715 C   0  0  0  0  0  0  0  0  0  0  0  0
    8.7626  -15.6357   15.3591 C   0  0  2  0  0  0  0  0  0  0  0  0
    9.3685  -15.0886   14.1773 N   0  0  0  0  0  0  0  0  0  0  0  0
    9.3746  -15.0258   16.5502 C   0  0  0  0  0  0  0  0  0  0  0  0
   10.5126  -14.4485   16.5005 O   0  0  0  0  0  0  0  0  0  0  0  0
    7.4174  -12.5985   18.9107 C   0  0  0  0  0  0  0  0  0  0  0  0
    8.0445  -13.6966   19.7067 C   0  0  1  0  0  0  0  0  0  0  0  0
    7.0562  -14.6356   20.0662 O   0  0  0  0  0  0  0  0  0  0  0  0
    9.1310  -14.4274   18.9772 C   0  0  2  0  0  0  0  0  0  0  0  0
    8.6678  -15.0888   17.7827 N   0  0  0  0  0  0  0  0  0  0  0  0
    9.6328  -15.5014   19.9051 C   0  0  0  0  0  0  0  0  0  0  0  0
    9.3386  -16.6837   19.6219 O   0  0  0  0  0  0  0  0  0  0  0  0
   10.4033  -15.2084   21.0506 N   0  0  0  0  0  0  0  0  0  0  0  0
   10.9338  -16.2760   21.8692 C   0  0  0  0  0  0  0  0  0  0  0  0
   12.3954  -16.1292   21.9650 C   0  0  0  0  0  0  0  0  0  0  0  0
   13.1653  -16.0603   20.8285 O   0  0  0  0  0  0  0  0  0  0  0  0
   12.9558  -16.0652   23.1036 O   0  0  0  0  0  0  0  0  0  0  0  0
  2  1  1  0
  2  3  1  0
  3  4  1  6
  5 11  1  0
  5  3  1  0
  6  5  2  0
  8  7  1  6
  8 10  1  0
  9  8  1  0
 10 11  1  6
 10 12  1  0
 12 13  2  0
 14 12  1  0
 14 15  1  0
 16 15  1  0
 16 17  1  0
 18 16  2  0
M  END
$$$$
