STG.pdb
     RDKit          3D

 18 17  0  0  1  0  0  0  0  0999 V2000
    8.7663  -18.3853   15.1226 O   0  0  0  0  0  0  0  0  0  0  0  0
    9.6598  -17.3476   15.3823 C   0  0  0  0  0  0  0  0  0  0  0  0
    8.8900  -16.0485   15.4296 C   0  0  2  0  0  0  0  0  0  0  0  0
    8.8666  -15.4045   14.1459 N   0  0  0  0  0  0  0  0  0  0  0  0
    9.4145  -15.1132   16.4371 C   0  0  0  0  0  0  0  0  0  0  0  0
   10.1610  -14.1280   16.1158 O   0  0  0  0  0  0  0  0  0  0  0  0
    7.7064  -12.7254   18.5640 C   0  0  0  0  0  0  0  0  0  0  0  0
    8.3853  -13.6810   19.4908 C   0  0  1  0  0  0  0  0  0  0  0  0
    7.4439  -14.6145   19.9705 O   0  0  0  0  0  0  0  0  0  0  0  0
    9.5086  -14.4437   18.8559 C   0  0  2  0  0  0  0  0  0  0  0  0
    9.0723  -15.3247   17.8012 N   0  0  0  0  0  0  0  0  0  0  0  0
   10.1081  -15.3113   19.9303 C   0  0  0  0  0  0  0  0  0  0  0  0
    9.9083  -16.5433   19.8468 O   0  0  0  0  0  0  0  0  0  0  0  0
   10.8660  -14.7779   20.9945 N   0  0  0  0  0  0  0  0  0  0  0  0
   11.4814  -15.6539   21.9667 C   0  0  0  0  0  0  0  0  0  0  0  0
   10.6009  -15.7646   23.1413 C   0  0  0  0  0  0  0  0  0  0  0  0
   11.0220  -16.4291   24.2682 O   0  0  0  0  0  0  0  0  0  0  0  0
    9.4419  -15.2443   23.1197 O   0  0  0  0  0  0  0  0  0  0  0  0
  2  1  1  0
  2  3  1  0
  3  4  1  6
  5 11  1  0
  5  3  1  0
  6  5  2  0
  8  7  1  6
  8 10  1  0
  9  8  1  0
 10 11  1  6
 10 12  1  0
 12 13  2  0
 14 12  1  0
 14 15  1  0
 16 15  1  0
 16 17  1  0
 18 16  2  0
M  END
$$$$
