RAW.pdb
     RDKit          3D

 31 32  0  0  1  0  0  0  0  0999 V2000
   30.3315  -24.1968  -17.6120 N   0  0  0  0  0  0  0  0  0  0  0  0
   30.6127  -23.3154  -18.7174 C   0  0  0  0  0  0  0  0  0  0  0  0
   30.9085  -23.7918  -19.8708 N   0  0  0  0  0  0  0  0  0  0  0  0
   30.5680  -21.9061  -18.5491 N   0  0  0  0  0  0  0  0  0  0  0  0
   30.3158  -21.2666  -17.2784 C   0  0  0  0  0  0  0  0  0  0  0  0
   28.9914  -20.5158  -17.3977 C   0  0  0  0  0  0  0  0  0  0  0  0
   28.8031  -19.5961  -16.1941 C   0  0  0  0  0  0  0  0  0  0  0  0
   28.1994  -20.4314  -15.0889 C   0  0  2  0  0  0  0  0  0  0  0  0
   27.5801  -21.5776  -15.6483 N   0  0  0  0  0  0  0  0  0  0  0  0
   27.3398  -19.6427  -14.1922 C   0  0  0  0  0  0  0  0  0  0  0  0
   27.7410  -18.5456  -13.7597 O   0  0  0  0  0  0  0  0  0  0  0  0
   31.2249  -23.1645  -20.6236 C   0  0  0  0  0  0  0  0  0  0  0  0
   23.7091  -19.4978  -13.2402 C   0  0  2  0  0  0  0  0  0  0  0  0
   25.1983  -19.3125  -12.9119 N   0  0  0  0  0  0  0  0  0  0  0  0
   26.0285  -20.0861  -13.7826 C   0  0  0  0  0  0  0  0  0  0  0  0
   25.3363  -19.6828  -11.4790 O   0  0  0  0  0  0  0  0  0  0  0  0
   25.1119  -18.8630  -10.5379 N   0  0  0  0  0  0  0  0  0  0  0  0
   25.7293  -20.9849  -11.0702 C   0  0  2  0  0  0  0  0  0  0  0  0
   25.8046  -21.3812   -9.6473 C   0  0  0  0  0  0  0  0  0  0  0  0
   26.9181  -20.5323   -9.0888 C   0  0  0  0  0  0  0  0  0  0  0  0
   27.0242  -20.4466   -7.6425 C   0  0  0  0  0  0  0  0  0  0  0  0
   25.9789  -20.5552   -6.7466 N   0  0  0  0  0  0  0  0  0  0  0  0
   26.4716  -20.3791   -5.5102 C   0  0  0  0  0  0  0  0  0  0  0  0
   27.8040  -20.1595   -5.5664 C   0  0  0  0  0  0  0  0  0  0  0  0
   28.7313  -19.9445   -4.5676 C   0  0  0  0  0  0  0  0  0  0  0  0
   30.0517  -19.7666   -4.9071 C   0  0  0  0  0  0  0  0  0  0  0  0
   30.4615  -19.7987   -6.2150 C   0  0  0  0  0  0  0  0  0  0  0  0
   29.5135  -20.0134   -7.1802 C   0  0  0  0  0  0  0  0  0  0  0  0
   28.1613  -20.1990   -6.8879 C   0  0  0  0  0  0  0  0  0  0  0  0
   24.5578  -21.1501   -8.9283 O   0  0  0  0  0  0  0  0  0  0  0  0
   23.8295  -20.1642   -9.1791 O   0  0  0  0  0  0  0  0  0  0  0  0
  1  2  1  0
  2  4  1  0
  2  3  2  0
  4  5  1  0
  5  6  1  0
  7  6  1  0
  7  8  1  0
  8 10  1  0
  8  9  1  6
 10 11  2  0
 13 12  1  6
 14 13  1  0
 14 10  1  0
 15 17  1  0
 15 13  1  0
 16 15  2  0
 18 19  1  6
 18 17  1  0
 19 20  1  0
 20 28  1  0
 20 21  2  0
 21 22  1  0
 23 22  1  0
 23 24  2  0
 25 24  1  0
 26 25  2  0
 27 26  1  0
 27 28  2  0
 28 23  1  0
 29 18  1  0
 29 31  1  0
 30 29  2  0
M  END
$$$$
