RAW.pdb
     RDKit          3D

 31 32  0  0  1  0  0  0  0  0999 V2000
   28.1039  -29.5985  -16.6486 N   0  0  0  0  0  0  0  0  0  0  0  0
   27.8545  -29.5195  -18.0661 C   0  0  0  0  0  0  0  0  0  0  0  0
   27.3350  -30.5113  -18.6917 N   0  0  0  0  0  0  0  0  0  0  0  0
   28.1797  -28.3445  -18.7941 N   0  0  0  0  0  0  0  0  0  0  0  0
   28.1073  -27.0165  -18.2301 C   0  0  0  0  0  0  0  0  0  0  0  0
   26.6728  -26.7980  -17.7542 C   0  0  0  0  0  0  0  0  0  0  0  0
   26.6342  -25.6887  -16.7064 C   0  0  0  0  0  0  0  0  0  0  0  0
   27.4924  -24.5587  -17.2262 C   0  0  2  0  0  0  0  0  0  0  0  0
   28.7276  -25.0786  -17.6890 N   0  0  0  0  0  0  0  0  0  0  0  0
   27.6119  -23.4529  -16.2630 C   0  0  0  0  0  0  0  0  0  0  0  0
   28.2722  -23.6124  -15.2189 O   0  0  0  0  0  0  0  0  0  0  0  0
   27.2538  -30.4898  -19.7181 C   0  0  0  0  0  0  0  0  0  0  0  0
   26.4609  -19.8090  -16.0507 C   0  0  1  0  0  0  0  0  0  0  0  0
   27.0849  -21.1075  -15.5175 N   0  0  0  0  0  0  0  0  0  0  0  0
   26.9906  -22.1670  -16.4737 C   0  0  0  0  0  0  0  0  0  0  0  0
   26.3735  -21.3943  -14.2443 O   0  0  0  0  0  0  0  0  0  0  0  0
   25.1798  -21.8210  -14.2109 N   0  0  0  0  0  0  0  0  0  0  0  0
   26.9884  -21.2088  -12.9776 C   0  0  2  0  0  0  0  0  0  0  0  0
   26.3091  -21.5473  -11.7083 C   0  0  0  0  0  0  0  0  0  0  0  0
   27.3648  -21.3219  -10.6561 C   0  0  0  0  0  0  0  0  0  0  0  0
   26.9198  -20.8181   -9.3683 C   0  0  0  0  0  0  0  0  0  0  0  0
   25.6158  -20.5254   -9.0206 N   0  0  0  0  0  0  0  0  0  0  0  0
   25.6179  -20.0458   -7.7667 C   0  0  0  0  0  0  0  0  0  0  0  0
   26.8790  -20.0151   -7.2815 C   0  0  0  0  0  0  0  0  0  0  0  0
   27.3696  -19.6225   -6.0532 C   0  0  0  0  0  0  0  0  0  0  0  0
   28.7198  -19.7152   -5.8110 C   0  0  0  0  0  0  0  0  0  0  0  0
   29.5838  -20.1886   -6.7645 C   0  0  0  0  0  0  0  0  0  0  0  0
   29.0617  -20.5684   -7.9726 C   0  0  0  0  0  0  0  0  0  0  0  0
   27.6996  -20.4934   -8.2682 C   0  0  0  0  0  0  0  0  0  0  0  0
   25.1340  -20.7219  -11.4573 O   0  0  0  0  0  0  0  0  0  0  0  0
   25.1212  -19.5003  -11.7270 O   0  0  0  0  0  0  0  0  0  0  0  0
  1  2  1  0
  2  4  1  0
  2  3  2  0
  4  5  1  0
  5  6  1  0
  7  6  1  0
  7  8  1  0
  8 10  1  0
  8  9  1  1
 10 11  2  0
 13 12  1  6
 14 13  1  0
 14 10  1  0
 15 17  1  0
 15 13  1  0
 16 15  2  0
 18 19  1  6
 18 17  1  0
 19 20  1  0
 20 28  1  0
 20 21  2  0
 21 22  1  0
 23 22  1  0
 23 24  2  0
 25 24  1  0
 26 25  2  0
 27 26  1  0
 27 28  2  0
 28 23  1  0
 29 18  1  0
 29 31  1  0
 30 29  2  0
M  END
$$$$
