RAW.pdb
     RDKit          3D

 31 32  0  0  1  0  0  0  0  0999 V2000
   30.0835  -28.5338  -18.7365 N   0  0  0  0  0  0  0  0  0  0  0  0
   28.7798  -28.8329  -18.1993 C   0  0  0  0  0  0  0  0  0  0  0  0
   28.3985  -30.0489  -18.0554 N   0  0  0  0  0  0  0  0  0  0  0  0
   27.8954  -27.7882  -17.8212 N   0  0  0  0  0  0  0  0  0  0  0  0
   28.2422  -26.3880  -17.9000 C   0  0  0  0  0  0  0  0  0  0  0  0
   29.2674  -26.1070  -16.8037 C   0  0  0  0  0  0  0  0  0  0  0  0
   28.7497  -25.0131  -15.8735 C   0  0  0  0  0  0  0  0  0  0  0  0
   28.8476  -23.7074  -16.6280 C   0  0  2  0  0  0  0  0  0  0  0  0
   30.2057  -23.4412  -16.9361 N   0  0  0  0  0  0  0  0  0  0  0  0
   28.1437  -22.6092  -15.9473 C   0  0  0  0  0  0  0  0  0  0  0  0
   28.6148  -22.1307  -14.8981 O   0  0  0  0  0  0  0  0  0  0  0  0
   27.4282  -30.2574  -17.7808 C   0  0  0  0  0  0  0  0  0  0  0  0
   25.1494  -20.3463  -16.5949 C   0  0  1  0  0  0  0  0  0  0  0  0
   26.1490  -21.0945  -15.7001 N   0  0  0  0  0  0  0  0  0  0  0  0
   26.9112  -22.0474  -16.4463 C   0  0  0  0  0  0  0  0  0  0  0  0
   25.3319  -21.7059  -14.6195 O   0  0  0  0  0  0  0  0  0  0  0  0
   25.2119  -22.9608  -14.4819 N   0  0  0  0  0  0  0  0  0  0  0  0
   24.6304  -20.9201  -13.6669 C   0  0  1  0  0  0  0  0  0  0  0  0
   23.9443  -21.5138  -12.4990 C   0  0  0  0  0  0  0  0  0  0  0  0
   25.0687  -22.0178  -11.6305 C   0  0  0  0  0  0  0  0  0  0  0  0
   25.6626  -21.0726  -10.7009 C   0  0  0  0  0  0  0  0  0  0  0  0
   24.9722  -20.2187   -9.8635 N   0  0  0  0  0  0  0  0  0  0  0  0
   25.8696  -19.4771   -9.1949 C   0  0  0  0  0  0  0  0  0  0  0  0
   27.1240  -19.8171   -9.5657 C   0  0  0  0  0  0  0  0  0  0  0  0
   28.3526  -19.3489   -9.1471 C   0  0  0  0  0  0  0  0  0  0  0  0
   29.4950  -19.8942   -9.6835 C   0  0  0  0  0  0  0  0  0  0  0  0
   29.4354  -20.8907  -10.6234 C   0  0  0  0  0  0  0  0  0  0  0  0
   28.1988  -21.3302  -11.0160 C   0  0  0  0  0  0  0  0  0  0  0  0
   27.0099  -20.8093  -10.5027 C   0  0  0  0  0  0  0  0  0  0  0  0
   23.1164  -20.5532  -11.7800 O   0  0  0  0  0  0  0  0  0  0  0  0
   23.2395  -19.3207  -11.9560 O   0  0  0  0  0  0  0  0  0  0  0  0
  1  2  1  0
  2  4  1  0
  2  3  2  0
  4  5  1  0
  5  6  1  0
  7  6  1  0
  7  8  1  0
  8 10  1  0
  8  9  1  1
 10 11  2  0
 13 12  1  6
 14 13  1  0
 14 10  1  0
 15 17  1  0
 15 13  1  0
 16 15  2  0
 18 19  1  1
 18 17  1  0
 19 20  1  0
 20 28  1  0
 20 21  2  0
 21 22  1  0
 23 22  1  0
 23 24  2  0
 25 24  1  0
 26 25  2  0
 27 26  1  0
 27 28  2  0
 28 23  1  0
 29 18  1  0
 29 31  1  0
 30 29  2  0
M  END
$$$$
