RAW.pdb
     RDKit          3D

 31 32  0  0  1  0  0  0  0  0999 V2000
   24.6462  -23.3040  -19.6438 N   0  0  0  0  0  0  0  0  0  0  0  0
   23.7493  -24.3844  -19.9692 C   0  0  0  0  0  0  0  0  0  0  0  0
   23.6670  -24.8223  -21.1718 N   0  0  0  0  0  0  0  0  0  0  0  0
   22.9413  -24.9818  -18.9657 N   0  0  0  0  0  0  0  0  0  0  0  0
   23.0095  -24.6150  -17.5701 C   0  0  0  0  0  0  0  0  0  0  0  0
   24.1150  -25.4514  -16.9296 C   0  0  0  0  0  0  0  0  0  0  0  0
   24.6752  -24.7275  -15.7080 C   0  0  0  0  0  0  0  0  0  0  0  0
   25.5477  -23.6050  -16.2202 C   0  0  2  0  0  0  0  0  0  0  0  0
   26.3982  -24.0972  -17.2423 N   0  0  0  0  0  0  0  0  0  0  0  0
   26.2383  -22.8888  -15.1361 C   0  0  0  0  0  0  0  0  0  0  0  0
   26.8224  -23.5334  -14.2446 O   0  0  0  0  0  0  0  0  0  0  0  0
   22.9623  -25.5321  -21.4165 C   0  0  0  0  0  0  0  0  0  0  0  0
   26.8387  -19.2362  -14.1554 C   0  0  2  0  0  0  0  0  0  0  0  0
   26.9004  -20.7597  -13.9687 N   0  0  0  0  0  0  0  0  0  0  0  0
   26.2739  -21.4480  -15.0547 C   0  0  0  0  0  0  0  0  0  0  0  0
   26.2605  -21.0231  -12.6532 O   0  0  0  0  0  0  0  0  0  0  0  0
   25.0177  -21.2440  -12.5312 N   0  0  0  0  0  0  0  0  0  0  0  0
   27.0036  -21.0452  -11.4432 C   0  0  2  0  0  0  0  0  0  0  0  0
   26.3677  -21.2577  -10.1249 C   0  0  0  0  0  0  0  0  0  0  0  0
   27.5260  -21.2928   -9.1606 C   0  0  0  0  0  0  0  0  0  0  0  0
   27.5407  -20.2936   -8.1063 C   0  0  0  0  0  0  0  0  0  0  0  0
   26.7268  -19.1804   -8.0350 N   0  0  0  0  0  0  0  0  0  0  0  0
   27.0715  -18.4831   -6.9408 C   0  0  0  0  0  0  0  0  0  0  0  0
   28.0831  -19.1025   -6.2930 C   0  0  0  0  0  0  0  0  0  0  0  0
   28.7505  -18.7770   -5.1301 C   0  0  0  0  0  0  0  0  0  0  0  0
   29.7455  -19.6089   -4.6739 C   0  0  0  0  0  0  0  0  0  0  0  0
   30.0850  -20.7515   -5.3513 C   0  0  0  0  0  0  0  0  0  0  0  0
   29.4021  -21.0428   -6.5025 C   0  0  0  0  0  0  0  0  0  0  0  0
   28.3851  -20.2311   -7.0076 C   0  0  0  0  0  0  0  0  0  0  0  0
   25.4251  -20.2025   -9.7741 O   0  0  0  0  0  0  0  0  0  0  0  0
   25.6205  -19.0121  -10.1057 O   0  0  0  0  0  0  0  0  0  0  0  0
  1  2  1  0
  2  4  1  0
  2  3  2  0
  4  5  1  0
  5  6  1  0
  7  6  1  0
  7  8  1  0
  8 10  1  0
  8  9  1  6
 10 11  2  0
 13 12  1  6
 14 13  1  0
 14 10  1  0
 15 17  1  0
 15 13  1  0
 16 15  2  0
 18 19  1  6
 18 17  1  0
 19 20  1  0
 20 28  1  0
 20 21  2  0
 21 22  1  0
 23 22  1  0
 23 24  2  0
 25 24  1  0
 26 25  2  0
 27 26  1  0
 27 28  2  0
 28 23  1  0
 29 18  1  0
 29 31  1  0
 30 29  2  0
M  END
$$$$
