RAW.pdb
     RDKit          3D

 31 32  0  0  1  0  0  0  0  0999 V2000
   25.3789  -17.7641  -18.4258 N   0  0  0  0  0  0  0  0  0  0  0  0
   25.1164  -16.5268  -17.7345 C   0  0  0  0  0  0  0  0  0  0  0  0
   24.0717  -15.8360  -18.0106 N   0  0  0  0  0  0  0  0  0  0  0  0
   26.0088  -16.0511  -16.7376 N   0  0  0  0  0  0  0  0  0  0  0  0
   26.4799  -16.8650  -15.6410 C   0  0  0  0  0  0  0  0  0  0  0  0
   25.3318  -16.9987  -14.6430 C   0  0  0  0  0  0  0  0  0  0  0  0
   25.7348  -17.9352  -13.5069 C   0  0  0  0  0  0  0  0  0  0  0  0
   27.1337  -18.4206  -13.8085 C   0  0  2  0  0  0  0  0  0  0  0  0
   27.3351  -18.4373  -15.2118 N   0  0  0  0  0  0  0  0  0  0  0  0
   27.4507  -19.6849  -13.1257 C   0  0  0  0  0  0  0  0  0  0  0  0
   26.8919  -20.7381  -13.4864 O   0  0  0  0  0  0  0  0  0  0  0  0
   23.9262  -14.9187  -17.5659 C   0  0  0  0  0  0  0  0  0  0  0  0
   29.9895  -20.8947  -10.5522 C   0  0  2  0  0  0  0  0  0  0  0  0
   28.7000  -20.9992  -11.3804 N   0  0  0  0  0  0  0  0  0  0  0  0
   28.3970  -19.7660  -12.0386 C   0  0  0  0  0  0  0  0  0  0  0  0
   27.6491  -21.4328  -10.4229 O   0  0  0  0  0  0  0  0  0  0  0  0
   27.6326  -22.5910   -9.9066 N   0  0  0  0  0  0  0  0  0  0  0  0
   26.5917  -20.5736  -10.0224 C   0  0  1  0  0  0  0  0  0  0  0  0
   25.4098  -21.0622   -9.2796 C   0  0  0  0  0  0  0  0  0  0  0  0
   25.3334  -20.1575   -8.0762 C   0  0  0  0  0  0  0  0  0  0  0  0
   26.5799  -19.5858   -7.5970 C   0  0  0  0  0  0  0  0  0  0  0  0
   27.3128  -18.5995   -8.2271 N   0  0  0  0  0  0  0  0  0  0  0  0
   28.4171  -18.3727   -7.4981 C   0  0  0  0  0  0  0  0  0  0  0  0
   28.4316  -19.1767   -6.4118 C   0  0  0  0  0  0  0  0  0  0  0  0
   29.3400  -19.2916   -5.3796 C   0  0  0  0  0  0  0  0  0  0  0  0
   29.0962  -20.1929   -4.3704 C   0  0  0  0  0  0  0  0  0  0  0  0
   27.9712  -20.9765   -4.3716 C   0  0  0  0  0  0  0  0  0  0  0  0
   27.0919  -20.8365   -5.4126 C   0  0  0  0  0  0  0  0  0  0  0  0
   27.2936  -19.9371   -6.4608 C   0  0  0  0  0  0  0  0  0  0  0  0
   24.1822  -20.9976  -10.0630 O   0  0  0  0  0  0  0  0  0  0  0  0
   23.0901  -21.4008   -9.6047 O   0  0  0  0  0  0  0  0  0  0  0  0
  1  2  1  0
  2  4  1  0
  2  3  2  0
  4  5  1  0
  5  6  1  0
  7  6  1  0
  7  8  1  0
  8 10  1  0
  8  9  1  6
 10 11  2  0
 13 12  1  6
 14 13  1  0
 14 10  1  0
 15 17  1  0
 15 13  1  0
 16 15  2  0
 18 19  1  1
 18 17  1  0
 19 20  1  0
 20 28  1  0
 20 21  2  0
 21 22  1  0
 23 22  1  0
 23 24  2  0
 25 24  1  0
 26 25  2  0
 27 26  1  0
 27 28  2  0
 28 23  1  0
 29 18  1  0
 29 31  1  0
 30 29  2  0
M  END
$$$$
