RAW.pdb
     RDKit          3D

 31 32  0  0  1  0  0  0  0  0999 V2000
   29.8032  -22.6066  -16.8768 N   0  0  0  0  0  0  0  0  0  0  0  0
   30.4138  -22.3990  -18.1659 C   0  0  0  0  0  0  0  0  0  0  0  0
   31.4803  -23.0330  -18.4906 N   0  0  0  0  0  0  0  0  0  0  0  0
   29.8469  -21.4895  -19.0976 N   0  0  0  0  0  0  0  0  0  0  0  0
   29.2941  -20.2092  -18.7203 C   0  0  0  0  0  0  0  0  0  0  0  0
   30.1212  -19.6792  -17.5511 C   0  0  0  0  0  0  0  0  0  0  0  0
   29.3081  -18.6603  -16.7569 C   0  0  0  0  0  0  0  0  0  0  0  0
   28.1316  -19.3992  -16.1624 C   0  0  2  0  0  0  0  0  0  0  0  0
   27.0066  -19.2575  -17.0135 N   0  0  0  0  0  0  0  0  0  0  0  0
   27.8903  -19.0365  -14.7570 C   0  0  0  0  0  0  0  0  0  0  0  0
   28.0905  -17.8669  -14.3783 O   0  0  0  0  0  0  0  0  0  0  0  0
   31.9198  -22.8700  -19.4074 C   0  0  0  0  0  0  0  0  0  0  0  0
   25.0463  -19.4379  -13.5094 C   0  0  1  0  0  0  0  0  0  0  0  0
   26.4033  -19.6662  -12.8266 N   0  0  0  0  0  0  0  0  0  0  0  0
   27.4224  -19.9878  -13.7773 C   0  0  0  0  0  0  0  0  0  0  0  0
   26.1669  -20.7399  -11.8263 O   0  0  0  0  0  0  0  0  0  0  0  0
   25.8862  -21.9314  -12.1578 N   0  0  0  0  0  0  0  0  0  0  0  0
   26.2416  -20.4994  -10.4287 C   0  0  1  0  0  0  0  0  0  0  0  0
   25.9857  -21.5564   -9.4264 C   0  0  0  0  0  0  0  0  0  0  0  0
   27.1886  -21.5005   -8.5195 C   0  0  0  0  0  0  0  0  0  0  0  0
   27.3363  -20.3192   -7.6870 C   0  0  0  0  0  0  0  0  0  0  0  0
   26.6990  -19.1093   -7.8788 N   0  0  0  0  0  0  0  0  0  0  0  0
   27.1264  -18.2598   -6.9311 C   0  0  0  0  0  0  0  0  0  0  0  0
   28.0214  -18.8729   -6.1251 C   0  0  0  0  0  0  0  0  0  0  0  0
   28.7104  -18.4158   -5.0205 C   0  0  0  0  0  0  0  0  0  0  0  0
   29.5601  -19.2715   -4.3602 C   0  0  0  0  0  0  0  0  0  0  0  0
   29.7345  -20.5655   -4.7782 C   0  0  0  0  0  0  0  0  0  0  0  0
   29.0351  -20.9848   -5.8790 C   0  0  0  0  0  0  0  0  0  0  0  0
   28.1614  -20.1556   -6.5842 C   0  0  0  0  0  0  0  0  0  0  0  0
   24.7538  -21.3405   -8.6776 O   0  0  0  0  0  0  0  0  0  0  0  0
   24.4001  -22.1142   -7.7602 O   0  0  0  0  0  0  0  0  0  0  0  0
  1  2  1  0
  2  4  1  0
  2  3  2  0
  4  5  1  0
  5  6  1  0
  7  6  1  0
  7  8  1  0
  8 10  1  0
  8  9  1  6
 10 11  2  0
 13 12  1  6
 14 13  1  0
 14 10  1  0
 15 17  1  0
 15 13  1  0
 16 15  2  0
 18 19  1  1
 18 17  1  0
 19 20  1  0
 20 28  1  0
 20 21  2  0
 21 22  1  0
 23 22  1  0
 23 24  2  0
 25 24  1  0
 26 25  2  0
 27 26  1  0
 27 28  2  0
 28 23  1  0
 29 18  1  0
 29 31  1  0
 30 29  2  0
M  END
$$$$
