RAW.pdb
     RDKit          3D

 31 32  0  0  1  0  0  0  0  0999 V2000
   32.3330  -22.8888  -12.5545 N   0  0  0  0  0  0  0  0  0  0  0  0
   32.4577  -23.4618  -13.8713 C   0  0  0  0  0  0  0  0  0  0  0  0
   33.1391  -24.5330  -14.0531 N   0  0  0  0  0  0  0  0  0  0  0  0
   31.8301  -22.8509  -14.9891 N   0  0  0  0  0  0  0  0  0  0  0  0
   30.4650  -22.3784  -14.9721 C   0  0  0  0  0  0  0  0  0  0  0  0
   29.7426  -23.0210  -16.1541 C   0  0  0  0  0  0  0  0  0  0  0  0
   28.3683  -22.3820  -16.3352 C   0  0  0  0  0  0  0  0  0  0  0  0
   27.4639  -22.9696  -15.2767 C   0  0  2  0  0  0  0  0  0  0  0  0
   27.8213  -24.3226  -15.0487 N   0  0  0  0  0  0  0  0  0  0  0  0
   26.0385  -22.7498  -15.5681 C   0  0  0  0  0  0  0  0  0  0  0  0
   25.6933  -21.7723  -16.2587 O   0  0  0  0  0  0  0  0  0  0  0  0
   33.2477  -24.9221  -15.0002 C   0  0  0  0  0  0  0  0  0  0  0  0
   22.8260  -24.7481  -15.2800 C   0  0  2  0  0  0  0  0  0  0  0  0
   23.6235  -23.4428  -15.4217 N   0  0  0  0  0  0  0  0  0  0  0  0
   25.0010  -23.6295  -15.0850 C   0  0  0  0  0  0  0  0  0  0  0  0
   22.9293  -22.4587  -14.5506 O   0  0  0  0  0  0  0  0  0  0  0  0
   21.7257  -22.1079  -14.7420 N   0  0  0  0  0  0  0  0  0  0  0  0
   23.5721  -21.8461  -13.4422 C   0  0  2  0  0  0  0  0  0  0  0  0
   22.8755  -20.8999  -12.5440 C   0  0  0  0  0  0  0  0  0  0  0  0
   23.7354  -20.8691  -11.3061 C   0  0  0  0  0  0  0  0  0  0  0  0
   25.1246  -20.4794  -11.4741 C   0  0  0  0  0  0  0  0  0  0  0  0
   25.6957  -19.9997  -12.6363 N   0  0  0  0  0  0  0  0  0  0  0  0
   27.0018  -19.7944  -12.4033 C   0  0  0  0  0  0  0  0  0  0  0  0
   27.3050  -20.1228  -11.1278 C   0  0  0  0  0  0  0  0  0  0  0  0
   28.4967  -20.0664  -10.4347 C   0  0  0  0  0  0  0  0  0  0  0  0
   28.5219  -20.4484   -9.1143 C   0  0  0  0  0  0  0  0  0  0  0  0
   27.3886  -20.8829   -8.4766 C   0  0  0  0  0  0  0  0  0  0  0  0
   26.2236  -20.9267   -9.1958 C   0  0  0  0  0  0  0  0  0  0  0  0
   26.1455  -20.5506  -10.5378 C   0  0  0  0  0  0  0  0  0  0  0  0
   22.7387  -19.5681  -13.1207 O   0  0  0  0  0  0  0  0  0  0  0  0
   23.3009  -19.2578  -14.1944 O   0  0  0  0  0  0  0  0  0  0  0  0
  1  2  1  0
  2  4  1  0
  2  3  2  0
  4  5  1  0
  5  6  1  0
  7  6  1  0
  7  8  1  0
  8 10  1  0
  8  9  1  6
 10 11  2  0
 13 12  1  6
 14 13  1  0
 14 10  1  0
 15 17  1  0
 15 13  1  0
 16 15  2  0
 18 19  1  6
 18 17  1  0
 19 20  1  0
 20 28  1  0
 20 21  2  0
 21 22  1  0
 23 22  1  0
 23 24  2  0
 25 24  1  0
 26 25  2  0
 27 26  1  0
 27 28  2  0
 28 23  1  0
 29 18  1  0
 29 31  1  0
 30 29  2  0
M  END
$$$$
