RAW.pdb
     RDKit          3D

 31 32  0  0  1  0  0  0  0  0999 V2000
   33.4704  -25.8601  -15.9577 N   0  0  0  0  0  0  0  0  0  0  0  0
   33.0811  -26.4913  -17.1937 C   0  0  0  0  0  0  0  0  0  0  0  0
   33.9098  -27.2292  -17.8369 N   0  0  0  0  0  0  0  0  0  0  0  0
   31.7754  -26.3072  -17.7208 N   0  0  0  0  0  0  0  0  0  0  0  0
   30.7757  -25.4759  -17.0911 C   0  0  0  0  0  0  0  0  0  0  0  0
   31.4749  -24.2101  -16.6003 C   0  0  0  0  0  0  0  0  0  0  0  0
   30.4904  -23.3373  -15.8263 C   0  0  0  0  0  0  0  0  0  0  0  0
   29.4065  -22.9260  -16.7955 C   0  0  2  0  0  0  0  0  0  0  0  0
   29.9957  -22.5390  -18.0257 N   0  0  0  0  0  0  0  0  0  0  0  0
   28.4800  -21.9391  -16.2190 C   0  0  0  0  0  0  0  0  0  0  0  0
   28.9316  -20.9493  -15.6124 O   0  0  0  0  0  0  0  0  0  0  0  0
   33.6327  -27.6603  -18.7301 C   0  0  0  0  0  0  0  0  0  0  0  0
   24.7500  -21.2055  -16.2113 C   0  0  1  0  0  0  0  0  0  0  0  0
   26.1499  -21.2344  -15.5797 N   0  0  0  0  0  0  0  0  0  0  0  0
   27.0457  -22.0635  -16.3253 C   0  0  0  0  0  0  0  0  0  0  0  0
   25.9434  -21.6941  -14.1813 O   0  0  0  0  0  0  0  0  0  0  0  0
   26.5509  -22.6957  -13.6957 N   0  0  0  0  0  0  0  0  0  0  0  0
   25.0490  -21.0372  -13.2951 C   0  0  1  0  0  0  0  0  0  0  0  0
   24.8462  -21.4809  -11.8989 C   0  0  0  0  0  0  0  0  0  0  0  0
   26.2190  -21.3906  -11.2825 C   0  0  0  0  0  0  0  0  0  0  0  0
   26.3180  -20.7668   -9.9743 C   0  0  0  0  0  0  0  0  0  0  0  0
   25.3507  -19.9836   -9.3759 N   0  0  0  0  0  0  0  0  0  0  0  0
   25.8310  -19.5595   -8.1962 C   0  0  0  0  0  0  0  0  0  0  0  0
   27.0796  -20.0389   -8.0017 C   0  0  0  0  0  0  0  0  0  0  0  0
   27.9554  -19.8887   -6.9462 C   0  0  0  0  0  0  0  0  0  0  0  0
   29.1789  -20.5138   -6.9973 C   0  0  0  0  0  0  0  0  0  0  0  0
   29.5427  -21.2804   -8.0742 C   0  0  0  0  0  0  0  0  0  0  0  0
   28.6486  -21.4067   -9.1043 C   0  0  0  0  0  0  0  0  0  0  0  0
   27.3953  -20.7923   -9.1010 C   0  0  0  0  0  0  0  0  0  0  0  0
   23.8905  -20.6521  -11.1745 O   0  0  0  0  0  0  0  0  0  0  0  0
   23.6411  -19.4781  -11.5276 O   0  0  0  0  0  0  0  0  0  0  0  0
  1  2  1  0
  2  4  1  0
  2  3  2  0
  4  5  1  0
  5  6  1  0
  7  6  1  0
  7  8  1  0
  8 10  1  0
  8  9  1  6
 10 11  2  0
 13 12  1  6
 14 13  1  0
 14 10  1  0
 15 17  1  0
 15 13  1  0
 16 15  2  0
 18 19  1  1
 18 17  1  0
 19 20  1  0
 20 28  1  0
 20 21  2  0
 21 22  1  0
 23 22  1  0
 23 24  2  0
 25 24  1  0
 26 25  2  0
 27 26  1  0
 27 28  2  0
 28 23  1  0
 29 18  1  0
 29 31  1  0
 30 29  2  0
M  END
$$$$
