RAW.pdb
     RDKit          3D

 31 32  0  0  1  0  0  0  0  0999 V2000
   20.4021  -22.5787   -7.6822 N   0  0  0  0  0  0  0  0  0  0  0  0
   19.3415  -22.5019   -8.6553 C   0  0  0  0  0  0  0  0  0  0  0  0
   18.4214  -23.3949   -8.6869 N   0  0  0  0  0  0  0  0  0  0  0  0
   19.2968  -21.4384   -9.5952 N   0  0  0  0  0  0  0  0  0  0  0  0
   20.4093  -20.5502   -9.8413 C   0  0  0  0  0  0  0  0  0  0  0  0
   21.5747  -21.4019  -10.3394 C   0  0  0  0  0  0  0  0  0  0  0  0
   22.7587  -20.5075  -10.6971 C   0  0  0  0  0  0  0  0  0  0  0  0
   22.8483  -20.4737  -12.2053 C   0  0  2  0  0  0  0  0  0  0  0  0
   21.9641  -21.4378  -12.7521 N   0  0  0  0  0  0  0  0  0  0  0  0
   24.2347  -20.5648  -12.6895 C   0  0  0  0  0  0  0  0  0  0  0  0
   24.7038  -21.6723  -13.0134 O   0  0  0  0  0  0  0  0  0  0  0  0
   17.7062  -23.3741   -9.4274 C   0  0  0  0  0  0  0  0  0  0  0  0
   27.2064  -18.2918  -13.3620 C   0  0  1  0  0  0  0  0  0  0  0  0
   26.5180  -19.5065  -12.7216 N   0  0  0  0  0  0  0  0  0  0  0  0
   25.0937  -19.4111  -12.8113 C   0  0  0  0  0  0  0  0  0  0  0  0
   27.0211  -19.5548  -11.3238 O   0  0  0  0  0  0  0  0  0  0  0  0
   26.3336  -19.1525  -10.3371 N   0  0  0  0  0  0  0  0  0  0  0  0
   28.3097  -20.0578  -11.0022 C   0  0  2  0  0  0  0  0  0  0  0  0
   28.5071  -21.2360  -10.1304 C   0  0  0  0  0  0  0  0  0  0  0  0
   27.3393  -21.1873   -9.1783 C   0  0  0  0  0  0  0  0  0  0  0  0
   27.3856  -20.1893   -8.1237 C   0  0  0  0  0  0  0  0  0  0  0  0
   26.6605  -19.0146   -8.0888 N   0  0  0  0  0  0  0  0  0  0  0  0
   27.0094  -18.3439   -6.9794 C   0  0  0  0  0  0  0  0  0  0  0  0
   27.9380  -19.0400   -6.2866 C   0  0  0  0  0  0  0  0  0  0  0  0
   28.5755  -18.7652   -5.0943 C   0  0  0  0  0  0  0  0  0  0  0  0
   29.4792  -19.6724   -4.5937 C   0  0  0  0  0  0  0  0  0  0  0  0
   29.7572  -20.8404   -5.2558 C   0  0  0  0  0  0  0  0  0  0  0  0
   29.1064  -21.0797   -6.4372 C   0  0  0  0  0  0  0  0  0  0  0  0
   28.1813  -20.1911   -6.9876 C   0  0  0  0  0  0  0  0  0  0  0  0
   28.5280  -22.4913  -10.8710 O   0  0  0  0  0  0  0  0  0  0  0  0
   29.1105  -23.5053  -10.4262 O   0  0  0  0  0  0  0  0  0  0  0  0
  1  2  1  0
  2  4  1  0
  2  3  2  0
  4  5  1  0
  5  6  1  0
  7  6  1  0
  7  8  1  0
  8 10  1  0
  8  9  1  6
 10 11  2  0
 13 12  1  6
 14 13  1  0
 14 10  1  0
 15 17  1  0
 15 13  1  0
 16 15  2  0
 18 19  1  1
 18 17  1  0
 19 20  1  0
 20 28  1  0
 20 21  2  0
 21 22  1  0
 23 22  1  0
 23 24  2  0
 25 24  1  0
 26 25  2  0
 27 26  1  0
 27 28  2  0
 28 23  1  0
 29 18  1  0
 29 31  1  0
 30 29  2  0
M  END
$$$$
