RAW.pdb
     RDKit          3D

 31 32  0  0  1  0  0  0  0  0999 V2000
   32.5907  -25.5511  -16.6240 N   0  0  0  0  0  0  0  0  0  0  0  0
   32.0475  -26.2788  -17.7434 C   0  0  0  0  0  0  0  0  0  0  0  0
   31.9421  -27.5563  -17.6999 N   0  0  0  0  0  0  0  0  0  0  0  0
   31.6208  -25.5955  -18.9128 N   0  0  0  0  0  0  0  0  0  0  0  0
   31.6534  -24.1576  -19.0477 C   0  0  0  0  0  0  0  0  0  0  0  0
   30.7866  -23.5728  -17.9348 C   0  0  0  0  0  0  0  0  0  0  0  0
   30.8493  -22.0481  -17.9715 C   0  0  0  0  0  0  0  0  0  0  0  0
   29.4567  -21.5553  -18.2899 C   0  0  2  0  0  0  0  0  0  0  0  0
   29.4238  -21.0593  -19.6178 N   0  0  0  0  0  0  0  0  0  0  0  0
   28.9417  -20.6257  -17.2723 C   0  0  0  0  0  0  0  0  0  0  0  0
   29.6182  -19.6322  -16.9451 O   0  0  0  0  0  0  0  0  0  0  0  0
   31.6503  -28.0797  -18.5373 C   0  0  0  0  0  0  0  0  0  0  0  0
   26.3028  -18.9421  -15.8063 C   0  0  1  0  0  0  0  0  0  0  0  0
   27.2855  -20.0709  -15.4603 N   0  0  0  0  0  0  0  0  0  0  0  0
   27.6657  -20.8115  -16.6234 C   0  0  0  0  0  0  0  0  0  0  0  0
   26.5956  -20.8948  -14.4334 O   0  0  0  0  0  0  0  0  0  0  0  0
   25.6652  -21.7067  -14.7224 N   0  0  0  0  0  0  0  0  0  0  0  0
   26.9364  -20.8260  -13.0564 C   0  0  2  0  0  0  0  0  0  0  0  0
   26.3042  -21.6921  -12.0379 C   0  0  0  0  0  0  0  0  0  0  0  0
   27.2448  -21.6217  -10.8620 C   0  0  0  0  0  0  0  0  0  0  0  0
   26.8153  -20.8389   -9.7161 C   0  0  0  0  0  0  0  0  0  0  0  0
   25.5305  -20.3930   -9.4764 N   0  0  0  0  0  0  0  0  0  0  0  0
   25.5457  -19.6714   -8.3443 C   0  0  0  0  0  0  0  0  0  0  0  0
   26.7967  -19.6304   -7.8345 C   0  0  0  0  0  0  0  0  0  0  0  0
   27.2931  -19.0328   -6.6943 C   0  0  0  0  0  0  0  0  0  0  0  0
   28.6281  -19.1674   -6.3948 C   0  0  0  0  0  0  0  0  0  0  0  0
   29.4716  -19.8819   -7.2059 C   0  0  0  0  0  0  0  0  0  0  0  0
   28.9446  -20.4608   -8.3299 C   0  0  0  0  0  0  0  0  0  0  0  0
   27.5972  -20.3533   -8.6784 C   0  0  0  0  0  0  0  0  0  0  0  0
   24.9667  -21.2466  -11.6670 O   0  0  0  0  0  0  0  0  0  0  0  0
   24.1194  -22.0375  -11.1961 O   0  0  0  0  0  0  0  0  0  0  0  0
  1  2  1  0
  2  4  1  0
  2  3  2  0
  4  5  1  0
  5  6  1  0
  7  6  1  0
  7  8  1  0
  8 10  1  0
  8  9  1  6
 10 11  2  0
 13 12  1  6
 14 13  1  0
 14 10  1  0
 15 17  1  0
 15 13  1  0
 16 15  2  0
 18 19  1  6
 18 17  1  0
 19 20  1  0
 20 28  1  0
 20 21  2  0
 21 22  1  0
 23 22  1  0
 23 24  2  0
 25 24  1  0
 26 25  2  0
 27 26  1  0
 27 28  2  0
 28 23  1  0
 29 18  1  0
 29 31  1  0
 30 29  2  0
M  END
$$$$
