RGY.pdb
     RDKit          3D

 28 28  0  0  1  0  0  0  0  0999 V2000
    7.6221  -13.6988   13.1524 N   0  0  0  0  0  0  0  0  0  0  0  0
    7.9321  -13.5516   14.5435 C   0  0  0  0  0  0  0  0  0  0  0  0
    8.1477  -12.3907   15.0366 N   0  0  0  0  0  0  0  0  0  0  0  0
    7.9858  -14.7391   15.3281 N   0  0  0  0  0  0  0  0  0  0  0  0
    9.0318  -14.8279   16.3381 C   0  0  0  0  0  0  0  0  0  0  0  0
    8.9281  -16.1803   16.9936 C   0  0  0  0  0  0  0  0  0  0  0  0
    8.8882  -16.1380   18.4732 C   0  0  0  0  0  0  0  0  0  0  0  0
    7.6807  -16.6937   19.1379 C   0  0  2  0  0  0  0  0  0  0  0  0
    6.6675  -15.6775   19.3031 N   0  0  0  0  0  0  0  0  0  0  0  0
    8.0692  -17.2815   20.4493 C   0  0  0  0  0  0  0  0  0  0  0  0
    8.9252  -18.2040   20.4276 O   0  0  0  0  0  0  0  0  0  0  0  0
    8.4939  -12.2857   16.0130 N   0  0  0  0  0  0  0  0  0  0  0  0
    7.5145  -16.8389   21.6739 C   0  0  0  0  0  0  0  0  0  0  0  0
    7.8512  -17.5120   22.8724 C   0  0  0  0  0  0  0  0  0  0  0  0
    8.8876  -16.8799   23.6857 O   0  0  0  0  0  0  0  0  0  0  0  0
   10.0082  -16.5047   23.2549 O   0  0  0  0  0  0  0  0  0  0  0  0
    6.1596  -10.7561   25.3645 C   0  0  0  0  0  0  0  0  0  0  0  0
    6.8371  -11.9008   25.7966 C   0  0  0  0  0  0  0  0  0  0  0  0
    6.1350  -13.0790   25.9093 C   0  0  0  0  0  0  0  0  0  0  0  0
    6.8078  -14.2042   26.3356 C   0  0  0  0  0  0  0  0  0  0  0  0
    8.1517  -14.1694   26.6460 C   0  0  0  0  0  0  0  0  0  0  0  0
    8.8162  -15.3931   27.0939 C   0  0  2  0  0  0  0  0  0  0  0  0
    9.5390  -16.1356   26.0036 N   0  0  0  0  0  0  0  0  0  0  0  0
    8.5855  -16.6833   25.0675 C   0  0  0  0  0  0  0  0  0  0  0  0
   10.4540  -17.1646   26.5072 O   0  0  0  0  0  0  0  0  0  0  0  0
   10.2335  -18.3637   26.2515 C   0  0  0  0  0  0  0  0  0  0  0  0
    8.8392  -12.9884   26.5291 C   0  0  0  0  0  0  0  0  0  0  0  0
    8.1917  -11.8450   26.1045 O   0  0  0  0  0  0  0  0  0  0  0  0
  2  4  1  0
  2  1  1  0
  3  2  2  0
  5  4  1  0
  6  5  1  0
  7  8  1  0
  7  6  1  0
  8  9  1  1
 10  8  1  0
 10 12  1  0
 11 10  2  0
 13 12  1  0
 14 15  2  0
 14 13  1  0
 16 17  1  0
 17 18  2  0
 18 19  1  0
 20 21  1  0
 20 19  2  0
 22 23  1  0
 22 21  1  6
 23 14  1  0
 24 22  1  0
 25 24  2  0
 26 20  1  0
 27 26  2  0
 27 17  1  0
 28 24  1  0
M  END
$$$$
