RGY.pdb
     RDKit          3D

 28 28  0  0  1  0  0  0  0  0999 V2000
    3.6499  -21.3805   21.1340 N   0  0  0  0  0  0  0  0  0  0  0  0
    4.7890  -22.0709   20.6061 C   0  0  0  0  0  0  0  0  0  0  0  0
    4.6313  -23.0635   19.8143 N   0  0  0  0  0  0  0  0  0  0  0  0
    6.0749  -21.6031   21.0013 N   0  0  0  0  0  0  0  0  0  0  0  0
    6.1652  -20.8752   22.2599 C   0  0  0  0  0  0  0  0  0  0  0  0
    5.3020  -19.6458   22.1461 C   0  0  0  0  0  0  0  0  0  0  0  0
    6.0195  -18.3736   22.3898 C   0  0  0  0  0  0  0  0  0  0  0  0
    6.6350  -17.7032   21.2149 C   0  0  2  0  0  0  0  0  0  0  0  0
    7.5723  -18.5796   20.5516 N   0  0  0  0  0  0  0  0  0  0  0  0
    7.2981  -16.4465   21.6587 C   0  0  0  0  0  0  0  0  0  0  0  0
    6.5615  -15.5677   22.1778 O   0  0  0  0  0  0  0  0  0  0  0  0
    5.4554  -23.5546   19.4094 N   0  0  0  0  0  0  0  0  0  0  0  0
    8.6892  -16.2297   21.5131 C   0  0  0  0  0  0  0  0  0  0  0  0
    9.2412  -14.9828   21.8920 C   0  0  0  0  0  0  0  0  0  0  0  0
    9.5462  -14.8291   23.3127 O   0  0  0  0  0  0  0  0  0  0  0  0
   10.1524  -13.8475   23.8141 O   0  0  0  0  0  0  0  0  0  0  0  0
    5.7325  -10.7487   26.6005 C   0  0  0  0  0  0  0  0  0  0  0  0
    6.3027  -12.0237   26.5282 C   0  0  0  0  0  0  0  0  0  0  0  0
    7.4635  -12.2671   27.2261 C   0  0  0  0  0  0  0  0  0  0  0  0
    8.0212  -13.5255   27.1513 C   0  0  0  0  0  0  0  0  0  0  0  0
    7.4443  -14.5290   26.4004 C   0  0  0  0  0  0  0  0  0  0  0  0
    8.0785  -15.8463   26.3558 C   0  0  2  0  0  0  0  0  0  0  0  0
    9.3771  -15.8790   25.5974 N   0  0  0  0  0  0  0  0  0  0  0  0
    9.1161  -15.8812   24.1771 C   0  0  0  0  0  0  0  0  0  0  0  0
   10.2519  -16.9890   25.9876 O   0  0  0  0  0  0  0  0  0  0  0  0
   10.6006  -17.8277   25.1351 C   0  0  0  0  0  0  0  0  0  0  0  0
    6.2874  -14.2727   25.7097 C   0  0  0  0  0  0  0  0  0  0  0  0
    5.7059  -13.0214   25.7659 O   0  0  0  0  0  0  0  0  0  0  0  0
  2  4  1  0
  2  1  1  0
  3  2  2  0
  5  4  1  0
  6  5  1  0
  7  8  1  0
  7  6  1  0
  8  9  1  1
 10  8  1  0
 10 12  1  0
 11 10  2  0
 13 12  1  0
 14 15  2  0
 14 13  1  0
 16 17  1  0
 17 18  2  0
 18 19  1  0
 20 21  1  0
 20 19  2  0
 22 23  1  0
 22 21  1  6
 23 14  1  0
 24 22  1  0
 25 24  2  0
 26 20  1  0
 27 26  2  0
 27 17  1  0
 28 24  1  0
M  END
$$$$
