RGY.pdb
     RDKit          3D

 28 28  0  0  1  0  0  0  0  0999 V2000
    7.4094  -12.5905   15.4468 N   0  0  0  0  0  0  0  0  0  0  0  0
    8.3875  -13.6014   15.1739 C   0  0  0  0  0  0  0  0  0  0  0  0
    9.0332  -13.5923   14.0693 N   0  0  0  0  0  0  0  0  0  0  0  0
    8.5964  -14.5926   16.1751 N   0  0  0  0  0  0  0  0  0  0  0  0
    7.5311  -14.7977   17.1473 C   0  0  0  0  0  0  0  0  0  0  0  0
    7.9550  -14.1527   18.4410 C   0  0  0  0  0  0  0  0  0  0  0  0
    7.7992  -15.0182   19.6323 C   0  0  0  0  0  0  0  0  0  0  0  0
    9.0041  -15.2432   20.4727 C   0  0  2  0  0  0  0  0  0  0  0  0
    9.8527  -16.2612   19.8981 N   0  0  0  0  0  0  0  0  0  0  0  0
    8.5793  -15.6143   21.8503 C   0  0  0  0  0  0  0  0  0  0  0  0
    7.8643  -14.7829   22.4682 O   0  0  0  0  0  0  0  0  0  0  0  0
    9.7042  -14.3552   13.8414 N   0  0  0  0  0  0  0  0  0  0  0  0
    8.9505  -16.8389   22.4554 C   0  0  0  0  0  0  0  0  0  0  0  0
    8.5383  -17.1113   23.7815 C   0  0  0  0  0  0  0  0  0  0  0  0
    9.4500  -16.6673   24.8335 O   0  0  0  0  0  0  0  0  0  0  0  0
   10.6598  -16.3715   24.6566 O   0  0  0  0  0  0  0  0  0  0  0  0
    6.2852  -10.9963   25.3218 C   0  0  0  0  0  0  0  0  0  0  0  0
    6.9242  -12.0271   26.0184 C   0  0  0  0  0  0  0  0  0  0  0  0
    6.2047  -13.1591   26.3264 C   0  0  0  0  0  0  0  0  0  0  0  0
    6.8395  -14.1719   27.0130 C   0  0  0  0  0  0  0  0  0  0  0  0
    8.1627  -14.0714   27.3906 C   0  0  0  0  0  0  0  0  0  0  0  0
    8.7869  -15.1763   28.1181 C   0  0  2  0  0  0  0  0  0  0  0  0
    9.6637  -16.0552   27.2687 N   0  0  0  0  0  0  0  0  0  0  0  0
    8.9077  -16.5691   26.1509 C   0  0  0  0  0  0  0  0  0  0  0  0
   10.3136  -17.1320   28.0222 O   0  0  0  0  0  0  0  0  0  0  0  0
   10.0038  -18.3170   27.7949 C   0  0  0  0  0  0  0  0  0  0  0  0
    8.8679  -12.9376   27.0771 C   0  0  0  0  0  0  0  0  0  0  0  0
    8.2584  -11.9065   26.3899 O   0  0  0  0  0  0  0  0  0  0  0  0
  2  4  1  0
  2  1  1  0
  3  2  2  0
  5  4  1  0
  6  5  1  0
  7  8  1  0
  7  6  1  0
  8  9  1  6
 10  8  1  0
 10 12  1  0
 11 10  2  0
 13 12  1  0
 14 15  2  0
 14 13  1  0
 16 17  1  0
 17 18  2  0
 18 19  1  0
 20 21  1  0
 20 19  2  0
 22 23  1  0
 22 21  1  6
 23 14  1  0
 24 22  1  0
 25 24  2  0
 26 20  1  0
 27 26  2  0
 27 17  1  0
 28 24  1  0
M  END
$$$$
