RGY.pdb
     RDKit          3D

 28 28  0  0  1  0  0  0  0  0999 V2000
    7.6208  -12.1343   20.3391 N   0  0  0  0  0  0  0  0  0  0  0  0
    7.5205  -13.2241   19.4142 C   0  0  0  0  0  0  0  0  0  0  0  0
    6.4686  -13.3690   18.7003 N   0  0  0  0  0  0  0  0  0  0  0  0
    8.6287  -14.1152   19.3351 N   0  0  0  0  0  0  0  0  0  0  0  0
    8.9024  -14.9487   20.4981 C   0  0  0  0  0  0  0  0  0  0  0  0
    8.6370  -16.3808   20.1136 C   0  0  0  0  0  0  0  0  0  0  0  0
    8.9782  -17.3665   21.1646 C   0  0  0  0  0  0  0  0  0  0  0  0
    7.8542  -18.1071   21.7943 C   0  0  2  0  0  0  0  0  0  0  0  0
    6.5898  -17.4707   21.5063 N   0  0  0  0  0  0  0  0  0  0  0  0
    8.0869  -18.1973   23.2618 C   0  0  0  0  0  0  0  0  0  0  0  0
    9.0973  -18.8465   23.6384 O   0  0  0  0  0  0  0  0  0  0  0  0
    6.4278  -14.0990   17.9589 N   0  0  0  0  0  0  0  0  0  0  0  0
    7.2254  -17.5893   24.2060 C   0  0  0  0  0  0  0  0  0  0  0  0
    7.4970  -17.7330   25.5875 C   0  0  0  0  0  0  0  0  0  0  0  0
    8.7290  -17.1059   26.0608 O   0  0  0  0  0  0  0  0  0  0  0  0
    9.8116  -17.0782   25.4208 O   0  0  0  0  0  0  0  0  0  0  0  0
    6.1994  -11.8726   24.4465 C   0  0  0  0  0  0  0  0  0  0  0  0
    6.9875  -12.4961   25.4192 C   0  0  0  0  0  0  0  0  0  0  0  0
    8.1751  -13.0747   25.0337 C   0  0  0  0  0  0  0  0  0  0  0  0
    8.9479  -13.6878   25.9966 C   0  0  0  0  0  0  0  0  0  0  0  0
    8.5570  -13.7303   27.3190 C   0  0  0  0  0  0  0  0  0  0  0  0
    9.4155  -14.3944   28.2997 C   0  0  2  0  0  0  0  0  0  0  0  0
    9.8085  -15.7970   27.9242 N   0  0  0  0  0  0  0  0  0  0  0  0
    8.6783  -16.4851   27.3458 C   0  0  0  0  0  0  0  0  0  0  0  0
   10.3924  -16.5555   29.0348 O   0  0  0  0  0  0  0  0  0  0  0  0
    9.7919  -17.5499   29.4847 C   0  0  0  0  0  0  0  0  0  0  0  0
    7.3710  -13.1496   27.6894 C   0  0  0  0  0  0  0  0  0  0  0  0
    6.5759  -12.5282   26.7467 O   0  0  0  0  0  0  0  0  0  0  0  0
  2  4  1  0
  2  1  1  0
  3  2  2  0
  5  4  1  0
  6  5  1  0
  7  8  1  0
  7  6  1  0
  8  9  1  1
 10  8  1  0
 10 12  1  0
 11 10  2  0
 13 12  1  0
 14 15  2  0
 14 13  1  0
 16 17  1  0
 17 18  2  0
 18 19  1  0
 20 21  1  0
 20 19  2  0
 22 23  1  0
 22 21  1  6
 23 14  1  0
 24 22  1  0
 25 24  2  0
 26 20  1  0
 27 26  2  0
 27 17  1  0
 28 24  1  0
M  END
$$$$
