CCT.pdb
     RDKit          3D

 20 19  0  0  1  0  0  0  0  0999 V2000
   19.9609  -11.6715  -17.8532 N   0  0  0  0  0  0  0  0  0  0  0  0
   21.0040  -10.6652  -17.8353 C   0  0  1  0  0  0  0  0  0  0  0  0
   21.3824  -10.2664  -19.2480 C   0  0  0  0  0  0  0  0  0  0  0  0
   22.3719  -11.6483  -19.9236 S   0  0  0  0  0  0  0  0  0  0  0  0
   20.6125   -9.4899  -17.0130 C   0  0  0  0  0  0  0  0  0  0  0  0
   19.4314   -9.0622  -17.0524 O   0  0  0  0  0  0  0  0  0  0  0  0
   21.5307   -8.8033  -16.1588 N   0  0  0  0  0  0  0  0  0  0  0  0
   21.1060   -7.6313  -15.4183 C   0  0  1  0  0  0  0  0  0  0  0  0
   21.6948   -7.6579  -14.0086 C   0  0  0  0  0  0  0  0  0  0  0  0
   21.2409   -6.1679  -13.0809 S   0  0  0  0  0  0  0  0  0  0  0  0
   21.5697   -6.3793  -16.0642 C   0  0  0  0  0  0  0  0  0  0  0  0
   22.7737   -6.2856  -16.4096 O   0  0  0  0  0  0  0  0  0  0  0  0
   20.6199   -4.8865  -19.3536 C   0  0  0  0  0  0  0  0  0  0  0  0
   20.4316   -3.8499  -18.3016 C   0  0  1  0  0  0  0  0  0  0  0  0
   19.0695   -3.7798  -17.9514 O   0  0  0  0  0  0  0  0  0  0  0  0
   21.1900   -4.1114  -17.0309 C   0  0  2  0  0  0  0  0  0  0  0  0
   20.7250   -5.2703  -16.3174 N   0  0  0  0  0  0  0  0  0  0  0  0
   21.1961   -2.9390  -16.1276 C   0  0  0  0  0  0  0  0  0  0  0  0
   20.5379   -2.9478  -15.0553 O   0  0  0  0  0  0  0  0  0  0  0  0
   21.9193   -1.7901  -16.4183 O   0  0  0  0  0  0  0  0  0  0  0  0
  2  3  1  0
  2  1  1  6
  4  3  1  0
  5  6  2  0
  5  2  1  0
  7  5  1  0
  8  7  1  0
  9 10  1  0
  8  9  1  1
 11  8  1  0
 11 12  2  0
 14 13  1  6
 14 15  1  0
 16 17  1  1
 16 14  1  0
 17 11  1  0
 18 16  1  0
 19 18  2  0
 20 18  1  0
M  END
$$$$
