CCT.pdb
     RDKit          3D

 20 19  0  0  1  0  0  0  0  0999 V2000
   20.6680  -14.9252  -16.4740 N   0  0  0  0  0  0  0  0  0  0  0  0
   20.7728  -13.7215  -17.2748 C   0  0  1  0  0  0  0  0  0  0  0  0
   19.4991  -13.4963  -18.0653 C   0  0  0  0  0  0  0  0  0  0  0  0
   19.3179  -14.9431  -19.1694 S   0  0  0  0  0  0  0  0  0  0  0  0
   21.1242  -12.5418  -16.4408 C   0  0  0  0  0  0  0  0  0  0  0  0
   20.4545  -12.2805  -15.4099 O   0  0  0  0  0  0  0  0  0  0  0  0
   22.2101  -11.6672  -16.7569 N   0  0  0  0  0  0  0  0  0  0  0  0
   22.5475  -10.5689  -15.8723 C   0  0  1  0  0  0  0  0  0  0  0  0
   24.0607  -10.3591  -15.8478 C   0  0  0  0  0  0  0  0  0  0  0  0
   24.8750  -11.5854  -14.7896 S   0  0  0  0  0  0  0  0  0  0  0  0
   21.9349   -9.2958  -16.3238 C   0  0  0  0  0  0  0  0  0  0  0  0
   22.1916   -8.8763  -17.4796 O   0  0  0  0  0  0  0  0  0  0  0  0
   18.3618   -8.7781  -16.8671 C   0  0  0  0  0  0  0  0  0  0  0  0
   18.8298   -7.6384  -16.0311 C   0  0  1  0  0  0  0  0  0  0  0  0
   18.4836   -7.8709  -14.6861 O   0  0  0  0  0  0  0  0  0  0  0  0
   20.3157   -7.4167  -16.0613 C   0  0  2  0  0  0  0  0  0  0  0  0
   21.0675   -8.5164  -15.5192 N   0  0  0  0  0  0  0  0  0  0  0  0
   20.7113   -6.1609  -15.3851 C   0  0  0  0  0  0  0  0  0  0  0  0
   20.4118   -5.0420  -15.8767 O   0  0  0  0  0  0  0  0  0  0  0  0
   21.4219   -6.1599  -14.1925 O   0  0  0  0  0  0  0  0  0  0  0  0
  2  3  1  0
  2  1  1  1
  4  3  1  0
  5  6  2  0
  5  2  1  0
  7  5  1  0
  8  7  1  0
  9 10  1  0
  8  9  1  6
 11  8  1  0
 11 12  2  0
 14 13  1  6
 14 15  1  0
 16 17  1  1
 16 14  1  0
 17 11  1  0
 18 16  1  0
 19 18  2  0
 20 18  1  0
M  END
$$$$
