CCT.pdb
     RDKit          3D

 20 19  0  0  1  0  0  0  0  0999 V2000
   14.8763  -12.0395  -13.4899 N   0  0  0  0  0  0  0  0  0  0  0  0
   16.2932  -11.7344  -13.4696 C   0  0  1  0  0  0  0  0  0  0  0  0
   16.9921  -12.3755  -14.6521 C   0  0  0  0  0  0  0  0  0  0  0  0
   17.0728  -14.1666  -14.2911 S   0  0  0  0  0  0  0  0  0  0  0  0
   16.5334  -10.2682  -13.4111 C   0  0  0  0  0  0  0  0  0  0  0  0
   15.7795   -9.4834  -14.0396 O   0  0  0  0  0  0  0  0  0  0  0  0
   17.6029   -9.6892  -12.6593 N   0  0  0  0  0  0  0  0  0  0  0  0
   17.7668   -8.2494  -12.6082 C   0  0  1  0  0  0  0  0  0  0  0  0
   17.0449   -7.6809  -11.3875 C   0  0  0  0  0  0  0  0  0  0  0  0
   17.3259   -8.7104   -9.9219 S   0  0  0  0  0  0  0  0  0  0  0  0
   19.1948   -7.8659  -12.4920 C   0  0  0  0  0  0  0  0  0  0  0  0
   19.8903   -8.3870  -11.5851 O   0  0  0  0  0  0  0  0  0  0  0  0
   21.9853   -8.6830  -14.6623 C   0  0  0  0  0  0  0  0  0  0  0  0
   21.9754   -7.2011  -14.5185 C   0  0  1  0  0  0  0  0  0  0  0  0
   21.3399   -6.6263  -15.6359 O   0  0  0  0  0  0  0  0  0  0  0  0
   21.2457   -6.7011  -13.3037 C   0  0  2  0  0  0  0  0  0  0  0  0
   19.8277   -6.9359  -13.3533 N   0  0  0  0  0  0  0  0  0  0  0  0
   21.5049   -5.2676  -13.0418 C   0  0  0  0  0  0  0  0  0  0  0  0
   20.5898   -4.4134  -13.1681 O   0  0  0  0  0  0  0  0  0  0  0  0
   22.7540   -4.8056  -12.6496 O   0  0  0  0  0  0  0  0  0  0  0  0
  2  3  1  0
  2  1  1  6
  4  3  1  0
  5  6  2  0
  5  2  1  0
  7  5  1  0
  8  7  1  0
  9 10  1  0
  8  9  1  1
 11  8  1  0
 11 12  2  0
 14 13  1  6
 14 15  1  0
 16 17  1  6
 16 14  1  0
 17 11  1  0
 18 16  1  0
 19 18  2  0
 20 18  1  0
M  END
$$$$
