CCT.pdb
     RDKit          3D

 20 19  0  0  1  0  0  0  0  0999 V2000
   21.7883  -13.1175  -18.3531 N   0  0  0  0  0  0  0  0  0  0  0  0
   22.0192  -11.7099  -18.6105 C   0  0  1  0  0  0  0  0  0  0  0  0
   21.5276  -11.3348  -19.9945 C   0  0  0  0  0  0  0  0  0  0  0  0
   22.6193  -12.2010  -21.1789 S   0  0  0  0  0  0  0  0  0  0  0  0
   21.4110  -10.8567  -17.5555 C   0  0  0  0  0  0  0  0  0  0  0  0
   20.2985  -11.1683  -17.0607 O   0  0  0  0  0  0  0  0  0  0  0  0
   22.0397   -9.6714  -17.0617 N   0  0  0  0  0  0  0  0  0  0  0  0
   21.4143   -8.8945  -16.0092 C   0  0  1  0  0  0  0  0  0  0  0  0
   21.7444   -9.4965  -14.6442 C   0  0  0  0  0  0  0  0  0  0  0  0
   21.1696   -8.4251  -13.2994 S   0  0  0  0  0  0  0  0  0  0  0  0
   21.9017   -7.4938  -16.0008 C   0  0  0  0  0  0  0  0  0  0  0  0
   23.1393   -7.2831  -15.9597 O   0  0  0  0  0  0  0  0  0  0  0  0
   21.1669   -2.6643  -16.8469 C   0  0  0  0  0  0  0  0  0  0  0  0
   20.6249   -4.0460  -16.7292 C   0  0  1  0  0  0  0  0  0  0  0  0
   20.3479   -4.5516  -18.0140 O   0  0  0  0  0  0  0  0  0  0  0  0
   21.5584   -5.0242  -16.0736 C   0  0  2  0  0  0  0  0  0  0  0  0
   21.0439   -6.3667  -16.0368 N   0  0  0  0  0  0  0  0  0  0  0  0
   21.9486   -4.6023  -14.7095 C   0  0  0  0  0  0  0  0  0  0  0  0
   21.1977   -4.8277  -13.7254 O   0  0  0  0  0  0  0  0  0  0  0  0
   23.1459   -3.9466  -14.4567 O   0  0  0  0  0  0  0  0  0  0  0  0
  2  3  1  0
  2  1  1  1
  4  3  1  0
  5  6  2  0
  5  2  1  0
  7  5  1  0
  8  7  1  0
  9 10  1  0
  8  9  1  1
 11  8  1  0
 11 12  2  0
 14 13  1  6
 14 15  1  0
 16 17  1  1
 16 14  1  0
 17 11  1  0
 18 16  1  0
 19 18  2  0
 20 18  1  0
M  END
$$$$
