CCT.pdb
     RDKit          3D

 20 19  0  0  1  0  0  0  0  0999 V2000
   14.2126  -10.4611  -13.0546 N   0  0  0  0  0  0  0  0  0  0  0  0
   15.5329  -10.0418  -12.6278 C   0  0  1  0  0  0  0  0  0  0  0  0
   16.4392  -11.2431  -12.4454 C   0  0  0  0  0  0  0  0  0  0  0  0
   16.1524  -11.8485  -10.7435 S   0  0  0  0  0  0  0  0  0  0  0  0
   16.1158   -9.0438  -13.5631 C   0  0  0  0  0  0  0  0  0  0  0  0
   15.9648   -9.1830  -14.8031 O   0  0  0  0  0  0  0  0  0  0  0  0
   16.8574   -7.9060  -13.1163 N   0  0  0  0  0  0  0  0  0  0  0  0
   17.4510   -6.9955  -14.0760 C   0  0  1  0  0  0  0  0  0  0  0  0
   16.6823   -5.6751  -14.0935 C   0  0  0  0  0  0  0  0  0  0  0  0
   14.9386   -5.9379  -14.5145 S   0  0  0  0  0  0  0  0  0  0  0  0
   18.8585   -6.6795  -13.7312 C   0  0  0  0  0  0  0  0  0  0  0  0
   19.1720   -6.5519  -12.5215 O   0  0  0  0  0  0  0  0  0  0  0  0
   23.6480   -6.9307  -14.7831 C   0  0  0  0  0  0  0  0  0  0  0  0
   22.2290   -7.0117  -15.2264 C   0  0  1  0  0  0  0  0  0  0  0  0
   21.8326   -8.3617  -15.2838 O   0  0  0  0  0  0  0  0  0  0  0  0
   21.2552   -6.3152  -14.3182 C   0  0  2  0  0  0  0  0  0  0  0  0
   19.8817   -6.5114  -14.6966 N   0  0  0  0  0  0  0  0  0  0  0  0
   21.5366   -4.8672  -14.1957 C   0  0  0  0  0  0  0  0  0  0  0  0
   21.0219   -4.0407  -14.9926 O   0  0  0  0  0  0  0  0  0  0  0  0
   22.3709   -4.3610  -13.2082 O   0  0  0  0  0  0  0  0  0  0  0  0
  2  3  1  0
  2  1  1  6
  4  3  1  0
  5  6  2  0
  5  2  1  0
  7  5  1  0
  8  7  1  0
  9 10  1  0
  8  9  1  1
 11  8  1  0
 11 12  2  0
 14 13  1  1
 14 15  1  0
 16 17  1  6
 16 14  1  0
 17 11  1  0
 18 16  1  0
 19 18  2  0
 20 18  1  0
M  END
$$$$
