CCT.pdb
     RDKit          3D

 20 19  0  0  1  0  0  0  0  0999 V2000
   17.8200  -12.9465  -15.3790 N   0  0  0  0  0  0  0  0  0  0  0  0
   17.9261  -11.7455  -16.1837 C   0  0  1  0  0  0  0  0  0  0  0  0
   16.6366  -11.4973  -16.9410 C   0  0  0  0  0  0  0  0  0  0  0  0
   16.7023  -12.5601  -18.4280 S   0  0  0  0  0  0  0  0  0  0  0  0
   18.3208  -10.5719  -15.3605 C   0  0  0  0  0  0  0  0  0  0  0  0
   17.7490  -10.3548  -14.2626 O   0  0  0  0  0  0  0  0  0  0  0  0
   19.3416   -9.6545  -15.7612 N   0  0  0  0  0  0  0  0  0  0  0  0
   19.6354   -8.4869  -14.9531 C   0  0  1  0  0  0  0  0  0  0  0  0
   21.1438   -8.3548  -14.7487 C   0  0  0  0  0  0  0  0  0  0  0  0
   21.5532   -6.8287  -13.8598 S   0  0  0  0  0  0  0  0  0  0  0  0
   19.1699   -7.2393  -15.6062 C   0  0  0  0  0  0  0  0  0  0  0  0
   19.5959   -6.9612  -16.7546 O   0  0  0  0  0  0  0  0  0  0  0  0
   15.9134   -3.5247  -15.9508 C   0  0  0  0  0  0  0  0  0  0  0  0
   16.5560   -4.5669  -15.1037 C   0  0  1  0  0  0  0  0  0  0  0  0
   15.6635   -5.6414  -14.9252 O   0  0  0  0  0  0  0  0  0  0  0  0
   17.8164   -5.1455  -15.6824 C   0  0  2  0  0  0  0  0  0  0  0  0
   18.2628   -6.3326  -15.0042 N   0  0  0  0  0  0  0  0  0  0  0  0
   18.9172   -4.1574  -15.7345 C   0  0  0  0  0  0  0  0  0  0  0  0
   19.7497   -4.0695  -14.7952 O   0  0  0  0  0  0  0  0  0  0  0  0
   19.0794   -3.2930  -16.8087 O   0  0  0  0  0  0  0  0  0  0  0  0
  2  3  1  0
  2  1  1  1
  4  3  1  0
  5  6  2  0
  5  2  1  0
  7  5  1  0
  8  7  1  0
  9 10  1  0
  8  9  1  6
 11  8  1  0
 11 12  2  0
 14 13  1  6
 14 15  1  0
 16 17  1  1
 16 14  1  0
 17 11  1  0
 18 16  1  0
 19 18  2  0
 20 18  1  0
M  END
$$$$
