CCT.pdb
     RDKit          3D

 20 19  0  0  1  0  0  0  0  0999 V2000
   21.9173  -13.7342  -19.6131 N   0  0  0  0  0  0  0  0  0  0  0  0
   22.3912  -12.3645  -19.5942 C   0  0  1  0  0  0  0  0  0  0  0  0
   21.7699  -11.5713  -20.7267 C   0  0  0  0  0  0  0  0  0  0  0  0
   22.7760  -11.9241  -22.2127 S   0  0  0  0  0  0  0  0  0  0  0  0
   22.1541  -11.7247  -18.2732 C   0  0  0  0  0  0  0  0  0  0  0  0
   21.1169  -12.0009  -17.6194 O   0  0  0  0  0  0  0  0  0  0  0  0
   23.0657  -10.7888  -17.6924 N   0  0  0  0  0  0  0  0  0  0  0  0
   22.7966  -10.2175  -16.3872 C   0  0  1  0  0  0  0  0  0  0  0  0
   24.0997  -10.0513  -15.6069 C   0  0  0  0  0  0  0  0  0  0  0  0
   24.6889  -11.6428  -14.9692 S   0  0  0  0  0  0  0  0  0  0  0  0
   22.1756   -8.8749  -16.4960 C   0  0  0  0  0  0  0  0  0  0  0  0
   22.7398   -8.0017  -17.2009 O   0  0  0  0  0  0  0  0  0  0  0  0
   18.5434   -8.1144  -17.6597 C   0  0  0  0  0  0  0  0  0  0  0  0
   18.8506   -7.3977  -16.3913 C   0  0  1  0  0  0  0  0  0  0  0  0
   18.2868   -8.0995  -15.3084 O   0  0  0  0  0  0  0  0  0  0  0  0
   20.3178   -7.2589  -16.0975 C   0  0  2  0  0  0  0  0  0  0  0  0
   20.9701   -8.5154  -15.8442 N   0  0  0  0  0  0  0  0  0  0  0  0
   20.5821   -6.3257  -14.9795 C   0  0  0  0  0  0  0  0  0  0  0  0
   20.3117   -5.1013  -15.0841 O   0  0  0  0  0  0  0  0  0  0  0  0
   21.1335   -6.7531  -13.7792 O   0  0  0  0  0  0  0  0  0  0  0  0
  2  3  1  0
  2  1  1  1
  4  3  1  0
  5  6  2  0
  5  2  1  0
  7  5  1  0
  8  7  1  0
  9 10  1  0
  8  9  1  1
 11  8  1  0
 11 12  2  0
 14 13  1  6
 14 15  1  0
 16 17  1  1
 16 14  1  0
 17 11  1  0
 18 16  1  0
 19 18  2  0
 20 18  1  0
M  END
$$$$
