CCT.pdb
     RDKit          3D

 20 19  0  0  1  0  0  0  0  0999 V2000
   16.7205  -14.0870  -15.8032 N   0  0  0  0  0  0  0  0  0  0  0  0
   15.8852  -12.9090  -15.6787 C   0  0  1  0  0  0  0  0  0  0  0  0
   14.6044  -13.2412  -14.9390 C   0  0  0  0  0  0  0  0  0  0  0  0
   13.4492  -13.9114  -16.1885 S   0  0  0  0  0  0  0  0  0  0  0  0
   16.6200  -11.7858  -15.0391 C   0  0  0  0  0  0  0  0  0  0  0  0
   17.4431  -12.0182  -14.1182 O   0  0  0  0  0  0  0  0  0  0  0  0
   16.4357  -10.4216  -15.4252 N   0  0  0  0  0  0  0  0  0  0  0  0
   17.2425   -9.3756  -14.8274 C   0  0  1  0  0  0  0  0  0  0  0  0
   18.6848   -9.4767  -15.3215 C   0  0  0  0  0  0  0  0  0  0  0  0
   19.6968   -8.1205  -14.6707 S   0  0  0  0  0  0  0  0  0  0  0  0
   16.7466   -8.0265  -15.1933 C   0  0  0  0  0  0  0  0  0  0  0  0
   16.7680   -7.6799  -16.4004 O   0  0  0  0  0  0  0  0  0  0  0  0
   13.2513   -6.4385  -14.2024 C   0  0  0  0  0  0  0  0  0  0  0  0
   14.3878   -5.5201  -13.9168 C   0  0  1  0  0  0  0  0  0  0  0  0
   14.6993   -5.5729  -12.5445 O   0  0  0  0  0  0  0  0  0  0  0  0
   15.6525   -5.8497  -14.6584 C   0  0  2  0  0  0  0  0  0  0  0  0
   16.2445   -7.0954  -14.2509 N   0  0  0  0  0  0  0  0  0  0  0  0
   16.6572   -4.7667  -14.5670 C   0  0  0  0  0  0  0  0  0  0  0  0
   17.7742   -4.9677  -14.0238 O   0  0  0  0  0  0  0  0  0  0  0  0
   16.4162   -3.4954  -15.0700 O   0  0  0  0  0  0  0  0  0  0  0  0
  2  3  1  0
  2  1  1  1
  4  3  1  0
  5  6  2  0
  5  2  1  0
  7  5  1  0
  8  7  1  0
  9 10  1  0
  8  9  1  6
 11  8  1  0
 11 12  2  0
 14 13  1  1
 14 15  1  0
 16 17  1  1
 16 14  1  0
 17 11  1  0
 18 16  1  0
 19 18  2  0
 20 18  1  0
M  END
$$$$
