CCT.pdb
     RDKit          3D

 20 19  0  0  1  0  0  0  0  0999 V2000
   17.0630  -13.7553  -15.3691 N   0  0  0  0  0  0  0  0  0  0  0  0
   17.4893  -12.6783  -16.2405 C   0  0  1  0  0  0  0  0  0  0  0  0
   16.4146  -12.3641  -17.2624 C   0  0  0  0  0  0  0  0  0  0  0  0
   16.6105  -13.5893  -18.6062 S   0  0  0  0  0  0  0  0  0  0  0  0
   17.8853  -11.4739  -15.4637 C   0  0  0  0  0  0  0  0  0  0  0  0
   17.2170  -11.1292  -14.4567 O   0  0  0  0  0  0  0  0  0  0  0  0
   19.0138  -10.6671  -15.8096 N   0  0  0  0  0  0  0  0  0  0  0  0
   19.3092   -9.4611  -15.0608 C   0  0  1  0  0  0  0  0  0  0  0  0
   20.7845   -9.4363  -14.6643 C   0  0  0  0  0  0  0  0  0  0  0  0
   21.1806   -7.9488  -13.7065 S   0  0  0  0  0  0  0  0  0  0  0  0
   19.0499   -8.2417  -15.8644 C   0  0  0  0  0  0  0  0  0  0  0  0
   19.5601   -8.1503  -17.0086 O   0  0  0  0  0  0  0  0  0  0  0  0
   15.6172   -6.7697  -16.9343 C   0  0  0  0  0  0  0  0  0  0  0  0
   16.4636   -5.7251  -16.2946 C   0  0  1  0  0  0  0  0  0  0  0  0
   16.0612   -5.5509  -14.9565 O   0  0  0  0  0  0  0  0  0  0  0  0
   17.9307   -6.0488  -16.2645 C   0  0  2  0  0  0  0  0  0  0  0  0
   18.2518   -7.1619  -15.4124 N   0  0  0  0  0  0  0  0  0  0  0  0
   18.7575   -4.8795  -15.8902 C   0  0  0  0  0  0  0  0  0  0  0  0
   19.4309   -4.8799  -14.8273 O   0  0  0  0  0  0  0  0  0  0  0  0
   18.8269   -3.7432  -16.6846 O   0  0  0  0  0  0  0  0  0  0  0  0
  2  3  1  0
  2  1  1  1
  4  3  1  0
  5  6  2  0
  5  2  1  0
  7  5  1  0
  8  7  1  0
  9 10  1  0
  8  9  1  6
 11  8  1  0
 11 12  2  0
 14 13  1  1
 14 15  1  0
 16 17  1  1
 16 14  1  0
 17 11  1  0
 18 16  1  0
 19 18  2  0
 20 18  1  0
M  END
$$$$
