CCT.pdb
     RDKit          3D

 20 19  0  0  1  0  0  0  0  0999 V2000
   15.0990  -12.9938  -12.3259 N   0  0  0  0  0  0  0  0  0  0  0  0
   14.4061  -11.9636  -11.5778 C   0  0  1  0  0  0  0  0  0  0  0  0
   13.5343  -12.5823  -10.5031 C   0  0  0  0  0  0  0  0  0  0  0  0
   12.3787  -13.7080  -11.3649 S   0  0  0  0  0  0  0  0  0  0  0  0
   15.3558  -10.9669  -11.0163 C   0  0  0  0  0  0  0  0  0  0  0  0
   16.5636  -11.2737  -10.8531 O   0  0  0  0  0  0  0  0  0  0  0  0
   14.9586   -9.6452  -10.6428 N   0  0  0  0  0  0  0  0  0  0  0  0
   15.9520   -8.6661  -10.2468 C   0  0  1  0  0  0  0  0  0  0  0  0
   16.9688   -8.4649  -11.3693 C   0  0  0  0  0  0  0  0  0  0  0  0
   18.1331   -7.1344  -10.9679 S   0  0  0  0  0  0  0  0  0  0  0  0
   15.3370   -7.3452   -9.9695 C   0  0  0  0  0  0  0  0  0  0  0  0
   14.6337   -6.8054  -10.8593 O   0  0  0  0  0  0  0  0  0  0  0  0
   13.6877   -4.0613   -6.6455 C   0  0  0  0  0  0  0  0  0  0  0  0
   14.4779   -5.2782   -6.9793 C   0  0  1  0  0  0  0  0  0  0  0  0
   13.7782   -6.4230   -6.5517 O   0  0  0  0  0  0  0  0  0  0  0  0
   14.7455   -5.4602   -8.4468 C   0  0  2  0  0  0  0  0  0  0  0  0
   15.4980   -6.6486   -8.7463 N   0  0  0  0  0  0  0  0  0  0  0  0
   15.4123   -4.2832   -9.0475 C   0  0  0  0  0  0  0  0  0  0  0  0
   16.6623   -4.1512   -8.9897 O   0  0  0  0  0  0  0  0  0  0  0  0
   14.6982   -3.2836   -9.6941 O   0  0  0  0  0  0  0  0  0  0  0  0
  2  3  1  0
  2  1  1  1
  4  3  1  0
  5  6  2  0
  5  2  1  0
  7  5  1  0
  8  7  1  0
  9 10  1  0
  8  9  1  6
 11  8  1  0
 11 12  2  0
 14 13  1  6
 14 15  1  0
 16 17  1  1
 16 14  1  0
 17 11  1  0
 18 16  1  0
 19 18  2  0
 20 18  1  0
M  END
$$$$
