CCT.pdb
     RDKit          3D

 20 19  0  0  1  0  0  0  0  0999 V2000
   15.2349  -11.3032  -13.1370 N   0  0  0  0  0  0  0  0  0  0  0  0
   16.6212  -10.9503  -13.3707 C   0  0  1  0  0  0  0  0  0  0  0  0
   17.0255  -11.2949  -14.7905 C   0  0  0  0  0  0  0  0  0  0  0  0
   17.2419  -13.1104  -14.8361 S   0  0  0  0  0  0  0  0  0  0  0  0
   16.8805   -9.5216  -13.0511 C   0  0  0  0  0  0  0  0  0  0  0  0
   16.2145   -8.6205  -13.6203 O   0  0  0  0  0  0  0  0  0  0  0  0
   17.8717   -9.1078  -12.1074 N   0  0  0  0  0  0  0  0  0  0  0  0
   18.1214   -7.6980  -11.8780 C   0  0  1  0  0  0  0  0  0  0  0  0
   18.2901   -7.4302  -10.3832 C   0  0  0  0  0  0  0  0  0  0  0  0
   16.8339   -7.9761   -9.4514 S   0  0  0  0  0  0  0  0  0  0  0  0
   19.3655   -7.2474  -12.5479 C   0  0  0  0  0  0  0  0  0  0  0  0
   20.3912   -7.9681  -12.4694 O   0  0  0  0  0  0  0  0  0  0  0  0
   21.6548   -4.4105  -15.9149 C   0  0  0  0  0  0  0  0  0  0  0  0
   20.4237   -4.7945  -15.1708 C   0  0  1  0  0  0  0  0  0  0  0  0
   19.5627   -5.5084  -16.0263 O   0  0  0  0  0  0  0  0  0  0  0  0
   20.6699   -5.6728  -13.9766 C   0  0  2  0  0  0  0  0  0  0  0  0
   19.4662   -6.0382  -13.2795 N   0  0  0  0  0  0  0  0  0  0  0  0
   21.6340   -5.0739  -13.0266 C   0  0  0  0  0  0  0  0  0  0  0  0
   22.8729   -5.1463  -13.2338 O   0  0  0  0  0  0  0  0  0  0  0  0
   21.2207   -4.4132  -11.8777 O   0  0  0  0  0  0  0  0  0  0  0  0
  2  3  1  0
  2  1  1  6
  4  3  1  0
  5  6  2  0
  5  2  1  0
  7  5  1  0
  8  7  1  0
  9 10  1  0
  8  9  1  1
 11  8  1  0
 11 12  2  0
 14 13  1  6
 14 15  1  0
 16 17  1  1
 16 14  1  0
 17 11  1  0
 18 16  1  0
 19 18  2  0
 20 18  1  0
M  END
$$$$
