DGT.pdb
     RDKit          3D

 20 19  0  0  1  0  0  0  0  0999 V2000
   15.9508  -14.4637   18.8405 N   0  0  0  0  0  0  0  0  0  0  0  0
   15.6621  -14.7902   17.4624 C   0  0  1  0  0  0  0  0  0  0  0  0
   16.2506  -16.1182   17.0419 C   0  0  0  0  0  0  0  0  0  0  0  0
   17.7186  -15.9447   16.8779 C   0  0  0  0  0  0  0  0  0  0  0  0
   18.3048  -16.0761   15.7593 O   0  0  0  0  0  0  0  0  0  0  0  0
   14.1853  -14.8563   17.3102 C   0  0  0  0  0  0  0  0  0  0  0  0
   13.6395  -15.0482   16.1683 O   0  0  0  0  0  0  0  0  0  0  0  0
   18.4326  -15.6250   18.0406 O   0  0  0  0  0  0  0  0  0  0  0  0
   13.3347  -14.7036   18.4441 N   0  0  0  0  0  0  0  0  0  0  0  0
   11.9067  -14.8239   18.2815 C   0  0  0  0  0  0  0  0  0  0  0  0
   11.1739  -14.5832   19.5454 C   0  0  0  0  0  0  0  0  0  0  0  0
   11.8597  -14.5690   20.6323 O   0  0  0  0  0  0  0  0  0  0  0  0
    7.7743  -12.2734   19.7253 C   0  0  0  0  0  0  0  0  0  0  0  0
    7.6748  -13.5958   20.4960 C   0  0  1  0  0  0  0  0  0  0  0  0
    6.9417  -14.5225   19.7673 O   0  0  0  0  0  0  0  0  0  0  0  0
    9.0869  -14.0485   20.7791 C   0  0  2  0  0  0  0  0  0  0  0  0
    9.7856  -14.3728   19.5534 N   0  0  0  0  0  0  0  0  0  0  0  0
    9.1175  -15.2097   21.7012 C   0  0  0  0  0  0  0  0  0  0  0  0
    9.6585  -16.3015   21.3869 O   0  0  0  0  0  0  0  0  0  0  0  0
    8.5394  -15.1196   22.9575 O   0  0  0  0  0  0  0  0  0  0  0  0
  2  1  1  1
  2  3  1  0
  4  5  2  0
  4  3  1  0
  6  7  2  0
  6  2  1  0
  8  4  1  0
  9  6  1  0
 10  9  1  0
 11 10  1  0
 12 11  2  0
 14 13  1  6
 14 16  1  0
 15 14  1  0
 16 18  1  0
 16 17  1  6
 17 11  1  0
 18 20  1  0
 19 18  2  0
M  END
$$$$
