DGT.pdb
     RDKit          3D

 20 19  0  0  1  0  0  0  0  0999 V2000
   11.1339  -17.7014   18.3485 N   0  0  0  0  0  0  0  0  0  0  0  0
   10.2858  -16.5521   18.1273 C   0  0  1  0  0  0  0  0  0  0  0  0
    8.9008  -16.9318   17.6537 C   0  0  0  0  0  0  0  0  0  0  0  0
    8.4691  -18.1418   18.4031 C   0  0  0  0  0  0  0  0  0  0  0  0
    9.1946  -18.6996   19.2833 O   0  0  0  0  0  0  0  0  0  0  0  0
   10.1631  -15.8223   19.4159 C   0  0  0  0  0  0  0  0  0  0  0  0
    9.8811  -14.5742   19.4524 O   0  0  0  0  0  0  0  0  0  0  0  0
    7.2006  -18.6431   18.0811 O   0  0  0  0  0  0  0  0  0  0  0  0
   10.3609  -16.5027   20.6531 N   0  0  0  0  0  0  0  0  0  0  0  0
   10.2390  -15.7735   21.8915 C   0  0  0  0  0  0  0  0  0  0  0  0
   10.4819  -16.6295   23.0751 C   0  0  0  0  0  0  0  0  0  0  0  0
   10.6223  -17.8910   22.8729 O   0  0  0  0  0  0  0  0  0  0  0  0
   11.5389  -17.0425   27.8563 C   0  0  0  0  0  0  0  0  0  0  0  0
   11.1142  -16.0791   26.7409 C   0  0  1  0  0  0  0  0  0  0  0  0
   12.0945  -15.1172   26.5381 O   0  0  0  0  0  0  0  0  0  0  0  0
   10.8435  -16.9165   25.5143 C   0  0  2  0  0  0  0  0  0  0  0  0
   10.5616  -16.0819   24.3656 N   0  0  0  0  0  0  0  0  0  0  0  0
    9.7276  -17.8685   25.7341 C   0  0  0  0  0  0  0  0  0  0  0  0
    8.5400  -17.5931   25.4222 O   0  0  0  0  0  0  0  0  0  0  0  0
    9.9698  -19.1102   26.2997 O   0  0  0  0  0  0  0  0  0  0  0  0
  2  1  1  1
  2  3  1  0
  4  5  2  0
  4  3  1  0
  6  7  2  0
  6  2  1  0
  8  4  1  0
  9  6  1  0
 10  9  1  0
 11 10  1  0
 12 11  2  0
 14 13  1  1
 14 16  1  0
 15 14  1  0
 16 18  1  0
 16 17  1  6
 17 11  1  0
 18 20  1  0
 19 18  2  0
M  END
$$$$
