DGT.pdb
     RDKit          3D

 20 19  0  0  1  0  0  0  0  0999 V2000
    8.1980  -18.1304   20.3687 N   0  0  0  0  0  0  0  0  0  0  0  0
    9.3332  -17.2594   20.1648 C   0  0  1  0  0  0  0  0  0  0  0  0
    9.5751  -16.9484   18.7048 C   0  0  0  0  0  0  0  0  0  0  0  0
   10.3209  -18.0868   18.1048 C   0  0  0  0  0  0  0  0  0  0  0  0
   10.6181  -19.1339   18.7586 O   0  0  0  0  0  0  0  0  0  0  0  0
    9.0649  -15.9863   20.8828 C   0  0  0  0  0  0  0  0  0  0  0  0
    9.9635  -15.0820   20.9976 O   0  0  0  0  0  0  0  0  0  0  0  0
   10.6854  -17.9408   16.7595 O   0  0  0  0  0  0  0  0  0  0  0  0
    7.7878  -15.7423   21.4677 N   0  0  0  0  0  0  0  0  0  0  0  0
    7.5665  -14.5231   22.2058 C   0  0  0  0  0  0  0  0  0  0  0  0
    7.5411  -14.7476   23.6692 C   0  0  0  0  0  0  0  0  0  0  0  0
    6.4312  -14.5326   24.2806 O   0  0  0  0  0  0  0  0  0  0  0  0
    6.4065  -16.7888   24.8752 C   0  0  0  0  0  0  0  0  0  0  0  0
    7.7840  -17.1874   25.4193 C   0  0  1  0  0  0  0  0  0  0  0  0
    8.3988  -18.0863   24.5583 O   0  0  0  0  0  0  0  0  0  0  0  0
    8.5708  -15.9124   25.6047 C   0  0  2  0  0  0  0  0  0  0  0  0
    8.6838  -15.1841   24.3588 N   0  0  0  0  0  0  0  0  0  0  0  0
    9.9202  -16.1752   26.1613 C   0  0  0  0  0  0  0  0  0  0  0  0
   10.9694  -15.9892   25.4921 O   0  0  0  0  0  0  0  0  0  0  0  0
   10.0621  -16.6414   27.4586 O   0  0  0  0  0  0  0  0  0  0  0  0
  2  1  1  6
  2  3  1  0
  4  5  2  0
  4  3  1  0
  6  7  2  0
  6  2  1  0
  8  4  1  0
  9  6  1  0
 10  9  1  0
 11 10  1  0
 12 11  2  0
 14 13  1  6
 14 16  1  0
 15 14  1  0
 16 18  1  0
 16 17  1  6
 17 11  1  0
 18 20  1  0
 19 18  2  0
M  END
$$$$
