DGT.pdb
     RDKit          3D

 20 19  0  0  1  0  0  0  0  0999 V2000
    9.2024  -18.2056   20.9162 N   0  0  0  0  0  0  0  0  0  0  0  0
   10.5544  -17.8886   21.3168 C   0  0  1  0  0  0  0  0  0  0  0  0
   11.3352  -17.1850   20.2296 C   0  0  0  0  0  0  0  0  0  0  0  0
   11.5340  -18.1409   19.1076 C   0  0  0  0  0  0  0  0  0  0  0  0
   11.1765  -19.3577   19.1706 O   0  0  0  0  0  0  0  0  0  0  0  0
   10.4802  -16.9948   22.5017 C   0  0  0  0  0  0  0  0  0  0  0  0
   11.5172  -16.3934   22.9506 O   0  0  0  0  0  0  0  0  0  0  0  0
   12.1472  -17.6211   17.9597 O   0  0  0  0  0  0  0  0  0  0  0  0
    9.2397  -16.7868   23.1731 N   0  0  0  0  0  0  0  0  0  0  0  0
    9.1606  -15.8102   24.2314 C   0  0  0  0  0  0  0  0  0  0  0  0
    9.8803  -16.2424   25.4512 C   0  0  0  0  0  0  0  0  0  0  0  0
   10.6987  -17.2267   25.3366 O   0  0  0  0  0  0  0  0  0  0  0  0
   10.9212  -13.4233   28.0738 C   0  0  0  0  0  0  0  0  0  0  0  0
   10.4886  -14.7021   28.8017 C   0  0  1  0  0  0  0  0  0  0  0  0
    9.2188  -14.5424   29.3396 O   0  0  0  0  0  0  0  0  0  0  0  0
   10.5698  -15.8286   27.7999 C   0  0  2  0  0  0  0  0  0  0  0  0
    9.6798  -15.5970   26.6820 N   0  0  0  0  0  0  0  0  0  0  0  0
   10.2691  -17.1407   28.4227 C   0  0  0  0  0  0  0  0  0  0  0  0
    9.2816  -17.8381   28.0734 O   0  0  0  0  0  0  0  0  0  0  0  0
   11.0845  -17.6417   29.4249 O   0  0  0  0  0  0  0  0  0  0  0  0
  2  1  1  6
  2  3  1  0
  4  5  2  0
  4  3  1  0
  6  7  2  0
  6  2  1  0
  8  4  1  0
  9  6  1  0
 10  9  1  0
 11 10  1  0
 12 11  2  0
 14 13  1  6
 14 16  1  0
 15 14  1  0
 16 18  1  0
 16 17  1  6
 17 11  1  0
 18 20  1  0
 19 18  2  0
M  END
$$$$
