DGT.pdb
     RDKit          3D

 20 19  0  0  1  0  0  0  0  0999 V2000
   10.0993  -18.1297   21.2559 N   0  0  0  0  0  0  0  0  0  0  0  0
   10.1551  -16.8774   20.5365 C   0  0  1  0  0  0  0  0  0  0  0  0
    9.7632  -17.0217   19.0831 C   0  0  0  0  0  0  0  0  0  0  0  0
   10.8939  -17.6604   18.3582 C   0  0  0  0  0  0  0  0  0  0  0  0
   11.8849  -17.0019   17.9149 O   0  0  0  0  0  0  0  0  0  0  0  0
    9.2116  -15.9341   21.1909 C   0  0  0  0  0  0  0  0  0  0  0  0
    9.1428  -14.7057   20.8376 O   0  0  0  0  0  0  0  0  0  0  0  0
   10.8068  -19.0485   18.1859 O   0  0  0  0  0  0  0  0  0  0  0  0
    8.3546  -16.3806   22.2391 N   0  0  0  0  0  0  0  0  0  0  0  0
    7.4538  -15.4451   22.8664 C   0  0  0  0  0  0  0  0  0  0  0  0
    8.0504  -14.8029   24.0598 C   0  0  0  0  0  0  0  0  0  0  0  0
    9.3270  -14.8722   24.1918 O   0  0  0  0  0  0  0  0  0  0  0  0
    6.6794  -11.3199   25.9623 C   0  0  0  0  0  0  0  0  0  0  0  0
    6.8378  -12.5749   26.8297 C   0  0  1  0  0  0  0  0  0  0  0  0
    5.6067  -13.1890   27.0153 O   0  0  0  0  0  0  0  0  0  0  0  0
    7.8447  -13.4634   26.1399 C   0  0  2  0  0  0  0  0  0  0  0  0
    7.2519  -14.1397   25.0055 N   0  0  0  0  0  0  0  0  0  0  0  0
    8.4304  -14.4573   27.0720 C   0  0  0  0  0  0  0  0  0  0  0  0
    8.3098  -15.6970   26.8928 O   0  0  0  0  0  0  0  0  0  0  0  0
    9.1395  -14.0372   28.1861 O   0  0  0  0  0  0  0  0  0  0  0  0
  2  1  1  1
  2  3  1  0
  4  5  2  0
  4  3  1  0
  6  7  2  0
  6  2  1  0
  8  4  1  0
  9  6  1  0
 10  9  1  0
 11 10  1  0
 12 11  2  0
 14 13  1  6
 14 16  1  0
 15 14  1  0
 16 18  1  0
 16 17  1  6
 17 11  1  0
 18 20  1  0
 19 18  2  0
M  END
$$$$
