DGT.pdb
     RDKit          3D

 20 19  0  0  1  0  0  0  0  0999 V2000
   10.4946  -16.2460   20.1896 N   0  0  0  0  0  0  0  0  0  0  0  0
    9.4010  -17.1880   20.1139 C   0  0  1  0  0  0  0  0  0  0  0  0
    9.8127  -18.5918   20.4969 C   0  0  0  0  0  0  0  0  0  0  0  0
   11.1590  -18.5259   21.1256 C   0  0  0  0  0  0  0  0  0  0  0  0
   12.1368  -17.9161   20.5924 O   0  0  0  0  0  0  0  0  0  0  0  0
    8.3418  -16.7320   21.0512 C   0  0  0  0  0  0  0  0  0  0  0  0
    7.1194  -17.0790   20.8975 O   0  0  0  0  0  0  0  0  0  0  0  0
   11.2948  -19.1833   22.3558 O   0  0  0  0  0  0  0  0  0  0  0  0
    8.6669  -15.8873   22.1528 N   0  0  0  0  0  0  0  0  0  0  0  0
    7.6284  -15.4847   23.0691 C   0  0  0  0  0  0  0  0  0  0  0  0
    8.1476  -14.6516   24.1777 C   0  0  0  0  0  0  0  0  0  0  0  0
    9.4040  -14.3807   24.1746 O   0  0  0  0  0  0  0  0  0  0  0  0
    6.5358  -11.3032   25.6055 C   0  0  0  0  0  0  0  0  0  0  0  0
    6.7243  -12.3533   26.7075 C   0  0  1  0  0  0  0  0  0  0  0  0
    5.5188  -12.9855   26.9798 O   0  0  0  0  0  0  0  0  0  0  0  0
    7.7972  -13.3032   26.2325 C   0  0  2  0  0  0  0  0  0  0  0  0
    7.2982  -14.1723   25.1879 N   0  0  0  0  0  0  0  0  0  0  0  0
    8.3456  -14.1144   27.3465 C   0  0  0  0  0  0  0  0  0  0  0  0
    8.2441  -15.3683   27.3761 O   0  0  0  0  0  0  0  0  0  0  0  0
    8.9966  -13.4994   28.4040 O   0  0  0  0  0  0  0  0  0  0  0  0
  2  1  1  1
  2  3  1  0
  4  5  2  0
  4  3  1  0
  6  7  2  0
  6  2  1  0
  8  4  1  0
  9  6  1  0
 10  9  1  0
 11 10  1  0
 12 11  2  0
 14 13  1  6
 14 16  1  0
 15 14  1  0
 16 18  1  0
 16 17  1  6
 17 11  1  0
 18 20  1  0
 19 18  2  0
M  END
$$$$
