DGT.pdb
     RDKit          3D

 20 19  0  0  1  0  0  0  0  0999 V2000
   10.3192  -17.4146   20.6937 N   0  0  0  0  0  0  0  0  0  0  0  0
    9.2371  -17.1115   19.7847 C   0  0  1  0  0  0  0  0  0  0  0  0
    8.5442  -18.3524   19.2682 C   0  0  0  0  0  0  0  0  0  0  0  0
    9.5204  -19.1249   18.4545 C   0  0  0  0  0  0  0  0  0  0  0  0
   10.4427  -18.5711   17.7800 O   0  0  0  0  0  0  0  0  0  0  0  0
    8.2443  -16.2844   20.5186 C   0  0  0  0  0  0  0  0  0  0  0  0
    7.0585  -16.1094   20.0696 O   0  0  0  0  0  0  0  0  0  0  0  0
    9.3662  -20.5178   18.4700 O   0  0  0  0  0  0  0  0  0  0  0  0
    8.5950  -15.6593   21.7510 N   0  0  0  0  0  0  0  0  0  0  0  0
    7.5752  -14.9963   22.5260 C   0  0  0  0  0  0  0  0  0  0  0  0
    8.1033  -14.4391   23.7921 C   0  0  0  0  0  0  0  0  0  0  0  0
    9.3800  -14.4085   23.9368 O   0  0  0  0  0  0  0  0  0  0  0  0
    6.4955  -11.2446   25.7786 C   0  0  0  0  0  0  0  0  0  0  0  0
    6.7073  -12.4830   26.6584 C   0  0  1  0  0  0  0  0  0  0  0  0
    5.5061  -13.1552   26.8387 O   0  0  0  0  0  0  0  0  0  0  0  0
    7.7628  -13.3267   25.9853 C   0  0  2  0  0  0  0  0  0  0  0  0
    7.2419  -13.9579   24.7912 N   0  0  0  0  0  0  0  0  0  0  0  0
    8.3120  -14.3548   26.9024 C   0  0  0  0  0  0  0  0  0  0  0  0
    8.1892  -15.5871   26.6790 O   0  0  0  0  0  0  0  0  0  0  0  0
    8.9879  -13.9765   28.0515 O   0  0  0  0  0  0  0  0  0  0  0  0
  2  1  1  1
  2  3  1  0
  4  5  2  0
  4  3  1  0
  6  7  2  0
  6  2  1  0
  8  4  1  0
  9  6  1  0
 10  9  1  0
 11 10  1  0
 12 11  2  0
 14 13  1  6
 14 16  1  0
 15 14  1  0
 16 18  1  0
 16 17  1  6
 17 11  1  0
 18 20  1  0
 19 18  2  0
M  END
$$$$
