DGT.pdb
     RDKit          3D

 20 19  0  0  1  0  0  0  0  0999 V2000
   10.4359  -18.3844   21.8219 N   0  0  0  0  0  0  0  0  0  0  0  0
   10.6601  -17.1095   21.1790 C   0  0  1  0  0  0  0  0  0  0  0  0
   10.5384  -17.1859   19.6736 C   0  0  0  0  0  0  0  0  0  0  0  0
   11.7540  -17.8586   19.1428 C   0  0  0  0  0  0  0  0  0  0  0  0
   12.8932  -17.7527   19.6935 O   0  0  0  0  0  0  0  0  0  0  0  0
    9.6404  -16.1567   21.6896 C   0  0  0  0  0  0  0  0  0  0  0  0
    9.6067  -14.9395   21.2949 O   0  0  0  0  0  0  0  0  0  0  0  0
   11.5742  -18.6263   17.9842 O   0  0  0  0  0  0  0  0  0  0  0  0
    8.6682  -16.5812   22.6422 N   0  0  0  0  0  0  0  0  0  0  0  0
    7.7025  -15.6332   23.1411 C   0  0  0  0  0  0  0  0  0  0  0  0
    8.1959  -14.8991   24.3287 C   0  0  0  0  0  0  0  0  0  0  0  0
    9.4344  -15.0441   24.6402 O   0  0  0  0  0  0  0  0  0  0  0  0
    6.6563  -11.2323   25.7544 C   0  0  0  0  0  0  0  0  0  0  0  0
    6.7846  -12.3894   26.7530 C   0  0  1  0  0  0  0  0  0  0  0  0
    5.5542  -13.0066   26.9335 O   0  0  0  0  0  0  0  0  0  0  0  0
    7.8416  -13.3224   26.2133 C   0  0  2  0  0  0  0  0  0  0  0  0
    7.3443  -14.0730   25.0797 N   0  0  0  0  0  0  0  0  0  0  0  0
    8.3389  -14.2518   27.2566 C   0  0  0  0  0  0  0  0  0  0  0  0
    8.9042  -13.8435   28.3041 O   0  0  0  0  0  0  0  0  0  0  0  0
    8.1905  -15.6209   27.1010 O   0  0  0  0  0  0  0  0  0  0  0  0
  2  1  1  1
  2  3  1  0
  4  5  2  0
  4  3  1  0
  6  7  2  0
  6  2  1  0
  8  4  1  0
  9  6  1  0
 10  9  1  0
 11 10  1  0
 12 11  2  0
 14 13  1  6
 14 16  1  0
 15 14  1  0
 16 18  1  0
 16 17  1  6
 17 11  1  0
 18 20  1  0
 19 18  2  0
M  END
$$$$
