DGT.pdb
     RDKit          3D

 20 19  0  0  1  0  0  0  0  0999 V2000
   10.5880  -16.2880   20.4874 N   0  0  0  0  0  0  0  0  0  0  0  0
    9.9456  -17.4805   20.9916 C   0  0  1  0  0  0  0  0  0  0  0  0
   10.8857  -18.3573   21.7880 C   0  0  0  0  0  0  0  0  0  0  0  0
   12.0430  -18.7051   20.9210 C   0  0  0  0  0  0  0  0  0  0  0  0
   13.2452  -18.6506   21.3259 O   0  0  0  0  0  0  0  0  0  0  0  0
    8.8288  -17.0567   21.8757 C   0  0  0  0  0  0  0  0  0  0  0  0
    8.0657  -17.9126   22.4446 O   0  0  0  0  0  0  0  0  0  0  0  0
   11.7329  -19.1010   19.6129 O   0  0  0  0  0  0  0  0  0  0  0  0
    8.5787  -15.6729   22.1104 N   0  0  0  0  0  0  0  0  0  0  0  0
    7.5318  -15.2860   23.0240 C   0  0  0  0  0  0  0  0  0  0  0  0
    8.0491  -14.5205   24.1812 C   0  0  0  0  0  0  0  0  0  0  0  0
    9.3236  -14.3856   24.2781 O   0  0  0  0  0  0  0  0  0  0  0  0
    6.5141  -11.0791   25.6125 C   0  0  0  0  0  0  0  0  0  0  0  0
    6.6365  -12.1644   26.6893 C   0  0  1  0  0  0  0  0  0  0  0  0
    5.4019  -12.7571   26.9164 O   0  0  0  0  0  0  0  0  0  0  0  0
    7.6840  -13.1418   26.2133 C   0  0  2  0  0  0  0  0  0  0  0  0
    7.1796  -13.9597   25.1305 N   0  0  0  0  0  0  0  0  0  0  0  0
    8.1708  -14.0062   27.3158 C   0  0  0  0  0  0  0  0  0  0  0  0
    8.0235  -15.2558   27.3032 O   0  0  0  0  0  0  0  0  0  0  0  0
    8.8130  -13.4480   28.4096 O   0  0  0  0  0  0  0  0  0  0  0  0
  2  1  1  1
  2  3  1  0
  4  5  2  0
  4  3  1  0
  6  7  2  0
  6  2  1  0
  8  4  1  0
  9  6  1  0
 10  9  1  0
 11 10  1  0
 12 11  2  0
 14 13  1  6
 14 16  1  0
 15 14  1  0
 16 18  1  0
 16 17  1  6
 17 11  1  0
 18 20  1  0
 19 18  2  0
M  END
$$$$
