PGD.pdb
     RDKit          3D

 20 20  0  0  1  0  0  0  0  0999 V2000
    7.8993  -14.2977   20.8124 N   0  0  0  0  0  0  0  0  0  0  0  0
    7.3772  -12.9366   20.9946 C   0  0  0  0  0  0  0  0  0  0  0  0
    8.2648  -12.0385   20.1638 C   0  0  0  0  0  0  0  0  0  0  0  0
    9.2875  -12.9814   19.5431 C   0  0  0  0  0  0  0  0  0  0  0  0
    8.4678  -14.2767   19.4960 C   0  0  1  0  0  0  0  0  0  0  0  0
    9.3702  -15.4044   19.2320 C   0  0  0  0  0  0  0  0  0  0  0  0
   10.0136  -15.4801   18.1794 O   0  0  0  0  0  0  0  0  0  0  0  0
    9.5421  -16.4635   20.1835 N   0  0  0  0  0  0  0  0  0  0  0  0
   10.3760  -17.5832   19.8967 C   0  0  0  0  0  0  0  0  0  0  0  0
   11.5237  -17.7237   20.8017 C   0  0  0  0  0  0  0  0  0  0  0  0
   12.1142  -18.8126   20.9721 O   0  0  0  0  0  0  0  0  0  0  0  0
   11.9857  -16.5865   21.5125 N   0  0  0  0  0  0  0  0  0  0  0  0
   13.1289  -16.6500   22.4391 C   0  0  1  0  0  0  0  0  0  0  0  0
   13.9433  -15.3892   22.2950 C   0  0  0  0  0  0  0  0  0  0  0  0
   15.2061  -15.5478   23.0428 C   0  0  0  0  0  0  0  0  0  0  0  0
   15.5275  -16.6136   23.6448 O   0  0  0  0  0  0  0  0  0  0  0  0
   12.6444  -16.8213   23.8289 C   0  0  0  0  0  0  0  0  0  0  0  0
   13.2788  -17.3591   24.7544 O   0  0  0  0  0  0  0  0  0  0  0  0
   16.0961  -14.4834   23.0977 O   0  0  0  0  0  0  0  0  0  0  0  0
   11.3615  -16.3457   24.1626 O   0  0  0  0  0  0  0  0  0  0  0  0
  1  2  1  0
  3  2  1  0
  4  3  1  0
  5  4  1  0
  5  1  1  0
  6  8  1  0
  5  6  1  1
  7  6  2  0
  9  8  1  0
 10  9  1  0
 10 11  2  0
 12 10  1  0
 13 12  1  0
 13 14  1  1
 14 15  1  0
 15 19  1  0
 15 16  2  0
 17 13  1  0
 18 17  2  0
 20 17  1  0
M  END
$$$$
