PGD.pdb
     RDKit          3D

 20 20  0  0  1  0  0  0  0  0999 V2000
    8.5292  -14.5250   19.4518 N   0  0  0  0  0  0  0  0  0  0  0  0
    8.7396  -13.2862   18.6907 C   0  0  0  0  0  0  0  0  0  0  0  0
    7.8504  -12.2482   19.3359 C   0  0  0  0  0  0  0  0  0  0  0  0
    7.1503  -12.9941   20.4646 C   0  0  0  0  0  0  0  0  0  0  0  0
    8.2005  -14.0688   20.7710 C   0  0  1  0  0  0  0  0  0  0  0  0
    7.5916  -15.1064   21.6125 C   0  0  0  0  0  0  0  0  0  0  0  0
    7.1444  -16.1499   21.1238 O   0  0  0  0  0  0  0  0  0  0  0  0
    7.4907  -14.9522   23.0347 N   0  0  0  0  0  0  0  0  0  0  0  0
    6.8653  -15.9473   23.8410 C   0  0  0  0  0  0  0  0  0  0  0  0
    7.8036  -16.8797   24.4785 C   0  0  0  0  0  0  0  0  0  0  0  0
    7.4207  -17.8631   25.1489 O   0  0  0  0  0  0  0  0  0  0  0  0
    9.1979  -16.6633   24.3329 N   0  0  0  0  0  0  0  0  0  0  0  0
   10.1990  -17.5236   24.9866 C   0  0  1  0  0  0  0  0  0  0  0  0
   11.5306  -17.3236   24.3078 C   0  0  0  0  0  0  0  0  0  0  0  0
   11.3471  -17.4514   22.8487 C   0  0  0  0  0  0  0  0  0  0  0  0
   11.1313  -18.5560   22.2701 O   0  0  0  0  0  0  0  0  0  0  0  0
   10.2776  -17.2006   26.4306 C   0  0  0  0  0  0  0  0  0  0  0  0
    9.7546  -16.2143   26.9801 O   0  0  0  0  0  0  0  0  0  0  0  0
   11.4119  -16.3116   22.0581 O   0  0  0  0  0  0  0  0  0  0  0  0
   10.9978  -18.0630   27.2796 O   0  0  0  0  0  0  0  0  0  0  0  0
  1  2  1  0
  3  2  1  0
  4  3  1  0
  5  4  1  0
  5  1  1  0
  6  8  1  0
  5  6  1  1
  7  6  2  0
  9  8  1  0
 10  9  1  0
 10 11  2  0
 12 10  1  0
 13 12  1  0
 13 14  1  6
 14 15  1  0
 15 19  1  0
 15 16  2  0
 17 13  1  0
 18 17  2  0
 20 17  1  0
M  END
$$$$
