PGD.pdb
     RDKit          3D

 20 20  0  0  1  0  0  0  0  0999 V2000
    8.0241  -13.3632   20.6319 N   0  0  0  0  0  0  0  0  0  0  0  0
    7.8274  -12.7928   19.2924 C   0  0  0  0  0  0  0  0  0  0  0  0
    8.3255  -13.8378   18.3205 C   0  0  0  0  0  0  0  0  0  0  0  0
    8.8060  -14.9820   19.2039 C   0  0  0  0  0  0  0  0  0  0  0  0
    7.9034  -14.7774   20.4267 C   0  0  1  0  0  0  0  0  0  0  0  0
    8.4232  -15.5756   21.5439 C   0  0  0  0  0  0  0  0  0  0  0  0
    8.3759  -16.8107   21.5283 O   0  0  0  0  0  0  0  0  0  0  0  0
    9.0068  -14.9561   22.6981 N   0  0  0  0  0  0  0  0  0  0  0  0
    9.5375  -15.7383   23.7649 C   0  0  0  0  0  0  0  0  0  0  0  0
   10.7294  -16.5157   23.4032 C   0  0  0  0  0  0  0  0  0  0  0  0
   10.6626  -17.6971   22.9990 O   0  0  0  0  0  0  0  0  0  0  0  0
   12.0078  -15.9112   23.5137 N   0  0  0  0  0  0  0  0  0  0  0  0
   13.2534  -16.6970   23.4887 C   0  0  1  0  0  0  0  0  0  0  0  0
   14.4206  -15.7548   23.3343 C   0  0  0  0  0  0  0  0  0  0  0  0
   14.6657  -15.5294   21.8962 C   0  0  0  0  0  0  0  0  0  0  0  0
   13.9111  -15.9776   20.9845 O   0  0  0  0  0  0  0  0  0  0  0  0
   13.3703  -17.4990   24.7292 C   0  0  0  0  0  0  0  0  0  0  0  0
   12.7676  -17.2746   25.7943 O   0  0  0  0  0  0  0  0  0  0  0  0
   15.7758  -14.7906   21.5086 O   0  0  0  0  0  0  0  0  0  0  0  0
   14.2278  -18.6161   24.7355 O   0  0  0  0  0  0  0  0  0  0  0  0
  1  2  1  0
  3  2  1  0
  4  3  1  0
  5  4  1  0
  5  1  1  0
  6  8  1  0
  5  6  1  1
  7  6  2  0
  9  8  1  0
 10  9  1  0
 10 11  2  0
 12 10  1  0
 13 12  1  0
 13 14  1  1
 14 15  1  0
 15 19  1  0
 15 16  2  0
 17 13  1  0
 18 17  2  0
 20 17  1  0
M  END
$$$$
