PGD.pdb
     RDKit          3D

 20 20  0  0  1  0  0  0  0  0999 V2000
    7.9596  -14.3265   19.4842 N   0  0  0  0  0  0  0  0  0  0  0  0
    6.6359  -14.0627   18.9040 C   0  0  0  0  0  0  0  0  0  0  0  0
    6.8572  -13.0323   17.8205 C   0  0  0  0  0  0  0  0  0  0  0  0
    8.3541  -12.7525   17.8601 C   0  0  0  0  0  0  0  0  0  0  0  0
    8.8660  -14.0945   18.3976 C   0  0  1  0  0  0  0  0  0  0  0  0
   10.2617  -13.9373   18.8252 C   0  0  0  0  0  0  0  0  0  0  0  0
   11.1914  -13.9726   18.0114 O   0  0  0  0  0  0  0  0  0  0  0  0
   10.6037  -13.7365   20.2034 N   0  0  0  0  0  0  0  0  0  0  0  0
   11.9534  -13.5113   20.6022 C   0  0  0  0  0  0  0  0  0  0  0  0
   12.8144  -14.6964   20.5011 C   0  0  0  0  0  0  0  0  0  0  0  0
   13.4979  -14.9442   19.4839 O   0  0  0  0  0  0  0  0  0  0  0  0
   12.8784  -15.5985   21.5939 N   0  0  0  0  0  0  0  0  0  0  0  0
   13.7678  -16.7726   21.5925 C   0  0  1  0  0  0  0  0  0  0  0  0
   14.5845  -16.7665   22.8600 C   0  0  0  0  0  0  0  0  0  0  0  0
   15.8069  -15.9697   22.6370 C   0  0  0  0  0  0  0  0  0  0  0  0
   16.0849  -15.4189   21.5320 O   0  0  0  0  0  0  0  0  0  0  0  0
   12.9667  -18.0136   21.4750 C   0  0  0  0  0  0  0  0  0  0  0  0
   11.7304  -18.0896   21.5930 O   0  0  0  0  0  0  0  0  0  0  0  0
   16.7066  -15.8071   23.6822 O   0  0  0  0  0  0  0  0  0  0  0  0
   13.6310  -19.2263   21.2077 O   0  0  0  0  0  0  0  0  0  0  0  0
  1  2  1  0
  3  2  1  0
  4  3  1  0
  5  4  1  0
  5  1  1  0
  6  8  1  0
  5  6  1  1
  7  6  2  0
  9  8  1  0
 10  9  1  0
 10 11  2  0
 12 10  1  0
 13 12  1  0
 13 14  1  1
 14 15  1  0
 15 19  1  0
 15 16  2  0
 17 13  1  0
 18 17  2  0
 20 17  1  0
M  END
$$$$
