PGD.pdb
     RDKit          3D

 20 20  0  0  1  0  0  0  0  0999 V2000
    8.0362  -16.1266   19.8218 N   0  0  0  0  0  0  0  0  0  0  0  0
    6.7539  -16.5112   19.2169 C   0  0  0  0  0  0  0  0  0  0  0  0
    5.6964  -16.1841   20.2461 C   0  0  0  0  0  0  0  0  0  0  0  0
    6.4754  -15.6207   21.4277 C   0  0  0  0  0  0  0  0  0  0  0  0
    7.6945  -15.0438   20.6977 C   0  0  1  0  0  0  0  0  0  0  0  0
    8.7401  -14.7370   21.6817 C   0  0  0  0  0  0  0  0  0  0  0  0
    8.5445  -13.9295   22.5969 O   0  0  0  0  0  0  0  0  0  0  0  0
   10.0300  -15.3606   21.6216 N   0  0  0  0  0  0  0  0  0  0  0  0
   11.0129  -15.1183   22.6251 C   0  0  0  0  0  0  0  0  0  0  0  0
   11.4157  -16.3166   23.3719 C   0  0  0  0  0  0  0  0  0  0  0  0
   10.7962  -17.3994   23.2874 O   0  0  0  0  0  0  0  0  0  0  0  0
   12.5486  -16.2513   24.2229 N   0  0  0  0  0  0  0  0  0  0  0  0
   13.0508  -17.4272   24.9542 C   0  0  1  0  0  0  0  0  0  0  0  0
   14.5129  -17.2221   25.2608 C   0  0  0  0  0  0  0  0  0  0  0  0
   15.2232  -16.8991   24.0078 C   0  0  0  0  0  0  0  0  0  0  0  0
   15.1375  -17.6031   22.9597 O   0  0  0  0  0  0  0  0  0  0  0  0
   12.2640  -17.6255   26.1940 C   0  0  0  0  0  0  0  0  0  0  0  0
   11.4261  -16.8286   26.6536 O   0  0  0  0  0  0  0  0  0  0  0  0
   16.0295  -15.7696   23.9611 O   0  0  0  0  0  0  0  0  0  0  0  0
   12.4577  -18.8054   26.9380 O   0  0  0  0  0  0  0  0  0  0  0  0
  1  2  1  0
  3  2  1  0
  4  3  1  0
  5  4  1  0
  5  1  1  0
  6  8  1  0
  5  6  1  1
  7  6  2  0
  9  8  1  0
 10  9  1  0
 10 11  2  0
 12 10  1  0
 13 12  1  0
 13 14  1  1
 14 15  1  0
 15 19  1  0
 15 16  2  0
 17 13  1  0
 18 17  2  0
 20 17  1  0
M  END
$$$$
