PGD.pdb
     RDKit          3D

 20 20  0  0  1  0  0  0  0  0999 V2000
    8.6376  -14.7016   18.1829 N   0  0  0  0  0  0  0  0  0  0  0  0
    7.1838  -14.6295   18.3820 C   0  0  0  0  0  0  0  0  0  0  0  0
    6.9636  -13.5772   19.4445 C   0  0  0  0  0  0  0  0  0  0  0  0
    8.3649  -13.1035   19.8085 C   0  0  0  0  0  0  0  0  0  0  0  0
    9.0946  -13.3770   18.4876 C   0  0  1  0  0  0  0  0  0  0  0  0
   10.5427  -13.2974   18.7158 C   0  0  0  0  0  0  0  0  0  0  0  0
   11.0805  -12.2428   19.0716 O   0  0  0  0  0  0  0  0  0  0  0  0
   11.3923  -14.4386   18.5356 N   0  0  0  0  0  0  0  0  0  0  0  0
   12.7960  -14.3562   18.7688 C   0  0  0  0  0  0  0  0  0  0  0  0
   13.2262  -14.9326   20.0489 C   0  0  0  0  0  0  0  0  0  0  0  0
   14.4284  -14.9926   20.3872 O   0  0  0  0  0  0  0  0  0  0  0  0
   12.2476  -15.4424   20.9401 N   0  0  0  0  0  0  0  0  0  0  0  0
   12.5961  -16.3165   22.0733 C   0  0  1  0  0  0  0  0  0  0  0  0
   11.4058  -16.4189   22.9934 C   0  0  0  0  0  0  0  0  0  0  0  0
   11.8857  -16.5333   24.3847 C   0  0  0  0  0  0  0  0  0  0  0  0
   13.1074  -16.6592   24.6897 O   0  0  0  0  0  0  0  0  0  0  0  0
   13.0071  -17.6502   21.5754 C   0  0  0  0  0  0  0  0  0  0  0  0
   13.9237  -18.3469   22.0473 O   0  0  0  0  0  0  0  0  0  0  0  0
   10.9626  -16.5027   25.4216 O   0  0  0  0  0  0  0  0  0  0  0  0
   12.3222  -18.2038   20.4764 O   0  0  0  0  0  0  0  0  0  0  0  0
  1  2  1  0
  3  2  1  0
  4  3  1  0
  5  4  1  0
  5  1  1  0
  6  8  1  0
  5  6  1  1
  7  6  2  0
  9  8  1  0
 10  9  1  0
 10 11  2  0
 12 10  1  0
 13 12  1  0
 13 14  1  1
 14 15  1  0
 15 19  1  0
 15 16  2  0
 17 13  1  0
 18 17  2  0
 20 17  1  0
M  END
$$$$
