PGD.pdb
     RDKit          3D

 20 20  0  0  1  0  0  0  0  0999 V2000
    7.3403  -14.6324   19.4413 N   0  0  0  0  0  0  0  0  0  0  0  0
    6.8083  -13.2689   19.3140 C   0  0  0  0  0  0  0  0  0  0  0  0
    7.7248  -12.3892   20.1330 C   0  0  0  0  0  0  0  0  0  0  0  0
    8.7585  -13.3478   20.7099 C   0  0  0  0  0  0  0  0  0  0  0  0
    8.7483  -14.4380   19.6313 C   0  0  1  0  0  0  0  0  0  0  0  0
    9.4373  -15.6274   20.1469 C   0  0  0  0  0  0  0  0  0  0  0  0
   10.6673  -15.6570   20.2657 O   0  0  0  0  0  0  0  0  0  0  0  0
    8.7126  -16.8029   20.5336 N   0  0  0  0  0  0  0  0  0  0  0  0
    9.3932  -17.9926   20.9246 C   0  0  0  0  0  0  0  0  0  0  0  0
    9.9259  -17.9569   22.2924 C   0  0  0  0  0  0  0  0  0  0  0  0
    9.6320  -18.8185   23.1495 O   0  0  0  0  0  0  0  0  0  0  0  0
   10.8072  -16.9091   22.6630 N   0  0  0  0  0  0  0  0  0  0  0  0
   11.3489  -16.7833   24.0269 C   0  0  1  0  0  0  0  0  0  0  0  0
   12.5026  -15.8126   24.0051 C   0  0  0  0  0  0  0  0  0  0  0  0
   13.6747  -16.4768   23.4019 C   0  0  0  0  0  0  0  0  0  0  0  0
   13.9763  -17.6863   23.6204 O   0  0  0  0  0  0  0  0  0  0  0  0
   10.2846  -16.3329   24.9542 C   0  0  0  0  0  0  0  0  0  0  0  0
   10.0332  -16.8351   26.0644 O   0  0  0  0  0  0  0  0  0  0  0  0
   14.4971  -15.7514   22.5500 O   0  0  0  0  0  0  0  0  0  0  0  0
    9.4714  -15.2470   24.5761 O   0  0  0  0  0  0  0  0  0  0  0  0
  1  2  1  0
  3  2  1  0
  4  3  1  0
  5  4  1  0
  5  1  1  0
  6  8  1  0
  5  6  1  1
  7  6  2  0
  9  8  1  0
 10  9  1  0
 10 11  2  0
 12 10  1  0
 13 12  1  0
 13 14  1  6
 14 15  1  0
 15 19  1  0
 15 16  2  0
 17 13  1  0
 18 17  2  0
 20 17  1  0
M  END
$$$$
