PGD.pdb
     RDKit          3D

 20 20  0  0  1  0  0  0  0  0999 V2000
    8.1593  -14.9888   18.9420 N   0  0  0  0  0  0  0  0  0  0  0  0
    8.3144  -14.0906   17.7899 C   0  0  0  0  0  0  0  0  0  0  0  0
    7.7922  -12.7457   18.2405 C   0  0  0  0  0  0  0  0  0  0  0  0
    7.3421  -12.9734   19.6779 C   0  0  0  0  0  0  0  0  0  0  0  0
    8.2794  -14.1199   20.0765 C   0  0  1  0  0  0  0  0  0  0  0  0
    7.7956  -14.7208   21.3256 C   0  0  0  0  0  0  0  0  0  0  0  0
    7.1822  -15.7939   21.3274 O   0  0  0  0  0  0  0  0  0  0  0  0
    8.0146  -14.0884   22.5939 N   0  0  0  0  0  0  0  0  0  0  0  0
    7.5059  -14.6566   23.7980 C   0  0  0  0  0  0  0  0  0  0  0  0
    8.5148  -15.3539   24.6053 C   0  0  0  0  0  0  0  0  0  0  0  0
    8.2715  -15.7924   25.7507 O   0  0  0  0  0  0  0  0  0  0  0  0
    9.8162  -15.5409   24.0730 N   0  0  0  0  0  0  0  0  0  0  0  0
   10.8321  -16.3636   24.7519 C   0  0  1  0  0  0  0  0  0  0  0  0
   10.2768  -17.7502   24.9591 C   0  0  0  0  0  0  0  0  0  0  0  0
   11.1398  -18.4727   25.9142 C   0  0  0  0  0  0  0  0  0  0  0  0
   12.1711  -17.9628   26.4414 O   0  0  0  0  0  0  0  0  0  0  0  0
   12.0758  -16.3972   23.9471 C   0  0  0  0  0  0  0  0  0  0  0  0
   13.1475  -15.8422   24.2495 O   0  0  0  0  0  0  0  0  0  0  0  0
   10.8168  -19.7778   26.2616 O   0  0  0  0  0  0  0  0  0  0  0  0
   12.0775  -17.1091   22.7319 O   0  0  0  0  0  0  0  0  0  0  0  0
  1  2  1  0
  3  2  1  0
  4  3  1  0
  5  4  1  0
  5  1  1  0
  6  8  1  0
  5  6  1  1
  7  6  2  0
  9  8  1  0
 10  9  1  0
 10 11  2  0
 12 10  1  0
 13 12  1  0
 13 14  1  6
 14 15  1  0
 15 19  1  0
 15 16  2  0
 17 13  1  0
 18 17  2  0
 20 17  1  0
M  END
$$$$
