PGD.pdb
     RDKit          3D

 20 20  0  0  1  0  0  0  0  0999 V2000
    8.0809  -14.7454   19.0729 N   0  0  0  0  0  0  0  0  0  0  0  0
    7.8666  -13.7002   18.0630 C   0  0  0  0  0  0  0  0  0  0  0  0
    7.2042  -12.5524   18.7898 C   0  0  0  0  0  0  0  0  0  0  0  0
    7.0656  -13.0396   20.2264 C   0  0  0  0  0  0  0  0  0  0  0  0
    8.2465  -14.0156   20.2961 C   0  0  1  0  0  0  0  0  0  0  0  0
    8.1076  -14.8494   21.4965 C   0  0  0  0  0  0  0  0  0  0  0  0
    7.5490  -15.9511   21.4529 O   0  0  0  0  0  0  0  0  0  0  0  0
    8.6138  -14.4205   22.7679 N   0  0  0  0  0  0  0  0  0  0  0  0
    8.5564  -15.2725   23.9091 C   0  0  0  0  0  0  0  0  0  0  0  0
    9.6506  -16.2486   23.9846 C   0  0  0  0  0  0  0  0  0  0  0  0
    9.4742  -17.4706   23.7875 O   0  0  0  0  0  0  0  0  0  0  0  0
   10.9593  -15.7962   24.2922 N   0  0  0  0  0  0  0  0  0  0  0  0
   12.1335  -16.6830   24.2243 C   0  0  1  0  0  0  0  0  0  0  0  0
   13.3588  -15.8485   23.9492 C   0  0  0  0  0  0  0  0  0  0  0  0
   14.5357  -16.7366   23.8777 C   0  0  0  0  0  0  0  0  0  0  0  0
   14.8672  -17.3674   22.8318 O   0  0  0  0  0  0  0  0  0  0  0  0
   12.2707  -17.4382   25.4918 C   0  0  0  0  0  0  0  0  0  0  0  0
   12.8741  -18.5177   25.6282 O   0  0  0  0  0  0  0  0  0  0  0  0
   15.3286  -16.8984   25.0062 O   0  0  0  0  0  0  0  0  0  0  0  0
   11.6795  -16.9165   26.6588 O   0  0  0  0  0  0  0  0  0  0  0  0
  1  2  1  0
  3  2  1  0
  4  3  1  0
  5  4  1  0
  5  1  1  0
  6  8  1  0
  5  6  1  1
  7  6  2  0
  9  8  1  0
 10  9  1  0
 10 11  2  0
 12 10  1  0
 13 12  1  0
 13 14  1  1
 14 15  1  0
 15 19  1  0
 15 16  2  0
 17 13  1  0
 18 17  2  0
 20 17  1  0
M  END
$$$$
