SLT.pdb
     RDKit          3D

 22 21  0  0  1  0  0  0  0  0999 V2000
   19.4158  -10.3435  -21.2455 O   0  0  0  0  0  0  0  0  0  0  0  0
   19.6651  -10.3986  -19.8849 C   0  0  0  0  0  0  0  0  0  0  0  0
   20.8928  -11.2325  -19.5854 C   0  0  2  0  0  0  0  0  0  0  0  0
   20.5905  -12.6423  -19.7485 N   0  0  0  0  0  0  0  0  0  0  0  0
   21.4415  -10.9358  -18.2399 C   0  0  0  0  0  0  0  0  0  0  0  0
   20.9692  -11.5322  -17.2573 O   0  0  0  0  0  0  0  0  0  0  0  0
   24.6780  -10.2348  -14.4340 C   0  0  0  0  0  0  0  0  0  0  0  0
   25.2328   -9.4470  -15.6057 C   0  0  1  0  0  0  0  0  0  0  0  0
   26.7140   -9.7461  -15.6793 C   0  0  0  0  0  0  0  0  0  0  0  0
   24.4912   -9.8899  -16.8224 C   0  0  0  0  0  0  0  0  0  0  0  0
   23.0247   -9.6130  -16.7974 C   0  0  2  0  0  0  0  0  0  0  0  0
   22.4755   -9.9952  -18.0993 N   0  0  0  0  0  0  0  0  0  0  0  0
   22.8682   -8.1188  -16.6969 C   0  0  0  0  0  0  0  0  0  0  0  0
   23.3112   -7.3591  -17.6091 O   0  0  0  0  0  0  0  0  0  0  0  0
   20.4324   -4.1963  -15.3994 C   0  0  0  0  0  0  0  0  0  0  0  0
   20.5546   -5.7061  -15.4591 C   0  0  1  0  0  0  0  0  0  0  0  0
   19.7781   -6.1428  -16.5129 O   0  0  0  0  0  0  0  0  0  0  0  0
   22.0132   -6.0663  -15.6050 C   0  0  2  0  0  0  0  0  0  0  0  0
   22.2321   -7.4887  -15.6033 N   0  0  0  0  0  0  0  0  0  0  0  0
   22.8583   -5.4419  -14.5767 C   0  0  0  0  0  0  0  0  0  0  0  0
   23.5887   -4.2873  -14.8253 O   0  0  0  0  0  0  0  0  0  0  0  0
   22.9228   -5.9674  -13.4380 O   0  0  0  0  0  0  0  0  0  0  0  0
  2  1  1  0
  3  2  1  0
  3  4  1  1
  5 12  1  0
  5  3  1  0
  6  5  2  0
  8  7  1  1
  8 10  1  0
  9  8  1  0
 11 10  1  6
 11 12  1  0
 13 11  1  0
 13 19  1  0
 14 13  2  0
 16 15  1  6
 17 16  1  0
 18 19  1  1
 18 16  1  0
 20 18  1  0
 21 20  1  0
 22 20  2  0
M  END
$$$$
