SLT.pdb
     RDKit          3D

 22 21  0  0  1  0  0  0  0  0999 V2000
   16.7539  -10.6723  -19.1809 O   0  0  0  0  0  0  0  0  0  0  0  0
   17.1417   -9.8713  -18.1205 C   0  0  0  0  0  0  0  0  0  0  0  0
   18.0948  -10.6035  -17.1997 C   0  0  2  0  0  0  0  0  0  0  0  0
   17.3995  -11.6753  -16.5117 N   0  0  0  0  0  0  0  0  0  0  0  0
   18.7608   -9.6773  -16.2519 C   0  0  0  0  0  0  0  0  0  0  0  0
   18.1269   -9.2808  -15.2593 O   0  0  0  0  0  0  0  0  0  0  0  0
   23.8893  -10.5720  -14.8111 C   0  0  0  0  0  0  0  0  0  0  0  0
   22.4417  -10.1488  -14.6478 C   0  0  1  0  0  0  0  0  0  0  0  0
   22.2264   -9.8641  -13.1777 C   0  0  0  0  0  0  0  0  0  0  0  0
   22.2368   -8.9463  -15.5070 C   0  0  0  0  0  0  0  0  0  0  0  0
   20.8344   -8.4365  -15.5466 C   0  0  2  0  0  0  0  0  0  0  0  0
   20.0833   -9.2675  -16.4891 N   0  0  0  0  0  0  0  0  0  0  0  0
   20.8917   -7.0594  -16.1528 C   0  0  0  0  0  0  0  0  0  0  0  0
   21.3879   -6.8796  -17.3046 O   0  0  0  0  0  0  0  0  0  0  0  0
   18.1383   -4.9606  -17.0970 C   0  0  0  0  0  0  0  0  0  0  0  0
   18.9940   -4.0515  -16.2372 C   0  0  1  0  0  0  0  0  0  0  0  0
   18.3751   -3.9407  -15.0089 O   0  0  0  0  0  0  0  0  0  0  0  0
   20.3836   -4.6350  -16.1532 C   0  0  2  0  0  0  0  0  0  0  0  0
   20.4061   -5.9108  -15.4876 N   0  0  0  0  0  0  0  0  0  0  0  0
   21.3419   -3.7291  -15.5030 C   0  0  0  0  0  0  0  0  0  0  0  0
   21.6800   -2.4986  -16.0505 O   0  0  0  0  0  0  0  0  0  0  0  0
   21.8719   -4.0773  -14.4191 O   0  0  0  0  0  0  0  0  0  0  0  0
  2  1  1  0
  3  2  1  0
  3  4  1  1
  5 12  1  0
  5  3  1  0
  6  5  2  0
  8  7  1  1
  8 10  1  0
  9  8  1  0
 11 10  1  6
 11 12  1  0
 13 11  1  0
 13 19  1  0
 14 13  2  0
 16 15  1  6
 17 16  1  0
 18 19  1  1
 18 16  1  0
 20 18  1  0
 21 20  1  0
 22 20  2  0
M  END
$$$$
