SLT.pdb
     RDKit          3D

 22 21  0  0  1  0  0  0  0  0999 V2000
   18.7158   -9.7220  -20.9719 O   0  0  0  0  0  0  0  0  0  0  0  0
   18.5994   -9.2574  -19.6731 C   0  0  0  0  0  0  0  0  0  0  0  0
   19.0265  -10.3111  -18.6732 C   0  0  2  0  0  0  0  0  0  0  0  0
   18.0929  -11.4218  -18.6891 N   0  0  0  0  0  0  0  0  0  0  0  0
   19.1873   -9.7421  -17.3131 C   0  0  0  0  0  0  0  0  0  0  0  0
   18.1734   -9.5593  -16.6183 O   0  0  0  0  0  0  0  0  0  0  0  0
   23.0092   -8.1251  -13.3535 C   0  0  0  0  0  0  0  0  0  0  0  0
   22.1700   -9.3809  -13.4946 C   0  0  1  0  0  0  0  0  0  0  0  0
   20.8944   -9.1515  -12.7142 C   0  0  0  0  0  0  0  0  0  0  0  0
   21.9283   -9.5854  -14.9527 C   0  0  0  0  0  0  0  0  0  0  0  0
   20.7068   -8.9128  -15.4854 C   0  0  2  0  0  0  0  0  0  0  0  0
   20.4697   -9.4223  -16.8371 N   0  0  0  0  0  0  0  0  0  0  0  0
   21.0484   -7.4544  -15.6393 C   0  0  0  0  0  0  0  0  0  0  0  0
   21.9703   -7.0853  -16.4261 O   0  0  0  0  0  0  0  0  0  0  0  0
   18.3410   -4.4978  -14.4330 C   0  0  0  0  0  0  0  0  0  0  0  0
   19.2986   -4.3333  -15.5966 C   0  0  1  0  0  0  0  0  0  0  0  0
   19.4673   -2.9798  -15.8056 O   0  0  0  0  0  0  0  0  0  0  0  0
   20.5858   -5.0496  -15.2668 C   0  0  2  0  0  0  0  0  0  0  0  0
   20.3757   -6.4331  -14.9307 N   0  0  0  0  0  0  0  0  0  0  0  0
   21.3399   -4.3950  -14.1878 C   0  0  0  0  0  0  0  0  0  0  0  0
   22.0582   -3.2250  -14.3962 O   0  0  0  0  0  0  0  0  0  0  0  0
   21.3356   -4.9084  -13.0417 O   0  0  0  0  0  0  0  0  0  0  0  0
  2  1  1  0
  3  2  1  0
  3  4  1  1
  5 12  1  0
  5  3  1  0
  6  5  2  0
  8  7  1  6
  8 10  1  0
  9  8  1  0
 11 10  1  6
 11 12  1  0
 13 11  1  0
 13 19  1  0
 14 13  2  0
 16 15  1  1
 17 16  1  0
 18 19  1  1
 18 16  1  0
 20 18  1  0
 21 20  1  0
 22 20  2  0
M  END
$$$$
