SLT.pdb
     RDKit          3D

 22 21  0  0  1  0  0  0  0  0999 V2000
   20.2519  -10.8567  -20.7023 O   0  0  0  0  0  0  0  0  0  0  0  0
   20.5393  -10.5074  -19.3939 C   0  0  0  0  0  0  0  0  0  0  0  0
   21.7701  -11.2313  -18.8905 C   0  0  2  0  0  0  0  0  0  0  0  0
   21.5257  -12.6611  -18.8482 N   0  0  0  0  0  0  0  0  0  0  0  0
   22.2151  -10.7064  -17.5767 C   0  0  0  0  0  0  0  0  0  0  0  0
   21.6736  -11.1399  -16.5457 O   0  0  0  0  0  0  0  0  0  0  0  0
   27.3568   -9.7580  -16.3276 C   0  0  0  0  0  0  0  0  0  0  0  0
   25.8988  -10.1307  -16.1369 C   0  0  1  0  0  0  0  0  0  0  0  0
   25.7712  -10.7268  -14.7522 C   0  0  0  0  0  0  0  0  0  0  0  0
   25.1010   -8.8812  -16.3055 C   0  0  0  0  0  0  0  0  0  0  0  0
   23.6211   -9.0740  -16.2747 C   0  0  2  0  0  0  0  0  0  0  0  0
   23.2311   -9.7379  -17.5196 N   0  0  0  0  0  0  0  0  0  0  0  0
   23.0050   -7.7008  -16.3191 C   0  0  0  0  0  0  0  0  0  0  0  0
   23.0531   -7.0039  -17.3761 O   0  0  0  0  0  0  0  0  0  0  0  0
   19.7624   -4.4246  -14.8145 C   0  0  0  0  0  0  0  0  0  0  0  0
   20.3931   -5.7835  -14.5823 C   0  0  1  0  0  0  0  0  0  0  0  0
   19.4875   -6.7369  -15.0005 O   0  0  0  0  0  0  0  0  0  0  0  0
   21.7043   -5.8402  -15.3280 C   0  0  2  0  0  0  0  0  0  0  0  0
   22.3508   -7.1204  -15.2087 N   0  0  0  0  0  0  0  0  0  0  0  0
   22.6384   -4.7822  -14.9161 C   0  0  0  0  0  0  0  0  0  0  0  0
   22.6984   -3.5579  -15.5685 O   0  0  0  0  0  0  0  0  0  0  0  0
   23.4064   -4.9904  -13.9445 O   0  0  0  0  0  0  0  0  0  0  0  0
  2  1  1  0
  3  2  1  0
  3  4  1  1
  5 12  1  0
  5  3  1  0
  6  5  2  0
  8  7  1  1
  8 10  1  0
  9  8  1  0
 11 10  1  6
 11 12  1  0
 13 11  1  0
 13 19  1  0
 14 13  2  0
 16 15  1  6
 17 16  1  0
 18 19  1  1
 18 16  1  0
 20 18  1  0
 21 20  1  0
 22 20  2  0
M  END
$$$$
