SLT.pdb
     RDKit          3D

 22 21  0  0  1  0  0  0  0  0999 V2000
   17.3269  -13.2803  -19.2380 O   0  0  0  0  0  0  0  0  0  0  0  0
   17.6743  -12.6197  -18.0720 C   0  0  0  0  0  0  0  0  0  0  0  0
   18.8649  -13.2748  -17.4043 C   0  0  2  0  0  0  0  0  0  0  0  0
   18.4761  -14.5494  -16.8299 N   0  0  0  0  0  0  0  0  0  0  0  0
   19.4888  -12.3813  -16.3984 C   0  0  0  0  0  0  0  0  0  0  0  0
   18.9972  -12.3300  -15.2582 O   0  0  0  0  0  0  0  0  0  0  0  0
   24.9445  -11.6637  -15.8521 C   0  0  0  0  0  0  0  0  0  0  0  0
   23.4960  -11.8013  -15.4228 C   0  0  1  0  0  0  0  0  0  0  0  0
   23.4673  -11.6812  -13.9150 C   0  0  0  0  0  0  0  0  0  0  0  0
   22.7315  -10.7167  -16.1051 C   0  0  0  0  0  0  0  0  0  0  0  0
   21.2684  -10.7008  -15.8101 C   0  0  2  0  0  0  0  0  0  0  0  0
   20.6136  -11.6153  -16.7470 N   0  0  0  0  0  0  0  0  0  0  0  0
   20.7729   -9.3210  -16.1532 C   0  0  0  0  0  0  0  0  0  0  0  0
   20.8751   -8.8717  -17.3334 O   0  0  0  0  0  0  0  0  0  0  0  0
   17.4430   -8.1453  -16.2526 C   0  0  0  0  0  0  0  0  0  0  0  0
   18.1278   -7.1276  -15.3619 C   0  0  1  0  0  0  0  0  0  0  0  0
   17.7720   -7.4118  -14.0593 O   0  0  0  0  0  0  0  0  0  0  0  0
   19.6163   -7.2010  -15.6020 C   0  0  2  0  0  0  0  0  0  0  0  0
   20.1775   -8.4638  -15.2001 N   0  0  0  0  0  0  0  0  0  0  0  0
   20.3520   -6.1099  -14.9463 C   0  0  0  0  0  0  0  0  0  0  0  0
   21.2526   -6.3443  -13.9156 O   0  0  0  0  0  0  0  0  0  0  0  0
   20.1615   -4.9291  -15.3288 O   0  0  0  0  0  0  0  0  0  0  0  0
  2  1  1  0
  3  2  1  0
  3  4  1  1
  5 12  1  0
  5  3  1  0
  6  5  2  0
  8  7  1  6
  8 10  1  0
  9  8  1  0
 11 10  1  6
 11 12  1  0
 13 11  1  0
 13 19  1  0
 14 13  2  0
 16 15  1  6
 17 16  1  0
 18 19  1  1
 18 16  1  0
 20 18  1  0
 21 20  1  0
 22 20  2  0
M  END
$$$$
