SLT.pdb
     RDKit          3D

 22 21  0  0  1  0  0  0  0  0999 V2000
   17.5074  -13.7574  -19.3511 O   0  0  0  0  0  0  0  0  0  0  0  0
   17.9290  -12.9869  -18.2810 C   0  0  0  0  0  0  0  0  0  0  0  0
   19.0656  -13.6560  -17.5374 C   0  0  2  0  0  0  0  0  0  0  0  0
   18.6342  -14.9402  -17.0173 N   0  0  0  0  0  0  0  0  0  0  0  0
   19.6121  -12.7819  -16.4712 C   0  0  0  0  0  0  0  0  0  0  0  0
   19.0236  -12.7341  -15.3778 O   0  0  0  0  0  0  0  0  0  0  0  0
   23.2082  -10.6422  -13.4639 C   0  0  0  0  0  0  0  0  0  0  0  0
   23.6101  -10.3609  -14.8994 C   0  0  1  0  0  0  0  0  0  0  0  0
   25.1062  -10.5666  -14.9892 C   0  0  0  0  0  0  0  0  0  0  0  0
   22.8426  -11.3052  -15.7628 C   0  0  0  0  0  0  0  0  0  0  0  0
   21.3602  -11.1382  -15.7100 C   0  0  2  0  0  0  0  0  0  0  0  0
   20.7741  -12.0301  -16.7119 N   0  0  0  0  0  0  0  0  0  0  0  0
   21.0662   -9.7355  -16.1717 C   0  0  0  0  0  0  0  0  0  0  0  0
   21.3892   -9.3568  -17.3368 O   0  0  0  0  0  0  0  0  0  0  0  0
   18.4407   -5.6366  -15.8992 C   0  0  0  0  0  0  0  0  0  0  0  0
   18.7155   -7.0228  -15.3504 C   0  0  1  0  0  0  0  0  0  0  0  0
   17.6613   -7.8316  -15.7226 O   0  0  0  0  0  0  0  0  0  0  0  0
   20.0463   -7.4968  -15.8822 C   0  0  2  0  0  0  0  0  0  0  0  0
   20.4267   -8.7790  -15.3509 N   0  0  0  0  0  0  0  0  0  0  0  0
   21.1292   -6.5308  -15.6464 C   0  0  0  0  0  0  0  0  0  0  0  0
   21.5311   -5.6234  -16.6177 O   0  0  0  0  0  0  0  0  0  0  0  0
   21.7097   -6.5245  -14.5328 O   0  0  0  0  0  0  0  0  0  0  0  0
  2  1  1  0
  3  2  1  0
  3  4  1  1
  5 12  1  0
  5  3  1  0
  6  5  2  0
  8  7  1  1
  8 10  1  0
  9  8  1  0
 11 10  1  6
 11 12  1  0
 13 11  1  0
 13 19  1  0
 14 13  2  0
 16 15  1  6
 17 16  1  0
 18 19  1  1
 18 16  1  0
 20 18  1  0
 21 20  1  0
 22 20  2  0
M  END
$$$$
