SLT.pdb
     RDKit          3D

 22 21  0  0  1  0  0  0  0  0999 V2000
   18.5949  -13.6089  -14.1114 O   0  0  0  0  0  0  0  0  0  0  0  0
   18.9706  -12.4788  -14.8173 C   0  0  0  0  0  0  0  0  0  0  0  0
   17.8971  -12.0647  -15.8015 C   0  0  2  0  0  0  0  0  0  0  0  0
   17.7009  -13.1057  -16.7932 N   0  0  0  0  0  0  0  0  0  0  0  0
   18.2029  -10.7549  -16.4264 C   0  0  0  0  0  0  0  0  0  0  0  0
   19.0404  -10.7116  -17.3434 O   0  0  0  0  0  0  0  0  0  0  0  0
   14.4926   -7.1734  -18.0579 C   0  0  0  0  0  0  0  0  0  0  0  0
   15.8492   -7.8522  -18.0762 C   0  0  1  0  0  0  0  0  0  0  0  0
   16.6313   -7.2488  -19.2221 C   0  0  0  0  0  0  0  0  0  0  0  0
   16.4821   -7.6033  -16.7482 C   0  0  0  0  0  0  0  0  0  0  0  0
   17.8010   -8.2729  -16.5476 C   0  0  2  0  0  0  0  0  0  0  0  0
   17.5478   -9.5966  -15.9763 N   0  0  0  0  0  0  0  0  0  0  0  0
   18.5273   -7.4887  -15.4870 C   0  0  0  0  0  0  0  0  0  0  0  0
   18.1818   -7.5712  -14.2708 O   0  0  0  0  0  0  0  0  0  0  0  0
   22.4958   -5.4284  -13.6886 C   0  0  0  0  0  0  0  0  0  0  0  0
   21.8272   -6.1618  -14.8346 C   0  0  1  0  0  0  0  0  0  0  0  0
   22.2196   -7.4828  -14.7657 O   0  0  0  0  0  0  0  0  0  0  0  0
   20.3334   -5.9776  -14.7187 C   0  0  2  0  0  0  0  0  0  0  0  0
   19.6137   -6.6330  -15.7787 N   0  0  0  0  0  0  0  0  0  0  0  0
   19.9380   -4.5626  -14.6633 C   0  0  0  0  0  0  0  0  0  0  0  0
   19.7315   -3.9023  -13.4592 O   0  0  0  0  0  0  0  0  0  0  0  0
   19.7817   -3.9301  -15.7368 O   0  0  0  0  0  0  0  0  0  0  0  0
  2  1  1  0
  3  2  1  0
  3  4  1  6
  5 12  1  0
  5  3  1  0
  6  5  2  0
  8  7  1  1
  8 10  1  0
  9  8  1  0
 11 10  1  1
 11 12  1  0
 13 11  1  0
 13 19  1  0
 14 13  2  0
 16 15  1  1
 17 16  1  0
 18 19  1  6
 18 16  1  0
 20 18  1  0
 21 20  1  0
 22 20  2  0
M  END
$$$$
