LLC.pdb
     RDKit          3D

 23 22  0  0  1  0  0  0  0  0999 V2000
    6.1206  -20.4354   26.2130 C   0  0  0  0  0  0  0  0  0  0  0  0
    7.2274  -20.7558   25.2571 C   0  0  2  0  0  0  0  0  0  0  0  0
    8.2380  -21.6514   25.9384 C   0  0  0  0  0  0  0  0  0  0  0  0
    7.8911  -19.4883   24.7654 C   0  0  0  0  0  0  0  0  0  0  0  0
    6.9058  -18.4912   24.2419 C   0  0  2  0  0  0  0  0  0  0  0  0
    6.5039  -18.8685   22.9209 N   0  0  0  0  0  0  0  0  0  0  0  0
    7.6040  -17.1717   24.1760 C   0  0  0  0  0  0  0  0  0  0  0  0
    8.3832  -16.9546   23.2180 O   0  0  0  0  0  0  0  0  0  0  0  0
    7.0076  -12.0244   24.4519 C   0  0  0  0  0  0  0  0  0  0  0  0
    6.3987  -13.0442   25.3928 C   0  0  2  0  0  0  0  0  0  0  0  0
    5.4009  -12.3921   26.2664 C   0  0  0  0  0  0  0  0  0  0  0  0
    7.3610  -13.9786   25.9963 C   0  0  0  0  0  0  0  0  0  0  0  0
    8.1185  -14.9350   25.1703 C   0  0  2  0  0  0  0  0  0  0  0  0
    7.3659  -16.2108   25.1924 N   0  0  0  0  0  0  0  0  0  0  0  0
    9.5092  -15.2058   25.4461 C   0  0  0  0  0  0  0  0  0  0  0  0
   10.3970  -14.3966   24.9706 O   0  0  0  0  0  0  0  0  0  0  0  0
   10.0545  -16.2697   26.1989 N   0  0  0  0  0  0  0  0  0  0  0  0
   10.8765  -16.0432   27.3778 C   0  0  1  0  0  0  0  0  0  0  0  0
   10.0060  -15.2383   28.3501 C   0  0  0  0  0  0  0  0  0  0  0  0
   11.0681  -14.1905   29.3810 S   0  0  0  0  0  0  0  0  0  0  0  0
   11.2542  -17.2728   28.0941 C   0  0  0  0  0  0  0  0  0  0  0  0
   10.4846  -18.4203   27.8906 O   0  0  0  0  0  0  0  0  0  0  0  0
   12.2138  -17.3907   28.8805 O   0  0  0  0  0  0  0  0  0  0  0  0
  2  1  1  1
  2  3  1  0
  4  5  1  0
  4  2  1  0
  5  7  1  0
  5  6  1  6
  7  8  2  0
 10  9  1  1
 11 10  1  0
 12 10  1  0
 13 12  1  1
 14 13  1  0
 14  7  1  0
 15 17  1  0
 15 13  1  0
 16 15  2  0
 18 21  1  0
 18 17  1  0
 18 19  1  1
 20 19  1  0
 21 22  1  0
 23 21  2  0
M  END
$$$$
