LLC.pdb
     RDKit          3D

 23 22  0  0  1  0  0  0  0  0999 V2000
    8.7244  -21.9946   18.7752 C   0  0  0  0  0  0  0  0  0  0  0  0
    8.8963  -20.7470   17.9655 C   0  0  2  0  0  0  0  0  0  0  0  0
    9.6532  -21.0702   16.6966 C   0  0  0  0  0  0  0  0  0  0  0  0
    9.6282  -19.6902   18.7632 C   0  0  0  0  0  0  0  0  0  0  0  0
    9.5729  -18.3424   18.1156 C   0  0  2  0  0  0  0  0  0  0  0  0
   10.4965  -18.3021   17.0226 N   0  0  0  0  0  0  0  0  0  0  0  0
    9.9945  -17.3409   19.1413 C   0  0  0  0  0  0  0  0  0  0  0  0
   11.2077  -17.0324   19.2127 O   0  0  0  0  0  0  0  0  0  0  0  0
    8.5314  -13.1322   19.5573 C   0  0  0  0  0  0  0  0  0  0  0  0
    7.5935  -14.0960   20.2554 C   0  0  2  0  0  0  0  0  0  0  0  0
    6.3233  -13.4154   20.5836 C   0  0  0  0  0  0  0  0  0  0  0  0
    8.2267  -14.9399   21.2803 C   0  0  0  0  0  0  0  0  0  0  0  0
    9.4260  -15.7400   20.9772 C   0  0  2  0  0  0  0  0  0  0  0  0
    9.0161  -16.7731   19.9977 N   0  0  0  0  0  0  0  0  0  0  0  0
   10.1780  -16.3698   22.0363 C   0  0  0  0  0  0  0  0  0  0  0  0
    9.6995  -17.4433   22.5726 O   0  0  0  0  0  0  0  0  0  0  0  0
   11.4156  -15.9637   22.5832 N   0  0  0  0  0  0  0  0  0  0  0  0
   12.0504  -16.6791   23.6796 C   0  0  1  0  0  0  0  0  0  0  0  0
   13.5183  -16.2362   23.6777 C   0  0  0  0  0  0  0  0  0  0  0  0
   14.2411  -16.5590   22.0461 S   0  0  0  0  0  0  0  0  0  0  0  0
   11.5238  -16.3324   25.0101 C   0  0  0  0  0  0  0  0  0  0  0  0
   12.0920  -16.9476   26.1277 O   0  0  0  0  0  0  0  0  0  0  0  0
   10.6013  -15.5265   25.2397 O   0  0  0  0  0  0  0  0  0  0  0  0
  2  1  1  1
  2  3  1  0
  4  5  1  0
  4  2  1  0
  5  7  1  0
  5  6  1  6
  7  8  2  0
 10  9  1  1
 11 10  1  0
 12 10  1  0
 13 12  1  1
 14 13  1  0
 14  7  1  0
 15 17  1  0
 15 13  1  0
 16 15  2  0
 18 21  1  0
 18 17  1  0
 18 19  1  1
 20 19  1  0
 21 22  1  0
 23 21  2  0
M  END
$$$$
