LLC.pdb
     RDKit          3D

 23 22  0  0  1  0  0  0  0  0999 V2000
    5.7779  -17.6182   20.7971 C   0  0  0  0  0  0  0  0  0  0  0  0
    7.1163  -18.2432   21.0409 C   0  0  2  0  0  0  0  0  0  0  0  0
    6.9418  -19.7235   21.2978 C   0  0  0  0  0  0  0  0  0  0  0  0
    7.8085  -17.5814   22.2121 C   0  0  0  0  0  0  0  0  0  0  0  0
    7.8676  -16.0924   22.0764 C   0  0  2  0  0  0  0  0  0  0  0  0
    8.7650  -15.7471   21.0160 N   0  0  0  0  0  0  0  0  0  0  0  0
    8.4071  -15.5521   23.3609 C   0  0  0  0  0  0  0  0  0  0  0  0
    9.6460  -15.3928   23.4693 O   0  0  0  0  0  0  0  0  0  0  0  0
    7.8384  -11.6327   25.6832 C   0  0  0  0  0  0  0  0  0  0  0  0
    6.6590  -12.5776   25.7943 C   0  0  2  0  0  0  0  0  0  0  0  0
    5.4934  -11.8655   26.3588 C   0  0  0  0  0  0  0  0  0  0  0  0
    6.9866  -13.9150   26.3115 C   0  0  0  0  0  0  0  0  0  0  0  0
    8.0460  -14.7337   25.6967 C   0  0  2  0  0  0  0  0  0  0  0  0
    7.5074  -15.2376   24.4119 N   0  0  0  0  0  0  0  0  0  0  0  0
    8.6400  -15.8328   26.4197 C   0  0  0  0  0  0  0  0  0  0  0  0
    9.2282  -15.5812   27.5420 O   0  0  0  0  0  0  0  0  0  0  0  0
    8.6616  -17.1988   26.0599 N   0  0  0  0  0  0  0  0  0  0  0  0
    9.3694  -18.1965   26.8476 C   0  0  1  0  0  0  0  0  0  0  0  0
    8.6005  -19.5089   26.6541 C   0  0  0  0  0  0  0  0  0  0  0  0
    6.9210  -19.3240   27.3129 S   0  0  0  0  0  0  0  0  0  0  0  0
   10.7439  -18.4605   26.3907 C   0  0  0  0  0  0  0  0  0  0  0  0
   11.4718  -19.4669   27.0292 O   0  0  0  0  0  0  0  0  0  0  0  0
   11.3322  -17.8603   25.4705 O   0  0  0  0  0  0  0  0  0  0  0  0
  2  1  1  1
  2  3  1  0
  4  5  1  0
  4  2  1  0
  5  7  1  0
  5  6  1  6
  7  8  2  0
 10  9  1  1
 11 10  1  0
 12 10  1  0
 13 12  1  1
 14 13  1  0
 14  7  1  0
 15 17  1  0
 15 13  1  0
 16 15  2  0
 18 21  1  0
 18 17  1  0
 18 19  1  6
 20 19  1  0
 21 22  1  0
 23 21  2  0
M  END
$$$$
