LLC.pdb
     RDKit          3D

 23 22  0  0  1  0  0  0  0  0999 V2000
    6.0894  -20.7327   27.2848 C   0  0  0  0  0  0  0  0  0  0  0  0
    7.3537  -20.9154   26.5041 C   0  0  2  0  0  0  0  0  0  0  0  0
    8.4132  -21.5234   27.3960 C   0  0  0  0  0  0  0  0  0  0  0  0
    7.8299  -19.5935   25.9431 C   0  0  0  0  0  0  0  0  0  0  0  0
    6.8011  -18.9328   25.0805 C   0  0  2  0  0  0  0  0  0  0  0  0
    6.6908  -19.6438   23.8431 N   0  0  0  0  0  0  0  0  0  0  0  0
    7.2830  -17.5465   24.7998 C   0  0  0  0  0  0  0  0  0  0  0  0
    8.0254  -17.3612   23.8065 O   0  0  0  0  0  0  0  0  0  0  0  0
    5.6709  -11.9592   26.8623 C   0  0  0  0  0  0  0  0  0  0  0  0
    6.6243  -12.7393   25.9799 C   0  0  2  0  0  0  0  0  0  0  0  0
    6.8394  -12.0178   24.7081 C   0  0  0  0  0  0  0  0  0  0  0  0
    6.3778  -14.1887   25.9355 C   0  0  0  0  0  0  0  0  0  0  0  0
    7.3831  -15.1184   25.3917 C   0  0  2  0  0  0  0  0  0  0  0  0
    6.8889  -16.4890   25.6597 N   0  0  0  0  0  0  0  0  0  0  0  0
    8.7649  -15.0297   25.7997 C   0  0  0  0  0  0  0  0  0  0  0  0
    9.4983  -14.1011   25.2814 O   0  0  0  0  0  0  0  0  0  0  0  0
    9.4505  -15.8442   26.7284 N   0  0  0  0  0  0  0  0  0  0  0  0
   10.8384  -15.6044   27.0928 C   0  0  1  0  0  0  0  0  0  0  0  0
   10.8383  -15.3446   28.6040 C   0  0  0  0  0  0  0  0  0  0  0  0
    9.7797  -13.9179   28.9683 S   0  0  0  0  0  0  0  0  0  0  0  0
   11.7255  -16.7601   26.8800 C   0  0  0  0  0  0  0  0  0  0  0  0
   13.0871  -16.6081   27.1505 O   0  0  0  0  0  0  0  0  0  0  0  0
   11.3710  -17.8836   26.4735 O   0  0  0  0  0  0  0  0  0  0  0  0
  2  1  1  1
  2  3  1  0
  4  5  1  0
  4  2  1  0
  5  7  1  0
  5  6  1  6
  7  8  2  0
 10  9  1  6
 11 10  1  0
 12 10  1  0
 13 12  1  1
 14 13  1  0
 14  7  1  0
 15 17  1  0
 15 13  1  0
 16 15  2  0
 18 21  1  0
 18 17  1  0
 18 19  1  1
 20 19  1  0
 21 22  1  0
 23 21  2  0
M  END
$$$$
