LLC.pdb
     RDKit          3D

 23 22  0  0  1  0  0  0  0  0999 V2000
    5.9098  -20.3996   26.7589 C   0  0  0  0  0  0  0  0  0  0  0  0
    7.1254  -20.6805   25.9313 C   0  0  2  0  0  0  0  0  0  0  0  0
    8.0733  -21.5633   26.7121 C   0  0  0  0  0  0  0  0  0  0  0  0
    7.8098  -19.3910   25.5343 C   0  0  0  0  0  0  0  0  0  0  0  0
    6.8752  -18.4245   24.8775 C   0  0  2  0  0  0  0  0  0  0  0  0
    6.5308  -18.9071   23.5746 N   0  0  0  0  0  0  0  0  0  0  0  0
    7.6063  -17.1291   24.7351 C   0  0  0  0  0  0  0  0  0  0  0  0
    8.5783  -17.0748   23.9448 O   0  0  0  0  0  0  0  0  0  0  0  0
    6.1157  -12.6120   23.9445 C   0  0  0  0  0  0  0  0  0  0  0  0
    5.9009  -13.2914   25.2818 C   0  0  2  0  0  0  0  0  0  0  0  0
    4.8514  -12.5835   26.0445 C   0  0  0  0  0  0  0  0  0  0  0  0
    7.1346  -13.6856   25.9788 C   0  0  0  0  0  0  0  0  0  0  0  0
    7.9915  -14.7673   25.4627 C   0  0  2  0  0  0  0  0  0  0  0  0
    7.1818  -16.0074   25.4930 N   0  0  0  0  0  0  0  0  0  0  0  0
    9.2796  -15.0334   26.0574 C   0  0  0  0  0  0  0  0  0  0  0  0
   10.2310  -14.1807   25.8655 O   0  0  0  0  0  0  0  0  0  0  0  0
    9.6564  -16.1355   26.8570 N   0  0  0  0  0  0  0  0  0  0  0  0
   10.7143  -16.0455   27.8517 C   0  0  1  0  0  0  0  0  0  0  0  0
   10.1585  -15.1678   28.9795 C   0  0  0  0  0  0  0  0  0  0  0  0
   11.4121  -14.9935   30.2784 S   0  0  0  0  0  0  0  0  0  0  0  0
   11.0661  -17.3322   28.4750 C   0  0  0  0  0  0  0  0  0  0  0  0
   12.2155  -17.3922   29.2659 O   0  0  0  0  0  0  0  0  0  0  0  0
   10.4239  -18.3943   28.3625 O   0  0  0  0  0  0  0  0  0  0  0  0
  2  1  1  1
  2  3  1  0
  4  5  1  0
  4  2  1  0
  5  7  1  0
  5  6  1  6
  7  8  2  0
 10  9  1  6
 11 10  1  0
 12 10  1  0
 13 12  1  1
 14 13  1  0
 14  7  1  0
 15 17  1  0
 15 13  1  0
 16 15  2  0
 18 21  1  0
 18 17  1  0
 18 19  1  1
 20 19  1  0
 21 22  1  0
 23 21  2  0
M  END
$$$$
