LLC.pdb
     RDKit          3D

 23 22  0  0  1  0  0  0  0  0999 V2000
    5.9087  -19.4075   21.0653 C   0  0  0  0  0  0  0  0  0  0  0  0
    7.3833  -19.6493   21.1575 C   0  0  2  0  0  0  0  0  0  0  0  0
    7.6334  -21.0718   21.6063 C   0  0  0  0  0  0  0  0  0  0  0  0
    8.0251  -18.6716   22.1171 C   0  0  0  0  0  0  0  0  0  0  0  0
    7.7371  -17.2468   21.7620 C   0  0  2  0  0  0  0  0  0  0  0  0
    8.3857  -16.9244   20.5273 N   0  0  0  0  0  0  0  0  0  0  0  0
    8.3127  -16.3953   22.8466 C   0  0  0  0  0  0  0  0  0  0  0  0
    9.5509  -16.1983   22.8589 O   0  0  0  0  0  0  0  0  0  0  0  0
    5.7928  -12.4712   26.9098 C   0  0  0  0  0  0  0  0  0  0  0  0
    7.0729  -13.0633   26.3559 C   0  0  2  0  0  0  0  0  0  0  0  0
    8.0689  -11.9941   26.1346 C   0  0  0  0  0  0  0  0  0  0  0  0
    6.8808  -14.0763   25.3069 C   0  0  0  0  0  0  0  0  0  0  0  0
    8.0011  -14.9075   24.8330 C   0  0  2  0  0  0  0  0  0  0  0  0
    7.4468  -15.8391   23.8234 N   0  0  0  0  0  0  0  0  0  0  0  0
    8.8100  -15.6545   25.7665 C   0  0  0  0  0  0  0  0  0  0  0  0
    8.2566  -16.6228   26.4185 O   0  0  0  0  0  0  0  0  0  0  0  0
   10.1771  -15.4712   26.0721 N   0  0  0  0  0  0  0  0  0  0  0  0
   10.8776  -16.3160   27.0272 C   0  0  1  0  0  0  0  0  0  0  0  0
   12.3256  -16.4025   26.5303 C   0  0  0  0  0  0  0  0  0  0  0  0
   13.0666  -17.9545   27.1057 S   0  0  0  0  0  0  0  0  0  0  0  0
   10.9483  -15.7570   28.3874 C   0  0  0  0  0  0  0  0  0  0  0  0
   11.1869  -16.6306   29.4505 O   0  0  0  0  0  0  0  0  0  0  0  0
   10.8130  -14.5550   28.6875 O   0  0  0  0  0  0  0  0  0  0  0  0
  2  1  1  1
  2  3  1  0
  4  5  1  0
  4  2  1  0
  5  7  1  0
  5  6  1  6
  7  8  2  0
 10  9  1  6
 11 10  1  0
 12 10  1  0
 13 12  1  1
 14 13  1  0
 14  7  1  0
 15 17  1  0
 15 13  1  0
 16 15  2  0
 18 21  1  0
 18 17  1  0
 18 19  1  6
 20 19  1  0
 21 22  1  0
 23 21  2  0
M  END
$$$$
