LLC.pdb
     RDKit          3D

 23 22  0  0  1  0  0  0  0  0999 V2000
    8.8198  -14.5419   18.8205 C   0  0  0  0  0  0  0  0  0  0  0  0
    7.7865  -13.7499   19.5599 C   0  0  2  0  0  0  0  0  0  0  0  0
    7.6297  -12.3940   18.9084 C   0  0  0  0  0  0  0  0  0  0  0  0
    8.1726  -13.5961   21.0145 C   0  0  0  0  0  0  0  0  0  0  0  0
    8.3104  -14.9120   21.7134 C   0  0  2  0  0  0  0  0  0  0  0  0
    7.0485  -15.5879   21.7072 N   0  0  0  0  0  0  0  0  0  0  0  0
    8.6969  -14.6236   23.1277 C   0  0  0  0  0  0  0  0  0  0  0  0
    9.8359  -14.1497   23.3517 O   0  0  0  0  0  0  0  0  0  0  0  0
    8.1031  -11.5943   26.1883 C   0  0  0  0  0  0  0  0  0  0  0  0
    6.9096  -12.4854   25.9102 C   0  0  2  0  0  0  0  0  0  0  0  0
    5.6701  -11.8288   26.3760 C   0  0  0  0  0  0  0  0  0  0  0  0
    7.1150  -13.9076   26.2241 C   0  0  0  0  0  0  0  0  0  0  0  0
    8.1837  -14.6868   25.5750 C   0  0  2  0  0  0  0  0  0  0  0  0
    7.7698  -14.8929   24.1675 N   0  0  0  0  0  0  0  0  0  0  0  0
    8.6136  -15.9494   26.1272 C   0  0  0  0  0  0  0  0  0  0  0  0
    8.9839  -15.9826   27.3644 O   0  0  0  0  0  0  0  0  0  0  0  0
    8.6809  -17.2030   25.4795 N   0  0  0  0  0  0  0  0  0  0  0  0
    9.1765  -18.3957   26.1493 C   0  0  1  0  0  0  0  0  0  0  0  0
    8.2866  -19.5487   25.6699 C   0  0  0  0  0  0  0  0  0  0  0  0
    6.5459  -19.1144   25.9352 S   0  0  0  0  0  0  0  0  0  0  0  0
   10.5531  -18.7656   25.7807 C   0  0  0  0  0  0  0  0  0  0  0  0
   11.1045  -19.9155   26.3498 O   0  0  0  0  0  0  0  0  0  0  0  0
   11.2885  -18.1387   24.9937 O   0  0  0  0  0  0  0  0  0  0  0  0
  2  1  1  6
  2  3  1  0
  4  5  1  0
  4  2  1  0
  5  7  1  0
  5  6  1  1
  7  8  2  0
 10  9  1  1
 11 10  1  0
 12 10  1  0
 13 12  1  1
 14 13  1  0
 14  7  1  0
 15 17  1  0
 15 13  1  0
 16 15  2  0
 18 21  1  0
 18 17  1  0
 18 19  1  6
 20 19  1  0
 21 22  1  0
 23 21  2  0
M  END
$$$$
