LLC.pdb
     RDKit          3D

 23 22  0  0  1  0  0  0  0  0999 V2000
    6.3838  -20.6123   27.5017 C   0  0  0  0  0  0  0  0  0  0  0  0
    7.6241  -20.7912   26.6825 C   0  0  2  0  0  0  0  0  0  0  0  0
    8.7462  -21.2847   27.5686 C   0  0  0  0  0  0  0  0  0  0  0  0
    8.0124  -19.4919   26.0120 C   0  0  0  0  0  0  0  0  0  0  0  0
    6.9202  -18.9435   25.1486 C   0  0  2  0  0  0  0  0  0  0  0  0
    6.7882  -19.7549   23.9766 N   0  0  0  0  0  0  0  0  0  0  0  0
    7.3294  -17.5660   24.7388 C   0  0  0  0  0  0  0  0  0  0  0  0
    8.0513  -17.4341   23.7222 O   0  0  0  0  0  0  0  0  0  0  0  0
    5.7935  -11.8456   26.5065 C   0  0  0  0  0  0  0  0  0  0  0  0
    6.7707  -12.6918   25.7160 C   0  0  2  0  0  0  0  0  0  0  0  0
    7.1058  -12.0193   24.4433 C   0  0  0  0  0  0  0  0  0  0  0  0
    6.4642  -14.1302   25.6941 C   0  0  0  0  0  0  0  0  0  0  0  0
    7.4534  -15.1153   25.2233 C   0  0  2  0  0  0  0  0  0  0  0  0
    6.8917  -16.4564   25.5071 N   0  0  0  0  0  0  0  0  0  0  0  0
    8.8182  -15.0696   25.6914 C   0  0  0  0  0  0  0  0  0  0  0  0
    9.7172  -14.5687   24.9105 O   0  0  0  0  0  0  0  0  0  0  0  0
    9.3250  -15.5067   26.9355 N   0  0  0  0  0  0  0  0  0  0  0  0
   10.7440  -15.4601   27.2537 C   0  0  1  0  0  0  0  0  0  0  0  0
   10.8421  -14.8344   28.6501 C   0  0  0  0  0  0  0  0  0  0  0  0
    9.7110  -13.4208   28.7559 S   0  0  0  0  0  0  0  0  0  0  0  0
   11.3822  -16.7829   27.3562 C   0  0  0  0  0  0  0  0  0  0  0  0
   12.7397  -16.8397   27.6787 O   0  0  0  0  0  0  0  0  0  0  0  0
   10.8161  -17.8791   27.1794 O   0  0  0  0  0  0  0  0  0  0  0  0
  2  1  1  1
  2  3  1  0
  4  5  1  0
  4  2  1  0
  5  7  1  0
  5  6  1  6
  7  8  2  0
 10  9  1  6
 11 10  1  0
 12 10  1  0
 13 12  1  1
 14 13  1  0
 14  7  1  0
 15 17  1  0
 15 13  1  0
 16 15  2  0
 18 21  1  0
 18 17  1  0
 18 19  1  1
 20 19  1  0
 21 22  1  0
 23 21  2  0
M  END
$$$$
