ELA.pdb
     RDKit          3D

 23 22  0  0  1  0  0  0  0  0999 V2000
   27.1957  -23.0964  -14.3105 N   0  0  0  0  0  0  0  0  0  0  0  0
   26.3675  -21.8666  -14.2618 C   0  0  1  0  0  0  0  0  0  0  0  0
   25.6319  -21.7905  -15.5614 C   0  0  0  0  0  0  0  0  0  0  0  0
   25.8286  -20.4995  -16.2731 C   0  0  0  0  0  0  0  0  0  0  0  0
   24.6438  -19.6330  -16.1578 C   0  0  0  0  0  0  0  0  0  0  0  0
   23.5202  -20.0625  -15.8680 O   0  0  0  0  0  0  0  0  0  0  0  0
   25.3986  -22.0324  -13.1380 C   0  0  0  0  0  0  0  0  0  0  0  0
   24.7204  -23.0606  -13.0126 O   0  0  0  0  0  0  0  0  0  0  0  0
   24.7628  -18.2586  -16.3800 O   0  0  0  0  0  0  0  0  0  0  0  0
   26.5935  -19.2861   -8.5476 C   0  0  0  0  0  0  0  0  0  0  0  0
   26.2026  -20.4267   -9.4900 C   0  0  1  0  0  0  0  0  0  0  0  0
   26.2329  -21.6910   -8.6973 C   0  0  0  0  0  0  0  0  0  0  0  0
   24.8328  -20.0767  -10.0195 C   0  0  0  0  0  0  0  0  0  0  0  0
   24.3323  -21.0833  -11.0382 C   0  0  2  0  0  0  0  0  0  0  0  0
   25.2285  -20.9998  -12.1706 N   0  0  0  0  0  0  0  0  0  0  0  0
   22.9852  -20.5853  -11.4703 C   0  0  0  0  0  0  0  0  0  0  0  0
   22.0575  -20.4433  -10.6400 O   0  0  0  0  0  0  0  0  0  0  0  0
   21.5037  -19.1297  -14.6458 C   0  0  0  0  0  0  0  0  0  0  0  0
   21.4440  -19.7354  -13.2662 C   0  0  2  0  0  0  0  0  0  0  0  0
   22.7005  -20.2564  -12.8169 N   0  0  0  0  0  0  0  0  0  0  0  0
   20.4338  -20.8170  -13.2971 C   0  0  0  0  0  0  0  0  0  0  0  0
   20.8190  -22.1153  -13.1167 O   0  0  0  0  0  0  0  0  0  0  0  0
   19.2484  -20.5059  -13.4891 O   0  0  0  0  0  0  0  0  0  0  0  0
  2  1  1  6
  2  7  1  0
  3  2  1  0
  4  3  1  0
  5  4  1  0
  5  6  2  0
  7 15  1  0
  8  7  2  0
  9  5  1  0
 11 10  1  1
 11 12  1  0
 13 11  1  0
 14 13  1  1
 15 14  1  0
 16 14  1  0
 17 16  2  0
 19 18  1  6
 19 20  1  0
 20 16  1  0
 21 19  1  0
 22 21  1  0
 23 21  2  0
M  END
$$$$
