ELA.pdb
     RDKit          3D

 23 22  0  0  1  0  0  0  0  0999 V2000
   17.6655  -12.2320  -16.4026 N   0  0  0  0  0  0  0  0  0  0  0  0
   18.1587  -11.0376  -17.1312 C   0  0  1  0  0  0  0  0  0  0  0  0
   16.9901  -10.4724  -17.8733 C   0  0  0  0  0  0  0  0  0  0  0  0
   16.5874  -11.2920  -19.0471 C   0  0  0  0  0  0  0  0  0  0  0  0
   15.4684  -10.6750  -19.7786 C   0  0  0  0  0  0  0  0  0  0  0  0
   15.5810   -9.6231  -20.4203 O   0  0  0  0  0  0  0  0  0  0  0  0
   18.6309  -10.0603  -16.1059 C   0  0  0  0  0  0  0  0  0  0  0  0
   18.0466   -9.9228  -15.0231 O   0  0  0  0  0  0  0  0  0  0  0  0
   14.2099  -11.2821  -19.7661 O   0  0  0  0  0  0  0  0  0  0  0  0
   23.6866   -9.7596  -14.5743 C   0  0  0  0  0  0  0  0  0  0  0  0
   22.1658   -9.6257  -14.4687 C   0  0  1  0  0  0  0  0  0  0  0  0
   21.8359   -9.4068  -13.0295 C   0  0  0  0  0  0  0  0  0  0  0  0
   21.7883   -8.4669  -15.3595 C   0  0  0  0  0  0  0  0  0  0  0  0
   20.2873   -8.2580  -15.4312 C   0  0  2  0  0  0  0  0  0  0  0  0
   19.7791   -9.2523  -16.3508 N   0  0  0  0  0  0  0  0  0  0  0  0
   20.0966   -6.9061  -16.0522 C   0  0  0  0  0  0  0  0  0  0  0  0
   20.5345   -6.6605  -17.2004 O   0  0  0  0  0  0  0  0  0  0  0  0
   18.0970   -3.7922  -15.2344 C   0  0  0  0  0  0  0  0  0  0  0  0
   19.1642   -4.5728  -15.9594 C   0  0  2  0  0  0  0  0  0  0  0  0
   19.4230   -5.8578  -15.3817 N   0  0  0  0  0  0  0  0  0  0  0  0
   20.3999   -3.7578  -15.9462 C   0  0  0  0  0  0  0  0  0  0  0  0
   20.5202   -2.6879  -16.7872 O   0  0  0  0  0  0  0  0  0  0  0  0
   21.3035   -4.0769  -15.1585 O   0  0  0  0  0  0  0  0  0  0  0  0
  2  1  1  1
  2  7  1  0
  3  2  1  0
  4  3  1  0
  5  4  1  0
  5  6  2  0
  7 15  1  0
  8  7  2  0
  9  5  1  0
 11 10  1  1
 11 12  1  0
 13 11  1  0
 14 13  1  6
 15 14  1  0
 16 14  1  0
 17 16  2  0
 19 18  1  1
 19 20  1  0
 20 16  1  0
 21 19  1  0
 22 21  1  0
 23 21  2  0
M  END
$$$$
