ELA.pdb
     RDKit          3D

 23 22  0  0  1  0  0  0  0  0999 V2000
   28.0772  -20.4083  -15.7203 N   0  0  0  0  0  0  0  0  0  0  0  0
   26.9804  -19.5612  -15.1910 C   0  0  1  0  0  0  0  0  0  0  0  0
   26.3970  -18.8320  -16.3588 C   0  0  0  0  0  0  0  0  0  0  0  0
   27.3060  -17.7968  -16.9188 C   0  0  0  0  0  0  0  0  0  0  0  0
   27.8510  -18.2053  -18.2243 C   0  0  0  0  0  0  0  0  0  0  0  0
   27.3637  -19.1185  -18.9022 O   0  0  0  0  0  0  0  0  0  0  0  0
   25.9599  -20.4788  -14.6031 C   0  0  0  0  0  0  0  0  0  0  0  0
   25.6902  -21.5688  -15.1248 O   0  0  0  0  0  0  0  0  0  0  0  0
   28.9689  -17.5501  -18.7473 O   0  0  0  0  0  0  0  0  0  0  0  0
   25.7344  -20.4525   -9.2356 C   0  0  0  0  0  0  0  0  0  0  0  0
   25.8060  -20.8191  -10.7195 C   0  0  1  0  0  0  0  0  0  0  0  0
   26.3047  -22.2231  -10.8090 C   0  0  0  0  0  0  0  0  0  0  0  0
   24.4081  -20.6375  -11.2599 C   0  0  0  0  0  0  0  0  0  0  0  0
   24.3110  -20.9726  -12.7364 C   0  0  2  0  0  0  0  0  0  0  0  0
   25.2629  -20.1191  -13.4131 N   0  0  0  0  0  0  0  0  0  0  0  0
   22.9316  -20.5584  -13.1549 C   0  0  0  0  0  0  0  0  0  0  0  0
   22.4718  -19.4391  -12.8293 O   0  0  0  0  0  0  0  0  0  0  0  0
   20.4300  -21.6501  -15.7187 C   0  0  0  0  0  0  0  0  0  0  0  0
   20.7952  -21.0224  -14.3972 C   0  0  2  0  0  0  0  0  0  0  0  0
   22.0946  -21.3992  -13.9262 N   0  0  0  0  0  0  0  0  0  0  0  0
   19.7670  -21.4266  -13.4118 C   0  0  0  0  0  0  0  0  0  0  0  0
   18.5026  -20.9163  -13.4974 O   0  0  0  0  0  0  0  0  0  0  0  0
   20.0907  -22.2299  -12.5237 O   0  0  0  0  0  0  0  0  0  0  0  0
  2  1  1  6
  2  7  1  0
  3  2  1  0
  4  3  1  0
  5  4  1  0
  5  6  2  0
  7 15  1  0
  8  7  2  0
  9  5  1  0
 11 10  1  1
 11 12  1  0
 13 11  1  0
 14 13  1  1
 15 14  1  0
 16 14  1  0
 17 16  2  0
 19 18  1  6
 19 20  1  0
 20 16  1  0
 21 19  1  0
 22 21  1  0
 23 21  2  0
M  END
$$$$
