ELA.pdb
     RDKit          3D

 23 22  0  0  1  0  0  0  0  0999 V2000
   22.3749  -11.3529  -18.9468 N   0  0  0  0  0  0  0  0  0  0  0  0
   21.6654  -11.6411  -17.6762 C   0  0  1  0  0  0  0  0  0  0  0  0
   21.8749  -13.0928  -17.3853 C   0  0  0  0  0  0  0  0  0  0  0  0
   21.4354  -13.9832  -18.4925 C   0  0  0  0  0  0  0  0  0  0  0  0
   20.2410  -14.7594  -18.1199 C   0  0  0  0  0  0  0  0  0  0  0  0
   19.5773  -14.5281  -17.1016 O   0  0  0  0  0  0  0  0  0  0  0  0
   22.3091  -10.8117  -16.6146 C   0  0  0  0  0  0  0  0  0  0  0  0
   21.9555  -10.8853  -15.4303 O   0  0  0  0  0  0  0  0  0  0  0  0
   19.8132  -15.8115  -18.9340 O   0  0  0  0  0  0  0  0  0  0  0  0
   27.5504  -10.3081  -16.6485 C   0  0  0  0  0  0  0  0  0  0  0  0
   26.0980  -10.4358  -16.1840 C   0  0  1  0  0  0  0  0  0  0  0  0
   26.1214  -10.9310  -14.7761 C   0  0  0  0  0  0  0  0  0  0  0  0
   25.4923   -9.0609  -16.3323 C   0  0  0  0  0  0  0  0  0  0  0  0
   24.0153   -9.0395  -15.9862 C   0  0  2  0  0  0  0  0  0  0  0  0
   23.3585   -9.9046  -16.9416 N   0  0  0  0  0  0  0  0  0  0  0  0
   23.5612   -7.6328  -16.2399 C   0  0  0  0  0  0  0  0  0  0  0  0
   24.0028   -6.6826  -15.5525 O   0  0  0  0  0  0  0  0  0  0  0  0
   21.8073   -5.7036  -18.9205 C   0  0  0  0  0  0  0  0  0  0  0  0
   22.0957   -6.0019  -17.4708 C   0  0  2  0  0  0  0  0  0  0  0  0
   22.6256   -7.3148  -17.2528 N   0  0  0  0  0  0  0  0  0  0  0  0
   20.8292   -5.8405  -16.7215 C   0  0  0  0  0  0  0  0  0  0  0  0
   20.2854   -4.5975  -16.5611 O   0  0  0  0  0  0  0  0  0  0  0  0
   20.2915   -6.8562  -16.2544 O   0  0  0  0  0  0  0  0  0  0  0  0
  2  1  1  6
  2  7  1  0
  3  2  1  0
  4  3  1  0
  5  4  1  0
  5  6  2  0
  7 15  1  0
  8  7  2  0
  9  5  1  0
 11 10  1  1
 11 12  1  0
 13 11  1  0
 14 13  1  6
 15 14  1  0
 16 14  1  0
 17 16  2  0
 19 18  1  6
 19 20  1  0
 20 16  1  0
 21 19  1  0
 22 21  1  0
 23 21  2  0
M  END
$$$$
