ELA.pdb
     RDKit          3D

 23 22  0  0  1  0  0  0  0  0999 V2000
   25.9271  -20.6880  -12.7171 N   0  0  0  0  0  0  0  0  0  0  0  0
   25.0225  -20.0200  -11.7495 C   0  0  1  0  0  0  0  0  0  0  0  0
   23.6517  -20.0555  -12.3458 C   0  0  0  0  0  0  0  0  0  0  0  0
   23.4970  -19.1525  -13.5173 C   0  0  0  0  0  0  0  0  0  0  0  0
   23.7756  -19.8545  -14.7812 C   0  0  0  0  0  0  0  0  0  0  0  0
   23.2006  -20.8985  -15.1134 O   0  0  0  0  0  0  0  0  0  0  0  0
   25.0511  -20.8247  -10.4922 C   0  0  0  0  0  0  0  0  0  0  0  0
   24.9940  -22.0613  -10.5120 O   0  0  0  0  0  0  0  0  0  0  0  0
   24.7278  -19.3421  -15.6664 O   0  0  0  0  0  0  0  0  0  0  0  0
   27.6827  -18.5666   -6.3062 C   0  0  0  0  0  0  0  0  0  0  0  0
   27.2320  -19.6472   -7.2915 C   0  0  1  0  0  0  0  0  0  0  0  0
   28.1419  -20.8176   -7.1175 C   0  0  0  0  0  0  0  0  0  0  0  0
   25.7915  -19.9443   -6.9514 C   0  0  0  0  0  0  0  0  0  0  0  0
   25.1412  -20.8777   -7.9553 C   0  0  2  0  0  0  0  0  0  0  0  0
   25.1460  -20.1822   -9.2236 N   0  0  0  0  0  0  0  0  0  0  0  0
   23.7172  -21.0240   -7.5076 C   0  0  0  0  0  0  0  0  0  0  0  0
   22.9523  -20.0321   -7.4688 O   0  0  0  0  0  0  0  0  0  0  0  0
   21.3084  -23.8601   -6.9363 C   0  0  0  0  0  0  0  0  0  0  0  0
   21.8175  -22.4603   -6.7012 C   0  0  2  0  0  0  0  0  0  0  0  0
   23.1763  -22.2706   -7.1131 N   0  0  0  0  0  0  0  0  0  0  0  0
   21.6864  -22.1749   -5.2546 C   0  0  0  0  0  0  0  0  0  0  0  0
   20.4472  -22.0903   -4.6858 O   0  0  0  0  0  0  0  0  0  0  0  0
   22.7235  -22.0187   -4.5921 O   0  0  0  0  0  0  0  0  0  0  0  0
  2  1  1  6
  2  7  1  0
  3  2  1  0
  4  3  1  0
  5  4  1  0
  5  6  2  0
  7 15  1  0
  8  7  2  0
  9  5  1  0
 11 10  1  1
 11 12  1  0
 13 11  1  0
 14 13  1  1
 15 14  1  0
 16 14  1  0
 17 16  2  0
 19 18  1  1
 19 20  1  0
 20 16  1  0
 21 19  1  0
 22 21  1  0
 23 21  2  0
M  END
$$$$
