ELA.pdb
     RDKit          3D

 23 22  0  0  1  0  0  0  0  0999 V2000
   22.1830  -12.0858  -19.1758 N   0  0  0  0  0  0  0  0  0  0  0  0
   21.0337  -12.3856  -18.2870 C   0  0  1  0  0  0  0  0  0  0  0  0
   21.1958  -13.8018  -17.8355 C   0  0  0  0  0  0  0  0  0  0  0  0
   21.0921  -14.7874  -18.9444 C   0  0  0  0  0  0  0  0  0  0  0  0
   19.7711  -15.4374  -18.9678 C   0  0  0  0  0  0  0  0  0  0  0  0
   18.7149  -14.8123  -19.1238 O   0  0  0  0  0  0  0  0  0  0  0  0
   21.1306  -11.4643  -17.1161 C   0  0  0  0  0  0  0  0  0  0  0  0
   20.3532  -11.5509  -16.1564 O   0  0  0  0  0  0  0  0  0  0  0  0
   19.6744  -16.8224  -18.8091 O   0  0  0  0  0  0  0  0  0  0  0  0
   25.9152  -10.0927  -15.1665 C   0  0  0  0  0  0  0  0  0  0  0  0
   24.4125  -10.3712  -15.0883 C   0  0  1  0  0  0  0  0  0  0  0  0
   24.0478  -10.4500  -13.6430 C   0  0  0  0  0  0  0  0  0  0  0  0
   23.7410   -9.2350  -15.8211 C   0  0  0  0  0  0  0  0  0  0  0  0
   22.2551   -9.4710  -16.0164 C   0  0  2  0  0  0  0  0  0  0  0  0
   22.1318  -10.4510  -17.0733 N   0  0  0  0  0  0  0  0  0  0  0  0
   21.7018   -8.1704  -16.5180 C   0  0  0  0  0  0  0  0  0  0  0  0
   22.2251   -7.5851  -17.4947 O   0  0  0  0  0  0  0  0  0  0  0  0
   18.5076   -6.2437  -16.1481 C   0  0  0  0  0  0  0  0  0  0  0  0
   19.9933   -6.3299  -16.3913 C   0  0  2  0  0  0  0  0  0  0  0  0
   20.5787   -7.5499  -15.9214 N   0  0  0  0  0  0  0  0  0  0  0  0
   20.6243   -5.1756  -15.7124 C   0  0  0  0  0  0  0  0  0  0  0  0
   21.4779   -5.3832  -14.6661 O   0  0  0  0  0  0  0  0  0  0  0  0
   20.3538   -4.0361  -16.1213 O   0  0  0  0  0  0  0  0  0  0  0  0
  2  1  1  6
  2  7  1  0
  3  2  1  0
  4  3  1  0
  5  4  1  0
  5  6  2  0
  7 15  1  0
  8  7  2  0
  9  5  1  0
 11 10  1  1
 11 12  1  0
 13 11  1  0
 14 13  1  6
 15 14  1  0
 16 14  1  0
 17 16  2  0
 19 18  1  1
 19 20  1  0
 20 16  1  0
 21 19  1  0
 22 21  1  0
 23 21  2  0
M  END
$$$$
