ELA.pdb
     RDKit          3D

 23 22  0  0  1  0  0  0  0  0999 V2000
   26.7025  -19.6361  -15.6289 N   0  0  0  0  0  0  0  0  0  0  0  0
   26.5226  -21.0441  -16.0602 C   0  0  1  0  0  0  0  0  0  0  0  0
   27.8602  -21.7033  -15.9489 C   0  0  0  0  0  0  0  0  0  0  0  0
   28.8719  -21.1405  -16.8823 C   0  0  0  0  0  0  0  0  0  0  0  0
   29.4819  -22.1905  -17.7150 C   0  0  0  0  0  0  0  0  0  0  0  0
   30.6785  -22.1912  -18.0298 O   0  0  0  0  0  0  0  0  0  0  0  0
   25.5629  -21.6771  -15.1075 C   0  0  0  0  0  0  0  0  0  0  0  0
   25.1634  -22.8384  -15.2649 O   0  0  0  0  0  0  0  0  0  0  0  0
   28.6985  -23.2475  -18.1861 O   0  0  0  0  0  0  0  0  0  0  0  0
   25.7495  -20.1074   -9.8381 C   0  0  0  0  0  0  0  0  0  0  0  0
   25.6898  -20.9769  -11.0959 C   0  0  1  0  0  0  0  0  0  0  0  0
   25.8563  -22.3965  -10.6657 C   0  0  0  0  0  0  0  0  0  0  0  0
   24.3523  -20.6909  -11.7351 C   0  0  0  0  0  0  0  0  0  0  0  0
   24.1414  -21.4814  -13.0128 C   0  0  2  0  0  0  0  0  0  0  0  0
   25.0774  -20.9523  -13.9806 N   0  0  0  0  0  0  0  0  0  0  0  0
   22.7539  -21.1447  -13.4719 C   0  0  0  0  0  0  0  0  0  0  0  0
   22.3973  -19.9518  -13.6140 O   0  0  0  0  0  0  0  0  0  0  0  0
   20.0738  -22.7701  -15.4039 C   0  0  0  0  0  0  0  0  0  0  0  0
   20.4805  -21.8699  -14.2647 C   0  0  2  0  0  0  0  0  0  0  0  0
   21.7940  -22.1430  -13.7625 N   0  0  0  0  0  0  0  0  0  0  0  0
   19.4837  -22.0403  -13.1836 C   0  0  0  0  0  0  0  0  0  0  0  0
   18.2368  -21.4974  -13.3139 O   0  0  0  0  0  0  0  0  0  0  0  0
   19.8170  -22.6816  -12.1754 O   0  0  0  0  0  0  0  0  0  0  0  0
  2  1  1  1
  2  7  1  0
  3  2  1  0
  4  3  1  0
  5  4  1  0
  5  6  2  0
  7 15  1  0
  8  7  2  0
  9  5  1  0
 11 10  1  1
 11 12  1  0
 13 11  1  0
 14 13  1  1
 15 14  1  0
 16 14  1  0
 17 16  2  0
 19 18  1  6
 19 20  1  0
 20 16  1  0
 21 19  1  0
 22 21  1  0
 23 21  2  0
M  END
$$$$
