ELA.pdb
     RDKit          3D

 23 22  0  0  1  0  0  0  0  0999 V2000
   22.5639  -21.9287  -14.7201 N   0  0  0  0  0  0  0  0  0  0  0  0
   22.4351  -20.4537  -14.8120 C   0  0  1  0  0  0  0  0  0  0  0  0
   21.2825  -20.0666  -13.9417 C   0  0  0  0  0  0  0  0  0  0  0  0
   20.0104  -20.7387  -14.3181 C   0  0  0  0  0  0  0  0  0  0  0  0
   19.4302  -21.4728  -13.1813 C   0  0  0  0  0  0  0  0  0  0  0  0
   18.7561  -20.9262  -12.2993 O   0  0  0  0  0  0  0  0  0  0  0  0
   23.6982  -19.8671  -14.2737 C   0  0  0  0  0  0  0  0  0  0  0  0
   23.8778  -18.6429  -14.2298 O   0  0  0  0  0  0  0  0  0  0  0  0
   19.6329  -22.8506  -13.0664 O   0  0  0  0  0  0  0  0  0  0  0  0
   25.1978  -21.8422   -9.8814 C   0  0  0  0  0  0  0  0  0  0  0  0
   24.9514  -20.8703  -11.0374 C   0  0  1  0  0  0  0  0  0  0  0  0
   24.7283  -19.5187  -10.4445 C   0  0  0  0  0  0  0  0  0  0  0  0
   26.1762  -20.9513  -11.9162 C   0  0  0  0  0  0  0  0  0  0  0  0
   25.9878  -20.2313  -13.2383 C   0  0  2  0  0  0  0  0  0  0  0  0
   24.7403  -20.7113  -13.7915 N   0  0  0  0  0  0  0  0  0  0  0  0
   27.1039  -20.7069  -14.1201 C   0  0  0  0  0  0  0  0  0  0  0  0
   28.2976  -20.4508  -13.8378 O   0  0  0  0  0  0  0  0  0  0  0  0
   27.9270  -23.2948  -16.5392 C   0  0  0  0  0  0  0  0  0  0  0  0
   27.8861  -21.8183  -16.2356 C   0  0  2  0  0  0  0  0  0  0  0  0
   26.8667  -21.4568  -15.2964 N   0  0  0  0  0  0  0  0  0  0  0  0
   27.6666  -21.1057  -17.5145 C   0  0  0  0  0  0  0  0  0  0  0  0
   28.5763  -21.2254  -18.5267 O   0  0  0  0  0  0  0  0  0  0  0  0
   26.6461  -20.4099  -17.6296 O   0  0  0  0  0  0  0  0  0  0  0  0
  2  1  1  1
  2  7  1  0
  3  2  1  0
  4  3  1  0
  5  4  1  0
  5  6  2  0
  7 15  1  0
  8  7  2  0
  9  5  1  0
 11 10  1  1
 11 12  1  0
 13 11  1  0
 14 13  1  1
 15 14  1  0
 16 14  1  0
 17 16  2  0
 19 18  1  6
 19 20  1  0
 20 16  1  0
 21 19  1  0
 22 21  1  0
 23 21  2  0
M  END
$$$$
