ELA.pdb
     RDKit          3D

 23 22  0  0  1  0  0  0  0  0999 V2000
   16.6379  -11.5832  -17.3171 N   0  0  0  0  0  0  0  0  0  0  0  0
   17.6863  -10.6570  -17.8108 C   0  0  1  0  0  0  0  0  0  0  0  0
   16.9793   -9.5312  -18.4955 C   0  0  0  0  0  0  0  0  0  0  0  0
   16.3755   -9.9218  -19.7972 C   0  0  0  0  0  0  0  0  0  0  0  0
   15.7573   -8.7693  -20.4736 C   0  0  0  0  0  0  0  0  0  0  0  0
   15.7534   -7.6287  -19.9940 O   0  0  0  0  0  0  0  0  0  0  0  0
   18.4197  -10.1447  -16.6154 C   0  0  0  0  0  0  0  0  0  0  0  0
   17.8407   -9.9281  -15.5427 O   0  0  0  0  0  0  0  0  0  0  0  0
   15.1393   -8.9406  -21.7152 O   0  0  0  0  0  0  0  0  0  0  0  0
   22.2299  -10.1184  -13.2019 C   0  0  0  0  0  0  0  0  0  0  0  0
   22.8961   -9.8468  -14.5524 C   0  0  1  0  0  0  0  0  0  0  0  0
   24.1716  -10.6216  -14.5849 C   0  0  0  0  0  0  0  0  0  0  0  0
   21.8993  -10.2774  -15.6012 C   0  0  0  0  0  0  0  0  0  0  0  0
   20.6230   -9.4583  -15.5565 C   0  0  2  0  0  0  0  0  0  0  0  0
   19.8204   -9.8896  -16.6800 N   0  0  0  0  0  0  0  0  0  0  0  0
   21.0445   -8.0397  -15.8002 C   0  0  0  0  0  0  0  0  0  0  0  0
   21.6612   -7.7245  -16.8445 O   0  0  0  0  0  0  0  0  0  0  0  0
   20.0115   -4.6648  -14.9100 C   0  0  0  0  0  0  0  0  0  0  0  0
   21.1536   -5.6366  -15.0681 C   0  0  2  0  0  0  0  0  0  0  0  0
   20.7704   -7.0036  -14.8762 N   0  0  0  0  0  0  0  0  0  0  0  0
   22.1957   -5.2642  -14.0849 C   0  0  0  0  0  0  0  0  0  0  0  0
   23.1173   -4.3055  -14.3982 O   0  0  0  0  0  0  0  0  0  0  0  0
   22.2003   -5.8440  -12.9883 O   0  0  0  0  0  0  0  0  0  0  0  0
  2  1  1  1
  2  7  1  0
  3  2  1  0
  4  3  1  0
  5  4  1  0
  5  6  2  0
  7 15  1  0
  8  7  2  0
  9  5  1  0
 11 10  1  1
 11 12  1  0
 13 11  1  0
 14 13  1  6
 15 14  1  0
 16 14  1  0
 17 16  2  0
 19 18  1  1
 19 20  1  0
 20 16  1  0
 21 19  1  0
 22 21  1  0
 23 21  2  0
M  END
$$$$
