ELA.pdb
     RDKit          3D

 23 22  0  0  1  0  0  0  0  0999 V2000
   17.2869  -10.2962  -17.1419 N   0  0  0  0  0  0  0  0  0  0  0  0
   18.5057   -9.5207  -17.4793 C   0  0  1  0  0  0  0  0  0  0  0  0
   18.0505   -8.3003  -18.2137 C   0  0  0  0  0  0  0  0  0  0  0  0
   17.4761   -8.6002  -19.5523 C   0  0  0  0  0  0  0  0  0  0  0  0
   17.0747   -7.3706  -20.2558 C   0  0  0  0  0  0  0  0  0  0  0  0
   16.4690   -6.4445  -19.7024 O   0  0  0  0  0  0  0  0  0  0  0  0
   19.1488   -9.1283  -16.1903 C   0  0  0  0  0  0  0  0  0  0  0  0
   18.5179   -9.1255  -15.1250 O   0  0  0  0  0  0  0  0  0  0  0  0
   17.3781   -7.2138  -21.6108 O   0  0  0  0  0  0  0  0  0  0  0  0
   21.9191  -11.2188  -15.0082 C   0  0  0  0  0  0  0  0  0  0  0  0
   22.8512  -10.1978  -14.3521 C   0  0  1  0  0  0  0  0  0  0  0  0
   24.2414  -10.7314  -14.4554 C   0  0  0  0  0  0  0  0  0  0  0  0
   22.6422   -8.9037  -15.1009 C   0  0  0  0  0  0  0  0  0  0  0  0
   21.2302   -8.3698  -14.9495 C   0  0  2  0  0  0  0  0  0  0  0  0
   20.5204   -8.7429  -16.1535 N   0  0  0  0  0  0  0  0  0  0  0  0
   21.3630   -6.8760  -14.9290 C   0  0  0  0  0  0  0  0  0  0  0  0
   21.9087   -6.2940  -13.9627 O   0  0  0  0  0  0  0  0  0  0  0  0
   21.3172   -4.1230  -17.4321 C   0  0  0  0  0  0  0  0  0  0  0  0
   21.0547   -4.6418  -16.0408 C   0  0  2  0  0  0  0  0  0  0  0  0
   20.8853   -6.0632  -15.9843 N   0  0  0  0  0  0  0  0  0  0  0  0
   19.8356   -3.9701  -15.5367 C   0  0  0  0  0  0  0  0  0  0  0  0
   18.7151   -4.7036  -15.2666 O   0  0  0  0  0  0  0  0  0  0  0  0
   19.8696   -2.7410  -15.3724 O   0  0  0  0  0  0  0  0  0  0  0  0
  2  1  1  1
  2  7  1  0
  3  2  1  0
  4  3  1  0
  5  4  1  0
  5  6  2  0
  7 15  1  0
  8  7  2  0
  9  5  1  0
 11 10  1  6
 11 12  1  0
 13 11  1  0
 14 13  1  6
 15 14  1  0
 16 14  1  0
 17 16  2  0
 19 18  1  6
 19 20  1  0
 20 16  1  0
 21 19  1  0
 22 21  1  0
 23 21  2  0
M  END
$$$$
