ELA.pdb
     RDKit          3D

 23 22  0  0  1  0  0  0  0  0999 V2000
   20.2064  -11.8642  -20.1785 N   0  0  0  0  0  0  0  0  0  0  0  0
   21.3545  -10.9248  -20.1914 C   0  0  1  0  0  0  0  0  0  0  0  0
   20.9284   -9.7343  -20.9895 C   0  0  0  0  0  0  0  0  0  0  0  0
   19.4529   -9.5533  -21.0324 C   0  0  0  0  0  0  0  0  0  0  0  0
   19.0744   -8.3954  -21.8595 C   0  0  0  0  0  0  0  0  0  0  0  0
   17.9066   -8.0034  -21.9764 O   0  0  0  0  0  0  0  0  0  0  0  0
   21.6108  -10.5233  -18.7764 C   0  0  0  0  0  0  0  0  0  0  0  0
   20.6947  -10.4500  -17.9468 O   0  0  0  0  0  0  0  0  0  0  0  0
   20.0571   -7.6869  -22.5559 O   0  0  0  0  0  0  0  0  0  0  0  0
   24.5005  -10.7632  -14.4966 C   0  0  0  0  0  0  0  0  0  0  0  0
   25.2714   -9.8411  -15.4437 C   0  0  1  0  0  0  0  0  0  0  0  0
   26.7248  -10.1281  -15.2613 C   0  0  0  0  0  0  0  0  0  0  0  0
   24.7624  -10.1513  -16.8307 C   0  0  0  0  0  0  0  0  0  0  0  0
   23.2799   -9.8651  -16.9798 C   0  0  2  0  0  0  0  0  0  0  0  0
   22.9312  -10.2110  -18.3405 N   0  0  0  0  0  0  0  0  0  0  0  0
   23.1372   -8.3803  -16.8236 C   0  0  0  0  0  0  0  0  0  0  0  0
   23.8649   -7.5943  -17.4740 O   0  0  0  0  0  0  0  0  0  0  0  0
   20.6022   -5.9254  -16.0184 C   0  0  0  0  0  0  0  0  0  0  0  0
   22.0142   -6.3925  -15.7701 C   0  0  2  0  0  0  0  0  0  0  0  0
   22.1880   -7.8034  -15.9469 N   0  0  0  0  0  0  0  0  0  0  0  0
   22.3731   -6.0117  -14.3853 C   0  0  0  0  0  0  0  0  0  0  0  0
   22.6144   -4.7024  -14.0788 O   0  0  0  0  0  0  0  0  0  0  0  0
   22.4451   -6.9086  -13.5313 O   0  0  0  0  0  0  0  0  0  0  0  0
  2  1  1  1
  2  7  1  0
  3  2  1  0
  4  3  1  0
  5  4  1  0
  5  6  2  0
  7 15  1  0
  8  7  2  0
  9  5  1  0
 11 10  1  1
 11 12  1  0
 13 11  1  0
 14 13  1  6
 15 14  1  0
 16 14  1  0
 17 16  2  0
 19 18  1  1
 19 20  1  0
 20 16  1  0
 21 19  1  0
 22 21  1  0
 23 21  2  0
M  END
$$$$
