ELA.pdb
     RDKit          3D

 23 22  0  0  1  0  0  0  0  0999 V2000
   17.6809  -12.8619  -16.0838 N   0  0  0  0  0  0  0  0  0  0  0  0
   18.5657  -11.9203  -16.8127 C   0  0  1  0  0  0  0  0  0  0  0  0
   17.8132  -11.4723  -18.0247 C   0  0  0  0  0  0  0  0  0  0  0  0
   17.6835  -12.5315  -19.0605 C   0  0  0  0  0  0  0  0  0  0  0  0
   18.9557  -12.7546  -19.7675 C   0  0  0  0  0  0  0  0  0  0  0  0
   19.0744  -13.5519  -20.7062 O   0  0  0  0  0  0  0  0  0  0  0  0
   18.8119  -10.7580  -15.9085 C   0  0  0  0  0  0  0  0  0  0  0  0
   17.9727  -10.3969  -15.0730 O   0  0  0  0  0  0  0  0  0  0  0  0
   20.0983  -12.0479  -19.3833 O   0  0  0  0  0  0  0  0  0  0  0  0
   23.7583   -9.8191  -13.7978 C   0  0  0  0  0  0  0  0  0  0  0  0
   22.2304   -9.8659  -13.8691 C   0  0  1  0  0  0  0  0  0  0  0  0
   21.7094   -9.5131  -12.5155 C   0  0  0  0  0  0  0  0  0  0  0  0
   21.8348   -8.8837  -14.9451 C   0  0  0  0  0  0  0  0  0  0  0  0
   20.3368   -8.8612  -15.1848 C   0  0  2  0  0  0  0  0  0  0  0  0
   20.0329  -10.0270  -15.9855 N   0  0  0  0  0  0  0  0  0  0  0  0
   20.0793   -7.6413  -16.0184 C   0  0  0  0  0  0  0  0  0  0  0  0
   20.6329   -7.4981  -17.1335 O   0  0  0  0  0  0  0  0  0  0  0  0
   17.4628   -4.9490  -16.0797 C   0  0  0  0  0  0  0  0  0  0  0  0
   18.8292   -5.4949  -16.4095 C   0  0  2  0  0  0  0  0  0  0  0  0
   19.2114   -6.6079  -15.5926 N   0  0  0  0  0  0  0  0  0  0  0  0
   19.8025   -4.3919  -16.2433 C   0  0  0  0  0  0  0  0  0  0  0  0
   19.7382   -3.2972  -17.0581 O   0  0  0  0  0  0  0  0  0  0  0  0
   20.6611   -4.4976  -15.3542 O   0  0  0  0  0  0  0  0  0  0  0  0
  2  1  1  1
  2  7  1  0
  3  2  1  0
  4  3  1  0
  5  4  1  0
  5  6  2  0
  7 15  1  0
  8  7  2  0
  9  5  1  0
 11 10  1  1
 11 12  1  0
 13 11  1  0
 14 13  1  6
 15 14  1  0
 16 14  1  0
 17 16  2  0
 19 18  1  1
 19 20  1  0
 20 16  1  0
 21 19  1  0
 22 21  1  0
 23 21  2  0
M  END
$$$$
