HIP.pdb
     RDKit          3D

 26 27  0  0  1  0  0  0  0  0999 V2000
   13.8316  -23.8047   -0.3244 N   0  0  0  0  0  0  0  0  0  0  0  0
   13.9652  -23.9353    1.1089 C   0  0  1  0  0  0  0  0  0  0  0  0
   13.7472  -25.3511    1.5777 C   0  0  0  0  0  0  0  0  0  0  0  0
   12.3534  -25.8047    1.4169 C   0  0  0  0  0  0  0  0  0  0  0  0
   11.7895  -26.7201    0.5747 C   0  0  0  0  0  0  0  0  0  0  0  0
   10.4666  -26.7984    0.7962 N   0  0  0  0  0  0  0  0  0  0  0  0
   10.2157  -25.9194    1.7874 C   0  0  0  0  0  0  0  0  0  0  0  0
   11.3501  -25.3154    2.1676 N   0  0  0  0  0  0  0  0  0  0  0  0
   15.3584  -23.5838    1.4699 C   0  0  0  0  0  0  0  0  0  0  0  0
   16.2690  -23.8815    0.6630 O   0  0  0  0  0  0  0  0  0  0  0  0
   16.5059  -18.7781    3.0103 C   0  0  0  0  0  0  0  0  0  0  0  0
   16.5366  -20.1823    2.4434 C   0  0  0  0  0  0  0  0  0  0  0  0
   17.1686  -21.1530    3.3813 C   0  0  2  0  0  0  0  0  0  0  0  0
   18.4942  -20.6566    3.8378 C   0  0  0  0  0  0  0  0  0  0  0  0
   17.1247  -22.5822    2.8763 C   0  0  2  0  0  0  0  0  0  0  0  0
   15.7102  -22.9322    2.6739 N   0  0  0  0  0  0  0  0  0  0  0  0
   17.7416  -23.4931    3.8952 C   0  0  0  0  0  0  0  0  0  0  0  0
   17.3509  -23.2558    5.0649 O   0  0  0  0  0  0  0  0  0  0  0  0
   18.6598  -24.5167    3.5882 N   0  0  0  0  0  0  0  0  0  0  0  0
   18.8392  -25.1323    2.2475 C   0  0  0  0  0  0  0  0  0  0  0  0
   20.3188  -25.1266    2.0716 C   0  0  0  0  0  0  0  0  0  0  0  0
   20.8666  -25.0240    3.4777 C   0  0  0  0  0  0  0  0  0  0  0  0
   19.6059  -25.2429    4.3605 C   0  0  1  0  0  0  0  0  0  0  0  0
   19.8817  -24.9109    5.7262 C   0  0  0  0  0  0  0  0  0  0  0  0
   20.1264  -25.9597    6.6396 O   0  0  0  0  0  0  0  0  0  0  0  0
   19.9290  -23.7823    6.1982 O   0  0  0  0  0  0  0  0  0  0  0  0
  2  1  1  6
  3  2  1  0
  4  5  2  0
  4  3  1  0
  6  5  1  0
  7  8  2  0
  7  6  1  0
  8  4  1  0
  9 16  1  0
  9  2  1  0
 10  9  2  0
 12 11  1  0
 13 15  1  0
 13 12  1  0
 13 14  1  6
 15 16  1  1
 17 15  1  0
 18 17  2  0
 19 17  1  0
 19 20  1  0
 21 20  1  0
 22 23  1  0
 22 21  1  0
 23 24  1  1
 23 19  1  0
 24 25  1  0
 26 24  2  0
M  END
$$$$
