HIP.pdb
     RDKit          3D

 26 27  0  0  1  0  0  0  0  0999 V2000
   23.2535  -16.6935  -15.7685 N   0  0  0  0  0  0  0  0  0  0  0  0
   22.9414  -15.5393  -16.5807 C   0  0  1  0  0  0  0  0  0  0  0  0
   21.4570  -15.3041  -16.6952 C   0  0  0  0  0  0  0  0  0  0  0  0
   20.7581  -16.3720  -17.4339 C   0  0  0  0  0  0  0  0  0  0  0  0
   21.1996  -17.5591  -17.9448 C   0  0  0  0  0  0  0  0  0  0  0  0
   20.1877  -18.2091  -18.5437 N   0  0  0  0  0  0  0  0  0  0  0  0
   19.1113  -17.4102  -18.3982 C   0  0  0  0  0  0  0  0  0  0  0  0
   19.4478  -16.2988  -17.7290 N   0  0  0  0  0  0  0  0  0  0  0  0
   23.5048  -14.3448  -15.9093 C   0  0  0  0  0  0  0  0  0  0  0  0
   23.4244  -14.2778  -14.6612 O   0  0  0  0  0  0  0  0  0  0  0  0
   27.6027  -13.5643  -15.0687 C   0  0  0  0  0  0  0  0  0  0  0  0
   26.8913  -13.2343  -16.3645 C   0  0  0  0  0  0  0  0  0  0  0  0
   26.1138  -11.9662  -16.2713 C   0  0  2  0  0  0  0  0  0  0  0  0
   26.8920  -10.9238  -15.5504 C   0  0  0  0  0  0  0  0  0  0  0  0
   24.6853  -12.1776  -15.8085 C   0  0  2  0  0  0  0  0  0  0  0  0
   24.1258  -13.2816  -16.6035 N   0  0  0  0  0  0  0  0  0  0  0  0
   23.8940  -10.9243  -16.0361 C   0  0  0  0  0  0  0  0  0  0  0  0
   24.0772  -10.4294  -17.1757 O   0  0  0  0  0  0  0  0  0  0  0  0
   23.0268  -10.3526  -15.0841 N   0  0  0  0  0  0  0  0  0  0  0  0
   22.6500  -10.9730  -13.7874 C   0  0  0  0  0  0  0  0  0  0  0  0
   22.8291   -9.8563  -12.8173 C   0  0  0  0  0  0  0  0  0  0  0  0
   22.7632   -8.6050  -13.6643 C   0  0  0  0  0  0  0  0  0  0  0  0
   22.2851   -9.1413  -15.0429 C   0  0  1  0  0  0  0  0  0  0  0  0
   22.4242   -8.1346  -16.0522 C   0  0  0  0  0  0  0  0  0  0  0  0
   23.7008   -7.5733  -16.2743 O   0  0  0  0  0  0  0  0  0  0  0  0
   21.5280   -7.6974  -16.7625 O   0  0  0  0  0  0  0  0  0  0  0  0
  2  1  1  1
  3  2  1  0
  4  5  2  0
  4  3  1  0
  6  5  1  0
  7  8  2  0
  7  6  1  0
  8  4  1  0
  9 16  1  0
  9  2  1  0
 10  9  2  0
 12 11  1  0
 13 15  1  0
 13 12  1  0
 13 14  1  1
 15 16  1  6
 17 15  1  0
 18 17  2  0
 19 17  1  0
 19 20  1  0
 21 20  1  0
 22 23  1  0
 22 21  1  0
 23 24  1  6
 23 19  1  0
 24 25  1  0
 26 24  2  0
M  END
$$$$
