HIP.pdb
     RDKit          3D

 26 27  0  0  1  0  0  0  0  0999 V2000
   40.5935   -6.5937   -6.9953 N   0  0  0  0  0  0  0  0  0  0  0  0
   40.7069   -8.0288   -6.8654 C   0  0  1  0  0  0  0  0  0  0  0  0
   39.9100   -8.7632   -7.9130 C   0  0  0  0  0  0  0  0  0  0  0  0
   39.1984   -9.9390   -7.3786 C   0  0  0  0  0  0  0  0  0  0  0  0
   39.1101  -10.4476   -6.1141 C   0  0  0  0  0  0  0  0  0  0  0  0
   38.3387  -11.5477   -6.1116 N   0  0  0  0  0  0  0  0  0  0  0  0
   37.9487  -11.7161   -7.3913 C   0  0  0  0  0  0  0  0  0  0  0  0
   38.4638  -10.7485   -8.1625 N   0  0  0  0  0  0  0  0  0  0  0  0
   42.1257   -8.3947   -7.0847 C   0  0  0  0  0  0  0  0  0  0  0  0
   42.8224   -7.6455   -7.8074 O   0  0  0  0  0  0  0  0  0  0  0  0
   45.3761   -9.1412   -4.1141 C   0  0  0  0  0  0  0  0  0  0  0  0
   44.5211  -10.3567   -4.4069 C   0  0  0  0  0  0  0  0  0  0  0  0
   44.6528  -10.8086   -5.8210 C   0  0  2  0  0  0  0  0  0  0  0  0
   46.0100  -11.3624   -6.0720 C   0  0  0  0  0  0  0  0  0  0  0  0
   44.1495   -9.7860   -6.8212 C   0  0  2  0  0  0  0  0  0  0  0  0
   42.7300   -9.5418   -6.5218 N   0  0  0  0  0  0  0  0  0  0  0  0
   44.2985  -10.3286   -8.2111 C   0  0  0  0  0  0  0  0  0  0  0  0
   43.7140  -11.4283   -8.3729 O   0  0  0  0  0  0  0  0  0  0  0  0
   45.0106   -9.6819   -9.2405 N   0  0  0  0  0  0  0  0  0  0  0  0
   45.2711   -8.2207   -9.3145 C   0  0  0  0  0  0  0  0  0  0  0  0
   46.7249   -8.1554   -9.6341 C   0  0  0  0  0  0  0  0  0  0  0  0
   47.0421   -9.5082  -10.2317 C   0  0  0  0  0  0  0  0  0  0  0  0
   45.6359  -10.1401  -10.4314 C   0  0  1  0  0  0  0  0  0  0  0  0
   45.7478  -11.5346  -10.7385 C   0  0  0  0  0  0  0  0  0  0  0  0
   46.2860  -12.3999   -9.7610 O   0  0  0  0  0  0  0  0  0  0  0  0
   45.4168  -12.0703  -11.7884 O   0  0  0  0  0  0  0  0  0  0  0  0
  2  1  1  6
  3  2  1  0
  4  5  2  0
  4  3  1  0
  6  5  1  0
  7  8  2  0
  7  6  1  0
  8  4  1  0
  9 16  1  0
  9  2  1  0
 10  9  2  0
 12 11  1  0
 13 15  1  0
 13 12  1  0
 13 14  1  6
 15 16  1  1
 17 15  1  0
 18 17  2  0
 19 17  1  0
 19 20  1  0
 21 20  1  0
 22 23  1  0
 22 21  1  0
 23 24  1  1
 23 19  1  0
 24 25  1  0
 26 24  2  0
M  END
$$$$
