HIP.pdb
     RDKit          3D

 26 27  0  0  1  0  0  0  0  0999 V2000
   15.6844  -21.2772    1.4101 N   0  0  0  0  0  0  0  0  0  0  0  0
   15.3424  -20.5638    2.6198 C   0  0  1  0  0  0  0  0  0  0  0  0
   14.8770  -21.4868    3.7167 C   0  0  0  0  0  0  0  0  0  0  0  0
   13.5567  -22.0854    3.4466 C   0  0  0  0  0  0  0  0  0  0  0  0
   13.1910  -23.1869    2.7268 C   0  0  0  0  0  0  0  0  0  0  0  0
   11.8568  -23.3414    2.7645 N   0  0  0  0  0  0  0  0  0  0  0  0
   11.3981  -22.3211    3.5173 C   0  0  0  0  0  0  0  0  0  0  0  0
   12.4186  -21.5582    3.9329 N   0  0  0  0  0  0  0  0  0  0  0  0
   16.5701  -19.9028    3.1206 C   0  0  0  0  0  0  0  0  0  0  0  0
   17.6739  -20.4333    2.8578 O   0  0  0  0  0  0  0  0  0  0  0  0
   17.5667  -15.0436    1.9312 C   0  0  0  0  0  0  0  0  0  0  0  0
   17.6832  -16.4991    2.3340 C   0  0  0  0  0  0  0  0  0  0  0  0
   17.8268  -16.6642    3.8082 C   0  0  2  0  0  0  0  0  0  0  0  0
   18.9183  -15.7996    4.3306 C   0  0  0  0  0  0  0  0  0  0  0  0
   17.8541  -18.1165    4.2437 C   0  0  2  0  0  0  0  0  0  0  0  0
   16.5584  -18.7086    3.8767 N   0  0  0  0  0  0  0  0  0  0  0  0
   18.0545  -18.1911    5.7279 C   0  0  0  0  0  0  0  0  0  0  0  0
   17.2108  -17.5186    6.3705 O   0  0  0  0  0  0  0  0  0  0  0  0
   19.0734  -18.9378    6.3519 N   0  0  0  0  0  0  0  0  0  0  0  0
   19.8634  -20.0170    5.7041 C   0  0  0  0  0  0  0  0  0  0  0  0
   21.2650  -19.6763    6.0774 C   0  0  0  0  0  0  0  0  0  0  0  0
   21.1277  -18.7965    7.3000 C   0  0  0  0  0  0  0  0  0  0  0  0
   19.6224  -18.9348    7.6625 C   0  0  1  0  0  0  0  0  0  0  0  0
   19.2458  -17.9559    8.6379 C   0  0  0  0  0  0  0  0  0  0  0  0
   19.3523  -16.5893    8.2987 O   0  0  0  0  0  0  0  0  0  0  0  0
   18.8297  -18.1856    9.7662 O   0  0  0  0  0  0  0  0  0  0  0  0
  2  1  1  6
  3  2  1  0
  4  5  2  0
  4  3  1  0
  6  5  1  0
  7  8  2  0
  7  6  1  0
  8  4  1  0
  9 16  1  0
  9  2  1  0
 10  9  2  0
 12 11  1  0
 13 15  1  0
 13 12  1  0
 13 14  1  6
 15 16  1  1
 17 15  1  0
 18 17  2  0
 19 17  1  0
 19 20  1  0
 21 20  1  0
 22 23  1  0
 22 21  1  0
 23 24  1  1
 23 19  1  0
 24 25  1  0
 26 24  2  0
M  END
$$$$
