HIP.pdb
     RDKit          3D

 26 27  0  0  1  0  0  0  0  0999 V2000
   15.7704  -21.2731    1.4391 N   0  0  0  0  0  0  0  0  0  0  0  0
   15.5368  -20.5855    2.6889 C   0  0  1  0  0  0  0  0  0  0  0  0
   15.1057  -21.5239    3.7868 C   0  0  0  0  0  0  0  0  0  0  0  0
   13.7486  -22.0643    3.5853 C   0  0  0  0  0  0  0  0  0  0  0  0
   13.3134  -23.2577    3.0837 C   0  0  0  0  0  0  0  0  0  0  0  0
   11.9706  -23.3013    3.0947 N   0  0  0  0  0  0  0  0  0  0  0  0
   11.5769  -22.1191    3.6100 C   0  0  0  0  0  0  0  0  0  0  0  0
   12.6449  -21.3666    3.9087 N   0  0  0  0  0  0  0  0  0  0  0  0
   16.8202  -19.9890    3.1268 C   0  0  0  0  0  0  0  0  0  0  0  0
   17.8719  -20.6373    2.9207 O   0  0  0  0  0  0  0  0  0  0  0  0
   17.6665  -14.5094    3.2304 C   0  0  0  0  0  0  0  0  0  0  0  0
   17.4254  -15.8693    3.8521 C   0  0  0  0  0  0  0  0  0  0  0  0
   18.4134  -16.8832    3.3861 C   0  0  2  0  0  0  0  0  0  0  0  0
   18.4753  -16.9134    1.9005 C   0  0  0  0  0  0  0  0  0  0  0  0
   18.2614  -18.2234    4.0790 C   0  0  2  0  0  0  0  0  0  0  0  0
   16.9171  -18.7304    3.7628 N   0  0  0  0  0  0  0  0  0  0  0  0
   18.4100  -18.0418    5.5600 C   0  0  0  0  0  0  0  0  0  0  0  0
   17.5425  -17.2769    6.0493 O   0  0  0  0  0  0  0  0  0  0  0  0
   19.4086  -18.6621    6.3367 N   0  0  0  0  0  0  0  0  0  0  0  0
   20.2752  -19.7807    5.8826 C   0  0  0  0  0  0  0  0  0  0  0  0
   21.6367  -19.3387    6.2963 C   0  0  0  0  0  0  0  0  0  0  0  0
   21.3888  -18.3192    7.3857 C   0  0  0  0  0  0  0  0  0  0  0  0
   19.8678  -18.4725    7.6680 C   0  0  1  0  0  0  0  0  0  0  0  0
   19.3947  -17.3954    8.4850 C   0  0  0  0  0  0  0  0  0  0  0  0
   19.1566  -16.1426    7.8787 O   0  0  0  0  0  0  0  0  0  0  0  0
   19.1686  -17.4481    9.6871 O   0  0  0  0  0  0  0  0  0  0  0  0
  2  1  1  6
  3  2  1  0
  4  5  2  0
  4  3  1  0
  6  5  1  0
  7  8  2  0
  7  6  1  0
  8  4  1  0
  9 16  1  0
  9  2  1  0
 10  9  2  0
 12 11  1  0
 13 15  1  0
 13 12  1  0
 13 14  1  6
 15 16  1  1
 17 15  1  0
 18 17  2  0
 19 17  1  0
 19 20  1  0
 21 20  1  0
 22 23  1  0
 22 21  1  0
 23 24  1  6
 23 19  1  0
 24 25  1  0
 26 24  2  0
M  END
$$$$
