HIP.pdb
     RDKit          3D

 26 27  0  0  1  0  0  0  0  0999 V2000
   24.6645  -21.9129  -12.5927 N   0  0  0  0  0  0  0  0  0  0  0  0
   24.5891  -20.8633  -11.6018 C   0  0  1  0  0  0  0  0  0  0  0  0
   23.3198  -20.9306  -10.7919 C   0  0  0  0  0  0  0  0  0  0  0  0
   22.1192  -20.5695  -11.5682 C   0  0  0  0  0  0  0  0  0  0  0  0
   21.8158  -19.4601  -12.3047 C   0  0  0  0  0  0  0  0  0  0  0  0
   20.5886  -19.5811  -12.8381 N   0  0  0  0  0  0  0  0  0  0  0  0
   20.1332  -20.7805  -12.4233 C   0  0  0  0  0  0  0  0  0  0  0  0
   21.0518  -21.3835  -11.6559 N   0  0  0  0  0  0  0  0  0  0  0  0
   25.7060  -21.0570  -10.6480 C   0  0  0  0  0  0  0  0  0  0  0  0
   25.9742  -22.2252  -10.2843 O   0  0  0  0  0  0  0  0  0  0  0  0
   29.3954  -18.9033  -12.1724 C   0  0  0  0  0  0  0  0  0  0  0  0
   29.1202  -20.0867  -11.2680 C   0  0  0  0  0  0  0  0  0  0  0  0
   28.8507  -19.6692   -9.8629 C   0  0  2  0  0  0  0  0  0  0  0  0
   30.0932  -19.7322   -9.0479 C   0  0  0  0  0  0  0  0  0  0  0  0
   27.6244  -20.3354   -9.2697 C   0  0  2  0  0  0  0  0  0  0  0  0
   26.4810  -19.9944  -10.1301 N   0  0  0  0  0  0  0  0  0  0  0  0
   27.3970  -19.8203   -7.8799 C   0  0  0  0  0  0  0  0  0  0  0  0
   26.8834  -18.6744   -7.8601 O   0  0  0  0  0  0  0  0  0  0  0  0
   27.7146  -20.5366   -6.7090 N   0  0  0  0  0  0  0  0  0  0  0  0
   27.9640  -22.0001   -6.6416 C   0  0  0  0  0  0  0  0  0  0  0  0
   29.2130  -22.0901   -5.8341 C   0  0  0  0  0  0  0  0  0  0  0  0
   29.2696  -20.7815   -5.0777 C   0  0  0  0  0  0  0  0  0  0  0  0
   27.8699  -20.1614   -5.3473 C   0  0  1  0  0  0  0  0  0  0  0  0
   27.8360  -18.7912   -4.9319 C   0  0  0  0  0  0  0  0  0  0  0  0
   26.9096  -18.4105   -3.9364 O   0  0  0  0  0  0  0  0  0  0  0  0
   28.5452  -17.8901   -5.3608 O   0  0  0  0  0  0  0  0  0  0  0  0
  2  1  1  6
  3  2  1  0
  4  5  2  0
  4  3  1  0
  6  5  1  0
  7  8  2  0
  7  6  1  0
  8  4  1  0
  9 16  1  0
  9  2  1  0
 10  9  2  0
 12 11  1  0
 13 15  1  0
 13 12  1  0
 13 14  1  1
 15 16  1  6
 17 15  1  0
 18 17  2  0
 19 17  1  0
 19 20  1  0
 21 20  1  0
 22 23  1  0
 22 21  1  0
 23 24  1  6
 23 19  1  0
 24 25  1  0
 26 24  2  0
M  END
$$$$
