HIP.pdb
     RDKit          3D

 26 27  0  0  1  0  0  0  0  0999 V2000
   26.0090  -20.9307  -13.1945 N   0  0  0  0  0  0  0  0  0  0  0  0
   26.9963  -19.9854  -12.7245 C   0  0  1  0  0  0  0  0  0  0  0  0
   27.0099  -18.7183  -13.5406 C   0  0  0  0  0  0  0  0  0  0  0  0
   27.5673  -18.9077  -14.8925 C   0  0  0  0  0  0  0  0  0  0  0  0
   27.9844  -20.0284  -15.5522 C   0  0  0  0  0  0  0  0  0  0  0  0
   28.4212  -19.7055  -16.7811 N   0  0  0  0  0  0  0  0  0  0  0  0
   28.2700  -18.3691  -16.8765 C   0  0  0  0  0  0  0  0  0  0  0  0
   27.7548  -17.8800  -15.7400 N   0  0  0  0  0  0  0  0  0  0  0  0
   26.6285  -19.5916  -11.3445 C   0  0  0  0  0  0  0  0  0  0  0  0
   25.7310  -18.7304  -11.1970 O   0  0  0  0  0  0  0  0  0  0  0  0
   23.1938  -21.1039   -7.6021 C   0  0  0  0  0  0  0  0  0  0  0  0
   24.4645  -20.2812   -7.6533 C   0  0  0  0  0  0  0  0  0  0  0  0
   25.2438  -20.5283   -8.8995 C   0  0  2  0  0  0  0  0  0  0  0  0
   25.2170  -21.9711   -9.2594 C   0  0  0  0  0  0  0  0  0  0  0  0
   26.6069  -19.8641   -8.8896 C   0  0  2  0  0  0  0  0  0  0  0  0
   27.2368  -20.1366  -10.1908 N   0  0  0  0  0  0  0  0  0  0  0  0
   27.4376  -20.4409   -7.7826 C   0  0  0  0  0  0  0  0  0  0  0  0
   27.4307  -21.6967   -7.7681 O   0  0  0  0  0  0  0  0  0  0  0  0
   28.1612  -19.6691   -6.8520 N   0  0  0  0  0  0  0  0  0  0  0  0
   28.9525  -18.4543   -7.1782 C   0  0  0  0  0  0  0  0  0  0  0  0
   28.5188  -17.4821   -6.1357 C   0  0  0  0  0  0  0  0  0  0  0  0
   27.9608  -18.3430   -5.0243 C   0  0  0  0  0  0  0  0  0  0  0  0
   28.3772  -19.7784   -5.4518 C   0  0  1  0  0  0  0  0  0  0  0  0
   27.7005  -20.7586   -4.6564 C   0  0  0  0  0  0  0  0  0  0  0  0
   28.4180  -21.4033   -3.6251 O   0  0  0  0  0  0  0  0  0  0  0  0
   26.5330  -21.1061   -4.7799 O   0  0  0  0  0  0  0  0  0  0  0  0
  2  1  1  6
  3  2  1  0
  4  5  2  0
  4  3  1  0
  6  5  1  0
  7  8  2  0
  7  6  1  0
  8  4  1  0
  9 16  1  0
  9  2  1  0
 10  9  2  0
 12 11  1  0
 13 15  1  0
 13 12  1  0
 13 14  1  1
 15 16  1  6
 17 15  1  0
 18 17  2  0
 19 17  1  0
 19 20  1  0
 21 20  1  0
 22 23  1  0
 22 21  1  0
 23 24  1  1
 23 19  1  0
 24 25  1  0
 26 24  2  0
M  END
$$$$
