VNT.pdb
     RDKit          3D

 23 22  0  0  1  0  0  0  0  0999 V2000
   17.8604   -8.1251  -18.1323 C   0  0  0  0  0  0  0  0  0  0  0  0
   18.3396   -9.3899  -17.4409 C   0  0  1  0  0  0  0  0  0  0  0  0
   18.5168  -10.4802  -18.4443 C   0  0  0  0  0  0  0  0  0  0  0  0
   19.5658   -9.1205  -16.6005 C   0  0  2  0  0  0  0  0  0  0  0  0
   19.9394  -10.3761  -16.0066 N   0  0  0  0  0  0  0  0  0  0  0  0
   19.3221   -8.1258  -15.5424 C   0  0  0  0  0  0  0  0  0  0  0  0
   18.7030   -8.4297  -14.4806 O   0  0  0  0  0  0  0  0  0  0  0  0
   23.0238   -4.6357  -14.0465 N   0  0  0  0  0  0  0  0  0  0  0  0
   22.1377   -5.7317  -14.1871 C   0  0  0  0  0  0  0  0  0  0  0  0
   22.5562   -6.7566  -14.7827 O   0  0  0  0  0  0  0  0  0  0  0  0
   20.7509   -5.7340  -13.6716 C   0  0  0  0  0  0  0  0  0  0  0  0
   19.7745   -5.7073  -14.8287 C   0  0  2  0  0  0  0  0  0  0  0  0
   19.7846   -6.8139  -15.7098 N   0  0  0  0  0  0  0  0  0  0  0  0
   19.5992   -4.3862  -15.4435 C   0  0  0  0  0  0  0  0  0  0  0  0
   20.2727   -3.9786  -16.4252 O   0  0  0  0  0  0  0  0  0  0  0  0
   16.4986   -0.5249  -15.9238 C   0  0  0  0  0  0  0  0  0  0  0  0
   17.0404   -1.6587  -15.0750 C   0  0  1  0  0  0  0  0  0  0  0  0
   16.0969   -2.6862  -15.1409 O   0  0  0  0  0  0  0  0  0  0  0  0
   18.3241   -2.2203  -15.6523 C   0  0  2  0  0  0  0  0  0  0  0  0
   18.6169   -3.4615  -14.9408 N   0  0  0  0  0  0  0  0  0  0  0  0
   19.4255   -1.2573  -15.2888 C   0  0  0  0  0  0  0  0  0  0  0  0
   19.7974   -0.3186  -16.2374 O   0  0  0  0  0  0  0  0  0  0  0  0
   19.9977   -1.2955  -14.1616 O   0  0  0  0  0  0  0  0  0  0  0  0
  2  1  1  6
  2  3  1  0
  4  2  1  0
  4  5  1  1
  6  4  1  0
  6  7  2  0
  8  9  1  0
  9 11  1  0
 10  9  2  0
 12 11  1  6
 12 13  1  0
 13  6  1  0
 14 12  1  0
 15 14  2  0
 17 16  1  6
 17 18  1  0
 19 20  1  1
 19 17  1  0
 20 14  1  0
 21 19  1  0
 22 21  1  0
 23 21  2  0
M  END
$$$$
