VNT.pdb
     RDKit          3D

 23 22  0  0  1  0  0  0  0  0999 V2000
   49.1290  -12.1862   -5.7687 C   0  0  0  0  0  0  0  0  0  0  0  0
   47.9230  -11.3592   -6.1797 C   0  0  1  0  0  0  0  0  0  0  0  0
   48.2639  -10.5203   -7.3657 C   0  0  0  0  0  0  0  0  0  0  0  0
   46.7040  -12.2309   -6.3712 C   0  0  2  0  0  0  0  0  0  0  0  0
   47.0148  -13.1406   -7.4411 N   0  0  0  0  0  0  0  0  0  0  0  0
   45.4997  -11.4562   -6.7146 C   0  0  0  0  0  0  0  0  0  0  0  0
   45.0474  -11.4287   -7.8969 O   0  0  0  0  0  0  0  0  0  0  0  0
   41.3628   -8.3852   -6.0220 N   0  0  0  0  0  0  0  0  0  0  0  0
   41.2851   -9.5956   -5.2907 C   0  0  0  0  0  0  0  0  0  0  0  0
   40.1590   -9.9563   -4.8639 O   0  0  0  0  0  0  0  0  0  0  0  0
   42.4549  -10.4547   -5.0037 C   0  0  0  0  0  0  0  0  0  0  0  0
   43.6625   -9.9458   -5.7627 C   0  0  2  0  0  0  0  0  0  0  0  0
   44.8364  -10.7335   -5.7143 N   0  0  0  0  0  0  0  0  0  0  0  0
   43.8501   -8.4917   -5.6984 C   0  0  0  0  0  0  0  0  0  0  0  0
   44.1976   -7.8784   -4.6560 O   0  0  0  0  0  0  0  0  0  0  0  0
   45.4881   -6.4549   -8.8866 C   0  0  0  0  0  0  0  0  0  0  0  0
   44.2301   -5.8427   -8.3015 C   0  0  1  0  0  0  0  0  0  0  0  0
   43.1596   -6.3803   -9.0192 O   0  0  0  0  0  0  0  0  0  0  0  0
   44.0289   -6.2594   -6.8585 C   0  0  2  0  0  0  0  0  0  0  0  0
   43.6416   -7.6674   -6.8602 N   0  0  0  0  0  0  0  0  0  0  0  0
   42.8352   -5.4955   -6.3447 C   0  0  0  0  0  0  0  0  0  0  0  0
   42.9745   -4.1285   -6.1681 O   0  0  0  0  0  0  0  0  0  0  0  0
   41.7404   -6.0709   -6.0802 O   0  0  0  0  0  0  0  0  0  0  0  0
  2  1  1  6
  2  3  1  0
  4  2  1  0
  4  5  1  6
  6  4  1  0
  6  7  2  0
  8  9  1  0
  9 11  1  0
 10  9  2  0
 12 11  1  1
 12 13  1  0
 13  6  1  0
 14 12  1  0
 15 14  2  0
 17 16  1  6
 17 18  1  0
 19 20  1  6
 19 17  1  0
 20 14  1  0
 21 19  1  0
 22 21  1  0
 23 21  2  0
M  END
$$$$
