VNT.pdb
     RDKit          3D

 23 22  0  0  1  0  0  0  0  0999 V2000
   11.8563   -9.0728   -9.1766 C   0  0  0  0  0  0  0  0  0  0  0  0
   11.5380  -10.5578   -9.1485 C   0  0  1  0  0  0  0  0  0  0  0  0
   10.0611  -10.7585   -9.0764 C   0  0  0  0  0  0  0  0  0  0  0  0
   12.2027  -11.2796  -10.2974 C   0  0  2  0  0  0  0  0  0  0  0  0
   11.9151  -12.6781  -10.1239 N   0  0  0  0  0  0  0  0  0  0  0  0
   13.6605  -11.0745  -10.3299 C   0  0  0  0  0  0  0  0  0  0  0  0
   14.4664  -12.0387  -10.1742 O   0  0  0  0  0  0  0  0  0  0  0  0
   18.0992   -8.5868  -11.3859 N   0  0  0  0  0  0  0  0  0  0  0  0
   17.5727   -9.6773  -12.1204 C   0  0  0  0  0  0  0  0  0  0  0  0
   18.3228  -10.2442  -12.9548 O   0  0  0  0  0  0  0  0  0  0  0  0
   16.1917  -10.1827  -11.9579 C   0  0  0  0  0  0  0  0  0  0  0  0
   15.4604   -9.3513  -10.9249 C   0  0  2  0  0  0  0  0  0  0  0  0
   14.1711   -9.7867  -10.5386 N   0  0  0  0  0  0  0  0  0  0  0  0
   15.6417   -7.9026  -11.0740 C   0  0  0  0  0  0  0  0  0  0  0  0
   15.3423   -7.2657  -12.1173 O   0  0  0  0  0  0  0  0  0  0  0  0
   14.9568   -5.4471   -7.7779 C   0  0  0  0  0  0  0  0  0  0  0  0
   16.2148   -5.1789   -8.5811 C   0  0  1  0  0  0  0  0  0  0  0  0
   17.2226   -5.9560   -8.0061 O   0  0  0  0  0  0  0  0  0  0  0  0
   16.0721   -5.6557  -10.0125 C   0  0  2  0  0  0  0  0  0  0  0  0
   16.1862   -7.1115  -10.0015 N   0  0  0  0  0  0  0  0  0  0  0  0
   17.2740   -5.1453  -10.7656 C   0  0  0  0  0  0  0  0  0  0  0  0
   17.3505   -3.7831  -11.0066 O   0  0  0  0  0  0  0  0  0  0  0  0
   18.1862   -5.9230  -11.1689 O   0  0  0  0  0  0  0  0  0  0  0  0
  2  1  1  6
  2  3  1  0
  4  2  1  0
  4  5  1  1
  6  4  1  0
  6  7  2  0
  8  9  1  0
  9 11  1  0
 10  9  2  0
 12 11  1  6
 12 13  1  0
 13  6  1  0
 14 12  1  0
 15 14  2  0
 17 16  1  1
 17 18  1  0
 19 20  1  1
 19 17  1  0
 20 14  1  0
 21 19  1  0
 22 21  1  0
 23 21  2  0
M  END
$$$$
