VNT.pdb
     RDKit          3D

 23 22  0  0  1  0  0  0  0  0999 V2000
   19.8256  -12.6927  -16.4123 C   0  0  0  0  0  0  0  0  0  0  0  0
   19.7900  -11.4527  -15.5356 C   0  0  1  0  0  0  0  0  0  0  0  0
   21.1145  -11.2603  -14.8755 C   0  0  0  0  0  0  0  0  0  0  0  0
   19.3077  -10.2498  -16.3121 C   0  0  2  0  0  0  0  0  0  0  0  0
   20.2038  -10.0954  -17.4265 N   0  0  0  0  0  0  0  0  0  0  0  0
   19.3037   -9.0175  -15.5060 C   0  0  0  0  0  0  0  0  0  0  0  0
   18.4482   -8.8295  -14.5918 O   0  0  0  0  0  0  0  0  0  0  0  0
   20.5263   -4.7200  -13.2756 N   0  0  0  0  0  0  0  0  0  0  0  0
   21.7474   -5.2869  -13.7155 C   0  0  0  0  0  0  0  0  0  0  0  0
   22.8165   -4.8313  -13.2360 O   0  0  0  0  0  0  0  0  0  0  0  0
   21.8309   -6.3829  -14.7058 C   0  0  0  0  0  0  0  0  0  0  0  0
   20.4416   -6.7444  -15.1879 C   0  0  2  0  0  0  0  0  0  0  0  0
   20.2664   -8.0297  -15.7519 N   0  0  0  0  0  0  0  0  0  0  0  0
   19.7200   -5.6437  -15.8372 C   0  0  0  0  0  0  0  0  0  0  0  0
   19.9551   -5.2507  -17.0093 O   0  0  0  0  0  0  0  0  0  0  0  0
   15.7025   -2.6976  -15.7007 C   0  0  0  0  0  0  0  0  0  0  0  0
   16.6230   -3.6976  -15.0281 C   0  0  1  0  0  0  0  0  0  0  0  0
   15.9522   -4.9224  -15.0424 O   0  0  0  0  0  0  0  0  0  0  0  0
   17.8981   -3.8998  -15.8216 C   0  0  2  0  0  0  0  0  0  0  0  0
   18.6732   -4.9369  -15.1462 N   0  0  0  0  0  0  0  0  0  0  0  0
   18.6979   -2.6282  -15.6962 C   0  0  0  0  0  0  0  0  0  0  0  0
   18.7915   -1.8151  -16.8140 O   0  0  0  0  0  0  0  0  0  0  0  0
   19.2684   -2.3047  -14.6148 O   0  0  0  0  0  0  0  0  0  0  0  0
  2  1  1  6
  2  3  1  0
  4  2  1  0
  4  5  1  6
  6  4  1  0
  6  7  2  0
  8  9  1  0
  9 11  1  0
 10  9  2  0
 12 11  1  6
 12 13  1  0
 13  6  1  0
 14 12  1  0
 15 14  2  0
 17 16  1  6
 17 18  1  0
 19 20  1  1
 19 17  1  0
 20 14  1  0
 21 19  1  0
 22 21  1  0
 23 21  2  0
M  END
$$$$
