VNT.pdb
     RDKit          3D

 23 22  0  0  1  0  0  0  0  0999 V2000
   11.3612   -9.9555  -11.4657 C   0  0  0  0  0  0  0  0  0  0  0  0
   11.6731  -11.4412  -11.5204 C   0  0  1  0  0  0  0  0  0  0  0  0
   10.6006  -12.1571  -12.2714 C   0  0  0  0  0  0  0  0  0  0  0  0
   13.0661  -11.6864  -12.0514 C   0  0  2  0  0  0  0  0  0  0  0  0
   13.2950  -13.1036  -11.9620 N   0  0  0  0  0  0  0  0  0  0  0  0
   14.1001  -10.9691  -11.2868 C   0  0  0  0  0  0  0  0  0  0  0  0
   14.2998  -11.2098  -10.0599 O   0  0  0  0  0  0  0  0  0  0  0  0
   18.6516   -8.4111   -9.9820 N   0  0  0  0  0  0  0  0  0  0  0  0
   18.1442   -8.2474  -11.2942 C   0  0  0  0  0  0  0  0  0  0  0  0
   18.4626   -7.2076  -11.9249 O   0  0  0  0  0  0  0  0  0  0  0  0
   17.2626   -9.2320  -11.9593 C   0  0  0  0  0  0  0  0  0  0  0  0
   15.8542   -9.1066  -11.4173 C   0  0  2  0  0  0  0  0  0  0  0  0
   14.8827   -9.9994  -11.9272 N   0  0  0  0  0  0  0  0  0  0  0  0
   15.4138   -7.7255  -11.1880 C   0  0  0  0  0  0  0  0  0  0  0  0
   14.9389   -6.9860  -12.0887 O   0  0  0  0  0  0  0  0  0  0  0  0
   13.7305   -6.2451   -7.6264 C   0  0  0  0  0  0  0  0  0  0  0  0
   14.9598   -5.5409   -8.1672 C   0  0  1  0  0  0  0  0  0  0  0  0
   16.0622   -6.1653   -7.5799 O   0  0  0  0  0  0  0  0  0  0  0  0
   15.1020   -5.7415   -9.6626 C   0  0  2  0  0  0  0  0  0  0  0  0
   15.5036   -7.1283   -9.8811 N   0  0  0  0  0  0  0  0  0  0  0  0
   16.2641   -4.8917  -10.1096 C   0  0  0  0  0  0  0  0  0  0  0  0
   16.0844   -3.5181  -10.1325 O   0  0  0  0  0  0  0  0  0  0  0  0
   17.3683   -5.4027  -10.4544 O   0  0  0  0  0  0  0  0  0  0  0  0
  2  1  1  6
  2  3  1  0
  4  2  1  0
  4  5  1  1
  6  4  1  0
  6  7  2  0
  8  9  1  0
  9 11  1  0
 10  9  2  0
 12 11  1  6
 12 13  1  0
 13  6  1  0
 14 12  1  0
 15 14  2  0
 17 16  1  1
 17 18  1  0
 19 20  1  1
 19 17  1  0
 20 14  1  0
 21 19  1  0
 22 21  1  0
 23 21  2  0
M  END
$$$$
