VNT.pdb
     RDKit          3D

 23 22  0  0  1  0  0  0  0  0999 V2000
   20.7304  -11.5550  -16.5995 C   0  0  0  0  0  0  0  0  0  0  0  0
   19.2864  -11.9721  -16.8194 C   0  0  1  0  0  0  0  0  0  0  0  0
   19.2117  -13.4470  -17.0335 C   0  0  0  0  0  0  0  0  0  0  0  0
   18.3973  -11.4648  -15.7082 C   0  0  2  0  0  0  0  0  0  0  0  0
   17.0916  -12.0208  -15.9420 N   0  0  0  0  0  0  0  0  0  0  0  0
   18.3107   -9.9952  -15.6759 C   0  0  0  0  0  0  0  0  0  0  0  0
   18.1043   -9.3228  -16.7288 O   0  0  0  0  0  0  0  0  0  0  0  0
   16.1340   -7.9616  -15.6480 N   0  0  0  0  0  0  0  0  0  0  0  0
   16.1016   -7.4158  -14.3415 C   0  0  0  0  0  0  0  0  0  0  0  0
   15.0103   -6.9549  -13.9211 O   0  0  0  0  0  0  0  0  0  0  0  0
   17.2800   -7.3599  -13.4487 C   0  0  0  0  0  0  0  0  0  0  0  0
   18.4866   -7.9403  -14.1562 C   0  0  2  0  0  0  0  0  0  0  0  0
   18.4582   -9.3224  -14.4558 N   0  0  0  0  0  0  0  0  0  0  0  0
   19.7732   -7.3975  -13.7046 C   0  0  0  0  0  0  0  0  0  0  0  0
   20.3214   -7.7152  -12.6174 O   0  0  0  0  0  0  0  0  0  0  0  0
   23.0659   -7.4584  -15.7213 C   0  0  0  0  0  0  0  0  0  0  0  0
   22.7063   -6.0341  -15.3446 C   0  0  1  0  0  0  0  0  0  0  0  0
   21.9360   -5.5311  -16.3953 O   0  0  0  0  0  0  0  0  0  0  0  0
   21.8266   -5.9909  -14.1115 C   0  0  2  0  0  0  0  0  0  0  0  0
   20.4968   -6.4463  -14.5072 N   0  0  0  0  0  0  0  0  0  0  0  0
   21.6781   -4.5400  -13.7304 C   0  0  0  0  0  0  0  0  0  0  0  0
   22.7459   -3.9308  -13.0916 O   0  0  0  0  0  0  0  0  0  0  0  0
   20.6211   -3.8915  -13.9790 O   0  0  0  0  0  0  0  0  0  0  0  0
  2  1  1  1
  2  3  1  0
  4  2  1  0
  4  5  1  6
  6  4  1  0
  6  7  2  0
  8  9  1  0
  9 11  1  0
 10  9  2  0
 12 11  1  1
 12 13  1  0
 13  6  1  0
 14 12  1  0
 15 14  2  0
 17 16  1  6
 17 18  1  0
 19 20  1  6
 19 17  1  0
 20 14  1  0
 21 19  1  0
 22 21  1  0
 23 21  2  0
M  END
$$$$
