VNT.pdb
     RDKit          3D

 23 22  0  0  1  0  0  0  0  0999 V2000
   17.7631   -6.1543  -17.1653 C   0  0  0  0  0  0  0  0  0  0  0  0
   16.6774   -7.2054  -17.0108 C   0  0  1  0  0  0  0  0  0  0  0  0
   15.5950   -6.9670  -18.0100 C   0  0  0  0  0  0  0  0  0  0  0  0
   17.2585   -8.5994  -17.0525 C   0  0  2  0  0  0  0  0  0  0  0  0
   16.1634   -9.5064  -16.8357 N   0  0  0  0  0  0  0  0  0  0  0  0
   18.2908   -8.8156  -16.0250 C   0  0  0  0  0  0  0  0  0  0  0  0
   17.9849   -8.9965  -14.8097 O   0  0  0  0  0  0  0  0  0  0  0  0
   23.0149   -9.1433  -13.9178 N   0  0  0  0  0  0  0  0  0  0  0  0
   22.8397  -10.1272  -14.9214 C   0  0  0  0  0  0  0  0  0  0  0  0
   23.6880  -11.0518  -14.9962 O   0  0  0  0  0  0  0  0  0  0  0  0
   21.7149  -10.1243  -15.8825 C   0  0  0  0  0  0  0  0  0  0  0  0
   20.8171   -8.9341  -15.6166 C   0  0  2  0  0  0  0  0  0  0  0  0
   19.6418   -8.8231  -16.3959 N   0  0  0  0  0  0  0  0  0  0  0  0
   21.5343   -7.6845  -15.3370 C   0  0  0  0  0  0  0  0  0  0  0  0
   22.5110   -7.6022  -14.5479 O   0  0  0  0  0  0  0  0  0  0  0  0
   20.5408   -4.2007  -17.5728 C   0  0  0  0  0  0  0  0  0  0  0  0
   21.9272   -4.4325  -17.0039 C   0  0  1  0  0  0  0  0  0  0  0  0
   22.4377   -3.1725  -16.6842 O   0  0  0  0  0  0  0  0  0  0  0  0
   21.8717   -5.2126  -15.7059 C   0  0  2  0  0  0  0  0  0  0  0  0
   21.1464   -6.4518  -15.9716 N   0  0  0  0  0  0  0  0  0  0  0  0
   21.0134   -4.4186  -14.7545 C   0  0  0  0  0  0  0  0  0  0  0  0
   21.5762   -3.2998  -14.1622 O   0  0  0  0  0  0  0  0  0  0  0  0
   19.8208   -4.7522  -14.4975 O   0  0  0  0  0  0  0  0  0  0  0  0
  2  1  1  6
  2  3  1  0
  4  2  1  0
  4  5  1  1
  6  4  1  0
  6  7  2  0
  8  9  1  0
  9 11  1  0
 10  9  2  0
 12 11  1  6
 12 13  1  0
 13  6  1  0
 14 12  1  0
 15 14  2  0
 17 16  1  1
 17 18  1  0
 19 20  1  6
 19 17  1  0
 20 14  1  0
 21 19  1  0
 22 21  1  0
 23 21  2  0
M  END
$$$$
