VNT.pdb
     RDKit          3D

 23 22  0  0  1  0  0  0  0  0999 V2000
   14.6830   -9.2250  -17.9695 C   0  0  0  0  0  0  0  0  0  0  0  0
   14.8509  -10.6116  -17.3724 C   0  0  1  0  0  0  0  0  0  0  0  0
   14.4580  -11.6459  -18.3738 C   0  0  0  0  0  0  0  0  0  0  0  0
   16.2397  -10.7972  -16.8073 C   0  0  2  0  0  0  0  0  0  0  0  0
   16.2847  -12.1261  -16.2590 N   0  0  0  0  0  0  0  0  0  0  0  0
   16.5611   -9.8172  -15.7562 C   0  0  0  0  0  0  0  0  0  0  0  0
   16.0553   -9.9012  -14.5985 O   0  0  0  0  0  0  0  0  0  0  0  0
   19.0150   -9.3281  -12.6551 N   0  0  0  0  0  0  0  0  0  0  0  0
   19.4534   -9.0701  -13.9769 C   0  0  0  0  0  0  0  0  0  0  0  0
   20.0236   -9.9999  -14.6019 O   0  0  0  0  0  0  0  0  0  0  0  0
   19.2762   -7.7689  -14.6584 C   0  0  0  0  0  0  0  0  0  0  0  0
   17.8820   -7.6830  -15.2434 C   0  0  2  0  0  0  0  0  0  0  0  0
   17.4459   -8.7684  -16.0388 N   0  0  0  0  0  0  0  0  0  0  0  0
   17.4993   -6.3428  -15.7031 C   0  0  0  0  0  0  0  0  0  0  0  0
   17.8387   -5.8635  -16.8160 O   0  0  0  0  0  0  0  0  0  0  0  0
   13.8334   -4.7590  -15.2378 C   0  0  0  0  0  0  0  0  0  0  0  0
   14.9332   -3.8580  -14.7100 C   0  0  1  0  0  0  0  0  0  0  0  0
   15.0756   -4.1625  -13.3545 O   0  0  0  0  0  0  0  0  0  0  0  0
   16.2663   -4.1697  -15.3599 C   0  0  2  0  0  0  0  0  0  0  0  0
   16.6900   -5.4822  -14.8802 N   0  0  0  0  0  0  0  0  0  0  0  0
   17.2624   -3.1799  -14.8116 C   0  0  0  0  0  0  0  0  0  0  0  0
   17.1884   -1.8739  -15.2679 O   0  0  0  0  0  0  0  0  0  0  0  0
   18.1396   -3.5178  -13.9655 O   0  0  0  0  0  0  0  0  0  0  0  0
  2  1  1  6
  2  3  1  0
  4  2  1  0
  4  5  1  1
  6  4  1  0
  6  7  2  0
  8  9  1  0
  9 11  1  0
 10  9  2  0
 12 11  1  6
 12 13  1  0
 13  6  1  0
 14 12  1  0
 15 14  2  0
 17 16  1  6
 17 18  1  0
 19 20  1  1
 19 17  1  0
 20 14  1  0
 21 19  1  0
 22 21  1  0
 23 21  2  0
M  END
$$$$
