YRE.pdb
     RDKit          3D

 33 33  0  0  1  0  0  0  0  0999 V2000
    6.7896  -10.5094   28.2824 O   0  0  0  0  0  0  0  0  0  0  0  0
    6.7242  -11.4818   27.2949 C   0  0  0  0  0  0  0  0  0  0  0  0
    7.8331  -11.6516   26.4879 C   0  0  0  0  0  0  0  0  0  0  0  0
    7.7987  -12.5961   25.5119 C   0  0  0  0  0  0  0  0  0  0  0  0
    6.6932  -13.4100   25.2806 C   0  0  0  0  0  0  0  0  0  0  0  0
    6.7303  -14.4051   24.2129 C   0  0  0  0  0  0  0  0  0  0  0  0
    7.1960  -15.7317   24.7652 C   0  0  2  0  0  0  0  0  0  0  0  0
    8.4010  -15.4630   25.5290 N   0  0  0  0  0  0  0  0  0  0  0  0
    7.5847  -16.6715   23.6814 C   0  0  0  0  0  0  0  0  0  0  0  0
    6.6649  -17.3794   23.1951 O   0  0  0  0  0  0  0  0  0  0  0  0
    5.5985  -13.2256   26.0949 C   0  0  0  0  0  0  0  0  0  0  0  0
    5.6022  -12.2624   27.1077 C   0  0  0  0  0  0  0  0  0  0  0  0
    8.5119  -12.3894   18.9382 N   0  0  0  0  0  0  0  0  0  0  0  0
    8.2330  -13.4050   17.9949 C   0  0  0  0  0  0  0  0  0  0  0  0
    8.2510  -13.1037   16.7321 N   0  0  0  0  0  0  0  0  0  0  0  0
    7.9278  -14.7378   18.3473 N   0  0  0  0  0  0  0  0  0  0  0  0
    7.9297  -15.1664   19.7036 C   0  0  0  0  0  0  0  0  0  0  0  0
    8.8646  -16.2879   20.0347 C   0  0  0  0  0  0  0  0  0  0  0  0
    8.2708  -17.3859   20.8510 C   0  0  0  0  0  0  0  0  0  0  0  0
    9.1485  -17.7331   22.0627 C   0  0  2  0  0  0  0  0  0  0  0  0
    8.8820  -16.8307   23.1622 N   0  0  0  0  0  0  0  0  0  0  0  0
   10.5792  -17.7714   21.6846 C   0  0  0  0  0  0  0  0  0  0  0  0
   10.9548  -18.6917   20.9010 O   0  0  0  0  0  0  0  0  0  0  0  0
    7.9953  -13.7834   15.9916 N   0  0  0  0  0  0  0  0  0  0  0  0
   11.5662  -16.8615   22.1285 C   0  0  1  0  0  0  0  0  0  0  0  0
   12.9646  -16.9074   21.6773 C   0  0  0  0  0  0  0  0  0  0  0  0
   13.3219  -15.6564   20.9153 C   0  0  0  0  0  0  0  0  0  0  0  0
   14.7293  -15.5972   20.4364 C   0  0  0  0  0  0  0  0  0  0  0  0
   15.0617  -14.4517   19.5889 O   0  0  0  0  0  0  0  0  0  0  0  0
   14.2945  -14.0201   18.6947 C   0  0  0  0  0  0  0  0  0  0  0  0
   13.8040  -17.0261   22.8909 O   0  0  0  0  0  0  0  0  0  0  0  0
   13.3147  -16.8887   24.0362 O   0  0  0  0  0  0  0  0  0  0  0  0
   16.2699  -13.7595   19.7257 O   0  0  0  0  0  0  0  0  0  0  0  0
  2  1  1  0
  3  2  2  0
  4  3  1  0
  5 11  1  0
  5  4  2  0
  6  5  1  0
  7  9  1  0
  7  6  1  0
  7  8  1  1
  9 10  2  0
  9 21  1  0
 11 12  2  0
 12  2  1  0
 13 14  1  0
 14 15  2  0
 14 16  1  0
 16 17  1  0
 17 18  1  0
 19 18  1  0
 20 19  1  6
 21 20  1  0
 22 24  1  0
 22 20  1  0
 23 22  2  0
 25 30  1  0
 25 24  1  0
 25 26  1  6
 26 27  1  0
 27 28  1  0
 28 32  1  0
 29 28  2  0
 30 33  1  0
 31 30  2  0
M  END
$$$$
