YRE.pdb
     RDKit          3D

 33 33  0  0  1  0  0  0  0  0999 V2000
    5.2586  -10.2727   28.2874 O   0  0  0  0  0  0  0  0  0  0  0  0
    5.9741  -11.3137   27.7137 C   0  0  0  0  0  0  0  0  0  0  0  0
    5.7733  -11.5655   26.3697 C   0  0  0  0  0  0  0  0  0  0  0  0
    6.4597  -12.5787   25.7799 C   0  0  0  0  0  0  0  0  0  0  0  0
    7.3641  -13.3845   26.4662 C   0  0  0  0  0  0  0  0  0  0  0  0
    8.0665  -14.4548   25.7643 C   0  0  0  0  0  0  0  0  0  0  0  0
    7.0692  -15.3555   25.0744 C   0  0  2  0  0  0  0  0  0  0  0  0
    6.9161  -16.5274   25.9175 N   0  0  0  0  0  0  0  0  0  0  0  0
    7.5811  -15.8411   23.7663 C   0  0  0  0  0  0  0  0  0  0  0  0
    8.1989  -16.9374   23.7769 O   0  0  0  0  0  0  0  0  0  0  0  0
    7.5503  -13.1180   27.8041 C   0  0  0  0  0  0  0  0  0  0  0  0
    6.8594  -12.0829   28.4402 C   0  0  0  0  0  0  0  0  0  0  0  0
    9.6010  -15.5067   15.8579 N   0  0  0  0  0  0  0  0  0  0  0  0
    8.6578  -14.4548   15.8030 C   0  0  0  0  0  0  0  0  0  0  0  0
    8.7848  -13.5524   14.8782 N   0  0  0  0  0  0  0  0  0  0  0  0
    7.5798  -14.3226   16.7053 N   0  0  0  0  0  0  0  0  0  0  0  0
    7.2574  -15.3514   17.6331 C   0  0  0  0  0  0  0  0  0  0  0  0
    8.1449  -15.4514   18.8348 C   0  0  0  0  0  0  0  0  0  0  0  0
    7.5629  -14.9109   20.0972 C   0  0  0  0  0  0  0  0  0  0  0  0
    8.0565  -15.6850   21.3287 C   0  0  2  0  0  0  0  0  0  0  0  0
    7.4318  -15.1818   22.5330 N   0  0  0  0  0  0  0  0  0  0  0  0
    9.5351  -15.6748   21.4009 C   0  0  0  0  0  0  0  0  0  0  0  0
   10.0945  -14.6232   21.8292 O   0  0  0  0  0  0  0  0  0  0  0  0
    8.1458  -12.7394   14.7990 N   0  0  0  0  0  0  0  0  0  0  0  0
   10.3786  -16.7468   21.0290 C   0  0  2  0  0  0  0  0  0  0  0  0
   11.8347  -16.7326   21.2309 C   0  0  0  0  0  0  0  0  0  0  0  0
   12.2717  -17.9172   22.0551 C   0  0  0  0  0  0  0  0  0  0  0  0
   11.8772  -17.8605   23.4885 C   0  0  0  0  0  0  0  0  0  0  0  0
   12.1987  -19.0478   24.2808 O   0  0  0  0  0  0  0  0  0  0  0  0
   12.6405  -20.1069   23.7730 C   0  0  0  0  0  0  0  0  0  0  0  0
   12.4553  -16.7852   19.8880 O   0  0  0  0  0  0  0  0  0  0  0  0
   13.6875  -16.6183   19.7337 O   0  0  0  0  0  0  0  0  0  0  0  0
   12.0311  -19.0750   25.6696 O   0  0  0  0  0  0  0  0  0  0  0  0
  2  1  1  0
  3  2  2  0
  4  3  1  0
  5 11  1  0
  5  4  2  0
  6  5  1  0
  7  9  1  0
  7  6  1  0
  7  8  1  1
  9 10  2  0
  9 21  1  0
 11 12  2  0
 12  2  1  0
 13 14  1  0
 14 15  2  0
 14 16  1  0
 16 17  1  0
 17 18  1  0
 19 18  1  0
 20 19  1  6
 21 20  1  0
 22 24  1  0
 22 20  1  0
 23 22  2  0
 25 30  1  0
 25 24  1  0
 25 26  1  6
 26 27  1  0
 27 28  1  0
 28 32  1  0
 29 28  2  0
 30 33  1  0
 31 30  2  0
M  END
$$$$
