YRE.pdb
     RDKit          3D

 33 33  0  0  1  0  0  0  0  0999 V2000
    8.5136  -12.7690   16.7517 O   0  0  0  0  0  0  0  0  0  0  0  0
    8.0868  -13.2005   17.9994 C   0  0  0  0  0  0  0  0  0  0  0  0
    8.8652  -14.1352   18.6554 C   0  0  0  0  0  0  0  0  0  0  0  0
    8.4727  -14.5769   19.8787 C   0  0  0  0  0  0  0  0  0  0  0  0
    7.3155  -14.1321   20.5121 C   0  0  0  0  0  0  0  0  0  0  0  0
    6.9584  -14.6518   21.8288 C   0  0  0  0  0  0  0  0  0  0  0  0
    8.0486  -15.5695   22.3301 C   0  0  2  0  0  0  0  0  0  0  0  0
    8.2170  -16.6020   21.3235 N   0  0  0  0  0  0  0  0  0  0  0  0
    7.6497  -16.2628   23.5827 C   0  0  0  0  0  0  0  0  0  0  0  0
    7.4975  -15.5395   24.6011 O   0  0  0  0  0  0  0  0  0  0  0  0
    6.5535  -13.2011   19.8425 C   0  0  0  0  0  0  0  0  0  0  0  0
    6.9299  -12.7268   18.5828 C   0  0  0  0  0  0  0  0  0  0  0  0
    3.8101  -22.9883   23.4963 N   0  0  0  0  0  0  0  0  0  0  0  0
    4.5202  -22.4618   22.3929 C   0  0  0  0  0  0  0  0  0  0  0  0
    3.9355  -22.4299   21.2341 N   0  0  0  0  0  0  0  0  0  0  0  0
    5.8411  -21.9696   22.4752 N   0  0  0  0  0  0  0  0  0  0  0  0
    6.5103  -21.8440   23.7240 C   0  0  0  0  0  0  0  0  0  0  0  0
    7.1686  -20.5248   23.9846 C   0  0  0  0  0  0  0  0  0  0  0  0
    6.3703  -19.5718   24.8087 C   0  0  0  0  0  0  0  0  0  0  0  0
    7.1004  -18.2339   24.9990 C   0  0  2  0  0  0  0  0  0  0  0  0
    7.4312  -17.6455   23.7190 N   0  0  0  0  0  0  0  0  0  0  0  0
    8.2799  -18.3965   25.8786 C   0  0  0  0  0  0  0  0  0  0  0  0
    9.3244  -18.9016   25.3725 O   0  0  0  0  0  0  0  0  0  0  0  0
    4.3944  -22.0462   20.3868 N   0  0  0  0  0  0  0  0  0  0  0  0
    8.3370  -18.0336   27.2440 C   0  0  1  0  0  0  0  0  0  0  0  0
    9.5875  -17.6792   27.9309 C   0  0  0  0  0  0  0  0  0  0  0  0
    9.4534  -16.3525   28.6348 C   0  0  0  0  0  0  0  0  0  0  0  0
   10.6297  -15.9596   29.4565 C   0  0  0  0  0  0  0  0  0  0  0  0
   10.5259  -14.6660   30.1323 O   0  0  0  0  0  0  0  0  0  0  0  0
    9.8144  -13.7267   29.7008 C   0  0  0  0  0  0  0  0  0  0  0  0
    9.8589  -18.7547   28.9112 O   0  0  0  0  0  0  0  0  0  0  0  0
   10.9767  -18.8612   29.4673 O   0  0  0  0  0  0  0  0  0  0  0  0
   11.2220  -14.3943   31.3152 O   0  0  0  0  0  0  0  0  0  0  0  0
  2  1  1  0
  3  2  2  0
  4  3  1  0
  5 11  1  0
  5  4  2  0
  6  5  1  0
  7  9  1  0
  7  6  1  0
  7  8  1  6
  9 10  2  0
  9 21  1  0
 11 12  2  0
 12  2  1  0
 13 14  1  0
 14 15  2  0
 14 16  1  0
 16 17  1  0
 17 18  1  0
 19 18  1  0
 20 19  1  6
 21 20  1  0
 22 24  1  0
 22 20  1  0
 23 22  2  0
 25 30  1  0
 25 24  1  0
 25 26  1  6
 26 27  1  0
 27 28  1  0
 28 32  1  0
 29 28  2  0
 30 33  1  0
 31 30  2  0
M  END
$$$$
