YRE.pdb
     RDKit          3D

 33 33  0  0  1  0  0  0  0  0999 V2000
    8.4283  -12.6757   16.5621 O   0  0  0  0  0  0  0  0  0  0  0  0
    8.1980  -13.0964   17.8640 C   0  0  0  0  0  0  0  0  0  0  0  0
    8.7136  -14.3214   18.2426 C   0  0  0  0  0  0  0  0  0  0  0  0
    8.5043  -14.7603   19.5112 C   0  0  0  0  0  0  0  0  0  0  0  0
    7.7902  -14.0324   20.4590 C   0  0  0  0  0  0  0  0  0  0  0  0
    7.6071  -14.5685   21.8046 C   0  0  0  0  0  0  0  0  0  0  0  0
    6.7313  -15.7981   21.7512 C   0  0  2  0  0  0  0  0  0  0  0  0
    5.3690  -15.3295   21.5717 N   0  0  0  0  0  0  0  0  0  0  0  0
    6.7544  -16.5448   23.0360 C   0  0  0  0  0  0  0  0  0  0  0  0
    6.1887  -15.9942   24.0159 O   0  0  0  0  0  0  0  0  0  0  0  0
    7.2846  -12.8147   20.0627 C   0  0  0  0  0  0  0  0  0  0  0  0
    7.4824  -12.3351   18.7649 C   0  0  0  0  0  0  0  0  0  0  0  0
    7.6622  -23.3064   28.3870 N   0  0  0  0  0  0  0  0  0  0  0  0
    6.3431  -23.1228   27.9123 C   0  0  0  0  0  0  0  0  0  0  0  0
    5.3551  -23.5510   28.6378 N   0  0  0  0  0  0  0  0  0  0  0  0
    6.0333  -22.5014   26.6828 N   0  0  0  0  0  0  0  0  0  0  0  0
    7.0540  -22.0588   25.7965 C   0  0  0  0  0  0  0  0  0  0  0  0
    7.3218  -20.5858   25.7893 C   0  0  0  0  0  0  0  0  0  0  0  0
    7.1312  -19.9150   24.4709 C   0  0  0  0  0  0  0  0  0  0  0  0
    7.4032  -18.4056   24.5556 C   0  0  2  0  0  0  0  0  0  0  0  0
    7.3503  -17.8022   23.2414 N   0  0  0  0  0  0  0  0  0  0  0  0
    8.6772  -18.1375   25.2601 C   0  0  0  0  0  0  0  0  0  0  0  0
    9.7465  -18.5339   24.7107 O   0  0  0  0  0  0  0  0  0  0  0  0
    4.3724  -23.5396   28.3066 N   0  0  0  0  0  0  0  0  0  0  0  0
    8.7999  -17.4729   26.5020 C   0  0  2  0  0  0  0  0  0  0  0  0
   10.0952  -17.1360   27.1102 C   0  0  0  0  0  0  0  0  0  0  0  0
    9.9674  -15.9309   28.0073 C   0  0  0  0  0  0  0  0  0  0  0  0
   10.2741  -16.1841   29.4409 C   0  0  0  0  0  0  0  0  0  0  0  0
   10.1752  -15.0217   30.3241 O   0  0  0  0  0  0  0  0  0  0  0  0
    9.7760  -13.8989   29.9308 C   0  0  0  0  0  0  0  0  0  0  0  0
   10.5215  -18.3167   27.8948 O   0  0  0  0  0  0  0  0  0  0  0  0
    9.6841  -19.1150   28.3758 O   0  0  0  0  0  0  0  0  0  0  0  0
   10.5239  -15.0922   31.6773 O   0  0  0  0  0  0  0  0  0  0  0  0
  2  1  1  0
  3  2  2  0
  4  3  1  0
  5 11  1  0
  5  4  2  0
  6  5  1  0
  7  9  1  0
  7  6  1  0
  7  8  1  1
  9 10  2  0
  9 21  1  0
 11 12  2  0
 12  2  1  0
 13 14  1  0
 14 15  2  0
 14 16  1  0
 16 17  1  0
 17 18  1  0
 19 18  1  0
 20 19  1  6
 21 20  1  0
 22 24  1  0
 22 20  1  0
 23 22  2  0
 25 30  1  0
 25 24  1  0
 25 26  1  6
 26 27  1  0
 27 28  1  0
 28 32  1  0
 29 28  2  0
 30 33  1  0
 31 30  2  0
M  END
$$$$
