YRE.pdb
     RDKit          3D

 33 33  0  0  1  0  0  0  0  0999 V2000
    5.5974  -10.5638   28.6498 O   0  0  0  0  0  0  0  0  0  0  0  0
    6.2321  -11.5724   27.9393 C   0  0  0  0  0  0  0  0  0  0  0  0
    5.8603  -11.7600   26.6215 C   0  0  0  0  0  0  0  0  0  0  0  0
    6.4640  -12.7402   25.9002 C   0  0  0  0  0  0  0  0  0  0  0  0
    7.4479  -13.5737   26.4250 C   0  0  0  0  0  0  0  0  0  0  0  0
    8.0531  -14.6054   25.5878 C   0  0  0  0  0  0  0  0  0  0  0  0
    6.9723  -15.4409   24.9430 C   0  0  2  0  0  0  0  0  0  0  0  0
    6.8507  -16.6484   25.7398 N   0  0  0  0  0  0  0  0  0  0  0  0
    7.3572  -15.8756   23.5749 C   0  0  0  0  0  0  0  0  0  0  0  0
    7.9621  -16.9753   23.4843 O   0  0  0  0  0  0  0  0  0  0  0  0
    7.8045  -13.3712   27.7393 C   0  0  0  0  0  0  0  0  0  0  0  0
    7.2022  -12.3714   28.5082 C   0  0  0  0  0  0  0  0  0  0  0  0
    9.3590  -15.7465   16.3634 N   0  0  0  0  0  0  0  0  0  0  0  0
    8.6876  -14.6193   15.8364 C   0  0  0  0  0  0  0  0  0  0  0  0
    8.4610  -14.5707   14.5589 N   0  0  0  0  0  0  0  0  0  0  0  0
    8.2500  -13.5310   16.6224 N   0  0  0  0  0  0  0  0  0  0  0  0
    8.5081  -13.4730   18.0199 C   0  0  0  0  0  0  0  0  0  0  0  0
    8.1820  -14.7097   18.7981 C   0  0  0  0  0  0  0  0  0  0  0  0
    7.4042  -14.4822   20.0502 C   0  0  0  0  0  0  0  0  0  0  0  0
    7.8674  -15.4086   21.1844 C   0  0  2  0  0  0  0  0  0  0  0  0
    7.1021  -15.1650   22.3882 N   0  0  0  0  0  0  0  0  0  0  0  0
    9.3276  -15.2920   21.3983 C   0  0  0  0  0  0  0  0  0  0  0  0
    9.7244  -14.5648   22.3554 O   0  0  0  0  0  0  0  0  0  0  0  0
    8.1291  -13.7114   14.0824 N   0  0  0  0  0  0  0  0  0  0  0  0
   10.3209  -15.9277   20.6184 C   0  0  2  0  0  0  0  0  0  0  0  0
   11.6474  -16.2862   21.1409 C   0  0  0  0  0  0  0  0  0  0  0  0
   11.5260  -17.2616   22.2843 C   0  0  0  0  0  0  0  0  0  0  0  0
   12.8210  -17.7066   22.8660 C   0  0  0  0  0  0  0  0  0  0  0  0
   12.7224  -18.5869   24.0305 O   0  0  0  0  0  0  0  0  0  0  0  0
   12.6094  -18.1555   25.2034 C   0  0  0  0  0  0  0  0  0  0  0  0
   12.3988  -16.8985   20.0220 O   0  0  0  0  0  0  0  0  0  0  0  0
   13.6455  -16.7999   19.9447 O   0  0  0  0  0  0  0  0  0  0  0  0
   12.7484  -19.9803   23.9056 O   0  0  0  0  0  0  0  0  0  0  0  0
  2  1  1  0
  3  2  2  0
  4  3  1  0
  5 11  1  0
  5  4  2  0
  6  5  1  0
  7  9  1  0
  7  6  1  0
  7  8  1  1
  9 10  2  0
  9 21  1  0
 11 12  2  0
 12  2  1  0
 13 14  1  0
 14 15  2  0
 14 16  1  0
 16 17  1  0
 17 18  1  0
 19 18  1  0
 20 19  1  6
 21 20  1  0
 22 24  1  0
 22 20  1  0
 23 22  2  0
 25 30  1  0
 25 24  1  0
 25 26  1  6
 26 27  1  0
 27 28  1  0
 28 32  1  0
 29 28  2  0
 30 33  1  0
 31 30  2  0
M  END
$$$$
