YRE.pdb
     RDKit          3D

 33 33  0  0  1  0  0  0  0  0999 V2000
    6.0507  -10.1973   27.0169 O   0  0  0  0  0  0  0  0  0  0  0  0
    6.5576  -11.4774   26.8459 C   0  0  0  0  0  0  0  0  0  0  0  0
    6.5120  -12.0207   25.5760 C   0  0  0  0  0  0  0  0  0  0  0  0
    7.0007  -13.2727   25.3776 C   0  0  0  0  0  0  0  0  0  0  0  0
    7.5507  -14.0444   26.3975 C   0  0  0  0  0  0  0  0  0  0  0  0
    8.0576  -15.3825   26.1078 C   0  0  0  0  0  0  0  0  0  0  0  0
    7.0556  -16.1391   25.2679 C   0  0  2  0  0  0  0  0  0  0  0  0
    6.8595  -17.4244   25.9137 N   0  0  0  0  0  0  0  0  0  0  0  0
    7.5840  -16.4264   23.9089 C   0  0  0  0  0  0  0  0  0  0  0  0
    8.2301  -17.4975   23.7723 O   0  0  0  0  0  0  0  0  0  0  0  0
    7.5870  -13.4857   27.6553 C   0  0  0  0  0  0  0  0  0  0  0  0
    7.0923  -12.2002   27.8923 C   0  0  0  0  0  0  0  0  0  0  0  0
    7.5439  -12.7278   15.6383 N   0  0  0  0  0  0  0  0  0  0  0  0
    8.1749  -13.9914   15.5738 C   0  0  0  0  0  0  0  0  0  0  0  0
    8.6362  -14.3992   14.4306 N   0  0  0  0  0  0  0  0  0  0  0  0
    8.3297  -14.8465   16.6866 N   0  0  0  0  0  0  0  0  0  0  0  0
    7.8618  -14.4769   17.9780 C   0  0  0  0  0  0  0  0  0  0  0  0
    8.0044  -15.5143   19.0480 C   0  0  0  0  0  0  0  0  0  0  0  0
    7.4098  -15.1489   20.3661 C   0  0  0  0  0  0  0  0  0  0  0  0
    8.0663  -15.9209   21.5204 C   0  0  2  0  0  0  0  0  0  0  0  0
    7.4213  -15.6071   22.7773 N   0  0  0  0  0  0  0  0  0  0  0  0
    9.5274  -15.6849   21.5497 C   0  0  0  0  0  0  0  0  0  0  0  0
    9.9431  -14.6510   22.1500 O   0  0  0  0  0  0  0  0  0  0  0  0
    9.1856  -15.2729   14.3292 N   0  0  0  0  0  0  0  0  0  0  0  0
   10.5021  -16.5220   20.9596 C   0  0  2  0  0  0  0  0  0  0  0  0
   11.9232  -16.4913   21.3347 C   0  0  0  0  0  0  0  0  0  0  0  0
   12.1790  -17.3703   22.5328 C   0  0  0  0  0  0  0  0  0  0  0  0
   13.6037  -17.4543   22.9531 C   0  0  0  0  0  0  0  0  0  0  0  0
   13.8753  -18.3230   24.0987 O   0  0  0  0  0  0  0  0  0  0  0  0
   12.9682  -18.8941   24.7513 C   0  0  0  0  0  0  0  0  0  0  0  0
   12.6869  -16.9826   20.1657 O   0  0  0  0  0  0  0  0  0  0  0  0
   12.1663  -17.7527   19.3255 O   0  0  0  0  0  0  0  0  0  0  0  0
   15.1787  -18.5729   24.5418 O   0  0  0  0  0  0  0  0  0  0  0  0
  2  1  1  0
  3  2  2  0
  4  3  1  0
  5 11  1  0
  5  4  2  0
  6  5  1  0
  7  9  1  0
  7  6  1  0
  7  8  1  1
  9 10  2  0
  9 21  1  0
 11 12  2  0
 12  2  1  0
 13 14  1  0
 14 15  2  0
 14 16  1  0
 16 17  1  0
 17 18  1  0
 19 18  1  0
 20 19  1  6
 21 20  1  0
 22 24  1  0
 22 20  1  0
 23 22  2  0
 25 30  1  0
 25 24  1  0
 25 26  1  1
 26 27  1  0
 27 28  1  0
 28 32  1  0
 29 28  2  0
 30 33  1  0
 31 30  2  0
M  END
$$$$
