YRE.pdb
     RDKit          3D

 33 33  0  0  1  0  0  0  0  0999 V2000
    5.9436  -10.4727   26.9339 O   0  0  0  0  0  0  0  0  0  0  0  0
    6.3457  -11.7991   26.9980 C   0  0  0  0  0  0  0  0  0  0  0  0
    7.4374  -12.1755   26.2388 C   0  0  0  0  0  0  0  0  0  0  0  0
    7.8545  -13.4678   26.2808 C   0  0  0  0  0  0  0  0  0  0  0  0
    7.2330  -14.4421   27.0570 C   0  0  0  0  0  0  0  0  0  0  0  0
    7.7392  -15.8115   27.0523 C   0  0  0  0  0  0  0  0  0  0  0  0
    6.9418  -16.6490   26.0804 C   0  0  2  0  0  0  0  0  0  0  0  0
    6.9066  -17.9946   26.6242 N   0  0  0  0  0  0  0  0  0  0  0  0
    7.6145  -16.7459   24.7587 C   0  0  0  0  0  0  0  0  0  0  0  0
    8.4937  -17.6383   24.6399 O   0  0  0  0  0  0  0  0  0  0  0  0
    6.1473  -14.0475   27.8061 C   0  0  0  0  0  0  0  0  0  0  0  0
    5.6934  -12.7258   27.7847 C   0  0  0  0  0  0  0  0  0  0  0  0
   10.0215  -14.1229   17.7440 N   0  0  0  0  0  0  0  0  0  0  0  0
    8.9257  -13.2397   17.8787 C   0  0  0  0  0  0  0  0  0  0  0  0
    9.0620  -12.0126   17.4769 N   0  0  0  0  0  0  0  0  0  0  0  0
    7.6827  -13.6141   18.4341 N   0  0  0  0  0  0  0  0  0  0  0  0
    7.3959  -14.9665   18.7688 C   0  0  0  0  0  0  0  0  0  0  0  0
    8.1081  -15.5095   19.9685 C   0  0  0  0  0  0  0  0  0  0  0  0
    7.3907  -15.3316   21.2640 C   0  0  0  0  0  0  0  0  0  0  0  0
    8.0918  -16.0763   22.4099 C   0  0  2  0  0  0  0  0  0  0  0  0
    7.3499  -15.9303   23.6438 N   0  0  0  0  0  0  0  0  0  0  0  0
    9.5029  -15.6465   22.5336 C   0  0  0  0  0  0  0  0  0  0  0  0
    9.7416  -14.6029   23.2089 O   0  0  0  0  0  0  0  0  0  0  0  0
    8.2890  -11.3224   17.5163 N   0  0  0  0  0  0  0  0  0  0  0  0
   10.6118  -16.3074   21.9567 C   0  0  2  0  0  0  0  0  0  0  0  0
   12.0010  -15.8666   22.1492 C   0  0  0  0  0  0  0  0  0  0  0  0
   12.7819  -16.8882   22.9366 C   0  0  0  0  0  0  0  0  0  0  0  0
   12.3149  -17.0893   24.3348 C   0  0  0  0  0  0  0  0  0  0  0  0
   13.0753  -18.0600   25.1225 O   0  0  0  0  0  0  0  0  0  0  0  0
   13.3394  -19.2152   24.7099 C   0  0  0  0  0  0  0  0  0  0  0  0
   12.5892  -15.6990   20.8011 O   0  0  0  0  0  0  0  0  0  0  0  0
   11.9524  -16.0156   19.7695 O   0  0  0  0  0  0  0  0  0  0  0  0
   13.5601  -17.7555   26.3992 O   0  0  0  0  0  0  0  0  0  0  0  0
  2  1  1  0
  3  2  2  0
  4  3  1  0
  5 11  1  0
  5  4  2  0
  6  5  1  0
  7  9  1  0
  7  6  1  0
  7  8  1  1
  9 10  2  0
  9 21  1  0
 11 12  2  0
 12  2  1  0
 13 14  1  0
 14 15  2  0
 14 16  1  0
 16 17  1  0
 17 18  1  0
 19 18  1  0
 20 19  1  6
 21 20  1  0
 22 24  1  0
 22 20  1  0
 23 22  2  0
 25 30  1  0
 25 24  1  0
 25 26  1  6
 26 27  1  0
 27 28  1  0
 28 32  1  0
 29 28  2  0
 30 33  1  0
 31 30  2  0
M  END
$$$$
