YRE.pdb
     RDKit          3D

 33 33  0  0  1  0  0  0  0  0999 V2000
    5.5053  -10.6462   27.9412 O   0  0  0  0  0  0  0  0  0  0  0  0
    6.1011  -11.6720   27.2217 C   0  0  0  0  0  0  0  0  0  0  0  0
    7.4779  -11.7778   27.2763 C   0  0  0  0  0  0  0  0  0  0  0  0
    8.0900  -12.7721   26.5818 C   0  0  0  0  0  0  0  0  0  0  0  0
    7.3949  -13.6995   25.8104 C   0  0  0  0  0  0  0  0  0  0  0  0
    8.1217  -14.7422   25.0921 C   0  0  0  0  0  0  0  0  0  0  0  0
    7.1506  -15.7699   24.5604 C   0  0  2  0  0  0  0  0  0  0  0  0
    6.5427  -16.4033   25.7167 N   0  0  0  0  0  0  0  0  0  0  0  0
    7.8471  -16.8458   23.8080 C   0  0  0  0  0  0  0  0  0  0  0  0
    7.2811  -17.9694   23.7811 O   0  0  0  0  0  0  0  0  0  0  0  0
    6.0242  -13.5774   25.7686 C   0  0  0  0  0  0  0  0  0  0  0  0
    5.3646  -12.5654   26.4716 C   0  0  0  0  0  0  0  0  0  0  0  0
    8.7228  -12.5684   16.3380 N   0  0  0  0  0  0  0  0  0  0  0  0
    8.4581  -13.7492   17.0693 C   0  0  0  0  0  0  0  0  0  0  0  0
    9.3166  -14.7217   17.0133 N   0  0  0  0  0  0  0  0  0  0  0  0
    7.3031  -13.9381   17.8592 N   0  0  0  0  0  0  0  0  0  0  0  0
    7.3831  -14.0624   19.2739 C   0  0  0  0  0  0  0  0  0  0  0  0
    8.2767  -15.1488   19.7865 C   0  0  0  0  0  0  0  0  0  0  0  0
    8.2338  -15.3589   21.2624 C   0  0  0  0  0  0  0  0  0  0  0  0
    9.1263  -16.5312   21.6967 C   0  0  2  0  0  0  0  0  0  0  0  0
    9.0728  -16.7101   23.1317 N   0  0  0  0  0  0  0  0  0  0  0  0
   10.5066  -16.3597   21.1901 C   0  0  0  0  0  0  0  0  0  0  0  0
   10.6576  -16.1845   19.9456 O   0  0  0  0  0  0  0  0  0  0  0  0
    9.2366  -15.5724   17.6011 N   0  0  0  0  0  0  0  0  0  0  0  0
   11.6763  -16.3762   21.9842 C   0  0  1  0  0  0  0  0  0  0  0  0
   12.9180  -17.0482   21.5744 C   0  0  0  0  0  0  0  0  0  0  0  0
   14.0191  -16.7918   22.5722 C   0  0  0  0  0  0  0  0  0  0  0  0
   14.1614  -15.3722   22.9942 C   0  0  0  0  0  0  0  0  0  0  0  0
   15.4912  -14.9818   23.4634 O   0  0  0  0  0  0  0  0  0  0  0  0
   15.8154  -14.9889   24.6756 C   0  0  0  0  0  0  0  0  0  0  0  0
   12.6189  -18.4962   21.5015 O   0  0  0  0  0  0  0  0  0  0  0  0
   12.0209  -19.0846   22.4321 O   0  0  0  0  0  0  0  0  0  0  0  0
   16.4944  -14.5720   22.5783 O   0  0  0  0  0  0  0  0  0  0  0  0
  2  1  1  0
  3  2  2  0
  4  3  1  0
  5 11  1  0
  5  4  2  0
  6  5  1  0
  7  9  1  0
  7  6  1  0
  7  8  1  1
  9 10  2  0
  9 21  1  0
 11 12  2  0
 12  2  1  0
 13 14  1  0
 14 15  2  0
 14 16  1  0
 16 17  1  0
 17 18  1  0
 19 18  1  0
 20 19  1  1
 21 20  1  0
 22 24  1  0
 22 20  1  0
 23 22  2  0
 25 30  1  0
 25 24  1  0
 25 26  1  6
 26 27  1  0
 27 28  1  0
 28 32  1  0
 29 28  2  0
 30 33  1  0
 31 30  2  0
M  END
$$$$
