HGA.pdb
     RDKit          3D

 20 20  0  0  1  0  0  0  0  0999 V2000
    6.1767  -14.8495   22.1901 N   0  0  0  0  0  0  0  0  0  0  0  0
    6.7928  -15.8305   21.2674 C   0  0  1  0  0  0  0  0  0  0  0  0
    6.7930  -15.2344   19.8985 C   0  0  0  0  0  0  0  0  0  0  0  0
    7.7678  -14.1444   19.7628 C   0  0  0  0  0  0  0  0  0  0  0  0
    7.6341  -12.8728   20.2842 C   0  0  0  0  0  0  0  0  0  0  0  0
    8.7209  -12.1273   19.9668 N   0  0  0  0  0  0  0  0  0  0  0  0
    9.5328  -12.9325   19.2477 C   0  0  0  0  0  0  0  0  0  0  0  0
    8.9655  -14.1448   19.1222 N   0  0  0  0  0  0  0  0  0  0  0  0
    8.0934  -16.1902   21.8164 C   0  0  0  0  0  0  0  0  0  0  0  0
    8.7709  -17.1018   21.2835 O   0  0  0  0  0  0  0  0  0  0  0  0
    8.6650  -15.5558   22.9498 N   0  0  0  0  0  0  0  0  0  0  0  0
   10.0447  -15.8689   23.3367 C   0  0  0  0  0  0  0  0  0  0  0  0
   10.0810  -16.8842   24.3998 C   0  0  0  0  0  0  0  0  0  0  0  0
    9.0837  -17.2228   25.0894 O   0  0  0  0  0  0  0  0  0  0  0  0
   11.6273  -19.8814   25.0813 C   0  0  0  0  0  0  0  0  0  0  0  0
   11.4189  -18.5086   25.7043 C   0  0  2  0  0  0  0  0  0  0  0  0
   11.3421  -17.5155   24.6499 N   0  0  0  0  0  0  0  0  0  0  0  0
   12.6120  -18.2416   26.5447 C   0  0  0  0  0  0  0  0  0  0  0  0
   13.4847  -17.3970   26.1976 O   0  0  0  0  0  0  0  0  0  0  0  0
   12.7798  -18.9210   27.7247 O   0  0  0  0  0  0  0  0  0  0  0  0
  2  1  1  1
  3  2  1  0
  4  3  1  0
  5  4  2  0
  6  7  1  0
  6  5  1  0
  7  8  2  0
  8  4  1  0
  9  2  1  0
  9 10  2  0
 11  9  1  0
 12 11  1  0
 13 12  1  0
 14 13  2  0
 16 15  1  6
 16 17  1  0
 16 18  1  0
 17 13  1  0
 18 20  1  0
 19 18  2  0
M  END
$$$$
