HGA.pdb
     RDKit          3D

 20 20  0  0  1  0  0  0  0  0999 V2000
    9.1115  -16.4532   20.1309 N   0  0  0  0  0  0  0  0  0  0  0  0
    8.6811  -15.4425   21.1241 C   0  0  1  0  0  0  0  0  0  0  0  0
    7.3909  -14.8575   20.6526 C   0  0  0  0  0  0  0  0  0  0  0  0
    7.4901  -14.3031   19.2963 C   0  0  0  0  0  0  0  0  0  0  0  0
    7.9592  -13.0459   18.9708 C   0  0  0  0  0  0  0  0  0  0  0  0
    7.9104  -12.8685   17.6277 N   0  0  0  0  0  0  0  0  0  0  0  0
    7.4111  -14.0140   17.1147 C   0  0  0  0  0  0  0  0  0  0  0  0
    7.1570  -14.8789   18.1120 N   0  0  0  0  0  0  0  0  0  0  0  0
    8.6586  -16.0923   22.4277 C   0  0  0  0  0  0  0  0  0  0  0  0
    8.3018  -17.2909   22.5271 O   0  0  0  0  0  0  0  0  0  0  0  0
    9.0278  -15.4391   23.6322 N   0  0  0  0  0  0  0  0  0  0  0  0
    8.9285  -16.1584   24.9066 C   0  0  0  0  0  0  0  0  0  0  0  0
    9.9132  -15.6580   25.8773 C   0  0  0  0  0  0  0  0  0  0  0  0
   11.1418  -15.5280   25.6361 O   0  0  0  0  0  0  0  0  0  0  0  0
    9.7522  -13.6421   28.9067 C   0  0  0  0  0  0  0  0  0  0  0  0
   10.3669  -14.8183   28.1619 C   0  0  2  0  0  0  0  0  0  0  0  0
    9.4209  -15.3014   27.1743 N   0  0  0  0  0  0  0  0  0  0  0  0
   10.6066  -15.8780   29.1722 C   0  0  0  0  0  0  0  0  0  0  0  0
    9.8856  -16.9138   29.2219 O   0  0  0  0  0  0  0  0  0  0  0  0
   11.6300  -15.7391   30.0753 O   0  0  0  0  0  0  0  0  0  0  0  0
  2  1  1  6
  3  2  1  0
  4  3  1  0
  5  4  2  0
  6  7  1  0
  6  5  1  0
  7  8  2  0
  8  4  1  0
  9  2  1  0
  9 10  2  0
 11  9  1  0
 12 11  1  0
 13 12  1  0
 14 13  2  0
 16 15  1  1
 16 17  1  0
 16 18  1  0
 17 13  1  0
 18 20  1  0
 19 18  2  0
M  END
$$$$
