HGA.pdb
     RDKit          3D

 20 20  0  0  1  0  0  0  0  0999 V2000
    7.8731  -14.0791   22.5382 N   0  0  0  0  0  0  0  0  0  0  0  0
    6.9693  -15.2313   22.3176 C   0  0  1  0  0  0  0  0  0  0  0  0
    7.0834  -15.6352   20.8848 C   0  0  0  0  0  0  0  0  0  0  0  0
    7.5584  -14.5392   20.0304 C   0  0  0  0  0  0  0  0  0  0  0  0
    7.5074  -13.1946   20.3401 C   0  0  0  0  0  0  0  0  0  0  0  0
    8.0323  -12.4668   19.3240 N   0  0  0  0  0  0  0  0  0  0  0  0
    8.4108  -13.3561   18.3803 C   0  0  0  0  0  0  0  0  0  0  0  0
    8.1286  -14.6019   18.7993 N   0  0  0  0  0  0  0  0  0  0  0  0
    7.3074  -16.2476   23.3051 C   0  0  0  0  0  0  0  0  0  0  0  0
    6.8743  -17.4180   23.1770 O   0  0  0  0  0  0  0  0  0  0  0  0
    8.1230  -15.9942   24.4385 N   0  0  0  0  0  0  0  0  0  0  0  0
    9.0019  -17.0513   24.9498 C   0  0  0  0  0  0  0  0  0  0  0  0
    9.7868  -16.5794   26.1002 C   0  0  0  0  0  0  0  0  0  0  0  0
   10.7312  -17.2251   26.6254 O   0  0  0  0  0  0  0  0  0  0  0  0
    9.7230  -13.3856   28.0970 C   0  0  0  0  0  0  0  0  0  0  0  0
   10.2415  -14.7672   27.7249 C   0  0  2  0  0  0  0  0  0  0  0  0
    9.4372  -15.3004   26.6421 N   0  0  0  0  0  0  0  0  0  0  0  0
   10.0724  -15.6189   28.9280 C   0  0  0  0  0  0  0  0  0  0  0  0
    9.1501  -16.4787   29.0000 O   0  0  0  0  0  0  0  0  0  0  0  0
   10.9304  -15.4770   29.9890 O   0  0  0  0  0  0  0  0  0  0  0  0
  2  1  1  6
  3  2  1  0
  4  3  1  0
  5  4  2  0
  6  7  1  0
  6  5  1  0
  7  8  2  0
  8  4  1  0
  9  2  1  0
  9 10  2  0
 11  9  1  0
 12 11  1  0
 13 12  1  0
 14 13  2  0
 16 15  1  1
 16 17  1  0
 16 18  1  0
 17 13  1  0
 18 20  1  0
 19 18  2  0
M  END
$$$$
