HGA.pdb
     RDKit          3D

 20 20  0  0  1  0  0  0  0  0999 V2000
    9.0491  -16.2813   20.3925 N   0  0  0  0  0  0  0  0  0  0  0  0
    8.4103  -15.2083   21.1887 C   0  0  1  0  0  0  0  0  0  0  0  0
    7.1832  -14.7671   20.4615 C   0  0  0  0  0  0  0  0  0  0  0  0
    7.4672  -14.3626   19.0786 C   0  0  0  0  0  0  0  0  0  0  0  0
    8.0407  -13.1686   18.6888 C   0  0  0  0  0  0  0  0  0  0  0  0
    8.1548  -13.1305   17.3385 N   0  0  0  0  0  0  0  0  0  0  0  0
    7.6529  -14.2998   16.8852 C   0  0  0  0  0  0  0  0  0  0  0  0
    7.2386  -15.0434   17.9257 N   0  0  0  0  0  0  0  0  0  0  0  0
    8.2132  -15.7228   22.5373 C   0  0  0  0  0  0  0  0  0  0  0  0
    7.9346  -16.9332   22.7144 O   0  0  0  0  0  0  0  0  0  0  0  0
    8.3212  -14.9203   23.7027 N   0  0  0  0  0  0  0  0  0  0  0  0
    8.1248  -15.5291   25.0226 C   0  0  0  0  0  0  0  0  0  0  0  0
    9.2927  -15.3085   25.8885 C   0  0  0  0  0  0  0  0  0  0  0  0
   10.4869  -15.3710   25.4955 O   0  0  0  0  0  0  0  0  0  0  0  0
    9.7660  -13.6836   29.1559 C   0  0  0  0  0  0  0  0  0  0  0  0
   10.1587  -14.7452   28.1386 C   0  0  2  0  0  0  0  0  0  0  0  0
    9.0314  -15.0042   27.2635 N   0  0  0  0  0  0  0  0  0  0  0  0
   10.4738  -15.9725   28.9104 C   0  0  0  0  0  0  0  0  0  0  0  0
    9.6802  -16.9548   28.9355 O   0  0  0  0  0  0  0  0  0  0  0  0
   11.6486  -16.0515   29.6145 O   0  0  0  0  0  0  0  0  0  0  0  0
  2  1  1  6
  3  2  1  0
  4  3  1  0
  5  4  2  0
  6  7  1  0
  6  5  1  0
  7  8  2  0
  8  4  1  0
  9  2  1  0
  9 10  2  0
 11  9  1  0
 12 11  1  0
 13 12  1  0
 14 13  2  0
 16 15  1  1
 16 17  1  0
 16 18  1  0
 17 13  1  0
 18 20  1  0
 19 18  2  0
M  END
$$$$
