HGA.pdb
     RDKit          3D

 20 20  0  0  1  0  0  0  0  0999 V2000
    8.3058  -17.1432   20.5970 N   0  0  0  0  0  0  0  0  0  0  0  0
    8.5951  -16.1148   21.6226 C   0  0  1  0  0  0  0  0  0  0  0  0
    7.5660  -15.0405   21.4971 C   0  0  0  0  0  0  0  0  0  0  0  0
    7.7270  -14.2518   20.2688 C   0  0  0  0  0  0  0  0  0  0  0  0
    8.6902  -14.4543   19.3004 C   0  0  0  0  0  0  0  0  0  0  0  0
    8.5440  -13.5439   18.3067 N   0  0  0  0  0  0  0  0  0  0  0  0
    7.4904  -12.7733   18.6541 C   0  0  0  0  0  0  0  0  0  0  0  0
    6.9959  -13.1940   19.8313 N   0  0  0  0  0  0  0  0  0  0  0  0
    8.6706  -16.7911   22.9108 C   0  0  0  0  0  0  0  0  0  0  0  0
    8.0563  -17.8698   23.0920 O   0  0  0  0  0  0  0  0  0  0  0  0
    9.4192  -16.2958   24.0100 N   0  0  0  0  0  0  0  0  0  0  0  0
    9.4489  -17.0523   25.2662 C   0  0  0  0  0  0  0  0  0  0  0  0
   10.3074  -16.3943   26.2624 C   0  0  0  0  0  0  0  0  0  0  0  0
   11.5452  -16.5952   26.3730 O   0  0  0  0  0  0  0  0  0  0  0  0
    9.7334  -13.6248   28.7218 C   0  0  0  0  0  0  0  0  0  0  0  0
   10.4833  -14.8303   28.1737 C   0  0  2  0  0  0  0  0  0  0  0  0
    9.6739  -15.4694   27.1538 N   0  0  0  0  0  0  0  0  0  0  0  0
   10.6680  -15.7646   29.3113 C   0  0  0  0  0  0  0  0  0  0  0  0
    9.9913  -16.8268   29.4058 O   0  0  0  0  0  0  0  0  0  0  0  0
   11.5903  -15.4775   30.2855 O   0  0  0  0  0  0  0  0  0  0  0  0
  2  1  1  6
  3  2  1  0
  4  3  1  0
  5  4  2  0
  6  7  1  0
  6  5  1  0
  7  8  2  0
  8  4  1  0
  9  2  1  0
  9 10  2  0
 11  9  1  0
 12 11  1  0
 13 12  1  0
 14 13  2  0
 16 15  1  1
 16 17  1  0
 16 18  1  0
 17 13  1  0
 18 20  1  0
 19 18  2  0
M  END
$$$$
