HGA.pdb
     RDKit          3D

 20 20  0  0  1  0  0  0  0  0999 V2000
    9.0954  -15.4807   20.7543 N   0  0  0  0  0  0  0  0  0  0  0  0
    8.2163  -14.4430   21.3405 C   0  0  1  0  0  0  0  0  0  0  0  0
    6.9837  -14.3598   20.5020 C   0  0  0  0  0  0  0  0  0  0  0  0
    7.2850  -14.1027   19.0879 C   0  0  0  0  0  0  0  0  0  0  0  0
    7.9438  -12.9953   18.5916 C   0  0  0  0  0  0  0  0  0  0  0  0
    8.0483  -13.0864   17.2431 N   0  0  0  0  0  0  0  0  0  0  0  0
    7.4554  -14.2498   16.8973 C   0  0  0  0  0  0  0  0  0  0  0  0
    6.9953  -14.8641   18.0010 N   0  0  0  0  0  0  0  0  0  0  0  0
    8.0218  -14.7772   22.7450 C   0  0  0  0  0  0  0  0  0  0  0  0
    7.3193  -14.0383   23.4761 O   0  0  0  0  0  0  0  0  0  0  0  0
    8.5909  -15.9218   23.3613 N   0  0  0  0  0  0  0  0  0  0  0  0
    8.3276  -16.1877   24.7795 C   0  0  0  0  0  0  0  0  0  0  0  0
    9.3583  -15.5800   25.6343 C   0  0  0  0  0  0  0  0  0  0  0  0
   10.5419  -15.3588   25.2673 O   0  0  0  0  0  0  0  0  0  0  0  0
    9.3811  -13.4291   28.5378 C   0  0  0  0  0  0  0  0  0  0  0  0
    9.9681  -14.6516   27.8471 C   0  0  2  0  0  0  0  0  0  0  0  0
    8.9686  -15.2246   26.9660 N   0  0  0  0  0  0  0  0  0  0  0  0
   10.2948  -15.6247   28.9184 C   0  0  0  0  0  0  0  0  0  0  0  0
    9.6737  -16.7195   29.0233 O   0  0  0  0  0  0  0  0  0  0  0  0
   11.2900  -15.3386   29.8181 O   0  0  0  0  0  0  0  0  0  0  0  0
  2  1  1  6
  3  2  1  0
  4  3  1  0
  5  4  2  0
  6  7  1  0
  6  5  1  0
  7  8  2  0
  8  4  1  0
  9  2  1  0
  9 10  2  0
 11  9  1  0
 12 11  1  0
 13 12  1  0
 14 13  2  0
 16 15  1  1
 16 17  1  0
 16 18  1  0
 17 13  1  0
 18 20  1  0
 19 18  2  0
M  END
$$$$
