HGA.pdb
     RDKit          3D

 20 20  0  0  1  0  0  0  0  0999 V2000
    8.5841  -16.5539   21.2866 N   0  0  0  0  0  0  0  0  0  0  0  0
    8.7899  -15.3138   22.0694 C   0  0  1  0  0  0  0  0  0  0  0  0
    7.5889  -14.4475   21.8793 C   0  0  0  0  0  0  0  0  0  0  0  0
    7.4591  -13.9658   20.4981 C   0  0  0  0  0  0  0  0  0  0  0  0
    8.2894  -13.0511   19.8812 C   0  0  0  0  0  0  0  0  0  0  0  0
    7.8762  -12.8382   18.6078 N   0  0  0  0  0  0  0  0  0  0  0  0
    6.7887  -13.6193   18.4293 C   0  0  0  0  0  0  0  0  0  0  0  0
    6.5338  -14.2985   19.5612 N   0  0  0  0  0  0  0  0  0  0  0  0
    9.0939  -15.7067   23.4389 C   0  0  0  0  0  0  0  0  0  0  0  0
    8.3167  -16.4693   24.0619 O   0  0  0  0  0  0  0  0  0  0  0  0
   10.2500  -15.2718   24.1377 N   0  0  0  0  0  0  0  0  0  0  0  0
   11.1727  -16.2634   24.7002 C   0  0  0  0  0  0  0  0  0  0  0  0
   11.3338  -16.0769   26.1499 C   0  0  0  0  0  0  0  0  0  0  0  0
   12.1460  -16.7246   26.8609 O   0  0  0  0  0  0  0  0  0  0  0  0
    9.9033  -13.5522   28.5445 C   0  0  0  0  0  0  0  0  0  0  0  0
   10.7525  -14.7557   28.1616 C   0  0  2  0  0  0  0  0  0  0  0  0
   10.5032  -15.0899   26.7724 N   0  0  0  0  0  0  0  0  0  0  0  0
   10.3071  -15.8774   29.0244 C   0  0  0  0  0  0  0  0  0  0  0  0
    9.5094  -16.7585   28.5970 O   0  0  0  0  0  0  0  0  0  0  0  0
   10.7656  -15.9683   30.3141 O   0  0  0  0  0  0  0  0  0  0  0  0
  2  1  1  6
  3  2  1  0
  4  3  1  0
  5  4  2  0
  6  7  1  0
  6  5  1  0
  7  8  2  0
  8  4  1  0
  9  2  1  0
  9 10  2  0
 11  9  1  0
 12 11  1  0
 13 12  1  0
 14 13  2  0
 16 15  1  1
 16 17  1  0
 16 18  1  0
 17 13  1  0
 18 20  1  0
 19 18  2  0
M  END
$$$$
