LEN.pdb
     RDKit          3D

 26 25  0  0  1  0  0  0  0  0999 V2000
   19.8232  -16.4986  -15.7921 C   0  0  0  0  0  0  0  0  0  0  0  0
   20.3819  -15.7585  -16.9568 C   0  0  1  0  0  0  0  0  0  0  0  0
   19.2800  -15.6981  -18.0218 C   0  0  0  0  0  0  0  0  0  0  0  0
   20.7999  -14.3537  -16.6973 C   0  0  0  0  0  0  0  0  0  0  0  0
   21.2822  -13.6092  -17.9240 C   0  0  2  0  0  0  0  0  0  0  0  0
   22.6204  -14.1068  -18.1917 N   0  0  0  0  0  0  0  0  0  0  0  0
   21.4385  -12.1802  -17.4913 C   0  0  0  0  0  0  0  0  0  0  0  0
   22.4757  -11.7469  -16.9335 O   0  0  0  0  0  0  0  0  0  0  0  0
   20.3695  -11.2352  -17.7100 N   0  0  0  0  0  0  0  0  0  0  0  0
   20.4897   -9.8287  -17.4610 C   0  0  1  0  0  0  0  0  0  0  0  0
   19.6381   -8.9881  -18.3821 C   0  0  0  0  0  0  0  0  0  0  0  0
   19.2471   -9.6964  -19.6445 C   0  0  0  0  0  0  0  0  0  0  0  0
   17.9503   -9.1969  -20.1673 C   0  0  0  0  0  0  0  0  0  0  0  0
   17.7826   -8.0228  -20.5329 O   0  0  0  0  0  0  0  0  0  0  0  0
   20.2833   -9.4827  -16.0285 C   0  0  0  0  0  0  0  0  0  0  0  0
   19.4876  -10.1693  -15.3083 O   0  0  0  0  0  0  0  0  0  0  0  0
   16.8983  -10.0958  -20.2408 O   0  0  0  0  0  0  0  0  0  0  0  0
   20.8739   -5.5935  -15.2583 N   0  0  0  0  0  0  0  0  0  0  0  0
   21.7977   -5.8464  -14.2353 C   0  0  0  0  0  0  0  0  0  0  0  0
   22.6344   -4.9393  -13.9023 O   0  0  0  0  0  0  0  0  0  0  0  0
   21.8671   -7.1322  -13.4955 C   0  0  0  0  0  0  0  0  0  0  0  0
   20.7802   -8.0606  -13.9957 C   0  0  2  0  0  0  0  0  0  0  0  0
   20.9323   -8.3997  -15.3746 N   0  0  0  0  0  0  0  0  0  0  0  0
   19.4507   -7.5189  -13.6480 C   0  0  0  0  0  0  0  0  0  0  0  0
   18.9700   -7.3648  -12.3546 O   0  0  0  0  0  0  0  0  0  0  0  0
   18.6648   -7.1578  -14.5759 O   0  0  0  0  0  0  0  0  0  0  0  0
  2  1  1  1
  2  3  1  0
  4  5  1  0
  4  2  1  0
  5  6  1  1
  7  5  1  0
  7  8  2  0
  9  7  1  0
 10  9  1  0
 10 11  1  6
 12 11  1  0
 12 13  1  0
 13 14  2  0
 15 10  1  0
 16 15  2  0
 17 13  1  0
 18 19  1  0
 19 21  1  0
 20 19  2  0
 22 21  1  6
 22 24  1  0
 22 23  1  0
 23 15  1  0
 24 25  1  0
 26 24  2  0
M  END
$$$$
