LEN.pdb
     RDKit          3D

 26 25  0  0  1  0  0  0  0  0999 V2000
173123.3906203616.609452973.9180 C   0  0  0  0  0  0  0  0  0  0  0  0
173122.2344203615.859452974.4883 C   0  0  1  0  0  0  0  0  0  0  0  0
173120.8906203616.703152974.0117 C   0  0  0  0  0  0  0  0  0  0  0  0
173121.9062203614.484452974.2383 C   0  0  0  0  0  0  0  0  0  0  0  0
173120.4531203614.140652974.7227 C   0  0  2  0  0  0  0  0  0  0  0  0
173120.6250203613.406252976.0352 N   0  0  0  0  0  0  0  0  0  0  0  0
173120.1250203613.125052973.6445 C   0  0  0  0  0  0  0  0  0  0  0  0
173119.6250203613.468852972.5352 O   0  0  0  0  0  0  0  0  0  0  0  0
173120.3906203611.671952973.8477 N   0  0  0  0  0  0  0  0  0  0  0  0
173119.6406203610.656252973.3750 C   0  0  1  0  0  0  0  0  0  0  0  0
173119.8438203610.406252971.9297 C   0  0  0  0  0  0  0  0  0  0  0  0
173118.5312203610.421952971.1445 C   0  0  0  0  0  0  0  0  0  0  0  0
173117.7031203611.531252971.3789 C   0  0  0  0  0  0  0  0  0  0  0  0
173117.9062203612.640652970.9414 O   0  0  0  0  0  0  0  0  0  0  0  0
173119.8438203609.375052974.0859 C   0  0  0  0  0  0  0  0  0  0  0  0
173119.1250203609.015652975.1328 O   0  0  0  0  0  0  0  0  0  0  0  0
173116.6094203611.406252972.1680 O   0  0  0  0  0  0  0  0  0  0  0  0
173124.7031203606.421952972.0391 N   0  0  0  0  0  0  0  0  0  0  0  0
173123.5625203607.093852972.6484 C   0  0  0  0  0  0  0  0  0  0  0  0
173123.8438203607.796952973.6953 O   0  0  0  0  0  0  0  0  0  0  0  0
173122.1875203607.093852972.1875 C   0  0  0  0  0  0  0  0  0  0  0  0
173121.5781203608.453152972.5391 C   0  0  2  0  0  0  0  0  0  0  0  0
173120.8594203608.390652973.8047 N   0  0  0  0  0  0  0  0  0  0  0  0
173120.7812203608.968852971.3750 C   0  0  0  0  0  0  0  0  0  0  0  0
173121.0000203608.562552970.0078 O   0  0  0  0  0  0  0  0  0  0  0  0
173119.8125203609.671952971.5547 O   0  0  0  0  0  0  0  0  0  0  0  0
  2  1  1  6
  2  3  1  0
  4  5  1  0
  4  2  1  0
  5  6  1  1
  7  5  1  0
  7  8  2  0
  9  7  1  0
 10  9  1  0
 10 11  1  6
 12 11  1  0
 12 13  1  0
 13 14  2  0
 15 10  1  0
 16 15  2  0
 17 13  1  0
 18 19  1  0
 19 21  1  0
 20 19  2  0
 22 21  1  6
 22 24  1  0
 22 23  1  0
 23 15  1  0
 24 25  1  0
 26 24  2  0
M  END
$$$$
