LEN.pdb
     RDKit          3D

 26 25  0  0  1  0  0  0  0  0999 V2000
   24.0152  -12.9762  -16.0016 C   0  0  0  0  0  0  0  0  0  0  0  0
   23.7417  -11.6996  -15.2862 C   0  0  1  0  0  0  0  0  0  0  0  0
   25.0760  -10.9517  -15.1751 C   0  0  0  0  0  0  0  0  0  0  0  0
   22.7877  -10.7706  -15.9512 C   0  0  0  0  0  0  0  0  0  0  0  0
   22.6204   -9.4399  -15.2493 C   0  0  2  0  0  0  0  0  0  0  0  0
   22.0900   -9.7477  -13.9325 N   0  0  0  0  0  0  0  0  0  0  0  0
   21.5272   -8.7281  -15.9924 C   0  0  0  0  0  0  0  0  0  0  0  0
   21.6136   -8.4275  -17.2077 O   0  0  0  0  0  0  0  0  0  0  0  0
   20.3097   -8.3575  -15.3114 N   0  0  0  0  0  0  0  0  0  0  0  0
   19.2069   -7.7058  -15.9547 C   0  0  1  0  0  0  0  0  0  0  0  0
   17.8662   -8.2723  -15.5526 C   0  0  0  0  0  0  0  0  0  0  0  0
   17.5861   -9.6203  -16.1467 C   0  0  0  0  0  0  0  0  0  0  0  0
   16.2342  -10.1074  -15.7729 C   0  0  0  0  0  0  0  0  0  0  0  0
   16.0009  -11.2963  -15.5037 O   0  0  0  0  0  0  0  0  0  0  0  0
   19.2589   -6.2250  -15.8161 C   0  0  0  0  0  0  0  0  0  0  0  0
   19.3734   -5.6896  -14.6656 O   0  0  0  0  0  0  0  0  0  0  0  0
   15.2063   -9.1791  -15.7295 O   0  0  0  0  0  0  0  0  0  0  0  0
   19.9688   -1.2527  -16.6482 N   0  0  0  0  0  0  0  0  0  0  0  0
   19.7965   -1.8131  -17.9210 C   0  0  0  0  0  0  0  0  0  0  0  0
   20.0338   -1.1061  -18.9590 O   0  0  0  0  0  0  0  0  0  0  0  0
   19.3455   -3.2102  -18.1453 C   0  0  0  0  0  0  0  0  0  0  0  0
   19.1606   -3.9005  -16.8100 C   0  0  2  0  0  0  0  0  0  0  0  0
   19.1871   -5.3245  -16.9140 N   0  0  0  0  0  0  0  0  0  0  0  0
   17.9673   -3.3652  -16.1233 C   0  0  0  0  0  0  0  0  0  0  0  0
   17.9965   -2.4606  -15.0705 O   0  0  0  0  0  0  0  0  0  0  0  0
   16.8146   -3.7388  -16.4985 O   0  0  0  0  0  0  0  0  0  0  0  0
  2  1  1  6
  2  3  1  0
  4  5  1  0
  4  2  1  0
  5  6  1  1
  7  5  1  0
  7  8  2  0
  9  7  1  0
 10  9  1  0
 10 11  1  1
 12 11  1  0
 12 13  1  0
 13 14  2  0
 15 10  1  0
 16 15  2  0
 17 13  1  0
 18 19  1  0
 19 21  1  0
 20 19  2  0
 22 21  1  6
 22 24  1  0
 22 23  1  0
 23 15  1  0
 24 25  1  0
 26 24  2  0
M  END
$$$$
