LEN.pdb
     RDKit          3D

 26 25  0  0  1  0  0  0  0  0999 V2000
   26.2217  -13.9354  -15.3179 C   0  0  0  0  0  0  0  0  0  0  0  0
   24.8363  -13.5279  -15.6796 C   0  0  1  0  0  0  0  0  0  0  0  0
   23.8866  -14.2764  -14.7362 C   0  0  0  0  0  0  0  0  0  0  0  0
   24.5239  -12.0796  -15.5362 C   0  0  0  0  0  0  0  0  0  0  0  0
   23.1091  -11.7050  -15.9228 C   0  0  2  0  0  0  0  0  0  0  0  0
   22.9073  -12.2362  -17.2596 N   0  0  0  0  0  0  0  0  0  0  0  0
   23.1113  -10.2095  -16.0554 C   0  0  0  0  0  0  0  0  0  0  0  0
   23.3453   -9.4406  -15.0916 O   0  0  0  0  0  0  0  0  0  0  0  0
   22.8361   -9.5942  -17.3317 N   0  0  0  0  0  0  0  0  0  0  0  0
   22.7252   -8.1779  -17.5230 C   0  0  1  0  0  0  0  0  0  0  0  0
   23.3782   -7.6983  -18.7974 C   0  0  0  0  0  0  0  0  0  0  0  0
   24.8764   -7.7025  -18.7377 C   0  0  0  0  0  0  0  0  0  0  0  0
   25.3909   -6.5545  -17.9490 C   0  0  0  0  0  0  0  0  0  0  0  0
   26.0538   -6.6988  -16.9097 O   0  0  0  0  0  0  0  0  0  0  0  0
   21.3254   -7.6914  -17.3879 C   0  0  0  0  0  0  0  0  0  0  0  0
   20.3771   -8.2789  -18.0035 O   0  0  0  0  0  0  0  0  0  0  0  0
   25.1070   -5.2792  -18.4108 O   0  0  0  0  0  0  0  0  0  0  0  0
   16.9349   -5.4462  -16.1118 N   0  0  0  0  0  0  0  0  0  0  0  0
   17.4891   -6.3608  -15.2062 C   0  0  0  0  0  0  0  0  0  0  0  0
   16.7651   -6.8350  -14.2656 O   0  0  0  0  0  0  0  0  0  0  0  0
   18.8981   -6.8256  -15.2723 C   0  0  0  0  0  0  0  0  0  0  0  0
   19.6112   -6.1129  -16.4024 C   0  0  2  0  0  0  0  0  0  0  0  0
   20.9491   -6.5748  -16.5921 N   0  0  0  0  0  0  0  0  0  0  0  0
   19.4935   -4.6500  -16.2339 C   0  0  0  0  0  0  0  0  0  0  0  0
   18.6431   -3.8327  -16.9665 O   0  0  0  0  0  0  0  0  0  0  0  0
   20.2077   -4.0653  -15.3639 O   0  0  0  0  0  0  0  0  0  0  0  0
  2  1  1  1
  2  3  1  0
  4  5  1  0
  4  2  1  0
  5  6  1  6
  7  5  1  0
  7  8  2  0
  9  7  1  0
 10  9  1  0
 10 11  1  6
 12 11  1  0
 12 13  1  0
 13 14  2  0
 15 10  1  0
 16 15  2  0
 17 13  1  0
 18 19  1  0
 19 21  1  0
 20 19  2  0
 22 21  1  1
 22 24  1  0
 22 23  1  0
 23 15  1  0
 24 25  1  0
 26 24  2  0
M  END
$$$$
