LEN.pdb
     RDKit          3D

 26 25  0  0  1  0  0  0  0  0999 V2000
   20.1460  -14.4540  -20.4769 C   0  0  0  0  0  0  0  0  0  0  0  0
   20.5204  -14.0223  -19.1022 C   0  0  1  0  0  0  0  0  0  0  0  0
   22.0426  -14.1682  -18.9840 C   0  0  0  0  0  0  0  0  0  0  0  0
   20.2001  -12.6116  -18.7516 C   0  0  0  0  0  0  0  0  0  0  0  0
   20.6560  -12.1928  -17.3702 C   0  0  2  0  0  0  0  0  0  0  0  0
   20.0375  -13.1274  -16.4460 N   0  0  0  0  0  0  0  0  0  0  0  0
   20.0120  -10.8596  -17.1214 C   0  0  0  0  0  0  0  0  0  0  0  0
   20.2850   -9.8353  -17.7930 O   0  0  0  0  0  0  0  0  0  0  0  0
   19.0319  -10.7122  -16.0721 N   0  0  0  0  0  0  0  0  0  0  0  0
   18.3680   -9.4774  -15.7732 C   0  0  1  0  0  0  0  0  0  0  0  0
   17.0189   -9.6711  -15.1232 C   0  0  0  0  0  0  0  0  0  0  0  0
   16.0061  -10.3049  -16.0291 C   0  0  0  0  0  0  0  0  0  0  0  0
   14.7200  -10.5390  -15.3251 C   0  0  0  0  0  0  0  0  0  0  0  0
   13.6656   -9.9697  -15.6484 O   0  0  0  0  0  0  0  0  0  0  0  0
   19.2317   -8.5346  -15.0119 C   0  0  0  0  0  0  0  0  0  0  0  0
   20.2205   -8.9695  -14.3362 O   0  0  0  0  0  0  0  0  0  0  0  0
   14.7206  -11.4336  -14.2668 O   0  0  0  0  0  0  0  0  0  0  0  0
   21.7949   -4.2869  -13.5901 N   0  0  0  0  0  0  0  0  0  0  0  0
   22.2614   -5.3614  -14.3593 C   0  0  0  0  0  0  0  0  0  0  0  0
   23.5118   -5.4673  -14.6026 O   0  0  0  0  0  0  0  0  0  0  0  0
   21.3737   -6.4104  -14.9224 C   0  0  0  0  0  0  0  0  0  0  0  0
   19.9540   -6.1758  -14.4501 C   0  0  2  0  0  0  0  0  0  0  0  0
   19.0298   -7.1275  -14.9786 N   0  0  0  0  0  0  0  0  0  0  0  0
   19.5700   -4.7676  -14.6775 C   0  0  0  0  0  0  0  0  0  0  0  0
   19.7738   -3.7336  -13.7736 O   0  0  0  0  0  0  0  0  0  0  0  0
   19.0105   -4.4446  -15.7691 O   0  0  0  0  0  0  0  0  0  0  0  0
  2  1  1  6
  2  3  1  0
  4  5  1  0
  4  2  1  0
  5  6  1  1
  7  5  1  0
  7  8  2  0
  9  7  1  0
 10  9  1  0
 10 11  1  1
 12 11  1  0
 12 13  1  0
 13 14  2  0
 15 10  1  0
 16 15  2  0
 17 13  1  0
 18 19  1  0
 19 21  1  0
 20 19  2  0
 22 21  1  6
 22 24  1  0
 22 23  1  0
 23 15  1  0
 24 25  1  0
 26 24  2  0
M  END
$$$$
