WNT.pdb
     RDKit          3D

 30 31  0  0  1  0  0  0  0  0999 V2000
    6.6734  -17.4812   24.5536 N   0  0  0  0  0  0  0  0  0  0  0  0
    7.8678  -16.6989   24.4753 C   0  0  1  0  0  0  0  0  0  0  0  0
    8.0537  -15.7522   25.6095 C   0  0  0  0  0  0  0  0  0  0  0  0
    7.0317  -14.7330   25.7901 C   0  0  0  0  0  0  0  0  0  0  0  0
    5.7382  -14.9613   26.1988 C   0  0  0  0  0  0  0  0  0  0  0  0
    5.0633  -13.7806   26.2429 N   0  0  0  0  0  0  0  0  0  0  0  0
    5.9021  -12.7941   25.8683 C   0  0  0  0  0  0  0  0  0  0  0  0
    5.6761  -11.4387   25.7612 C   0  0  0  0  0  0  0  0  0  0  0  0
    6.6983  -10.6157   25.3591 C   0  0  0  0  0  0  0  0  0  0  0  0
    7.9239  -11.1601   25.0722 C   0  0  0  0  0  0  0  0  0  0  0  0
    8.1424  -12.5181   25.1816 C   0  0  0  0  0  0  0  0  0  0  0  0
    7.1410  -13.3788   25.5818 C   0  0  0  0  0  0  0  0  0  0  0  0
    9.0750  -17.5685   24.2732 C   0  0  0  0  0  0  0  0  0  0  0  0
    9.2988  -18.5518   25.0408 O   0  0  0  0  0  0  0  0  0  0  0  0
   12.0830  -17.6602   20.7848 N   0  0  0  0  0  0  0  0  0  0  0  0
   12.0321  -16.2727   21.0491 C   0  0  0  0  0  0  0  0  0  0  0  0
   12.3521  -15.5043   20.1092 O   0  0  0  0  0  0  0  0  0  0  0  0
   11.6297  -15.6995   22.3484 C   0  0  0  0  0  0  0  0  0  0  0  0
   11.2767  -16.6764   23.3922 C   0  0  2  0  0  0  0  0  0  0  0  0
    9.9874  -17.3243   23.2368 N   0  0  0  0  0  0  0  0  0  0  0  0
   11.6517  -16.4567   24.7744 C   0  0  0  0  0  0  0  0  0  0  0  0
   12.9045  -16.1662   24.9506 O   0  0  0  0  0  0  0  0  0  0  0  0
   10.8337  -13.9034   27.5361 C   0  0  0  0  0  0  0  0  0  0  0  0
   10.6104  -15.3172   27.9889 C   0  0  1  0  0  0  0  0  0  0  0  0
    9.2988  -15.7587   27.8127 O   0  0  0  0  0  0  0  0  0  0  0  0
   11.5019  -16.3149   27.2808 C   0  0  2  0  0  0  0  0  0  0  0  0
   10.8905  -16.5104   25.9495 N   0  0  0  0  0  0  0  0  0  0  0  0
   11.4413  -17.5857   28.0416 C   0  0  0  0  0  0  0  0  0  0  0  0
   10.8888  -18.7243   27.5279 O   0  0  0  0  0  0  0  0  0  0  0  0
   11.9136  -17.6356   29.2095 O   0  0  0  0  0  0  0  0  0  0  0  0
  2 13  1  0
  2  1  1  1
  2  3  1  0
  4  3  1  0
  4 12  1  0
  5  6  1  0
  5  4  2  0
  6  7  1  0
  7  8  1  0
  7 12  2  0
  8  9  2  0
  9 10  1  0
 11 10  2  0
 12 11  1  0
 13 14  2  0
 15 16  1  0
 16 18  1  0
 17 16  2  0
 19 18  1  6
 19 21  1  0
 20 19  1  0
 20 13  1  0
 21 22  2  0
 21 27  1  0
 24 23  1  6
 24 26  1  0
 24 25  1  0
 26 28  1  0
 26 27  1  6
 28 30  2  0
 28 29  1  0
M  END
$$$$
