WNT.pdb
     RDKit          3D

 30 31  0  0  1  0  0  0  0  0999 V2000
    6.3015  -17.8606   24.8286 N   0  0  0  0  0  0  0  0  0  0  0  0
    6.8882  -16.8663   23.9850 C   0  0  1  0  0  0  0  0  0  0  0  0
    7.7196  -15.8647   24.7081 C   0  0  0  0  0  0  0  0  0  0  0  0
    7.0117  -14.8675   25.4957 C   0  0  0  0  0  0  0  0  0  0  0  0
    5.9480  -15.1166   26.3317 C   0  0  0  0  0  0  0  0  0  0  0  0
    5.5310  -13.9490   26.8923 N   0  0  0  0  0  0  0  0  0  0  0  0
    6.3095  -12.9504   26.4300 C   0  0  0  0  0  0  0  0  0  0  0  0
    6.2729  -11.6019   26.7125 C   0  0  0  0  0  0  0  0  0  0  0  0
    7.1834  -10.7647   26.1174 C   0  0  0  0  0  0  0  0  0  0  0  0
    8.1110  -11.2885   25.2537 C   0  0  0  0  0  0  0  0  0  0  0  0
    8.1412  -12.6396   24.9758 C   0  0  0  0  0  0  0  0  0  0  0  0
    7.2432  -13.5139   25.5528 C   0  0  0  0  0  0  0  0  0  0  0  0
    7.6387  -17.4937   22.8459 C   0  0  0  0  0  0  0  0  0  0  0  0
    8.0132  -18.7029   22.9071 O   0  0  0  0  0  0  0  0  0  0  0  0
   10.6629  -16.0833   17.6223 N   0  0  0  0  0  0  0  0  0  0  0  0
   10.0253  -16.9786   18.5108 C   0  0  0  0  0  0  0  0  0  0  0  0
   10.4308  -18.1667   18.5066 O   0  0  0  0  0  0  0  0  0  0  0  0
    8.9308  -16.5898   19.4216 C   0  0  0  0  0  0  0  0  0  0  0  0
    9.0865  -17.0181   20.8219 C   0  0  2  0  0  0  0  0  0  0  0  0
    7.9473  -16.7692   21.6858 N   0  0  0  0  0  0  0  0  0  0  0  0
   10.3627  -16.9018   21.4981 C   0  0  0  0  0  0  0  0  0  0  0  0
   10.9687  -15.7695   21.3089 O   0  0  0  0  0  0  0  0  0  0  0  0
   11.6500  -16.7321   25.1911 C   0  0  0  0  0  0  0  0  0  0  0  0
   12.2561  -17.8313   24.3675 C   0  0  1  0  0  0  0  0  0  0  0  0
   11.5515  -19.0334   24.4367 O   0  0  0  0  0  0  0  0  0  0  0  0
   12.3693  -17.4795   22.8995 C   0  0  2  0  0  0  0  0  0  0  0  0
   11.0518  -17.8073   22.3156 N   0  0  0  0  0  0  0  0  0  0  0  0
   13.4031  -18.3619   22.3079 C   0  0  0  0  0  0  0  0  0  0  0  0
   13.0980  -19.3741   21.4430 O   0  0  0  0  0  0  0  0  0  0  0  0
   14.6160  -18.1854   22.6033 O   0  0  0  0  0  0  0  0  0  0  0  0
  2 13  1  0
  2  1  1  1
  2  3  1  0
  4  3  1  0
  4 12  1  0
  5  6  1  0
  5  4  2  0
  6  7  1  0
  7  8  1  0
  7 12  2  0
  8  9  2  0
  9 10  1  0
 11 10  2  0
 12 11  1  0
 13 14  2  0
 15 16  1  0
 16 18  1  0
 17 16  2  0
 19 18  1  6
 19 21  1  0
 20 19  1  0
 20 13  1  0
 21 22  2  0
 21 27  1  0
 24 23  1  1
 24 26  1  0
 24 25  1  0
 26 28  1  0
 26 27  1  6
 28 30  2  0
 28 29  1  0
M  END
$$$$
