WNT.pdb
     RDKit          3D

 30 31  0  0  1  0  0  0  0  0999 V2000
    6.2840  -18.1903   24.6185 N   0  0  0  0  0  0  0  0  0  0  0  0
    6.9455  -17.2645   23.7525 C   0  0  1  0  0  0  0  0  0  0  0  0
    7.8332  -16.2975   24.4555 C   0  0  0  0  0  0  0  0  0  0  0  0
    7.1886  -15.3193   25.3176 C   0  0  0  0  0  0  0  0  0  0  0  0
    6.2890  -15.6051   26.3184 C   0  0  0  0  0  0  0  0  0  0  0  0
    5.8834  -14.4466   26.9055 N   0  0  0  0  0  0  0  0  0  0  0  0
    6.5076  -13.4177   26.2982 C   0  0  0  0  0  0  0  0  0  0  0  0
    6.4204  -12.0646   26.5455 C   0  0  0  0  0  0  0  0  0  0  0  0
    7.1651  -11.1932   25.7905 C   0  0  0  0  0  0  0  0  0  0  0  0
    7.9809  -11.6879   24.8054 C   0  0  0  0  0  0  0  0  0  0  0  0
    8.0626  -13.0439   24.5636 C   0  0  0  0  0  0  0  0  0  0  0  0
    7.3299  -13.9522   25.2998 C   0  0  0  0  0  0  0  0  0  0  0  0
    7.6658  -17.9764   22.6440 C   0  0  0  0  0  0  0  0  0  0  0  0
    8.0737  -19.1664   22.7982 O   0  0  0  0  0  0  0  0  0  0  0  0
    7.0469  -15.4548   19.1692 N   0  0  0  0  0  0  0  0  0  0  0  0
    8.4081  -15.7813   18.9743 C   0  0  0  0  0  0  0  0  0  0  0  0
    9.1662  -14.8528   18.6011 O   0  0  0  0  0  0  0  0  0  0  0  0
    8.9657  -17.1318   19.1842 C   0  0  0  0  0  0  0  0  0  0  0  0
    9.0867  -17.5584   20.5884 C   0  0  2  0  0  0  0  0  0  0  0  0
    7.9089  -17.3539   21.4113 N   0  0  0  0  0  0  0  0  0  0  0  0
   10.3328  -17.3976   21.3103 C   0  0  0  0  0  0  0  0  0  0  0  0
   11.3972  -17.5797   20.5900 O   0  0  0  0  0  0  0  0  0  0  0  0
   11.6948  -14.7166   24.0878 C   0  0  0  0  0  0  0  0  0  0  0  0
   11.8724  -16.1680   24.4281 C   0  0  1  0  0  0  0  0  0  0  0  0
   10.8545  -16.6810   25.2324 O   0  0  0  0  0  0  0  0  0  0  0  0
   11.9495  -17.0588   23.2064 C   0  0  2  0  0  0  0  0  0  0  0  0
   10.5792  -17.0843   22.6535 N   0  0  0  0  0  0  0  0  0  0  0  0
   12.3192  -18.4180   23.6683 C   0  0  0  0  0  0  0  0  0  0  0  0
   13.5799  -18.7339   24.0885 O   0  0  0  0  0  0  0  0  0  0  0  0
   11.4488  -19.3300   23.6804 O   0  0  0  0  0  0  0  0  0  0  0  0
  2 13  1  0
  2  1  1  1
  2  3  1  0
  4  3  1  0
  4 12  1  0
  5  6  1  0
  5  4  2  0
  6  7  1  0
  7  8  1  0
  7 12  2  0
  8  9  2  0
  9 10  1  0
 11 10  2  0
 12 11  1  0
 13 14  2  0
 15 16  1  0
 16 18  1  0
 17 16  2  0
 19 18  1  6
 19 21  1  0
 20 19  1  0
 20 13  1  0
 21 22  2  0
 21 27  1  0
 24 23  1  6
 24 26  1  0
 24 25  1  0
 26 28  1  0
 26 27  1  1
 28 30  2  0
 28 29  1  0
M  END
$$$$
