WNT.pdb
     RDKit          3D

 30 31  0  0  1  0  0  0  0  0999 V2000
    6.5458  -18.0737   23.9911 N   0  0  0  0  0  0  0  0  0  0  0  0
    7.5061  -17.0250   24.1421 C   0  0  1  0  0  0  0  0  0  0  0  0
    7.5390  -16.4176   25.5013 C   0  0  0  0  0  0  0  0  0  0  0  0
    6.7196  -15.2348   25.7133 C   0  0  0  0  0  0  0  0  0  0  0  0
    5.3880  -15.2358   26.0587 C   0  0  0  0  0  0  0  0  0  0  0  0
    4.9461  -13.9528   26.1582 N   0  0  0  0  0  0  0  0  0  0  0  0
    5.9726  -13.1241   25.8818 C   0  0  0  0  0  0  0  0  0  0  0  0
    6.0112  -11.7465   25.8587 C   0  0  0  0  0  0  0  0  0  0  0  0
    7.1882  -11.1113   25.5504 C   0  0  0  0  0  0  0  0  0  0  0  0
    8.3019  -11.8616   25.2718 C   0  0  0  0  0  0  0  0  0  0  0  0
    8.2554  -13.2404   25.2968 C   0  0  0  0  0  0  0  0  0  0  0  0
    7.0917  -13.9163   25.6013 C   0  0  0  0  0  0  0  0  0  0  0  0
    8.8700  -17.4687   23.6979 C   0  0  0  0  0  0  0  0  0  0  0  0
    9.2320  -18.6759   23.8313 O   0  0  0  0  0  0  0  0  0  0  0  0
   14.0584  -17.3645   21.9065 N   0  0  0  0  0  0  0  0  0  0  0  0
   13.4720  -16.1635   22.3660 C   0  0  0  0  0  0  0  0  0  0  0  0
   14.2494  -15.2951   22.8324 O   0  0  0  0  0  0  0  0  0  0  0  0
   12.0221  -15.8901   22.3237 C   0  0  0  0  0  0  0  0  0  0  0  0
   11.2155  -16.5775   23.3461 C   0  0  2  0  0  0  0  0  0  0  0  0
    9.7812  -16.5699   23.1251 N   0  0  0  0  0  0  0  0  0  0  0  0
   11.5862  -16.5247   24.7459 C   0  0  0  0  0  0  0  0  0  0  0  0
   12.7677  -16.9953   25.0059 O   0  0  0  0  0  0  0  0  0  0  0  0
   10.8378  -13.6174   27.5941 C   0  0  0  0  0  0  0  0  0  0  0  0
   10.6460  -15.0485   28.0051 C   0  0  1  0  0  0  0  0  0  0  0  0
    9.3272  -15.4893   27.8921 O   0  0  0  0  0  0  0  0  0  0  0  0
   11.4954  -16.0141   27.2066 C   0  0  2  0  0  0  0  0  0  0  0  0
   10.8817  -16.0564   25.8628 N   0  0  0  0  0  0  0  0  0  0  0  0
   11.3751  -17.3467   27.8447 C   0  0  0  0  0  0  0  0  0  0  0  0
   11.9091  -17.6256   29.0706 O   0  0  0  0  0  0  0  0  0  0  0  0
   10.7591  -18.2702   27.2470 O   0  0  0  0  0  0  0  0  0  0  0  0
  2 13  1  0
  2  1  1  1
  2  3  1  0
  4  3  1  0
  4 12  1  0
  5  6  1  0
  5  4  2  0
  6  7  1  0
  7  8  1  0
  7 12  2  0
  8  9  2  0
  9 10  1  0
 11 10  2  0
 12 11  1  0
 13 14  2  0
 15 16  1  0
 16 18  1  0
 17 16  2  0
 19 18  1  6
 19 21  1  0
 20 19  1  0
 20 13  1  0
 21 22  2  0
 21 27  1  0
 24 23  1  6
 24 26  1  0
 24 25  1  0
 26 28  1  0
 26 27  1  6
 28 30  2  0
 28 29  1  0
M  END
$$$$
