WNT.pdb
     RDKit          3D

 30 31  0  0  1  0  0  0  0  0999 V2000
    6.8300  -17.6526   23.9760 N   0  0  0  0  0  0  0  0  0  0  0  0
    7.8296  -16.6328   24.0496 C   0  0  1  0  0  0  0  0  0  0  0  0
    7.9316  -15.9720   25.3801 C   0  0  0  0  0  0  0  0  0  0  0  0
    6.9008  -15.0015   25.7135 C   0  0  0  0  0  0  0  0  0  0  0  0
    5.7071  -15.2848   26.3359 C   0  0  0  0  0  0  0  0  0  0  0  0
    4.9867  -14.1388   26.4744 N   0  0  0  0  0  0  0  0  0  0  0  0
    5.6977  -13.1206   25.9503 C   0  0  0  0  0  0  0  0  0  0  0  0
    5.3849  -11.7812   25.8623 C   0  0  0  0  0  0  0  0  0  0  0  0
    6.2806  -10.9176   25.2828 C   0  0  0  0  0  0  0  0  0  0  0  0
    7.4690  -11.4063   24.8035 C   0  0  0  0  0  0  0  0  0  0  0  0
    7.7750  -12.7486   24.8951 C   0  0  0  0  0  0  0  0  0  0  0  0
    6.9013  -13.6489   25.4697 C   0  0  0  0  0  0  0  0  0  0  0  0
    9.1611  -17.1415   23.5777 C   0  0  0  0  0  0  0  0  0  0  0  0
    9.3949  -18.3859   23.5233 O   0  0  0  0  0  0  0  0  0  0  0  0
   14.5891  -17.1698   21.9491 N   0  0  0  0  0  0  0  0  0  0  0  0
   13.9394  -16.1159   22.6308 C   0  0  0  0  0  0  0  0  0  0  0  0
   14.6423  -15.4250   23.4084 O   0  0  0  0  0  0  0  0  0  0  0  0
   12.5065  -15.7980   22.4740 C   0  0  0  0  0  0  0  0  0  0  0  0
   11.5990  -16.4704   23.4189 C   0  0  2  0  0  0  0  0  0  0  0  0
   10.1818  -16.2643   23.1842 N   0  0  0  0  0  0  0  0  0  0  0  0
   11.9422  -16.5924   24.8214 C   0  0  0  0  0  0  0  0  0  0  0  0
   13.1912  -16.8652   25.0461 O   0  0  0  0  0  0  0  0  0  0  0  0
   11.2218  -14.1506   27.8948 C   0  0  0  0  0  0  0  0  0  0  0  0
   10.9156  -15.5941   28.1711 C   0  0  1  0  0  0  0  0  0  0  0  0
    9.5771  -15.9296   27.9656 O   0  0  0  0  0  0  0  0  0  0  0  0
   11.7354  -16.5467   27.3272 C   0  0  2  0  0  0  0  0  0  0  0  0
   11.1516  -16.4703   25.9716 N   0  0  0  0  0  0  0  0  0  0  0  0
   11.5358  -17.9105   27.8729 C   0  0  0  0  0  0  0  0  0  0  0  0
   11.9897  -18.2824   29.1063 O   0  0  0  0  0  0  0  0  0  0  0  0
   10.9252  -18.7732   27.1855 O   0  0  0  0  0  0  0  0  0  0  0  0
  2 13  1  0
  2  1  1  1
  2  3  1  0
  4  3  1  0
  4 12  1  0
  5  6  1  0
  5  4  2  0
  6  7  1  0
  7  8  1  0
  7 12  2  0
  8  9  2  0
  9 10  1  0
 11 10  2  0
 12 11  1  0
 13 14  2  0
 15 16  1  0
 16 18  1  0
 17 16  2  0
 19 18  1  1
 19 21  1  0
 20 19  1  0
 20 13  1  0
 21 22  2  0
 21 27  1  0
 24 23  1  6
 24 26  1  0
 24 25  1  0
 26 28  1  0
 26 27  1  6
 28 30  2  0
 28 29  1  0
M  END
$$$$
