EDH.pdb
     RDKit          3D

 28 28  0  0  1  0  0  0  0  0999 V2000
   12.6358  -16.0952   13.5160 N   0  0  0  0  0  0  0  0  0  0  0  0
   11.5440  -16.5356   14.3972 C   0  0  1  0  0  0  0  0  0  0  0  0
   12.0239  -17.8562   14.9510 C   0  0  0  0  0  0  0  0  0  0  0  0
   13.2774  -17.7573   15.7478 C   0  0  0  0  0  0  0  0  0  0  0  0
   13.6859  -19.1170   16.1862 C   0  0  0  0  0  0  0  0  0  0  0  0
   14.8530  -19.5321   16.0260 O   0  0  0  0  0  0  0  0  0  0  0  0
   11.4141  -15.5819   15.5321 C   0  0  0  0  0  0  0  0  0  0  0  0
   12.4041  -14.9733   15.9779 O   0  0  0  0  0  0  0  0  0  0  0  0
   12.7365  -19.9305   16.7853 O   0  0  0  0  0  0  0  0  0  0  0  0
   10.1495  -15.3145   16.1690 N   0  0  0  0  0  0  0  0  0  0  0  0
   10.0589  -14.4082   17.2963 C   0  0  1  0  0  0  0  0  0  0  0  0
    8.6173  -14.0686   17.5635 C   0  0  0  0  0  0  0  0  0  0  0  0
    8.5434  -13.1073   18.6872 C   0  0  0  0  0  0  0  0  0  0  0  0
    9.5911  -12.8029   19.3602 O   0  0  0  0  0  0  0  0  0  0  0  0
   10.5818  -15.1326   18.5073 C   0  0  0  0  0  0  0  0  0  0  0  0
   10.0582  -16.1814   18.9509 O   0  0  0  0  0  0  0  0  0  0  0  0
    7.3927  -12.4654   19.1130 O   0  0  0  0  0  0  0  0  0  0  0  0
   11.7213  -14.6433   19.2157 N   0  0  0  0  0  0  0  0  0  0  0  0
   12.2318  -15.2728   20.4187 C   0  0  1  0  0  0  0  0  0  0  0  0
   12.4088  -16.7707   20.2178 C   0  0  0  0  0  0  0  0  0  0  0  0
   12.6961  -17.3531   21.5430 C   0  0  0  0  0  0  0  0  0  0  0  0
   12.2083  -16.8823   22.7396 C   0  0  0  0  0  0  0  0  0  0  0  0
   12.7285  -17.7167   23.6765 N   0  0  0  0  0  0  0  0  0  0  0  0
   13.4834  -18.6316   23.0662 C   0  0  0  0  0  0  0  0  0  0  0  0
   13.4752  -18.4240   21.7564 N   0  0  0  0  0  0  0  0  0  0  0  0
   13.5576  -14.6427   20.7117 C   0  0  0  0  0  0  0  0  0  0  0  0
   14.4378  -15.2373   21.6085 O   0  0  0  0  0  0  0  0  0  0  0  0
   13.9285  -13.5689   20.1714 O   0  0  0  0  0  0  0  0  0  0  0  0
  2  1  1  6
  2  3  1  0
  4  5  1  0
  4  3  1  0
  5  6  2  0
  7  2  1  0
  8  7  2  0
  9  5  1  0
 10  7  1  0
 11 10  1  0
 11 12  1  1
 12 13  1  0
 13 17  1  0
 14 13  2  0
 15 16  2  0
 15 11  1  0
 18 15  1  0
 19 18  1  0
 19 20  1  6
 20 21  1  0
 21 22  2  0
 21 25  1  0
 22 23  1  0
 24 23  1  0
 25 24  2  0
 26 19  1  0
 27 26  1  0
 28 26  2  0
M  END
$$$$
