EDH.pdb
     RDKit          3D

 28 28  0  0  1  0  0  0  0  0999 V2000
   14.9994  -16.4038   16.4248 N   0  0  0  0  0  0  0  0  0  0  0  0
   14.7836  -15.9094   17.7928 C   0  0  1  0  0  0  0  0  0  0  0  0
   15.1524  -14.4465   17.7212 C   0  0  0  0  0  0  0  0  0  0  0  0
   16.1338  -14.0198   18.7559 C   0  0  0  0  0  0  0  0  0  0  0  0
   17.3789  -13.5602   18.0877 C   0  0  0  0  0  0  0  0  0  0  0  0
   17.3600  -12.6701   17.2116 O   0  0  0  0  0  0  0  0  0  0  0  0
   13.3362  -16.0021   18.1257 C   0  0  0  0  0  0  0  0  0  0  0  0
   12.4721  -15.4954   17.3869 O   0  0  0  0  0  0  0  0  0  0  0  0
   18.5808  -14.1438   18.4577 O   0  0  0  0  0  0  0  0  0  0  0  0
   12.8622  -16.6758   19.3080 N   0  0  0  0  0  0  0  0  0  0  0  0
   11.4463  -16.7474   19.6087 C   0  0  1  0  0  0  0  0  0  0  0  0
   11.0286  -18.1854   19.7593 C   0  0  0  0  0  0  0  0  0  0  0  0
    9.5873  -18.2416   20.0938 C   0  0  0  0  0  0  0  0  0  0  0  0
    8.7449  -17.4830   19.4955 O   0  0  0  0  0  0  0  0  0  0  0  0
   11.2274  -16.0745   20.9369 C   0  0  0  0  0  0  0  0  0  0  0  0
   12.0015  -16.2249   21.9110 O   0  0  0  0  0  0  0  0  0  0  0  0
    9.0209  -19.0768   21.0421 O   0  0  0  0  0  0  0  0  0  0  0  0
   10.1035  -15.2182   21.1454 N   0  0  0  0  0  0  0  0  0  0  0  0
    9.7944  -14.6223   22.4313 C   0  0  1  0  0  0  0  0  0  0  0  0
    8.9106  -13.3947   22.2656 C   0  0  0  0  0  0  0  0  0  0  0  0
    8.1943  -13.5481   20.9845 C   0  0  0  0  0  0  0  0  0  0  0  0
    8.4786  -12.8592   19.8287 C   0  0  0  0  0  0  0  0  0  0  0  0
    7.5770  -13.3184   18.9227 N   0  0  0  0  0  0  0  0  0  0  0  0
    6.8015  -14.2300   19.5117 C   0  0  0  0  0  0  0  0  0  0  0  0
    7.1658  -14.3840   20.7775 N   0  0  0  0  0  0  0  0  0  0  0  0
    9.0711  -15.6607   23.2308 C   0  0  0  0  0  0  0  0  0  0  0  0
    8.8133  -15.4572   24.5815 O   0  0  0  0  0  0  0  0  0  0  0  0
    8.6718  -16.7424   22.7278 O   0  0  0  0  0  0  0  0  0  0  0  0
  2  1  1  6
  2  3  1  0
  4  5  1  0
  4  3  1  0
  5  6  2  0
  7  2  1  0
  8  7  2  0
  9  5  1  0
 10  7  1  0
 11 10  1  0
 11 12  1  1
 12 13  1  0
 13 17  1  0
 14 13  2  0
 15 16  2  0
 15 11  1  0
 18 15  1  0
 19 18  1  0
 19 20  1  6
 20 21  1  0
 21 22  2  0
 21 25  1  0
 22 23  1  0
 24 23  1  0
 25 24  2  0
 26 19  1  0
 27 26  1  0
 28 26  2  0
M  END
$$$$
