EDH.pdb
     RDKit          3D

 28 28  0  0  1  0  0  0  0  0999 V2000
    8.5044  -12.7336   18.5587 N   0  0  0  0  0  0  0  0  0  0  0  0
    8.2017  -14.0290   19.1855 C   0  0  1  0  0  0  0  0  0  0  0  0
    8.3332  -15.0261   18.0587 C   0  0  0  0  0  0  0  0  0  0  0  0
    9.4911  -14.7712   17.1587 C   0  0  0  0  0  0  0  0  0  0  0  0
    9.4819  -15.7682   16.0570 C   0  0  0  0  0  0  0  0  0  0  0  0
    8.9433  -16.8870   16.1926 O   0  0  0  0  0  0  0  0  0  0  0  0
    9.2464  -14.3404   20.1983 C   0  0  0  0  0  0  0  0  0  0  0  0
   10.3668  -13.7999   20.1544 O   0  0  0  0  0  0  0  0  0  0  0  0
   10.0899  -15.4320   14.8572 O   0  0  0  0  0  0  0  0  0  0  0  0
    9.0201  -15.2739   21.2725 N   0  0  0  0  0  0  0  0  0  0  0  0
   10.0231  -15.4911   22.2957 C   0  0  1  0  0  0  0  0  0  0  0  0
    9.4397  -16.3082   23.4168 C   0  0  0  0  0  0  0  0  0  0  0  0
    8.5738  -15.4436   24.2505 C   0  0  0  0  0  0  0  0  0  0  0  0
    8.7927  -14.1835   24.3362 O   0  0  0  0  0  0  0  0  0  0  0  0
   11.1340  -16.2994   21.6814 C   0  0  0  0  0  0  0  0  0  0  0  0
   10.9273  -17.2359   20.8745 O   0  0  0  0  0  0  0  0  0  0  0  0
    7.4886  -15.8798   24.9918 O   0  0  0  0  0  0  0  0  0  0  0  0
   12.4989  -16.0258   22.0004 N   0  0  0  0  0  0  0  0  0  0  0  0
   13.5959  -16.8636   21.5543 C   0  0  1  0  0  0  0  0  0  0  0  0
   14.7622  -16.0193   21.0621 C   0  0  0  0  0  0  0  0  0  0  0  0
   14.3465  -15.4127   19.7826 C   0  0  0  0  0  0  0  0  0  0  0  0
   13.7134  -16.0767   18.7580 C   0  0  0  0  0  0  0  0  0  0  0  0
   13.5290  -15.1339   17.7979 N   0  0  0  0  0  0  0  0  0  0  0  0
   14.0265  -13.9749   18.2319 C   0  0  0  0  0  0  0  0  0  0  0  0
   14.5325  -14.1270   19.4483 N   0  0  0  0  0  0  0  0  0  0  0  0
   14.0265  -17.6818   22.7314 C   0  0  0  0  0  0  0  0  0  0  0  0
   15.0911  -18.5690   22.6216 O   0  0  0  0  0  0  0  0  0  0  0  0
   13.4569  -17.6060   23.8505 O   0  0  0  0  0  0  0  0  0  0  0  0
  2  1  1  6
  2  3  1  0
  4  5  1  0
  4  3  1  0
  5  6  2  0
  7  2  1  0
  8  7  2  0
  9  5  1  0
 10  7  1  0
 11 10  1  0
 11 12  1  1
 12 13  1  0
 13 17  1  0
 14 13  2  0
 15 16  2  0
 15 11  1  0
 18 15  1  0
 19 18  1  0
 19 20  1  1
 20 21  1  0
 21 22  2  0
 21 25  1  0
 22 23  1  0
 24 23  1  0
 25 24  2  0
 26 19  1  0
 27 26  1  0
 28 26  2  0
M  END
$$$$
