EDH.pdb
     RDKit          3D

 28 28  0  0  1  0  0  0  0  0999 V2000
   10.6484  -16.0697   15.6401 N   0  0  0  0  0  0  0  0  0  0  0  0
    9.1891  -15.9748   15.7951 C   0  0  1  0  0  0  0  0  0  0  0  0
    8.6415  -16.5355   14.5040 C   0  0  0  0  0  0  0  0  0  0  0  0
    9.5586  -17.4900   13.8230 C   0  0  0  0  0  0  0  0  0  0  0  0
    8.9020  -18.0054   12.5938 C   0  0  0  0  0  0  0  0  0  0  0  0
    7.7933  -17.5725   12.2147 O   0  0  0  0  0  0  0  0  0  0  0  0
    8.7541  -16.8668   16.9039 C   0  0  0  0  0  0  0  0  0  0  0  0
    7.5538  -16.9634   17.2190 O   0  0  0  0  0  0  0  0  0  0  0  0
    9.5491  -18.9896   11.8627 O   0  0  0  0  0  0  0  0  0  0  0  0
    9.6882  -17.6579   17.6641 N   0  0  0  0  0  0  0  0  0  0  0  0
    9.2330  -18.5380   18.7216 C   0  0  1  0  0  0  0  0  0  0  0  0
   10.0707  -19.7881   18.7413 C   0  0  0  0  0  0  0  0  0  0  0  0
    9.5197  -20.7281   19.7438 C   0  0  0  0  0  0  0  0  0  0  0  0
    8.2642  -20.9835   19.7832 O   0  0  0  0  0  0  0  0  0  0  0  0
    9.4524  -17.8294   20.0310 C   0  0  0  0  0  0  0  0  0  0  0  0
    9.0345  -18.2769   21.1246 O   0  0  0  0  0  0  0  0  0  0  0  0
   10.2626  -21.3992   20.7005 O   0  0  0  0  0  0  0  0  0  0  0  0
   10.1616  -16.5907   20.0814 N   0  0  0  0  0  0  0  0  0  0  0  0
   10.2876  -15.8033   21.2930 C   0  0  1  0  0  0  0  0  0  0  0  0
    8.9282  -15.3121   21.7687 C   0  0  0  0  0  0  0  0  0  0  0  0
    8.4220  -14.3809   20.7417 C   0  0  0  0  0  0  0  0  0  0  0  0
    9.0693  -14.0624   19.5708 C   0  0  0  0  0  0  0  0  0  0  0  0
    8.2432  -13.1824   18.9482 N   0  0  0  0  0  0  0  0  0  0  0  0
    7.1654  -12.9910   19.7105 C   0  0  0  0  0  0  0  0  0  0  0  0
    7.2579  -13.7186   20.8154 N   0  0  0  0  0  0  0  0  0  0  0  0
   10.8937  -16.6948   22.3315 C   0  0  0  0  0  0  0  0  0  0  0  0
   11.3396  -16.1690   23.5387 O   0  0  0  0  0  0  0  0  0  0  0  0
   11.0248  -17.9346   22.1632 O   0  0  0  0  0  0  0  0  0  0  0  0
  2  1  1  6
  2  3  1  0
  4  5  1  0
  4  3  1  0
  5  6  2  0
  7  2  1  0
  8  7  2  0
  9  5  1  0
 10  7  1  0
 11 10  1  0
 11 12  1  1
 12 13  1  0
 13 17  1  0
 14 13  2  0
 15 16  2  0
 15 11  1  0
 18 15  1  0
 19 18  1  0
 19 20  1  1
 20 21  1  0
 21 22  2  0
 21 25  1  0
 22 23  1  0
 24 23  1  0
 25 24  2  0
 26 19  1  0
 27 26  1  0
 28 26  2  0
M  END
$$$$
