EDH.pdb
     RDKit          3D

 28 28  0  0  1  0  0  0  0  0999 V2000
   12.3043  -18.7300   15.3887 N   0  0  0  0  0  0  0  0  0  0  0  0
   11.8014  -17.3991   15.7605 C   0  0  1  0  0  0  0  0  0  0  0  0
   10.6203  -17.1796   14.8450 C   0  0  0  0  0  0  0  0  0  0  0  0
    9.7231  -18.3611   14.7230 C   0  0  0  0  0  0  0  0  0  0  0  0
    8.5824  -18.0182   13.8347 C   0  0  0  0  0  0  0  0  0  0  0  0
    7.7298  -17.1672   14.1650 O   0  0  0  0  0  0  0  0  0  0  0  0
   11.2966  -17.4382   17.1597 C   0  0  0  0  0  0  0  0  0  0  0  0
   10.8584  -16.4139   17.7147 O   0  0  0  0  0  0  0  0  0  0  0  0
    8.4775  -18.6676   12.6143 O   0  0  0  0  0  0  0  0  0  0  0  0
   11.2877  -18.6503   17.9390 N   0  0  0  0  0  0  0  0  0  0  0  0
   10.8135  -18.6532   19.3084 C   0  0  1  0  0  0  0  0  0  0  0  0
   10.5727  -20.0679   19.7620 C   0  0  0  0  0  0  0  0  0  0  0  0
    9.8632  -20.0488   21.0614 C   0  0  0  0  0  0  0  0  0  0  0  0
    9.2754  -18.9864   21.4724 O   0  0  0  0  0  0  0  0  0  0  0  0
   11.9074  -18.0846   20.1714 C   0  0  0  0  0  0  0  0  0  0  0  0
   13.1106  -18.4131   20.0481 O   0  0  0  0  0  0  0  0  0  0  0  0
    9.7630  -21.1218   21.9310 O   0  0  0  0  0  0  0  0  0  0  0  0
   11.6119  -17.1264   21.1883 N   0  0  0  0  0  0  0  0  0  0  0  0
   12.6137  -16.6144   22.1040 C   0  0  1  0  0  0  0  0  0  0  0  0
   12.6750  -15.0949   22.0520 C   0  0  0  0  0  0  0  0  0  0  0  0
   13.2808  -14.7313   20.7564 C   0  0  0  0  0  0  0  0  0  0  0  0
   12.6026  -14.2009   19.6840 C   0  0  0  0  0  0  0  0  0  0  0  0
   13.5506  -14.0297   18.7266 N   0  0  0  0  0  0  0  0  0  0  0  0
   14.7262  -14.4371   19.2076 C   0  0  0  0  0  0  0  0  0  0  0  0
   14.5798  -14.8709   20.4522 N   0  0  0  0  0  0  0  0  0  0  0  0
   12.2158  -17.0568   23.4776 C   0  0  0  0  0  0  0  0  0  0  0  0
   13.0408  -16.8014   24.5670 O   0  0  0  0  0  0  0  0  0  0  0  0
   11.1394  -17.6671   23.7045 O   0  0  0  0  0  0  0  0  0  0  0  0
  2  1  1  6
  2  3  1  0
  4  5  1  0
  4  3  1  0
  5  6  2  0
  7  2  1  0
  8  7  2  0
  9  5  1  0
 10  7  1  0
 11 10  1  0
 11 12  1  1
 12 13  1  0
 13 17  1  0
 14 13  2  0
 15 16  2  0
 15 11  1  0
 18 15  1  0
 19 18  1  0
 19 20  1  1
 20 21  1  0
 21 22  2  0
 21 25  1  0
 22 23  1  0
 24 23  1  0
 25 24  2  0
 26 19  1  0
 27 26  1  0
 28 26  2  0
M  END
$$$$
