IST.pdb
     RDKit          3D

 22 21  0  0  1  0  0  0  0  0999 V2000
    7.3329  -11.9942   19.3811 C   0  0  0  0  0  0  0  0  0  0  0  0
    7.4515  -13.5196   19.4374 C   0  0  0  0  0  0  0  0  0  0  0  0
    7.9159  -13.9693   20.7750 C   0  0  2  0  0  0  0  0  0  0  0  0
    9.1401  -13.2007   21.2401 C   0  0  0  0  0  0  0  0  0  0  0  0
    8.0421  -15.4314   20.9335 C   0  0  2  0  0  0  0  0  0  0  0  0
    6.7374  -16.0301   20.5237 N   0  0  0  0  0  0  0  0  0  0  0  0
    8.3615  -16.0042   22.2199 C   0  0  0  0  0  0  0  0  0  0  0  0
    7.4272  -16.0835   23.1096 O   0  0  0  0  0  0  0  0  0  0  0  0
   12.0162  -17.7593   23.4056 O   0  0  0  0  0  0  0  0  0  0  0  0
   10.7804  -18.2211   23.8825 C   0  0  0  0  0  0  0  0  0  0  0  0
    9.7907  -17.0790   24.0030 C   0  0  2  0  0  0  0  0  0  0  0  0
    9.5984  -16.5247   22.6810 N   0  0  0  0  0  0  0  0  0  0  0  0
   10.1885  -16.1032   25.0297 C   0  0  0  0  0  0  0  0  0  0  0  0
   10.9796  -15.1424   24.7109 O   0  0  0  0  0  0  0  0  0  0  0  0
    8.7567  -13.1019   26.8539 C   0  0  0  0  0  0  0  0  0  0  0  0
    9.1343  -14.1957   27.8300 C   0  0  1  0  0  0  0  0  0  0  0  0
    7.9817  -14.9265   28.1947 O   0  0  0  0  0  0  0  0  0  0  0  0
   10.2164  -15.0921   27.3394 C   0  0  2  0  0  0  0  0  0  0  0  0
    9.7915  -16.0953   26.3873 N   0  0  0  0  0  0  0  0  0  0  0  0
   10.8265  -15.7334   28.5487 C   0  0  0  0  0  0  0  0  0  0  0  0
   10.8129  -16.9729   28.6923 O   0  0  0  0  0  0  0  0  0  0  0  0
   11.4159  -14.9603   29.5315 O   0  0  0  0  0  0  0  0  0  0  0  0
  2  1  1  0
  3  2  1  0
  3  5  1  0
  3  4  1  6
  5  7  1  0
  5  6  1  1
  7 12  1  0
  7  8  2  0
 11 10  1  6
 10  9  1  0
 11 13  1  0
 12 11  1  0
 13 14  2  0
 16 15  1  6
 16 18  1  0
 17 16  1  0
 18 20  1  0
 19 13  1  0
 18 19  1  6
 20 22  1  0
 21 20  2  0
M  END
$$$$
