IST.pdb
     RDKit          3D

 22 21  0  0  1  0  0  0  0  0999 V2000
    7.3525  -12.0104   18.7673 C   0  0  0  0  0  0  0  0  0  0  0  0
    7.8015  -13.4717   18.8515 C   0  0  0  0  0  0  0  0  0  0  0  0
    7.9518  -13.9027   20.2653 C   0  0  2  0  0  0  0  0  0  0  0  0
    8.7850  -12.9233   21.0730 C   0  0  0  0  0  0  0  0  0  0  0  0
    8.3535  -15.3110   20.4498 C   0  0  2  0  0  0  0  0  0  0  0  0
    7.3746  -16.1477   19.6945 N   0  0  0  0  0  0  0  0  0  0  0  0
    8.4348  -15.8826   21.7732 C   0  0  0  0  0  0  0  0  0  0  0  0
    7.3361  -16.1814   22.3853 O   0  0  0  0  0  0  0  0  0  0  0  0
   11.7709  -17.5477   23.7780 O   0  0  0  0  0  0  0  0  0  0  0  0
   10.4288  -17.8980   23.9872 C   0  0  0  0  0  0  0  0  0  0  0  0
    9.5355  -16.6760   23.9031 C   0  0  2  0  0  0  0  0  0  0  0  0
    9.5873  -16.1883   22.5425 N   0  0  0  0  0  0  0  0  0  0  0  0
    9.8628  -15.6750   24.9305 C   0  0  0  0  0  0  0  0  0  0  0  0
   10.8011  -14.8267   24.7054 O   0  0  0  0  0  0  0  0  0  0  0  0
    7.8732  -12.6920   26.5327 C   0  0  0  0  0  0  0  0  0  0  0  0
    8.3928  -13.6597   27.5745 C   0  0  1  0  0  0  0  0  0  0  0  0
    7.3391  -14.4870   28.0229 O   0  0  0  0  0  0  0  0  0  0  0  0
    9.5612  -14.4620   27.1203 C   0  0  2  0  0  0  0  0  0  0  0  0
    9.2452  -15.5280   26.1946 N   0  0  0  0  0  0  0  0  0  0  0  0
   10.2155  -15.0071   28.3535 C   0  0  0  0  0  0  0  0  0  0  0  0
   10.3151  -16.2376   28.5353 O   0  0  0  0  0  0  0  0  0  0  0  0
   10.7207  -14.1533   29.3162 O   0  0  0  0  0  0  0  0  0  0  0  0
  2  1  1  0
  3  2  1  0
  3  5  1  0
  3  4  1  6
  5  7  1  0
  5  6  1  6
  7 12  1  0
  7  8  2  0
 11 10  1  6
 10  9  1  0
 11 13  1  0
 12 11  1  0
 13 14  2  0
 16 15  1  6
 16 18  1  0
 17 16  1  0
 18 20  1  0
 19 13  1  0
 18 19  1  6
 20 22  1  0
 21 20  2  0
M  END
$$$$
