IST.pdb
     RDKit          3D

 22 21  0  0  1  0  0  0  0  0999 V2000
    7.9248  -15.6253   15.5993 C   0  0  0  0  0  0  0  0  0  0  0  0
    7.5675  -14.5379   16.6162 C   0  0  0  0  0  0  0  0  0  0  0  0
    8.2287  -14.7912   17.9222 C   0  0  2  0  0  0  0  0  0  0  0  0
    8.1629  -16.2556   18.3185 C   0  0  0  0  0  0  0  0  0  0  0  0
    7.8421  -13.8685   19.0076 C   0  0  2  0  0  0  0  0  0  0  0  0
    8.1450  -12.4853   18.5346 N   0  0  0  0  0  0  0  0  0  0  0  0
    8.4392  -13.9861   20.3169 C   0  0  0  0  0  0  0  0  0  0  0  0
    9.6935  -13.7037   20.4511 O   0  0  0  0  0  0  0  0  0  0  0  0
    6.4732  -15.0972   23.8196 O   0  0  0  0  0  0  0  0  0  0  0  0
    7.6002  -14.2676   23.9174 C   0  0  0  0  0  0  0  0  0  0  0  0
    8.5644  -14.5353   22.7786 C   0  0  2  0  0  0  0  0  0  0  0  0
    7.8348  -14.3759   21.5401 N   0  0  0  0  0  0  0  0  0  0  0  0
    9.2561  -15.8255   22.9260 C   0  0  0  0  0  0  0  0  0  0  0  0
    8.7437  -16.8776   22.3959 O   0  0  0  0  0  0  0  0  0  0  0  0
   12.4481  -17.1371   21.5049 C   0  0  0  0  0  0  0  0  0  0  0  0
   12.4811  -17.3639   23.0013 C   0  0  1  0  0  0  0  0  0  0  0  0
   13.3571  -16.4340   23.6043 O   0  0  0  0  0  0  0  0  0  0  0  0
   11.1379  -17.3432   23.6422 C   0  0  2  0  0  0  0  0  0  0  0  0
   10.4693  -16.0604   23.6143 N   0  0  0  0  0  0  0  0  0  0  0  0
   11.3261  -17.8125   25.0531 C   0  0  0  0  0  0  0  0  0  0  0  0
   11.0205  -17.0819   26.0174 O   0  0  0  0  0  0  0  0  0  0  0  0
   11.8452  -19.0672   25.3123 O   0  0  0  0  0  0  0  0  0  0  0  0
  2  1  1  0
  3  2  1  0
  3  5  1  0
  3  4  1  1
  5  7  1  0
  5  6  1  6
  7 12  1  0
  7  8  2  0
 11 10  1  1
 10  9  1  0
 11 13  1  0
 12 11  1  0
 13 14  2  0
 16 15  1  6
 16 18  1  0
 17 16  1  0
 18 20  1  0
 19 13  1  0
 18 19  1  1
 20 22  1  0
 21 20  2  0
M  END
$$$$
