IST.pdb
     RDKit          3D

 22 21  0  0  1  0  0  0  0  0999 V2000
    8.0871  -11.8057   20.7969 C   0  0  0  0  0  0  0  0  0  0  0  0
    7.5348  -13.1878   21.1559 C   0  0  0  0  0  0  0  0  0  0  0  0
    8.1820  -14.2486   20.3416 C   0  0  2  0  0  0  0  0  0  0  0  0
    8.0477  -13.9840   18.8524 C   0  0  0  0  0  0  0  0  0  0  0  0
    7.8376  -15.6308   20.7285 C   0  0  2  0  0  0  0  0  0  0  0  0
    6.4085  -15.8464   20.3547 N   0  0  0  0  0  0  0  0  0  0  0  0
    7.9639  -16.0606   22.1012 C   0  0  0  0  0  0  0  0  0  0  0  0
    6.9689  -15.8665   22.9030 O   0  0  0  0  0  0  0  0  0  0  0  0
   10.9512  -18.5280   23.8341 O   0  0  0  0  0  0  0  0  0  0  0  0
    9.6096  -18.4759   24.2406 C   0  0  0  0  0  0  0  0  0  0  0  0
    9.0719  -17.0622   24.1374 C   0  0  2  0  0  0  0  0  0  0  0  0
    9.0597  -16.6991   22.7375 N   0  0  0  0  0  0  0  0  0  0  0  0
    9.7955  -16.1258   25.0118 C   0  0  0  0  0  0  0  0  0  0  0  0
   10.8553  -15.5472   24.5728 O   0  0  0  0  0  0  0  0  0  0  0  0
    8.8793  -12.7770   27.1666 C   0  0  0  0  0  0  0  0  0  0  0  0
    9.4686  -13.9147   27.9729 C   0  0  1  0  0  0  0  0  0  0  0  0
    8.4465  -14.5570   28.7068 O   0  0  0  0  0  0  0  0  0  0  0  0
   10.2498  -14.8863   27.1600 C   0  0  2  0  0  0  0  0  0  0  0  0
    9.4537  -15.7716   26.3378 N   0  0  0  0  0  0  0  0  0  0  0  0
   11.0945  -15.6696   28.1186 C   0  0  0  0  0  0  0  0  0  0  0  0
   11.9219  -15.0985   28.8578 O   0  0  0  0  0  0  0  0  0  0  0  0
   10.9731  -17.0442   28.2000 O   0  0  0  0  0  0  0  0  0  0  0  0
  2  1  1  0
  3  2  1  0
  3  5  1  0
  3  4  1  6
  5  7  1  0
  5  6  1  1
  7 12  1  0
  7  8  2  0
 11 10  1  6
 10  9  1  0
 11 13  1  0
 12 11  1  0
 13 14  2  0
 16 15  1  6
 16 18  1  0
 17 16  1  0
 18 20  1  0
 19 13  1  0
 18 19  1  1
 20 22  1  0
 21 20  2  0
M  END
$$$$
