IST.pdb
     RDKit          3D

 22 21  0  0  1  0  0  0  0  0999 V2000
    6.2632  -11.2765   27.5759 C   0  0  0  0  0  0  0  0  0  0  0  0
    5.6799  -12.4552   26.7920 C   0  0  0  0  0  0  0  0  0  0  0  0
    6.7381  -13.1610   26.0244 C   0  0  2  0  0  0  0  0  0  0  0  0
    7.6125  -12.1969   25.2423 C   0  0  0  0  0  0  0  0  0  0  0  0
    6.2696  -14.3117   25.2273 C   0  0  2  0  0  0  0  0  0  0  0  0
    5.5854  -15.2465   26.1689 N   0  0  0  0  0  0  0  0  0  0  0  0
    7.2066  -15.1122   24.4750 C   0  0  0  0  0  0  0  0  0  0  0  0
    7.8004  -16.0925   25.0728 O   0  0  0  0  0  0  0  0  0  0  0  0
    9.3610  -16.4097   20.2736 O   0  0  0  0  0  0  0  0  0  0  0  0
    8.5945  -15.4876   21.0017 C   0  0  0  0  0  0  0  0  0  0  0  0
    8.5240  -15.8835   22.4634 C   0  0  2  0  0  0  0  0  0  0  0  0
    7.5922  -14.9897   23.1150 N   0  0  0  0  0  0  0  0  0  0  0  0
    9.8548  -15.9499   23.0873 C   0  0  0  0  0  0  0  0  0  0  0  0
   10.4033  -14.8695   23.5146 O   0  0  0  0  0  0  0  0  0  0  0  0
   13.7602  -18.3410   25.1121 C   0  0  0  0  0  0  0  0  0  0  0  0
   12.3383  -18.3418   24.5927 C   0  0  1  0  0  0  0  0  0  0  0  0
   11.4456  -18.6248   25.6504 O   0  0  0  0  0  0  0  0  0  0  0  0
   11.9587  -17.0928   23.8777 C   0  0  2  0  0  0  0  0  0  0  0  0
   10.6414  -17.1096   23.2796 N   0  0  0  0  0  0  0  0  0  0  0  0
   13.0106  -16.8552   22.8369 C   0  0  0  0  0  0  0  0  0  0  0  0
   12.8218  -17.1845   21.6482 O   0  0  0  0  0  0  0  0  0  0  0  0
   14.2142  -16.2662   23.1768 O   0  0  0  0  0  0  0  0  0  0  0  0
  2  1  1  0
  3  2  1  0
  3  5  1  0
  3  4  1  6
  5  7  1  0
  5  6  1  1
  7 12  1  0
  7  8  2  0
 11 10  1  6
 10  9  1  0
 11 13  1  0
 12 11  1  0
 13 14  2  0
 16 15  1  1
 16 18  1  0
 17 16  1  0
 18 20  1  0
 19 13  1  0
 18 19  1  6
 20 22  1  0
 21 20  2  0
M  END
$$$$
