IST.pdb
     RDKit          3D

 22 21  0  0  1  0  0  0  0  0999 V2000
    7.8335  -11.7210   26.4121 C   0  0  0  0  0  0  0  0  0  0  0  0
    7.3326  -13.0550   26.9722 C   0  0  0  0  0  0  0  0  0  0  0  0
    7.6216  -14.1696   26.0335 C   0  0  2  0  0  0  0  0  0  0  0  0
    7.1465  -13.8639   24.6240 C   0  0  0  0  0  0  0  0  0  0  0  0
    7.2248  -15.5084   26.5123 C   0  0  2  0  0  0  0  0  0  0  0  0
    7.8314  -15.6868   27.8646 N   0  0  0  0  0  0  0  0  0  0  0  0
    7.5710  -16.6891   25.7568 C   0  0  0  0  0  0  0  0  0  0  0  0
    8.7029  -17.2656   25.9964 O   0  0  0  0  0  0  0  0  0  0  0  0
    5.7968  -17.9831   22.2473 O   0  0  0  0  0  0  0  0  0  0  0  0
    6.1746  -18.9976   23.1395 C   0  0  0  0  0  0  0  0  0  0  0  0
    7.2946  -18.5258   24.0458 C   0  0  2  0  0  0  0  0  0  0  0  0
    6.8250  -17.3518   24.7479 N   0  0  0  0  0  0  0  0  0  0  0  0
    8.5608  -18.3450   23.3187 C   0  0  0  0  0  0  0  0  0  0  0  0
    9.1192  -19.3617   22.7663 O   0  0  0  0  0  0  0  0  0  0  0  0
    9.4520  -16.2835   20.1633 C   0  0  0  0  0  0  0  0  0  0  0  0
   10.4136  -15.9678   21.2891 C   0  0  1  0  0  0  0  0  0  0  0  0
   10.1089  -14.7005   21.8338 O   0  0  0  0  0  0  0  0  0  0  0  0
   10.4692  -17.0162   22.3441 C   0  0  2  0  0  0  0  0  0  0  0  0
    9.2727  -17.1346   23.1489 N   0  0  0  0  0  0  0  0  0  0  0  0
   11.6567  -16.7015   23.2025 C   0  0  0  0  0  0  0  0  0  0  0  0
   12.8070  -16.6742   22.7198 O   0  0  0  0  0  0  0  0  0  0  0  0
   11.4984  -16.4365   24.5500 O   0  0  0  0  0  0  0  0  0  0  0  0
  2  1  1  0
  3  2  1  0
  3  5  1  0
  3  4  1  6
  5  7  1  0
  5  6  1  1
  7 12  1  0
  7  8  2  0
 11 10  1  6
 10  9  1  0
 11 13  1  0
 12 11  1  0
 13 14  2  0
 16 15  1  6
 16 18  1  0
 17 16  1  0
 18 20  1  0
 19 13  1  0
 18 19  1  1
 20 22  1  0
 21 20  2  0
M  END
$$$$
