QYP.pdb
     RDKit          3D

 29 30  0  0  1  0  0  0  0  0999 V2000
   18.3899  -19.2193  -12.5520 N   0  0  0  0  0  0  0  0  0  0  0  0
   18.3056  -18.1958  -13.5600 C   0  0  0  0  0  0  0  0  0  0  0  0
   17.1872  -17.6498  -13.6754 O   0  0  0  0  0  0  0  0  0  0  0  0
   19.5113  -17.8917  -14.3399 C   0  0  0  0  0  0  0  0  0  0  0  0
   20.7424  -18.6456  -13.9711 C   0  0  0  0  0  0  0  0  0  0  0  0
   21.5427  -19.2043  -15.0894 C   0  0  2  0  0  0  0  0  0  0  0  0
   21.1222  -20.4893  -15.5773 N   0  0  0  0  0  0  0  0  0  0  0  0
   23.0149  -19.2333  -14.7527 C   0  0  0  0  0  0  0  0  0  0  0  0
   23.5992  -18.1811  -14.3909 O   0  0  0  0  0  0  0  0  0  0  0  0
   23.2345  -20.1717   -8.2985 O   0  0  0  0  0  0  0  0  0  0  0  0
   23.7468  -20.5219   -9.5441 C   0  0  0  0  0  0  0  0  0  0  0  0
   22.9098  -21.0326  -10.5150 C   0  0  0  0  0  0  0  0  0  0  0  0
   23.3977  -21.3865  -11.7575 C   0  0  0  0  0  0  0  0  0  0  0  0
   24.7473  -21.2414  -12.0747 C   0  0  0  0  0  0  0  0  0  0  0  0
   25.2675  -21.6232  -13.4120 C   0  0  0  0  0  0  0  0  0  0  0  0
   25.1701  -20.4855  -14.3977 C   0  0  2  0  0  0  0  0  0  0  0  0
   23.7668  -20.4178  -14.8315 N   0  0  0  0  0  0  0  0  0  0  0  0
   26.0355  -20.6446  -15.5615 C   0  0  0  0  0  0  0  0  0  0  0  0
   25.5913  -21.3227  -16.5416 O   0  0  0  0  0  0  0  0  0  0  0  0
   25.5462  -20.7274  -11.0744 C   0  0  0  0  0  0  0  0  0  0  0  0
   25.0826  -20.3690   -9.8321 C   0  0  0  0  0  0  0  0  0  0  0  0
   27.3383  -20.1023  -15.6907 N   0  0  0  0  0  0  0  0  0  0  0  0
   28.0764  -19.2629  -14.7635 C   0  0  0  0  0  0  0  0  0  0  0  0
   28.6916  -18.2663  -15.7577 C   0  0  0  0  0  0  0  0  0  0  0  0
   29.2969  -19.2512  -16.7366 C   0  0  0  0  0  0  0  0  0  0  0  0
   28.2244  -20.2979  -16.8232 C   0  0  1  0  0  0  0  0  0  0  0  0
   28.8522  -21.6358  -16.8076 C   0  0  0  0  0  0  0  0  0  0  0  0
   29.5410  -22.1191  -17.8994 O   0  0  0  0  0  0  0  0  0  0  0  0
   28.7562  -22.3427  -15.7835 O   0  0  0  0  0  0  0  0  0  0  0  0
  1  2  1  0
  2  3  2  0
  2  4  1  0
  4  5  1  0
  6  5  1  0
  6  7  1  1
  8  9  2  0
  8  6  1  0
 10 11  1  0
 11 21  2  0
 11 12  1  0
 12 13  2  0
 13 14  1  0
 14 15  1  0
 16 15  1  1
 16 17  1  0
 17  8  1  0
 18 16  1  0
 18 19  2  0
 20 14  2  0
 21 20  1  0
 22 18  1  0
 23 22  1  0
 24 25  1  0
 24 23  1  0
 25 26  1  0
 26 22  1  0
 26 27  1  1
 27 29  2  0
 27 28  1  0
M  END
$$$$
