QYP.pdb
     RDKit          3D

 29 30  0  0  1  0  0  0  0  0999 V2000
   17.8138  -16.3632  -12.8377 N   0  0  0  0  0  0  0  0  0  0  0  0
   16.9462  -16.9060  -13.8492 C   0  0  0  0  0  0  0  0  0  0  0  0
   16.0381  -17.6549  -13.4291 O   0  0  0  0  0  0  0  0  0  0  0  0
   17.1986  -16.5379  -15.2476 C   0  0  0  0  0  0  0  0  0  0  0  0
   18.1986  -15.4570  -15.4745 C   0  0  0  0  0  0  0  0  0  0  0  0
   18.3363  -14.9566  -16.8651 C   0  0  2  0  0  0  0  0  0  0  0  0
   18.7289  -15.9330  -17.8442 N   0  0  0  0  0  0  0  0  0  0  0  0
   19.2528  -13.7578  -16.9311 C   0  0  0  0  0  0  0  0  0  0  0  0
   20.4846  -13.9166  -17.1237 O   0  0  0  0  0  0  0  0  0  0  0  0
   19.9702  -12.6421  -23.1595 O   0  0  0  0  0  0  0  0  0  0  0  0
   19.7630  -12.0932  -21.8977 C   0  0  0  0  0  0  0  0  0  0  0  0
   18.4970  -12.0850  -21.3488 C   0  0  0  0  0  0  0  0  0  0  0  0
   18.2695  -11.5453  -20.0982 C   0  0  0  0  0  0  0  0  0  0  0  0
   19.3059  -10.9916  -19.3481 C   0  0  0  0  0  0  0  0  0  0  0  0
   19.0567  -10.4124  -18.0038 C   0  0  0  0  0  0  0  0  0  0  0  0
   19.6375  -11.2698  -16.9070 C   0  0  2  0  0  0  0  0  0  0  0  0
   18.7666  -12.4478  -16.7820 N   0  0  0  0  0  0  0  0  0  0  0  0
   19.7290  -10.5894  -15.6196 C   0  0  0  0  0  0  0  0  0  0  0  0
   18.7079  -10.6159  -14.8618 O   0  0  0  0  0  0  0  0  0  0  0  0
   20.5535  -11.0216  -19.9359 C   0  0  0  0  0  0  0  0  0  0  0  0
   20.8025  -11.5530  -21.1778 C   0  0  0  0  0  0  0  0  0  0  0  0
   20.8692   -9.8974  -15.1409 N   0  0  0  0  0  0  0  0  0  0  0  0
   22.1578   -9.7028  -15.7818 C   0  0  0  0  0  0  0  0  0  0  0  0
   23.0793   -9.9316  -14.5740 C   0  0  0  0  0  0  0  0  0  0  0  0
   22.4245   -8.9811  -13.5930 C   0  0  0  0  0  0  0  0  0  0  0  0
   20.9667   -9.2151  -13.8637 C   0  0  1  0  0  0  0  0  0  0  0  0
   20.2629   -7.9155  -13.8776 C   0  0  0  0  0  0  0  0  0  0  0  0
   20.0220   -7.2164  -12.7143 O   0  0  0  0  0  0  0  0  0  0  0  0
   19.8788   -7.4415  -14.9664 O   0  0  0  0  0  0  0  0  0  0  0  0
  1  2  1  0
  2  3  2  0
  2  4  1  0
  4  5  1  0
  6  5  1  0
  6  7  1  6
  8  9  2  0
  8  6  1  0
 10 11  1  0
 11 21  2  0
 11 12  1  0
 12 13  2  0
 13 14  1  0
 14 15  1  0
 16 15  1  6
 16 17  1  0
 17  8  1  0
 18 16  1  0
 18 19  2  0
 20 14  2  0
 21 20  1  0
 22 18  1  0
 23 22  1  0
 24 25  1  0
 24 23  1  0
 25 26  1  0
 26 22  1  0
 26 27  1  6
 27 29  2  0
 27 28  1  0
M  END
$$$$
