QYP.pdb
     RDKit          3D

 29 30  0  0  1  0  0  0  0  0999 V2000
   28.0234  -20.2438  -20.6503 N   0  0  0  0  0  0  0  0  0  0  0  0
   29.3316  -20.8259  -20.5072 C   0  0  0  0  0  0  0  0  0  0  0  0
   29.7770  -21.3972  -21.5258 O   0  0  0  0  0  0  0  0  0  0  0  0
   30.0084  -20.6970  -19.2111 C   0  0  0  0  0  0  0  0  0  0  0  0
   29.1920  -20.1458  -18.0932 C   0  0  0  0  0  0  0  0  0  0  0  0
   28.7047  -21.1164  -17.0815 C   0  0  2  0  0  0  0  0  0  0  0  0
   27.9097  -22.2012  -17.5888 N   0  0  0  0  0  0  0  0  0  0  0  0
   27.9755  -20.4204  -15.9566 C   0  0  0  0  0  0  0  0  0  0  0  0
   28.5440  -19.5063  -15.3079 O   0  0  0  0  0  0  0  0  0  0  0  0
   27.0405  -14.5847  -17.7595 O   0  0  0  0  0  0  0  0  0  0  0  0
   26.5042  -15.7284  -17.1757 C   0  0  0  0  0  0  0  0  0  0  0  0
   26.2697  -15.7634  -15.8163 C   0  0  0  0  0  0  0  0  0  0  0  0
   25.7383  -16.8882  -15.2169 C   0  0  0  0  0  0  0  0  0  0  0  0
   25.4206  -18.0242  -15.9599 C   0  0  0  0  0  0  0  0  0  0  0  0
   24.8493  -19.2314  -15.3112 C   0  0  0  0  0  0  0  0  0  0  0  0
   25.9025  -20.0285  -14.5826 C   0  0  2  0  0  0  0  0  0  0  0  0
   26.6598  -20.7662  -15.6044 N   0  0  0  0  0  0  0  0  0  0  0  0
   25.3559  -20.9650  -13.6065 C   0  0  0  0  0  0  0  0  0  0  0  0
   24.9470  -22.0919  -14.0315 O   0  0  0  0  0  0  0  0  0  0  0  0
   25.6716  -17.9441  -17.3140 C   0  0  0  0  0  0  0  0  0  0  0  0
   26.1994  -16.8363  -17.9310 C   0  0  0  0  0  0  0  0  0  0  0  0
   25.2424  -20.7210  -12.2152 N   0  0  0  0  0  0  0  0  0  0  0  0
   25.7507  -19.6050  -11.4372 C   0  0  0  0  0  0  0  0  0  0  0  0
   26.2623  -20.3666  -10.2050 C   0  0  0  0  0  0  0  0  0  0  0  0
   25.0187  -21.1726   -9.8913 C   0  0  0  0  0  0  0  0  0  0  0  0
   24.5594  -21.5763  -11.2623 C   0  0  1  0  0  0  0  0  0  0  0  0
   23.0910  -21.4293  -11.3429 C   0  0  0  0  0  0  0  0  0  0  0  0
   22.5085  -20.4489  -12.1173 O   0  0  0  0  0  0  0  0  0  0  0  0
   22.3634  -22.2100  -10.6958 O   0  0  0  0  0  0  0  0  0  0  0  0
  1  2  1  0
  2  3  2  0
  2  4  1  0
  4  5  1  0
  6  5  1  0
  6  7  1  6
  8  9  2  0
  8  6  1  0
 10 11  1  0
 11 21  2  0
 11 12  1  0
 12 13  2  0
 13 14  1  0
 14 15  1  0
 16 15  1  6
 16 17  1  0
 17  8  1  0
 18 16  1  0
 18 19  2  0
 20 14  2  0
 21 20  1  0
 22 18  1  0
 23 22  1  0
 24 25  1  0
 24 23  1  0
 25 26  1  0
 26 22  1  0
 26 27  1  1
 27 29  2  0
 27 28  1  0
M  END
$$$$
