QYP.pdb
     RDKit          3D

 29 30  0  0  1  0  0  0  0  0999 V2000
   15.3395  -14.3245  -15.7605 N   0  0  0  0  0  0  0  0  0  0  0  0
   15.5919  -15.6839  -15.3619 C   0  0  0  0  0  0  0  0  0  0  0  0
   14.5833  -16.4197  -15.3022 O   0  0  0  0  0  0  0  0  0  0  0  0
   16.9768  -16.0742  -15.0715 C   0  0  0  0  0  0  0  0  0  0  0  0
   18.0118  -15.0185  -15.2571 C   0  0  0  0  0  0  0  0  0  0  0  0
   18.3925  -14.6959  -16.6549 C   0  0  2  0  0  0  0  0  0  0  0  0
   18.9873  -15.7690  -17.4038 N   0  0  0  0  0  0  0  0  0  0  0  0
   19.2722  -13.4696  -16.7174 C   0  0  0  0  0  0  0  0  0  0  0  0
   20.5185  -13.5819  -16.6016 O   0  0  0  0  0  0  0  0  0  0  0  0
   20.0870  -12.5822  -23.2486 O   0  0  0  0  0  0  0  0  0  0  0  0
   19.8057  -12.0029  -22.0150 C   0  0  0  0  0  0  0  0  0  0  0  0
   20.7991  -11.3437  -21.3203 C   0  0  0  0  0  0  0  0  0  0  0  0
   20.5413  -10.7619  -20.0948 C   0  0  0  0  0  0  0  0  0  0  0  0
   19.2738  -10.8190  -19.5174 C   0  0  0  0  0  0  0  0  0  0  0  0
   19.0011  -10.1919  -18.1994 C   0  0  0  0  0  0  0  0  0  0  0  0
   19.5849  -10.9955  -17.0641 C   0  0  2  0  0  0  0  0  0  0  0  0
   18.7349  -12.1846  -16.9040 N   0  0  0  0  0  0  0  0  0  0  0  0
   19.6482  -10.2650  -15.8028 C   0  0  0  0  0  0  0  0  0  0  0  0
   18.6067  -10.2522  -15.0728 O   0  0  0  0  0  0  0  0  0  0  0  0
   18.3125  -11.4874  -20.2469 C   0  0  0  0  0  0  0  0  0  0  0  0
   18.5466  -12.0732  -21.4669 C   0  0  0  0  0  0  0  0  0  0  0  0
   20.7817   -9.5644  -15.3209 N   0  0  0  0  0  0  0  0  0  0  0  0
   22.0854   -9.3973  -15.9387 C   0  0  0  0  0  0  0  0  0  0  0  0
   22.9785   -9.5927  -14.7041 C   0  0  0  0  0  0  0  0  0  0  0  0
   22.3081   -8.6081  -13.7684 C   0  0  0  0  0  0  0  0  0  0  0  0
   20.8552   -8.8425  -14.0640 C   0  0  1  0  0  0  0  0  0  0  0  0
   20.1599   -7.5403  -14.1346 C   0  0  0  0  0  0  0  0  0  0  0  0
   19.8861   -6.8094  -12.9984 O   0  0  0  0  0  0  0  0  0  0  0  0
   19.8135   -7.0933  -15.2472 O   0  0  0  0  0  0  0  0  0  0  0  0
  1  2  1  0
  2  3  2  0
  2  4  1  0
  4  5  1  0
  6  5  1  0
  6  7  1  1
  8  9  2  0
  8  6  1  0
 10 11  1  0
 11 21  2  0
 11 12  1  0
 12 13  2  0
 13 14  1  0
 14 15  1  0
 16 15  1  6
 16 17  1  0
 17  8  1  0
 18 16  1  0
 18 19  2  0
 20 14  2  0
 21 20  1  0
 22 18  1  0
 23 22  1  0
 24 25  1  0
 24 23  1  0
 25 26  1  0
 26 22  1  0
 26 27  1  6
 27 29  2  0
 27 28  1  0
M  END
$$$$
