QYP.pdb
     RDKit          3D

 29 30  0  0  1  0  0  0  0  0999 V2000
   21.2877  -22.6248  -16.5086 N   0  0  0  0  0  0  0  0  0  0  0  0
   20.1548  -22.5790  -15.6226 C   0  0  0  0  0  0  0  0  0  0  0  0
   19.7363  -23.6900  -15.2319 O   0  0  0  0  0  0  0  0  0  0  0  0
   19.6088  -21.2642  -15.2649 C   0  0  0  0  0  0  0  0  0  0  0  0
   20.5314  -20.3408  -14.5464 C   0  0  0  0  0  0  0  0  0  0  0  0
   21.0437  -20.7996  -13.2310 C   0  0  2  0  0  0  0  0  0  0  0  0
   20.2585  -20.4206  -12.0882 N   0  0  0  0  0  0  0  0  0  0  0  0
   22.4844  -20.3934  -13.0286 C   0  0  0  0  0  0  0  0  0  0  0  0
   22.7656  -19.2145  -12.6961 O   0  0  0  0  0  0  0  0  0  0  0  0
   26.5800  -19.4459   -7.0805 O   0  0  0  0  0  0  0  0  0  0  0  0
   26.3591  -20.0367   -8.3209 C   0  0  0  0  0  0  0  0  0  0  0  0
   25.0710  -20.3008   -8.7393 C   0  0  0  0  0  0  0  0  0  0  0  0
   24.8297  -20.8865   -9.9663 C   0  0  0  0  0  0  0  0  0  0  0  0
   25.8740  -21.2306  -10.8233 C   0  0  0  0  0  0  0  0  0  0  0  0
   25.6099  -21.8602  -12.1419 C   0  0  0  0  0  0  0  0  0  0  0  0
   24.9495  -20.9002  -13.0998 C   0  0  2  0  0  0  0  0  0  0  0  0
   23.5397  -21.3048  -13.2026 N   0  0  0  0  0  0  0  0  0  0  0  0
   25.5544  -20.8902  -14.4274 C   0  0  0  0  0  0  0  0  0  0  0  0
   25.0676  -21.6705  -15.3060 O   0  0  0  0  0  0  0  0  0  0  0  0
   27.1439  -20.9484  -10.3641 C   0  0  0  0  0  0  0  0  0  0  0  0
   27.4069  -20.3667   -9.1480 C   0  0  0  0  0  0  0  0  0  0  0  0
   26.6465  -20.0775  -14.8212 N   0  0  0  0  0  0  0  0  0  0  0  0
   27.4024  -19.1172  -14.0366 C   0  0  0  0  0  0  0  0  0  0  0  0
   27.5376  -17.9921  -15.0738 C   0  0  0  0  0  0  0  0  0  0  0  0
   28.0716  -18.8039  -16.2359 C   0  0  0  0  0  0  0  0  0  0  0  0
   27.2477  -20.0552  -16.1418 C   0  0  1  0  0  0  0  0  0  0  0  0
   28.1195  -21.2264  -16.3707 C   0  0  0  0  0  0  0  0  0  0  0  0
   28.4714  -22.0724  -15.3408 O   0  0  0  0  0  0  0  0  0  0  0  0
   28.5458  -21.4539  -17.5214 O   0  0  0  0  0  0  0  0  0  0  0  0
  1  2  1  0
  2  3  2  0
  2  4  1  0
  4  5  1  0
  6  5  1  0
  6  7  1  1
  8  9  2  0
  8  6  1  0
 10 11  1  0
 11 21  2  0
 11 12  1  0
 12 13  2  0
 13 14  1  0
 14 15  1  0
 16 15  1  1
 16 17  1  0
 17  8  1  0
 18 16  1  0
 18 19  2  0
 20 14  2  0
 21 20  1  0
 22 18  1  0
 23 22  1  0
 24 25  1  0
 24 23  1  0
 25 26  1  0
 26 22  1  0
 26 27  1  1
 27 29  2  0
 27 28  1  0
M  END
$$$$
