QYP.pdb
     RDKit          3D

 29 30  0  0  1  0  0  0  0  0999 V2000
   23.7904  -28.6810  -18.8920 N   0  0  0  0  0  0  0  0  0  0  0  0
   24.5088  -29.4634  -17.9213 C   0  0  0  0  0  0  0  0  0  0  0  0
   25.4097  -30.1952  -18.3851 O   0  0  0  0  0  0  0  0  0  0  0  0
   24.1298  -29.3323  -16.5092 C   0  0  0  0  0  0  0  0  0  0  0  0
   22.9691  -30.1513  -16.0597 C   0  0  0  0  0  0  0  0  0  0  0  0
   23.0551  -31.6147  -16.2927 C   0  0  2  0  0  0  0  0  0  0  0  0
   22.9259  -32.0380  -17.6602 N   0  0  0  0  0  0  0  0  0  0  0  0
   22.0792  -32.3697  -15.4213 C   0  0  0  0  0  0  0  0  0  0  0  0
   20.8805  -32.4925  -15.7784 O   0  0  0  0  0  0  0  0  0  0  0  0
   18.4706  -38.6583  -10.6552 O   0  0  0  0  0  0  0  0  0  0  0  0
   19.2745  -37.8056  -11.4056 C   0  0  0  0  0  0  0  0  0  0  0  0
   20.6201  -37.6975  -11.1197 C   0  0  0  0  0  0  0  0  0  0  0  0
   21.4356  -36.8574  -11.8519 C   0  0  0  0  0  0  0  0  0  0  0  0
   20.9314  -36.0913  -12.9018 C   0  0  0  0  0  0  0  0  0  0  0  0
   21.8120  -35.1892  -13.6864 C   0  0  0  0  0  0  0  0  0  0  0  0
   21.5478  -33.7371  -13.3752 C   0  0  2  0  0  0  0  0  0  0  0  0
   22.4729  -32.9497  -14.2035 N   0  0  0  0  0  0  0  0  0  0  0  0
   21.7379  -33.3965  -11.9693 C   0  0  0  0  0  0  0  0  0  0  0  0
   22.9298  -33.3447  -11.5284 O   0  0  0  0  0  0  0  0  0  0  0  0
   19.5819  -36.2312  -13.1516 C   0  0  0  0  0  0  0  0  0  0  0  0
   18.7526  -37.0603  -12.4365 C   0  0  0  0  0  0  0  0  0  0  0  0
   20.6974  -33.1167  -11.0489 N   0  0  0  0  0  0  0  0  0  0  0  0
   19.2607  -33.1264  -11.2609 C   0  0  0  0  0  0  0  0  0  0  0  0
   18.8799  -31.8603  -10.4787 C   0  0  0  0  0  0  0  0  0  0  0  0
   19.5857  -32.1665   -9.1738 C   0  0  0  0  0  0  0  0  0  0  0  0
   20.8792  -32.7575   -9.6546 C   0  0  1  0  0  0  0  0  0  0  0  0
   21.2134  -33.9317   -8.8217 C   0  0  0  0  0  0  0  0  0  0  0  0
   21.5099  -33.8013   -7.4819 O   0  0  0  0  0  0  0  0  0  0  0  0
   21.2272  -35.0655   -9.3433 O   0  0  0  0  0  0  0  0  0  0  0  0
  1  2  1  0
  2  3  2  0
  2  4  1  0
  4  5  1  0
  6  5  1  0
  6  7  1  6
  8  9  2  0
  8  6  1  0
 10 11  1  0
 11 21  2  0
 11 12  1  0
 12 13  2  0
 13 14  1  0
 14 15  1  0
 16 15  1  1
 16 17  1  0
 17  8  1  0
 18 16  1  0
 18 19  2  0
 20 14  2  0
 21 20  1  0
 22 18  1  0
 23 22  1  0
 24 25  1  0
 24 23  1  0
 25 26  1  0
 26 22  1  0
 26 27  1  1
 27 29  2  0
 27 28  1  0
M  END
$$$$
