QYP.pdb
     RDKit          3D

 29 30  0  0  1  0  0  0  0  0999 V2000
   29.4527  -22.8843  -20.8094 N   0  0  0  0  0  0  0  0  0  0  0  0
   30.5061  -22.0592  -20.2803 C   0  0  0  0  0  0  0  0  0  0  0  0
   31.3546  -21.6753  -21.1138 O   0  0  0  0  0  0  0  0  0  0  0  0
   30.4878  -21.7488  -18.8457 C   0  0  0  0  0  0  0  0  0  0  0  0
   29.3788  -22.3529  -18.0548 C   0  0  0  0  0  0  0  0  0  0  0  0
   28.2556  -21.4550  -17.6872 C   0  0  2  0  0  0  0  0  0  0  0  0
   28.5046  -20.0478  -17.8418 N   0  0  0  0  0  0  0  0  0  0  0  0
   27.7539  -21.7430  -16.2919 C   0  0  0  0  0  0  0  0  0  0  0  0
   27.5339  -22.9273  -15.9336 O   0  0  0  0  0  0  0  0  0  0  0  0
   25.4401  -20.6386   -7.8254 O   0  0  0  0  0  0  0  0  0  0  0  0
   25.9759  -20.5102   -9.1033 C   0  0  0  0  0  0  0  0  0  0  0  0
   25.4850  -19.5494   -9.9634 C   0  0  0  0  0  0  0  0  0  0  0  0
   26.0025  -19.4051  -11.2356 C   0  0  0  0  0  0  0  0  0  0  0  0
   27.0349  -20.2214  -11.6952 C   0  0  0  0  0  0  0  0  0  0  0  0
   27.5882  -20.0627  -13.0639 C   0  0  0  0  0  0  0  0  0  0  0  0
   26.8965  -20.9636  -14.0566 C   0  0  2  0  0  0  0  0  0  0  0  0
   27.5206  -20.7135  -15.3643 N   0  0  0  0  0  0  0  0  0  0  0  0
   25.4583  -20.7367  -14.1487 C   0  0  0  0  0  0  0  0  0  0  0  0
   25.0627  -19.6548  -14.6880 O   0  0  0  0  0  0  0  0  0  0  0  0
   27.4940  -21.1672  -10.8020 C   0  0  0  0  0  0  0  0  0  0  0  0
   26.9944  -21.3282   -9.5328 C   0  0  0  0  0  0  0  0  0  0  0  0
   24.4595  -21.6281  -13.6842 N   0  0  0  0  0  0  0  0  0  0  0  0
   24.6136  -22.9269  -13.0528 C   0  0  0  0  0  0  0  0  0  0  0  0
   23.4915  -23.6927  -13.7699 C   0  0  0  0  0  0  0  0  0  0  0  0
   22.3532  -22.7215  -13.5336 C   0  0  0  0  0  0  0  0  0  0  0  0
   23.0280  -21.3980  -13.7485 C   0  0  1  0  0  0  0  0  0  0  0  0
   22.5747  -20.4498  -12.7094 C   0  0  0  0  0  0  0  0  0  0  0  0
   21.3407  -19.8398  -12.7824 O   0  0  0  0  0  0  0  0  0  0  0  0
   23.3257  -20.1965  -11.7453 O   0  0  0  0  0  0  0  0  0  0  0  0
  1  2  1  0
  2  3  2  0
  2  4  1  0
  4  5  1  0
  6  5  1  0
  6  7  1  1
  8  9  2  0
  8  6  1  0
 10 11  1  0
 11 21  2  0
 11 12  1  0
 12 13  2  0
 13 14  1  0
 14 15  1  0
 16 15  1  1
 16 17  1  0
 17  8  1  0
 18 16  1  0
 18 19  2  0
 20 14  2  0
 21 20  1  0
 22 18  1  0
 23 22  1  0
 24 25  1  0
 24 23  1  0
 25 26  1  0
 26 22  1  0
 26 27  1  1
 27 29  2  0
 27 28  1  0
M  END
$$$$
