QYP.pdb
     RDKit          3D

 29 30  0  0  1  0  0  0  0  0999 V2000
   25.3729  -34.7342  -11.1944 N   0  0  0  0  0  0  0  0  0  0  0  0
   24.8252  -33.4228  -11.4195 C   0  0  0  0  0  0  0  0  0  0  0  0
   25.1128  -32.9048  -12.5199 O   0  0  0  0  0  0  0  0  0  0  0  0
   23.9968  -32.8283  -10.3635 C   0  0  0  0  0  0  0  0  0  0  0  0
   23.8874  -33.6042   -9.0963 C   0  0  0  0  0  0  0  0  0  0  0  0
   24.5696  -33.0376   -7.9061 C   0  0  2  0  0  0  0  0  0  0  0  0
   25.9911  -32.8612   -8.0260 N   0  0  0  0  0  0  0  0  0  0  0  0
   24.2480  -33.8266   -6.6589 C   0  0  0  0  0  0  0  0  0  0  0  0
   23.0519  -34.0007   -6.3146 O   0  0  0  0  0  0  0  0  0  0  0  0
   21.3560  -39.6904   -7.6332 O   0  0  0  0  0  0  0  0  0  0  0  0
   22.3652  -38.9468   -7.0290 C   0  0  0  0  0  0  0  0  0  0  0  0
   22.2181  -38.5148   -5.7268 C   0  0  0  0  0  0  0  0  0  0  0  0
   23.2072  -37.7757   -5.1085 C   0  0  0  0  0  0  0  0  0  0  0  0
   24.3852  -37.4406   -5.7745 C   0  0  0  0  0  0  0  0  0  0  0  0
   25.4462  -36.6457   -5.1057 C   0  0  0  0  0  0  0  0  0  0  0  0
   24.9595  -35.2702   -4.7227 C   0  0  2  0  0  0  0  0  0  0  0  0
   25.2585  -34.3826   -5.8561 N   0  0  0  0  0  0  0  0  0  0  0  0
   25.5824  -34.7458   -3.5121 C   0  0  0  0  0  0  0  0  0  0  0  0
   26.7364  -34.2219   -3.6191 O   0  0  0  0  0  0  0  0  0  0  0  0
   24.4888  -37.8932   -7.0735 C   0  0  0  0  0  0  0  0  0  0  0  0
   23.5181  -38.6292   -7.7078 C   0  0  0  0  0  0  0  0  0  0  0  0
   25.0038  -34.7721   -2.2188 N   0  0  0  0  0  0  0  0  0  0  0  0
   23.7021  -35.2685   -1.8083 C   0  0  0  0  0  0  0  0  0  0  0  0
   23.3039  -34.1557   -0.8269 C   0  0  0  0  0  0  0  0  0  0  0  0
   24.5545  -34.1345    0.0276 C   0  0  0  0  0  0  0  0  0  0  0  0
   25.6344  -34.2920   -1.0031 C   0  0  1  0  0  0  0  0  0  0  0  0
   26.6505  -35.2389   -0.4980 C   0  0  0  0  0  0  0  0  0  0  0  0
   26.8272  -36.4784   -1.0746 O   0  0  0  0  0  0  0  0  0  0  0  0
   27.3636  -34.9085    0.4715 O   0  0  0  0  0  0  0  0  0  0  0  0
  1  2  1  0
  2  3  2  0
  2  4  1  0
  4  5  1  0
  6  5  1  0
  6  7  1  6
  8  9  2  0
  8  6  1  0
 10 11  1  0
 11 21  2  0
 11 12  1  0
 12 13  2  0
 13 14  1  0
 14 15  1  0
 16 15  1  6
 16 17  1  0
 17  8  1  0
 18 16  1  0
 18 19  2  0
 20 14  2  0
 21 20  1  0
 22 18  1  0
 23 22  1  0
 24 25  1  0
 24 23  1  0
 25 26  1  0
 26 22  1  0
 26 27  1  1
 27 29  2  0
 27 28  1  0
M  END
$$$$
