WCK.pdb
     RDKit          3D

 30 31  0  0  1  0  0  0  0  0999 V2000
    6.7810  -17.2775   25.6765 N   0  0  0  0  0  0  0  0  0  0  0  0
    7.0586  -16.1539   24.8367 C   0  0  1  0  0  0  0  0  0  0  0  0
    8.2345  -15.3442   25.2697 C   0  0  0  0  0  0  0  0  0  0  0  0
    7.9633  -14.5417   26.4797 C   0  0  0  0  0  0  0  0  0  0  0  0
    8.3365  -14.8875   27.7566 C   0  0  0  0  0  0  0  0  0  0  0  0
    7.9203  -13.9175   28.6002 N   0  0  0  0  0  0  0  0  0  0  0  0
    7.2875  -12.9550   27.8959 C   0  0  0  0  0  0  0  0  0  0  0  0
    6.6945  -11.7785   28.3010 C   0  0  0  0  0  0  0  0  0  0  0  0
    6.1074  -10.9572   27.3680 C   0  0  0  0  0  0  0  0  0  0  0  0
    6.1130  -11.3097   26.0391 C   0  0  0  0  0  0  0  0  0  0  0  0
    6.7157  -12.4966   25.6616 C   0  0  0  0  0  0  0  0  0  0  0  0
    7.3101  -13.3370   26.5720 C   0  0  0  0  0  0  0  0  0  0  0  0
    7.3202  -16.5960   23.4203 C   0  0  0  0  0  0  0  0  0  0  0  0
    7.5573  -17.7855   23.1334 O   0  0  0  0  0  0  0  0  0  0  0  0
    7.3082  -15.6723   22.3433 N   0  0  0  0  0  0  0  0  0  0  0  0
    7.9052  -15.8624   21.0699 C   0  0  1  0  0  0  0  0  0  0  0  0
    7.7606  -14.7105   20.1236 C   0  0  0  0  0  0  0  0  0  0  0  0
    8.4036  -15.0710   18.4807 S   0  0  0  0  0  0  0  0  0  0  0  0
    9.3216  -16.2404   21.2086 C   0  0  0  0  0  0  0  0  0  0  0  0
   10.0794  -15.5051   21.8903 O   0  0  0  0  0  0  0  0  0  0  0  0
    9.8950  -17.4084   20.6074 N   0  0  0  0  0  0  0  0  0  0  0  0
   11.3083  -17.7161   20.7362 C   0  0  1  0  0  0  0  0  0  0  0  0
   11.4059  -19.0469   21.4242 C   0  0  0  0  0  0  0  0  0  0  0  0
   11.3188  -18.9824   22.9096 C   0  0  0  0  0  0  0  0  0  0  0  0
   11.4563  -20.2873   23.6059 C   0  0  0  0  0  0  0  0  0  0  0  0
   11.2228  -20.1837   25.1016 C   0  0  0  0  0  0  0  0  0  0  0  0
   11.1417  -21.4961   25.7141 N   0  0  0  0  0  0  0  0  0  0  0  0
   11.9539  -17.6877   19.4114 C   0  0  0  0  0  0  0  0  0  0  0  0
   13.1539  -17.0223   19.1913 O   0  0  0  0  0  0  0  0  0  0  0  0
   11.3996  -18.2825   18.4595 O   0  0  0  0  0  0  0  0  0  0  0  0
  2  1  1  1
  2  3  1  0
  2 13  1  0
  3  4  1  0
  4 12  1  0
  4  5  2  0
  5  6  1  0
  7  6  1  0
  7  8  2  0
  9  8  1  0
 10  9  2  0
 11 12  2  0
 11 10  1  0
 12  7  1  0
 13 14  2  0
 15 13  1  0
 15 16  1  0
 16 17  1  6
 18 17  1  0
 19 21  1  0
 19 16  1  0
 20 19  2  0
 22 21  1  0
 23 24  1  0
 22 23  1  6
 24 25  1  0
 26 25  1  0
 27 26  1  0
 28 22  1  0
 28 29  1  0
 30 28  2  0
M  END
$$$$
