WCK.pdb
     RDKit          3D

 30 31  0  0  1  0  0  0  0  0999 V2000
    6.3512  -18.0706   24.4879 N   0  0  0  0  0  0  0  0  0  0  0  0
    6.9299  -16.8505   24.0176 C   0  0  1  0  0  0  0  0  0  0  0  0
    7.7735  -16.1464   25.0268 C   0  0  0  0  0  0  0  0  0  0  0  0
    7.0358  -15.0959   25.7575 C   0  0  0  0  0  0  0  0  0  0  0  0
    5.8936  -15.3002   26.4946 C   0  0  0  0  0  0  0  0  0  0  0  0
    5.5044  -14.1158   27.0154 N   0  0  0  0  0  0  0  0  0  0  0  0
    6.3695  -13.1534   26.6308 C   0  0  0  0  0  0  0  0  0  0  0  0
    6.3992  -11.8021   26.9011 C   0  0  0  0  0  0  0  0  0  0  0  0
    7.4070  -11.0267   26.3788 C   0  0  0  0  0  0  0  0  0  0  0  0
    8.3785  -11.5984   25.5916 C   0  0  0  0  0  0  0  0  0  0  0  0
    8.3233  -12.9572   25.3371 C   0  0  0  0  0  0  0  0  0  0  0  0
    7.3280  -13.7568   25.8456 C   0  0  0  0  0  0  0  0  0  0  0  0
    7.7959  -17.0995   22.8100 C   0  0  0  0  0  0  0  0  0  0  0  0
    8.5731  -18.0715   22.7444 O   0  0  0  0  0  0  0  0  0  0  0  0
    7.7649  -16.2330   21.6868 N   0  0  0  0  0  0  0  0  0  0  0  0
    8.8543  -15.9375   20.8265 C   0  0  1  0  0  0  0  0  0  0  0  0
    8.6259  -14.7964   19.8836 C   0  0  0  0  0  0  0  0  0  0  0  0
    6.8935  -14.5963   19.4354 S   0  0  0  0  0  0  0  0  0  0  0  0
   10.0887  -15.7264   21.6011 C   0  0  0  0  0  0  0  0  0  0  0  0
   10.1119  -14.8132   22.4644 O   0  0  0  0  0  0  0  0  0  0  0  0
   11.2782  -16.5074   21.4291 N   0  0  0  0  0  0  0  0  0  0  0  0
   12.4463  -16.3119   22.2693 C   0  0  1  0  0  0  0  0  0  0  0  0
   12.0605  -16.7272   23.6595 C   0  0  0  0  0  0  0  0  0  0  0  0
   11.6147  -18.1431   23.7800 C   0  0  0  0  0  0  0  0  0  0  0  0
   11.4201  -18.6259   25.1712 C   0  0  0  0  0  0  0  0  0  0  0  0
   10.9396  -20.0638   25.2334 C   0  0  0  0  0  0  0  0  0  0  0  0
   10.8517  -20.5310   26.6038 N   0  0  0  0  0  0  0  0  0  0  0  0
   13.5912  -17.0639   21.7248 C   0  0  0  0  0  0  0  0  0  0  0  0
   13.4622  -17.9124   20.6319 O   0  0  0  0  0  0  0  0  0  0  0  0
   14.7114  -16.9303   22.2678 O   0  0  0  0  0  0  0  0  0  0  0  0
  2  1  1  1
  2  3  1  0
  2 13  1  0
  3  4  1  0
  4 12  1  0
  4  5  2  0
  5  6  1  0
  7  6  1  0
  7  8  2  0
  9  8  1  0
 10  9  2  0
 11 12  2  0
 11 10  1  0
 12  7  1  0
 13 14  2  0
 15 13  1  0
 15 16  1  0
 16 17  1  1
 18 17  1  0
 19 21  1  0
 19 16  1  0
 20 19  2  0
 22 21  1  0
 23 24  1  0
 22 23  1  1
 24 25  1  0
 26 25  1  0
 27 26  1  0
 28 22  1  0
 28 29  1  0
 30 28  2  0
M  END
$$$$
