WCK.pdb
     RDKit          3D

 30 31  0  0  1  0  0  0  0  0999 V2000
    9.7765  -16.4724   22.0630 N   0  0  0  0  0  0  0  0  0  0  0  0
    9.3761  -15.8006   23.2602 C   0  0  1  0  0  0  0  0  0  0  0  0
    7.9085  -15.8471   23.5242 C   0  0  0  0  0  0  0  0  0  0  0  0
    7.3150  -14.5058   23.6988 C   0  0  0  0  0  0  0  0  0  0  0  0
    6.9736  -13.6540   22.6754 C   0  0  0  0  0  0  0  0  0  0  0  0
    6.4621  -12.5248   23.2130 N   0  0  0  0  0  0  0  0  0  0  0  0
    6.4662  -12.6298   24.5589 C   0  0  0  0  0  0  0  0  0  0  0  0
    6.0509  -11.7516   25.5368 C   0  0  0  0  0  0  0  0  0  0  0  0
    6.1644  -12.1051   26.8603 C   0  0  0  0  0  0  0  0  0  0  0  0
    6.6897  -13.3284   27.2039 C   0  0  0  0  0  0  0  0  0  0  0  0
    7.0984  -14.1895   26.2011 C   0  0  0  0  0  0  0  0  0  0  0  0
    6.9969  -13.8629   24.8701 C   0  0  0  0  0  0  0  0  0  0  0  0
   10.0633  -16.3944   24.4624 C   0  0  0  0  0  0  0  0  0  0  0  0
   10.5434  -17.5444   24.4471 O   0  0  0  0  0  0  0  0  0  0  0  0
   10.1953  -15.6662   25.6731 N   0  0  0  0  0  0  0  0  0  0  0  0
   10.9502  -16.0590   26.8088 C   0  0  1  0  0  0  0  0  0  0  0  0
   10.9937  -15.0549   27.9194 C   0  0  0  0  0  0  0  0  0  0  0  0
   11.2398  -13.3713   27.3300 S   0  0  0  0  0  0  0  0  0  0  0  0
   10.4937  -17.3650   27.3129 C   0  0  0  0  0  0  0  0  0  0  0  0
    9.2617  -17.5529   27.4761 O   0  0  0  0  0  0  0  0  0  0  0  0
   11.3780  -18.4470   27.6321 N   0  0  0  0  0  0  0  0  0  0  0  0
   10.8930  -19.6742   28.2383 C   0  0  1  0  0  0  0  0  0  0  0  0
   11.6842  -20.8009   27.6397 C   0  0  0  0  0  0  0  0  0  0  0  0
   11.5489  -20.9343   26.1625 C   0  0  0  0  0  0  0  0  0  0  0  0
   12.7851  -20.6519   25.3887 C   0  0  0  0  0  0  0  0  0  0  0  0
   12.5711  -20.7301   23.8886 C   0  0  0  0  0  0  0  0  0  0  0  0
   13.7159  -20.2100   23.1655 N   0  0  0  0  0  0  0  0  0  0  0  0
   11.0029  -19.5900   29.7058 C   0  0  0  0  0  0  0  0  0  0  0  0
   11.5599  -18.4863   30.3404 O   0  0  0  0  0  0  0  0  0  0  0  0
   10.5802  -20.5450   30.3962 O   0  0  0  0  0  0  0  0  0  0  0  0
  2  1  1  6
  2  3  1  0
  2 13  1  0
  3  4  1  0
  4 12  1  0
  4  5  2  0
  5  6  1  0
  7  6  1  0
  7  8  2  0
  9  8  1  0
 10  9  2  0
 11 12  2  0
 11 10  1  0
 12  7  1  0
 13 14  2  0
 15 13  1  0
 15 16  1  0
 16 17  1  1
 18 17  1  0
 19 21  1  0
 19 16  1  0
 20 19  2  0
 22 21  1  0
 23 24  1  0
 22 23  1  6
 24 25  1  0
 26 25  1  0
 27 26  1  0
 28 22  1  0
 28 29  1  0
 30 28  2  0
M  END
$$$$
