WCK.pdb
     RDKit          3D

 30 31  0  0  1  0  0  0  0  0999 V2000
    9.0684  -15.5602   24.6727 N   0  0  0  0  0  0  0  0  0  0  0  0
    8.2323  -16.6986   24.4496 C   0  0  1  0  0  0  0  0  0  0  0  0
    7.1271  -16.8475   25.4406 C   0  0  0  0  0  0  0  0  0  0  0  0
    6.6180  -15.5503   25.9303 C   0  0  0  0  0  0  0  0  0  0  0  0
    5.3312  -15.3158   26.3532 C   0  0  0  0  0  0  0  0  0  0  0  0
    5.2342  -14.0210   26.7266 N   0  0  0  0  0  0  0  0  0  0  0  0
    6.4288  -13.4161   26.5540 C   0  0  0  0  0  0  0  0  0  0  0  0
    6.8288  -12.1182   26.7892 C   0  0  0  0  0  0  0  0  0  0  0  0
    8.1262  -11.7485   26.5250 C   0  0  0  0  0  0  0  0  0  0  0  0
    9.0177  -12.6702   26.0290 C   0  0  0  0  0  0  0  0  0  0  0  0
    8.5881  -13.9659   25.8027 C   0  0  0  0  0  0  0  0  0  0  0  0
    7.2976  -14.3636   26.0574 C   0  0  0  0  0  0  0  0  0  0  0  0
    7.5997  -16.6386   23.0835 C   0  0  0  0  0  0  0  0  0  0  0  0
    6.7550  -17.4754   22.7100 O   0  0  0  0  0  0  0  0  0  0  0  0
    7.9395  -15.6204   22.1555 N   0  0  0  0  0  0  0  0  0  0  0  0
    8.8360  -15.7481   21.0627 C   0  0  1  0  0  0  0  0  0  0  0  0
    8.8975  -14.5613   20.1511 C   0  0  0  0  0  0  0  0  0  0  0  0
    7.2692  -13.9166   19.7325 S   0  0  0  0  0  0  0  0  0  0  0  0
   10.1845  -16.1067   21.5330 C   0  0  0  0  0  0  0  0  0  0  0  0
   10.6281  -15.5571   22.5727 O   0  0  0  0  0  0  0  0  0  0  0  0
   11.0313  -17.0546   20.8707 N   0  0  0  0  0  0  0  0  0  0  0  0
   12.2189  -17.5928   21.5099 C   0  0  1  0  0  0  0  0  0  0  0  0
   11.9012  -19.0056   21.9059 C   0  0  0  0  0  0  0  0  0  0  0  0
   13.0670  -19.7828   22.4106 C   0  0  0  0  0  0  0  0  0  0  0  0
   12.7964  -21.2173   22.6855 C   0  0  0  0  0  0  0  0  0  0  0  0
   13.9551  -21.9133   23.3748 C   0  0  0  0  0  0  0  0  0  0  0  0
   13.6608  -23.3131   23.6157 N   0  0  0  0  0  0  0  0  0  0  0  0
   13.3754  -17.4798   20.6030 C   0  0  0  0  0  0  0  0  0  0  0  0
   14.6804  -17.4234   21.0775 O   0  0  0  0  0  0  0  0  0  0  0  0
   13.1697  -17.4334   19.3690 O   0  0  0  0  0  0  0  0  0  0  0  0
  2  1  1  1
  2  3  1  0
  2 13  1  0
  3  4  1  0
  4 12  1  0
  4  5  2  0
  5  6  1  0
  7  6  1  0
  7  8  2  0
  9  8  1  0
 10  9  2  0
 11 12  2  0
 11 10  1  0
 12  7  1  0
 13 14  2  0
 15 13  1  0
 15 16  1  0
 16 17  1  1
 18 17  1  0
 19 21  1  0
 19 16  1  0
 20 19  2  0
 22 21  1  0
 23 24  1  0
 22 23  1  6
 24 25  1  0
 26 25  1  0
 27 26  1  0
 28 22  1  0
 28 29  1  0
 30 28  2  0
M  END
$$$$
