WCK.pdb
     RDKit          3D

 30 31  0  0  1  0  0  0  0  0999 V2000
    6.4816  -17.7100   23.8675 N   0  0  0  0  0  0  0  0  0  0  0  0
    7.5924  -16.8371   23.6463 C   0  0  1  0  0  0  0  0  0  0  0  0
    8.1596  -16.2435   24.8919 C   0  0  0  0  0  0  0  0  0  0  0  0
    7.2203  -15.3263   25.5687 C   0  0  0  0  0  0  0  0  0  0  0  0
    6.0726  -15.7107   26.2204 C   0  0  0  0  0  0  0  0  0  0  0  0
    5.4715  -14.6057   26.7135 N   0  0  0  0  0  0  0  0  0  0  0  0
    6.2056  -13.5184   26.3945 C   0  0  0  0  0  0  0  0  0  0  0  0
    6.0100  -12.1818   26.6685 C   0  0  0  0  0  0  0  0  0  0  0  0
    6.9230  -11.2561   26.2223 C   0  0  0  0  0  0  0  0  0  0  0  0
    8.0240  -11.6639   25.5069 C   0  0  0  0  0  0  0  0  0  0  0  0
    8.1944  -13.0121   25.2468 C   0  0  0  0  0  0  0  0  0  0  0  0
    7.2984  -13.9596   25.6802 C   0  0  0  0  0  0  0  0  0  0  0  0
    8.7134  -17.5636   22.9493 C   0  0  0  0  0  0  0  0  0  0  0  0
    8.9256  -18.7783   23.1300 O   0  0  0  0  0  0  0  0  0  0  0  0
    9.5829  -16.8929   22.0506 N   0  0  0  0  0  0  0  0  0  0  0  0
   10.6598  -17.4769   21.3340 C   0  0  1  0  0  0  0  0  0  0  0  0
   11.0327  -16.7734   20.0655 C   0  0  0  0  0  0  0  0  0  0  0  0
   11.5187  -15.0604   20.3334 S   0  0  0  0  0  0  0  0  0  0  0  0
   11.8392  -17.6345   22.2014 C   0  0  0  0  0  0  0  0  0  0  0  0
   12.0669  -16.7617   23.0767 O   0  0  0  0  0  0  0  0  0  0  0  0
   12.7534  -18.7345   22.1076 N   0  0  0  0  0  0  0  0  0  0  0  0
   13.8236  -18.9203   23.0713 C   0  0  1  0  0  0  0  0  0  0  0  0
   13.9959  -20.4004   23.2547 C   0  0  0  0  0  0  0  0  0  0  0  0
   15.1245  -20.7851   24.1470 C   0  0  0  0  0  0  0  0  0  0  0  0
   15.4208  -22.2399   24.1963 C   0  0  0  0  0  0  0  0  0  0  0  0
   16.4398  -22.5971   25.2622 C   0  0  0  0  0  0  0  0  0  0  0  0
   16.8444  -23.9863   25.1596 N   0  0  0  0  0  0  0  0  0  0  0  0
   15.0446  -18.2368   22.6078 C   0  0  0  0  0  0  0  0  0  0  0  0
   15.9873  -17.7313   23.4949 O   0  0  0  0  0  0  0  0  0  0  0  0
   15.2325  -18.1108   21.3765 O   0  0  0  0  0  0  0  0  0  0  0  0
  2  1  1  1
  2  3  1  0
  2 13  1  0
  3  4  1  0
  4 12  1  0
  4  5  2  0
  5  6  1  0
  7  6  1  0
  7  8  2  0
  9  8  1  0
 10  9  2  0
 11 12  2  0
 11 10  1  0
 12  7  1  0
 13 14  2  0
 15 13  1  0
 15 16  1  0
 16 17  1  6
 18 17  1  0
 19 21  1  0
 19 16  1  0
 20 19  2  0
 22 21  1  0
 23 24  1  0
 22 23  1  6
 24 25  1  0
 26 25  1  0
 27 26  1  0
 28 22  1  0
 28 29  1  0
 30 28  2  0
M  END
$$$$
