WCK.pdb
     RDKit          3D

 30 31  0  0  1  0  0  0  0  0999 V2000
    7.6439  -18.3653   21.2020 N   0  0  0  0  0  0  0  0  0  0  0  0
    8.7564  -17.9177   20.4231 C   0  0  1  0  0  0  0  0  0  0  0  0
    8.4691  -16.7209   19.5802 C   0  0  0  0  0  0  0  0  0  0  0  0
    7.9531  -15.5794   20.3628 C   0  0  0  0  0  0  0  0  0  0  0  0
    7.2087  -15.6831   21.5138 C   0  0  0  0  0  0  0  0  0  0  0  0
    6.9176  -14.4370   21.9473 N   0  0  0  0  0  0  0  0  0  0  0  0
    7.4572  -13.5331   21.1021 C   0  0  0  0  0  0  0  0  0  0  0  0
    7.4364  -12.1550   21.1166 C   0  0  0  0  0  0  0  0  0  0  0  0
    8.0754  -11.4553   20.1207 C   0  0  0  0  0  0  0  0  0  0  0  0
    8.7308  -12.1288   19.1172 C   0  0  0  0  0  0  0  0  0  0  0  0
    8.7352  -13.5123   19.1284 C   0  0  0  0  0  0  0  0  0  0  0  0
    8.1050  -14.2378   20.1108 C   0  0  0  0  0  0  0  0  0  0  0  0
    9.9238  -17.5679   21.3092 C   0  0  0  0  0  0  0  0  0  0  0  0
   11.0152  -17.1872   20.8431 O   0  0  0  0  0  0  0  0  0  0  0  0
    9.8320  -17.6568   22.7224 N   0  0  0  0  0  0  0  0  0  0  0  0
   10.8475  -17.3103   23.6512 C   0  0  1  0  0  0  0  0  0  0  0  0
   10.5041  -16.1820   24.5744 C   0  0  0  0  0  0  0  0  0  0  0  0
    8.9356  -16.4272   25.4242 S   0  0  0  0  0  0  0  0  0  0  0  0
   11.2777  -18.4911   24.4188 C   0  0  0  0  0  0  0  0  0  0  0  0
   10.4150  -19.3415   24.7538 O   0  0  0  0  0  0  0  0  0  0  0  0
   12.6349  -18.7326   24.8113 N   0  0  0  0  0  0  0  0  0  0  0  0
   13.0320  -19.9692   25.4606 C   0  0  1  0  0  0  0  0  0  0  0  0
   14.2503  -20.4705   24.7407 C   0  0  0  0  0  0  0  0  0  0  0  0
   14.8435  -21.7085   25.3182 C   0  0  0  0  0  0  0  0  0  0  0  0
   16.1514  -22.1095   24.7393 C   0  0  0  0  0  0  0  0  0  0  0  0
   16.6921  -23.3936   25.3403 C   0  0  0  0  0  0  0  0  0  0  0  0
   18.0198  -23.6919   24.8382 N   0  0  0  0  0  0  0  0  0  0  0  0
   13.2507  -19.7362   26.8996 C   0  0  0  0  0  0  0  0  0  0  0  0
   13.3349  -20.7823   27.8105 O   0  0  0  0  0  0  0  0  0  0  0  0
   13.3632  -18.5580   27.3076 O   0  0  0  0  0  0  0  0  0  0  0  0
  2  1  1  1
  2  3  1  0
  2 13  1  0
  3  4  1  0
  4 12  1  0
  4  5  2  0
  5  6  1  0
  7  6  1  0
  7  8  2  0
  9  8  1  0
 10  9  2  0
 11 12  2  0
 11 10  1  0
 12  7  1  0
 13 14  2  0
 15 13  1  0
 15 16  1  0
 16 17  1  1
 18 17  1  0
 19 21  1  0
 19 16  1  0
 20 19  2  0
 22 21  1  0
 23 24  1  0
 22 23  1  6
 24 25  1  0
 26 25  1  0
 27 26  1  0
 28 22  1  0
 28 29  1  0
 30 28  2  0
M  END
$$$$
