WCK.pdb
     RDKit          3D

 30 31  0  0  1  0  0  0  0  0999 V2000
    8.0377  -15.6681   22.7349 N   0  0  0  0  0  0  0  0  0  0  0  0
    8.9418  -15.8815   23.8220 C   0  0  1  0  0  0  0  0  0  0  0  0
    8.2758  -16.2375   25.1086 C   0  0  0  0  0  0  0  0  0  0  0  0
    7.2608  -15.2471   25.5216 C   0  0  0  0  0  0  0  0  0  0  0  0
    5.9984  -15.5512   25.9725 C   0  0  0  0  0  0  0  0  0  0  0  0
    5.3566  -14.3962   26.2549 N   0  0  0  0  0  0  0  0  0  0  0  0
    6.1765  -13.3553   25.9963 C   0  0  0  0  0  0  0  0  0  0  0  0
    5.9822  -11.9966   26.1228 C   0  0  0  0  0  0  0  0  0  0  0  0
    6.9957  -11.1310   25.7862 C   0  0  0  0  0  0  0  0  0  0  0  0
    8.1953  -11.6205   25.3261 C   0  0  0  0  0  0  0  0  0  0  0  0
    8.3619  -12.9891   25.2094 C   0  0  0  0  0  0  0  0  0  0  0  0
    7.3666  -13.8778   25.5383 C   0  0  0  0  0  0  0  0  0  0  0  0
    9.9117  -16.9892   23.5018 C   0  0  0  0  0  0  0  0  0  0  0  0
   10.1870  -17.8837   24.3248 O   0  0  0  0  0  0  0  0  0  0  0  0
   10.5589  -17.0638   22.2412 N   0  0  0  0  0  0  0  0  0  0  0  0
   11.7562  -17.7698   21.9547 C   0  0  1  0  0  0  0  0  0  0  0  0
   12.3605  -17.4762   20.6162 C   0  0  0  0  0  0  0  0  0  0  0  0
   13.8954  -18.3733   20.3305 S   0  0  0  0  0  0  0  0  0  0  0  0
   12.7491  -17.5688   23.0234 C   0  0  0  0  0  0  0  0  0  0  0  0
   13.2638  -16.4308   23.1640 O   0  0  0  0  0  0  0  0  0  0  0  0
   13.1689  -18.6028   23.9229 N   0  0  0  0  0  0  0  0  0  0  0  0
   14.2369  -18.3900   24.8835 C   0  0  1  0  0  0  0  0  0  0  0  0
   13.6463  -18.5966   26.2482 C   0  0  0  0  0  0  0  0  0  0  0  0
   13.0093  -19.9275   26.4506 C   0  0  0  0  0  0  0  0  0  0  0  0
   12.4175  -20.1444   27.7957 C   0  0  0  0  0  0  0  0  0  0  0  0
   11.7255  -21.4887   27.9243 C   0  0  0  0  0  0  0  0  0  0  0  0
   11.2670  -21.7173   29.2813 N   0  0  0  0  0  0  0  0  0  0  0  0
   15.3681  -19.2875   24.5877 C   0  0  0  0  0  0  0  0  0  0  0  0
   15.2888  -20.2759   23.6140 O   0  0  0  0  0  0  0  0  0  0  0  0
   16.4299  -19.1507   25.2367 O   0  0  0  0  0  0  0  0  0  0  0  0
  2  1  1  6
  2  3  1  0
  2 13  1  0
  3  4  1  0
  4 12  1  0
  4  5  2  0
  5  6  1  0
  7  6  1  0
  7  8  2  0
  9  8  1  0
 10  9  2  0
 11 12  2  0
 11 10  1  0
 12  7  1  0
 13 14  2  0
 15 13  1  0
 15 16  1  0
 16 17  1  6
 18 17  1  0
 19 21  1  0
 19 16  1  0
 20 19  2  0
 22 21  1  0
 23 24  1  0
 22 23  1  1
 24 25  1  0
 26 25  1  0
 27 26  1  0
 28 22  1  0
 28 29  1  0
 30 28  2  0
M  END
$$$$
