VRD.pdb
     RDKit          3D

 27 26  0  0  1  0  0  0  0  0999 V2000
   26.0284  -18.5686   -8.5984 C   0  0  0  0  0  0  0  0  0  0  0  0
   26.6927  -19.9058   -8.9514 C   0  0  1  0  0  0  0  0  0  0  0  0
   27.3724  -20.5030   -7.7590 C   0  0  0  0  0  0  0  0  0  0  0  0
   25.6095  -20.7833   -9.5200 C   0  0  2  0  0  0  0  0  0  0  0  0
   26.1478  -22.0957   -9.8115 N   0  0  0  0  0  0  0  0  0  0  0  0
   24.9865  -20.2421  -10.7277 C   0  0  0  0  0  0  0  0  0  0  0  0
   24.3204  -19.1721  -10.6525 O   0  0  0  0  0  0  0  0  0  0  0  0
   24.2543  -24.3014  -16.2725 N   0  0  0  0  0  0  0  0  0  0  0  0
   25.5645  -24.7914  -16.0279 C   0  0  0  0  0  0  0  0  0  0  0  0
   25.7599  -26.0482  -15.9960 N   0  0  0  0  0  0  0  0  0  0  0  0
   26.6287  -23.8584  -15.8243 N   0  0  0  0  0  0  0  0  0  0  0  0
   26.3544  -22.4472  -15.6962 C   0  0  0  0  0  0  0  0  0  0  0  0
   25.4631  -22.1910  -14.4717 C   0  0  0  0  0  0  0  0  0  0  0  0
   25.3125  -20.7251  -14.3395 C   0  0  0  0  0  0  0  0  0  0  0  0
   24.4313  -20.2417  -13.2129 C   0  0  2  0  0  0  0  0  0  0  0  0
   25.0630  -20.8225  -12.0083 N   0  0  0  0  0  0  0  0  0  0  0  0
   23.0258  -20.6390  -13.3008 C   0  0  0  0  0  0  0  0  0  0  0  0
   22.7072  -21.7735  -12.8196 O   0  0  0  0  0  0  0  0  0  0  0  0
   26.7231  -26.4212  -15.8686 N   0  0  0  0  0  0  0  0  0  0  0  0
   21.9845  -19.8707  -13.8710 C   0  0  1  0  0  0  0  0  0  0  0  0
   20.5921  -20.3647  -13.8409 C   0  0  0  0  0  0  0  0  0  0  0  0
   19.7357  -19.1774  -14.2026 C   0  0  0  0  0  0  0  0  0  0  0  0
   19.4899  -18.2758  -13.0648 O   0  0  0  0  0  0  0  0  0  0  0  0
   19.8401  -18.4485  -11.8849 C   0  0  0  0  0  0  0  0  0  0  0  0
   20.4795  -21.3686  -14.9215 O   0  0  0  0  0  0  0  0  0  0  0  0
   21.3992  -21.5100  -15.9543 O   0  0  0  0  0  0  0  0  0  0  0  0
   18.7772  -17.0962  -13.3793 O   0  0  0  0  0  0  0  0  0  0  0  0
  2  1  1  1
  3  2  1  0
  4  2  1  0
  4  5  1  6
  6  4  1  0
  6  7  2  0
  9  8  1  0
 10  9  2  0
 11  9  1  0
 12 13  1  0
 12 11  1  0
 13 14  1  0
 15 14  1  6
 15 16  1  0
 16  6  1  0
 17 15  1  0
 18 17  2  0
 19 17  1  0
 20 24  1  0
 20 19  1  0
 20 21  1  6
 22 21  1  0
 23 22  2  0
 24 25  1  0
 26 22  1  0
 27 24  2  0
M  END
$$$$
