VRD.pdb
     RDKit          3D

 27 26  0  0  1  0  0  0  0  0999 V2000
   32.0906  -23.2316   -8.9619 C   0  0  0  0  0  0  0  0  0  0  0  0
   30.9222  -22.3691   -9.4568 C   0  0  1  0  0  0  0  0  0  0  0  0
   30.7629  -21.1410   -8.6160 C   0  0  0  0  0  0  0  0  0  0  0  0
   31.1990  -22.0663  -10.9053 C   0  0  2  0  0  0  0  0  0  0  0  0
   32.5257  -21.5016  -11.0406 N   0  0  0  0  0  0  0  0  0  0  0  0
   30.2274  -21.1575  -11.5132 C   0  0  0  0  0  0  0  0  0  0  0  0
   30.3150  -19.9184  -11.2865 O   0  0  0  0  0  0  0  0  0  0  0  0
   26.7261  -15.5853  -16.0212 N   0  0  0  0  0  0  0  0  0  0  0  0
   26.8276  -16.7426  -16.8378 C   0  0  0  0  0  0  0  0  0  0  0  0
   27.1545  -16.6115  -18.0604 N   0  0  0  0  0  0  0  0  0  0  0  0
   26.5598  -18.0243  -16.2631 N   0  0  0  0  0  0  0  0  0  0  0  0
   27.6111  -18.7756  -15.6202 C   0  0  0  0  0  0  0  0  0  0  0  0
   27.0520  -20.0902  -15.0555 C   0  0  0  0  0  0  0  0  0  0  0  0
   28.1485  -20.7474  -14.3106 C   0  0  0  0  0  0  0  0  0  0  0  0
   28.0966  -20.6351  -12.8059 C   0  0  2  0  0  0  0  0  0  0  0  0
   29.1689  -21.5486  -12.3553 N   0  0  0  0  0  0  0  0  0  0  0  0
   26.8183  -20.9982  -12.1932 C   0  0  0  0  0  0  0  0  0  0  0  0
   26.4124  -22.1941  -12.3514 O   0  0  0  0  0  0  0  0  0  0  0  0
   27.1977  -17.4472  -18.6792 N   0  0  0  0  0  0  0  0  0  0  0  0
   25.9920  -20.1372  -11.4345 C   0  0  1  0  0  0  0  0  0  0  0  0
   24.7319  -20.6397  -10.8486 C   0  0  0  0  0  0  0  0  0  0  0  0
   24.5700  -19.8983   -9.5455 C   0  0  0  0  0  0  0  0  0  0  0  0
   25.3115  -20.5171   -8.4341 O   0  0  0  0  0  0  0  0  0  0  0  0
   25.3411  -21.7229   -8.1348 C   0  0  0  0  0  0  0  0  0  0  0  0
   23.6474  -20.2201  -11.7628 O   0  0  0  0  0  0  0  0  0  0  0  0
   22.3469  -20.7081  -11.7070 O   0  0  0  0  0  0  0  0  0  0  0  0
   26.0604  -19.6181   -7.6407 O   0  0  0  0  0  0  0  0  0  0  0  0
  2  1  1  1
  3  2  1  0
  4  2  1  0
  4  5  1  1
  6  4  1  0
  6  7  2  0
  9  8  1  0
 10  9  2  0
 11  9  1  0
 12 13  1  0
 12 11  1  0
 13 14  1  0
 15 14  1  6
 15 16  1  0
 16  6  1  0
 17 15  1  0
 18 17  2  0
 19 17  1  0
 20 24  1  0
 20 19  1  0
 20 21  1  6
 22 21  1  0
 23 22  2  0
 24 25  1  0
 26 22  1  0
 27 24  2  0
M  END
$$$$
