VRD.pdb
     RDKit          3D

 27 26  0  0  1  0  0  0  0  0999 V2000
   33.4770  -38.1514    2.8966 C   0  0  0  0  0  0  0  0  0  0  0  0
   34.8311  -37.6422    3.4076 C   0  0  1  0  0  0  0  0  0  0  0  0
   35.4552  -38.6213    4.3522 C   0  0  0  0  0  0  0  0  0  0  0  0
   35.6728  -37.3722    2.1889 C   0  0  2  0  0  0  0  0  0  0  0  0
   36.9056  -36.7218    2.5819 N   0  0  0  0  0  0  0  0  0  0  0  0
   35.0013  -36.5550    1.1785 C   0  0  0  0  0  0  0  0  0  0  0  0
   34.9359  -35.3044    1.3396 O   0  0  0  0  0  0  0  0  0  0  0  0
   35.1572  -37.2844   -7.3053 N   0  0  0  0  0  0  0  0  0  0  0  0
   34.1013  -36.3406   -7.2009 C   0  0  0  0  0  0  0  0  0  0  0  0
   33.6053  -35.8458   -8.2629 N   0  0  0  0  0  0  0  0  0  0  0  0
   33.6242  -35.9722   -5.9042 N   0  0  0  0  0  0  0  0  0  0  0  0
   34.2130  -36.5410   -4.7155 C   0  0  0  0  0  0  0  0  0  0  0  0
   33.4695  -36.0430   -3.4671 C   0  0  0  0  0  0  0  0  0  0  0  0
   34.1311  -36.6521   -2.2922 C   0  0  0  0  0  0  0  0  0  0  0  0
   33.6278  -36.2128   -0.9382 C   0  0  2  0  0  0  0  0  0  0  0  0
   34.4013  -37.0495    0.0046 N   0  0  0  0  0  0  0  0  0  0  0  0
   32.1910  -36.3810   -0.7180 C   0  0  0  0  0  0  0  0  0  0  0  0
   31.8220  -37.3463    0.0250 O   0  0  0  0  0  0  0  0  0  0  0  0
   32.7628  -35.2371   -8.2084 N   0  0  0  0  0  0  0  0  0  0  0  0
   31.1716  -35.5614   -1.2555 C   0  0  2  0  0  0  0  0  0  0  0  0
   29.7534  -35.8362   -0.9442 C   0  0  0  0  0  0  0  0  0  0  0  0
   29.6265  -35.6565    0.5476 C   0  0  0  0  0  0  0  0  0  0  0  0
   28.2312  -35.6953    1.0163 O   0  0  0  0  0  0  0  0  0  0  0  0
   27.2110  -35.8206    0.3176 C   0  0  0  0  0  0  0  0  0  0  0  0
   28.9647  -34.7776   -1.6113 O   0  0  0  0  0  0  0  0  0  0  0  0
   27.5787  -34.7879   -1.7197 O   0  0  0  0  0  0  0  0  0  0  0  0
   28.0664  -35.5748    2.4151 O   0  0  0  0  0  0  0  0  0  0  0  0
  2  1  1  6
  3  2  1  0
  4  2  1  0
  4  5  1  1
  6  4  1  0
  6  7  2  0
  9  8  1  0
 10  9  2  0
 11  9  1  0
 12 13  1  0
 12 11  1  0
 13 14  1  0
 15 14  1  6
 15 16  1  0
 16  6  1  0
 17 15  1  0
 18 17  2  0
 19 17  1  0
 20 24  1  0
 20 19  1  0
 20 21  1  1
 22 21  1  0
 23 22  2  0
 24 25  1  0
 26 22  1  0
 27 24  2  0
M  END
$$$$
