VRD.pdb
     RDKit          3D

 27 26  0  0  1  0  0  0  0  0999 V2000
   11.8992   -9.6349  -15.2444 C   0  0  0  0  0  0  0  0  0  0  0  0
   11.2381  -10.4533  -14.1276 C   0  0  1  0  0  0  0  0  0  0  0  0
    9.7522  -10.5032  -14.3012 C   0  0  0  0  0  0  0  0  0  0  0  0
   11.8859  -11.8120  -14.1537 C   0  0  2  0  0  0  0  0  0  0  0  0
   11.3762  -12.6164  -13.0627 N   0  0  0  0  0  0  0  0  0  0  0  0
   13.3460  -11.7700  -14.0761 C   0  0  0  0  0  0  0  0  0  0  0  0
   13.9000  -11.5955  -12.9550 O   0  0  0  0  0  0  0  0  0  0  0  0
   17.8637  -17.6695  -17.4693 N   0  0  0  0  0  0  0  0  0  0  0  0
   17.6533  -17.7634  -16.0681 C   0  0  0  0  0  0  0  0  0  0  0  0
   17.8715  -18.8712  -15.4816 N   0  0  0  0  0  0  0  0  0  0  0  0
   17.2018  -16.6095  -15.3543 N   0  0  0  0  0  0  0  0  0  0  0  0
   16.9008  -15.3837  -16.0542 C   0  0  0  0  0  0  0  0  0  0  0  0
   16.4729  -14.2968  -15.0566 C   0  0  0  0  0  0  0  0  0  0  0  0
   16.1335  -13.0905  -15.8433 C   0  0  0  0  0  0  0  0  0  0  0  0
   15.6939  -11.8797  -15.0556 C   0  0  2  0  0  0  0  0  0  0  0  0
   14.2198  -11.9105  -15.1712 N   0  0  0  0  0  0  0  0  0  0  0  0
   16.2217  -10.5990  -15.5270 C   0  0  0  0  0  0  0  0  0  0  0  0
   15.8248  -10.1851  -16.6633 O   0  0  0  0  0  0  0  0  0  0  0  0
   17.7682  -18.9413  -14.4484 N   0  0  0  0  0  0  0  0  0  0  0  0
   17.1337   -9.7743  -14.8286 C   0  0  2  0  0  0  0  0  0  0  0  0
   17.5387   -8.4691  -15.3908 C   0  0  0  0  0  0  0  0  0  0  0  0
   17.2353   -7.4560  -14.3158 C   0  0  0  0  0  0  0  0  0  0  0  0
   17.7156   -6.1038  -14.6458 O   0  0  0  0  0  0  0  0  0  0  0  0
   18.3373   -5.7594  -15.6653 C   0  0  0  0  0  0  0  0  0  0  0  0
   19.0050   -8.5288  -15.5761 O   0  0  0  0  0  0  0  0  0  0  0  0
   19.7939   -9.6148  -15.2144 O   0  0  0  0  0  0  0  0  0  0  0  0
   17.4232   -5.1130  -13.6808 O   0  0  0  0  0  0  0  0  0  0  0  0
  2  1  1  6
  3  2  1  0
  4  2  1  0
  4  5  1  1
  6  4  1  0
  6  7  2  0
  9  8  1  0
 10  9  2  0
 11  9  1  0
 12 13  1  0
 12 11  1  0
 13 14  1  0
 15 14  1  6
 15 16  1  0
 16  6  1  0
 17 15  1  0
 18 17  2  0
 19 17  1  0
 20 24  1  0
 20 19  1  0
 20 21  1  1
 22 21  1  0
 23 22  2  0
 24 25  1  0
 26 22  1  0
 27 24  2  0
M  END
$$$$
