VRD.pdb
     RDKit          3D

 27 26  0  0  1  0  0  0  0  0999 V2000
   20.6777  -21.8567  -15.2267 C   0  0  0  0  0  0  0  0  0  0  0  0
   20.1558  -21.4743  -13.8355 C   0  0  1  0  0  0  0  0  0  0  0  0
   19.2514  -22.5337  -13.2875 C   0  0  0  0  0  0  0  0  0  0  0  0
   21.3685  -21.2260  -12.9785 C   0  0  2  0  0  0  0  0  0  0  0  0
   20.9545  -20.9164  -11.6257 N   0  0  0  0  0  0  0  0  0  0  0  0
   22.2295  -20.1521  -13.4734 C   0  0  0  0  0  0  0  0  0  0  0  0
   21.8983  -18.9510  -13.2684 O   0  0  0  0  0  0  0  0  0  0  0  0
   29.9020  -21.1381  -11.6926 N   0  0  0  0  0  0  0  0  0  0  0  0
   28.6158  -21.4004  -11.1510 C   0  0  0  0  0  0  0  0  0  0  0  0
   28.5204  -21.8010   -9.9472 N   0  0  0  0  0  0  0  0  0  0  0  0
   27.4625  -21.2067  -11.9739 N   0  0  0  0  0  0  0  0  0  0  0  0
   27.5495  -20.4367  -13.1916 C   0  0  0  0  0  0  0  0  0  0  0  0
   26.3605  -19.4693  -13.2913 C   0  0  0  0  0  0  0  0  0  0  0  0
   25.6715  -19.7537  -14.5694 C   0  0  0  0  0  0  0  0  0  0  0  0
   24.2614  -19.2302  -14.7004 C   0  0  2  0  0  0  0  0  0  0  0  0
   23.4328  -20.3393  -14.1803 N   0  0  0  0  0  0  0  0  0  0  0  0
   23.8491  -18.8707  -16.0576 C   0  0  0  0  0  0  0  0  0  0  0  0
   23.4606  -19.8129  -16.8200 O   0  0  0  0  0  0  0  0  0  0  0  0
   27.5822  -21.9396   -9.5185 N   0  0  0  0  0  0  0  0  0  0  0  0
   23.8395  -17.5644  -16.5990 C   0  0  2  0  0  0  0  0  0  0  0  0
   23.3713  -17.3347  -17.9817 C   0  0  0  0  0  0  0  0  0  0  0  0
   22.9439  -15.8893  -18.0273 C   0  0  0  0  0  0  0  0  0  0  0  0
   22.5125  -15.4576  -19.3672 O   0  0  0  0  0  0  0  0  0  0  0  0
   23.0243  -14.5668  -20.0666 C   0  0  0  0  0  0  0  0  0  0  0  0
   24.5518  -17.5008  -18.8574 O   0  0  0  0  0  0  0  0  0  0  0  0
   24.4820  -17.8053  -20.2121 O   0  0  0  0  0  0  0  0  0  0  0  0
   21.3943  -16.1488  -19.8871 O   0  0  0  0  0  0  0  0  0  0  0  0
  2  1  1  6
  3  2  1  0
  4  2  1  0
  4  5  1  1
  6  4  1  0
  6  7  2  0
  9  8  1  0
 10  9  2  0
 11  9  1  0
 12 13  1  0
 12 11  1  0
 13 14  1  0
 15 14  1  6
 15 16  1  0
 16  6  1  0
 17 15  1  0
 18 17  2  0
 19 17  1  0
 20 24  1  0
 20 19  1  0
 20 21  1  1
 22 21  1  0
 23 22  2  0
 24 25  1  0
 26 22  1  0
 27 24  2  0
M  END
$$$$
