VRD.pdb
     RDKit          3D

 27 26  0  0  1  0  0  0  0  0999 V2000
   27.4079  -18.3307  -17.4254 C   0  0  0  0  0  0  0  0  0  0  0  0
   28.0997  -19.4941  -18.1478 C   0  0  1  0  0  0  0  0  0  0  0  0
   29.2530  -19.0104  -18.9702 C   0  0  0  0  0  0  0  0  0  0  0  0
   28.5007  -20.4795  -17.0826 C   0  0  2  0  0  0  0  0  0  0  0  0
   29.1631  -21.6140  -17.6922 N   0  0  0  0  0  0  0  0  0  0  0  0
   27.3815  -20.9577  -16.2712 C   0  0  0  0  0  0  0  0  0  0  0  0
   26.5056  -21.6964  -16.8016 O   0  0  0  0  0  0  0  0  0  0  0  0
   23.3889  -20.1500  -10.2858 N   0  0  0  0  0  0  0  0  0  0  0  0
   23.8669  -20.9267   -9.1972 C   0  0  0  0  0  0  0  0  0  0  0  0
   23.0952  -21.1525   -8.2112 N   0  0  0  0  0  0  0  0  0  0  0  0
   25.2031  -21.4341   -9.2394 N   0  0  0  0  0  0  0  0  0  0  0  0
   26.1031  -21.0468  -10.2992 C   0  0  0  0  0  0  0  0  0  0  0  0
   25.4338  -21.2597  -11.6653 C   0  0  0  0  0  0  0  0  0  0  0  0
   26.4322  -20.9113  -12.7002 C   0  0  0  0  0  0  0  0  0  0  0  0
   26.0028  -21.1014  -14.1352 C   0  0  2  0  0  0  0  0  0  0  0  0
   27.1837  -20.6611  -14.9091 N   0  0  0  0  0  0  0  0  0  0  0  0
   24.8127  -20.3517  -14.5387 C   0  0  0  0  0  0  0  0  0  0  0  0
   24.8707  -19.0819  -14.4723 O   0  0  0  0  0  0  0  0  0  0  0  0
   23.4000  -21.7918   -7.4486 N   0  0  0  0  0  0  0  0  0  0  0  0
   23.6003  -20.9135  -15.0015 C   0  0  2  0  0  0  0  0  0  0  0  0
   22.4471  -20.0433  -15.3121 C   0  0  0  0  0  0  0  0  0  0  0  0
   21.6905  -20.7530  -16.4066 C   0  0  0  0  0  0  0  0  0  0  0  0
   20.4184  -20.0949  -16.7482 O   0  0  0  0  0  0  0  0  0  0  0  0
   20.2534  -18.9034  -17.0609 C   0  0  0  0  0  0  0  0  0  0  0  0
   21.6009  -20.0191  -14.0991 O   0  0  0  0  0  0  0  0  0  0  0  0
   20.6058  -19.0782  -13.8602 O   0  0  0  0  0  0  0  0  0  0  0  0
   19.2812  -20.9336  -16.7075 O   0  0  0  0  0  0  0  0  0  0  0  0
  2  1  1  1
  3  2  1  0
  4  2  1  0
  4  5  1  6
  6  4  1  0
  6  7  2  0
  9  8  1  0
 10  9  2  0
 11  9  1  0
 12 13  1  0
 12 11  1  0
 13 14  1  0
 15 14  1  1
 15 16  1  0
 16  6  1  0
 17 15  1  0
 18 17  2  0
 19 17  1  0
 20 24  1  0
 20 19  1  0
 20 21  1  6
 22 21  1  0
 23 22  2  0
 24 25  1  0
 26 22  1  0
 27 24  2  0
M  END
$$$$
