VRD.pdb
     RDKit          3D

 27 26  0  0  1  0  0  0  0  0999 V2000
   28.1760  -16.2262  -18.9155 C   0  0  0  0  0  0  0  0  0  0  0  0
   27.0501  -17.1096  -18.3622 C   0  0  1  0  0  0  0  0  0  0  0  0
   26.1710  -17.6167  -19.4623 C   0  0  0  0  0  0  0  0  0  0  0  0
   27.7165  -18.2089  -17.5787 C   0  0  2  0  0  0  0  0  0  0  0  0
   28.6187  -18.9442  -18.4405 N   0  0  0  0  0  0  0  0  0  0  0  0
   26.7771  -19.1439  -16.9599 C   0  0  0  0  0  0  0  0  0  0  0  0
   26.2443  -20.0433  -17.6680 O   0  0  0  0  0  0  0  0  0  0  0  0
   26.4282  -19.8220   -9.4344 N   0  0  0  0  0  0  0  0  0  0  0  0
   25.6338  -20.8236  -10.0527 C   0  0  0  0  0  0  0  0  0  0  0  0
   24.4731  -21.0661   -9.5916 N   0  0  0  0  0  0  0  0  0  0  0  0
   26.1606  -21.5323  -11.1774 N   0  0  0  0  0  0  0  0  0  0  0  0
   27.3387  -21.0548  -11.8608 C   0  0  0  0  0  0  0  0  0  0  0  0
   27.0881  -21.0067  -13.3755 C   0  0  0  0  0  0  0  0  0  0  0  0
   25.8590  -20.2114  -13.5902 C   0  0  0  0  0  0  0  0  0  0  0  0
   25.4024  -20.0583  -15.0212 C   0  0  2  0  0  0  0  0  0  0  0  0
   26.3993  -19.1339  -15.6035 N   0  0  0  0  0  0  0  0  0  0  0  0
   24.0480  -19.5325  -15.1949 C   0  0  0  0  0  0  0  0  0  0  0  0
   23.8825  -18.2799  -15.0418 O   0  0  0  0  0  0  0  0  0  0  0  0
   23.8679  -21.7753  -10.0542 N   0  0  0  0  0  0  0  0  0  0  0  0
   22.9024  -20.2938  -15.5231 C   0  0  2  0  0  0  0  0  0  0  0  0
   21.6037  -19.6258  -15.7483 C   0  0  0  0  0  0  0  0  0  0  0  0
   21.0495  -20.2378  -17.0102 C   0  0  0  0  0  0  0  0  0  0  0  0
   19.7148  -19.7250  -17.3616 O   0  0  0  0  0  0  0  0  0  0  0  0
   18.7066  -19.7046  -16.6352 C   0  0  0  0  0  0  0  0  0  0  0  0
   20.7310  -20.0134  -14.6186 O   0  0  0  0  0  0  0  0  0  0  0  0
   19.5885  -19.3174  -14.2404 O   0  0  0  0  0  0  0  0  0  0  0  0
   19.5988  -19.2071  -18.6719 O   0  0  0  0  0  0  0  0  0  0  0  0
  2  1  1  6
  3  2  1  0
  4  2  1  0
  4  5  1  6
  6  4  1  0
  6  7  2  0
  9  8  1  0
 10  9  2  0
 11  9  1  0
 12 13  1  0
 12 11  1  0
 13 14  1  0
 15 14  1  1
 15 16  1  0
 16  6  1  0
 17 15  1  0
 18 17  2  0
 19 17  1  0
 20 24  1  0
 20 19  1  0
 20 21  1  6
 22 21  1  0
 23 22  2  0
 24 25  1  0
 26 22  1  0
 27 24  2  0
M  END
$$$$
