VRD.pdb
     RDKit          3D

 27 26  0  0  1  0  0  0  0  0999 V2000
   19.4363  -20.6747  -15.1969 C   0  0  0  0  0  0  0  0  0  0  0  0
   20.7858  -19.9464  -15.2500 C   0  0  1  0  0  0  0  0  0  0  0  0
   20.6431  -18.5136  -14.8413 C   0  0  0  0  0  0  0  0  0  0  0  0
   21.7258  -20.7254  -14.3691 C   0  0  2  0  0  0  0  0  0  0  0  0
   21.2185  -20.7465  -13.0129 N   0  0  0  0  0  0  0  0  0  0  0  0
   23.0928  -20.2049  -14.3610 C   0  0  0  0  0  0  0  0  0  0  0  0
   23.3061  -19.0366  -13.9322 O   0  0  0  0  0  0  0  0  0  0  0  0
   24.4925  -21.1950   -9.4289 N   0  0  0  0  0  0  0  0  0  0  0  0
   25.8217  -20.6958   -9.4047 C   0  0  0  0  0  0  0  0  0  0  0  0
   26.2563  -20.1422   -8.3448 N   0  0  0  0  0  0  0  0  0  0  0  0
   26.6356  -20.8293  -10.5727 N   0  0  0  0  0  0  0  0  0  0  0  0
   26.0345  -21.0541  -11.8655 C   0  0  0  0  0  0  0  0  0  0  0  0
   27.1203  -21.1117  -12.9505 C   0  0  0  0  0  0  0  0  0  0  0  0
   26.4453  -21.4294  -14.2282 C   0  0  0  0  0  0  0  0  0  0  0  0
   25.5932  -20.3351  -14.8250 C   0  0  2  0  0  0  0  0  0  0  0  0
   24.2302  -20.9086  -14.8013 N   0  0  0  0  0  0  0  0  0  0  0  0
   25.9572  -19.9259  -16.1819 C   0  0  0  0  0  0  0  0  0  0  0  0
   25.5914  -20.6813  -17.1388 O   0  0  0  0  0  0  0  0  0  0  0  0
   27.2350  -19.7903   -8.3062 N   0  0  0  0  0  0  0  0  0  0  0  0
   26.6783  -18.7596  -16.5273 C   0  0  2  0  0  0  0  0  0  0  0  0
   27.0230  -18.4876  -17.9383 C   0  0  0  0  0  0  0  0  0  0  0  0
   26.8235  -17.0043  -18.1228 C   0  0  0  0  0  0  0  0  0  0  0  0
   25.4061  -16.6236  -18.2417 O   0  0  0  0  0  0  0  0  0  0  0  0
   24.4213  -17.3790  -18.1782 C   0  0  0  0  0  0  0  0  0  0  0  0
   28.4643  -18.7868  -18.0834 O   0  0  0  0  0  0  0  0  0  0  0  0
   29.1180  -18.9044  -19.3046 O   0  0  0  0  0  0  0  0  0  0  0  0
   25.1723  -15.2451  -18.4496 O   0  0  0  0  0  0  0  0  0  0  0  0
  2  1  1  1
  3  2  1  0
  4  2  1  0
  4  5  1  1
  6  4  1  0
  6  7  2  0
  9  8  1  0
 10  9  2  0
 11  9  1  0
 12 13  1  0
 12 11  1  0
 13 14  1  0
 15 14  1  6
 15 16  1  0
 16  6  1  0
 17 15  1  0
 18 17  2  0
 19 17  1  0
 20 24  1  0
 20 19  1  0
 20 21  1  6
 22 21  1  0
 23 22  2  0
 24 25  1  0
 26 22  1  0
 27 24  2  0
M  END
$$$$
