VRD.pdb
     RDKit          3D

 27 26  0  0  1  0  0  0  0  0999 V2000
   26.0717  -13.6396  -16.9741 C   0  0  0  0  0  0  0  0  0  0  0  0
   24.8643  -12.7433  -17.2793 C   0  0  1  0  0  0  0  0  0  0  0  0
   23.5804  -13.4993  -17.1370 C   0  0  0  0  0  0  0  0  0  0  0  0
   24.9649  -11.5619  -16.3515 C   0  0  2  0  0  0  0  0  0  0  0  0
   24.9226  -12.0161  -14.9771 N   0  0  0  0  0  0  0  0  0  0  0  0
   23.9186  -10.5607  -16.5574 C   0  0  0  0  0  0  0  0  0  0  0  0
   23.8816   -9.9210  -17.6454 O   0  0  0  0  0  0  0  0  0  0  0  0
   16.5731  -13.2765  -14.7736 N   0  0  0  0  0  0  0  0  0  0  0  0
   17.0771  -13.4874  -16.0843 C   0  0  0  0  0  0  0  0  0  0  0  0
   16.5167  -14.3509  -16.8321 N   0  0  0  0  0  0  0  0  0  0  0  0
   18.2012  -12.7230  -16.5280 N   0  0  0  0  0  0  0  0  0  0  0  0
   18.8264  -11.7601  -15.6533 C   0  0  0  0  0  0  0  0  0  0  0  0
   20.0273  -11.1092  -16.3560 C   0  0  0  0  0  0  0  0  0  0  0  0
   20.5815  -10.0986  -15.4284 C   0  0  0  0  0  0  0  0  0  0  0  0
   21.7838   -9.3281  -15.9187 C   0  0  2  0  0  0  0  0  0  0  0  0
   22.9160  -10.2332  -15.6246 N   0  0  0  0  0  0  0  0  0  0  0  0
   21.9909   -8.0224  -15.2916 C   0  0  0  0  0  0  0  0  0  0  0  0
   22.3247   -8.0094  -14.0635 O   0  0  0  0  0  0  0  0  0  0  0  0
   16.8962  -14.5395  -17.7827 N   0  0  0  0  0  0  0  0  0  0  0  0
   21.8569   -6.7684  -15.9315 C   0  0  2  0  0  0  0  0  0  0  0  0
   22.1642   -5.5221  -15.1994 C   0  0  0  0  0  0  0  0  0  0  0  0
   22.3789   -4.4736  -16.2617 C   0  0  0  0  0  0  0  0  0  0  0  0
   22.5648   -3.1219  -15.7083 O   0  0  0  0  0  0  0  0  0  0  0  0
   21.9414   -2.0935  -16.0217 C   0  0  0  0  0  0  0  0  0  0  0  0
   20.9460   -5.1721  -14.4368 O   0  0  0  0  0  0  0  0  0  0  0  0
   19.7471   -5.8713  -14.5171 O   0  0  0  0  0  0  0  0  0  0  0  0
   23.5665   -3.0140  -14.7166 O   0  0  0  0  0  0  0  0  0  0  0  0
  2  1  1  1
  3  2  1  0
  4  2  1  0
  4  5  1  1
  6  4  1  0
  6  7  2  0
  9  8  1  0
 10  9  2  0
 11  9  1  0
 12 13  1  0
 12 11  1  0
 13 14  1  0
 15 14  1  1
 15 16  1  0
 16  6  1  0
 17 15  1  0
 18 17  2  0
 19 17  1  0
 20 24  1  0
 20 19  1  0
 20 21  1  6
 22 21  1  0
 23 22  2  0
 24 25  1  0
 26 22  1  0
 27 24  2  0
M  END
$$$$
