DVL.pdb
     RDKit          3D

 24 23  0  0  1  0  0  0  0  0999 V2000
   14.9926  -13.3235  -17.2063 N   0  0  0  0  0  0  0  0  0  0  0  0
   15.1535  -12.5206  -16.0425 C   0  0  1  0  0  0  0  0  0  0  0  0
   15.7132  -13.2703  -14.8642 C   0  0  0  0  0  0  0  0  0  0  0  0
   14.7845  -14.3511  -14.4447 C   0  0  0  0  0  0  0  0  0  0  0  0
   13.5975  -14.3511  -14.8708 O   0  0  0  0  0  0  0  0  0  0  0  0
   15.9344  -11.2876  -16.3640 C   0  0  0  0  0  0  0  0  0  0  0  0
   16.8488  -11.3916  -17.2463 O   0  0  0  0  0  0  0  0  0  0  0  0
   15.1624  -15.3713  -13.5986 O   0  0  0  0  0  0  0  0  0  0  0  0
   16.4899   -6.3688  -16.1517 C   0  0  0  0  0  0  0  0  0  0  0  0
   15.6125   -7.6143  -16.0740 C   0  0  1  0  0  0  0  0  0  0  0  0
   14.7619   -7.6379  -17.3222 C   0  0  0  0  0  0  0  0  0  0  0  0
   16.4368   -8.8347  -15.8922 C   0  0  2  0  0  0  0  0  0  0  0  0
   15.6927  -10.0410  -15.7311 N   0  0  0  0  0  0  0  0  0  0  0  0
   17.6023   -8.6864  -14.9751 C   0  0  0  0  0  0  0  0  0  0  0  0
   17.4275   -8.6308  -13.7391 O   0  0  0  0  0  0  0  0  0  0  0  0
   22.6985  -11.3682  -14.5050 C   0  0  0  0  0  0  0  0  0  0  0  0
   22.1178  -10.0447  -13.8988 C   0  0  1  0  0  0  0  0  0  0  0  0
   23.2702   -9.0981  -13.9413 C   0  0  0  0  0  0  0  0  0  0  0  0
   20.9450   -9.7491  -14.7298 C   0  0  0  0  0  0  0  0  0  0  0  0
   20.0970   -8.5727  -14.5073 C   0  0  2  0  0  0  0  0  0  0  0  0
   18.9360   -8.6030  -15.4414 N   0  0  0  0  0  0  0  0  0  0  0  0
   20.7281   -7.2588  -14.5562 C   0  0  0  0  0  0  0  0  0  0  0  0
   21.3410   -6.7590  -13.3903 O   0  0  0  0  0  0  0  0  0  0  0  0
   20.7848   -6.5135  -15.5404 O   0  0  0  0  0  0  0  0  0  0  0  0
  2  1  1  6
  2  6  1  0
  2  3  1  0
  3  4  1  0
  4  8  1  0
  4  5  2  0
  6 13  1  0
  6  7  2  0
 10  9  1  6
 10 11  1  0
 12 10  1  0
 12 13  1  1
 14 15  2  0
 14 12  1  0
 17 16  1  6
 17 19  1  0
 18 17  1  0
 20 19  1  6
 20 21  1  0
 21 14  1  0
 22 20  1  0
 23 22  1  0
 24 22  2  0
M  END
$$$$
