DVL.pdb
     RDKit          3D

 24 23  0  0  1  0  0  0  0  0999 V2000
   16.8093  -12.1466  -18.7573 N   0  0  0  0  0  0  0  0  0  0  0  0
   16.7373  -11.3157  -17.6044 C   0  0  1  0  0  0  0  0  0  0  0  0
   16.8933  -12.0652  -16.3092 C   0  0  0  0  0  0  0  0  0  0  0  0
   15.7984  -13.0554  -16.1444 C   0  0  0  0  0  0  0  0  0  0  0  0
   14.7228  -12.9056  -16.7858 O   0  0  0  0  0  0  0  0  0  0  0  0
   17.6913  -10.1718  -17.7261 C   0  0  0  0  0  0  0  0  0  0  0  0
   18.8202  -10.4108  -18.2680 O   0  0  0  0  0  0  0  0  0  0  0  0
   15.9014  -14.1483  -15.3110 O   0  0  0  0  0  0  0  0  0  0  0  0
   17.3672   -6.7328  -19.3324 C   0  0  0  0  0  0  0  0  0  0  0  0
   17.6913   -6.5056  -17.8591 C   0  0  1  0  0  0  0  0  0  0  0  0
   16.4253   -6.0174  -17.1952 C   0  0  0  0  0  0  0  0  0  0  0  0
   18.2514   -7.7336  -17.2427 C   0  0  2  0  0  0  0  0  0  0  0  0
   17.3830   -8.8651  -17.2671 N   0  0  0  0  0  0  0  0  0  0  0  0
   18.9812   -7.5275  -15.9595 C   0  0  0  0  0  0  0  0  0  0  0  0
   18.3768   -7.6207  -14.8698 O   0  0  0  0  0  0  0  0  0  0  0  0
   21.8571   -9.1009  -12.2069 C   0  0  0  0  0  0  0  0  0  0  0  0
   22.8270   -8.5065  -13.2851 C   0  0  1  0  0  0  0  0  0  0  0  0
   23.9250   -9.5129  -13.3697 C   0  0  0  0  0  0  0  0  0  0  0  0
   21.9778   -8.3041  -14.4647 C   0  0  0  0  0  0  0  0  0  0  0  0
   21.1011   -7.1373  -14.6145 C   0  0  2  0  0  0  0  0  0  0  0  0
   20.3623   -7.2231  -15.9062 N   0  0  0  0  0  0  0  0  0  0  0  0
   21.6994   -5.8140  -14.4820 C   0  0  0  0  0  0  0  0  0  0  0  0
   21.9112   -5.2936  -13.1899 O   0  0  0  0  0  0  0  0  0  0  0  0
   22.0516   -5.0769  -15.4094 O   0  0  0  0  0  0  0  0  0  0  0  0
  2  1  1  6
  2  6  1  0
  2  3  1  0
  3  4  1  0
  4  8  1  0
  4  5  2  0
  6 13  1  0
  6  7  2  0
 10  9  1  6
 10 11  1  0
 12 10  1  0
 12 13  1  1
 14 15  2  0
 14 12  1  0
 17 16  1  1
 17 19  1  0
 18 17  1  0
 20 19  1  6
 20 21  1  0
 21 14  1  0
 22 20  1  0
 23 22  1  0
 24 22  2  0
M  END
$$$$
