DVL.pdb
     RDKit          3D

 24 23  0  0  1  0  0  0  0  0999 V2000
   18.5787  -11.9841  -16.4686 N   0  0  0  0  0  0  0  0  0  0  0  0
   19.6910  -11.1178  -16.2763 C   0  0  1  0  0  0  0  0  0  0  0  0
   20.8538  -11.4175  -17.1828 C   0  0  0  0  0  0  0  0  0  0  0  0
   21.3597  -12.7937  -16.9446 C   0  0  0  0  0  0  0  0  0  0  0  0
   20.8138  -13.5132  -16.0643 O   0  0  0  0  0  0  0  0  0  0  0  0
   19.2577   -9.6894  -16.3490 C   0  0  0  0  0  0  0  0  0  0  0  0
   18.1090   -9.4546  -16.8498 O   0  0  0  0  0  0  0  0  0  0  0  0
   22.4141  -13.3324  -17.6501 O   0  0  0  0  0  0  0  0  0  0  0  0
   18.1082   -5.4922  -15.0654 C   0  0  0  0  0  0  0  0  0  0  0  0
   18.3637   -6.9884  -15.2177 C   0  0  1  0  0  0  0  0  0  0  0  0
   17.2298   -7.5517  -16.0417 C   0  0  0  0  0  0  0  0  0  0  0  0
   19.7052   -7.2421  -15.7989 C   0  0  2  0  0  0  0  0  0  0  0  0
   20.0676   -8.6188  -15.8895 N   0  0  0  0  0  0  0  0  0  0  0  0
   20.7885   -6.3359  -15.3226 C   0  0  0  0  0  0  0  0  0  0  0  0
   21.1686   -6.3803  -14.1331 O   0  0  0  0  0  0  0  0  0  0  0  0
   25.8497   -4.9597  -17.8866 C   0  0  0  0  0  0  0  0  0  0  0  0
   25.0776   -4.3768  -16.6535 C   0  0  1  0  0  0  0  0  0  0  0  0
   25.2355   -2.9006  -16.8000 C   0  0  0  0  0  0  0  0  0  0  0  0
   23.7298   -4.9460  -16.7674 C   0  0  0  0  0  0  0  0  0  0  0  0
   22.6843   -4.7038  -15.7671 C   0  0  2  0  0  0  0  0  0  0  0  0
   21.4293   -5.4001  -16.1692 N   0  0  0  0  0  0  0  0  0  0  0  0
   22.3836   -3.3204  -15.4169 C   0  0  0  0  0  0  0  0  0  0  0  0
   21.3265   -2.6686  -16.0822 O   0  0  0  0  0  0  0  0  0  0  0  0
   22.9743   -2.6370  -14.5735 O   0  0  0  0  0  0  0  0  0  0  0  0
  2  1  1  6
  2  6  1  0
  2  3  1  0
  3  4  1  0
  4  8  1  0
  4  5  2  0
  6 13  1  0
  6  7  2  0
 10  9  1  6
 10 11  1  0
 12 10  1  0
 12 13  1  1
 14 15  2  0
 14 12  1  0
 17 16  1  6
 17 19  1  0
 18 17  1  0
 20 19  1  6
 20 21  1  0
 21 14  1  0
 22 20  1  0
 23 22  1  0
 24 22  2  0
M  END
$$$$
