DVL.pdb
     RDKit          3D

 24 23  0  0  1  0  0  0  0  0999 V2000
   25.8278  -18.7245  -16.7655 N   0  0  0  0  0  0  0  0  0  0  0  0
   26.4593  -18.3734  -15.5396 C   0  0  1  0  0  0  0  0  0  0  0  0
   26.8420  -16.9210  -15.4517 C   0  0  0  0  0  0  0  0  0  0  0  0
   27.7059  -16.5389  -16.5982 C   0  0  0  0  0  0  0  0  0  0  0  0
   27.1805  -16.2953  -17.7185 O   0  0  0  0  0  0  0  0  0  0  0  0
   25.6305  -18.8215  -14.3795 C   0  0  0  0  0  0  0  0  0  0  0  0
   24.5567  -18.1746  -14.1472 O   0  0  0  0  0  0  0  0  0  0  0  0
   29.0765  -16.4359  -16.4963 O   0  0  0  0  0  0  0  0  0  0  0  0
   23.6276  -21.5399  -14.1235 C   0  0  0  0  0  0  0  0  0  0  0  0
   24.5226  -21.7657  -12.9089 C   0  0  1  0  0  0  0  0  0  0  0  0
   25.4622  -22.8974  -13.2529 C   0  0  0  0  0  0  0  0  0  0  0  0
   25.2165  -20.5132  -12.5198 C   0  0  2  0  0  0  0  0  0  0  0  0
   25.9968  -19.9153  -13.5535 N   0  0  0  0  0  0  0  0  0  0  0  0
   25.8602  -20.5317  -11.1756 C   0  0  0  0  0  0  0  0  0  0  0  0
   27.1011  -20.4284  -11.0705 O   0  0  0  0  0  0  0  0  0  0  0  0
   29.0025  -20.4855   -7.4941 C   0  0  0  0  0  0  0  0  0  0  0  0
   27.6121  -19.8193   -7.2125 C   0  0  1  0  0  0  0  0  0  0  0  0
   27.9634  -18.4493   -6.7376 C   0  0  0  0  0  0  0  0  0  0  0  0
   26.8840  -19.9498   -8.4799 C   0  0  0  0  0  0  0  0  0  0  0  0
   25.7849  -20.9041   -8.6634 C   0  0  2  0  0  0  0  0  0  0  0  0
   25.1209  -20.6635   -9.9759 N   0  0  0  0  0  0  0  0  0  0  0  0
   24.7752  -20.9904   -7.6147 C   0  0  0  0  0  0  0  0  0  0  0  0
   25.1757  -21.3759   -6.3201 O   0  0  0  0  0  0  0  0  0  0  0  0
   23.5689  -20.7545   -7.7430 O   0  0  0  0  0  0  0  0  0  0  0  0
  2  1  1  6
  2  6  1  0
  2  3  1  0
  3  4  1  0
  4  8  1  0
  4  5  2  0
  6 13  1  0
  6  7  2  0
 10  9  1  6
 10 11  1  0
 12 10  1  0
 12 13  1  6
 14 15  2  0
 14 12  1  0
 17 16  1  6
 17 19  1  0
 18 17  1  0
 20 19  1  1
 20 21  1  0
 21 14  1  0
 22 20  1  0
 23 22  1  0
 24 22  2  0
M  END
$$$$
