DVL.pdb
     RDKit          3D

 24 23  0  0  1  0  0  0  0  0999 V2000
   22.8768  -20.8719  -16.0394 N   0  0  0  0  0  0  0  0  0  0  0  0
   23.1178  -20.2608  -14.7771 C   0  0  1  0  0  0  0  0  0  0  0  0
   21.9772  -20.4085  -13.8071 C   0  0  0  0  0  0  0  0  0  0  0  0
   20.8802  -19.4655  -14.1445 C   0  0  0  0  0  0  0  0  0  0  0  0
   20.8874  -18.8766  -15.2597 O   0  0  0  0  0  0  0  0  0  0  0  0
   24.4191  -20.7296  -14.2112 C   0  0  0  0  0  0  0  0  0  0  0  0
   24.7375  -21.9471  -14.4153 O   0  0  0  0  0  0  0  0  0  0  0  0
   19.8370  -19.1977  -13.2844 O   0  0  0  0  0  0  0  0  0  0  0  0
   28.8382  -20.3319  -12.2733 C   0  0  0  0  0  0  0  0  0  0  0  0
   27.7007  -19.7252  -13.0891 C   0  0  1  0  0  0  0  0  0  0  0  0
   28.0158  -19.9739  -14.5453 C   0  0  0  0  0  0  0  0  0  0  0  0
   26.3894  -20.2726  -12.6617 C   0  0  2  0  0  0  0  0  0  0  0  0
   25.2839  -19.8805  -13.4735 N   0  0  0  0  0  0  0  0  0  0  0  0
   26.1340  -20.2439  -11.1935 C   0  0  0  0  0  0  0  0  0  0  0  0
   25.6108  -19.2396  -10.6653 O   0  0  0  0  0  0  0  0  0  0  0  0
   28.1483  -21.1524   -6.1176 C   0  0  0  0  0  0  0  0  0  0  0  0
   27.3583  -20.0255   -6.8676 C   0  0  1  0  0  0  0  0  0  0  0  0
   28.0884  -18.7764   -6.5037 C   0  0  0  0  0  0  0  0  0  0  0  0
   27.3660  -20.4505   -8.2722 C   0  0  0  0  0  0  0  0  0  0  0  0
   26.2816  -21.2432   -8.8623 C   0  0  2  0  0  0  0  0  0  0  0  0
   26.4612  -21.3241  -10.3396 N   0  0  0  0  0  0  0  0  0  0  0  0
   24.9095  -20.8533   -8.5586 C   0  0  0  0  0  0  0  0  0  0  0  0
   24.3119  -21.3435   -7.3806 O   0  0  0  0  0  0  0  0  0  0  0  0
   24.1922  -20.1166   -9.2442 O   0  0  0  0  0  0  0  0  0  0  0  0
  2  1  1  6
  2  6  1  0
  2  3  1  0
  3  4  1  0
  4  8  1  0
  4  5  2  0
  6 13  1  0
  6  7  2  0
 10  9  1  1
 10 11  1  0
 12 10  1  0
 12 13  1  6
 14 15  2  0
 14 12  1  0
 17 16  1  1
 17 19  1  0
 18 17  1  0
 20 19  1  6
 20 21  1  0
 21 14  1  0
 22 20  1  0
 23 22  1  0
 24 22  2  0
M  END
$$$$
