DVL.pdb
     RDKit          3D

 24 23  0  0  1  0  0  0  0  0999 V2000
   16.1019  -13.4925  -17.1399 N   0  0  0  0  0  0  0  0  0  0  0  0
   16.0155  -12.2848  -16.3923 C   0  0  1  0  0  0  0  0  0  0  0  0
   16.0218  -12.4950  -14.9025 C   0  0  0  0  0  0  0  0  0  0  0  0
   14.9029  -13.3837  -14.4964 C   0  0  0  0  0  0  0  0  0  0  0  0
   13.7553  -13.2022  -14.9869 O   0  0  0  0  0  0  0  0  0  0  0  0
   17.0626  -11.3178  -16.8416 C   0  0  0  0  0  0  0  0  0  0  0  0
   18.1286  -11.8057  -17.3427 O   0  0  0  0  0  0  0  0  0  0  0  0
   15.0596  -14.4142  -13.5947 O   0  0  0  0  0  0  0  0  0  0  0  0
   18.2435   -6.9630  -18.6802 C   0  0  0  0  0  0  0  0  0  0  0  0
   17.2591   -8.0652  -18.3019 C   0  0  1  0  0  0  0  0  0  0  0  0
   16.9517   -8.8391  -19.5623 C   0  0  0  0  0  0  0  0  0  0  0  0
   17.7980   -8.9054  -17.2040 C   0  0  2  0  0  0  0  0  0  0  0  0
   16.9066   -9.9122  -16.7279 N   0  0  0  0  0  0  0  0  0  0  0  0
   18.5403   -8.1683  -16.1421 C   0  0  0  0  0  0  0  0  0  0  0  0
   17.9267   -7.4301  -15.3422 O   0  0  0  0  0  0  0  0  0  0  0  0
   23.2069  -10.1067  -13.6117 C   0  0  0  0  0  0  0  0  0  0  0  0
   21.7224   -9.6556  -13.8341 C   0  0  1  0  0  0  0  0  0  0  0  0
   21.1214   -9.7244  -12.4704 C   0  0  0  0  0  0  0  0  0  0  0  0
   21.8351   -8.3419  -14.4781 C   0  0  0  0  0  0  0  0  0  0  0  0
   20.6624   -7.5596  -14.8847 C   0  0  2  0  0  0  0  0  0  0  0  0
   19.9438   -8.2618  -15.9856 N   0  0  0  0  0  0  0  0  0  0  0  0
   20.8683   -6.1628  -15.2498 C   0  0  0  0  0  0  0  0  0  0  0  0
   20.9786   -5.2044  -14.2230 O   0  0  0  0  0  0  0  0  0  0  0  0
   20.9592   -5.7152  -16.3982 O   0  0  0  0  0  0  0  0  0  0  0  0
  2  1  1  6
  2  6  1  0
  2  3  1  0
  3  4  1  0
  4  8  1  0
  4  5  2  0
  6 13  1  0
  6  7  2  0
 10  9  1  6
 10 11  1  0
 12 10  1  0
 12 13  1  1
 14 15  2  0
 14 12  1  0
 17 16  1  1
 17 19  1  0
 18 17  1  0
 20 19  1  6
 20 21  1  0
 21 14  1  0
 22 20  1  0
 23 22  1  0
 24 22  2  0
M  END
$$$$
