DVL.pdb
     RDKit          3D

 24 23  0  0  1  0  0  0  0  0999 V2000
   16.2308   -9.8515  -15.8854 N   0  0  0  0  0  0  0  0  0  0  0  0
   17.5117   -9.6011  -16.4525 C   0  0  1  0  0  0  0  0  0  0  0  0
   17.4913   -8.5920  -17.5683 C   0  0  0  0  0  0  0  0  0  0  0  0
   16.7384   -9.1197  -18.7350 C   0  0  0  0  0  0  0  0  0  0  0  0
   15.6959   -9.8035  -18.5447 O   0  0  0  0  0  0  0  0  0  0  0  0
   18.4968   -9.2565  -15.3827 C   0  0  0  0  0  0  0  0  0  0  0  0
   18.0460   -8.6730  -14.3427 O   0  0  0  0  0  0  0  0  0  0  0  0
   17.1294   -8.8951  -20.0375 O   0  0  0  0  0  0  0  0  0  0  0  0
   22.6811  -10.5380  -15.6194 C   0  0  0  0  0  0  0  0  0  0  0  0
   21.9924  -10.0490  -14.3490 C   0  0  1  0  0  0  0  0  0  0  0  0
   23.0704   -9.5128  -13.4367 C   0  0  0  0  0  0  0  0  0  0  0  0
   20.9338   -9.0587  -14.6659 C   0  0  2  0  0  0  0  0  0  0  0  0
   19.8802   -9.5523  -15.4912 N   0  0  0  0  0  0  0  0  0  0  0  0
   21.4207   -7.6940  -15.0153 C   0  0  0  0  0  0  0  0  0  0  0  0
   21.3709   -7.2915  -16.1972 O   0  0  0  0  0  0  0  0  0  0  0  0
   23.8959   -3.6788  -16.5572 C   0  0  0  0  0  0  0  0  0  0  0  0
   22.3435   -3.8726  -16.4640 C   0  0  1  0  0  0  0  0  0  0  0  0
   21.8766   -3.6869  -17.8687 C   0  0  0  0  0  0  0  0  0  0  0  0
   22.1793   -5.1936  -15.8463 C   0  0  0  0  0  0  0  0  0  0  0  0
   22.4003   -5.4279  -14.4150 C   0  0  2  0  0  0  0  0  0  0  0  0
   21.9520   -6.8025  -14.0530 N   0  0  0  0  0  0  0  0  0  0  0  0
   21.8377   -4.4676  -13.4725 C   0  0  0  0  0  0  0  0  0  0  0  0
   20.6990   -4.8366  -12.7294 O   0  0  0  0  0  0  0  0  0  0  0  0
   22.2652   -3.3299  -13.2485 O   0  0  0  0  0  0  0  0  0  0  0  0
  2  1  1  1
  2  6  1  0
  2  3  1  0
  3  4  1  0
  4  8  1  0
  4  5  2  0
  6 13  1  0
  6  7  2  0
 10  9  1  6
 10 11  1  0
 12 10  1  0
 12 13  1  6
 14 15  2  0
 14 12  1  0
 17 16  1  6
 17 19  1  0
 18 17  1  0
 20 19  1  6
 20 21  1  0
 21 14  1  0
 22 20  1  0
 23 22  1  0
 24 22  2  0
M  END
$$$$
