INF.pdb
     RDKit          3D

 28 28  0  0  1  0  0  0  0  0999 V2000
    7.1611  -12.0378   19.3874 C   0  0  0  0  0  0  0  0  0  0  0  0
    7.7848  -13.2763   18.8018 C   0  0  0  0  0  0  0  0  0  0  0  0
    8.1687  -14.2020   19.9095 C   0  0  2  0  0  0  0  0  0  0  0  0
    9.0772  -13.4747   20.8492 C   0  0  0  0  0  0  0  0  0  0  0  0
    8.7478  -15.5037   19.4037 C   0  0  2  0  0  0  0  0  0  0  0  0
    7.7557  -16.1323   18.5790 N   0  0  0  0  0  0  0  0  0  0  0  0
    9.0797  -16.3520   20.6015 C   0  0  0  0  0  0  0  0  0  0  0  0
    8.1466  -16.9879   21.1588 O   0  0  0  0  0  0  0  0  0  0  0  0
   13.6637  -19.1238   23.4815 N   0  0  0  0  0  0  0  0  0  0  0  0
   12.2753  -18.9015   23.1806 C   0  0  0  0  0  0  0  0  0  0  0  0
   11.4559  -19.4254   23.9574 O   0  0  0  0  0  0  0  0  0  0  0  0
   11.9034  -18.0881   22.0021 C   0  0  0  0  0  0  0  0  0  0  0  0
   10.7083  -17.2141   22.2570 C   0  0  2  0  0  0  0  0  0  0  0  0
   10.4052  -16.4287   21.0829 N   0  0  0  0  0  0  0  0  0  0  0  0
   10.7885  -16.3853   23.4768 C   0  0  0  0  0  0  0  0  0  0  0  0
   11.4182  -15.3006   23.4545 O   0  0  0  0  0  0  0  0  0  0  0  0
   10.1809  -16.7476   24.7097 N   0  0  0  0  0  0  0  0  0  0  0  0
    9.5326  -15.8086   25.5944 C   0  0  1  0  0  0  0  0  0  0  0  0
    8.5461  -14.9262   24.8570 C   0  0  0  0  0  0  0  0  0  0  0  0
    7.8817  -13.9570   25.7197 C   0  0  0  0  0  0  0  0  0  0  0  0
    8.6031  -13.0735   26.4853 C   0  0  0  0  0  0  0  0  0  0  0  0
    7.9896  -12.1511   27.3060 C   0  0  0  0  0  0  0  0  0  0  0  0
    6.6264  -12.0840   27.3863 C   0  0  0  0  0  0  0  0  0  0  0  0
    5.8780  -12.9596   26.6282 C   0  0  0  0  0  0  0  0  0  0  0  0
    6.5114  -13.8926   25.7978 C   0  0  0  0  0  0  0  0  0  0  0  0
    8.9127  -16.4770   26.7604 C   0  0  0  0  0  0  0  0  0  0  0  0
    8.2829  -17.7064   26.6390 O   0  0  0  0  0  0  0  0  0  0  0  0
    8.9346  -15.9546   27.9035 O   0  0  0  0  0  0  0  0  0  0  0  0
  2  1  1  0
  3  4  1  1
  3  5  1  0
  3  2  1  0
  5  6  1  6
  7  5  1  0
  7  8  2  0
  9 10  1  0
 10 12  1  0
 11 10  2  0
 13 12  1  6
 13 14  1  0
 14  7  1  0
 15 13  1  0
 16 15  2  0
 17 15  1  0
 18 17  1  0
 18 26  1  0
 18 19  1  6
 20 25  2  0
 20 19  1  0
 21 20  1  0
 22 23  1  0
 22 21  2  0
 23 24  2  0
 24 25  1  0
 26 27  1  0
 28 26  2  0
M  END
$$$$
