INF.pdb
     RDKit          3D

 28 28  0  0  1  0  0  0  0  0999 V2000
    8.4208  -11.8863   19.1740 C   0  0  0  0  0  0  0  0  0  0  0  0
    8.5177  -13.3764   18.9849 C   0  0  0  0  0  0  0  0  0  0  0  0
    7.9212  -14.0607   20.1712 C   0  0  2  0  0  0  0  0  0  0  0  0
    8.6445  -13.6082   21.3997 C   0  0  0  0  0  0  0  0  0  0  0  0
    7.8851  -15.5640   20.0169 C   0  0  2  0  0  0  0  0  0  0  0  0
    7.0930  -15.8658   18.8588 N   0  0  0  0  0  0  0  0  0  0  0  0
    7.2688  -16.1368   21.2645 C   0  0  0  0  0  0  0  0  0  0  0  0
    6.0640  -16.5006   21.2215 O   0  0  0  0  0  0  0  0  0  0  0  0
    6.7034  -18.9991   25.3683 N   0  0  0  0  0  0  0  0  0  0  0  0
    7.0333  -19.4906   24.0578 C   0  0  0  0  0  0  0  0  0  0  0  0
    6.9575  -20.7229   23.8999 O   0  0  0  0  0  0  0  0  0  0  0  0
    7.4327  -18.5381   22.9986 C   0  0  0  0  0  0  0  0  0  0  0  0
    7.5814  -17.1335   23.5107 C   0  0  2  0  0  0  0  0  0  0  0  0
    8.0272  -16.2603   22.4495 N   0  0  0  0  0  0  0  0  0  0  0  0
    8.4049  -16.9960   24.7289 C   0  0  0  0  0  0  0  0  0  0  0  0
    9.6321  -17.2522   24.6854 O   0  0  0  0  0  0  0  0  0  0  0  0
    7.8819  -16.5801   25.9835 N   0  0  0  0  0  0  0  0  0  0  0  0
    8.6973  -16.1251   27.0848 C   0  0  1  0  0  0  0  0  0  0  0  0
    7.9877  -15.0775   27.9182 C   0  0  0  0  0  0  0  0  0  0  0  0
    7.5739  -13.9107   27.1487 C   0  0  0  0  0  0  0  0  0  0  0  0
    6.2682  -13.7438   26.7557 C   0  0  0  0  0  0  0  0  0  0  0  0
    5.8612  -12.6460   26.0276 C   0  0  0  0  0  0  0  0  0  0  0  0
    6.7543  -11.6751   25.6681 C   0  0  0  0  0  0  0  0  0  0  0  0
    8.0716  -11.8179   26.0498 C   0  0  0  0  0  0  0  0  0  0  0  0
    8.4743  -12.9370   26.7892 C   0  0  0  0  0  0  0  0  0  0  0  0
    9.1938  -17.2472   27.9124 C   0  0  0  0  0  0  0  0  0  0  0  0
   10.1915  -17.0627   28.8577 O   0  0  0  0  0  0  0  0  0  0  0  0
    8.7290  -18.4086   27.7888 O   0  0  0  0  0  0  0  0  0  0  0  0
  2  1  1  0
  3  4  1  1
  3  5  1  0
  3  2  1  0
  5  6  1  6
  7  5  1  0
  7  8  2  0
  9 10  1  0
 10 12  1  0
 11 10  2  0
 13 12  1  6
 13 14  1  0
 14  7  1  0
 15 13  1  0
 16 15  2  0
 17 15  1  0
 18 17  1  0
 18 26  1  0
 18 19  1  1
 20 25  2  0
 20 19  1  0
 21 20  1  0
 22 23  1  0
 22 21  2  0
 23 24  2  0
 24 25  1  0
 26 27  1  0
 28 26  2  0
M  END
$$$$
