INF.pdb
     RDKit          3D

 28 28  0  0  1  0  0  0  0  0999 V2000
    8.1024  -12.0472   21.5512 C   0  0  0  0  0  0  0  0  0  0  0  0
    7.5968  -13.4527   21.3645 C   0  0  0  0  0  0  0  0  0  0  0  0
    8.3043  -14.0782   20.2072 C   0  0  2  0  0  0  0  0  0  0  0  0
    8.0322  -13.2645   18.9820 C   0  0  0  0  0  0  0  0  0  0  0  0
    7.9650  -15.5420   20.0417 C   0  0  2  0  0  0  0  0  0  0  0  0
    6.5476  -15.6421   19.8399 N   0  0  0  0  0  0  0  0  0  0  0  0
    8.3896  -16.2543   21.2974 C   0  0  0  0  0  0  0  0  0  0  0  0
    7.5194  -16.4769   22.1800 O   0  0  0  0  0  0  0  0  0  0  0  0
   11.2338  -19.7711   20.1761 N   0  0  0  0  0  0  0  0  0  0  0  0
   10.6207  -19.5062   21.4495 C   0  0  0  0  0  0  0  0  0  0  0  0
    9.6517  -20.2269   21.7513 O   0  0  0  0  0  0  0  0  0  0  0  0
   11.1551  -18.4264   22.3082 C   0  0  0  0  0  0  0  0  0  0  0  0
   10.1170  -17.3975   22.6559 C   0  0  2  0  0  0  0  0  0  0  0  0
    9.7306  -16.6600   21.4752 N   0  0  0  0  0  0  0  0  0  0  0  0
   10.4715  -16.5063   23.7789 C   0  0  0  0  0  0  0  0  0  0  0  0
   11.4232  -15.6979   23.6583 O   0  0  0  0  0  0  0  0  0  0  0  0
    9.7844  -16.5051   25.0233 N   0  0  0  0  0  0  0  0  0  0  0  0
   10.2234  -15.7680   26.1846 C   0  0  1  0  0  0  0  0  0  0  0  0
   10.0270  -14.2753   26.0140 C   0  0  0  0  0  0  0  0  0  0  0  0
    8.6317  -13.8629   26.1026 C   0  0  0  0  0  0  0  0  0  0  0  0
    8.2210  -12.9362   27.0297 C   0  0  0  0  0  0  0  0  0  0  0  0
    6.9052  -12.5358   27.1260 C   0  0  0  0  0  0  0  0  0  0  0  0
    5.9537  -13.0540   26.2920 C   0  0  0  0  0  0  0  0  0  0  0  0
    6.3390  -13.9863   25.3519 C   0  0  0  0  0  0  0  0  0  0  0  0
    7.6783  -14.3860   25.2626 C   0  0  0  0  0  0  0  0  0  0  0  0
    9.6020  -16.2687   27.4311 C   0  0  0  0  0  0  0  0  0  0  0  0
    8.7145  -17.3341   27.4196 O   0  0  0  0  0  0  0  0  0  0  0  0
    9.8560  -15.7463   28.5459 O   0  0  0  0  0  0  0  0  0  0  0  0
  2  1  1  0
  3  4  1  6
  3  5  1  0
  3  2  1  0
  5  6  1  1
  7  5  1  0
  7  8  2  0
  9 10  1  0
 10 12  1  0
 11 10  2  0
 13 12  1  6
 13 14  1  0
 14  7  1  0
 15 13  1  0
 16 15  2  0
 17 15  1  0
 18 17  1  0
 18 26  1  0
 18 19  1  6
 20 25  2  0
 20 19  1  0
 21 20  1  0
 22 23  1  0
 22 21  2  0
 23 24  2  0
 24 25  1  0
 26 27  1  0
 28 26  2  0
M  END
$$$$
