INF.pdb
     RDKit          3D

 28 28  0  0  1  0  0  0  0  0999 V2000
    8.2935  -14.8299   17.1987 C   0  0  0  0  0  0  0  0  0  0  0  0
    8.6949  -14.2701   18.5370 C   0  0  0  0  0  0  0  0  0  0  0  0
    7.4671  -13.8797   19.2930 C   0  0  2  0  0  0  0  0  0  0  0  0
    6.7903  -12.7625   18.5644 C   0  0  0  0  0  0  0  0  0  0  0  0
    7.7545  -13.5621   20.7427 C   0  0  2  0  0  0  0  0  0  0  0  0
    8.6997  -12.4826   20.7747 N   0  0  0  0  0  0  0  0  0  0  0  0
    8.3207  -14.8028   21.3788 C   0  0  0  0  0  0  0  0  0  0  0  0
    7.6105  -15.8426   21.3934 O   0  0  0  0  0  0  0  0  0  0  0  0
   12.3390  -15.7079   19.9743 N   0  0  0  0  0  0  0  0  0  0  0  0
   11.5548  -16.5755   20.8110 C   0  0  0  0  0  0  0  0  0  0  0  0
   10.9827  -17.5200   20.2366 O   0  0  0  0  0  0  0  0  0  0  0  0
   11.4707  -16.3104   22.2640 C   0  0  0  0  0  0  0  0  0  0  0  0
   10.0850  -15.9302   22.7027 C   0  0  2  0  0  0  0  0  0  0  0  0
    9.6153  -14.7945   21.9430 N   0  0  0  0  0  0  0  0  0  0  0  0
    9.9212  -15.7342   24.1573 C   0  0  0  0  0  0  0  0  0  0  0  0
    9.8984  -14.5735   24.6324 O   0  0  0  0  0  0  0  0  0  0  0  0
    9.7838  -16.8065   25.0802 N   0  0  0  0  0  0  0  0  0  0  0  0
    9.1157  -16.6910   26.3550 C   0  0  1  0  0  0  0  0  0  0  0  0
    7.6699  -16.2657   26.1987 C   0  0  0  0  0  0  0  0  0  0  0  0
    7.4637  -14.8367   26.3997 C   0  0  0  0  0  0  0  0  0  0  0  0
    6.3717  -14.1938   25.8694 C   0  0  0  0  0  0  0  0  0  0  0  0
    6.1625  -12.8431   26.0506 C   0  0  0  0  0  0  0  0  0  0  0  0
    7.0456  -12.0894   26.7728 C   0  0  0  0  0  0  0  0  0  0  0  0
    8.1506  -12.7099   27.3163 C   0  0  0  0  0  0  0  0  0  0  0  0
    8.3534  -14.0825   27.1261 C   0  0  0  0  0  0  0  0  0  0  0  0
    9.2455  -17.9218   27.1667 C   0  0  0  0  0  0  0  0  0  0  0  0
    9.8084  -19.0766   26.6446 O   0  0  0  0  0  0  0  0  0  0  0  0
    8.8503  -17.9653   28.3592 O   0  0  0  0  0  0  0  0  0  0  0  0
  2  1  1  0
  3  4  1  6
  3  5  1  0
  3  2  1  0
  5  6  1  6
  7  5  1  0
  7  8  2  0
  9 10  1  0
 10 12  1  0
 11 10  2  0
 13 12  1  1
 13 14  1  0
 14  7  1  0
 15 13  1  0
 16 15  2  0
 17 15  1  0
 18 17  1  0
 18 26  1  0
 18 19  1  6
 20 25  2  0
 20 19  1  0
 21 20  1  0
 22 23  1  0
 22 21  2  0
 23 24  2  0
 24 25  1  0
 26 27  1  0
 28 26  2  0
M  END
$$$$
