INF.pdb
     RDKit          3D

 28 28  0  0  1  0  0  0  0  0999 V2000
    9.1453  -12.1170   19.2589 C   0  0  0  0  0  0  0  0  0  0  0  0
    8.5627  -13.0528   20.2838 C   0  0  0  0  0  0  0  0  0  0  0  0
    7.9492  -14.2227   19.5864 C   0  0  2  0  0  0  0  0  0  0  0  0
    6.7872  -13.7426   18.7761 C   0  0  0  0  0  0  0  0  0  0  0  0
    7.5946  -15.3441   20.5361 C   0  0  2  0  0  0  0  0  0  0  0  0
    6.6956  -14.8146   21.5216 N   0  0  0  0  0  0  0  0  0  0  0  0
    8.8717  -15.8299   21.1667 C   0  0  0  0  0  0  0  0  0  0  0  0
    9.4546  -16.8182   20.6478 O   0  0  0  0  0  0  0  0  0  0  0  0
   12.5621  -14.4498   20.1793 N   0  0  0  0  0  0  0  0  0  0  0  0
   12.2837  -15.4238   21.1998 C   0  0  0  0  0  0  0  0  0  0  0  0
   12.4787  -16.6133   20.8893 O   0  0  0  0  0  0  0  0  0  0  0  0
   11.7960  -14.9776   22.5233 C   0  0  0  0  0  0  0  0  0  0  0  0
   10.5688  -15.7216   22.9679 C   0  0  2  0  0  0  0  0  0  0  0  0
    9.3975  -15.1896   22.3104 N   0  0  0  0  0  0  0  0  0  0  0  0
   10.3916  -15.8180   24.4309 C   0  0  0  0  0  0  0  0  0  0  0  0
   10.9790  -15.0065   25.1859 O   0  0  0  0  0  0  0  0  0  0  0  0
    9.5752  -16.7990   25.0568 N   0  0  0  0  0  0  0  0  0  0  0  0
    9.2764  -16.8156   26.4693 C   0  0  1  0  0  0  0  0  0  0  0  0
    7.8309  -16.4551   26.7453 C   0  0  0  0  0  0  0  0  0  0  0  0
    7.5219  -15.0573   26.4700 C   0  0  0  0  0  0  0  0  0  0  0  0
    8.3389  -14.0468   26.9155 C   0  0  0  0  0  0  0  0  0  0  0  0
    8.0605  -12.7202   26.6634 C   0  0  0  0  0  0  0  0  0  0  0  0
    6.9486  -12.3619   25.9529 C   0  0  0  0  0  0  0  0  0  0  0  0
    6.1113  -13.3567   25.4939 C   0  0  0  0  0  0  0  0  0  0  0  0
    6.4035  -14.7011   25.7557 C   0  0  0  0  0  0  0  0  0  0  0  0
    9.6581  -18.0964   27.1054 C   0  0  0  0  0  0  0  0  0  0  0  0
    9.8552  -18.1936   28.4745 O   0  0  0  0  0  0  0  0  0  0  0  0
    9.8175  -19.1429   26.4276 O   0  0  0  0  0  0  0  0  0  0  0  0
  2  1  1  0
  3  4  1  1
  3  5  1  0
  3  2  1  0
  5  6  1  1
  7  5  1  0
  7  8  2  0
  9 10  1  0
 10 12  1  0
 11 10  2  0
 13 12  1  1
 13 14  1  0
 14  7  1  0
 15 13  1  0
 16 15  2  0
 17 15  1  0
 18 17  1  0
 18 26  1  0
 18 19  1  6
 20 25  2  0
 20 19  1  0
 21 20  1  0
 22 23  1  0
 22 21  2  0
 23 24  2  0
 24 25  1  0
 26 27  1  0
 28 26  2  0
M  END
$$$$
