INF.pdb
     RDKit          3D

 28 28  0  0  1  0  0  0  0  0999 V2000
    7.5809  -11.9306   18.9189 C   0  0  0  0  0  0  0  0  0  0  0  0
    7.8232  -13.3463   18.4683 C   0  0  0  0  0  0  0  0  0  0  0  0
    8.1472  -14.1902   19.6574 C   0  0  2  0  0  0  0  0  0  0  0  0
    9.2695  -13.5483   20.4095 C   0  0  0  0  0  0  0  0  0  0  0  0
    8.4194  -15.6311   19.2898 C   0  0  2  0  0  0  0  0  0  0  0  0
    7.2569  -16.1380   18.6180 N   0  0  0  0  0  0  0  0  0  0  0  0
    8.6860  -16.3853   20.5644 C   0  0  0  0  0  0  0  0  0  0  0  0
    7.7196  -16.6025   21.3420 O   0  0  0  0  0  0  0  0  0  0  0  0
   11.3711  -20.3087   23.6258 N   0  0  0  0  0  0  0  0  0  0  0  0
   11.8277  -18.9773   23.3314 C   0  0  0  0  0  0  0  0  0  0  0  0
   12.5162  -18.4275   24.2106 O   0  0  0  0  0  0  0  0  0  0  0  0
   11.4680  -18.3493   22.0411 C   0  0  0  0  0  0  0  0  0  0  0  0
   10.2560  -17.4676   22.1455 C   0  0  2  0  0  0  0  0  0  0  0  0
    9.9883  -16.8351   20.8745 N   0  0  0  0  0  0  0  0  0  0  0  0
   10.2838  -16.4956   23.2572 C   0  0  0  0  0  0  0  0  0  0  0  0
   10.7740  -15.3551   23.0774 O   0  0  0  0  0  0  0  0  0  0  0  0
    9.7763  -16.7770   24.5548 N   0  0  0  0  0  0  0  0  0  0  0  0
    9.3135  -15.7653   25.4751 C   0  0  1  0  0  0  0  0  0  0  0  0
    8.2580  -14.8748   24.8519 C   0  0  0  0  0  0  0  0  0  0  0  0
    7.7658  -13.8431   25.7564 C   0  0  0  0  0  0  0  0  0  0  0  0
    8.6014  -12.8694   26.2474 C   0  0  0  0  0  0  0  0  0  0  0  0
    8.1512  -11.8870   27.1035 C   0  0  0  0  0  0  0  0  0  0  0  0
    6.8424  -11.8485   27.4972 C   0  0  0  0  0  0  0  0  0  0  0  0
    5.9820  -12.8142   27.0191 C   0  0  0  0  0  0  0  0  0  0  0  0
    6.4498  -13.8076   26.1499 C   0  0  0  0  0  0  0  0  0  0  0  0
    8.8603  -16.3446   26.7595 C   0  0  0  0  0  0  0  0  0  0  0  0
    8.0271  -17.4523   26.7995 O   0  0  0  0  0  0  0  0  0  0  0  0
    9.2143  -15.8536   27.8612 O   0  0  0  0  0  0  0  0  0  0  0  0
  2  1  1  0
  3  4  1  6
  3  5  1  0
  3  2  1  0
  5  6  1  1
  7  5  1  0
  7  8  2  0
  9 10  1  0
 10 12  1  0
 11 10  2  0
 13 12  1  6
 13 14  1  0
 14  7  1  0
 15 13  1  0
 16 15  2  0
 17 15  1  0
 18 17  1  0
 18 26  1  0
 18 19  1  6
 20 25  2  0
 20 19  1  0
 21 20  1  0
 22 23  1  0
 22 21  2  0
 23 24  2  0
 24 25  1  0
 26 27  1  0
 28 26  2  0
M  END
$$$$
