INF.pdb
     RDKit          3D

 28 28  0  0  1  0  0  0  0  0999 V2000
    7.2236  -11.6600   20.3218 C   0  0  0  0  0  0  0  0  0  0  0  0
    7.4346  -13.0833   19.8796 C   0  0  0  0  0  0  0  0  0  0  0  0
    7.7494  -13.9254   21.0725 C   0  0  2  0  0  0  0  0  0  0  0  0
    8.8970  -13.3076   21.8062 C   0  0  0  0  0  0  0  0  0  0  0  0
    7.9784  -15.3762   20.7147 C   0  0  2  0  0  0  0  0  0  0  0  0
    6.7756  -15.8722   20.1089 N   0  0  0  0  0  0  0  0  0  0  0  0
    8.2946  -16.1160   21.9865 C   0  0  0  0  0  0  0  0  0  0  0  0
    7.3382  -16.4586   22.7306 O   0  0  0  0  0  0  0  0  0  0  0  0
   10.6282  -20.2172   24.6421 N   0  0  0  0  0  0  0  0  0  0  0  0
   11.3805  -19.0227   24.3685 C   0  0  0  0  0  0  0  0  0  0  0  0
   12.3072  -18.7660   25.1588 O   0  0  0  0  0  0  0  0  0  0  0  0
   11.0267  -18.1870   23.2000 C   0  0  0  0  0  0  0  0  0  0  0  0
    9.9200  -17.2157   23.4981 C   0  0  2  0  0  0  0  0  0  0  0  0
    9.6313  -16.4150   22.3307 N   0  0  0  0  0  0  0  0  0  0  0  0
   10.1218  -16.3890   24.7052 C   0  0  0  0  0  0  0  0  0  0  0  0
   10.9852  -15.4790   24.7018 O   0  0  0  0  0  0  0  0  0  0  0  0
    9.3798  -16.5629   25.9051 N   0  0  0  0  0  0  0  0  0  0  0  0
    9.6918  -15.8981   27.1482 C   0  0  1  0  0  0  0  0  0  0  0  0
    8.4903  -15.1716   27.7176 C   0  0  0  0  0  0  0  0  0  0  0  0
    8.1111  -13.9925   26.9489 C   0  0  0  0  0  0  0  0  0  0  0  0
    6.9019  -13.9242   26.3006 C   0  0  0  0  0  0  0  0  0  0  0  0
    6.5287  -12.8162   25.5698 C   0  0  0  0  0  0  0  0  0  0  0  0
    7.3597  -11.7355   25.4647 C   0  0  0  0  0  0  0  0  0  0  0  0
    8.5797  -11.7778   26.1058 C   0  0  0  0  0  0  0  0  0  0  0  0
    8.9489  -12.9083   26.8456 C   0  0  0  0  0  0  0  0  0  0  0  0
   10.3010  -16.8175   28.1351 C   0  0  0  0  0  0  0  0  0  0  0  0
   10.8176  -16.3519   29.3349 O   0  0  0  0  0  0  0  0  0  0  0  0
   10.3724  -18.0543   27.9219 O   0  0  0  0  0  0  0  0  0  0  0  0
  2  1  1  0
  3  4  1  6
  3  5  1  0
  3  2  1  0
  5  6  1  1
  7  5  1  0
  7  8  2  0
  9 10  1  0
 10 12  1  0
 11 10  2  0
 13 12  1  6
 13 14  1  0
 14  7  1  0
 15 13  1  0
 16 15  2  0
 17 15  1  0
 18 17  1  0
 18 26  1  0
 18 19  1  1
 20 25  2  0
 20 19  1  0
 21 20  1  0
 22 23  1  0
 22 21  2  0
 23 24  2  0
 24 25  1  0
 26 27  1  0
 28 26  2  0
M  END
$$$$
