INF.pdb
     RDKit          3D

 28 28  0  0  1  0  0  0  0  0999 V2000
    7.7183  -12.6734   19.6581 C   0  0  0  0  0  0  0  0  0  0  0  0
    7.0884  -13.7299   20.5258 C   0  0  0  0  0  0  0  0  0  0  0  0
    8.1418  -14.6918   20.9691 C   0  0  2  0  0  0  0  0  0  0  0  0
    8.8370  -15.2324   19.7601 C   0  0  0  0  0  0  0  0  0  0  0  0
    7.5980  -15.7693   21.8793 C   0  0  2  0  0  0  0  0  0  0  0  0
    6.8661  -15.1242   22.9318 N   0  0  0  0  0  0  0  0  0  0  0  0
    8.7691  -16.5424   22.4227 C   0  0  0  0  0  0  0  0  0  0  0  0
    9.1933  -17.5259   21.7605 O   0  0  0  0  0  0  0  0  0  0  0  0
   12.7400  -15.0292   23.5999 N   0  0  0  0  0  0  0  0  0  0  0  0
   12.1043  -15.9236   22.6705 C   0  0  0  0  0  0  0  0  0  0  0  0
   12.0970  -15.5614   21.4796 O   0  0  0  0  0  0  0  0  0  0  0  0
   11.5108  -17.1871   23.1606 C   0  0  0  0  0  0  0  0  0  0  0  0
   10.4464  -16.9618   24.1967 C   0  0  2  0  0  0  0  0  0  0  0  0
    9.3722  -16.1694   23.6440 N   0  0  0  0  0  0  0  0  0  0  0  0
   10.9307  -16.4241   25.4841 C   0  0  0  0  0  0  0  0  0  0  0  0
   12.0442  -16.7874   25.9334 O   0  0  0  0  0  0  0  0  0  0  0  0
   10.1957  -15.4949   26.2695 N   0  0  0  0  0  0  0  0  0  0  0  0
    9.9202  -15.6702   27.6760 C   0  0  1  0  0  0  0  0  0  0  0  0
    8.4857  -15.3227   28.0184 C   0  0  0  0  0  0  0  0  0  0  0  0
    8.0245  -14.0909   27.3900 C   0  0  0  0  0  0  0  0  0  0  0  0
    8.8510  -13.0002   27.2705 C   0  0  0  0  0  0  0  0  0  0  0  0
    8.4298  -11.8282   26.6788 C   0  0  0  0  0  0  0  0  0  0  0  0
    7.1601  -11.7111   26.1854 C   0  0  0  0  0  0  0  0  0  0  0  0
    6.3095  -12.7912   26.2924 C   0  0  0  0  0  0  0  0  0  0  0  0
    6.7477  -13.9769   26.8952 C   0  0  0  0  0  0  0  0  0  0  0  0
   10.2909  -17.0213   28.1531 C   0  0  0  0  0  0  0  0  0  0  0  0
   10.3523  -18.1027   27.2872 O   0  0  0  0  0  0  0  0  0  0  0  0
   10.5638  -17.2380   29.3609 O   0  0  0  0  0  0  0  0  0  0  0  0
  2  1  1  0
  3  4  1  6
  3  5  1  0
  3  2  1  0
  5  6  1  1
  7  5  1  0
  7  8  2  0
  9 10  1  0
 10 12  1  0
 11 10  2  0
 13 12  1  6
 13 14  1  0
 14  7  1  0
 15 13  1  0
 16 15  2  0
 17 15  1  0
 18 17  1  0
 18 26  1  0
 18 19  1  6
 20 25  2  0
 20 19  1  0
 21 20  1  0
 22 23  1  0
 22 21  2  0
 23 24  2  0
 24 25  1  0
 26 27  1  0
 28 26  2  0
M  END
$$$$
