DEA.pdb
     RDKit          3D

 23 22  0  0  1  0  0  0  0  0999 V2000
   15.6773  -11.0223  -15.8725 N   0  0  0  0  0  0  0  0  0  0  0  0
   17.0690  -10.9562  -15.4722 C   0  0  1  0  0  0  0  0  0  0  0  0
   17.8691  -12.0745  -16.1004 C   0  0  0  0  0  0  0  0  0  0  0  0
   17.5003  -13.3914  -15.5269 C   0  0  0  0  0  0  0  0  0  0  0  0
   16.7603  -14.1412  -16.1933 O   0  0  0  0  0  0  0  0  0  0  0  0
   17.5778   -9.6240  -15.8230 C   0  0  0  0  0  0  0  0  0  0  0  0
   17.8398   -9.3141  -17.0143 O   0  0  0  0  0  0  0  0  0  0  0  0
   17.9476  -13.8097  -14.2873 O   0  0  0  0  0  0  0  0  0  0  0  0
   17.8145   -8.5854  -14.8589 N   0  0  0  0  0  0  0  0  0  0  0  0
   18.4088   -7.3260  -15.1383 C   0  0  1  0  0  0  0  0  0  0  0  0
   17.4077   -6.2120  -14.8256 C   0  0  0  0  0  0  0  0  0  0  0  0
   17.9738   -4.8771  -15.2620 C   0  0  0  0  0  0  0  0  0  0  0  0
   17.0195   -3.7912  -14.9543 C   0  0  0  0  0  0  0  0  0  0  0  0
   17.4099   -2.7648  -14.3330 O   0  0  0  0  0  0  0  0  0  0  0  0
   19.6340   -7.0360  -14.3660 C   0  0  0  0  0  0  0  0  0  0  0  0
   19.6828   -7.1612  -13.1135 O   0  0  0  0  0  0  0  0  0  0  0  0
   15.7118   -3.9124  -15.3501 O   0  0  0  0  0  0  0  0  0  0  0  0
   23.1328   -6.2572  -15.4732 C   0  0  0  0  0  0  0  0  0  0  0  0
   22.0146   -6.3828  -14.4581 C   0  0  2  0  0  0  0  0  0  0  0  0
   20.7654   -6.6044  -15.1162 N   0  0  0  0  0  0  0  0  0  0  0  0
   21.9147   -5.1862  -13.6081 C   0  0  0  0  0  0  0  0  0  0  0  0
   22.7458   -5.0615  -12.5117 O   0  0  0  0  0  0  0  0  0  0  0  0
   21.0886   -4.2801  -13.8629 O   0  0  0  0  0  0  0  0  0  0  0  0
  2  1  1  6
  2  6  1  0
  3  2  1  0
  3  4  1  0
  4  8  1  0
  5  4  2  0
  6  7  2  0
  9 10  1  0
  9  6  1  0
 10 15  1  0
 11 12  1  0
 10 11  1  1
 12 13  1  0
 13 14  2  0
 15 16  2  0
 17 13  1  0
 19 18  1  6
 19 21  1  0
 20 15  1  0
 20 19  1  0
 21 23  2  0
 21 22  1  0
M  END
$$$$
