DEA.pdb
     RDKit          3D

 23 22  0  0  1  0  0  0  0  0999 V2000
   17.5766  -10.9963  -16.9076 N   0  0  0  0  0  0  0  0  0  0  0  0
   17.8909  -11.1194  -15.4979 C   0  0  1  0  0  0  0  0  0  0  0  0
   18.0125  -12.5708  -15.0928 C   0  0  0  0  0  0  0  0  0  0  0  0
   16.6797  -13.1956  -14.9138 C   0  0  0  0  0  0  0  0  0  0  0  0
   15.6669  -12.4866  -15.0736 O   0  0  0  0  0  0  0  0  0  0  0  0
   19.1147  -10.3502  -15.2383 C   0  0  0  0  0  0  0  0  0  0  0  0
   19.6818  -10.3782  -14.1152 O   0  0  0  0  0  0  0  0  0  0  0  0
   16.5265  -14.5282  -14.5784 O   0  0  0  0  0  0  0  0  0  0  0  0
   19.7539   -9.5198  -16.2212 N   0  0  0  0  0  0  0  0  0  0  0  0
   20.9293   -8.7516  -16.0076 C   0  0  1  0  0  0  0  0  0  0  0  0
   21.6998   -8.6264  -17.3235 C   0  0  0  0  0  0  0  0  0  0  0  0
   22.3884   -9.9372  -17.6407 C   0  0  0  0  0  0  0  0  0  0  0  0
   23.1146   -9.8365  -18.9241 C   0  0  0  0  0  0  0  0  0  0  0  0
   23.9658   -8.9215  -19.0978 O   0  0  0  0  0  0  0  0  0  0  0  0
   20.6899   -7.3802  -15.5142 C   0  0  0  0  0  0  0  0  0  0  0  0
   19.7441   -6.6680  -15.9443 O   0  0  0  0  0  0  0  0  0  0  0  0
   22.8532  -10.7446  -19.9182 O   0  0  0  0  0  0  0  0  0  0  0  0
   21.8328   -5.6807  -12.4451 C   0  0  0  0  0  0  0  0  0  0  0  0
   21.3436   -5.6476  -13.8790 C   0  0  2  0  0  0  0  0  0  0  0  0
   21.5905   -6.9012  -14.5197 N   0  0  0  0  0  0  0  0  0  0  0  0
   21.9854   -4.5700  -14.6480 C   0  0  0  0  0  0  0  0  0  0  0  0
   21.6598   -3.2555  -14.3755 O   0  0  0  0  0  0  0  0  0  0  0  0
   22.8212   -4.8260  -15.5448 O   0  0  0  0  0  0  0  0  0  0  0  0
  2  1  1  6
  2  6  1  0
  3  2  1  0
  3  4  1  0
  4  8  1  0
  5  4  2  0
  6  7  2  0
  9 10  1  0
  9  6  1  0
 10 15  1  0
 11 12  1  0
 10 11  1  6
 12 13  1  0
 13 14  2  0
 15 16  2  0
 17 13  1  0
 19 18  1  1
 19 21  1  0
 20 15  1  0
 20 19  1  0
 21 23  2  0
 21 22  1  0
M  END
$$$$
