DEA.pdb
     RDKit          3D

 23 22  0  0  1  0  0  0  0  0999 V2000
   18.5488  -11.5168  -16.9516 N   0  0  0  0  0  0  0  0  0  0  0  0
   19.0730  -10.3357  -17.6083 C   0  0  1  0  0  0  0  0  0  0  0  0
   18.4186  -10.1267  -18.9550 C   0  0  0  0  0  0  0  0  0  0  0  0
   18.6750  -11.2699  -19.8640 C   0  0  0  0  0  0  0  0  0  0  0  0
   19.8483  -11.6699  -19.9960 O   0  0  0  0  0  0  0  0  0  0  0  0
   18.8896   -9.1950  -16.7018 C   0  0  0  0  0  0  0  0  0  0  0  0
   18.0497   -9.2292  -15.7652 O   0  0  0  0  0  0  0  0  0  0  0  0
   17.6626  -11.9004  -20.5634 O   0  0  0  0  0  0  0  0  0  0  0  0
   19.6357   -7.9714  -16.8044 N   0  0  0  0  0  0  0  0  0  0  0  0
   19.5026   -6.8538  -15.9381 C   0  0  1  0  0  0  0  0  0  0  0  0
   20.8320   -6.6053  -15.2226 C   0  0  0  0  0  0  0  0  0  0  0  0
   20.6619   -5.5092  -14.1918 C   0  0  0  0  0  0  0  0  0  0  0  0
   21.9332   -5.2805  -13.4733 C   0  0  0  0  0  0  0  0  0  0  0  0
   22.6586   -4.2926  -13.7724 O   0  0  0  0  0  0  0  0  0  0  0  0
   19.1304   -5.5922  -16.6100 C   0  0  0  0  0  0  0  0  0  0  0  0
   19.7544   -5.1574  -17.6141 O   0  0  0  0  0  0  0  0  0  0  0  0
   22.3124   -6.1507  -12.4831 O   0  0  0  0  0  0  0  0  0  0  0  0
   16.1564   -3.3554  -16.2249 C   0  0  0  0  0  0  0  0  0  0  0  0
   17.5657   -3.6817  -16.6768 C   0  0  2  0  0  0  0  0  0  0  0  0
   18.0212   -4.8877  -16.0596 N   0  0  0  0  0  0  0  0  0  0  0  0
   18.5023   -2.5899  -16.3685 C   0  0  0  0  0  0  0  0  0  0  0  0
   19.5294   -2.8102  -15.4714 O   0  0  0  0  0  0  0  0  0  0  0  0
   18.3827   -1.4652  -16.9062 O   0  0  0  0  0  0  0  0  0  0  0  0
  2  1  1  1
  2  6  1  0
  3  2  1  0
  3  4  1  0
  4  8  1  0
  5  4  2  0
  6  7  2  0
  9 10  1  0
  9  6  1  0
 10 15  1  0
 11 12  1  0
 10 11  1  6
 12 13  1  0
 13 14  2  0
 15 16  2  0
 17 13  1  0
 19 18  1  1
 19 21  1  0
 20 15  1  0
 20 19  1  0
 21 23  2  0
 21 22  1  0
M  END
$$$$
