DEA.pdb
     RDKit          3D

 23 22  0  0  1  0  0  0  0  0999 V2000
   17.9741  -11.6001  -14.1927 N   0  0  0  0  0  0  0  0  0  0  0  0
   17.1373  -10.4166  -14.1739 C   0  0  1  0  0  0  0  0  0  0  0  0
   15.6726  -10.7853  -14.2385 C   0  0  0  0  0  0  0  0  0  0  0  0
   15.3271  -11.4018  -15.5421 C   0  0  0  0  0  0  0  0  0  0  0  0
   16.1478  -11.3110  -16.4761 O   0  0  0  0  0  0  0  0  0  0  0  0
   17.4779   -9.6406  -12.9746 C   0  0  0  0  0  0  0  0  0  0  0  0
   17.6046  -10.1916  -11.8503 O   0  0  0  0  0  0  0  0  0  0  0  0
   14.1340  -12.0681  -15.7522 O   0  0  0  0  0  0  0  0  0  0  0  0
   17.6903   -8.2197  -12.9823 N   0  0  0  0  0  0  0  0  0  0  0  0
   17.9803   -7.4269  -11.8399 C   0  0  1  0  0  0  0  0  0  0  0  0
   18.9135   -6.2824  -12.2401 C   0  0  0  0  0  0  0  0  0  0  0  0
   20.3426   -6.6404  -11.8901 C   0  0  0  0  0  0  0  0  0  0  0  0
   21.2745   -5.6481  -12.4657 C   0  0  0  0  0  0  0  0  0  0  0  0
   22.5110   -5.7320  -12.2295 O   0  0  0  0  0  0  0  0  0  0  0  0
   16.7995   -6.8172  -11.1953 C   0  0  0  0  0  0  0  0  0  0  0  0
   15.9156   -6.2075  -11.8539 O   0  0  0  0  0  0  0  0  0  0  0  0
   20.7813   -4.6406  -13.2552 O   0  0  0  0  0  0  0  0  0  0  0  0
   15.4816   -7.0589   -7.6995 C   0  0  0  0  0  0  0  0  0  0  0  0
   15.5699   -6.4498   -9.0844 C   0  0  2  0  0  0  0  0  0  0  0  0
   16.7115   -6.9552   -9.7802 N   0  0  0  0  0  0  0  0  0  0  0  0
   15.6406   -4.9814   -9.0293 C   0  0  0  0  0  0  0  0  0  0  0  0
   14.5263   -4.2626   -8.6419 O   0  0  0  0  0  0  0  0  0  0  0  0
   16.6942   -4.3738   -9.3280 O   0  0  0  0  0  0  0  0  0  0  0  0
  2  1  1  1
  2  6  1  0
  3  2  1  0
  3  4  1  0
  4  8  1  0
  5  4  2  0
  6  7  2  0
  9 10  1  0
  9  6  1  0
 10 15  1  0
 11 12  1  0
 10 11  1  6
 12 13  1  0
 13 14  2  0
 15 16  2  0
 17 13  1  0
 19 18  1  1
 19 21  1  0
 20 15  1  0
 20 19  1  0
 21 23  2  0
 21 22  1  0
M  END
$$$$
