DEA.pdb
     RDKit          3D

 23 22  0  0  1  0  0  0  0  0999 V2000
   17.5609  -11.7607  -11.2964 N   0  0  0  0  0  0  0  0  0  0  0  0
   16.4954  -10.7780  -11.3094 C   0  0  1  0  0  0  0  0  0  0  0  0
   15.2145  -11.3576  -10.7536 C   0  0  0  0  0  0  0  0  0  0  0  0
   14.6758  -12.4219  -11.6343 C   0  0  0  0  0  0  0  0  0  0  0  0
   14.5297  -12.1700  -12.8464 O   0  0  0  0  0  0  0  0  0  0  0  0
   16.9579   -9.5991  -10.5657 C   0  0  0  0  0  0  0  0  0  0  0  0
   17.4343   -9.7004   -9.4053 O   0  0  0  0  0  0  0  0  0  0  0  0
   14.3335  -13.6738  -11.1575 O   0  0  0  0  0  0  0  0  0  0  0  0
   16.9073   -8.2614  -11.0872 N   0  0  0  0  0  0  0  0  0  0  0  0
   17.1775   -7.0805  -10.3456 C   0  0  1  0  0  0  0  0  0  0  0  0
   18.1348   -6.1901  -11.1403 C   0  0  0  0  0  0  0  0  0  0  0  0
   19.5294   -6.7791  -11.1066 C   0  0  0  0  0  0  0  0  0  0  0  0
   20.4720   -5.9051  -11.8363 C   0  0  0  0  0  0  0  0  0  0  0  0
   20.0521   -4.8613  -12.4072 O   0  0  0  0  0  0  0  0  0  0  0  0
   15.9882   -6.2636  -10.0298 C   0  0  0  0  0  0  0  0  0  0  0  0
   15.1461   -5.9373  -10.9080 O   0  0  0  0  0  0  0  0  0  0  0  0
   21.8010   -6.2410  -11.8849 O   0  0  0  0  0  0  0  0  0  0  0  0
   14.4690   -5.2493   -6.7755 C   0  0  0  0  0  0  0  0  0  0  0  0
   14.6903   -5.1160   -8.2688 C   0  0  2  0  0  0  0  0  0  0  0  0
   15.8418   -5.8609   -8.6712 N   0  0  0  0  0  0  0  0  0  0  0  0
   14.8513   -3.7101   -8.6714 C   0  0  0  0  0  0  0  0  0  0  0  0
   13.7405   -2.8916   -8.7363 O   0  0  0  0  0  0  0  0  0  0  0  0
   15.9787   -3.2449   -8.9560 O   0  0  0  0  0  0  0  0  0  0  0  0
  2  1  1  1
  2  6  1  0
  3  2  1  0
  3  4  1  0
  4  8  1  0
  5  4  2  0
  6  7  2  0
  9 10  1  0
  9  6  1  0
 10 15  1  0
 11 12  1  0
 10 11  1  6
 12 13  1  0
 13 14  2  0
 15 16  2  0
 17 13  1  0
 19 18  1  1
 19 21  1  0
 20 15  1  0
 20 19  1  0
 21 23  2  0
 21 22  1  0
M  END
$$$$
