DEA.pdb
     RDKit          3D

 23 22  0  0  1  0  0  0  0  0999 V2000
   27.2055  -33.5376   -3.2673 N   0  0  0  0  0  0  0  0  0  0  0  0
   28.3577  -34.3738   -2.9942 C   0  0  1  0  0  0  0  0  0  0  0  0
   29.6424  -33.6646   -3.3576 C   0  0  0  0  0  0  0  0  0  0  0  0
   30.4001  -34.4132   -4.3893 C   0  0  0  0  0  0  0  0  0  0  0  0
   29.7743  -34.8805   -5.3609 O   0  0  0  0  0  0  0  0  0  0  0  0
   28.3046  -34.7696   -1.5810 C   0  0  0  0  0  0  0  0  0  0  0  0
   29.1590  -35.5494   -1.0852 O   0  0  0  0  0  0  0  0  0  0  0  0
   31.7666  -34.6072   -4.3081 O   0  0  0  0  0  0  0  0  0  0  0  0
   27.2967  -34.3113   -0.6655 N   0  0  0  0  0  0  0  0  0  0  0  0
   27.2860  -34.5563    0.7335 C   0  0  1  0  0  0  0  0  0  0  0  0
   26.7376  -33.3264    1.4598 C   0  0  0  0  0  0  0  0  0  0  0  0
   26.7055  -33.5843    2.9516 C   0  0  0  0  0  0  0  0  0  0  0  0
   26.0800  -32.4446    3.6548 C   0  0  0  0  0  0  0  0  0  0  0  0
   25.3558  -31.6307    3.0185 O   0  0  0  0  0  0  0  0  0  0  0  0
   26.4631  -35.7090    1.1525 C   0  0  0  0  0  0  0  0  0  0  0  0
   25.2925  -35.8889    0.7235 O   0  0  0  0  0  0  0  0  0  0  0  0
   26.2955  -32.2836    4.9998 O   0  0  0  0  0  0  0  0  0  0  0  0
   27.3879  -38.9258    2.7068 C   0  0  0  0  0  0  0  0  0  0  0  0
   26.3891  -37.8187    2.4358 C   0  0  2  0  0  0  0  0  0  0  0  0
   27.0661  -36.6132    2.0735 N   0  0  0  0  0  0  0  0  0  0  0  0
   25.5281  -37.5654    3.6015 C   0  0  0  0  0  0  0  0  0  0  0  0
   24.6534  -38.5471    4.0249 O   0  0  0  0  0  0  0  0  0  0  0  0
   25.5760  -36.4746    4.2149 O   0  0  0  0  0  0  0  0  0  0  0  0
  2  1  1  1
  2  6  1  0
  3  2  1  0
  3  4  1  0
  4  8  1  0
  5  4  2  0
  6  7  2  0
  9 10  1  0
  9  6  1  0
 10 15  1  0
 11 12  1  0
 10 11  1  1
 12 13  1  0
 13 14  2  0
 15 16  2  0
 17 13  1  0
 19 18  1  1
 19 21  1  0
 20 15  1  0
 20 19  1  0
 21 23  2  0
 21 22  1  0
M  END
$$$$
