VAY.pdb
     RDKit          3D

 25 25  0  0  1  0  0  0  0  0999 V2000
   17.9476  -12.9331  -18.3757 C   0  0  0  0  0  0  0  0  0  0  0  0
   18.5299  -13.8996  -17.3446 C   0  0  2  0  0  0  0  0  0  0  0  0
   17.5955  -15.0685  -17.2333 C   0  0  0  0  0  0  0  0  0  0  0  0
   18.6561  -13.0984  -16.0499 C   0  0  2  0  0  0  0  0  0  0  0  0
   17.2606  -12.8976  -15.5835 N   0  0  0  0  0  0  0  0  0  0  0  0
   19.2326  -11.7532  -16.2732 C   0  0  0  0  0  0  0  0  0  0  0  0
   20.4688  -11.6163  -16.5704 O   0  0  0  0  0  0  0  0  0  0  0  0
   18.3992   -8.4099  -17.3838 C   0  0  0  0  0  0  0  0  0  0  0  0
   19.1585   -9.2714  -16.3666 C   0  0  2  0  0  0  0  0  0  0  0  0
   18.4820  -10.5371  -16.1813 N   0  0  0  0  0  0  0  0  0  0  0  0
   19.3006   -8.4853  -15.1277 C   0  0  0  0  0  0  0  0  0  0  0  0
   18.3798   -8.5515  -14.2825 O   0  0  0  0  0  0  0  0  0  0  0  0
   24.8895   -3.8190  -17.3447 O   0  0  0  0  0  0  0  0  0  0  0  0
   24.1733   -4.5337  -16.3642 C   0  0  0  0  0  0  0  0  0  0  0  0
   23.4815   -3.8493  -15.3985 C   0  0  0  0  0  0  0  0  0  0  0  0
   22.7725   -4.5092  -14.4269 C   0  0  0  0  0  0  0  0  0  0  0  0
   22.7186   -5.8896  -14.3722 C   0  0  0  0  0  0  0  0  0  0  0  0
   21.9990   -6.6514  -13.3643 C   0  0  0  0  0  0  0  0  0  0  0  0
   20.5498   -6.9252  -13.6290 C   0  0  2  0  0  0  0  0  0  0  0  0
   20.4265   -7.6728  -14.8674 N   0  0  0  0  0  0  0  0  0  0  0  0
   19.8385   -5.6384  -13.8103 C   0  0  0  0  0  0  0  0  0  0  0  0
   19.6595   -4.8722  -12.8243 O   0  0  0  0  0  0  0  0  0  0  0  0
   23.4149   -6.5730  -15.3441 C   0  0  0  0  0  0  0  0  0  0  0  0
   24.1353   -5.9101  -16.3306 C   0  0  0  0  0  0  0  0  0  0  0  0
   19.3389   -5.2026  -15.0308 O   0  0  0  0  0  0  0  0  0  0  0  0
  2  1  1  6
  3  2  1  0
  4  2  1  0
  4  5  1  6
  6  7  2  0
  6  4  1  0
  9  8  1  6
  9 10  1  0
 10  6  1  0
 11 20  1  0
 11  9  1  0
 12 11  2  0
 13 14  1  0
 14 24  2  0
 14 15  1  0
 15 16  2  0
 16 17  1  0
 17 18  1  0
 19 18  1  6
 19 20  1  0
 19 21  1  0
 21 25  1  0
 22 21  2  0
 23 17  2  0
 24 23  1  0
M  END
$$$$
