VAY.pdb
     RDKit          3D

 25 25  0  0  1  0  0  0  0  0999 V2000
   21.6902  -12.5674  -18.9309 C   0  0  0  0  0  0  0  0  0  0  0  0
   23.2128  -12.6807  -18.8586 C   0  0  2  0  0  0  0  0  0  0  0  0
   23.6515  -13.6457  -19.9208 C   0  0  0  0  0  0  0  0  0  0  0  0
   23.5267  -13.1554  -17.4408 C   0  0  2  0  0  0  0  0  0  0  0  0
   22.9520  -14.5222  -17.3561 N   0  0  0  0  0  0  0  0  0  0  0  0
   22.8475  -12.3388  -16.4095 C   0  0  0  0  0  0  0  0  0  0  0  0
   21.5967  -12.4823  -16.1855 O   0  0  0  0  0  0  0  0  0  0  0  0
   23.6060   -9.9093  -13.6362 C   0  0  0  0  0  0  0  0  0  0  0  0
   22.7237  -10.4993  -14.7437 C   0  0  2  0  0  0  0  0  0  0  0  0
   23.5097  -11.3576  -15.6036 N   0  0  0  0  0  0  0  0  0  0  0  0
   22.0782   -9.3783  -15.4506 C   0  0  0  0  0  0  0  0  0  0  0  0
   22.6089   -8.9684  -16.5075 O   0  0  0  0  0  0  0  0  0  0  0  0
   15.0054  -11.1227  -14.1765 O   0  0  0  0  0  0  0  0  0  0  0  0
   16.0555  -10.3983  -14.7746 C   0  0  0  0  0  0  0  0  0  0  0  0
   16.0855   -9.0323  -14.6614 C   0  0  0  0  0  0  0  0  0  0  0  0
   17.0910   -8.2920  -15.2298 C   0  0  0  0  0  0  0  0  0  0  0  0
   18.1198   -8.8814  -15.9408 C   0  0  0  0  0  0  0  0  0  0  0  0
   19.2071   -8.1571  -16.5789 C   0  0  0  0  0  0  0  0  0  0  0  0
   20.2954   -7.6444  -15.6856 C   0  0  2  0  0  0  0  0  0  0  0  0
   20.8970   -8.7621  -14.9810 N   0  0  0  0  0  0  0  0  0  0  0  0
   19.7045   -6.7413  -14.6707 C   0  0  0  0  0  0  0  0  0  0  0  0
   19.6294   -7.1090  -13.4665 O   0  0  0  0  0  0  0  0  0  0  0  0
   18.0857  -10.2536  -16.0520 C   0  0  0  0  0  0  0  0  0  0  0  0
   17.0696  -11.0089  -15.4788 C   0  0  0  0  0  0  0  0  0  0  0  0
   19.2118   -5.4759  -14.9629 O   0  0  0  0  0  0  0  0  0  0  0  0
  2  1  1  1
  3  2  1  0
  4  2  1  0
  4  5  1  6
  6  7  2  0
  6  4  1  0
  9  8  1  1
  9 10  1  0
 10  6  1  0
 11 20  1  0
 11  9  1  0
 12 11  2  0
 13 14  1  0
 14 24  2  0
 14 15  1  0
 15 16  2  0
 16 17  1  0
 17 18  1  0
 19 18  1  6
 19 20  1  0
 19 21  1  0
 21 25  1  0
 22 21  2  0
 23 17  2  0
 24 23  1  0
M  END
$$$$
