VAY.pdb
     RDKit          3D

 25 25  0  0  1  0  0  0  0  0999 V2000
   31.8394    1.5627  -16.9861 C   0  0  0  0  0  0  0  0  0  0  0  0
   31.2502    0.1922  -16.6531 C   0  0  2  0  0  0  0  0  0  0  0  0
   32.2878   -0.5800  -15.8920 C   0  0  0  0  0  0  0  0  0  0  0  0
   30.8869   -0.4404  -17.9954 C   0  0  2  0  0  0  0  0  0  0  0  0
   29.6786    0.2922  -18.4521 N   0  0  0  0  0  0  0  0  0  0  0  0
   30.5019   -1.8637  -17.8620 C   0  0  0  0  0  0  0  0  0  0  0  0
   29.2702   -2.2076  -17.8646 O   0  0  0  0  0  0  0  0  0  0  0  0
   30.1150   -4.6054  -18.9234 C   0  0  0  0  0  0  0  0  0  0  0  0
   30.9582   -4.2993  -17.6789 C   0  0  2  0  0  0  0  0  0  0  0  0
   31.4413   -2.9362  -17.7267 N   0  0  0  0  0  0  0  0  0  0  0  0
   32.0300   -5.3085  -17.6017 C   0  0  0  0  0  0  0  0  0  0  0  0
   32.9944   -5.2010  -18.3922 O   0  0  0  0  0  0  0  0  0  0  0  0
   35.5320   -2.4907  -12.8357 O   0  0  0  0  0  0  0  0  0  0  0  0
   35.0208   -3.6838  -13.3837 C   0  0  0  0  0  0  0  0  0  0  0  0
   35.8860   -4.6348  -13.8597 C   0  0  0  0  0  0  0  0  0  0  0  0
   35.4270   -5.8091  -14.4006 C   0  0  0  0  0  0  0  0  0  0  0  0
   34.0769   -6.0927  -14.4923 C   0  0  0  0  0  0  0  0  0  0  0  0
   33.5228   -7.3088  -15.0650 C   0  0  0  0  0  0  0  0  0  0  0  0
   33.1420   -7.2628  -16.5135 C   0  0  2  0  0  0  0  0  0  0  0  0
   32.0041   -6.3761  -16.6771 N   0  0  0  0  0  0  0  0  0  0  0  0
   32.7215   -8.6154  -16.9475 C   0  0  0  0  0  0  0  0  0  0  0  0
   31.4951   -8.8906  -17.0549 O   0  0  0  0  0  0  0  0  0  0  0  0
   33.2115   -5.1346  -14.0131 C   0  0  0  0  0  0  0  0  0  0  0  0
   33.6705   -3.9430  -13.4645 C   0  0  0  0  0  0  0  0  0  0  0  0
   33.6133   -9.6349  -17.2548 O   0  0  0  0  0  0  0  0  0  0  0  0
  2  1  1  6
  3  2  1  0
  4  2  1  0
  4  5  1  1
  6  7  2  0
  6  4  1  0
  9  8  1  6
  9 10  1  0
 10  6  1  0
 11 20  1  0
 11  9  1  0
 12 11  2  0
 13 14  1  0
 14 24  2  0
 14 15  1  0
 15 16  2  0
 16 17  1  0
 17 18  1  0
 19 18  1  1
 19 20  1  0
 19 21  1  0
 21 25  1  0
 22 21  2  0
 23 17  2  0
 24 23  1  0
M  END
$$$$
