VAY.pdb
     RDKit          3D

 25 25  0  0  1  0  0  0  0  0999 V2000
   20.9498  -12.6133  -16.4988 C   0  0  0  0  0  0  0  0  0  0  0  0
   19.4635  -12.9694  -16.4814 C   0  0  2  0  0  0  0  0  0  0  0  0
   19.3418  -14.4413  -16.7471 C   0  0  0  0  0  0  0  0  0  0  0  0
   18.8166  -12.1027  -17.5604 C   0  0  2  0  0  0  0  0  0  0  0  0
   19.3849  -12.5941  -18.8414 N   0  0  0  0  0  0  0  0  0  0  0  0
   19.1959  -10.6767  -17.4407 C   0  0  0  0  0  0  0  0  0  0  0  0
   20.2876  -10.2488  -17.9509 O   0  0  0  0  0  0  0  0  0  0  0  0
   17.6232   -7.3820  -16.5776 C   0  0  0  0  0  0  0  0  0  0  0  0
   18.8281   -8.3096  -16.7808 C   0  0  2  0  0  0  0  0  0  0  0  0
   18.4006   -9.6920  -16.7708 N   0  0  0  0  0  0  0  0  0  0  0  0
   19.8249   -7.9870  -15.7437 C   0  0  0  0  0  0  0  0  0  0  0  0
   19.7137   -8.5465  -14.6296 O   0  0  0  0  0  0  0  0  0  0  0  0
   24.6189  -12.3066  -16.8391 O   0  0  0  0  0  0  0  0  0  0  0  0
   24.2727  -10.9818  -16.5069 C   0  0  0  0  0  0  0  0  0  0  0  0
   24.5145  -10.5168  -15.2401 C   0  0  0  0  0  0  0  0  0  0  0  0
   24.1916   -9.2334  -14.8783 C   0  0  0  0  0  0  0  0  0  0  0  0
   23.6100   -8.3483  -15.7670 C   0  0  0  0  0  0  0  0  0  0  0  0
   23.2307   -6.9817  -15.4465 C   0  0  0  0  0  0  0  0  0  0  0  0
   21.8443   -6.7697  -14.9191 C   0  0  2  0  0  0  0  0  0  0  0  0
   20.8861   -7.0813  -15.9644 N   0  0  0  0  0  0  0  0  0  0  0  0
   21.6730   -5.3411  -14.5661 C   0  0  0  0  0  0  0  0  0  0  0  0
   22.2927   -4.8563  -13.5802 O   0  0  0  0  0  0  0  0  0  0  0  0
   23.3689   -8.8196  -17.0382 C   0  0  0  0  0  0  0  0  0  0  0  0
   23.6934  -10.1187  -17.4105 C   0  0  0  0  0  0  0  0  0  0  0  0
   20.8506   -4.4700  -15.2689 O   0  0  0  0  0  0  0  0  0  0  0  0
  2  1  1  6
  3  2  1  0
  4  2  1  0
  4  5  1  6
  6  7  2  0
  6  4  1  0
  9  8  1  1
  9 10  1  0
 10  6  1  0
 11 20  1  0
 11  9  1  0
 12 11  2  0
 13 14  1  0
 14 24  2  0
 14 15  1  0
 15 16  2  0
 16 17  1  0
 17 18  1  0
 19 18  1  6
 19 20  1  0
 19 21  1  0
 21 25  1  0
 22 21  2  0
 23 17  2  0
 24 23  1  0
M  END
$$$$
