VAY.pdb
     RDKit          3D

 25 25  0  0  1  0  0  0  0  0999 V2000
   22.0928  -11.2889  -22.2233 C   0  0  0  0  0  0  0  0  0  0  0  0
   21.6613  -10.7620  -20.8549 C   0  0  2  0  0  0  0  0  0  0  0  0
   22.5934   -9.6478  -20.4781 C   0  0  0  0  0  0  0  0  0  0  0  0
   21.7328  -11.9588  -19.9081 C   0  0  2  0  0  0  0  0  0  0  0  0
   20.6784  -12.8900  -20.3839 N   0  0  0  0  0  0  0  0  0  0  0  0
   21.3894  -11.5965  -18.5143 C   0  0  0  0  0  0  0  0  0  0  0  0
   20.1976  -11.2497  -18.2070 O   0  0  0  0  0  0  0  0  0  0  0  0
   22.6222  -11.9380  -15.0279 C   0  0  0  0  0  0  0  0  0  0  0  0
   21.9084  -11.1411  -16.1275 C   0  0  2  0  0  0  0  0  0  0  0  0
   22.3274  -11.6060  -17.4322 N   0  0  0  0  0  0  0  0  0  0  0  0
   22.1741   -9.7105  -15.8915 C   0  0  0  0  0  0  0  0  0  0  0  0
   23.1586   -9.1943  -16.4667 O   0  0  0  0  0  0  0  0  0  0  0  0
   21.7910   -1.1289  -15.9358 O   0  0  0  0  0  0  0  0  0  0  0  0
   21.7493   -2.5362  -15.9905 C   0  0  0  0  0  0  0  0  0  0  0  0
   20.6344   -3.1612  -16.4865 C   0  0  0  0  0  0  0  0  0  0  0  0
   20.5557   -4.5291  -16.5560 C   0  0  0  0  0  0  0  0  0  0  0  0
   21.5903   -5.3428  -16.1328 C   0  0  0  0  0  0  0  0  0  0  0  0
   21.5677   -6.7962  -16.1656 C   0  0  0  0  0  0  0  0  0  0  0  0
   21.6412   -7.5046  -14.8473 C   0  0  2  0  0  0  0  0  0  0  0  0
   21.3644   -8.9152  -15.0504 N   0  0  0  0  0  0  0  0  0  0  0  0
   20.5926   -6.9674  -13.9491 C   0  0  0  0  0  0  0  0  0  0  0  0
   19.4046   -7.3796  -14.0491 O   0  0  0  0  0  0  0  0  0  0  0  0
   22.7081   -4.7108  -15.6353 C   0  0  0  0  0  0  0  0  0  0  0  0
   22.7935   -3.3256  -15.5621 C   0  0  0  0  0  0  0  0  0  0  0  0
   20.8351   -6.0103  -12.9722 O   0  0  0  0  0  0  0  0  0  0  0  0
  2  1  1  6
  3  2  1  0
  4  2  1  0
  4  5  1  6
  6  7  2  0
  6  4  1  0
  9  8  1  1
  9 10  1  0
 10  6  1  0
 11 20  1  0
 11  9  1  0
 12 11  2  0
 13 14  1  0
 14 24  2  0
 14 15  1  0
 15 16  2  0
 16 17  1  0
 17 18  1  0
 19 18  1  6
 19 20  1  0
 19 21  1  0
 21 25  1  0
 22 21  2  0
 23 17  2  0
 24 23  1  0
M  END
$$$$
