VAY.pdb
     RDKit          3D

 25 25  0  0  1  0  0  0  0  0999 V2000
   18.8271  -12.9051  -19.3274 C   0  0  0  0  0  0  0  0  0  0  0  0
   19.5901  -13.8180  -18.3678 C   0  0  2  0  0  0  0  0  0  0  0  0
   18.8712  -15.1343  -18.3183 C   0  0  0  0  0  0  0  0  0  0  0  0
   19.6093  -13.0866  -17.0266 C   0  0  2  0  0  0  0  0  0  0  0  0
   18.2086  -13.1435  -16.5366 N   0  0  0  0  0  0  0  0  0  0  0  0
   19.9568  -11.6547  -17.1701 C   0  0  0  0  0  0  0  0  0  0  0  0
   21.1545  -11.3002  -17.4441 O   0  0  0  0  0  0  0  0  0  0  0  0
   18.4845   -8.3781  -17.9296 C   0  0  0  0  0  0  0  0  0  0  0  0
   19.4775   -9.2173  -17.1154 C   0  0  2  0  0  0  0  0  0  0  0  0
   19.0156  -10.5855  -17.0226 N   0  0  0  0  0  0  0  0  0  0  0  0
   19.6573   -8.5597  -15.8083 C   0  0  0  0  0  0  0  0  0  0  0  0
   18.8580   -8.8514  -14.8904 O   0  0  0  0  0  0  0  0  0  0  0  0
   26.0387   -4.8986  -17.5737 O   0  0  0  0  0  0  0  0  0  0  0  0
   25.1135   -5.4493  -16.6648 C   0  0  0  0  0  0  0  0  0  0  0  0
   24.4967   -4.6350  -15.7505 C   0  0  0  0  0  0  0  0  0  0  0  0
   23.5904   -5.1335  -14.8492 C   0  0  0  0  0  0  0  0  0  0  0  0
   23.2539   -6.4741  -14.8171 C   0  0  0  0  0  0  0  0  0  0  0  0
   22.3137   -7.0701  -13.8818 C   0  0  0  0  0  0  0  0  0  0  0  0
   20.8634   -7.0195  -14.2548 C   0  0  2  0  0  0  0  0  0  0  0  0
   20.6882   -7.6258  -15.5623 N   0  0  0  0  0  0  0  0  0  0  0  0
   20.4381   -5.6041  -14.3570 C   0  0  0  0  0  0  0  0  0  0  0  0
   20.3634   -4.8914  -13.3189 O   0  0  0  0  0  0  0  0  0  0  0  0
   23.8760   -7.2884  -15.7371 C   0  0  0  0  0  0  0  0  0  0  0  0
   24.7951   -6.7893  -16.6523 C   0  0  0  0  0  0  0  0  0  0  0  0
   20.1053   -4.9872  -15.5561 O   0  0  0  0  0  0  0  0  0  0  0  0
  2  1  1  6
  3  2  1  0
  4  2  1  0
  4  5  1  6
  6  7  2  0
  6  4  1  0
  9  8  1  6
  9 10  1  0
 10  6  1  0
 11 20  1  0
 11  9  1  0
 12 11  2  0
 13 14  1  0
 14 24  2  0
 14 15  1  0
 15 16  2  0
 16 17  1  0
 17 18  1  0
 19 18  1  6
 19 20  1  0
 19 21  1  0
 21 25  1  0
 22 21  2  0
 23 17  2  0
 24 23  1  0
M  END
$$$$
