VAY.pdb
     RDKit          3D

 25 25  0  0  1  0  0  0  0  0999 V2000
   18.8019   -8.3377  -21.5492 C   0  0  0  0  0  0  0  0  0  0  0  0
   18.8581   -9.6205  -20.7199 C   0  0  2  0  0  0  0  0  0  0  0  0
   17.9661  -10.6315  -21.3787 C   0  0  0  0  0  0  0  0  0  0  0  0
   18.3976   -9.2279  -19.3171 C   0  0  2  0  0  0  0  0  0  0  0  0
   16.9763   -8.8282  -19.4760 N   0  0  0  0  0  0  0  0  0  0  0  0
   19.1211   -8.0460  -18.7963 C   0  0  0  0  0  0  0  0  0  0  0  0
   20.3587   -8.1260  -18.4845 O   0  0  0  0  0  0  0  0  0  0  0  0
   18.6838   -4.3237  -18.4915 C   0  0  0  0  0  0  0  0  0  0  0  0
   19.3280   -5.6647  -18.1176 C   0  0  2  0  0  0  0  0  0  0  0  0
   18.5194   -6.7603  -18.6072 N   0  0  0  0  0  0  0  0  0  0  0  0
   19.5263   -5.6774  -16.6569 C   0  0  0  0  0  0  0  0  0  0  0  0
   18.5122   -5.7639  -15.9284 O   0  0  0  0  0  0  0  0  0  0  0  0
   23.9126  -11.3766  -15.5601 O   0  0  0  0  0  0  0  0  0  0  0  0
   23.0789  -10.2935  -15.2182 C   0  0  0  0  0  0  0  0  0  0  0  0
   23.3659   -9.5432  -14.1072 C   0  0  0  0  0  0  0  0  0  0  0  0
   22.5782   -8.4811  -13.7415 C   0  0  0  0  0  0  0  0  0  0  0  0
   21.4618   -8.1146  -14.4700 C   0  0  0  0  0  0  0  0  0  0  0  0
   20.5776   -7.0110  -14.1320 C   0  0  0  0  0  0  0  0  0  0  0  0
   20.9740   -5.6513  -14.6212 C   0  0  2  0  0  0  0  0  0  0  0  0
   20.8051   -5.5976  -16.0622 N   0  0  0  0  0  0  0  0  0  0  0  0
   22.4097   -5.4308  -14.3302 C   0  0  0  0  0  0  0  0  0  0  0  0
   22.8048   -5.3420  -13.1356 O   0  0  0  0  0  0  0  0  0  0  0  0
   21.1772   -8.8710  -15.5850 C   0  0  0  0  0  0  0  0  0  0  0  0
   21.9711   -9.9482  -15.9603 C   0  0  0  0  0  0  0  0  0  0  0  0
   23.3830   -5.3117  -15.3140 O   0  0  0  0  0  0  0  0  0  0  0  0
  2  1  1  6
  3  2  1  0
  4  2  1  0
  4  5  1  6
  6  7  2  0
  6  4  1  0
  9  8  1  1
  9 10  1  0
 10  6  1  0
 11 20  1  0
 11  9  1  0
 12 11  2  0
 13 14  1  0
 14 24  2  0
 14 15  1  0
 15 16  2  0
 16 17  1  0
 17 18  1  0
 19 18  1  6
 19 20  1  0
 19 21  1  0
 21 25  1  0
 22 21  2  0
 23 17  2  0
 24 23  1  0
M  END
$$$$
