VAY.pdb
     RDKit          3D

 25 25  0  0  1  0  0  0  0  0999 V2000
   22.3379  -15.7262  -19.5076 C   0  0  0  0  0  0  0  0  0  0  0  0
   23.4432  -14.6974  -19.7443 C   0  0  2  0  0  0  0  0  0  0  0  0
   23.4188  -14.3247  -21.1977 C   0  0  0  0  0  0  0  0  0  0  0  0
   24.7419  -15.3774  -19.3143 C   0  0  2  0  0  0  0  0  0  0  0  0
   25.0441  -16.3496  -20.3955 N   0  0  0  0  0  0  0  0  0  0  0  0
   24.5833  -16.1579  -18.0663 C   0  0  0  0  0  0  0  0  0  0  0  0
   24.3767  -15.5670  -16.9512 O   0  0  0  0  0  0  0  0  0  0  0  0
   23.4781  -19.2447  -16.6359 C   0  0  0  0  0  0  0  0  0  0  0  0
   24.6365  -18.2420  -16.7145 C   0  0  2  0  0  0  0  0  0  0  0  0
   24.6428  -17.5874  -18.0050 N   0  0  0  0  0  0  0  0  0  0  0  0
   25.8824  -18.9684  -16.4092 C   0  0  0  0  0  0  0  0  0  0  0  0
   26.4372  -19.5971  -17.3384 O   0  0  0  0  0  0  0  0  0  0  0  0
   24.8163  -20.9002   -9.1748 O   0  0  0  0  0  0  0  0  0  0  0  0
   25.6593  -20.5213  -10.2382 C   0  0  0  0  0  0  0  0  0  0  0  0
   25.4228  -19.3460  -10.9034 C   0  0  0  0  0  0  0  0  0  0  0  0
   26.2210  -18.9428  -11.9438 C   0  0  0  0  0  0  0  0  0  0  0  0
   27.2986  -19.6957  -12.3722 C   0  0  0  0  0  0  0  0  0  0  0  0
   28.1754  -19.3349  -13.4745 C   0  0  0  0  0  0  0  0  0  0  0  0
   27.7045  -19.6786  -14.8548 C   0  0  2  0  0  0  0  0  0  0  0  0
   26.4621  -18.9762  -15.1210 N   0  0  0  0  0  0  0  0  0  0  0  0
   27.4210  -21.1311  -14.9229 C   0  0  0  0  0  0  0  0  0  0  0  0
   26.2417  -21.5515  -14.7688 O   0  0  0  0  0  0  0  0  0  0  0  0
   27.5324  -20.8754  -11.7014 C   0  0  0  0  0  0  0  0  0  0  0  0
   26.7272  -21.2893  -10.6469 C   0  0  0  0  0  0  0  0  0  0  0  0
   28.3957  -22.0936  -15.1525 O   0  0  0  0  0  0  0  0  0  0  0  0
  2  1  1  6
  3  2  1  0
  4  2  1  0
  4  5  1  6
  6  7  2  0
  6  4  1  0
  9  8  1  6
  9 10  1  0
 10  6  1  0
 11 20  1  0
 11  9  1  0
 12 11  2  0
 13 14  1  0
 14 24  2  0
 14 15  1  0
 15 16  2  0
 16 17  1  0
 17 18  1  0
 19 18  1  1
 19 20  1  0
 19 21  1  0
 21 25  1  0
 22 21  2  0
 23 17  2  0
 24 23  1  0
M  END
$$$$
