IME.pdb
     RDKit          3D

 26 25  0  0  1  0  0  0  0  0999 V2000
   16.2766  -14.5062  -17.3714 C   0  0  0  0  0  0  0  0  0  0  0  0
   17.0430  -13.2747  -17.7592 C   0  0  0  0  0  0  0  0  0  0  0  0
   17.8664  -12.7317  -16.5864 C   0  0  2  0  0  0  0  0  0  0  0  0
   16.9540  -12.5105  -15.4297 C   0  0  0  0  0  0  0  0  0  0  0  0
   18.5515  -11.4828  -17.0815 C   0  0  2  0  0  0  0  0  0  0  0  0
   19.2123  -11.8571  -18.3417 N   0  0  0  0  0  0  0  0  0  0  0  0
   19.6028  -10.9927  -16.1489 C   0  0  0  0  0  0  0  0  0  0  0  0
   19.3136  -10.6256  -14.9839 O   0  0  0  0  0  0  0  0  0  0  0  0
   27.4117  -10.6164  -15.1339 C   0  0  0  0  0  0  0  0  0  0  0  0
   25.9025  -11.2489  -15.9258 S   0  0  0  0  0  0  0  0  0  0  0  0
   24.4307  -10.4028  -15.2256 C   0  0  0  0  0  0  0  0  0  0  0  0
   23.2556  -10.9307  -15.9649 C   0  0  0  0  0  0  0  0  0  0  0  0
   21.9252  -10.3184  -15.6124 C   0  0  2  0  0  0  0  0  0  0  0  0
   20.9654  -10.9231  -16.5440 N   0  0  0  0  0  0  0  0  0  0  0  0
   21.9945   -8.8565  -15.8099 C   0  0  0  0  0  0  0  0  0  0  0  0
   21.8241   -8.3736  -16.9593 O   0  0  0  0  0  0  0  0  0  0  0  0
   22.2496   -7.9971  -14.7245 N   0  0  0  0  0  0  0  0  0  0  0  0
   22.0376   -6.5469  -14.8270 C   0  0  1  0  0  0  0  0  0  0  0  0
   20.6368   -6.3919  -15.3093 C   0  0  0  0  0  0  0  0  0  0  0  0
   20.0429   -5.0316  -15.2379 C   0  0  0  0  0  0  0  0  0  0  0  0
   19.5694   -4.5328  -16.5315 C   0  0  0  0  0  0  0  0  0  0  0  0
   19.6747   -5.2301  -17.5996 O   0  0  0  0  0  0  0  0  0  0  0  0
   22.4820   -5.7994  -13.6803 C   0  0  0  0  0  0  0  0  0  0  0  0
   22.9430   -4.6094  -13.7237 O   0  0  0  0  0  0  0  0  0  0  0  0
   18.9872   -3.2782  -16.6379 O   0  0  0  0  0  0  0  0  0  0  0  0
   22.4290   -6.3398  -12.3931 O   0  0  0  0  0  0  0  0  0  0  0  0
  2  1  1  0
  3  4  1  1
  3  2  1  0
  5  3  1  0
  5  6  1  6
  7  8  2  0
  7  5  1  0
  9 10  1  0
 10 11  1  0
 11 12  1  0
 13 12  1  6
 13 14  1  0
 14  7  1  0
 15 13  1  0
 16 15  2  0
 17 15  1  0
 18 17  1  0
 18 19  1  1
 19 20  1  0
 20 21  1  0
 21 22  2  0
 23 26  1  0
 23 18  1  0
 24 23  2  0
 25 21  1  0
M  END
$$$$
