IME.pdb
     RDKit          3D

 26 25  0  0  1  0  0  0  0  0999 V2000
   28.1036  -17.8183  -17.4869 C   0  0  0  0  0  0  0  0  0  0  0  0
   28.5773  -18.7823  -16.4378 C   0  0  0  0  0  0  0  0  0  0  0  0
   27.4334  -19.2173  -15.5155 C   0  0  2  0  0  0  0  0  0  0  0  0
   26.8556  -18.0037  -14.8732 C   0  0  0  0  0  0  0  0  0  0  0  0
   28.0165  -20.2129  -14.5445 C   0  0  2  0  0  0  0  0  0  0  0  0
   28.5618  -21.3058  -15.3650 N   0  0  0  0  0  0  0  0  0  0  0  0
   26.9946  -20.7985  -13.6346 C   0  0  0  0  0  0  0  0  0  0  0  0
   26.1545  -21.6306  -14.0559 O   0  0  0  0  0  0  0  0  0  0  0  0
   27.5885  -20.0139   -7.5826 C   0  0  0  0  0  0  0  0  0  0  0  0
   25.8215  -20.3990   -7.3971 S   0  0  0  0  0  0  0  0  0  0  0  0
   25.1179  -20.8912   -9.0204 C   0  0  0  0  0  0  0  0  0  0  0  0
   26.1378  -20.5382  -10.0408 C   0  0  0  0  0  0  0  0  0  0  0  0
   25.8508  -20.9975  -11.4464 C   0  0  2  0  0  0  0  0  0  0  0  0
   26.9345  -20.4366  -12.2623 N   0  0  0  0  0  0  0  0  0  0  0  0
   24.5430  -20.4623  -11.8759 C   0  0  0  0  0  0  0  0  0  0  0  0
   24.4012  -19.2234  -12.0448 O   0  0  0  0  0  0  0  0  0  0  0  0
   23.4528  -21.3245  -12.0982 N   0  0  0  0  0  0  0  0  0  0  0  0
   22.1252  -20.8071  -12.4567 C   0  0  1  0  0  0  0  0  0  0  0  0
   21.6085  -21.7459  -13.4914 C   0  0  0  0  0  0  0  0  0  0  0  0
   20.2280  -21.5118  -13.9889 C   0  0  0  0  0  0  0  0  0  0  0  0
   19.7722  -22.5245  -14.9444 C   0  0  0  0  0  0  0  0  0  0  0  0
   20.5246  -23.4954  -15.3039 O   0  0  0  0  0  0  0  0  0  0  0  0
   21.2977  -20.4642  -11.3304 C   0  0  0  0  0  0  0  0  0  0  0  0
   21.4394  -20.9400  -10.1539 O   0  0  0  0  0  0  0  0  0  0  0  0
   18.4996  -22.4605  -15.4927 O   0  0  0  0  0  0  0  0  0  0  0  0
   20.2507  -19.5468  -11.4480 O   0  0  0  0  0  0  0  0  0  0  0  0
  2  1  1  0
  3  4  1  1
  3  2  1  0
  5  3  1  0
  5  6  1  6
  7  8  2  0
  7  5  1  0
  9 10  1  0
 10 11  1  0
 11 12  1  0
 13 12  1  1
 13 14  1  0
 14  7  1  0
 15 13  1  0
 16 15  2  0
 17 15  1  0
 18 17  1  0
 18 19  1  1
 19 20  1  0
 20 21  1  0
 21 22  2  0
 23 26  1  0
 23 18  1  0
 24 23  2  0
 25 21  1  0
M  END
$$$$
