IME.pdb
     RDKit          3D

 26 25  0  0  1  0  0  0  0  0999 V2000
   24.0883  -10.6378  -14.5256 C   0  0  0  0  0  0  0  0  0  0  0  0
   22.6475  -11.0586  -14.5639 C   0  0  0  0  0  0  0  0  0  0  0  0
   21.7251   -9.8786  -14.8880 C   0  0  2  0  0  0  0  0  0  0  0  0
   21.9716   -8.7978  -13.8928 C   0  0  0  0  0  0  0  0  0  0  0  0
   20.3165  -10.4169  -14.8804 C   0  0  2  0  0  0  0  0  0  0  0  0
   20.3242  -11.5815  -15.7796 N   0  0  0  0  0  0  0  0  0  0  0  0
   19.3236   -9.4435  -15.4112 C   0  0  0  0  0  0  0  0  0  0  0  0
   19.2552   -9.1944  -16.6396 O   0  0  0  0  0  0  0  0  0  0  0  0
   12.1502   -6.9026  -15.5083 C   0  0  0  0  0  0  0  0  0  0  0  0
   13.5124   -7.9751  -14.9614 S   0  0  0  0  0  0  0  0  0  0  0  0
   15.1229   -7.1816  -15.3475 C   0  0  0  0  0  0  0  0  0  0  0  0
   16.1732   -8.1143  -14.8648 C   0  0  0  0  0  0  0  0  0  0  0  0
   17.5969   -7.6919  -15.1173 C   0  0  2  0  0  0  0  0  0  0  0  0
   18.4221   -8.7645  -14.5487 N   0  0  0  0  0  0  0  0  0  0  0  0
   17.8548   -6.4124  -14.4263 C   0  0  0  0  0  0  0  0  0  0  0  0
   18.2578   -6.4175  -13.2343 O   0  0  0  0  0  0  0  0  0  0  0  0
   17.6541   -5.1864  -15.0881 N   0  0  0  0  0  0  0  0  0  0  0  0
   18.3919   -3.9757  -14.7024 C   0  0  1  0  0  0  0  0  0  0  0  0
   19.8251   -4.3815  -14.6891 C   0  0  0  0  0  0  0  0  0  0  0  0
   20.8225   -3.3328  -14.3522 C   0  0  0  0  0  0  0  0  0  0  0  0
   22.1985   -3.8325  -14.2956 C   0  0  0  0  0  0  0  0  0  0  0  0
   22.4734   -5.0669  -14.4929 O   0  0  0  0  0  0  0  0  0  0  0  0
   17.9954   -2.7877  -15.4112 C   0  0  0  0  0  0  0  0  0  0  0  0
   17.3784   -2.7813  -16.5291 O   0  0  0  0  0  0  0  0  0  0  0  0
   23.2542   -2.9744  -14.0243 O   0  0  0  0  0  0  0  0  0  0  0  0
   18.2590   -1.5136  -14.9024 O   0  0  0  0  0  0  0  0  0  0  0  0
  2  1  1  0
  3  4  1  1
  3  2  1  0
  5  3  1  0
  5  6  1  6
  7  8  2  0
  7  5  1  0
  9 10  1  0
 10 11  1  0
 11 12  1  0
 13 12  1  1
 13 14  1  0
 14  7  1  0
 15 13  1  0
 16 15  2  0
 17 15  1  0
 18 17  1  0
 18 19  1  6
 19 20  1  0
 20 21  1  0
 21 22  2  0
 23 26  1  0
 23 18  1  0
 24 23  2  0
 25 21  1  0
M  END
$$$$
