IME.pdb
     RDKit          3D

 26 25  0  0  1  0  0  0  0  0999 V2000
   12.3324  -12.3356  -13.0193 C   0  0  0  0  0  0  0  0  0  0  0  0
   13.4160  -11.9452  -13.9825 C   0  0  0  0  0  0  0  0  0  0  0  0
   14.2365  -10.7624  -13.4573 C   0  0  2  0  0  0  0  0  0  0  0  0
   13.3059   -9.6411  -13.1475 C   0  0  0  0  0  0  0  0  0  0  0  0
   15.2597  -10.4420  -14.5177 C   0  0  2  0  0  0  0  0  0  0  0  0
   16.0898  -11.6489  -14.6559 N   0  0  0  0  0  0  0  0  0  0  0  0
   16.1572   -9.3186  -14.1333 C   0  0  0  0  0  0  0  0  0  0  0  0
   15.6889   -8.2136  -13.7656 O   0  0  0  0  0  0  0  0  0  0  0  0
   21.9785  -11.4265  -14.1993 C   0  0  0  0  0  0  0  0  0  0  0  0
   22.1078   -9.8541  -13.2961 S   0  0  0  0  0  0  0  0  0  0  0  0
   20.4327   -9.2680  -12.8238 C   0  0  0  0  0  0  0  0  0  0  0  0
   19.8151   -8.7295  -14.0627 C   0  0  0  0  0  0  0  0  0  0  0  0
   18.3888   -8.2611  -13.9386 C   0  0  2  0  0  0  0  0  0  0  0  0
   17.5704   -9.4576  -14.1696 N   0  0  0  0  0  0  0  0  0  0  0  0
   18.1209   -7.2381  -14.9695 C   0  0  0  0  0  0  0  0  0  0  0  0
   17.8316   -7.5942  -16.1412 O   0  0  0  0  0  0  0  0  0  0  0  0
   18.1862   -5.8677  -14.6545 N   0  0  0  0  0  0  0  0  0  0  0  0
   17.8836   -4.8346  -15.6545 C   0  0  1  0  0  0  0  0  0  0  0  0
   16.8564   -3.9648  -15.0163 C   0  0  0  0  0  0  0  0  0  0  0  0
   16.3298   -2.8346  -15.8245 C   0  0  0  0  0  0  0  0  0  0  0  0
   15.3509   -2.0120  -15.1094 C   0  0  0  0  0  0  0  0  0  0  0  0
   15.0662   -2.2235  -13.8797 O   0  0  0  0  0  0  0  0  0  0  0  0
   19.0440   -4.2376  -16.2611 C   0  0  0  0  0  0  0  0  0  0  0  0
   20.1683   -4.0793  -15.6767 O   0  0  0  0  0  0  0  0  0  0  0  0
   14.6975   -0.9693  -15.7501 O   0  0  0  0  0  0  0  0  0  0  0  0
   19.0230   -3.7823  -17.5817 O   0  0  0  0  0  0  0  0  0  0  0  0
  2  1  1  0
  3  4  1  6
  3  2  1  0
  5  3  1  0
  5  6  1  1
  7  8  2  0
  7  5  1  0
  9 10  1  0
 10 11  1  0
 11 12  1  0
 13 12  1  6
 13 14  1  0
 14  7  1  0
 15 13  1  0
 16 15  2  0
 17 15  1  0
 18 17  1  0
 18 19  1  1
 19 20  1  0
 20 21  1  0
 21 22  2  0
 23 26  1  0
 23 18  1  0
 24 23  2  0
 25 21  1  0
M  END
$$$$
