IME.pdb
     RDKit          3D

 26 25  0  0  1  0  0  0  0  0999 V2000
   26.8634  -20.3254   -2.8751 C   0  0  0  0  0  0  0  0  0  0  0  0
   27.6159  -19.5492   -3.9170 C   0  0  0  0  0  0  0  0  0  0  0  0
   27.2152  -19.9738   -5.3338 C   0  0  2  0  0  0  0  0  0  0  0  0
   27.3543  -21.4530   -5.4418 C   0  0  0  0  0  0  0  0  0  0  0  0
   28.0954  -19.1989   -6.2820 C   0  0  2  0  0  0  0  0  0  0  0  0
   27.7138  -17.7866   -6.1245 N   0  0  0  0  0  0  0  0  0  0  0  0
   27.8761  -19.5694   -7.7066 C   0  0  0  0  0  0  0  0  0  0  0  0
   26.9511  -19.0474   -8.3756 O   0  0  0  0  0  0  0  0  0  0  0  0
   32.8254  -22.2921  -10.9428 C   0  0  0  0  0  0  0  0  0  0  0  0
   31.3683  -22.8850  -11.8541 S   0  0  0  0  0  0  0  0  0  0  0  0
   29.9909  -21.6837  -11.6752 C   0  0  0  0  0  0  0  0  0  0  0  0
   29.7818  -21.5039  -10.2157 C   0  0  0  0  0  0  0  0  0  0  0  0
   28.6239  -20.6259   -9.8187 C   0  0  2  0  0  0  0  0  0  0  0  0
   28.7031  -20.5241   -8.3565 N   0  0  0  0  0  0  0  0  0  0  0  0
   27.3606  -21.2711  -10.2296 C   0  0  0  0  0  0  0  0  0  0  0  0
   26.9337  -22.2688   -9.5925 O   0  0  0  0  0  0  0  0  0  0  0  0
   26.6286  -20.7810  -11.3275 N   0  0  0  0  0  0  0  0  0  0  0  0
   25.4546  -21.4948  -11.8480 C   0  0  1  0  0  0  0  0  0  0  0  0
   24.3476  -20.4987  -11.8150 C   0  0  0  0  0  0  0  0  0  0  0  0
   23.0284  -20.9350  -12.3415 C   0  0  0  0  0  0  0  0  0  0  0  0
   22.0340  -19.8601  -12.3883 C   0  0  0  0  0  0  0  0  0  0  0  0
   22.3309  -18.6563  -12.0711 O   0  0  0  0  0  0  0  0  0  0  0  0
   25.7012  -22.2448  -13.0513 C   0  0  0  0  0  0  0  0  0  0  0  0
   26.7041  -22.0710  -13.8224 O   0  0  0  0  0  0  0  0  0  0  0  0
   20.7290  -20.1178  -12.7819 O   0  0  0  0  0  0  0  0  0  0  0  0
   24.8344  -23.2577  -13.4690 O   0  0  0  0  0  0  0  0  0  0  0  0
  2  1  1  0
  3  4  1  1
  3  2  1  0
  5  3  1  0
  5  6  1  6
  7  8  2  0
  7  5  1  0
  9 10  1  0
 10 11  1  0
 11 12  1  0
 13 12  1  1
 13 14  1  0
 14  7  1  0
 15 13  1  0
 16 15  2  0
 17 15  1  0
 18 17  1  0
 18 19  1  6
 19 20  1  0
 20 21  1  0
 21 22  2  0
 23 26  1  0
 23 18  1  0
 24 23  2  0
 25 21  1  0
M  END
$$$$
