IME.pdb
     RDKit          3D

 26 25  0  0  1  0  0  0  0  0999 V2000
   17.4343  -14.1250  -18.4203 C   0  0  0  0  0  0  0  0  0  0  0  0
   18.8643  -14.2961  -17.9958 C   0  0  0  0  0  0  0  0  0  0  0  0
   19.4077  -13.0299  -17.3253 C   0  0  2  0  0  0  0  0  0  0  0  0
   19.2788  -11.8951  -18.2818 C   0  0  0  0  0  0  0  0  0  0  0  0
   20.8263  -13.3340  -16.9139 C   0  0  2  0  0  0  0  0  0  0  0  0
   20.7429  -14.4751  -15.9889 N   0  0  0  0  0  0  0  0  0  0  0  0
   21.4699  -12.2077  -16.1843 C   0  0  0  0  0  0  0  0  0  0  0  0
   21.0042  -11.7928  -15.0950 O   0  0  0  0  0  0  0  0  0  0  0  0
   28.1698  -12.8099  -15.2676 C   0  0  0  0  0  0  0  0  0  0  0  0
   27.1546  -11.5701  -16.1261 S   0  0  0  0  0  0  0  0  0  0  0  0
   25.4204  -11.6639  -15.5292 C   0  0  0  0  0  0  0  0  0  0  0  0
   24.6952  -10.5418  -16.1780 C   0  0  0  0  0  0  0  0  0  0  0  0
   23.2146  -10.4708  -15.9098 C   0  0  2  0  0  0  0  0  0  0  0  0
   22.6295  -11.5649  -16.6941 N   0  0  0  0  0  0  0  0  0  0  0  0
   22.6988   -9.1653  -16.3688 C   0  0  0  0  0  0  0  0  0  0  0  0
   22.4550   -8.9854  -17.5901 O   0  0  0  0  0  0  0  0  0  0  0  0
   22.4770   -8.1193  -15.4532 N   0  0  0  0  0  0  0  0  0  0  0  0
   21.9824   -6.8070  -15.8916 C   0  0  1  0  0  0  0  0  0  0  0  0
   20.5006   -6.8874  -15.7634 C   0  0  0  0  0  0  0  0  0  0  0  0
   19.7216   -5.6815  -16.1466 C   0  0  0  0  0  0  0  0  0  0  0  0
   18.2713   -5.8765  -16.0757 C   0  0  0  0  0  0  0  0  0  0  0  0
   17.7607   -6.9909  -15.7077 O   0  0  0  0  0  0  0  0  0  0  0  0
   22.6860   -5.6874  -15.3236 C   0  0  0  0  0  0  0  0  0  0  0  0
   23.2941   -5.7061  -14.2009 O   0  0  0  0  0  0  0  0  0  0  0  0
   17.4004   -4.8492  -16.4083 O   0  0  0  0  0  0  0  0  0  0  0  0
   22.7633   -4.4617  -15.9893 O   0  0  0  0  0  0  0  0  0  0  0  0
  2  1  1  0
  3  4  1  6
  3  2  1  0
  5  3  1  0
  5  6  1  1
  7  8  2  0
  7  5  1  0
  9 10  1  0
 10 11  1  0
 11 12  1  0
 13 12  1  6
 13 14  1  0
 14  7  1  0
 15 13  1  0
 16 15  2  0
 17 15  1  0
 18 17  1  0
 18 19  1  1
 19 20  1  0
 20 21  1  0
 21 22  2  0
 23 26  1  0
 23 18  1  0
 24 23  2  0
 25 21  1  0
M  END
$$$$
