IME.pdb
     RDKit          3D

 26 25  0  0  1  0  0  0  0  0999 V2000
   21.1225  -18.0108  -16.3585 C   0  0  0  0  0  0  0  0  0  0  0  0
   21.1362  -16.6378  -16.9660 C   0  0  0  0  0  0  0  0  0  0  0  0
   21.5496  -15.5740  -15.9434 C   0  0  2  0  0  0  0  0  0  0  0  0
   20.6604  -15.6901  -14.7538 C   0  0  0  0  0  0  0  0  0  0  0  0
   21.4692  -14.2433  -16.6483 C   0  0  2  0  0  0  0  0  0  0  0  0
   22.2806  -14.3823  -17.8677 N   0  0  0  0  0  0  0  0  0  0  0  0
   22.0460  -13.1297  -15.8469 C   0  0  0  0  0  0  0  0  0  0  0  0
   21.5544  -12.8094  -14.7372 O   0  0  0  0  0  0  0  0  0  0  0  0
   28.7682  -13.0963  -15.1320 C   0  0  0  0  0  0  0  0  0  0  0  0
   27.6518  -11.7771  -15.6964 S   0  0  0  0  0  0  0  0  0  0  0  0
   25.9251  -12.1736  -15.2130 C   0  0  0  0  0  0  0  0  0  0  0  0
   25.0749  -11.0988  -15.7857 C   0  0  0  0  0  0  0  0  0  0  0  0
   23.5953  -11.2227  -15.5317 C   0  0  2  0  0  0  0  0  0  0  0  0
   23.1691  -12.3928  -16.3089 N   0  0  0  0  0  0  0  0  0  0  0  0
   22.9154  -10.0021  -16.0101 C   0  0  0  0  0  0  0  0  0  0  0  0
   22.8992   -9.7387  -17.2404 O   0  0  0  0  0  0  0  0  0  0  0  0
   22.2848   -9.1297  -15.1030 N   0  0  0  0  0  0  0  0  0  0  0  0
   21.5932   -7.9163  -15.5592 C   0  0  1  0  0  0  0  0  0  0  0  0
   20.2521   -8.3802  -16.0121 C   0  0  0  0  0  0  0  0  0  0  0  0
   19.3037   -7.3423  -16.4930 C   0  0  0  0  0  0  0  0  0  0  0  0
   17.9981   -7.8804  -16.8833 C   0  0  0  0  0  0  0  0  0  0  0  0
   17.1210   -8.2125  -16.0124 O   0  0  0  0  0  0  0  0  0  0  0  0
   21.6923   -6.8010  -14.6551 C   0  0  0  0  0  0  0  0  0  0  0  0
   21.5403   -5.5785  -14.9910 O   0  0  0  0  0  0  0  0  0  0  0  0
   17.6709   -8.0474  -18.2210 O   0  0  0  0  0  0  0  0  0  0  0  0
   21.9618   -6.9859  -13.2968 O   0  0  0  0  0  0  0  0  0  0  0  0
  2  1  1  0
  3  4  1  1
  3  2  1  0
  5  3  1  0
  5  6  1  6
  7  8  2  0
  7  5  1  0
  9 10  1  0
 10 11  1  0
 11 12  1  0
 13 12  1  6
 13 14  1  0
 14  7  1  0
 15 13  1  0
 16 15  2  0
 17 15  1  0
 18 17  1  0
 18 19  1  1
 19 20  1  0
 20 21  1  0
 21 22  2  0
 23 26  1  0
 23 18  1  0
 24 23  2  0
 25 21  1  0
M  END
$$$$
