IME.pdb
     RDKit          3D

 26 25  0  0  1  0  0  0  0  0999 V2000
   28.7727  -11.6879  -15.9348 C   0  0  0  0  0  0  0  0  0  0  0  0
   27.3814  -12.1848  -15.6671 C   0  0  0  0  0  0  0  0  0  0  0  0
   26.3244  -11.1853  -16.1490 C   0  0  2  0  0  0  0  0  0  0  0  0
   26.4799   -9.9219  -15.3751 C   0  0  0  0  0  0  0  0  0  0  0  0
   24.9850  -11.8562  -15.9755 C   0  0  2  0  0  0  0  0  0  0  0  0
   25.0853  -13.1459  -16.6766 N   0  0  0  0  0  0  0  0  0  0  0  0
   23.8707  -11.0900  -16.5972 C   0  0  0  0  0  0  0  0  0  0  0  0
   23.7401  -11.0359  -17.8445 O   0  0  0  0  0  0  0  0  0  0  0  0
   18.5304  -13.5360  -18.4762 C   0  0  0  0  0  0  0  0  0  0  0  0
   18.8415  -12.2872  -17.1922 S   0  0  0  0  0  0  0  0  0  0  0  0
   20.4811  -11.5071  -17.4669 C   0  0  0  0  0  0  0  0  0  0  0  0
   20.6371  -10.4802  -16.4051 C   0  0  0  0  0  0  0  0  0  0  0  0
   21.8751   -9.6263  -16.4903 C   0  0  2  0  0  0  0  0  0  0  0  0
   22.9198  -10.3952  -15.8031 N   0  0  0  0  0  0  0  0  0  0  0  0
   21.6306   -8.3441  -15.7996 C   0  0  0  0  0  0  0  0  0  0  0  0
   21.7276   -8.2823  -14.5465 O   0  0  0  0  0  0  0  0  0  0  0  0
   21.2896   -7.1896  -16.5293 N   0  0  0  0  0  0  0  0  0  0  0  0
   21.0494   -5.9027  -15.8622 C   0  0  1  0  0  0  0  0  0  0  0  0
   21.9081   -4.9237  -16.5854 C   0  0  0  0  0  0  0  0  0  0  0  0
   21.8966   -3.5212  -16.0946 C   0  0  0  0  0  0  0  0  0  0  0  0
   22.7955   -2.6351  -16.8383 C   0  0  0  0  0  0  0  0  0  0  0  0
   23.5666   -3.0791  -17.7582 O   0  0  0  0  0  0  0  0  0  0  0  0
   19.6603   -5.6008  -15.6374 C   0  0  0  0  0  0  0  0  0  0  0  0
   18.6916   -6.1047  -16.2993 O   0  0  0  0  0  0  0  0  0  0  0  0
   22.8375   -1.2757  -16.5651 O   0  0  0  0  0  0  0  0  0  0  0  0
   19.2607   -4.7110  -14.6373 O   0  0  0  0  0  0  0  0  0  0  0  0
  2  1  1  0
  3  4  1  1
  3  2  1  0
  5  3  1  0
  5  6  1  6
  7  8  2  0
  7  5  1  0
  9 10  1  0
 10 11  1  0
 11 12  1  0
 13 12  1  1
 13 14  1  0
 14  7  1  0
 15 13  1  0
 16 15  2  0
 17 15  1  0
 18 17  1  0
 18 19  1  6
 19 20  1  0
 20 21  1  0
 21 22  2  0
 23 26  1  0
 23 18  1  0
 24 23  2  0
 25 21  1  0
M  END
$$$$
