IME.pdb
     RDKit          3D

 26 25  0  0  1  0  0  0  0  0999 V2000
   18.4222  -15.8765  -16.5111 C   0  0  0  0  0  0  0  0  0  0  0  0
   18.0210  -14.4390  -16.6760 C   0  0  0  0  0  0  0  0  0  0  0  0
   19.2279  -13.5515  -16.9986 C   0  0  2  0  0  0  0  0  0  0  0  0
   20.2342  -13.7072  -15.9112 C   0  0  0  0  0  0  0  0  0  0  0  0
   18.7010  -12.1474  -17.1575 C   0  0  2  0  0  0  0  0  0  0  0  0
   17.6964  -12.2119  -18.2305 N   0  0  0  0  0  0  0  0  0  0  0  0
   19.7512  -11.1811  -17.5799 C   0  0  0  0  0  0  0  0  0  0  0  0
   20.6875  -10.8645  -16.8061 O   0  0  0  0  0  0  0  0  0  0  0  0
   21.5040  -10.0922  -23.7456 C   0  0  0  0  0  0  0  0  0  0  0  0
   21.2874   -8.4132  -23.0830 S   0  0  0  0  0  0  0  0  0  0  0  0
   21.6059   -8.4118  -21.2744 C   0  0  0  0  0  0  0  0  0  0  0  0
   20.6561   -9.3889  -20.6834 C   0  0  0  0  0  0  0  0  0  0  0  0
   20.7804   -9.6144  -19.1992 C   0  0  2  0  0  0  0  0  0  0  0  0
   19.7300  -10.5852  -18.8691 N   0  0  0  0  0  0  0  0  0  0  0  0
   20.5528   -8.3379  -18.4921 C   0  0  0  0  0  0  0  0  0  0  0  0
   19.3960   -7.8442  -18.4532 O   0  0  0  0  0  0  0  0  0  0  0  0
   21.6175   -7.6674  -17.8610 N   0  0  0  0  0  0  0  0  0  0  0  0
   21.4115   -6.3994  -17.1480 C   0  0  1  0  0  0  0  0  0  0  0  0
   21.9161   -6.6430  -15.7678 C   0  0  0  0  0  0  0  0  0  0  0  0
   21.9430   -5.4811  -14.8420 C   0  0  0  0  0  0  0  0  0  0  0  0
   22.5574   -5.7812  -13.5463 C   0  0  0  0  0  0  0  0  0  0  0  0
   22.9633   -6.9588  -13.2521 O   0  0  0  0  0  0  0  0  0  0  0  0
   21.8494   -5.2342  -17.8703 C   0  0  0  0  0  0  0  0  0  0  0  0
   22.8181   -5.2174  -18.7021 O   0  0  0  0  0  0  0  0  0  0  0  0
   22.7192   -4.7883  -12.5911 O   0  0  0  0  0  0  0  0  0  0  0  0
   21.2163   -3.9989  -17.7130 O   0  0  0  0  0  0  0  0  0  0  0  0
  2  1  1  0
  3  4  1  1
  3  2  1  0
  5  3  1  0
  5  6  1  6
  7  8  2  0
  7  5  1  0
  9 10  1  0
 10 11  1  0
 11 12  1  0
 13 12  1  6
 13 14  1  0
 14  7  1  0
 15 13  1  0
 16 15  2  0
 17 15  1  0
 18 17  1  0
 18 19  1  1
 19 20  1  0
 20 21  1  0
 21 22  2  0
 23 26  1  0
 23 18  1  0
 24 23  2  0
 25 21  1  0
M  END
$$$$
