IME.pdb
     RDKit          3D

 26 25  0  0  1  0  0  0  0  0999 V2000
   14.0676  -27.2987   -5.0456 C   0  0  0  0  0  0  0  0  0  0  0  0
   15.4024  -26.6934   -4.7196 C   0  0  0  0  0  0  0  0  0  0  0  0
   16.0019  -27.3043   -3.4485 C   0  0  2  0  0  0  0  0  0  0  0  0
   15.0653  -27.0565   -2.3169 C   0  0  0  0  0  0  0  0  0  0  0  0
   17.3642  -26.6822   -3.2715 C   0  0  2  0  0  0  0  0  0  0  0  0
   18.1477  -27.0830   -4.4507 N   0  0  0  0  0  0  0  0  0  0  0  0
   18.0759  -27.1845   -2.0648 C   0  0  0  0  0  0  0  0  0  0  0  0
   18.3719  -28.3987   -1.9473 O   0  0  0  0  0  0  0  0  0  0  0  0
   23.3491  -23.9409   -0.4121 C   0  0  0  0  0  0  0  0  0  0  0  0
   22.0448  -24.1663    0.8341 S   0  0  0  0  0  0  0  0  0  0  0  0
   21.3761  -25.8736    0.7335 C   0  0  0  0  0  0  0  0  0  0  0  0
   19.8968  -25.7443    0.7667 C   0  0  0  0  0  0  0  0  0  0  0  0
   19.1213  -26.8848    0.1608 C   0  0  2  0  0  0  0  0  0  0  0  0
   18.4433  -26.3101   -1.0074 N   0  0  0  0  0  0  0  0  0  0  0  0
   18.1374  -27.3811    1.1440 C   0  0  0  0  0  0  0  0  0  0  0  0
   17.0689  -26.7440    1.3332 O   0  0  0  0  0  0  0  0  0  0  0  0
   18.3830  -28.5604    1.8723 N   0  0  0  0  0  0  0  0  0  0  0  0
   17.4487  -29.0358    2.9017 C   0  0  1  0  0  0  0  0  0  0  0  0
   17.7194  -30.4951    3.0284 C   0  0  0  0  0  0  0  0  0  0  0  0
   17.4533  -31.3390    1.8346 C   0  0  0  0  0  0  0  0  0  0  0  0
   17.1334  -32.7304    2.1630 C   0  0  0  0  0  0  0  0  0  0  0  0
   17.3237  -33.2044    3.3365 O   0  0  0  0  0  0  0  0  0  0  0  0
   17.4001  -28.2160    4.0836 C   0  0  0  0  0  0  0  0  0  0  0  0
   16.3765  -28.0871    4.8360 O   0  0  0  0  0  0  0  0  0  0  0  0
   16.6095  -33.5834    1.2026 O   0  0  0  0  0  0  0  0  0  0  0  0
   18.5122  -27.4860    4.5101 O   0  0  0  0  0  0  0  0  0  0  0  0
  2  1  1  0
  3  4  1  1
  3  2  1  0
  5  3  1  0
  5  6  1  6
  7  8  2  0
  7  5  1  0
  9 10  1  0
 10 11  1  0
 11 12  1  0
 13 12  1  1
 13 14  1  0
 14  7  1  0
 15 13  1  0
 16 15  2  0
 17 15  1  0
 18 17  1  0
 18 19  1  1
 19 20  1  0
 20 21  1  0
 21 22  2  0
 23 26  1  0
 23 18  1  0
 24 23  2  0
 25 21  1  0
M  END
$$$$
