IME.pdb
     RDKit          3D

 26 25  0  0  1  0  0  0  0  0999 V2000
   18.4294  -12.2614  -21.4721 C   0  0  0  0  0  0  0  0  0  0  0  0
   19.5733  -12.8541  -20.7011 C   0  0  0  0  0  0  0  0  0  0  0  0
   20.0002  -11.9475  -19.5417 C   0  0  2  0  0  0  0  0  0  0  0  0
   20.4110  -10.6284  -20.0988 C   0  0  0  0  0  0  0  0  0  0  0  0
   21.0958  -12.6761  -18.8048 C   0  0  2  0  0  0  0  0  0  0  0  0
   20.4804  -13.9040  -18.2771 N   0  0  0  0  0  0  0  0  0  0  0  0
   21.6259  -11.9039  -17.6481 C   0  0  0  0  0  0  0  0  0  0  0  0
   20.9471  -11.7582  -16.6023 O   0  0  0  0  0  0  0  0  0  0  0  0
   27.3468  -12.2295  -15.2753 C   0  0  0  0  0  0  0  0  0  0  0  0
   27.2991  -10.4226  -15.4698 S   0  0  0  0  0  0  0  0  0  0  0  0
   25.5565   -9.8435  -15.4806 C   0  0  0  0  0  0  0  0  0  0  0  0
   24.8424  -10.6895  -16.4708 C   0  0  0  0  0  0  0  0  0  0  0  0
   23.3468  -10.5191  -16.5270 C   0  0  2  0  0  0  0  0  0  0  0  0
   22.9140  -11.3066  -17.6877 N   0  0  0  0  0  0  0  0  0  0  0  0
   23.0265   -9.0899  -16.7169 C   0  0  0  0  0  0  0  0  0  0  0  0
   23.2288   -8.5485  -17.8346 O   0  0  0  0  0  0  0  0  0  0  0  0
   22.4970   -8.3266  -15.6593 N   0  0  0  0  0  0  0  0  0  0  0  0
   22.1004   -6.9245  -15.8478 C   0  0  1  0  0  0  0  0  0  0  0  0
   20.9205   -6.9729  -16.7557 C   0  0  0  0  0  0  0  0  0  0  0  0
   20.2287   -5.6880  -17.0357 C   0  0  0  0  0  0  0  0  0  0  0  0
   19.0386   -5.8370  -17.8769 C   0  0  0  0  0  0  0  0  0  0  0  0
   18.6688   -6.9789  -18.3213 O   0  0  0  0  0  0  0  0  0  0  0  0
   22.0311   -6.1585  -14.6314 C   0  0  0  0  0  0  0  0  0  0  0  0
   22.0830   -6.6557  -13.4564 O   0  0  0  0  0  0  0  0  0  0  0  0
   18.2697   -4.7344  -18.2198 O   0  0  0  0  0  0  0  0  0  0  0  0
   21.9077   -4.7671  -14.6526 O   0  0  0  0  0  0  0  0  0  0  0  0
  2  1  1  0
  3  4  1  6
  3  2  1  0
  5  3  1  0
  5  6  1  1
  7  8  2  0
  7  5  1  0
  9 10  1  0
 10 11  1  0
 11 12  1  0
 13 12  1  6
 13 14  1  0
 14  7  1  0
 15 13  1  0
 16 15  2  0
 17 15  1  0
 18 17  1  0
 18 19  1  1
 19 20  1  0
 20 21  1  0
 21 22  2  0
 23 26  1  0
 23 18  1  0
 24 23  2  0
 25 21  1  0
M  END
$$$$
