IME.pdb
     RDKit          3D

 26 25  0  0  1  0  0  0  0  0999 V2000
   18.9283  -19.8252  -10.3964 C   0  0  0  0  0  0  0  0  0  0  0  0
   20.0588  -20.8093  -10.3067 C   0  0  0  0  0  0  0  0  0  0  0  0
   21.3980  -20.1633  -10.6776 C   0  0  2  0  0  0  0  0  0  0  0  0
   21.2643  -19.5350  -12.0216 C   0  0  0  0  0  0  0  0  0  0  0  0
   22.4378  -21.2531  -10.6049 C   0  0  2  0  0  0  0  0  0  0  0  0
   22.3730  -21.7825   -9.2336 N   0  0  0  0  0  0  0  0  0  0  0  0
   23.8199  -20.7482  -10.8288 C   0  0  0  0  0  0  0  0  0  0  0  0
   24.1381  -20.1920  -11.9081 O   0  0  0  0  0  0  0  0  0  0  0  0
   27.3228  -19.0085   -4.8952 C   0  0  0  0  0  0  0  0  0  0  0  0
   27.7364  -20.0099   -6.3550 S   0  0  0  0  0  0  0  0  0  0  0  0
   26.5703  -19.6294   -7.7217 C   0  0  0  0  0  0  0  0  0  0  0  0
   26.9414  -20.5244   -8.8474 C   0  0  0  0  0  0  0  0  0  0  0  0
   26.1586  -20.3411  -10.1213 C   0  0  2  0  0  0  0  0  0  0  0  0
   24.8236  -20.8784   -9.8321 N   0  0  0  0  0  0  0  0  0  0  0  0
   26.8063  -21.1072  -11.2052 C   0  0  0  0  0  0  0  0  0  0  0  0
   27.0329  -22.3353  -11.0516 O   0  0  0  0  0  0  0  0  0  0  0  0
   27.1732  -20.4768  -12.4092 N   0  0  0  0  0  0  0  0  0  0  0  0
   27.2164  -21.2136  -13.6796 C   0  0  1  0  0  0  0  0  0  0  0  0
   25.9046  -21.9138  -13.7677 C   0  0  0  0  0  0  0  0  0  0  0  0
   25.6679  -22.7597  -14.9663 C   0  0  0  0  0  0  0  0  0  0  0  0
   24.7008  -22.1849  -15.9047 C   0  0  0  0  0  0  0  0  0  0  0  0
   25.0378  -21.8427  -17.0910 O   0  0  0  0  0  0  0  0  0  0  0  0
   27.6868  -20.4405  -14.7986 C   0  0  0  0  0  0  0  0  0  0  0  0
   27.4669  -19.1935  -14.9631 O   0  0  0  0  0  0  0  0  0  0  0  0
   23.3785  -21.9929  -15.5317 O   0  0  0  0  0  0  0  0  0  0  0  0
   28.4522  -21.0194  -15.8138 O   0  0  0  0  0  0  0  0  0  0  0  0
  2  1  1  0
  3  4  1  6
  3  2  1  0
  5  3  1  0
  5  6  1  1
  7  8  2  0
  7  5  1  0
  9 10  1  0
 10 11  1  0
 11 12  1  0
 13 12  1  1
 13 14  1  0
 14  7  1  0
 15 13  1  0
 16 15  2  0
 17 15  1  0
 18 17  1  0
 18 19  1  6
 19 20  1  0
 20 21  1  0
 21 22  2  0
 23 26  1  0
 23 18  1  0
 24 23  2  0
 25 21  1  0
M  END
$$$$
