IME.pdb
     RDKit          3D

 26 25  0  0  1  0  0  0  0  0999 V2000
   30.7849  -21.1518  -11.6316 C   0  0  0  0  0  0  0  0  0  0  0  0
   29.4590  -20.6255  -12.1000 C   0  0  0  0  0  0  0  0  0  0  0  0
   29.1785  -21.0205  -13.5538 C   0  0  2  0  0  0  0  0  0  0  0  0
   30.2832  -20.5002  -14.4072 C   0  0  0  0  0  0  0  0  0  0  0  0
   27.8184  -20.4668  -13.8969 C   0  0  2  0  0  0  0  0  0  0  0  0
   27.8995  -19.0177  -13.6557 N   0  0  0  0  0  0  0  0  0  0  0  0
   26.7384  -21.0091  -13.0282 C   0  0  0  0  0  0  0  0  0  0  0  0
   26.2837  -22.1653  -13.2075 O   0  0  0  0  0  0  0  0  0  0  0  0
   27.1602  -20.0627   -6.2890 C   0  0  0  0  0  0  0  0  0  0  0  0
   25.7973  -19.6921   -7.4336 S   0  0  0  0  0  0  0  0  0  0  0  0
   26.0563  -20.5822   -9.0189 C   0  0  0  0  0  0  0  0  0  0  0  0
   24.9872  -20.1154   -9.9383 C   0  0  0  0  0  0  0  0  0  0  0  0
   24.9759  -20.7415  -11.3083 C   0  0  2  0  0  0  0  0  0  0  0  0
   26.1862  -20.2393  -11.9699 N   0  0  0  0  0  0  0  0  0  0  0  0
   23.7654  -20.3050  -12.0330 C   0  0  0  0  0  0  0  0  0  0  0  0
   23.6993  -19.1339  -12.4885 O   0  0  0  0  0  0  0  0  0  0  0  0
   22.6838  -21.1865  -12.2194 N   0  0  0  0  0  0  0  0  0  0  0  0
   21.5057  -20.8005  -13.0079 C   0  0  1  0  0  0  0  0  0  0  0  0
   21.2741  -21.9369  -13.9427 C   0  0  0  0  0  0  0  0  0  0  0  0
   20.1170  -21.8268  -14.8685 C   0  0  0  0  0  0  0  0  0  0  0  0
   19.1425  -22.9101  -14.7162 C   0  0  0  0  0  0  0  0  0  0  0  0
   18.0284  -22.9047  -15.3462 O   0  0  0  0  0  0  0  0  0  0  0  0
   20.4111  -20.2869  -12.2273 C   0  0  0  0  0  0  0  0  0  0  0  0
   19.4932  -19.5227  -12.6789 O   0  0  0  0  0  0  0  0  0  0  0  0
   19.4010  -23.9840  -13.8770 O   0  0  0  0  0  0  0  0  0  0  0  0
   20.2665  -20.6082  -10.8755 O   0  0  0  0  0  0  0  0  0  0  0  0
  2  1  1  0
  3  4  1  6
  3  2  1  0
  5  3  1  0
  5  6  1  1
  7  8  2  0
  7  5  1  0
  9 10  1  0
 10 11  1  0
 11 12  1  0
 13 12  1  1
 13 14  1  0
 14  7  1  0
 15 13  1  0
 16 15  2  0
 17 15  1  0
 18 17  1  0
 18 19  1  1
 19 20  1  0
 20 21  1  0
 21 22  2  0
 23 26  1  0
 23 18  1  0
 24 23  2  0
 25 21  1  0
M  END
$$$$
