HVR.pdb
     RDKit          3D

 29 29  0  0  1  0  0  0  0  0999 V2000
    7.8671  -17.0704   16.4112 N   0  0  0  0  0  0  0  0  0  0  0  0
    9.2461  -16.6515   16.4557 C   0  0  1  0  0  0  0  0  0  0  0  0
    9.5776  -15.8347   15.2153 C   0  0  0  0  0  0  0  0  0  0  0  0
    9.2976  -16.6459   14.0033 C   0  0  0  0  0  0  0  0  0  0  0  0
    8.0879  -16.7328   13.3314 C   0  0  0  0  0  0  0  0  0  0  0  0
    8.2113  -17.5598   12.2783 N   0  0  0  0  0  0  0  0  0  0  0  0
    9.4941  -17.9874   12.2935 C   0  0  0  0  0  0  0  0  0  0  0  0
   10.1430  -17.4384   13.3281 N   0  0  0  0  0  0  0  0  0  0  0  0
    9.4532  -15.7631   17.6222 C   0  0  0  0  0  0  0  0  0  0  0  0
   10.5971  -15.2908   17.8221 O   0  0  0  0  0  0  0  0  0  0  0  0
    7.3681  -12.7180   19.0708 C   0  0  0  0  0  0  0  0  0  0  0  0
    7.5438  -13.7875   20.1026 C   0  0  2  0  0  0  0  0  0  0  0  0
    7.7517  -13.2369   21.4992 C   0  0  0  0  0  0  0  0  0  0  0  0
    8.7230  -14.7002   19.7242 C   0  0  2  0  0  0  0  0  0  0  0  0
    8.4117  -15.4262   18.5193 N   0  0  0  0  0  0  0  0  0  0  0  0
    8.8902  -15.6113   20.8945 C   0  0  0  0  0  0  0  0  0  0  0  0
    7.9392  -16.3424   21.2782 O   0  0  0  0  0  0  0  0  0  0  0  0
   15.8901  -20.3375   21.4730 N   0  0  0  0  0  0  0  0  0  0  0  0
   14.9453  -20.7046   20.4882 C   0  0  0  0  0  0  0  0  0  0  0  0
   14.8361  -21.9268   20.0640 N   0  0  0  0  0  0  0  0  0  0  0  0
   14.0541  -19.7674   19.8966 N   0  0  0  0  0  0  0  0  0  0  0  0
   12.6585  -19.6311   20.2637 C   0  0  0  0  0  0  0  0  0  0  0  0
   12.4039  -18.6692   21.3459 C   0  0  0  0  0  0  0  0  0  0  0  0
   11.6740  -17.4317   21.1534 C   0  0  0  0  0  0  0  0  0  0  0  0
   10.7216  -16.8664   22.1201 C   0  0  2  0  0  0  0  0  0  0  0  0
   10.1385  -15.6262   21.5520 N   0  0  0  0  0  0  0  0  0  0  0  0
   11.1818  -16.5447   23.4617 C   0  0  0  0  0  0  0  0  0  0  0  0
   10.9512  -15.2347   23.9508 O   0  0  0  0  0  0  0  0  0  0  0  0
   11.7627  -17.3112   24.2283 O   0  0  0  0  0  0  0  0  0  0  0  0
  2  1  1  6
  3  4  1  0
  3  2  1  0
  4  8  1  0
  5  6  1  0
  5  4  2  0
  6  7  1  0
  7  8  2  0
  9  2  1  0
  9 10  2  0
 12 14  1  0
 12 11  1  6
 13 12  1  0
 14 15  1  6
 15  9  1  0
 16 14  1  0
 17 16  2  0
 18 19  1  0
 19 20  2  0
 19 21  1  0
 21 22  1  0
 22 23  1  0
 23 24  1  0
 25 24  1  6
 25 27  1  0
 25 26  1  0
 26 16  1  0
 27 28  1  0
 29 27  2  0
M  END
$$$$
