HVR.pdb
     RDKit          3D

 29 29  0  0  1  0  0  0  0  0999 V2000
    7.6174  -17.4244   21.5357 N   0  0  0  0  0  0  0  0  0  0  0  0
    6.8197  -17.1807   22.7119 C   0  0  1  0  0  0  0  0  0  0  0  0
    6.6281  -18.4783   23.4834 C   0  0  0  0  0  0  0  0  0  0  0  0
    5.6636  -19.3436   22.7580 C   0  0  0  0  0  0  0  0  0  0  0  0
    5.0181  -19.0411   21.5686 C   0  0  0  0  0  0  0  0  0  0  0  0
    4.2223  -20.0640   21.2106 N   0  0  0  0  0  0  0  0  0  0  0  0
    4.3708  -21.0016   22.1737 C   0  0  0  0  0  0  0  0  0  0  0  0
    5.2350  -20.5675   23.0998 N   0  0  0  0  0  0  0  0  0  0  0  0
    7.5397  -16.2497   23.6105 C   0  0  0  0  0  0  0  0  0  0  0  0
    8.7867  -16.3433   23.6986 O   0  0  0  0  0  0  0  0  0  0  0  0
    6.3603  -12.3967   24.4955 C   0  0  0  0  0  0  0  0  0  0  0  0
    6.7818  -13.2043   25.6826 C   0  0  2  0  0  0  0  0  0  0  0  0
    7.5327  -12.3911   26.7178 C   0  0  0  0  0  0  0  0  0  0  0  0
    7.6449  -14.3959   25.2335 C   0  0  2  0  0  0  0  0  0  0  0  0
    6.8764  -15.2589   24.3729 N   0  0  0  0  0  0  0  0  0  0  0  0
    8.0374  -15.0808   26.5002 C   0  0  0  0  0  0  0  0  0  0  0  0
    7.1806  -15.6973   27.1871 O   0  0  0  0  0  0  0  0  0  0  0  0
    9.8367  -21.6893   29.9521 N   0  0  0  0  0  0  0  0  0  0  0  0
   10.9208  -21.0163   30.5598 C   0  0  0  0  0  0  0  0  0  0  0  0
   11.6178  -21.5579   31.5118 N   0  0  0  0  0  0  0  0  0  0  0  0
   11.3212  -19.7073   30.1739 N   0  0  0  0  0  0  0  0  0  0  0  0
   10.6248  -18.9025   29.1900 C   0  0  0  0  0  0  0  0  0  0  0  0
   11.3173  -17.6602   28.8180 C   0  0  0  0  0  0  0  0  0  0  0  0
   10.7940  -16.7191   27.8474 C   0  0  0  0  0  0  0  0  0  0  0  0
    9.8724  -15.6189   28.1659 C   0  0  2  0  0  0  0  0  0  0  0  0
    9.3888  -15.0148   26.9001 N   0  0  0  0  0  0  0  0  0  0  0  0
   10.3370  -14.5279   29.0079 C   0  0  0  0  0  0  0  0  0  0  0  0
   10.2166  -14.6704   30.4129 O   0  0  0  0  0  0  0  0  0  0  0  0
   10.8331  -13.4736   28.6143 O   0  0  0  0  0  0  0  0  0  0  0  0
  2  1  1  6
  3  4  1  0
  3  2  1  0
  4  8  1  0
  5  6  1  0
  5  4  2  0
  6  7  1  0
  7  8  2  0
  9  2  1  0
  9 10  2  0
 12 14  1  0
 12 11  1  6
 13 12  1  0
 14 15  1  6
 15  9  1  0
 16 14  1  0
 17 16  2  0
 18 19  1  0
 19 20  2  0
 19 21  1  0
 21 22  1  0
 22 23  1  0
 23 24  1  0
 25 24  1  6
 25 27  1  0
 25 26  1  0
 26 16  1  0
 27 28  1  0
 29 27  2  0
M  END
$$$$
