HVR.pdb
     RDKit          3D

 29 29  0  0  1  0  0  0  0  0999 V2000
    6.9399  -14.8759   21.1238 N   0  0  0  0  0  0  0  0  0  0  0  0
    8.3677  -14.7480   21.2787 C   0  0  1  0  0  0  0  0  0  0  0  0
    8.8871  -13.6366   20.3784 C   0  0  0  0  0  0  0  0  0  0  0  0
    8.3984  -13.8572   18.9935 C   0  0  0  0  0  0  0  0  0  0  0  0
    7.3453  -13.1991   18.3767 C   0  0  0  0  0  0  0  0  0  0  0  0
    7.1945  -13.6587   17.1221 N   0  0  0  0  0  0  0  0  0  0  0  0
    8.1505  -14.6007   16.9569 C   0  0  0  0  0  0  0  0  0  0  0  0
    8.8706  -14.7178   18.0797 N   0  0  0  0  0  0  0  0  0  0  0  0
    8.6781  -14.3521   22.6714 C   0  0  0  0  0  0  0  0  0  0  0  0
    9.8736  -14.1397   22.9834 O   0  0  0  0  0  0  0  0  0  0  0  0
    6.3871  -12.0985   25.0528 C   0  0  0  0  0  0  0  0  0  0  0  0
    6.8913  -13.3012   25.7868 C   0  0  2  0  0  0  0  0  0  0  0  0
    7.3106  -12.9952   27.2106 C   0  0  0  0  0  0  0  0  0  0  0  0
    8.0684  -13.9327   25.0238 C   0  0  2  0  0  0  0  0  0  0  0  0
    7.6796  -14.2037   23.6632 N   0  0  0  0  0  0  0  0  0  0  0  0
    8.3796  -15.1856   25.7730 C   0  0  0  0  0  0  0  0  0  0  0  0
    7.4631  -15.9935   26.0786 O   0  0  0  0  0  0  0  0  0  0  0  0
   13.6308  -17.2564   23.5363 N   0  0  0  0  0  0  0  0  0  0  0  0
   14.5359  -17.3008   24.6208 C   0  0  0  0  0  0  0  0  0  0  0  0
   15.6198  -16.5863   24.6396 N   0  0  0  0  0  0  0  0  0  0  0  0
   14.3245  -18.1259   25.7598 N   0  0  0  0  0  0  0  0  0  0  0  0
   13.1720  -18.9870   25.9356 C   0  0  0  0  0  0  0  0  0  0  0  0
   12.0597  -18.3733   26.6755 C   0  0  0  0  0  0  0  0  0  0  0  0
   11.2859  -17.2585   26.1658 C   0  0  0  0  0  0  0  0  0  0  0  0
   10.1397  -16.6529   26.8593 C   0  0  2  0  0  0  0  0  0  0  0  0
    9.7232  -15.4328   26.1253 N   0  0  0  0  0  0  0  0  0  0  0  0
   10.2746  -16.2824   28.2591 C   0  0  0  0  0  0  0  0  0  0  0  0
   10.0308  -17.2761   29.2398 O   0  0  0  0  0  0  0  0  0  0  0  0
   10.5849  -15.1709   28.6844 O   0  0  0  0  0  0  0  0  0  0  0  0
  2  1  1  1
  3  4  1  0
  3  2  1  0
  4  8  1  0
  5  6  1  0
  5  4  2  0
  6  7  1  0
  7  8  2  0
  9  2  1  0
  9 10  2  0
 12 14  1  0
 12 11  1  6
 13 12  1  0
 14 15  1  6
 15  9  1  0
 16 14  1  0
 17 16  2  0
 18 19  1  0
 19 20  2  0
 19 21  1  0
 21 22  1  0
 22 23  1  0
 23 24  1  0
 25 24  1  6
 25 27  1  0
 25 26  1  0
 26 16  1  0
 27 28  1  0
 29 27  2  0
M  END
$$$$
