HVR.pdb
     RDKit          3D

 29 29  0  0  1  0  0  0  0  0999 V2000
    9.7759  -14.1508   20.8209 N   0  0  0  0  0  0  0  0  0  0  0  0
    8.5042  -13.8444   21.4273 C   0  0  1  0  0  0  0  0  0  0  0  0
    7.4196  -14.7257   20.8253 C   0  0  0  0  0  0  0  0  0  0  0  0
    7.3322  -14.4694   19.3652 C   0  0  0  0  0  0  0  0  0  0  0  0
    7.0021  -13.2673   18.7580 C   0  0  0  0  0  0  0  0  0  0  0  0
    7.0269  -13.4116   17.4213 N   0  0  0  0  0  0  0  0  0  0  0  0
    7.3713  -14.6996   17.1956 C   0  0  0  0  0  0  0  0  0  0  0  0
    7.5537  -15.3314   18.3620 N   0  0  0  0  0  0  0  0  0  0  0  0
    8.5597  -14.1597   22.8731 C   0  0  0  0  0  0  0  0  0  0  0  0
    9.3552  -15.0461   23.2646 O   0  0  0  0  0  0  0  0  0  0  0  0
    7.5250  -12.7230   27.4932 C   0  0  0  0  0  0  0  0  0  0  0  0
    7.0920  -12.7737   26.0617 C   0  0  2  0  0  0  0  0  0  0  0  0
    5.7353  -13.4227   25.8744 C   0  0  0  0  0  0  0  0  0  0  0  0
    8.1423  -13.5145   25.2163 C   0  0  2  0  0  0  0  0  0  0  0  0
    7.7515  -13.5004   23.8297 N   0  0  0  0  0  0  0  0  0  0  0  0
    8.1702  -14.8996   25.7718 C   0  0  0  0  0  0  0  0  0  0  0  0
    7.1730  -15.6590   25.6496 O   0  0  0  0  0  0  0  0  0  0  0  0
   13.8698  -20.3654   25.3751 N   0  0  0  0  0  0  0  0  0  0  0  0
   13.0013  -20.1440   24.2825 C   0  0  0  0  0  0  0  0  0  0  0  0
   13.4078  -20.2372   23.0530 N   0  0  0  0  0  0  0  0  0  0  0  0
   11.6303  -19.8055   24.4519 N   0  0  0  0  0  0  0  0  0  0  0  0
   10.9306  -19.8641   25.7199 C   0  0  0  0  0  0  0  0  0  0  0  0
   11.1144  -18.6810   26.5729 C   0  0  0  0  0  0  0  0  0  0  0  0
   10.5880  -17.3721   26.2398 C   0  0  0  0  0  0  0  0  0  0  0  0
    9.4960  -16.7039   26.9626 C   0  0  2  0  0  0  0  0  0  0  0  0
    9.3409  -15.3266   26.4335 N   0  0  0  0  0  0  0  0  0  0  0  0
    9.5670  -16.5979   28.4113 C   0  0  0  0  0  0  0  0  0  0  0  0
    9.3615  -17.7721   29.1780 O   0  0  0  0  0  0  0  0  0  0  0  0
    9.7917  -15.5708   29.0493 O   0  0  0  0  0  0  0  0  0  0  0  0
  2  1  1  6
  3  4  1  0
  3  2  1  0
  4  8  1  0
  5  6  1  0
  5  4  2  0
  6  7  1  0
  7  8  2  0
  9  2  1  0
  9 10  2  0
 12 14  1  0
 12 11  1  1
 13 12  1  0
 14 15  1  6
 15  9  1  0
 16 14  1  0
 17 16  2  0
 18 19  1  0
 19 20  2  0
 19 21  1  0
 21 22  1  0
 22 23  1  0
 23 24  1  0
 25 24  1  6
 25 27  1  0
 25 26  1  0
 26 16  1  0
 27 28  1  0
 29 27  2  0
M  END
$$$$
