HVR.pdb
     RDKit          3D

 29 29  0  0  1  0  0  0  0  0999 V2000
    9.6190  -13.1366   20.9477 N   0  0  0  0  0  0  0  0  0  0  0  0
    8.3591  -13.5823   21.4890 C   0  0  1  0  0  0  0  0  0  0  0  0
    7.9720  -14.9151   20.8652 C   0  0  0  0  0  0  0  0  0  0  0  0
    7.6504  -14.7110   19.4298 C   0  0  0  0  0  0  0  0  0  0  0  0
    7.7811  -13.5294   18.7160 C   0  0  0  0  0  0  0  0  0  0  0  0
    7.3980  -13.7234   17.4419 N   0  0  0  0  0  0  0  0  0  0  0  0
    7.0294  -15.0220   17.3611 C   0  0  0  0  0  0  0  0  0  0  0  0
    7.1816  -15.6116   18.5536 N   0  0  0  0  0  0  0  0  0  0  0  0
    8.5038  -13.8157   22.9441 C   0  0  0  0  0  0  0  0  0  0  0  0
    9.5803  -14.2952   23.3716 O   0  0  0  0  0  0  0  0  0  0  0  0
    6.3005  -11.6928   25.6498 C   0  0  0  0  0  0  0  0  0  0  0  0
    6.5594  -13.0992   26.0907 C   0  0  2  0  0  0  0  0  0  0  0  0
    6.8607  -13.2112   27.5718 C   0  0  0  0  0  0  0  0  0  0  0  0
    7.7175  -13.7043   25.2788 C   0  0  2  0  0  0  0  0  0  0  0  0
    7.4760  -13.5188   23.8706 N   0  0  0  0  0  0  0  0  0  0  0  0
    7.7320  -15.1487   25.6546 C   0  0  0  0  0  0  0  0  0  0  0  0
    6.6808  -15.8389   25.5867 O   0  0  0  0  0  0  0  0  0  0  0  0
   11.9422  -20.5889   21.1388 N   0  0  0  0  0  0  0  0  0  0  0  0
   12.2481  -19.6792   22.1763 C   0  0  0  0  0  0  0  0  0  0  0  0
   13.2128  -18.8168   22.0703 N   0  0  0  0  0  0  0  0  0  0  0  0
   11.5256  -19.6451   23.4009 N   0  0  0  0  0  0  0  0  0  0  0  0
   10.2653  -18.9523   23.5807 C   0  0  0  0  0  0  0  0  0  0  0  0
   10.3441  -17.7530   24.4273 C   0  0  0  0  0  0  0  0  0  0  0  0
   10.1531  -17.7810   25.8640 C   0  0  0  0  0  0  0  0  0  0  0  0
    9.0542  -17.1086   26.5722 C   0  0  2  0  0  0  0  0  0  0  0  0
    8.9523  -15.7109   26.0856 N   0  0  0  0  0  0  0  0  0  0  0  0
    9.0780  -17.0528   28.0253 C   0  0  0  0  0  0  0  0  0  0  0  0
    9.4430  -15.8295   28.6409 O   0  0  0  0  0  0  0  0  0  0  0  0
    8.8080  -17.9796   28.7874 O   0  0  0  0  0  0  0  0  0  0  0  0
  2  1  1  6
  3  4  1  0
  3  2  1  0
  4  8  1  0
  5  6  1  0
  5  4  2  0
  6  7  1  0
  7  8  2  0
  9  2  1  0
  9 10  2  0
 12 14  1  0
 12 11  1  6
 13 12  1  0
 14 15  1  6
 15  9  1  0
 16 14  1  0
 17 16  2  0
 18 19  1  0
 19 20  2  0
 19 21  1  0
 21 22  1  0
 22 23  1  0
 23 24  1  0
 25 24  1  6
 25 27  1  0
 25 26  1  0
 26 16  1  0
 27 28  1  0
 29 27  2  0
M  END
$$$$
