HVR.pdb
     RDKit          3D

 29 29  0  0  1  0  0  0  0  0999 V2000
    9.7065  -17.3577   15.8450 N   0  0  0  0  0  0  0  0  0  0  0  0
    8.5624  -17.0641   16.6719 C   0  0  1  0  0  0  0  0  0  0  0  0
    7.8760  -18.3588   17.0820 C   0  0  0  0  0  0  0  0  0  0  0  0
    7.0109  -18.8299   15.9707 C   0  0  0  0  0  0  0  0  0  0  0  0
    6.8227  -18.2007   14.7495 C   0  0  0  0  0  0  0  0  0  0  0  0
    5.9738  -18.9194   13.9940 N   0  0  0  0  0  0  0  0  0  0  0  0
    5.6335  -19.9935   14.7418 C   0  0  0  0  0  0  0  0  0  0  0  0
    6.2563  -19.9376   15.9258 N   0  0  0  0  0  0  0  0  0  0  0  0
    9.0127  -16.4038   17.9185 C   0  0  0  0  0  0  0  0  0  0  0  0
   10.0647  -16.8091   18.4669 O   0  0  0  0  0  0  0  0  0  0  0  0
    8.7329  -12.6162   21.0622 C   0  0  0  0  0  0  0  0  0  0  0  0
    8.0753  -13.3815   19.9571 C   0  0  2  0  0  0  0  0  0  0  0  0
    6.6253  -13.7143   20.2463 C   0  0  0  0  0  0  0  0  0  0  0  0
    8.8570  -14.6750   19.6702 C   0  0  2  0  0  0  0  0  0  0  0  0
    8.3035  -15.3341   18.5147 N   0  0  0  0  0  0  0  0  0  0  0  0
    8.7008  -15.4965   20.9065 C   0  0  0  0  0  0  0  0  0  0  0  0
    7.7720  -16.3418   21.0009 O   0  0  0  0  0  0  0  0  0  0  0  0
   16.0647  -19.6567   22.5378 N   0  0  0  0  0  0  0  0  0  0  0  0
   15.0613  -20.2462   23.3397 C   0  0  0  0  0  0  0  0  0  0  0  0
   15.2625  -21.3540   23.9861 N   0  0  0  0  0  0  0  0  0  0  0  0
   13.7696  -19.6714   23.4935 N   0  0  0  0  0  0  0  0  0  0  0  0
   13.2802  -18.5536   22.7113 C   0  0  0  0  0  0  0  0  0  0  0  0
   11.9719  -18.0368   23.1385 C   0  0  0  0  0  0  0  0  0  0  0  0
   11.2992  -16.9351   22.4790 C   0  0  0  0  0  0  0  0  0  0  0  0
   10.0027  -16.3807   22.8951 C   0  0  2  0  0  0  0  0  0  0  0  0
    9.6202  -15.2962   21.9579 N   0  0  0  0  0  0  0  0  0  0  0  0
    9.8593  -15.8499   24.2415 C   0  0  0  0  0  0  0  0  0  0  0  0
    9.6675  -14.4538   24.3924 O   0  0  0  0  0  0  0  0  0  0  0  0
    9.8889  -16.5048   25.2821 O   0  0  0  0  0  0  0  0  0  0  0  0
  2  1  1  6
  3  4  1  0
  3  2  1  0
  4  8  1  0
  5  6  1  0
  5  4  2  0
  6  7  1  0
  7  8  2  0
  9  2  1  0
  9 10  2  0
 12 14  1  0
 12 11  1  1
 13 12  1  0
 14 15  1  6
 15  9  1  0
 16 14  1  0
 17 16  2  0
 18 19  1  0
 19 20  2  0
 19 21  1  0
 21 22  1  0
 22 23  1  0
 23 24  1  0
 25 24  1  6
 25 27  1  0
 25 26  1  0
 26 16  1  0
 27 28  1  0
 29 27  2  0
M  END
$$$$
