HVR.pdb
     RDKit          3D

 29 29  0  0  1  0  0  0  0  0999 V2000
    9.1162  -17.4780   16.4623 N   0  0  0  0  0  0  0  0  0  0  0  0
    8.1064  -17.3988   17.4884 C   0  0  1  0  0  0  0  0  0  0  0  0
    7.7515  -18.7972   17.9722 C   0  0  0  0  0  0  0  0  0  0  0  0
    6.9409  -19.4850   16.9352 C   0  0  0  0  0  0  0  0  0  0  0  0
    5.6907  -19.0988   16.4763 C   0  0  0  0  0  0  0  0  0  0  0  0
    5.2665  -19.9596   15.5345 N   0  0  0  0  0  0  0  0  0  0  0  0
    6.2490  -20.8800   15.4065 C   0  0  0  0  0  0  0  0  0  0  0  0
    7.2513  -20.5934   16.2469 N   0  0  0  0  0  0  0  0  0  0  0  0
    8.6473  -16.6656   18.6557 C   0  0  0  0  0  0  0  0  0  0  0  0
    9.7807  -16.9794   19.0898 O   0  0  0  0  0  0  0  0  0  0  0  0
    7.4996  -12.7919   19.7001 C   0  0  0  0  0  0  0  0  0  0  0  0
    7.6567  -13.7527   20.8365 C   0  0  2  0  0  0  0  0  0  0  0  0
    8.2289  -13.1091   22.0835 C   0  0  0  0  0  0  0  0  0  0  0  0
    8.5423  -14.9365   20.4109 C   0  0  2  0  0  0  0  0  0  0  0  0
    7.9364  -15.6251   19.2998 N   0  0  0  0  0  0  0  0  0  0  0  0
    8.6271  -15.8036   21.6227 C   0  0  0  0  0  0  0  0  0  0  0  0
    7.6573  -16.5344   21.9567 O   0  0  0  0  0  0  0  0  0  0  0  0
   13.9716  -21.7027   23.1742 N   0  0  0  0  0  0  0  0  0  0  0  0
   13.6220  -20.6490   22.2996 C   0  0  0  0  0  0  0  0  0  0  0  0
   13.2801  -20.8661   21.0661 N   0  0  0  0  0  0  0  0  0  0  0  0
   13.6205  -19.2862   22.7065 N   0  0  0  0  0  0  0  0  0  0  0  0
   13.3259  -18.8419   24.0543 C   0  0  0  0  0  0  0  0  0  0  0  0
   11.9736  -18.2939   24.2337 C   0  0  0  0  0  0  0  0  0  0  0  0
   11.3484  -17.3950   23.2838 C   0  0  0  0  0  0  0  0  0  0  0  0
   10.0666  -16.7095   23.5038 C   0  0  2  0  0  0  0  0  0  0  0  0
    9.8197  -15.7775   22.3762 N   0  0  0  0  0  0  0  0  0  0  0  0
    9.8694  -15.9544   24.7311 C   0  0  0  0  0  0  0  0  0  0  0  0
    9.7306  -16.6748   25.9437 O   0  0  0  0  0  0  0  0  0  0  0  0
    9.8098  -14.7294   24.8227 O   0  0  0  0  0  0  0  0  0  0  0  0
  2  1  1  6
  3  4  1  0
  3  2  1  0
  4  8  1  0
  5  6  1  0
  5  4  2  0
  6  7  1  0
  7  8  2  0
  9  2  1  0
  9 10  2  0
 12 14  1  0
 12 11  1  6
 13 12  1  0
 14 15  1  6
 15  9  1  0
 16 14  1  0
 17 16  2  0
 18 19  1  0
 19 20  2  0
 19 21  1  0
 21 22  1  0
 22 23  1  0
 23 24  1  0
 25 24  1  6
 25 27  1  0
 25 26  1  0
 26 16  1  0
 27 28  1  0
 29 27  2  0
M  END
$$$$
