HVR.pdb
     RDKit          3D

 29 29  0  0  1  0  0  0  0  0999 V2000
    8.2884  -17.7621   17.5677 N   0  0  0  0  0  0  0  0  0  0  0  0
    9.4922  -16.9783   17.4437 C   0  0  1  0  0  0  0  0  0  0  0  0
    9.3648  -16.0190   16.2694 C   0  0  0  0  0  0  0  0  0  0  0  0
    9.2124  -16.7969   15.0136 C   0  0  0  0  0  0  0  0  0  0  0  0
   10.2371  -17.2888   14.2195 C   0  0  0  0  0  0  0  0  0  0  0  0
    9.7205  -17.9452   13.1659 N   0  0  0  0  0  0  0  0  0  0  0  0
    8.3776  -17.8629   13.3022 C   0  0  0  0  0  0  0  0  0  0  0  0
    8.0756  -17.1743   14.4102 N   0  0  0  0  0  0  0  0  0  0  0  0
    9.6667  -16.1489   18.6580 C   0  0  0  0  0  0  0  0  0  0  0  0
   10.7278  -15.4946   18.7913 O   0  0  0  0  0  0  0  0  0  0  0  0
    7.2812  -13.6529   20.4169 C   0  0  0  0  0  0  0  0  0  0  0  0
    7.7492  -14.6529   21.4269 C   0  0  2  0  0  0  0  0  0  0  0  0
    8.0476  -14.0364   22.7788 C   0  0  0  0  0  0  0  0  0  0  0  0
    8.9959  -15.3885   20.9059 C   0  0  2  0  0  0  0  0  0  0  0  0
    8.6840  -16.0654   19.6729 N   0  0  0  0  0  0  0  0  0  0  0  0
    9.3534  -16.3481   21.9917 C   0  0  0  0  0  0  0  0  0  0  0  0
    8.5458  -17.2486   22.3423 O   0  0  0  0  0  0  0  0  0  0  0  0
   17.3034  -19.9731   23.3907 N   0  0  0  0  0  0  0  0  0  0  0  0
   16.5679  -20.1766   24.5802 C   0  0  0  0  0  0  0  0  0  0  0  0
   17.0014  -20.9459   25.5319 N   0  0  0  0  0  0  0  0  0  0  0  0
   15.3095  -19.5572   24.8165 N   0  0  0  0  0  0  0  0  0  0  0  0
   14.6204  -18.7250   23.8504 C   0  0  0  0  0  0  0  0  0  0  0  0
   13.4549  -18.0066   24.3860 C   0  0  0  0  0  0  0  0  0  0  0  0
   12.6020  -17.1603   23.5750 C   0  0  0  0  0  0  0  0  0  0  0  0
   11.1326  -17.2064   23.5820 C   0  0  2  0  0  0  0  0  0  0  0  0
   10.6155  -16.2140   22.6080 N   0  0  0  0  0  0  0  0  0  0  0  0
   10.4235  -16.9850   24.8323 C   0  0  0  0  0  0  0  0  0  0  0  0
   10.2780  -18.0797   25.7208 O   0  0  0  0  0  0  0  0  0  0  0  0
    9.9279  -15.9220   25.2022 O   0  0  0  0  0  0  0  0  0  0  0  0
  2  1  1  1
  3  4  1  0
  3  2  1  0
  4  8  1  0
  5  6  1  0
  5  4  2  0
  6  7  1  0
  7  8  2  0
  9  2  1  0
  9 10  2  0
 12 14  1  0
 12 11  1  6
 13 12  1  0
 14 15  1  6
 15  9  1  0
 16 14  1  0
 17 16  2  0
 18 19  1  0
 19 20  2  0
 19 21  1  0
 21 22  1  0
 22 23  1  0
 23 24  1  0
 25 24  1  1
 25 27  1  0
 25 26  1  0
 26 16  1  0
 27 28  1  0
 29 27  2  0
M  END
$$$$
