HVR.pdb
     RDKit          3D

 29 29  0  0  1  0  0  0  0  0999 V2000
    6.8151  -13.8872   21.2081 N   0  0  0  0  0  0  0  0  0  0  0  0
    8.0579  -14.5642   21.4839 C   0  0  1  0  0  0  0  0  0  0  0  0
    9.1237  -14.1086   20.4979 C   0  0  0  0  0  0  0  0  0  0  0  0
    8.5893  -14.2078   19.1159 C   0  0  0  0  0  0  0  0  0  0  0  0
    8.0521  -13.1740   18.3640 C   0  0  0  0  0  0  0  0  0  0  0  0
    7.6749  -13.6367   17.1592 N   0  0  0  0  0  0  0  0  0  0  0  0
    7.9758  -14.9550   17.1596 C   0  0  0  0  0  0  0  0  0  0  0  0
    8.5236  -15.2948   18.3332 N   0  0  0  0  0  0  0  0  0  0  0  0
    8.5342  -14.1878   22.8345 C   0  0  0  0  0  0  0  0  0  0  0  0
    9.7104  -13.7734   22.9630 O   0  0  0  0  0  0  0  0  0  0  0  0
    6.0821  -13.5173   26.2459 C   0  0  0  0  0  0  0  0  0  0  0  0
    7.4985  -13.0614   26.0876 C   0  0  2  0  0  0  0  0  0  0  0  0
    7.6147  -11.7041   25.4235 C   0  0  0  0  0  0  0  0  0  0  0  0
    8.3034  -14.1005   25.2882 C   0  0  2  0  0  0  0  0  0  0  0  0
    7.7149  -14.2769   23.9850 N   0  0  0  0  0  0  0  0  0  0  0  0
    8.2311  -15.3481   26.1042 C   0  0  0  0  0  0  0  0  0  0  0  0
    7.2558  -16.1358   25.9850 O   0  0  0  0  0  0  0  0  0  0  0  0
   15.0786  -17.7607   22.8381 N   0  0  0  0  0  0  0  0  0  0  0  0
   13.9057  -18.5334   22.6815 C   0  0  0  0  0  0  0  0  0  0  0  0
   13.6270  -19.1394   21.5676 N   0  0  0  0  0  0  0  0  0  0  0  0
   12.9548  -18.7001   23.7259 N   0  0  0  0  0  0  0  0  0  0  0  0
   13.0792  -18.1014   25.0400 C   0  0  0  0  0  0  0  0  0  0  0  0
   11.8568  -18.1596   25.8546 C   0  0  0  0  0  0  0  0  0  0  0  0
   10.9773  -17.0238   26.0496 C   0  0  0  0  0  0  0  0  0  0  0  0
    9.9415  -16.9403   27.0895 C   0  0  2  0  0  0  0  0  0  0  0  0
    9.2826  -15.6136   27.0067 N   0  0  0  0  0  0  0  0  0  0  0  0
   10.3166  -17.1432   28.4798 C   0  0  0  0  0  0  0  0  0  0  0  0
   10.6896  -18.4484   28.8876 O   0  0  0  0  0  0  0  0  0  0  0  0
   10.3424  -16.2782   29.3537 O   0  0  0  0  0  0  0  0  0  0  0  0
  2  1  1  6
  3  4  1  0
  3  2  1  0
  4  8  1  0
  5  6  1  0
  5  4  2  0
  6  7  1  0
  7  8  2  0
  9  2  1  0
  9 10  2  0
 12 14  1  0
 12 11  1  6
 13 12  1  0
 14 15  1  6
 15  9  1  0
 16 14  1  0
 17 16  2  0
 18 19  1  0
 19 20  2  0
 19 21  1  0
 21 22  1  0
 22 23  1  0
 23 24  1  0
 25 24  1  6
 25 27  1  0
 25 26  1  0
 26 16  1  0
 27 28  1  0
 29 27  2  0
M  END
$$$$
