HVR.pdb
     RDKit          3D

 29 29  0  0  1  0  0  0  0  0999 V2000
    6.8831  -17.1485   19.5935 N   0  0  0  0  0  0  0  0  0  0  0  0
    8.2541  -16.7365   19.4213 C   0  0  1  0  0  0  0  0  0  0  0  0
    8.3694  -15.8196   18.2123 C   0  0  0  0  0  0  0  0  0  0  0  0
    8.0943  -16.5974   16.9775 C   0  0  0  0  0  0  0  0  0  0  0  0
    8.9758  -17.4452   16.3242 C   0  0  0  0  0  0  0  0  0  0  0  0
    8.3778  -17.9779   15.2441 N   0  0  0  0  0  0  0  0  0  0  0  0
    7.1272  -17.4640   15.2238 C   0  0  0  0  0  0  0  0  0  0  0  0
    6.9597  -16.6371   16.2635 N   0  0  0  0  0  0  0  0  0  0  0  0
    8.6829  -15.9487   20.5995 C   0  0  0  0  0  0  0  0  0  0  0  0
    8.8385  -14.7115   20.4707 O   0  0  0  0  0  0  0  0  0  0  0  0
    8.3626  -13.9470   24.5215 C   0  0  0  0  0  0  0  0  0  0  0  0
    8.0387  -14.8137   23.3455 C   0  0  2  0  0  0  0  0  0  0  0  0
    6.8207  -15.6873   23.5692 C   0  0  0  0  0  0  0  0  0  0  0  0
    9.2487  -15.6932   22.9861 C   0  0  2  0  0  0  0  0  0  0  0  0
    8.9235  -16.5366   21.8642 N   0  0  0  0  0  0  0  0  0  0  0  0
    9.5206  -16.4890   24.2192 C   0  0  0  0  0  0  0  0  0  0  0  0
    8.6178  -17.1994   24.7352 O   0  0  0  0  0  0  0  0  0  0  0  0
   13.9801  -20.8584   22.2315 N   0  0  0  0  0  0  0  0  0  0  0  0
   13.5487  -19.8657   21.3228 C   0  0  0  0  0  0  0  0  0  0  0  0
   13.1933  -20.1553   20.1082 N   0  0  0  0  0  0  0  0  0  0  0  0
   13.4743  -18.4892   21.6728 N   0  0  0  0  0  0  0  0  0  0  0  0
   14.0700  -17.9218   22.8661 C   0  0  0  0  0  0  0  0  0  0  0  0
   13.5121  -18.4312   24.1273 C   0  0  0  0  0  0  0  0  0  0  0  0
   12.8892  -17.5798   25.1216 C   0  0  0  0  0  0  0  0  0  0  0  0
   11.4543  -17.5836   25.4414 C   0  0  2  0  0  0  0  0  0  0  0  0
   10.8118  -16.4193   24.7836 N   0  0  0  0  0  0  0  0  0  0  0  0
   11.0400  -17.5671   26.8353 C   0  0  0  0  0  0  0  0  0  0  0  0
   10.4092  -16.3987   27.3310 O   0  0  0  0  0  0  0  0  0  0  0  0
   11.1857  -18.4837   27.6422 O   0  0  0  0  0  0  0  0  0  0  0  0
  2  1  1  1
  3  4  1  0
  3  2  1  0
  4  8  1  0
  5  6  1  0
  5  4  2  0
  6  7  1  0
  7  8  2  0
  9  2  1  0
  9 10  2  0
 12 14  1  0
 12 11  1  1
 13 12  1  0
 14 15  1  6
 15  9  1  0
 16 14  1  0
 17 16  2  0
 18 19  1  0
 19 20  2  0
 19 21  1  0
 21 22  1  0
 22 23  1  0
 23 24  1  0
 25 24  1  1
 25 27  1  0
 25 26  1  0
 26 16  1  0
 27 28  1  0
 29 27  2  0
M  END
$$$$
