ACA.pdb
     RDKit          3D

 17 16  0  0  1  0  0  0  0  0999 V2000
   11.5493  -10.3850  -10.7403 C   0  0  0  0  0  0  0  0  0  0  0  0
   12.6760  -11.3078  -11.2166 C   0  0  2  0  0  0  0  0  0  0  0  0
   12.5384  -12.5349  -10.4595 N   0  0  0  0  0  0  0  0  0  0  0  0
   13.9963  -10.7299  -10.9661 C   0  0  0  0  0  0  0  0  0  0  0  0
   14.4673  -10.7428   -9.8028 O   0  0  0  0  0  0  0  0  0  0  0  0
   14.8190  -10.1331  -11.9701 N   0  0  0  0  0  0  0  0  0  0  0  0
   16.1061   -9.5851  -11.6693 C   0  0  1  0  0  0  0  0  0  0  0  0
   17.0234   -9.9054  -12.8583 C   0  0  0  0  0  0  0  0  0  0  0  0
   18.6789   -9.2748  -12.4922 S   0  0  0  0  0  0  0  0  0  0  0  0
   16.1003   -8.1129  -11.5315 C   0  0  0  0  0  0  0  0  0  0  0  0
   15.5339   -7.4572  -12.4496 O   0  0  0  0  0  0  0  0  0  0  0  0
   16.7022   -5.5351   -8.9777 C   0  0  0  0  0  0  0  0  0  0  0  0
   16.5709   -5.9626  -10.4261 C   0  0  2  0  0  0  0  0  0  0  0  0
   16.6737   -7.4075  -10.4648 N   0  0  0  0  0  0  0  0  0  0  0  0
   17.6143   -5.3197  -11.2765 C   0  0  0  0  0  0  0  0  0  0  0  0
   18.5616   -5.9247  -11.7993 O   0  0  0  0  0  0  0  0  0  0  0  0
   17.4856   -3.9476  -11.4761 O   0  0  0  0  0  0  0  0  0  0  0  0
  2  1  1  1
  2  4  1  0
  3  2  1  0
  4  6  1  0
  5  4  2  0
  6  7  1  0
  7  8  1  6
  8  9  1  0
 10 14  1  0
 10  7  1  0
 11 10  2  0
 13 12  1  1
 13 14  1  0
 13 15  1  0
 15 17  1  0
 16 15  2  0
M  END
$$$$
