ACA.pdb
     RDKit          3D

 17 16  0  0  1  0  0  0  0  0999 V2000
   18.0103   -9.7779  -17.6567 C   0  0  0  0  0  0  0  0  0  0  0  0
   19.3751   -9.7774  -16.9603 C   0  0  2  0  0  0  0  0  0  0  0  0
   19.4820  -11.0534  -16.2832 N   0  0  0  0  0  0  0  0  0  0  0  0
   19.4858   -8.6980  -15.9791 C   0  0  0  0  0  0  0  0  0  0  0  0
   18.6504   -8.6218  -15.0455 O   0  0  0  0  0  0  0  0  0  0  0  0
   20.4998   -7.6918  -15.9981 N   0  0  0  0  0  0  0  0  0  0  0  0
   20.5180   -6.6151  -15.0560 C   0  0  1  0  0  0  0  0  0  0  0  0
   21.9272   -6.5694  -14.4480 C   0  0  0  0  0  0  0  0  0  0  0  0
   22.0281   -5.1437  -13.3393 S   0  0  0  0  0  0  0  0  0  0  0  0
   20.2864   -5.2911  -15.6724 C   0  0  0  0  0  0  0  0  0  0  0  0
   21.0848   -4.9405  -16.5852 O   0  0  0  0  0  0  0  0  0  0  0  0
   17.6618   -2.7512  -15.9646 C   0  0  0  0  0  0  0  0  0  0  0  0
   19.1251   -3.1444  -16.0047 C   0  0  2  0  0  0  0  0  0  0  0  0
   19.2545   -4.4126  -15.3155 N   0  0  0  0  0  0  0  0  0  0  0  0
   19.9842   -2.0962  -15.3816 C   0  0  0  0  0  0  0  0  0  0  0  0
   20.6080   -2.2424  -14.3204 O   0  0  0  0  0  0  0  0  0  0  0  0
   20.0690   -0.8850  -16.0634 O   0  0  0  0  0  0  0  0  0  0  0  0
  2  1  1  1
  2  4  1  0
  3  2  1  0
  4  6  1  0
  5  4  2  0
  6  7  1  0
  7  8  1  6
  8  9  1  0
 10 14  1  0
 10  7  1  0
 11 10  2  0
 13 12  1  1
 13 14  1  0
 13 15  1  0
 15 17  1  0
 16 15  2  0
M  END
$$$$
