ACA.pdb
     RDKit          3D

 17 16  0  0  1  0  0  0  0  0999 V2000
   27.7160  -19.9159  -16.3202 C   0  0  0  0  0  0  0  0  0  0  0  0
   28.0697  -21.0603  -15.3645 C   0  0  2  0  0  0  0  0  0  0  0  0
   28.4018  -22.1951  -16.2010 N   0  0  0  0  0  0  0  0  0  0  0  0
   26.9463  -21.4115  -14.4958 C   0  0  0  0  0  0  0  0  0  0  0  0
   26.0507  -22.1806  -14.9221 O   0  0  0  0  0  0  0  0  0  0  0  0
   26.7809  -20.9350  -13.1592 N   0  0  0  0  0  0  0  0  0  0  0  0
   25.6430  -21.2836  -12.3648 C   0  0  1  0  0  0  0  0  0  0  0  0
   25.9314  -20.8152  -10.9312 C   0  0  0  0  0  0  0  0  0  0  0  0
   24.4594  -21.1133   -9.9229 S   0  0  0  0  0  0  0  0  0  0  0  0
   24.4011  -20.5999  -12.7852 C   0  0  0  0  0  0  0  0  0  0  0  0
   24.4242  -19.3379  -12.8039 O   0  0  0  0  0  0  0  0  0  0  0  0
   21.7593  -20.7888  -14.9969 C   0  0  0  0  0  0  0  0  0  0  0  0
   22.0626  -20.4663  -13.5472 C   0  0  2  0  0  0  0  0  0  0  0  0
   23.2175  -21.2507  -13.1588 N   0  0  0  0  0  0  0  0  0  0  0  0
   20.8895  -20.7548  -12.6720 C   0  0  0  0  0  0  0  0  0  0  0  0
   20.8703  -21.6284  -11.7928 O   0  0  0  0  0  0  0  0  0  0  0  0
   19.7572  -19.9722  -12.8833 O   0  0  0  0  0  0  0  0  0  0  0  0
  2  1  1  6
  2  4  1  0
  3  2  1  0
  4  6  1  0
  5  4  2  0
  6  7  1  0
  7  8  1  1
  8  9  1  0
 10 14  1  0
 10  7  1  0
 11 10  2  0
 13 12  1  6
 13 14  1  0
 13 15  1  0
 15 17  1  0
 16 15  2  0
M  END
$$$$
