ACA.pdb
     RDKit          3D

 17 16  0  0  1  0  0  0  0  0999 V2000
   17.9952  -11.2640  -18.6829 C   0  0  0  0  0  0  0  0  0  0  0  0
   19.2901  -10.7020  -18.0870 C   0  0  2  0  0  0  0  0  0  0  0  0
   19.9402  -11.8107  -17.4191 N   0  0  0  0  0  0  0  0  0  0  0  0
   19.0272   -9.6392  -17.1167 C   0  0  0  0  0  0  0  0  0  0  0  0
   18.4880   -8.5720  -17.4982 O   0  0  0  0  0  0  0  0  0  0  0  0
   19.3444   -9.7204  -15.7261 N   0  0  0  0  0  0  0  0  0  0  0  0
   19.0584   -8.6515  -14.8190 C   0  0  1  0  0  0  0  0  0  0  0  0
   18.8771   -9.2751  -13.4276 C   0  0  0  0  0  0  0  0  0  0  0  0
   18.6411   -7.9423  -12.2275 S   0  0  0  0  0  0  0  0  0  0  0  0
   20.1605   -7.6733  -14.6974 C   0  0  0  0  0  0  0  0  0  0  0  0
   21.3151   -8.1392  -14.4892 O   0  0  0  0  0  0  0  0  0  0  0  0
   20.8220   -4.1550  -15.5240 C   0  0  0  0  0  0  0  0  0  0  0  0
   21.1859   -5.4360  -14.8001 C   0  0  2  0  0  0  0  0  0  0  0  0
   20.0104   -6.2834  -14.7965 N   0  0  0  0  0  0  0  0  0  0  0  0
   21.6604   -5.1577  -13.4135 C   0  0  0  0  0  0  0  0  0  0  0  0
   22.8278   -4.8619  -13.1194 O   0  0  0  0  0  0  0  0  0  0  0  0
   20.7025   -5.2446  -12.4065 O   0  0  0  0  0  0  0  0  0  0  0  0
  2  1  1  1
  2  4  1  0
  3  2  1  0
  4  6  1  0
  5  4  2  0
  6  7  1  0
  7  8  1  1
  8  9  1  0
 10 14  1  0
 10  7  1  0
 11 10  2  0
 13 12  1  1
 13 14  1  0
 13 15  1  0
 15 17  1  0
 16 15  2  0
M  END
$$$$
