ACA.pdb
     RDKit          3D

 17 16  0  0  1  0  0  0  0  0999 V2000
   18.2159  -12.1328  -16.8914 C   0  0  0  0  0  0  0  0  0  0  0  0
   19.1508  -11.0216  -17.3802 C   0  0  2  0  0  0  0  0  0  0  0  0
   20.4160  -11.6616  -17.6766 N   0  0  0  0  0  0  0  0  0  0  0  0
   19.3557   -9.9937  -16.3597 C   0  0  0  0  0  0  0  0  0  0  0  0
   18.5210   -9.8684  -15.4307 O   0  0  0  0  0  0  0  0  0  0  0  0
   20.4639   -9.0925  -16.3340 N   0  0  0  0  0  0  0  0  0  0  0  0
   20.6653   -8.1680  -15.2607 C   0  0  1  0  0  0  0  0  0  0  0  0
   22.1334   -8.2902  -14.8276 C   0  0  0  0  0  0  0  0  0  0  0  0
   22.4295   -7.1328  -13.4693 S   0  0  0  0  0  0  0  0  0  0  0  0
   20.4626   -6.7573  -15.6545 C   0  0  0  0  0  0  0  0  0  0  0  0
   21.0445   -6.3702  -16.7058 O   0  0  0  0  0  0  0  0  0  0  0  0
   18.1233   -4.0239  -15.0879 C   0  0  0  0  0  0  0  0  0  0  0  0
   19.5145   -4.4916  -15.4666 C   0  0  2  0  0  0  0  0  0  0  0  0
   19.6787   -5.8349  -14.9483 N   0  0  0  0  0  0  0  0  0  0  0  0
   20.5591   -3.5706  -14.9321 C   0  0  0  0  0  0  0  0  0  0  0  0
   21.3802   -3.8770  -14.0554 O   0  0  0  0  0  0  0  0  0  0  0  0
   20.5857   -2.2889  -15.4758 O   0  0  0  0  0  0  0  0  0  0  0  0
  2  1  1  1
  2  4  1  0
  3  2  1  0
  4  6  1  0
  5  4  2  0
  6  7  1  0
  7  8  1  6
  8  9  1  0
 10 14  1  0
 10  7  1  0
 11 10  2  0
 13 12  1  1
 13 14  1  0
 13 15  1  0
 15 17  1  0
 16 15  2  0
M  END
$$$$
