ACA.pdb
     RDKit          3D

 17 16  0  0  1  0  0  0  0  0999 V2000
   18.1533  -10.5331  -18.8751 C   0  0  0  0  0  0  0  0  0  0  0  0
   19.3453  -10.6735  -17.9226 C   0  0  2  0  0  0  0  0  0  0  0  0
   19.1799  -11.9489  -17.2562 N   0  0  0  0  0  0  0  0  0  0  0  0
   19.3731   -9.6053  -16.9234 C   0  0  0  0  0  0  0  0  0  0  0  0
   18.4366   -9.5092  -16.0935 O   0  0  0  0  0  0  0  0  0  0  0  0
   20.4129   -8.6319  -16.8125 N   0  0  0  0  0  0  0  0  0  0  0  0
   20.3748   -7.5893  -15.8334 C   0  0  1  0  0  0  0  0  0  0  0  0
   21.7558   -7.5469  -15.1633 C   0  0  0  0  0  0  0  0  0  0  0  0
   21.7809   -6.1734  -13.9864 S   0  0  0  0  0  0  0  0  0  0  0  0
   20.1508   -6.2473  -16.4125 C   0  0  0  0  0  0  0  0  0  0  0  0
   21.0023   -5.8392  -17.2502 O   0  0  0  0  0  0  0  0  0  0  0  0
   17.4270   -3.8484  -16.8547 C   0  0  0  0  0  0  0  0  0  0  0  0
   18.9105   -4.1553  -16.8032 C   0  0  2  0  0  0  0  0  0  0  0  0
   19.0714   -5.4107  -16.0975 N   0  0  0  0  0  0  0  0  0  0  0  0
   19.6675   -3.0558  -16.1375 C   0  0  0  0  0  0  0  0  0  0  0  0
   20.2388   -3.1626  -15.0425 O   0  0  0  0  0  0  0  0  0  0  0  0
   19.7158   -1.8422  -16.8186 O   0  0  0  0  0  0  0  0  0  0  0  0
  2  1  1  6
  2  4  1  0
  3  2  1  0
  4  6  1  0
  5  4  2  0
  6  7  1  0
  7  8  1  6
  8  9  1  0
 10 14  1  0
 10  7  1  0
 11 10  2  0
 13 12  1  1
 13 14  1  0
 13 15  1  0
 15 17  1  0
 16 15  2  0
M  END
$$$$
