ACA.pdb
     RDKit          3D

 17 16  0  0  1  0  0  0  0  0999 V2000
   18.8691  -10.8358  -19.0194 C   0  0  0  0  0  0  0  0  0  0  0  0
   20.1386  -11.4371  -18.4073 C   0  0  2  0  0  0  0  0  0  0  0  0
   19.7890  -12.7807  -17.9944 N   0  0  0  0  0  0  0  0  0  0  0  0
   20.5956  -10.6767  -17.2441 C   0  0  0  0  0  0  0  0  0  0  0  0
   19.9015  -10.6678  -16.1985 O   0  0  0  0  0  0  0  0  0  0  0  0
   21.8063   -9.9195  -17.2007 N   0  0  0  0  0  0  0  0  0  0  0  0
   22.2682   -9.2955  -15.9988 C   0  0  1  0  0  0  0  0  0  0  0  0
   23.7980   -9.4262  -15.9801 C   0  0  0  0  0  0  0  0  0  0  0  0
   24.2276  -11.0433  -15.2925 S   0  0  0  0  0  0  0  0  0  0  0  0
   21.9724   -7.8480  -15.9372 C   0  0  0  0  0  0  0  0  0  0  0  0
   22.2655   -7.1630  -16.9561 O   0  0  0  0  0  0  0  0  0  0  0  0
   19.7468   -5.4873  -14.5604 C   0  0  0  0  0  0  0  0  0  0  0  0
   21.2031   -5.7603  -14.8803 C   0  0  2  0  0  0  0  0  0  0  0  0
   21.3966   -7.1959  -14.8385 N   0  0  0  0  0  0  0  0  0  0  0  0
   22.1077   -5.0610  -13.9224 C   0  0  0  0  0  0  0  0  0  0  0  0
   22.7171   -5.6208  -12.9993 O   0  0  0  0  0  0  0  0  0  0  0  0
   22.2549   -3.6884  -14.1054 O   0  0  0  0  0  0  0  0  0  0  0  0
  2  1  1  1
  2  4  1  0
  3  2  1  0
  4  6  1  0
  5  4  2  0
  6  7  1  0
  7  8  1  6
  8  9  1  0
 10 14  1  0
 10  7  1  0
 11 10  2  0
 13 12  1  1
 13 14  1  0
 13 15  1  0
 15 17  1  0
 16 15  2  0
M  END
$$$$
