TPM.pdb
     RDKit          3D

 23 23  0  0  1  0  0  0  0  0999 V2000
    6.4959  -18.7932   22.2031 C   0  0  0  0  0  0  0  0  0  0  0  0
    7.4683  -19.1341   21.1366 C   0  0  1  0  0  0  0  0  0  0  0  0
    6.9473  -20.1882   20.3477 O   0  0  0  0  0  0  0  0  0  0  0  0
    7.7780  -18.0243   20.1545 C   0  0  2  0  0  0  0  0  0  0  0  0
    8.5630  -18.7052   19.1069 N   0  0  0  0  0  0  0  0  0  0  0  0
    8.5411  -16.9075   20.7281 C   0  0  0  0  0  0  0  0  0  0  0  0
    9.7847  -17.1503   20.9480 O   0  0  0  0  0  0  0  0  0  0  0  0
    8.0419  -15.6294   21.0463 N   0  0  0  0  0  0  0  0  0  0  0  0
    6.6728  -15.2037   20.9683 C   0  0  0  0  0  0  0  0  0  0  0  0
    6.8394  -13.8158   20.3322 C   0  0  0  0  0  0  0  0  0  0  0  0
    7.9371  -13.2608   21.2512 C   0  0  0  0  0  0  0  0  0  0  0  0
    8.8054  -14.4893   21.4901 C   0  0  1  0  0  0  0  0  0  0  0  0
    9.1421  -14.6426   22.9307 C   0  0  0  0  0  0  0  0  0  0  0  0
    9.8080  -13.7698   23.5742 O   0  0  0  0  0  0  0  0  0  0  0  0
    6.5938  -11.0194   26.7704 C   0  0  0  0  0  0  0  0  0  0  0  0
    6.1414  -12.7064   26.2870 S   0  0  0  0  0  0  0  0  0  0  0  0
    7.6886  -13.6112   25.9533 C   0  0  0  0  0  0  0  0  0  0  0  0
    7.4155  -14.9842   25.4617 C   0  0  0  0  0  0  0  0  0  0  0  0
    8.6784  -15.7466   25.1529 C   0  0  2  0  0  0  0  0  0  0  0  0
    8.7426  -15.7759   23.6880 N   0  0  0  0  0  0  0  0  0  0  0  0
    8.6017  -17.0910   25.7141 C   0  0  0  0  0  0  0  0  0  0  0  0
    8.8071  -17.2820   26.9307 O   0  0  0  0  0  0  0  0  0  0  0  0
    8.3012  -18.2077   24.9348 O   0  0  0  0  0  0  0  0  0  0  0  0
  2  1  1  1
  2  3  1  0
  4  2  1  0
  4  6  1  0
  4  5  1  6
  6  7  2  0
  8  6  1  0
  8 12  1  0
  9 10  1  0
  9  8  1  0
 10 11  1  0
 11 12  1  0
 12 13  1  1
 13 20  1  0
 14 13  2  0
 16 15  1  0
 17 16  1  0
 18 17  1  0
 19 20  1  0
 19 18  1  6
 21 19  1  0
 22 21  2  0
 23 21  1  0
M  END
$$$$
