TPM.pdb
     RDKit          3D

 23 23  0  0  1  0  0  0  0  0999 V2000
    3.4906  -18.2400   20.3604 C   0  0  0  0  0  0  0  0  0  0  0  0
    4.7011  -17.5344   20.8462 C   0  0  1  0  0  0  0  0  0  0  0  0
    5.3399  -18.3253   21.8318 O   0  0  0  0  0  0  0  0  0  0  0  0
    5.7665  -17.2694   19.8038 C   0  0  2  0  0  0  0  0  0  0  0  0
    6.1187  -18.6200   19.3251 N   0  0  0  0  0  0  0  0  0  0  0  0
    6.9557  -16.5779   20.3197 C   0  0  0  0  0  0  0  0  0  0  0  0
    7.8723  -17.3452   20.7939 O   0  0  0  0  0  0  0  0  0  0  0  0
    7.1724  -15.1862   20.3368 N   0  0  0  0  0  0  0  0  0  0  0  0
    6.2759  -14.1763   19.8488 C   0  0  0  0  0  0  0  0  0  0  0  0
    7.2577  -13.2509   19.1153 C   0  0  0  0  0  0  0  0  0  0  0  0
    8.3171  -13.1032   20.2169 C   0  0  0  0  0  0  0  0  0  0  0  0
    8.3433  -14.4998   20.8244 C   0  0  1  0  0  0  0  0  0  0  0  0
    8.3087  -14.4448   22.3103 C   0  0  0  0  0  0  0  0  0  0  0  0
    7.3582  -13.8935   22.9523 O   0  0  0  0  0  0  0  0  0  0  0  0
    6.7727  -12.0017   27.3811 C   0  0  0  0  0  0  0  0  0  0  0  0
    7.2191  -12.8151   25.8244 S   0  0  0  0  0  0  0  0  0  0  0  0
    7.4573  -14.5865   26.1840 C   0  0  0  0  0  0  0  0  0  0  0  0
    7.9500  -15.3178   24.9906 C   0  0  0  0  0  0  0  0  0  0  0  0
    9.3313  -14.8793   24.5768 C   0  0  2  0  0  0  0  0  0  0  0  0
    9.3358  -15.0049   23.1156 N   0  0  0  0  0  0  0  0  0  0  0  0
   10.3355  -15.7396   25.1929 C   0  0  0  0  0  0  0  0  0  0  0  0
   10.6649  -16.8159   24.6526 O   0  0  0  0  0  0  0  0  0  0  0  0
   10.9651  -15.4091   26.3926 O   0  0  0  0  0  0  0  0  0  0  0  0
  2  1  1  6
  2  3  1  0
  4  2  1  0
  4  6  1  0
  4  5  1  1
  6  7  2  0
  8  6  1  0
  8 12  1  0
  9 10  1  0
  9  8  1  0
 10 11  1  0
 11 12  1  0
 12 13  1  1
 13 20  1  0
 14 13  2  0
 16 15  1  0
 17 16  1  0
 18 17  1  0
 19 20  1  0
 19 18  1  1
 21 19  1  0
 22 21  2  0
 23 21  1  0
M  END
$$$$
