TPM.pdb
     RDKit          3D

 23 23  0  0  1  0  0  0  0  0999 V2000
    3.1431  -18.2021   20.5203 C   0  0  0  0  0  0  0  0  0  0  0  0
    4.3818  -17.5359   20.9906 C   0  0  1  0  0  0  0  0  0  0  0  0
    4.8660  -18.2061   22.1402 O   0  0  0  0  0  0  0  0  0  0  0  0
    5.5394  -17.5430   20.0149 C   0  0  2  0  0  0  0  0  0  0  0  0
    5.8168  -18.9798   19.8254 N   0  0  0  0  0  0  0  0  0  0  0  0
    6.7386  -16.8445   20.4975 C   0  0  0  0  0  0  0  0  0  0  0  0
    7.5911  -17.5835   21.1146 O   0  0  0  0  0  0  0  0  0  0  0  0
    7.0270  -15.4744   20.3442 N   0  0  0  0  0  0  0  0  0  0  0  0
    6.2302  -14.5072   19.6433 C   0  0  0  0  0  0  0  0  0  0  0  0
    7.3185  -13.7353   18.8830 C   0  0  0  0  0  0  0  0  0  0  0  0
    8.2873  -13.4778   20.0461 C   0  0  0  0  0  0  0  0  0  0  0  0
    8.1875  -14.7750   20.8382 C   0  0  1  0  0  0  0  0  0  0  0  0
    8.0303  -14.5103   22.2934 C   0  0  0  0  0  0  0  0  0  0  0  0
    7.1253  -13.7440   22.7553 O   0  0  0  0  0  0  0  0  0  0  0  0
    7.7472  -11.7962   27.9571 C   0  0  0  0  0  0  0  0  0  0  0  0
    6.8652  -12.5102   26.5442 S   0  0  0  0  0  0  0  0  0  0  0  0
    7.2542  -14.2909   26.5022 C   0  0  0  0  0  0  0  0  0  0  0  0
    7.4562  -14.7665   25.1113 C   0  0  0  0  0  0  0  0  0  0  0  0
    8.8898  -14.6419   24.6631 C   0  0  2  0  0  0  0  0  0  0  0  0
    8.8809  -15.0957   23.2685 N   0  0  0  0  0  0  0  0  0  0  0  0
    9.7489  -15.4778   25.4945 C   0  0  0  0  0  0  0  0  0  0  0  0
   10.0008  -15.1519   26.6731 O   0  0  0  0  0  0  0  0  0  0  0  0
   10.3203  -16.6595   25.0234 O   0  0  0  0  0  0  0  0  0  0  0  0
  2  1  1  6
  2  3  1  0
  4  2  1  0
  4  6  1  0
  4  5  1  1
  6  7  2  0
  8  6  1  0
  8 12  1  0
  9 10  1  0
  9  8  1  0
 10 11  1  0
 11 12  1  0
 12 13  1  1
 13 20  1  0
 14 13  2  0
 16 15  1  0
 17 16  1  0
 18 17  1  0
 19 20  1  0
 19 18  1  1
 21 19  1  0
 22 21  2  0
 23 21  1  0
M  END
$$$$
