TPM.pdb
     RDKit          3D

 23 23  0  0  1  0  0  0  0  0999 V2000
   11.3210  -13.8138   17.8612 C   0  0  0  0  0  0  0  0  0  0  0  0
   10.4796  -14.1204   19.0432 C   0  0  1  0  0  0  0  0  0  0  0  0
   10.6650  -13.1152   20.0231 O   0  0  0  0  0  0  0  0  0  0  0  0
    8.9869  -14.1543   18.7927 C   0  0  2  0  0  0  0  0  0  0  0  0
    8.6718  -12.7616   18.4208 N   0  0  0  0  0  0  0  0  0  0  0  0
    8.1901  -14.5717   19.9545 C   0  0  0  0  0  0  0  0  0  0  0  0
    7.5441  -13.6279   20.5426 O   0  0  0  0  0  0  0  0  0  0  0  0
    8.0748  -15.8801   20.4632 N   0  0  0  0  0  0  0  0  0  0  0  0
    8.7255  -17.0546   19.9543 C   0  0  0  0  0  0  0  0  0  0  0  0
    7.5733  -18.0684   20.0110 C   0  0  0  0  0  0  0  0  0  0  0  0
    7.1005  -17.8143   21.4495 C   0  0  0  0  0  0  0  0  0  0  0  0
    7.2653  -16.3055   21.5784 C   0  0  1  0  0  0  0  0  0  0  0  0
    7.9389  -15.9412   22.8534 C   0  0  0  0  0  0  0  0  0  0  0  0
    9.2002  -16.0140   23.0057 O   0  0  0  0  0  0  0  0  0  0  0  0
    6.0967  -11.0921   27.4714 C   0  0  0  0  0  0  0  0  0  0  0  0
    7.6710  -11.9478   27.1998 S   0  0  0  0  0  0  0  0  0  0  0  0
    7.3349  -13.7388   27.2583 C   0  0  0  0  0  0  0  0  0  0  0  0
    6.8465  -14.2392   25.9497 C   0  0  0  0  0  0  0  0  0  0  0  0
    7.8986  -15.0175   25.2023 C   0  0  2  0  0  0  0  0  0  0  0  0
    7.2190  -15.4864   23.9902 N   0  0  0  0  0  0  0  0  0  0  0  0
    8.3717  -16.1309   26.0176 C   0  0  0  0  0  0  0  0  0  0  0  0
    7.8499  -17.2602   25.9113 O   0  0  0  0  0  0  0  0  0  0  0  0
    9.4099  -15.9919   26.9382 O   0  0  0  0  0  0  0  0  0  0  0  0
  2  1  1  6
  2  3  1  0
  4  2  1  0
  4  6  1  0
  4  5  1  1
  6  7  2  0
  8  6  1  0
  8 12  1  0
  9 10  1  0
  9  8  1  0
 10 11  1  0
 11 12  1  0
 12 13  1  1
 13 20  1  0
 14 13  2  0
 16 15  1  0
 17 16  1  0
 18 17  1  0
 19 20  1  0
 19 18  1  1
 21 19  1  0
 22 21  2  0
 23 21  1  0
M  END
$$$$
