TPM.pdb
     RDKit          3D

 23 23  0  0  1  0  0  0  0  0999 V2000
    5.8294  -18.8276   19.0026 C   0  0  0  0  0  0  0  0  0  0  0  0
    6.5566  -17.8942   19.8965 C   0  0  1  0  0  0  0  0  0  0  0  0
    7.1278  -18.6221   20.9684 O   0  0  0  0  0  0  0  0  0  0  0  0
    7.7147  -17.1516   19.2645 C   0  0  2  0  0  0  0  0  0  0  0  0
    8.6394  -18.2325   18.8724 N   0  0  0  0  0  0  0  0  0  0  0  0
    8.3831  -16.2005   20.1630 C   0  0  0  0  0  0  0  0  0  0  0  0
    9.3544  -16.6876   20.8508 O   0  0  0  0  0  0  0  0  0  0  0  0
    8.0616  -14.8393   20.3290 N   0  0  0  0  0  0  0  0  0  0  0  0
    6.9767  -14.1358   19.7046 C   0  0  0  0  0  0  0  0  0  0  0  0
    7.6755  -12.8286   19.3029 C   0  0  0  0  0  0  0  0  0  0  0  0
    8.3536  -12.4981   20.6403 C   0  0  0  0  0  0  0  0  0  0  0  0
    8.7683  -13.8768   21.1377 C   0  0  1  0  0  0  0  0  0  0  0  0
    8.4101  -14.0665   22.5688 C   0  0  0  0  0  0  0  0  0  0  0  0
    7.3244  -13.6270   23.0662 O   0  0  0  0  0  0  0  0  0  0  0  0
    5.9658  -12.1147   27.1448 C   0  0  0  0  0  0  0  0  0  0  0  0
    6.8825  -12.8748   25.7787 S   0  0  0  0  0  0  0  0  0  0  0  0
    6.6820  -14.6809   25.9260 C   0  0  0  0  0  0  0  0  0  0  0  0
    7.5442  -15.4003   24.9562 C   0  0  0  0  0  0  0  0  0  0  0  0
    8.9448  -14.8456   24.9096 C   0  0  2  0  0  0  0  0  0  0  0  0
    9.2571  -14.7524   23.4796 N   0  0  0  0  0  0  0  0  0  0  0  0
    9.8625  -15.7433   25.6023 C   0  0  0  0  0  0  0  0  0  0  0  0
   10.4343  -16.6650   24.9840 O   0  0  0  0  0  0  0  0  0  0  0  0
   10.1411  -15.6191   26.9631 O   0  0  0  0  0  0  0  0  0  0  0  0
  2  1  1  6
  2  3  1  0
  4  2  1  0
  4  6  1  0
  4  5  1  1
  6  7  2  0
  8  6  1  0
  8 12  1  0
  9 10  1  0
  9  8  1  0
 10 11  1  0
 11 12  1  0
 12 13  1  1
 13 20  1  0
 14 13  2  0
 16 15  1  0
 17 16  1  0
 18 17  1  0
 19 20  1  0
 19 18  1  6
 21 19  1  0
 22 21  2  0
 23 21  1  0
M  END
$$$$
