TPM.pdb
     RDKit          3D

 23 23  0  0  1  0  0  0  0  0999 V2000
    3.7078  -18.0162   21.3561 C   0  0  0  0  0  0  0  0  0  0  0  0
    4.9896  -17.2930   21.5384 C   0  0  1  0  0  0  0  0  0  0  0  0
    5.7620  -17.9513   22.5258 O   0  0  0  0  0  0  0  0  0  0  0  0
    5.8837  -17.2285   20.3184 C   0  0  2  0  0  0  0  0  0  0  0  0
    6.1385  -18.6482   20.0070 N   0  0  0  0  0  0  0  0  0  0  0  0
    7.1480  -16.5121   20.5350 C   0  0  0  0  0  0  0  0  0  0  0  0
    8.1205  -17.2359   20.9641 O   0  0  0  0  0  0  0  0  0  0  0  0
    7.3800  -15.1401   20.3167 N   0  0  0  0  0  0  0  0  0  0  0  0
    6.4408  -14.1878   19.7943 C   0  0  0  0  0  0  0  0  0  0  0  0
    7.3344  -13.4097   18.8173 C   0  0  0  0  0  0  0  0  0  0  0  0
    8.5232  -13.1317   19.7485 C   0  0  0  0  0  0  0  0  0  0  0  0
    8.6094  -14.4235   20.5510 C   0  0  1  0  0  0  0  0  0  0  0  0
    8.7591  -14.1487   22.0051 C   0  0  0  0  0  0  0  0  0  0  0  0
    8.8032  -12.9677   22.4770 O   0  0  0  0  0  0  0  0  0  0  0  0
    6.7857  -12.0922   28.1306 C   0  0  0  0  0  0  0  0  0  0  0  0
    6.7664  -12.3601   26.3384 S   0  0  0  0  0  0  0  0  0  0  0  0
    7.0903  -14.1306   26.0484 C   0  0  0  0  0  0  0  0  0  0  0  0
    7.3851  -14.3982   24.6190 C   0  0  0  0  0  0  0  0  0  0  0  0
    8.7826  -14.9216   24.4080 C   0  0  2  0  0  0  0  0  0  0  0  0
    8.8632  -15.1876   22.9680 N   0  0  0  0  0  0  0  0  0  0  0  0
    8.9862  -16.1357   25.1907 C   0  0  0  0  0  0  0  0  0  0  0  0
    8.8135  -17.2589   24.6736 O   0  0  0  0  0  0  0  0  0  0  0  0
    9.3763  -16.1027   26.5291 O   0  0  0  0  0  0  0  0  0  0  0  0
  2  1  1  6
  2  3  1  0
  4  2  1  0
  4  6  1  0
  4  5  1  1
  6  7  2  0
  8  6  1  0
  8 12  1  0
  9 10  1  0
  9  8  1  0
 10 11  1  0
 11 12  1  0
 12 13  1  1
 13 20  1  0
 14 13  2  0
 16 15  1  0
 17 16  1  0
 18 17  1  0
 19 20  1  0
 19 18  1  6
 21 19  1  0
 22 21  2  0
 23 21  1  0
M  END
$$$$
