TPM.pdb
     RDKit          3D

 23 23  0  0  1  0  0  0  0  0999 V2000
   10.1887  -19.7163   21.1220 C   0  0  0  0  0  0  0  0  0  0  0  0
   11.2222  -18.8419   20.5168 C   0  0  1  0  0  0  0  0  0  0  0  0
   11.8861  -19.5476   19.4842 O   0  0  0  0  0  0  0  0  0  0  0  0
   10.7078  -17.5780   19.8610 C   0  0  2  0  0  0  0  0  0  0  0  0
   11.9120  -17.0087   19.2262 N   0  0  0  0  0  0  0  0  0  0  0  0
   10.1116  -16.6138   20.7957 C   0  0  0  0  0  0  0  0  0  0  0  0
   10.9519  -15.9567   21.5140 O   0  0  0  0  0  0  0  0  0  0  0  0
    8.7379  -16.3534   20.9656 N   0  0  0  0  0  0  0  0  0  0  0  0
    7.6554  -16.9916   20.2709 C   0  0  0  0  0  0  0  0  0  0  0  0
    6.7626  -15.7820   19.9573 C   0  0  0  0  0  0  0  0  0  0  0  0
    6.7262  -15.1423   21.3526 C   0  0  0  0  0  0  0  0  0  0  0  0
    8.1457  -15.3810   21.8509 C   0  0  1  0  0  0  0  0  0  0  0  0
    8.1501  -15.9038   23.2433 C   0  0  0  0  0  0  0  0  0  0  0  0
    8.5052  -17.0926   23.5264 O   0  0  0  0  0  0  0  0  0  0  0  0
    7.1870  -10.4281   27.0116 C   0  0  0  0  0  0  0  0  0  0  0  0
    6.3866  -12.0463   27.1694 S   0  0  0  0  0  0  0  0  0  0  0  0
    7.5421  -13.2926   26.5095 C   0  0  0  0  0  0  0  0  0  0  0  0
    6.9331  -14.6457   26.5077 C   0  0  0  0  0  0  0  0  0  0  0  0
    7.7462  -15.6415   25.7212 C   0  0  2  0  0  0  0  0  0  0  0  0
    7.7578  -15.1105   24.3542 N   0  0  0  0  0  0  0  0  0  0  0  0
    7.1201  -16.9578   25.7808 C   0  0  0  0  0  0  0  0  0  0  0  0
    7.3772  -17.7394   26.7199 O   0  0  0  0  0  0  0  0  0  0  0  0
    6.2209  -17.3998   24.8109 O   0  0  0  0  0  0  0  0  0  0  0  0
  2  1  1  6
  2  3  1  0
  4  2  1  0
  4  6  1  0
  4  5  1  1
  6  7  2  0
  8  6  1  0
  8 12  1  0
  9 10  1  0
  9  8  1  0
 10 11  1  0
 11 12  1  0
 12 13  1  1
 13 20  1  0
 14 13  2  0
 16 15  1  0
 17 16  1  0
 18 17  1  0
 19 20  1  0
 19 18  1  1
 21 19  1  0
 22 21  2  0
 23 21  1  0
M  END
$$$$
