TPM.pdb
     RDKit          3D

 23 23  0  0  1  0  0  0  0  0999 V2000
    5.6641  -19.1123   20.2955 C   0  0  0  0  0  0  0  0  0  0  0  0
    6.6440  -18.1035   20.7659 C   0  0  1  0  0  0  0  0  0  0  0  0
    7.6795  -18.7542   21.4796 O   0  0  0  0  0  0  0  0  0  0  0  0
    7.3484  -17.3192   19.6793 C   0  0  2  0  0  0  0  0  0  0  0  0
    8.0585  -18.3610   18.9127 N   0  0  0  0  0  0  0  0  0  0  0  0
    8.2933  -16.3114   20.1795 C   0  0  0  0  0  0  0  0  0  0  0  0
    9.5124  -16.7076   20.2820 O   0  0  0  0  0  0  0  0  0  0  0  0
    7.9871  -14.9857   20.5438 N   0  0  0  0  0  0  0  0  0  0  0  0
    6.6895  -14.3714   20.5192 C   0  0  0  0  0  0  0  0  0  0  0  0
    7.0312  -13.0030   19.9116 C   0  0  0  0  0  0  0  0  0  0  0  0
    8.2210  -12.6323   20.8086 C   0  0  0  0  0  0  0  0  0  0  0  0
    8.9149  -13.9761   20.9907 C   0  0  1  0  0  0  0  0  0  0  0  0
    9.2666  -14.2153   22.4159 C   0  0  0  0  0  0  0  0  0  0  0  0
   10.1918  -13.5737   23.0090 O   0  0  0  0  0  0  0  0  0  0  0  0
    5.8616  -11.4202   26.7218 C   0  0  0  0  0  0  0  0  0  0  0  0
    7.2843  -12.5109   26.9869 S   0  0  0  0  0  0  0  0  0  0  0  0
    6.8476  -14.1491   26.3162 C   0  0  0  0  0  0  0  0  0  0  0  0
    7.2116  -14.2595   24.8820 C   0  0  0  0  0  0  0  0  0  0  0  0
    8.4836  -15.0395   24.6697 C   0  0  2  0  0  0  0  0  0  0  0  0
    8.5926  -15.1779   23.2137 N   0  0  0  0  0  0  0  0  0  0  0  0
    8.3903  -16.3384   25.3271 C   0  0  0  0  0  0  0  0  0  0  0  0
    8.6606  -16.4549   26.5405 O   0  0  0  0  0  0  0  0  0  0  0  0
    8.0021  -17.4919   24.6464 O   0  0  0  0  0  0  0  0  0  0  0  0
  2  1  1  6
  2  3  1  0
  4  2  1  0
  4  6  1  0
  4  5  1  6
  6  7  2  0
  8  6  1  0
  8 12  1  0
  9 10  1  0
  9  8  1  0
 10 11  1  0
 11 12  1  0
 12 13  1  1
 13 20  1  0
 14 13  2  0
 16 15  1  0
 17 16  1  0
 18 17  1  0
 19 20  1  0
 19 18  1  6
 21 19  1  0
 22 21  2  0
 23 21  1  0
M  END
$$$$
