FGP.pdb
     RDKit          3D

 23 24  0  0  1  0  0  0  0  0999 V2000
    7.3058  -17.3709   26.1977 N   0  0  0  0  0  0  0  0  0  0  0  0
    7.0003  -16.2534   25.3608 C   0  0  1  0  0  0  0  0  0  0  0  0
    8.0593  -15.1731   25.4129 C   0  0  0  0  0  0  0  0  0  0  0  0
    7.5734  -13.9603   26.0979 C   0  0  0  0  0  0  0  0  0  0  0  0
    8.4465  -13.2712   26.9465 C   0  0  0  0  0  0  0  0  0  0  0  0
    8.0102  -12.1389   27.5930 C   0  0  0  0  0  0  0  0  0  0  0  0
    6.7138  -11.7105   27.3853 C   0  0  0  0  0  0  0  0  0  0  0  0
    5.8571  -12.3883   26.5514 C   0  0  0  0  0  0  0  0  0  0  0  0
    6.2820  -13.5223   25.8992 C   0  0  0  0  0  0  0  0  0  0  0  0
    6.8422  -16.7360   23.9646 C   0  0  0  0  0  0  0  0  0  0  0  0
    7.2002  -17.8925   23.6164 O   0  0  0  0  0  0  0  0  0  0  0  0
    6.2731  -15.8853   22.9761 N   0  0  0  0  0  0  0  0  0  0  0  0
    6.1283  -16.3358   21.6266 C   0  0  0  0  0  0  0  0  0  0  0  0
    7.4414  -16.2560   20.9416 C   0  0  0  0  0  0  0  0  0  0  0  0
    8.1383  -17.2990   20.7258 O   0  0  0  0  0  0  0  0  0  0  0  0
    7.9062  -14.9774   20.5293 N   0  0  0  0  0  0  0  0  0  0  0  0
    7.2754  -13.7534   20.8966 C   0  0  0  0  0  0  0  0  0  0  0  0
    8.0969  -12.6499   20.3360 C   0  0  0  0  0  0  0  0  0  0  0  0
    8.8116  -13.3415   19.1734 C   0  0  0  0  0  0  0  0  0  0  0  0
    9.0466  -14.7441   19.7021 C   0  0  1  0  0  0  0  0  0  0  0  0
   10.2886  -14.8284   20.4975 C   0  0  0  0  0  0  0  0  0  0  0  0
   11.5060  -14.7593   19.8669 O   0  0  0  0  0  0  0  0  0  0  0  0
   10.1796  -14.9630   21.7446 O   0  0  0  0  0  0  0  0  0  0  0  0
  2 10  1  0
  2  1  1  1
  3  2  1  0
  4  3  1  0
  5  4  2  0
  6  5  1  0
  7  8  1  0
  7  6  2  0
  8  9  2  0
  9  4  1  0
 10 12  1  0
 11 10  2  0
 12 13  1  0
 13 14  1  0
 14 16  1  0
 15 14  2  0
 16 20  1  0
 16 17  1  0
 17 18  1  0
 19 18  1  0
 20 21  1  1
 20 19  1  0
 21 22  1  0
 23 21  2  0
M  END
$$$$
