FGP.pdb
     RDKit          3D

 23 24  0  0  1  0  0  0  0  0999 V2000
    7.1112  -17.8236   21.8685 N   0  0  0  0  0  0  0  0  0  0  0  0
    7.4668  -16.4615   21.6229 C   0  0  1  0  0  0  0  0  0  0  0  0
    6.4378  -15.7262   20.7910 C   0  0  0  0  0  0  0  0  0  0  0  0
    6.9078  -14.3848   20.3959 C   0  0  0  0  0  0  0  0  0  0  0  0
    7.4951  -14.2214   19.1368 C   0  0  0  0  0  0  0  0  0  0  0  0
    7.9388  -12.9781   18.7523 C   0  0  0  0  0  0  0  0  0  0  0  0
    7.7912  -11.9183   19.6254 C   0  0  0  0  0  0  0  0  0  0  0  0
    7.2140  -12.0802   20.8621 C   0  0  0  0  0  0  0  0  0  0  0  0
    6.7664  -13.3190   21.2580 C   0  0  0  0  0  0  0  0  0  0  0  0
    7.6423  -15.7745   22.9284 C   0  0  0  0  0  0  0  0  0  0  0  0
    8.1748  -14.6361   23.0143 O   0  0  0  0  0  0  0  0  0  0  0  0
    7.2041  -16.4009   24.1285 N   0  0  0  0  0  0  0  0  0  0  0  0
    7.3588  -15.7435   25.3891 C   0  0  0  0  0  0  0  0  0  0  0  0
    8.7332  -15.9764   25.8958 C   0  0  0  0  0  0  0  0  0  0  0  0
    9.4548  -16.9197   25.4381 O   0  0  0  0  0  0  0  0  0  0  0  0
    9.2283  -15.1147   26.9122 N   0  0  0  0  0  0  0  0  0  0  0  0
    8.5009  -14.0019   27.4255 C   0  0  0  0  0  0  0  0  0  0  0  0
    9.3180  -13.4067   28.5140 C   0  0  0  0  0  0  0  0  0  0  0  0
   10.7302  -13.8600   28.1387 C   0  0  0  0  0  0  0  0  0  0  0  0
   10.5013  -15.2383   27.5474 C   0  0  1  0  0  0  0  0  0  0  0  0
   10.4590  -16.2820   28.5920 C   0  0  0  0  0  0  0  0  0  0  0  0
   11.6236  -16.6896   29.1938 O   0  0  0  0  0  0  0  0  0  0  0  0
    9.3365  -16.7654   28.8944 O   0  0  0  0  0  0  0  0  0  0  0  0
  2 10  1  0
  2  1  1  1
  3  2  1  0
  4  3  1  0
  5  4  2  0
  6  5  1  0
  7  8  1  0
  7  6  2  0
  8  9  2  0
  9  4  1  0
 10 12  1  0
 11 10  2  0
 12 13  1  0
 13 14  1  0
 14 16  1  0
 15 14  2  0
 16 20  1  0
 16 17  1  0
 17 18  1  0
 19 18  1  0
 20 21  1  1
 20 19  1  0
 21 22  1  0
 23 21  2  0
M  END
$$$$
