FGP.pdb
     RDKit          3D

 23 24  0  0  1  0  0  0  0  0999 V2000
    7.5544  -16.7306   26.1797 N   0  0  0  0  0  0  0  0  0  0  0  0
    7.0023  -16.0576   25.0464 C   0  0  1  0  0  0  0  0  0  0  0  0
    7.5050  -14.6369   24.9039 C   0  0  0  0  0  0  0  0  0  0  0  0
    7.0793  -13.7879   26.0328 C   0  0  0  0  0  0  0  0  0  0  0  0
    8.0409  -13.3649   26.9567 C   0  0  0  0  0  0  0  0  0  0  0  0
    7.6616  -12.5732   28.0149 C   0  0  0  0  0  0  0  0  0  0  0  0
    6.3334  -12.2153   28.1372 C   0  0  0  0  0  0  0  0  0  0  0  0
    5.3897  -12.6315   27.2289 C   0  0  0  0  0  0  0  0  0  0  0  0
    5.7569  -13.4237   26.1662 C   0  0  0  0  0  0  0  0  0  0  0  0
    7.3364  -16.8342   23.8247 C   0  0  0  0  0  0  0  0  0  0  0  0
    8.3220  -17.6176   23.7838 O   0  0  0  0  0  0  0  0  0  0  0  0
    6.5347  -16.7054   22.6563 N   0  0  0  0  0  0  0  0  0  0  0  0
    6.5844  -15.5124   21.8693 C   0  0  0  0  0  0  0  0  0  0  0  0
    7.5719  -15.6890   20.7768 C   0  0  0  0  0  0  0  0  0  0  0  0
    7.9787  -16.8456   20.4348 O   0  0  0  0  0  0  0  0  0  0  0  0
    8.0566  -14.5271   20.1164 N   0  0  0  0  0  0  0  0  0  0  0  0
    7.7314  -13.1990   20.5179 C   0  0  0  0  0  0  0  0  0  0  0  0
    8.4858  -12.2749   19.6327 C   0  0  0  0  0  0  0  0  0  0  0  0
    8.7229  -13.1407   18.3937 C   0  0  0  0  0  0  0  0  0  0  0  0
    8.9182  -14.5273   18.9776 C   0  0  1  0  0  0  0  0  0  0  0  0
   10.3186  -14.7563   19.3884 C   0  0  0  0  0  0  0  0  0  0  0  0
   10.6560  -14.6957   20.7176 O   0  0  0  0  0  0  0  0  0  0  0  0
   11.1625  -15.0021   18.4869 O   0  0  0  0  0  0  0  0  0  0  0  0
  2 10  1  0
  2  1  1  1
  3  2  1  0
  4  3  1  0
  5  4  2  0
  6  5  1  0
  7  8  1  0
  7  6  2  0
  8  9  2  0
  9  4  1  0
 10 12  1  0
 11 10  2  0
 12 13  1  0
 13 14  1  0
 14 16  1  0
 15 14  2  0
 16 20  1  0
 16 17  1  0
 17 18  1  0
 19 18  1  0
 20 21  1  1
 20 19  1  0
 21 22  1  0
 23 21  2  0
M  END
$$$$
