FGP.pdb
     RDKit          3D

 23 24  0  0  1  0  0  0  0  0999 V2000
    6.9356  -17.8120   25.3035 N   0  0  0  0  0  0  0  0  0  0  0  0
    6.8475  -16.3873   25.3716 C   0  0  1  0  0  0  0  0  0  0  0  0
    7.2195  -15.8398   26.7330 C   0  0  0  0  0  0  0  0  0  0  0  0
    7.1533  -14.3665   26.7692 C   0  0  0  0  0  0  0  0  0  0  0  0
    8.3482  -13.6388   26.7638 C   0  0  0  0  0  0  0  0  0  0  0  0
    8.3049  -12.2649   26.7973 C   0  0  0  0  0  0  0  0  0  0  0  0
    7.0752  -11.6375   26.8355 C   0  0  0  0  0  0  0  0  0  0  0  0
    5.9022  -12.3535   26.8407 C   0  0  0  0  0  0  0  0  0  0  0  0
    5.9326  -13.7282   26.8075 C   0  0  0  0  0  0  0  0  0  0  0  0
    7.7398  -15.8070   24.3351 C   0  0  0  0  0  0  0  0  0  0  0  0
    8.9469  -16.1511   24.2289 O   0  0  0  0  0  0  0  0  0  0  0  0
    7.2386  -14.8339   23.4261 N   0  0  0  0  0  0  0  0  0  0  0  0
    8.1137  -14.1899   22.4963 C   0  0  0  0  0  0  0  0  0  0  0  0
    8.0322  -14.8840   21.1880 C   0  0  0  0  0  0  0  0  0  0  0  0
    7.7881  -16.1311   21.1160 O   0  0  0  0  0  0  0  0  0  0  0  0
    8.2349  -14.1172   20.0082 N   0  0  0  0  0  0  0  0  0  0  0  0
    8.4763  -12.7127   20.0128 C   0  0  0  0  0  0  0  0  0  0  0  0
    8.7085  -12.3019   18.6042 C   0  0  0  0  0  0  0  0  0  0  0  0
    7.9849  -13.4027   17.8262 C   0  0  0  0  0  0  0  0  0  0  0  0
    8.2219  -14.6358   18.6778 C   0  0  1  0  0  0  0  0  0  0  0  0
    9.5130  -15.2800   18.3610 C   0  0  0  0  0  0  0  0  0  0  0  0
   10.5910  -15.0862   19.1885 O   0  0  0  0  0  0  0  0  0  0  0  0
    9.5749  -15.9941   17.3258 O   0  0  0  0  0  0  0  0  0  0  0  0
  2 10  1  0
  2  1  1  1
  3  2  1  0
  4  3  1  0
  5  4  2  0
  6  5  1  0
  7  8  1  0
  7  6  2  0
  8  9  2  0
  9  4  1  0
 10 12  1  0
 11 10  2  0
 12 13  1  0
 13 14  1  0
 14 16  1  0
 15 14  2  0
 16 20  1  0
 16 17  1  0
 17 18  1  0
 19 18  1  0
 20 21  1  6
 20 19  1  0
 21 22  1  0
 23 21  2  0
M  END
$$$$
