FGP.pdb
     RDKit          3D

 23 24  0  0  1  0  0  0  0  0999 V2000
    7.2999  -16.7384   26.2561 N   0  0  0  0  0  0  0  0  0  0  0  0
    6.9102  -16.0246   25.0810 C   0  0  1  0  0  0  0  0  0  0  0  0
    7.6504  -14.7145   24.9164 C   0  0  0  0  0  0  0  0  0  0  0  0
    7.2938  -13.7460   25.9704 C   0  0  0  0  0  0  0  0  0  0  0  0
    8.2530  -13.4163   26.9339 C   0  0  0  0  0  0  0  0  0  0  0  0
    7.9375  -12.5153   27.9235 C   0  0  0  0  0  0  0  0  0  0  0  0
    6.6743  -11.9572   27.9388 C   0  0  0  0  0  0  0  0  0  0  0  0
    5.7330  -12.2819   26.9916 C   0  0  0  0  0  0  0  0  0  0  0  0
    6.0367  -13.1819   25.9969 C   0  0  0  0  0  0  0  0  0  0  0  0
    7.1515  -16.8908   23.8983 C   0  0  0  0  0  0  0  0  0  0  0  0
    7.9178  -17.8892   23.9509 O   0  0  0  0  0  0  0  0  0  0  0  0
    6.5097  -16.6038   22.6613 N   0  0  0  0  0  0  0  0  0  0  0  0
    6.7414  -15.3600   21.9945 C   0  0  0  0  0  0  0  0  0  0  0  0
    7.6446  -15.5858   20.8399 C   0  0  0  0  0  0  0  0  0  0  0  0
    8.0282  -16.7567   20.5205 O   0  0  0  0  0  0  0  0  0  0  0  0
    8.0748  -14.4550   20.0936 N   0  0  0  0  0  0  0  0  0  0  0  0
    7.7134  -13.1145   20.4153 C   0  0  0  0  0  0  0  0  0  0  0  0
    8.4162  -12.2268   19.4537 C   0  0  0  0  0  0  0  0  0  0  0  0
    8.6555  -13.1643   18.2685 C   0  0  0  0  0  0  0  0  0  0  0  0
    8.9107  -14.5023   18.9369 C   0  0  1  0  0  0  0  0  0  0  0  0
   10.3268  -14.6578   19.3278 C   0  0  0  0  0  0  0  0  0  0  0  0
   11.2432  -15.0956   18.4042 O   0  0  0  0  0  0  0  0  0  0  0  0
   10.6429  -14.3778   20.5140 O   0  0  0  0  0  0  0  0  0  0  0  0
  2 10  1  0
  2  1  1  1
  3  2  1  0
  4  3  1  0
  5  4  2  0
  6  5  1  0
  7  8  1  0
  7  6  2  0
  8  9  2  0
  9  4  1  0
 10 12  1  0
 11 10  2  0
 12 13  1  0
 13 14  1  0
 14 16  1  0
 15 14  2  0
 16 20  1  0
 16 17  1  0
 17 18  1  0
 19 18  1  0
 20 21  1  1
 20 19  1  0
 21 22  1  0
 23 21  2  0
M  END
$$$$
