FGP.pdb
     RDKit          3D

 23 24  0  0  1  0  0  0  0  0999 V2000
    7.6135  -16.6150   26.0804 N   0  0  0  0  0  0  0  0  0  0  0  0
    7.0891  -15.9202   24.9471 C   0  0  1  0  0  0  0  0  0  0  0  0
    7.6632  -14.5280   24.7938 C   0  0  0  0  0  0  0  0  0  0  0  0
    7.2823  -13.6501   25.9165 C   0  0  0  0  0  0  0  0  0  0  0  0
    8.2740  -13.2324   26.8105 C   0  0  0  0  0  0  0  0  0  0  0  0
    7.9366  -12.4140   27.8627 C   0  0  0  0  0  0  0  0  0  0  0  0
    6.6197  -12.0246   28.0086 C   0  0  0  0  0  0  0  0  0  0  0  0
    5.6464  -12.4357   27.1296 C   0  0  0  0  0  0  0  0  0  0  0  0
    5.9716  -13.2544   26.0733 C   0  0  0  0  0  0  0  0  0  0  0  0
    7.3745  -16.7191   23.7275 C   0  0  0  0  0  0  0  0  0  0  0  0
    8.3958  -17.4508   23.6360 O   0  0  0  0  0  0  0  0  0  0  0  0
    6.4833  -16.6721   22.6193 N   0  0  0  0  0  0  0  0  0  0  0  0
    6.4572  -15.5321   21.7563 C   0  0  0  0  0  0  0  0  0  0  0  0
    7.4206  -15.7372   20.6473 C   0  0  0  0  0  0  0  0  0  0  0  0
    7.7724  -16.9058   20.2856 O   0  0  0  0  0  0  0  0  0  0  0  0
    7.9454  -14.5890   19.9938 N   0  0  0  0  0  0  0  0  0  0  0  0
    7.6614  -13.2526   20.3992 C   0  0  0  0  0  0  0  0  0  0  0  0
    8.4491  -12.3499   19.5209 C   0  0  0  0  0  0  0  0  0  0  0  0
    8.6637  -13.2180   18.2796 C   0  0  0  0  0  0  0  0  0  0  0  0
    8.8116  -14.6125   18.8587 C   0  0  1  0  0  0  0  0  0  0  0  0
   10.2020  -14.8881   19.2746 C   0  0  0  0  0  0  0  0  0  0  0  0
   11.1277  -15.2765   18.3383 O   0  0  0  0  0  0  0  0  0  0  0  0
   10.4883  -14.7536   20.4933 O   0  0  0  0  0  0  0  0  0  0  0  0
  2 10  1  0
  2  1  1  1
  3  2  1  0
  4  3  1  0
  5  4  2  0
  6  5  1  0
  7  8  1  0
  7  6  2  0
  8  9  2  0
  9  4  1  0
 10 12  1  0
 11 10  2  0
 12 13  1  0
 13 14  1  0
 14 16  1  0
 15 14  2  0
 16 20  1  0
 16 17  1  0
 17 18  1  0
 19 18  1  0
 20 21  1  1
 20 19  1  0
 21 22  1  0
 23 21  2  0
M  END
$$$$
