FGP.pdb
     RDKit          3D

 23 24  0  0  1  0  0  0  0  0999 V2000
    9.0005  -15.9576   25.2225 N   0  0  0  0  0  0  0  0  0  0  0  0
    7.7267  -16.4749   25.6126 C   0  0  1  0  0  0  0  0  0  0  0  0
    7.2391  -15.9063   26.9280 C   0  0  0  0  0  0  0  0  0  0  0  0
    7.1639  -14.4334   26.8954 C   0  0  0  0  0  0  0  0  0  0  0  0
    5.9729  -13.8295   26.4782 C   0  0  0  0  0  0  0  0  0  0  0  0
    5.8853  -12.4577   26.4418 C   0  0  0  0  0  0  0  0  0  0  0  0
    6.9826  -11.7095   26.8205 C   0  0  0  0  0  0  0  0  0  0  0  0
    8.1520  -12.3040   27.2302 C   0  0  0  0  0  0  0  0  0  0  0  0
    8.2517  -13.6752   27.2709 C   0  0  0  0  0  0  0  0  0  0  0  0
    6.7441  -16.1741   24.5395 C   0  0  0  0  0  0  0  0  0  0  0  0
    5.6170  -16.7348   24.4941 O   0  0  0  0  0  0  0  0  0  0  0  0
    7.0635  -15.2298   23.5243 N   0  0  0  0  0  0  0  0  0  0  0  0
    8.2801  -15.3457   22.7815 C   0  0  0  0  0  0  0  0  0  0  0  0
    7.9606  -15.6533   21.3661 C   0  0  0  0  0  0  0  0  0  0  0  0
    7.6261  -16.8269   21.0045 O   0  0  0  0  0  0  0  0  0  0  0  0
    8.0377  -14.5981   20.4166 N   0  0  0  0  0  0  0  0  0  0  0  0
    8.2199  -13.2301   20.7717 C   0  0  0  0  0  0  0  0  0  0  0  0
    8.3233  -12.4576   19.5070 C   0  0  0  0  0  0  0  0  0  0  0  0
    7.5874  -13.3633   18.5176 C   0  0  0  0  0  0  0  0  0  0  0  0
    7.9420  -14.7571   19.0007 C   0  0  1  0  0  0  0  0  0  0  0  0
    9.2299  -15.2185   18.4436 C   0  0  0  0  0  0  0  0  0  0  0  0
    9.2799  -15.7101   17.1629 O   0  0  0  0  0  0  0  0  0  0  0  0
   10.2493  -15.1416   19.1787 O   0  0  0  0  0  0  0  0  0  0  0  0
  2 10  1  0
  2  1  1  6
  3  2  1  0
  4  3  1  0
  5  4  2  0
  6  5  1  0
  7  8  1  0
  7  6  2  0
  8  9  2  0
  9  4  1  0
 10 12  1  0
 11 10  2  0
 12 13  1  0
 13 14  1  0
 14 16  1  0
 15 14  2  0
 16 20  1  0
 16 17  1  0
 17 18  1  0
 19 18  1  0
 20 21  1  6
 20 19  1  0
 21 22  1  0
 23 21  2  0
M  END
$$$$
