IYE.pdb
     RDKit          3D

 30 30  0  0  1  0  0  0  0  0999 V2000
   33.1413  -22.2762   -9.4283 C   0  0  0  0  0  0  0  0  0  0  0  0
   32.1559  -21.6700  -10.3922 C   0  0  0  0  0  0  0  0  0  0  0  0
   30.7646  -21.9076   -9.9248 C   0  0  2  0  0  0  0  0  0  0  0  0
   30.5272  -23.3881   -9.6653 C   0  0  0  0  0  0  0  0  0  0  0  0
   29.6847  -21.3712  -10.8094 C   0  0  2  0  0  0  0  0  0  0  0  0
   30.0345  -19.9668  -11.0830 N   0  0  0  0  0  0  0  0  0  0  0  0
   28.3344  -21.4790  -10.2579 C   0  0  0  0  0  0  0  0  0  0  0  0
   27.7873  -22.5959  -10.1287 O   0  0  0  0  0  0  0  0  0  0  0  0
   29.3690  -20.6103   -3.7507 O   0  0  0  0  0  0  0  0  0  0  0  0
   28.5649  -20.2964   -4.8527 C   0  0  0  0  0  0  0  0  0  0  0  0
   27.5612  -21.1454   -5.2651 C   0  0  0  0  0  0  0  0  0  0  0  0
   26.7632  -20.8313   -6.3605 C   0  0  0  0  0  0  0  0  0  0  0  0
   26.9422  -19.6661   -7.0742 C   0  0  0  0  0  0  0  0  0  0  0  0
   26.1006  -19.3257   -8.2419 C   0  0  0  0  0  0  0  0  0  0  0  0
   26.2710  -20.3023   -9.3924 C   0  0  2  0  0  0  0  0  0  0  0  0
   27.6407  -20.3118   -9.8674 N   0  0  0  0  0  0  0  0  0  0  0  0
   25.3286  -20.0903  -10.4974 C   0  0  0  0  0  0  0  0  0  0  0  0
   25.3601  -19.1036  -11.2680 O   0  0  0  0  0  0  0  0  0  0  0  0
   27.9624  -18.8266   -6.6368 C   0  0  0  0  0  0  0  0  0  0  0  0
   28.7538  -19.1225   -5.5621 C   0  0  0  0  0  0  0  0  0  0  0  0
   24.3089  -21.0542  -10.7243 N   0  0  0  0  0  0  0  0  0  0  0  0
   23.2934  -20.8395  -11.7742 C   0  0  1  0  0  0  0  0  0  0  0  0
   23.4908  -21.8444  -12.8712 C   0  0  0  0  0  0  0  0  0  0  0  0
   23.1662  -21.3688  -14.2412 C   0  0  0  0  0  0  0  0  0  0  0  0
   23.3376  -22.3734  -15.3077 C   0  0  0  0  0  0  0  0  0  0  0  0
   23.7486  -23.5458  -15.1194 O   0  0  0  0  0  0  0  0  0  0  0  0
   21.9483  -20.8557  -11.1777 C   0  0  0  0  0  0  0  0  0  0  0  0
   21.7475  -21.4195  -10.0899 O   0  0  0  0  0  0  0  0  0  0  0  0
   23.0390  -22.0633  -16.6469 O   0  0  0  0  0  0  0  0  0  0  0  0
   20.9022  -20.2403  -11.8311 O   0  0  0  0  0  0  0  0  0  0  0  0
  2  1  1  0
  3  2  1  0
  3  4  1  6
  5  7  1  0
  5  3  1  0
  5  6  1  1
  7  8  2  0
  9 10  1  0
 10 20  2  0
 10 11  1  0
 11 12  2  0
 12 13  1  0
 13 14  1  0
 15 14  1  1
 16 15  1  0
 16  7  1  0
 17 15  1  0
 18 17  2  0
 19 13  2  0
 20 19  1  0
 21 17  1  0
 22 27  1  0
 22 21  1  0
 22 23  1  6
 24 25  1  0
 24 23  1  0
 25 26  2  0
 27 30  1  0
 28 27  2  0
 29 25  1  0
M  END
$$$$
