IYE.pdb
     RDKit          3D

 30 30  0  0  1  0  0  0  0  0999 V2000
   18.6941  -10.5487  -19.4913 C   0  0  0  0  0  0  0  0  0  0  0  0
   19.7829   -9.5093  -19.4473 C   0  0  0  0  0  0  0  0  0  0  0  0
   19.5253   -8.5388  -18.3506 C   0  0  2  0  0  0  0  0  0  0  0  0
   18.1403   -7.9237  -18.4877 C   0  0  0  0  0  0  0  0  0  0  0  0
   20.5446   -7.4560  -18.1926 C   0  0  2  0  0  0  0  0  0  0  0  0
   21.8363   -8.1322  -17.9826 N   0  0  0  0  0  0  0  0  0  0  0  0
   20.2657   -6.5081  -17.1145 C   0  0  0  0  0  0  0  0  0  0  0  0
   19.1298   -6.4518  -16.5949 O   0  0  0  0  0  0  0  0  0  0  0  0
   21.6766   -9.7022  -11.5459 O   0  0  0  0  0  0  0  0  0  0  0  0
   21.8098   -8.5177  -12.2798 C   0  0  0  0  0  0  0  0  0  0  0  0
   22.6408   -8.4508  -13.3768 C   0  0  0  0  0  0  0  0  0  0  0  0
   22.7715   -7.2725  -14.1047 C   0  0  0  0  0  0  0  0  0  0  0  0
   22.0804   -6.1307  -13.7614 C   0  0  0  0  0  0  0  0  0  0  0  0
   22.2158   -4.8729  -14.5277 C   0  0  0  0  0  0  0  0  0  0  0  0
   21.1243   -4.7004  -15.5695 C   0  0  2  0  0  0  0  0  0  0  0  0
   21.2877   -5.6475  -16.6550 N   0  0  0  0  0  0  0  0  0  0  0  0
   20.9977   -3.3292  -16.0774 C   0  0  0  0  0  0  0  0  0  0  0  0
   21.8312   -2.7807  -16.8342 O   0  0  0  0  0  0  0  0  0  0  0  0
   21.2484   -6.2255  -12.6498 C   0  0  0  0  0  0  0  0  0  0  0  0
   21.1102   -7.3766  -11.9256 C   0  0  0  0  0  0  0  0  0  0  0  0
   19.8649   -2.5587  -15.6984 N   0  0  0  0  0  0  0  0  0  0  0  0
   19.6188   -1.2366  -16.3074 C   0  0  1  0  0  0  0  0  0  0  0  0
   18.2815   -1.2429  -16.9884 C   0  0  0  0  0  0  0  0  0  0  0  0
   17.8600    0.0518  -17.5837 C   0  0  0  0  0  0  0  0  0  0  0  0
   16.5217    0.0474  -18.2041 C   0  0  0  0  0  0  0  0  0  0  0  0
   15.7699   -0.9578  -18.2636 O   0  0  0  0  0  0  0  0  0  0  0  0
   19.7720   -0.1832  -15.2913 C   0  0  0  0  0  0  0  0  0  0  0  0
   19.4627   -0.3983  -14.1083 O   0  0  0  0  0  0  0  0  0  0  0  0
   15.9915    1.2130  -18.7863 O   0  0  0  0  0  0  0  0  0  0  0  0
   20.2627    1.0525  -15.6549 O   0  0  0  0  0  0  0  0  0  0  0  0
  2  1  1  0
  3  2  1  0
  3  4  1  6
  5  7  1  0
  5  3  1  0
  5  6  1  1
  7  8  2  0
  9 10  1  0
 10 20  2  0
 10 11  1  0
 11 12  2  0
 12 13  1  0
 13 14  1  0
 15 14  1  1
 16 15  1  0
 16  7  1  0
 17 15  1  0
 18 17  2  0
 19 13  2  0
 20 19  1  0
 21 17  1  0
 22 27  1  0
 22 21  1  0
 22 23  1  1
 24 25  1  0
 24 23  1  0
 25 26  2  0
 27 30  1  0
 28 27  2  0
 29 25  1  0
M  END
$$$$
