IYE.pdb
     RDKit          3D

 30 30  0  0  1  0  0  0  0  0999 V2000
   27.4575  -16.6086  -17.0635 C   0  0  0  0  0  0  0  0  0  0  0  0
   28.1592  -17.6580  -16.2426 C   0  0  0  0  0  0  0  0  0  0  0  0
   27.1689  -18.4640  -15.4806 C   0  0  2  0  0  0  0  0  0  0  0  0
   26.2489  -17.5634  -14.6693 C   0  0  0  0  0  0  0  0  0  0  0  0
   27.7419  -19.5262  -14.5974 C   0  0  2  0  0  0  0  0  0  0  0  0
   28.5644  -20.3859  -15.4658 N   0  0  0  0  0  0  0  0  0  0  0  0
   26.7493  -20.3130  -13.8665 C   0  0  0  0  0  0  0  0  0  0  0  0
   26.0895  -21.2025  -14.4470 O   0  0  0  0  0  0  0  0  0  0  0  0
   31.5930  -22.3502   -9.9107 O   0  0  0  0  0  0  0  0  0  0  0  0
   30.2415  -21.9943   -9.9901 C   0  0  0  0  0  0  0  0  0  0  0  0
   29.7128  -21.0230   -9.1684 C   0  0  0  0  0  0  0  0  0  0  0  0
   28.3694  -20.6709   -9.2491 C   0  0  0  0  0  0  0  0  0  0  0  0
   27.5170  -21.2748  -10.1479 C   0  0  0  0  0  0  0  0  0  0  0  0
   26.0868  -20.9089  -10.2384 C   0  0  0  0  0  0  0  0  0  0  0  0
   25.5960  -20.8105  -11.6723 C   0  0  2  0  0  0  0  0  0  0  0  0
   26.5325  -20.0670  -12.4922 N   0  0  0  0  0  0  0  0  0  0  0  0
   24.2366  -20.2725  -11.8005 C   0  0  0  0  0  0  0  0  0  0  0  0
   23.8368  -19.2309  -11.2317 O   0  0  0  0  0  0  0  0  0  0  0  0
   28.0763  -22.2521  -10.9657 C   0  0  0  0  0  0  0  0  0  0  0  0
   29.3944  -22.6078  -10.8974 C   0  0  0  0  0  0  0  0  0  0  0  0
   23.2997  -20.9619  -12.6174 N   0  0  0  0  0  0  0  0  0  0  0  0
   21.9578  -20.3968  -12.8614 C   0  0  1  0  0  0  0  0  0  0  0  0
   21.8761  -19.8994  -14.2750 C   0  0  0  0  0  0  0  0  0  0  0  0
   21.6851  -20.9464  -15.3121 C   0  0  0  0  0  0  0  0  0  0  0  0
   21.9035  -20.4973  -16.7001 C   0  0  0  0  0  0  0  0  0  0  0  0
   22.1482  -19.3103  -17.0322 O   0  0  0  0  0  0  0  0  0  0  0  0
   20.9281  -21.3880  -12.5114 C   0  0  0  0  0  0  0  0  0  0  0  0
   21.2291  -22.5826  -12.3571 O   0  0  0  0  0  0  0  0  0  0  0  0
   21.8480  -21.4076  -17.7711 O   0  0  0  0  0  0  0  0  0  0  0  0
   19.6184  -20.9880  -12.3535 O   0  0  0  0  0  0  0  0  0  0  0  0
  2  1  1  0
  3  2  1  0
  3  4  1  1
  5  7  1  0
  5  3  1  0
  5  6  1  6
  7  8  2  0
  9 10  1  0
 10 20  2  0
 10 11  1  0
 11 12  2  0
 12 13  1  0
 13 14  1  0
 15 14  1  1
 16 15  1  0
 16  7  1  0
 17 15  1  0
 18 17  2  0
 19 13  2  0
 20 19  1  0
 21 17  1  0
 22 27  1  0
 22 21  1  0
 22 23  1  6
 24 25  1  0
 24 23  1  0
 25 26  2  0
 27 30  1  0
 28 27  2  0
 29 25  1  0
M  END
$$$$
