IYE.pdb
     RDKit          3D

 30 30  0  0  1  0  0  0  0  0999 V2000
   10.9633  -11.5756   -9.2234 C   0  0  0  0  0  0  0  0  0  0  0  0
   11.7569  -11.2319  -10.4562 C   0  0  0  0  0  0  0  0  0  0  0  0
   12.4804   -9.9475  -10.2622 C   0  0  2  0  0  0  0  0  0  0  0  0
   11.5130   -8.8333   -9.8901 C   0  0  0  0  0  0  0  0  0  0  0  0
   13.3382   -9.5093  -11.4062 C   0  0  2  0  0  0  0  0  0  0  0  0
   14.4065  -10.5157  -11.5305 N   0  0  0  0  0  0  0  0  0  0  0  0
   13.8960   -8.1642  -11.2703 C   0  0  0  0  0  0  0  0  0  0  0  0
   13.1441   -7.1740  -11.1377 O   0  0  0  0  0  0  0  0  0  0  0  0
   13.5455   -4.7486   -5.6385 O   0  0  0  0  0  0  0  0  0  0  0  0
   14.3323   -5.1741   -6.7153 C   0  0  0  0  0  0  0  0  0  0  0  0
   14.7735   -6.4764   -6.8023 C   0  0  0  0  0  0  0  0  0  0  0  0
   15.5553   -6.8971   -7.8733 C   0  0  0  0  0  0  0  0  0  0  0  0
   15.9188   -6.0349   -8.8850 C   0  0  0  0  0  0  0  0  0  0  0  0
   16.7522   -6.4727  -10.0258 C   0  0  0  0  0  0  0  0  0  0  0  0
   15.9452   -6.6836  -11.2949 C   0  0  2  0  0  0  0  0  0  0  0  0
   15.2968   -7.9803  -11.2890 N   0  0  0  0  0  0  0  0  0  0  0  0
   16.7133   -6.4811  -12.5291 C   0  0  0  0  0  0  0  0  0  0  0  0
   17.4195   -7.3628  -13.0697 O   0  0  0  0  0  0  0  0  0  0  0  0
   15.4600   -4.7257   -8.7728 C   0  0  0  0  0  0  0  0  0  0  0  0
   14.6912   -4.2988   -7.7262 C   0  0  0  0  0  0  0  0  0  0  0  0
   16.6657   -5.2115  -13.1667 N   0  0  0  0  0  0  0  0  0  0  0  0
   17.3295   -5.0000  -14.4682 C   0  0  1  0  0  0  0  0  0  0  0  0
   16.4387   -5.4976  -15.5687 C   0  0  0  0  0  0  0  0  0  0  0  0
   16.9260   -5.2463  -16.9499 C   0  0  0  0  0  0  0  0  0  0  0  0
   16.0167   -5.6906  -18.0231 C   0  0  0  0  0  0  0  0  0  0  0  0
   14.8996   -6.2322  -17.8284 O   0  0  0  0  0  0  0  0  0  0  0  0
   17.7228   -3.5885  -14.6038 C   0  0  0  0  0  0  0  0  0  0  0  0
   17.0689   -2.6948  -14.0424 O   0  0  0  0  0  0  0  0  0  0  0  0
   16.3624   -5.5267  -19.3767 O   0  0  0  0  0  0  0  0  0  0  0  0
   18.8260   -3.2548  -15.3599 O   0  0  0  0  0  0  0  0  0  0  0  0
  2  1  1  0
  3  2  1  0
  3  4  1  6
  5  7  1  0
  5  3  1  0
  5  6  1  1
  7  8  2  0
  9 10  1  0
 10 20  2  0
 10 11  1  0
 11 12  2  0
 12 13  1  0
 13 14  1  0
 15 14  1  1
 16 15  1  0
 16  7  1  0
 17 15  1  0
 18 17  2  0
 19 13  2  0
 20 19  1  0
 21 17  1  0
 22 27  1  0
 22 21  1  0
 22 23  1  6
 24 25  1  0
 24 23  1  0
 25 26  2  0
 27 30  1  0
 28 27  2  0
 29 25  1  0
M  END
$$$$
