IYE.pdb
     RDKit          3D

 30 30  0  0  1  0  0  0  0  0999 V2000
   28.6789  -20.5163   -8.2261 C   0  0  0  0  0  0  0  0  0  0  0  0
   27.6068  -21.3451   -8.8829 C   0  0  0  0  0  0  0  0  0  0  0  0
   26.7128  -20.4800   -9.6974 C   0  0  2  0  0  0  0  0  0  0  0  0
   26.0491  -19.4205   -8.8299 C   0  0  0  0  0  0  0  0  0  0  0  0
   25.6748  -21.1972  -10.5003 C   0  0  2  0  0  0  0  0  0  0  0  0
   26.3580  -22.3381  -11.1337 N   0  0  0  0  0  0  0  0  0  0  0  0
   24.9964  -20.3706  -11.4980 C   0  0  0  0  0  0  0  0  0  0  0  0
   24.4010  -19.3246  -11.1591 O   0  0  0  0  0  0  0  0  0  0  0  0
   22.0932  -17.8786  -19.5542 O   0  0  0  0  0  0  0  0  0  0  0  0
   22.7717  -18.5098  -18.5051 C   0  0  0  0  0  0  0  0  0  0  0  0
   22.3708  -19.7430  -18.0393 C   0  0  0  0  0  0  0  0  0  0  0  0
   23.0468  -20.3684  -16.9966 C   0  0  0  0  0  0  0  0  0  0  0  0
   24.1378  -19.7848  -16.3900 C   0  0  0  0  0  0  0  0  0  0  0  0
   24.8605  -20.4411  -15.2788 C   0  0  0  0  0  0  0  0  0  0  0  0
   24.3334  -20.0330  -13.9142 C   0  0  2  0  0  0  0  0  0  0  0  0
   25.0129  -20.7560  -12.8572 N   0  0  0  0  0  0  0  0  0  0  0  0
   22.8761  -20.1459  -13.7811 C   0  0  0  0  0  0  0  0  0  0  0  0
   22.2595  -21.2335  -13.7080 O   0  0  0  0  0  0  0  0  0  0  0  0
   24.5217  -18.5398  -16.8795 C   0  0  0  0  0  0  0  0  0  0  0  0
   23.8670  -17.9139  -17.9033 C   0  0  0  0  0  0  0  0  0  0  0  0
   22.0974  -18.9578  -13.7296 N   0  0  0  0  0  0  0  0  0  0  0  0
   20.6278  -19.0177  -13.8552 C   0  0  1  0  0  0  0  0  0  0  0  0
   20.2347  -18.6924  -15.2666 C   0  0  0  0  0  0  0  0  0  0  0  0
   18.7846  -18.4551  -15.4889 C   0  0  0  0  0  0  0  0  0  0  0  0
   18.0323  -19.6183  -15.9958 C   0  0  0  0  0  0  0  0  0  0  0  0
   16.8891  -19.9536  -15.5962 O   0  0  0  0  0  0  0  0  0  0  0  0
   20.1393  -20.3217  -13.3795 C   0  0  0  0  0  0  0  0  0  0  0  0
   19.4266  -20.3967  -12.3657 O   0  0  0  0  0  0  0  0  0  0  0  0
   18.5732  -20.4494  -16.9935 O   0  0  0  0  0  0  0  0  0  0  0  0
   20.4752  -21.4699  -14.0644 O   0  0  0  0  0  0  0  0  0  0  0  0
  2  1  1  0
  3  2  1  0
  3  4  1  1
  5  7  1  0
  5  3  1  0
  5  6  1  6
  7  8  2  0
  9 10  1  0
 10 20  2  0
 10 11  1  0
 11 12  2  0
 12 13  1  0
 13 14  1  0
 15 14  1  6
 16 15  1  0
 16  7  1  0
 17 15  1  0
 18 17  2  0
 19 13  2  0
 20 19  1  0
 21 17  1  0
 22 27  1  0
 22 21  1  0
 22 23  1  6
 24 25  1  0
 24 23  1  0
 25 26  2  0
 27 30  1  0
 28 27  2  0
 29 25  1  0
M  END
$$$$
