IYE.pdb
     RDKit          3D

 30 30  0  0  1  0  0  0  0  0999 V2000
   25.9627  -14.8977  -20.4819 C   0  0  0  0  0  0  0  0  0  0  0  0
   26.3037  -13.8126  -19.4950 C   0  0  0  0  0  0  0  0  0  0  0  0
   25.0852  -13.0387  -19.1381 C   0  0  2  0  0  0  0  0  0  0  0  0
   24.3851  -12.5264  -20.3883 C   0  0  0  0  0  0  0  0  0  0  0  0
   25.2935  -11.9106  -18.1787 C   0  0  2  0  0  0  0  0  0  0  0  0
   25.8854  -12.5031  -16.9669 N   0  0  0  0  0  0  0  0  0  0  0  0
   24.0851  -11.1523  -17.8570 C   0  0  0  0  0  0  0  0  0  0  0  0
   23.4745  -10.5208  -18.7468 O   0  0  0  0  0  0  0  0  0  0  0  0
   17.1993   -8.1403  -13.1067 O   0  0  0  0  0  0  0  0  0  0  0  0
   18.3142   -8.8572  -13.5568 C   0  0  0  0  0  0  0  0  0  0  0  0
   19.5154   -8.7990  -12.8845 C   0  0  0  0  0  0  0  0  0  0  0  0
   20.6221   -9.5124  -13.3336 C   0  0  0  0  0  0  0  0  0  0  0  0
   20.5637  -10.3014  -14.4620 C   0  0  0  0  0  0  0  0  0  0  0  0
   21.7361  -11.0608  -14.9483 C   0  0  0  0  0  0  0  0  0  0  0  0
   22.4483  -10.3680  -16.0970 C   0  0  2  0  0  0  0  0  0  0  0  0
   23.6022  -11.1319  -16.5293 N   0  0  0  0  0  0  0  0  0  0  0  0
   22.8106   -8.9734  -15.8181 C   0  0  0  0  0  0  0  0  0  0  0  0
   23.8276   -8.6270  -15.1746 O   0  0  0  0  0  0  0  0  0  0  0  0
   19.3391  -10.3425  -15.1219 C   0  0  0  0  0  0  0  0  0  0  0  0
   18.2437   -9.6470  -14.6918 C   0  0  0  0  0  0  0  0  0  0  0  0
   21.9675   -7.9355  -16.3003 N   0  0  0  0  0  0  0  0  0  0  0  0
   22.2849   -6.5208  -16.0227 C   0  0  1  0  0  0  0  0  0  0  0  0
   22.0597   -5.7068  -17.2633 C   0  0  0  0  0  0  0  0  0  0  0  0
   22.3018   -4.2472  -17.1241 C   0  0  0  0  0  0  0  0  0  0  0  0
   22.1242   -3.4643  -18.3616 C   0  0  0  0  0  0  0  0  0  0  0  0
   21.8098   -3.9564  -19.4743 O   0  0  0  0  0  0  0  0  0  0  0  0
   21.5215   -6.0587  -14.8526 C   0  0  0  0  0  0  0  0  0  0  0  0
   22.0828   -5.4284  -13.9420 O   0  0  0  0  0  0  0  0  0  0  0  0
   22.3036   -2.0691  -18.3657 O   0  0  0  0  0  0  0  0  0  0  0  0
   20.1723   -6.3273  -14.7658 O   0  0  0  0  0  0  0  0  0  0  0  0
  2  1  1  0
  3  2  1  0
  3  4  1  6
  5  7  1  0
  5  3  1  0
  5  6  1  1
  7  8  2  0
  9 10  1  0
 10 20  2  0
 10 11  1  0
 11 12  2  0
 12 13  1  0
 13 14  1  0
 15 14  1  1
 16 15  1  0
 16  7  1  0
 17 15  1  0
 18 17  2  0
 19 13  2  0
 20 19  1  0
 21 17  1  0
 22 27  1  0
 22 21  1  0
 22 23  1  6
 24 25  1  0
 24 23  1  0
 25 26  2  0
 27 30  1  0
 28 27  2  0
 29 25  1  0
M  END
$$$$
