IYE.pdb
     RDKit          3D

 30 30  0  0  1  0  0  0  0  0999 V2000
   28.0193  -20.8599  -20.9181 C   0  0  0  0  0  0  0  0  0  0  0  0
   28.7710  -21.3744  -19.7190 C   0  0  0  0  0  0  0  0  0  0  0  0
   27.8615  -21.4824  -18.5476 C   0  0  2  0  0  0  0  0  0  0  0  0
   27.1034  -20.1810  -18.3305 C   0  0  0  0  0  0  0  0  0  0  0  0
   28.5043  -21.9112  -17.2672 C   0  0  2  0  0  0  0  0  0  0  0  0
   29.1011  -23.2326  -17.5269 N   0  0  0  0  0  0  0  0  0  0  0  0
   27.6018  -21.9584  -16.1173 C   0  0  0  0  0  0  0  0  0  0  0  0
   26.7237  -22.8446  -16.0338 O   0  0  0  0  0  0  0  0  0  0  0  0
   24.5185  -20.0644   -7.9767 O   0  0  0  0  0  0  0  0  0  0  0  0
   25.2825  -20.1234   -9.1482 C   0  0  0  0  0  0  0  0  0  0  0  0
   25.9594  -21.2713   -9.4983 C   0  0  0  0  0  0  0  0  0  0  0  0
   26.7180  -21.3276  -10.6631 C   0  0  0  0  0  0  0  0  0  0  0  0
   26.8237  -20.2453  -11.5095 C   0  0  0  0  0  0  0  0  0  0  0  0
   27.6305  -20.2953  -12.7481 C   0  0  0  0  0  0  0  0  0  0  0  0
   26.9040  -20.9775  -13.8941 C   0  0  2  0  0  0  0  0  0  0  0  0
   27.7220  -20.9949  -15.0910 N   0  0  0  0  0  0  0  0  0  0  0  0
   25.5736  -20.4224  -14.1698 C   0  0  0  0  0  0  0  0  0  0  0  0
   25.3746  -19.3071  -14.7035 O   0  0  0  0  0  0  0  0  0  0  0  0
   26.1304  -19.0989  -11.1326 C   0  0  0  0  0  0  0  0  0  0  0  0
   25.3812  -19.0296   -9.9913 C   0  0  0  0  0  0  0  0  0  0  0  0
   24.4258  -21.1831  -13.8169 N   0  0  0  0  0  0  0  0  0  0  0  0
   23.0758  -20.5938  -13.9147 C   0  0  1  0  0  0  0  0  0  0  0  0
   22.2928  -21.3148  -14.9727 C   0  0  0  0  0  0  0  0  0  0  0  0
   22.7366  -21.0774  -16.3710 C   0  0  0  0  0  0  0  0  0  0  0  0
   21.9110  -21.7268  -17.4066 C   0  0  0  0  0  0  0  0  0  0  0  0
   20.8507  -21.2427  -17.8763 O   0  0  0  0  0  0  0  0  0  0  0  0
   22.4360  -20.5906  -12.5895 C   0  0  0  0  0  0  0  0  0  0  0  0
   22.9263  -21.2386  -11.6508 O   0  0  0  0  0  0  0  0  0  0  0  0
   22.2784  -22.9723  -17.9474 O   0  0  0  0  0  0  0  0  0  0  0  0
   21.2830  -19.8625  -12.3877 O   0  0  0  0  0  0  0  0  0  0  0  0
  2  1  1  0
  3  2  1  0
  3  4  1  1
  5  7  1  0
  5  3  1  0
  5  6  1  6
  7  8  2  0
  9 10  1  0
 10 20  2  0
 10 11  1  0
 11 12  2  0
 12 13  1  0
 13 14  1  0
 15 14  1  1
 16 15  1  0
 16  7  1  0
 17 15  1  0
 18 17  2  0
 19 13  2  0
 20 19  1  0
 21 17  1  0
 22 27  1  0
 22 21  1  0
 22 23  1  6
 24 25  1  0
 24 23  1  0
 25 26  2  0
 27 30  1  0
 28 27  2  0
 29 25  1  0
M  END
$$$$
