IYE.pdb
     RDKit          3D

 30 30  0  0  1  0  0  0  0  0999 V2000
   19.0176  -15.2120  -16.4633 C   0  0  0  0  0  0  0  0  0  0  0  0
   20.4416  -14.9105  -16.8493 C   0  0  0  0  0  0  0  0  0  0  0  0
   20.8407  -13.5709  -16.3421 C   0  0  2  0  0  0  0  0  0  0  0  0
   19.9068  -12.4925  -16.8718 C   0  0  0  0  0  0  0  0  0  0  0  0
   22.2608  -13.1789  -16.5991 C   0  0  2  0  0  0  0  0  0  0  0  0
   23.0951  -14.2427  -16.0143 N   0  0  0  0  0  0  0  0  0  0  0  0
   22.6363  -11.8670  -16.0732 C   0  0  0  0  0  0  0  0  0  0  0  0
   22.7753  -11.6906  -14.8432 O   0  0  0  0  0  0  0  0  0  0  0  0
   28.7231  -12.7167  -15.7357 O   0  0  0  0  0  0  0  0  0  0  0  0
   27.7032  -11.8215  -16.0790 C   0  0  0  0  0  0  0  0  0  0  0  0
   27.0258  -11.9397  -17.2730 C   0  0  0  0  0  0  0  0  0  0  0  0
   26.0125  -11.0489  -17.6120 C   0  0  0  0  0  0  0  0  0  0  0  0
   25.6466  -10.0179  -16.7740 C   0  0  0  0  0  0  0  0  0  0  0  0
   24.5727   -9.0644  -17.1278 C   0  0  0  0  0  0  0  0  0  0  0  0
   23.2263   -9.4538  -16.5429 C   0  0  2  0  0  0  0  0  0  0  0  0
   22.8441  -10.7882  -16.9617 N   0  0  0  0  0  0  0  0  0  0  0  0
   22.1568   -8.4865  -16.8156 C   0  0  0  0  0  0  0  0  0  0  0  0
   21.6436   -8.3060  -17.9436 O   0  0  0  0  0  0  0  0  0  0  0  0
   26.3464   -9.9212  -15.5750 C   0  0  0  0  0  0  0  0  0  0  0  0
   27.3439  -10.7894  -15.2289 C   0  0  0  0  0  0  0  0  0  0  0  0
   21.6578   -7.6951  -15.7454 N   0  0  0  0  0  0  0  0  0  0  0  0
   20.5749   -6.7185  -15.9756 C   0  0  1  0  0  0  0  0  0  0  0  0
   19.2570   -7.3430  -15.6214 C   0  0  0  0  0  0  0  0  0  0  0  0
   18.0701   -6.4613  -15.7702 C   0  0  0  0  0  0  0  0  0  0  0  0
   16.7920   -7.0566  -15.3364 C   0  0  0  0  0  0  0  0  0  0  0  0
   16.6754   -8.2065  -14.8434 O   0  0  0  0  0  0  0  0  0  0  0  0
   20.8649   -5.4719  -15.2494 C   0  0  0  0  0  0  0  0  0  0  0  0
   21.6887   -5.4602  -14.3206 O   0  0  0  0  0  0  0  0  0  0  0  0
   15.5857   -6.3428  -15.4548 O   0  0  0  0  0  0  0  0  0  0  0  0
   20.2174   -4.3074  -15.6026 O   0  0  0  0  0  0  0  0  0  0  0  0
  2  1  1  0
  3  2  1  0
  3  4  1  6
  5  7  1  0
  5  3  1  0
  5  6  1  1
  7  8  2  0
  9 10  1  0
 10 20  2  0
 10 11  1  0
 11 12  2  0
 12 13  1  0
 13 14  1  0
 15 14  1  6
 16 15  1  0
 16  7  1  0
 17 15  1  0
 18 17  2  0
 19 13  2  0
 20 19  1  0
 21 17  1  0
 22 27  1  0
 22 21  1  0
 22 23  1  1
 24 25  1  0
 24 23  1  0
 25 26  2  0
 27 30  1  0
 28 27  2  0
 29 25  1  0
M  END
$$$$
