IYE.pdb
     RDKit          3D

 30 30  0  0  1  0  0  0  0  0999 V2000
   30.2021  -20.5490  -20.3893 C   0  0  0  0  0  0  0  0  0  0  0  0
   29.0612  -19.7684  -19.7919 C   0  0  0  0  0  0  0  0  0  0  0  0
   28.5673  -20.4384  -18.5598 C   0  0  2  0  0  0  0  0  0  0  0  0
   28.2337  -21.8974  -18.8349 C   0  0  0  0  0  0  0  0  0  0  0  0
   27.4103  -19.7755  -17.8828 C   0  0  2  0  0  0  0  0  0  0  0  0
   27.8429  -18.4012  -17.5769 N   0  0  0  0  0  0  0  0  0  0  0  0
   26.9352  -20.4575  -16.6795 C   0  0  0  0  0  0  0  0  0  0  0  0
   26.4299  -21.5989  -16.7526 O   0  0  0  0  0  0  0  0  0  0  0  0
   24.5534  -21.1619   -8.1027 O   0  0  0  0  0  0  0  0  0  0  0  0
   25.2017  -20.8375   -9.3002 C   0  0  0  0  0  0  0  0  0  0  0  0
   24.8004  -19.7576  -10.0558 C   0  0  0  0  0  0  0  0  0  0  0  0
   25.4462  -19.4370  -11.2455 C   0  0  0  0  0  0  0  0  0  0  0  0
   26.5068  -20.1811  -11.7150 C   0  0  0  0  0  0  0  0  0  0  0  0
   27.1971  -19.8494  -12.9804 C   0  0  0  0  0  0  0  0  0  0  0  0
   26.4308  -20.3149  -14.2062 C   0  0  2  0  0  0  0  0  0  0  0  0
   27.0472  -19.8223  -15.4224 N   0  0  0  0  0  0  0  0  0  0  0  0
   24.9991  -19.9939  -14.1703 C   0  0  0  0  0  0  0  0  0  0  0  0
   24.5343  -18.8397  -14.3119 O   0  0  0  0  0  0  0  0  0  0  0  0
   26.8918  -21.2661  -10.9330 C   0  0  0  0  0  0  0  0  0  0  0  0
   26.2665  -21.5924   -9.7620 C   0  0  0  0  0  0  0  0  0  0  0  0
   24.0649  -21.0451  -13.9635 N   0  0  0  0  0  0  0  0  0  0  0  0
   22.6150  -20.7681  -13.9472 C   0  0  1  0  0  0  0  0  0  0  0  0
   21.9031  -21.7898  -14.7848 C   0  0  0  0  0  0  0  0  0  0  0  0
   20.4381  -21.5883  -14.9327 C   0  0  0  0  0  0  0  0  0  0  0  0
   19.7574  -22.5694  -15.7988 C   0  0  0  0  0  0  0  0  0  0  0  0
   18.5402  -22.5203  -16.1071 O   0  0  0  0  0  0  0  0  0  0  0  0
   22.1377  -20.6906  -12.5574 C   0  0  0  0  0  0  0  0  0  0  0  0
   22.6265  -21.4217  -11.6810 O   0  0  0  0  0  0  0  0  0  0  0  0
   20.4597  -23.6568  -16.3493 O   0  0  0  0  0  0  0  0  0  0  0  0
   21.1399  -19.7995  -12.2248 O   0  0  0  0  0  0  0  0  0  0  0  0
  2  1  1  0
  3  2  1  0
  3  4  1  6
  5  7  1  0
  5  3  1  0
  5  6  1  1
  7  8  2  0
  9 10  1  0
 10 20  2  0
 10 11  1  0
 11 12  2  0
 12 13  1  0
 13 14  1  0
 15 14  1  1
 16 15  1  0
 16  7  1  0
 17 15  1  0
 18 17  2  0
 19 13  2  0
 20 19  1  0
 21 17  1  0
 22 27  1  0
 22 21  1  0
 22 23  1  6
 24 25  1  0
 24 23  1  0
 25 26  2  0
 27 30  1  0
 28 27  2  0
 29 25  1  0
M  END
$$$$
