IYE.pdb
     RDKit          3D

 30 30  0  0  1  0  0  0  0  0999 V2000
   23.8886  -11.9795  -14.9592 C   0  0  0  0  0  0  0  0  0  0  0  0
   23.4644  -10.6923  -14.3030 C   0  0  0  0  0  0  0  0  0  0  0  0
   22.3637  -10.0579  -15.0757 C   0  0  2  0  0  0  0  0  0  0  0  0
   22.7227   -9.9665  -16.5516 C   0  0  0  0  0  0  0  0  0  0  0  0
   21.9149   -8.7195  -14.5820 C   0  0  2  0  0  0  0  0  0  0  0  0
   21.4706   -8.9197  -13.1920 N   0  0  0  0  0  0  0  0  0  0  0  0
   20.8648   -8.0938  -15.3849 C   0  0  0  0  0  0  0  0  0  0  0  0
   21.0612   -7.8229  -16.5896 O   0  0  0  0  0  0  0  0  0  0  0  0
   17.7444  -12.5608  -18.9062 O   0  0  0  0  0  0  0  0  0  0  0  0
   17.6295  -11.4459  -18.0676 C   0  0  0  0  0  0  0  0  0  0  0  0
   17.4424  -10.1830  -18.5857 C   0  0  0  0  0  0  0  0  0  0  0  0
   17.3283   -9.0765  -17.7503 C   0  0  0  0  0  0  0  0  0  0  0  0
   17.3975   -9.1962  -16.3792 C   0  0  0  0  0  0  0  0  0  0  0  0
   17.2804   -8.0249  -15.4836 C   0  0  0  0  0  0  0  0  0  0  0  0
   18.5219   -7.1503  -15.4964 C   0  0  2  0  0  0  0  0  0  0  0  0
   19.6168   -7.7919  -14.7953 N   0  0  0  0  0  0  0  0  0  0  0  0
   18.2965   -5.7896  -14.9946 C   0  0  0  0  0  0  0  0  0  0  0  0
   18.2189   -5.4926  -13.7804 O   0  0  0  0  0  0  0  0  0  0  0  0
   17.5868  -10.4823  -15.8822 C   0  0  0  0  0  0  0  0  0  0  0  0
   17.7003  -11.5783  -16.6912 C   0  0  0  0  0  0  0  0  0  0  0  0
   18.1551   -4.7280  -15.9291 N   0  0  0  0  0  0  0  0  0  0  0  0
   18.0699   -3.3283  -15.4676 C   0  0  1  0  0  0  0  0  0  0  0  0
   18.5228   -2.4126  -16.5670 C   0  0  0  0  0  0  0  0  0  0  0  0
   18.4038   -0.9595  -16.2798 C   0  0  0  0  0  0  0  0  0  0  0  0
   18.8508   -0.0695  -17.3680 C   0  0  0  0  0  0  0  0  0  0  0  0
   18.7626    1.1838  -17.3418 O   0  0  0  0  0  0  0  0  0  0  0  0
   16.7130   -3.0484  -14.9717 C   0  0  0  0  0  0  0  0  0  0  0  0
   15.7267   -3.5969  -15.4893 O   0  0  0  0  0  0  0  0  0  0  0  0
   19.4229   -0.5940  -18.5412 O   0  0  0  0  0  0  0  0  0  0  0  0
   16.5344   -2.1704  -13.9242 O   0  0  0  0  0  0  0  0  0  0  0  0
  2  1  1  0
  3  2  1  0
  3  4  1  6
  5  7  1  0
  5  3  1  0
  5  6  1  1
  7  8  2  0
  9 10  1  0
 10 20  2  0
 10 11  1  0
 11 12  2  0
 12 13  1  0
 13 14  1  0
 15 14  1  1
 16 15  1  0
 16  7  1  0
 17 15  1  0
 18 17  2  0
 19 13  2  0
 20 19  1  0
 21 17  1  0
 22 27  1  0
 22 21  1  0
 22 23  1  6
 24 25  1  0
 24 23  1  0
 25 26  2  0
 27 30  1  0
 28 27  2  0
 29 25  1  0
M  END
$$$$
