RPC.pdb
     RDKit          3D

 25 25  0  0  1  0  0  0  0  0999 V2000
   20.6022  -21.2205  -11.4935 N   0  0  0  0  0  0  0  0  0  0  0  0
   21.4090  -21.3581  -12.6792 C   0  0  0  0  0  0  0  0  0  0  0  0
   20.8231  -21.3092  -13.8179 N   0  0  0  0  0  0  0  0  0  0  0  0
   22.8043  -21.5416  -12.6007 N   0  0  0  0  0  0  0  0  0  0  0  0
   23.4674  -21.4309  -11.3033 C   0  0  0  0  0  0  0  0  0  0  0  0
   24.3170  -20.1990  -11.3591 C   0  0  0  0  0  0  0  0  0  0  0  0
   25.7082  -20.3277  -10.8592 C   0  0  0  0  0  0  0  0  0  0  0  0
   26.6870  -20.9662  -11.8106 C   0  0  2  0  0  0  0  0  0  0  0  0
   27.9159  -21.1719  -11.0062 N   0  0  0  0  0  0  0  0  0  0  0  0
   27.0561  -19.9679  -12.8564 C   0  0  0  0  0  0  0  0  0  0  0  0
   27.4863  -18.8406  -12.4853 O   0  0  0  0  0  0  0  0  0  0  0  0
   21.2715  -21.3882  -14.7400 N   0  0  0  0  0  0  0  0  0  0  0  0
   26.9548  -20.2100  -14.2504 C   0  0  0  0  0  0  0  0  0  0  0  0
   26.4061  -21.4384  -14.8223 C   0  0  0  0  0  0  0  0  0  0  0  0
   26.4749  -21.3229  -16.3071 C   0  0  0  0  0  0  0  0  0  0  0  0
   27.4434  -20.2124  -16.5473 C   0  0  2  0  0  0  0  0  0  0  0  0
   27.3277  -19.3284  -15.3219 C   0  0  0  0  0  0  0  0  0  0  0  0
   26.2100  -18.3628  -15.6349 O   0  0  0  0  0  0  0  0  0  0  0  0
   25.0449  -18.8211  -15.6354 N   0  0  0  0  0  0  0  0  0  0  0  0
   26.4039  -17.0008  -15.9211 C   0  0  1  0  0  0  0  0  0  0  0  0
   25.3804  -16.0336  -16.1361 C   0  0  0  0  0  0  0  0  0  0  0  0
   25.4558  -14.8100  -15.2824 S   0  0  0  0  0  0  0  0  0  0  0  0
   27.2390  -14.4333  -15.0586 C   0  0  0  0  0  0  0  0  0  0  0  0
   25.2930  -15.5845  -17.5537 O   0  0  0  0  0  0  0  0  0  0  0  0
   26.2116  -15.8923  -18.3522 O   0  0  0  0  0  0  0  0  0  0  0  0
  2  1  1  0
  2  3  2  0
  4  5  1  0
  4  2  1  0
  6  5  1  0
  6  7  1  0
  7  8  1  0
  8 10  1  0
  8  9  1  1
 10 12  1  0
 11 10  2  0
 12 13  1  0
 12 16  1  0
 13 14  1  0
 14 15  1  0
 16 15  1  0
 17 19  1  0
 16 17  1  6
 18 17  2  0
 20 21  1  6
 20 23  1  0
 20 19  1  0
 22 21  1  0
 23 25  1  0
 24 23  2  0
M  END
$$$$
