RPC.pdb
     RDKit          3D

 25 25  0  0  1  0  0  0  0  0999 V2000
   19.4200  -22.0669  -10.3128 N   0  0  0  0  0  0  0  0  0  0  0  0
   19.4954  -22.3803  -11.7171 C   0  0  0  0  0  0  0  0  0  0  0  0
   18.6312  -21.8512  -12.5017 N   0  0  0  0  0  0  0  0  0  0  0  0
   20.4877  -23.2431  -12.2246 N   0  0  0  0  0  0  0  0  0  0  0  0
   21.8912  -22.9769  -11.9169 C   0  0  0  0  0  0  0  0  0  0  0  0
   22.4720  -22.2951  -13.1170 C   0  0  0  0  0  0  0  0  0  0  0  0
   23.9497  -22.1675  -13.1589 C   0  0  0  0  0  0  0  0  0  0  0  0
   24.5951  -21.6408  -11.9031 C   0  0  2  0  0  0  0  0  0  0  0  0
   23.4646  -21.1695  -11.0667 N   0  0  0  0  0  0  0  0  0  0  0  0
   25.3765  -20.4167  -12.2458 C   0  0  0  0  0  0  0  0  0  0  0  0
   24.8002  -19.2960  -12.1715 O   0  0  0  0  0  0  0  0  0  0  0  0
   18.5577  -21.9963  -13.5171 N   0  0  0  0  0  0  0  0  0  0  0  0
   26.7360  -20.4348  -12.6503 C   0  0  0  0  0  0  0  0  0  0  0  0
   27.5223  -21.6585  -12.7962 C   0  0  0  0  0  0  0  0  0  0  0  0
   28.8965  -21.2715  -13.2258 C   0  0  0  0  0  0  0  0  0  0  0  0
   28.9859  -19.8148  -12.9111 C   0  0  1  0  0  0  0  0  0  0  0  0
   27.5595  -19.3120  -13.0048 C   0  0  0  0  0  0  0  0  0  0  0  0
   27.3650  -18.9420  -14.4557 O   0  0  0  0  0  0  0  0  0  0  0  0
   27.1868  -19.8813  -15.2640 N   0  0  0  0  0  0  0  0  0  0  0  0
   27.3736  -17.6227  -14.9391 C   0  0  1  0  0  0  0  0  0  0  0  0
   26.9466  -17.1983  -16.2302 C   0  0  0  0  0  0  0  0  0  0  0  0
   26.3023  -15.8518  -16.2892 S   0  0  0  0  0  0  0  0  0  0  0  0
   24.7893  -15.9462  -15.2531 C   0  0  0  0  0  0  0  0  0  0  0  0
   28.0421  -17.2139  -17.2394 O   0  0  0  0  0  0  0  0  0  0  0  0
   29.2326  -17.3026  -16.8509 O   0  0  0  0  0  0  0  0  0  0  0  0
  2  1  1  0
  2  3  2  0
  4  5  1  0
  4  2  1  0
  6  5  1  0
  6  7  1  0
  7  8  1  0
  8 10  1  0
  8  9  1  1
 10 12  1  0
 11 10  2  0
 12 13  1  0
 12 16  1  0
 13 14  1  0
 14 15  1  0
 16 15  1  0
 17 19  1  0
 16 17  1  6
 18 17  2  0
 20 21  1  6
 20 23  1  0
 20 19  1  0
 22 21  1  0
 23 25  1  0
 24 23  2  0
M  END
$$$$
