RPC.pdb
     RDKit          3D

 25 25  0  0  1  0  0  0  0  0999 V2000
   20.3821  -18.0658  -17.4155 N   0  0  0  0  0  0  0  0  0  0  0  0
   20.2520  -16.9574  -16.5042 C   0  0  0  0  0  0  0  0  0  0  0  0
   19.8082  -15.8463  -16.9635 N   0  0  0  0  0  0  0  0  0  0  0  0
   20.5999  -17.0804  -15.1439 N   0  0  0  0  0  0  0  0  0  0  0  0
   21.7623  -17.8850  -14.7739 C   0  0  0  0  0  0  0  0  0  0  0  0
   21.2658  -19.2802  -14.5525 C   0  0  0  0  0  0  0  0  0  0  0  0
   21.3005  -19.7847  -13.1575 C   0  0  0  0  0  0  0  0  0  0  0  0
   22.3747  -20.7978  -12.8563 C   0  0  2  0  0  0  0  0  0  0  0  0
   22.3580  -21.7219  -14.0162 N   0  0  0  0  0  0  0  0  0  0  0  0
   21.9432  -21.6169  -11.6861 C   0  0  0  0  0  0  0  0  0  0  0  0
   21.1163  -22.5511  -11.8792 O   0  0  0  0  0  0  0  0  0  0  0  0
   19.6674  -14.9776  -16.4315 N   0  0  0  0  0  0  0  0  0  0  0  0
   22.4096  -21.4107  -10.3625 C   0  0  0  0  0  0  0  0  0  0  0  0
   23.2893  -20.3093   -9.9751 C   0  0  0  0  0  0  0  0  0  0  0  0
   23.5630  -20.4335   -8.5149 C   0  0  0  0  0  0  0  0  0  0  0  0
   23.1758  -21.8370   -8.1841 C   0  0  1  0  0  0  0  0  0  0  0  0
   22.1028  -22.1891   -9.1944 C   0  0  0  0  0  0  0  0  0  0  0  0
   20.8064  -21.7307   -8.5705 O   0  0  0  0  0  0  0  0  0  0  0  0
   20.3472  -20.6311   -8.9544 N   0  0  0  0  0  0  0  0  0  0  0  0
   20.1002  -22.4595   -7.5986 C   0  0  1  0  0  0  0  0  0  0  0  0
   18.9162  -23.2213   -7.8158 C   0  0  0  0  0  0  0  0  0  0  0  0
   18.9855  -24.2252   -8.9200 S   0  0  0  0  0  0  0  0  0  0  0  0
   17.3082  -24.9565   -9.0728 C   0  0  0  0  0  0  0  0  0  0  0  0
   18.4505  -23.9335   -6.5933 O   0  0  0  0  0  0  0  0  0  0  0  0
   19.2440  -24.6942   -5.9868 O   0  0  0  0  0  0  0  0  0  0  0  0
  2  1  1  0
  2  3  2  0
  4  5  1  0
  4  2  1  0
  6  5  1  0
  6  7  1  0
  7  8  1  0
  8 10  1  0
  8  9  1  6
 10 12  1  0
 11 10  2  0
 12 13  1  0
 12 16  1  0
 13 14  1  0
 14 15  1  0
 16 15  1  0
 17 19  1  0
 16 17  1  1
 18 17  2  0
 20 21  1  1
 20 23  1  0
 20 19  1  0
 22 21  1  0
 23 25  1  0
 24 23  2  0
M  END
$$$$
