RPC.pdb
     RDKit          3D

 25 25  0  0  1  0  0  0  0  0999 V2000
   22.3267  -18.6061  -18.2245 N   0  0  0  0  0  0  0  0  0  0  0  0
   21.1521  -17.8584  -17.8544 C   0  0  0  0  0  0  0  0  0  0  0  0
   20.1243  -18.5086  -17.4501 N   0  0  0  0  0  0  0  0  0  0  0  0
   21.1230  -16.4513  -17.9307 N   0  0  0  0  0  0  0  0  0  0  0  0
   22.3156  -15.7354  -18.3782 C   0  0  0  0  0  0  0  0  0  0  0  0
   21.8923  -14.3256  -18.6532 C   0  0  0  0  0  0  0  0  0  0  0  0
   22.2392  -13.3146  -17.6240 C   0  0  0  0  0  0  0  0  0  0  0  0
   23.6078  -13.4528  -17.0086 C   0  0  2  0  0  0  0  0  0  0  0  0
   23.5257  -14.6778  -16.1767 N   0  0  0  0  0  0  0  0  0  0  0  0
   23.8144  -12.3300  -16.0478 C   0  0  0  0  0  0  0  0  0  0  0  0
   23.2159  -12.3722  -14.9371 O   0  0  0  0  0  0  0  0  0  0  0  0
   19.1940  -18.1187  -17.2502 N   0  0  0  0  0  0  0  0  0  0  0  0
   24.6488  -11.2124  -16.3065 C   0  0  0  0  0  0  0  0  0  0  0  0
   25.4695  -11.0741  -17.5082 C   0  0  0  0  0  0  0  0  0  0  0  0
   26.2049   -9.7806  -17.4144 C   0  0  0  0  0  0  0  0  0  0  0  0
   26.1110   -9.4056  -15.9723 C   0  0  1  0  0  0  0  0  0  0  0  0
   24.8224  -10.0417  -15.4917 C   0  0  0  0  0  0  0  0  0  0  0  0
   23.7463   -9.0229  -15.7816 O   0  0  0  0  0  0  0  0  0  0  0  0
   23.3293   -8.9547  -16.9601 N   0  0  0  0  0  0  0  0  0  0  0  0
   23.1976   -8.1618  -14.8163 C   0  0  1  0  0  0  0  0  0  0  0  0
   22.1270   -7.2445  -15.0205 C   0  0  0  0  0  0  0  0  0  0  0  0
   21.3163   -6.9154  -13.8096 S   0  0  0  0  0  0  0  0  0  0  0  0
   19.9190   -5.8695  -14.3797 C   0  0  0  0  0  0  0  0  0  0  0  0
   22.5710   -5.9572  -15.6240 O   0  0  0  0  0  0  0  0  0  0  0  0
   21.7252   -5.2196  -16.1867 O   0  0  0  0  0  0  0  0  0  0  0  0
  2  1  1  0
  2  3  2  0
  4  5  1  0
  4  2  1  0
  6  5  1  0
  6  7  1  0
  7  8  1  0
  8 10  1  0
  8  9  1  1
 10 12  1  0
 11 10  2  0
 12 13  1  0
 12 16  1  0
 13 14  1  0
 14 15  1  0
 16 15  1  0
 17 19  1  0
 16 17  1  6
 18 17  2  0
 20 21  1  6
 20 23  1  0
 20 19  1  0
 22 21  1  0
 23 25  1  0
 24 23  2  0
M  END
$$$$
