RPC.pdb
     RDKit          3D

 25 25  0  0  1  0  0  0  0  0999 V2000
   23.4536  -20.1267   -7.7529 N   0  0  0  0  0  0  0  0  0  0  0  0
   23.9000  -20.7606   -8.9673 C   0  0  0  0  0  0  0  0  0  0  0  0
   23.0606  -20.8856   -9.9277 N   0  0  0  0  0  0  0  0  0  0  0  0
   25.2204  -21.2336   -9.1063 N   0  0  0  0  0  0  0  0  0  0  0  0
   26.0549  -20.7149  -10.1879 C   0  0  0  0  0  0  0  0  0  0  0  0
   25.7721  -21.5600  -11.3913 C   0  0  0  0  0  0  0  0  0  0  0  0
   26.0722  -20.9563  -12.7131 C   0  0  0  0  0  0  0  0  0  0  0  0
   24.9646  -20.1358  -13.3224 C   0  0  2  0  0  0  0  0  0  0  0  0
   23.8180  -21.0703  -13.4301 N   0  0  0  0  0  0  0  0  0  0  0  0
   25.3385  -19.7981  -14.7269 C   0  0  0  0  0  0  0  0  0  0  0  0
   25.0064  -20.5977  -15.6456 O   0  0  0  0  0  0  0  0  0  0  0  0
   23.2293  -21.3476  -10.8308 N   0  0  0  0  0  0  0  0  0  0  0  0
   26.0465  -18.6257  -15.0957 C   0  0  0  0  0  0  0  0  0  0  0  0
   26.6029  -17.6775  -14.1321 C   0  0  0  0  0  0  0  0  0  0  0  0
   27.2614  -16.5802  -14.8970 C   0  0  0  0  0  0  0  0  0  0  0  0
   26.7053  -16.7059  -16.2769 C   0  0  1  0  0  0  0  0  0  0  0  0
   26.3642  -18.1751  -16.4226 C   0  0  0  0  0  0  0  0  0  0  0  0
   27.6313  -18.8278  -16.9209 O   0  0  0  0  0  0  0  0  0  0  0  0
   28.7089  -18.2383  -16.6785 N   0  0  0  0  0  0  0  0  0  0  0  0
   27.6654  -20.0402  -17.6303 C   0  0  1  0  0  0  0  0  0  0  0  0
   28.8359  -20.7335  -18.0531 C   0  0  0  0  0  0  0  0  0  0  0  0
   28.9260  -22.1656  -17.6376 S   0  0  0  0  0  0  0  0  0  0  0  0
   28.5307  -22.2197  -15.8453 C   0  0  0  0  0  0  0  0  0  0  0  0
   29.0414  -20.6824  -19.5275 O   0  0  0  0  0  0  0  0  0  0  0  0
   30.1007  -21.1471  -20.0155 O   0  0  0  0  0  0  0  0  0  0  0  0
  2  1  1  0
  2  3  2  0
  4  5  1  0
  4  2  1  0
  6  5  1  0
  6  7  1  0
  7  8  1  0
  8 10  1  0
  8  9  1  6
 10 12  1  0
 11 10  2  0
 12 13  1  0
 12 16  1  0
 13 14  1  0
 14 15  1  0
 16 15  1  0
 17 19  1  0
 16 17  1  6
 18 17  2  0
 20 21  1  6
 20 23  1  0
 20 19  1  0
 22 21  1  0
 23 25  1  0
 24 23  2  0
M  END
$$$$
