RPC.pdb
     RDKit          3D

 25 25  0  0  1  0  0  0  0  0999 V2000
   24.5310  -20.2417   -9.0987 N   0  0  0  0  0  0  0  0  0  0  0  0
   23.7705  -20.8652  -10.1517 C   0  0  0  0  0  0  0  0  0  0  0  0
   22.5775  -20.4478  -10.3642 N   0  0  0  0  0  0  0  0  0  0  0  0
   24.3132  -21.9056  -10.9324 N   0  0  0  0  0  0  0  0  0  0  0  0
   25.2094  -21.5758  -12.0384 C   0  0  0  0  0  0  0  0  0  0  0  0
   26.2875  -20.7043  -11.4723 C   0  0  0  0  0  0  0  0  0  0  0  0
   27.2487  -20.1218  -12.4410 C   0  0  0  0  0  0  0  0  0  0  0  0
   27.2315  -20.7265  -13.8213 C   0  0  2  0  0  0  0  0  0  0  0  0
   28.5945  -21.2804  -14.0078 N   0  0  0  0  0  0  0  0  0  0  0  0
   27.1063  -19.6268  -14.8222 C   0  0  0  0  0  0  0  0  0  0  0  0
   27.8955  -18.6452  -14.7378 O   0  0  0  0  0  0  0  0  0  0  0  0
   21.9268  -20.7953  -11.0806 N   0  0  0  0  0  0  0  0  0  0  0  0
   26.1507  -19.6178  -15.8704 C   0  0  0  0  0  0  0  0  0  0  0  0
   25.1555  -20.6700  -16.0695 C   0  0  0  0  0  0  0  0  0  0  0  0
   24.3440  -20.3121  -17.2679 C   0  0  0  0  0  0  0  0  0  0  0  0
   25.1607  -19.2801  -17.9729 C   0  0  2  0  0  0  0  0  0  0  0  0
   25.9639  -18.6095  -16.8768 C   0  0  0  0  0  0  0  0  0  0  0  0
   25.0811  -17.4973  -16.3636 O   0  0  0  0  0  0  0  0  0  0  0  0
   24.0755  -17.8303  -15.6962 N   0  0  0  0  0  0  0  0  0  0  0  0
   25.3232  -16.1320  -16.5911 C   0  0  1  0  0  0  0  0  0  0  0  0
   24.5164  -15.0489  -16.1380 C   0  0  0  0  0  0  0  0  0  0  0  0
   25.2140  -13.7351  -15.9999 S   0  0  0  0  0  0  0  0  0  0  0  0
   26.5269  -13.9663  -14.7372 C   0  0  0  0  0  0  0  0  0  0  0  0
   23.3109  -14.8277  -16.9846 O   0  0  0  0  0  0  0  0  0  0  0  0
   23.2927  -15.2795  -18.1558 O   0  0  0  0  0  0  0  0  0  0  0  0
  2  1  1  0
  2  3  2  0
  4  5  1  0
  4  2  1  0
  6  5  1  0
  6  7  1  0
  7  8  1  0
  8 10  1  0
  8  9  1  6
 10 12  1  0
 11 10  2  0
 12 13  1  0
 12 16  1  0
 13 14  1  0
 14 15  1  0
 16 15  1  0
 17 19  1  0
 16 17  1  6
 18 17  2  0
 20 21  1  6
 20 23  1  0
 20 19  1  0
 22 21  1  0
 23 25  1  0
 24 23  2  0
M  END
$$$$
