RPC.pdb
     RDKit          3D

 25 25  0  0  1  0  0  0  0  0999 V2000
   27.7433  -21.3051  -11.7959 N   0  0  0  0  0  0  0  0  0  0  0  0
   26.3995  -20.8202  -11.6088 C   0  0  0  0  0  0  0  0  0  0  0  0
   25.8081  -21.0898  -10.5043 N   0  0  0  0  0  0  0  0  0  0  0  0
   25.7444  -20.0694  -12.6055 N   0  0  0  0  0  0  0  0  0  0  0  0
   26.4752  -19.6958  -13.8145 C   0  0  0  0  0  0  0  0  0  0  0  0
   26.6384  -18.2078  -13.7748 C   0  0  0  0  0  0  0  0  0  0  0  0
   26.0364  -17.4429  -14.8947 C   0  0  0  0  0  0  0  0  0  0  0  0
   24.5340  -17.5061  -14.9950 C   0  0  2  0  0  0  0  0  0  0  0  0
   24.2433  -18.8903  -15.4410 N   0  0  0  0  0  0  0  0  0  0  0  0
   24.0932  -16.6242  -16.1150 C   0  0  0  0  0  0  0  0  0  0  0  0
   24.1061  -17.0911  -17.2878 O   0  0  0  0  0  0  0  0  0  0  0  0
   24.8686  -20.7807  -10.2226 N   0  0  0  0  0  0  0  0  0  0  0  0
   23.6557  -15.2861  -15.9415 C   0  0  0  0  0  0  0  0  0  0  0  0
   23.7828  -14.5477  -14.6863 C   0  0  0  0  0  0  0  0  0  0  0  0
   23.2071  -13.1882  -14.8942 C   0  0  0  0  0  0  0  0  0  0  0  0
   22.3863  -13.3199  -16.1343 C   0  0  1  0  0  0  0  0  0  0  0  0
   23.0559  -14.4262  -16.9241 C   0  0  0  0  0  0  0  0  0  0  0  0
   24.1149  -13.7369  -17.7506 O   0  0  0  0  0  0  0  0  0  0  0  0
   25.1695  -13.4051  -17.1631 N   0  0  0  0  0  0  0  0  0  0  0  0
   23.9824  -13.4523  -19.1203 C   0  0  1  0  0  0  0  0  0  0  0  0
   24.9671  -12.8443  -19.9510 C   0  0  0  0  0  0  0  0  0  0  0  0
   24.9455  -13.2543  -21.3873 S   0  0  0  0  0  0  0  0  0  0  0  0
   25.1101  -15.0829  -21.4154 C   0  0  0  0  0  0  0  0  0  0  0  0
   24.9234  -11.3559  -19.9107 O   0  0  0  0  0  0  0  0  0  0  0  0
   23.9588  -10.7858  -19.3445 O   0  0  0  0  0  0  0  0  0  0  0  0
  2  1  1  0
  2  3  2  0
  4  5  1  0
  4  2  1  0
  6  5  1  0
  6  7  1  0
  7  8  1  0
  8 10  1  0
  8  9  1  6
 10 12  1  0
 11 10  2  0
 12 13  1  0
 12 16  1  0
 13 14  1  0
 14 15  1  0
 16 15  1  0
 17 19  1  0
 16 17  1  6
 18 17  2  0
 20 21  1  6
 20 23  1  0
 20 19  1  0
 22 21  1  0
 23 25  1  0
 24 23  2  0
M  END
$$$$
