RPQ.pdb
     RDKit          3D

 28 28  0  0  1  0  0  0  0  0999 V2000
    8.1686  -15.6558   16.2066 N   0  0  0  0  0  0  0  0  0  0  0  0
    8.0003  -14.2831   16.5106 C   0  0  0  0  0  0  0  0  0  0  0  0
    8.4143  -13.3618   15.6907 N   0  0  0  0  0  0  0  0  0  0  0  0
    7.3716  -13.8474   17.7196 N   0  0  0  0  0  0  0  0  0  0  0  0
    7.9541  -14.1918   19.0269 C   0  0  0  0  0  0  0  0  0  0  0  0
    7.0467  -13.6516   20.0732 C   0  0  0  0  0  0  0  0  0  0  0  0
    7.3119  -14.0631   21.4714 C   0  0  0  0  0  0  0  0  0  0  0  0
    8.4077  -13.3131   22.1842 C   0  0  2  0  0  0  0  0  0  0  0  0
    9.6012  -13.1708   21.4357 N   0  0  0  0  0  0  0  0  0  0  0  0
    8.6171  -13.8032   23.5601 C   0  0  0  0  0  0  0  0  0  0  0  0
    9.6704  -14.5289   23.7288 O   0  0  0  0  0  0  0  0  0  0  0  0
    8.4016  -12.3644   15.9978 N   0  0  0  0  0  0  0  0  0  0  0  0
    7.7622  -13.5380   24.6747 C   0  0  0  0  0  0  0  0  0  0  0  0
    6.4932  -12.8825   24.7302 C   0  0  0  0  0  0  0  0  0  0  0  0
    6.4475  -12.1945   26.0680 C   0  0  0  0  0  0  0  0  0  0  0  0
    7.5320  -12.8513   26.8569 C   0  0  1  0  0  0  0  0  0  0  0  0
    8.0989  -13.9356   26.0168 C   0  0  0  0  0  0  0  0  0  0  0  0
    7.6421  -15.2939   26.3765 O   0  0  0  0  0  0  0  0  0  0  0  0
    6.6535  -15.7667   25.7592 N   0  0  0  0  0  0  0  0  0  0  0  0
   10.0846  -17.7923   23.1968 C   0  0  0  0  0  0  0  0  0  0  0  0
   10.7998  -18.5784   24.1169 O   0  0  0  0  0  0  0  0  0  0  0  0
   11.4862  -19.5384   23.7281 C   0  0  0  0  0  0  0  0  0  0  0  0
   10.7503  -18.2771   25.5781 C   0  0  0  0  0  0  0  0  0  0  0  0
    9.8984  -17.0695   25.8560 C   0  0  2  0  0  0  0  0  0  0  0  0
    9.0862  -17.2555   27.0671 N   0  0  0  0  0  0  0  0  0  0  0  0
    8.2404  -16.0985   27.3672 C   0  0  0  0  0  0  0  0  0  0  0  0
    9.8543  -17.6758   28.2390 O   0  0  0  0  0  0  0  0  0  0  0  0
   10.0969  -19.0229   28.4476 O   0  0  0  0  0  0  0  0  0  0  0  0
  2  1  1  0
  3  2  2  0
  4  2  1  0
  5  4  1  0
  6  5  1  0
  7  6  1  0
  8  9  1  6
  8  7  1  0
 10  8  1  0
 11 10  2  0
 12 10  1  0
 12 16  1  0
 13 14  1  0
 13 12  1  0
 14 15  1  0
 15 16  1  0
 16 17  1  6
 17 18  2  0
 20 21  2  0
 20 19  1  0
 22 20  1  0
 23 22  1  0
 24 23  1  6
 24 26  1  0
 25 17  1  0
 25 24  1  0
 26 28  2  0
 26 27  1  0
M  END
$$$$
