RPQ.pdb
     RDKit          3D

 28 28  0  0  1  0  0  0  0  0999 V2000
    8.5604  -12.0849   18.1169 N   0  0  0  0  0  0  0  0  0  0  0  0
    8.4144  -13.4866   17.9789 C   0  0  0  0  0  0  0  0  0  0  0  0
    8.7087  -14.0819   16.8602 N   0  0  0  0  0  0  0  0  0  0  0  0
    7.9437  -14.3076   19.0519 N   0  0  0  0  0  0  0  0  0  0  0  0
    8.8783  -14.8001   20.0769 C   0  0  0  0  0  0  0  0  0  0  0  0
    8.4013  -14.2956   21.3915 C   0  0  0  0  0  0  0  0  0  0  0  0
    7.0973  -14.8060   21.8749 C   0  0  0  0  0  0  0  0  0  0  0  0
    7.1457  -15.6956   23.0905 C   0  0  2  0  0  0  0  0  0  0  0  0
    5.8940  -16.2407   23.4661 N   0  0  0  0  0  0  0  0  0  0  0  0
    7.8906  -15.0794   24.2050 C   0  0  0  0  0  0  0  0  0  0  0  0
    9.1410  -15.3912   24.2670 O   0  0  0  0  0  0  0  0  0  0  0  0
    8.6327  -15.1211   16.8016 N   0  0  0  0  0  0  0  0  0  0  0  0
    7.3390  -14.1951   25.1835 C   0  0  0  0  0  0  0  0  0  0  0  0
    6.0186  -13.6616   25.3067 C   0  0  0  0  0  0  0  0  0  0  0  0
    6.1856  -12.2961   25.9170 C   0  0  0  0  0  0  0  0  0  0  0  0
    7.5669  -12.3127   26.4839 C   0  0  1  0  0  0  0  0  0  0  0  0
    8.1153  -13.6767   26.2795 C   0  0  0  0  0  0  0  0  0  0  0  0
    8.1029  -14.5307   27.4851 O   0  0  0  0  0  0  0  0  0  0  0  0
    7.0655  -15.2012   27.7227 N   0  0  0  0  0  0  0  0  0  0  0  0
   10.9984  -18.3186   25.3867 C   0  0  0  0  0  0  0  0  0  0  0  0
   11.8481  -18.3119   26.5064 O   0  0  0  0  0  0  0  0  0  0  0  0
   12.8072  -19.0988   26.5762 C   0  0  0  0  0  0  0  0  0  0  0  0
   11.6171  -17.3606   27.6335 C   0  0  0  0  0  0  0  0  0  0  0  0
   10.4192  -16.4897   27.3735 C   0  0  1  0  0  0  0  0  0  0  0  0
    9.9134  -15.8911   28.6172 N   0  0  0  0  0  0  0  0  0  0  0  0
    9.1774  -14.6457   28.3901 C   0  0  0  0  0  0  0  0  0  0  0  0
   10.9308  -15.7302   29.6560 O   0  0  0  0  0  0  0  0  0  0  0  0
   11.3619  -16.8384   30.3652 O   0  0  0  0  0  0  0  0  0  0  0  0
  2  1  1  0
  3  2  2  0
  4  2  1  0
  5  4  1  0
  6  5  1  0
  7  6  1  0
  8  9  1  1
  8  7  1  0
 10  8  1  0
 11 10  2  0
 12 10  1  0
 12 16  1  0
 13 14  1  0
 13 12  1  0
 14 15  1  0
 15 16  1  0
 16 17  1  1
 17 18  2  0
 20 21  2  0
 20 19  1  0
 22 20  1  0
 23 22  1  0
 24 23  1  6
 24 26  1  0
 25 17  1  0
 25 24  1  0
 26 28  2  0
 26 27  1  0
M  END
$$$$
