RPQ.pdb
     RDKit          3D

 28 28  0  0  1  0  0  0  0  0999 V2000
   16.4266  -15.8940   18.3380 N   0  0  0  0  0  0  0  0  0  0  0  0
   15.1883  -15.2656   18.0610 C   0  0  0  0  0  0  0  0  0  0  0  0
   15.0962  -13.9694   17.9993 N   0  0  0  0  0  0  0  0  0  0  0  0
   13.9919  -16.0172   17.8358 N   0  0  0  0  0  0  0  0  0  0  0  0
   12.9109  -15.4633   17.0044 C   0  0  0  0  0  0  0  0  0  0  0  0
   11.6389  -16.0844   17.4588 C   0  0  0  0  0  0  0  0  0  0  0  0
   11.2056  -15.7930   18.8451 C   0  0  0  0  0  0  0  0  0  0  0  0
   10.8256  -14.3630   19.1316 C   0  0  2  0  0  0  0  0  0  0  0  0
   11.8042  -13.4114   18.7551 N   0  0  0  0  0  0  0  0  0  0  0  0
   10.3120  -14.1850   20.5032 C   0  0  0  0  0  0  0  0  0  0  0  0
   11.1734  -13.7480   21.3585 O   0  0  0  0  0  0  0  0  0  0  0  0
   14.1578  -13.5317   17.8686 N   0  0  0  0  0  0  0  0  0  0  0  0
    8.9749  -14.4558   20.9304 C   0  0  0  0  0  0  0  0  0  0  0  0
    7.8681  -15.0034   20.2105 C   0  0  0  0  0  0  0  0  0  0  0  0
    6.6414  -14.3536   20.7920 C   0  0  0  0  0  0  0  0  0  0  0  0
    7.1073  -13.7844   22.0914 C   0  0  1  0  0  0  0  0  0  0  0  0
    8.5243  -14.1877   22.2712 C   0  0  0  0  0  0  0  0  0  0  0  0
    8.7293  -15.3082   23.2123 O   0  0  0  0  0  0  0  0  0  0  0  0
    8.6054  -16.4795   22.7710 N   0  0  0  0  0  0  0  0  0  0  0  0
    9.6521  -15.0023   29.9641 C   0  0  0  0  0  0  0  0  0  0  0  0
    9.8963  -14.4205   28.7080 O   0  0  0  0  0  0  0  0  0  0  0  0
   10.6895  -13.4708   28.5953 C   0  0  0  0  0  0  0  0  0  0  0  0
    9.2092  -14.9305   27.4848 C   0  0  0  0  0  0  0  0  0  0  0  0
   10.1216  -15.8092   26.6746 C   0  0  1  0  0  0  0  0  0  0  0  0
    9.4684  -16.2621   25.4380 N   0  0  0  0  0  0  0  0  0  0  0  0
    9.0551  -15.1537   24.5749 C   0  0  0  0  0  0  0  0  0  0  0  0
    8.3740  -17.2080   25.6560 O   0  0  0  0  0  0  0  0  0  0  0  0
    7.0889  -16.8634   25.2730 O   0  0  0  0  0  0  0  0  0  0  0  0
  2  1  1  0
  3  2  2  0
  4  2  1  0
  5  4  1  0
  6  5  1  0
  7  6  1  0
  8  9  1  1
  8  7  1  0
 10  8  1  0
 11 10  2  0
 12 10  1  0
 12 16  1  0
 13 14  1  0
 13 12  1  0
 14 15  1  0
 15 16  1  0
 16 17  1  1
 17 18  2  0
 20 21  2  0
 20 19  1  0
 22 20  1  0
 23 22  1  0
 24 23  1  6
 24 26  1  0
 25 17  1  0
 25 24  1  0
 26 28  2  0
 26 27  1  0
M  END
$$$$
