RPQ.pdb
     RDKit          3D

 28 28  0  0  1  0  0  0  0  0999 V2000
    3.7710  -19.7927   22.6755 N   0  0  0  0  0  0  0  0  0  0  0  0
    3.4012  -18.9321   21.6136 C   0  0  0  0  0  0  0  0  0  0  0  0
    2.1513  -18.7643   21.2943 N   0  0  0  0  0  0  0  0  0  0  0  0
    4.3732  -18.2114   20.8502 N   0  0  0  0  0  0  0  0  0  0  0  0
    5.7845  -18.1953   21.2683 C   0  0  0  0  0  0  0  0  0  0  0  0
    6.5248  -17.3456   20.2988 C   0  0  0  0  0  0  0  0  0  0  0  0
    7.9630  -17.1142   20.5684 C   0  0  0  0  0  0  0  0  0  0  0  0
    8.3803  -15.6759   20.7375 C   0  0  2  0  0  0  0  0  0  0  0  0
    9.2329  -15.1907   19.7164 N   0  0  0  0  0  0  0  0  0  0  0  0
    8.8571  -15.3890   22.1040 C   0  0  0  0  0  0  0  0  0  0  0  0
   10.0939  -15.6819   22.3255 O   0  0  0  0  0  0  0  0  0  0  0  0
    1.9097  -18.1330   20.4992 N   0  0  0  0  0  0  0  0  0  0  0  0
    8.0690  -14.8308   23.1579 C   0  0  0  0  0  0  0  0  0  0  0  0
    6.6874  -14.4652   23.1841 C   0  0  0  0  0  0  0  0  0  0  0  0
    6.5948  -13.2868   24.1157 C   0  0  0  0  0  0  0  0  0  0  0  0
    7.8761  -13.3216   24.8818 C   0  0  2  0  0  0  0  0  0  0  0  0
    8.6155  -14.5364   24.4568 C   0  0  0  0  0  0  0  0  0  0  0  0
    8.5459  -15.6628   25.4105 O   0  0  0  0  0  0  0  0  0  0  0  0
    7.9803  -16.7211   25.0334 N   0  0  0  0  0  0  0  0  0  0  0  0
   10.6862  -14.0106   30.3723 C   0  0  0  0  0  0  0  0  0  0  0  0
   10.5608  -15.3832   30.6479 O   0  0  0  0  0  0  0  0  0  0  0  0
   10.3682  -15.7792   31.8098 C   0  0  0  0  0  0  0  0  0  0  0  0
   10.6559  -16.3928   29.5523 C   0  0  0  0  0  0  0  0  0  0  0  0
   10.9831  -15.7401   28.2378 C   0  0  1  0  0  0  0  0  0  0  0  0
   10.2614  -16.3804   27.1288 N   0  0  0  0  0  0  0  0  0  0  0  0
    9.0714  -15.6323   26.7180 C   0  0  0  0  0  0  0  0  0  0  0  0
    9.9542  -17.7925   27.3561 O   0  0  0  0  0  0  0  0  0  0  0  0
    8.6345  -18.2112   27.3578 O   0  0  0  0  0  0  0  0  0  0  0  0
  2  1  1  0
  3  2  2  0
  4  2  1  0
  5  4  1  0
  6  5  1  0
  7  6  1  0
  8  9  1  6
  8  7  1  0
 10  8  1  0
 11 10  2  0
 12 10  1  0
 12 16  1  0
 13 14  1  0
 13 12  1  0
 14 15  1  0
 15 16  1  0
 16 17  1  1
 17 18  2  0
 20 21  2  0
 20 19  1  0
 22 20  1  0
 23 22  1  0
 24 23  1  6
 24 26  1  0
 25 17  1  0
 25 24  1  0
 26 28  2  0
 26 27  1  0
M  END
$$$$
