INQ.pdb
     RDKit          3D

 26 25  0  0  1  0  0  0  0  0999 V2000
    6.1250  -11.1985   26.3014 C   0  0  0  0  0  0  0  0  0  0  0  0
    5.7082  -12.5102   25.7314 C   0  0  0  0  0  0  0  0  0  0  0  0
    6.8689  -13.3817   25.2995 C   0  0  2  0  0  0  0  0  0  0  0  0
    7.7892  -12.5497   24.4731 C   0  0  0  0  0  0  0  0  0  0  0  0
    6.4067  -14.6581   24.6585 C   0  0  2  0  0  0  0  0  0  0  0  0
    5.6622  -15.3662   25.7194 N   0  0  0  0  0  0  0  0  0  0  0  0
    7.5528  -15.5168   24.3031 C   0  0  0  0  0  0  0  0  0  0  0  0
    8.1407  -16.2687   25.1231 O   0  0  0  0  0  0  0  0  0  0  0  0
   10.3724  -18.4692   20.1319 N   0  0  0  0  0  0  0  0  0  0  0  0
   10.6147  -17.2546   20.8096 C   0  0  0  0  0  0  0  0  0  0  0  0
   11.7876  -16.9434   21.1018 O   0  0  0  0  0  0  0  0  0  0  0  0
    9.5112  -16.3634   21.1703 C   0  0  0  0  0  0  0  0  0  0  0  0
    9.1960  -16.4911   22.6411 C   0  0  2  0  0  0  0  0  0  0  0  0
    8.0879  -15.5556   22.9707 N   0  0  0  0  0  0  0  0  0  0  0  0
   10.3514  -16.0220   23.4150 C   0  0  0  0  0  0  0  0  0  0  0  0
   10.4671  -14.7614   23.6190 O   0  0  0  0  0  0  0  0  0  0  0  0
    9.2282  -15.0738   27.9004 N   0  0  0  0  0  0  0  0  0  0  0  0
   10.3497  -15.6478   28.5314 C   0  0  0  0  0  0  0  0  0  0  0  0
   10.5698  -15.4301   29.7343 O   0  0  0  0  0  0  0  0  0  0  0  0
   11.2717  -16.5181   27.7484 C   0  0  0  0  0  0  0  0  0  0  0  0
   10.8001  -16.6931   26.3376 C   0  0  0  0  0  0  0  0  0  0  0  0
   11.9037  -16.5191   25.3215 C   0  0  2  0  0  0  0  0  0  0  0  0
   11.3740  -16.8041   23.9830 N   0  0  0  0  0  0  0  0  0  0  0  0
   13.0391  -17.3921   25.6311 C   0  0  0  0  0  0  0  0  0  0  0  0
   13.0717  -18.5561   25.1040 O   0  0  0  0  0  0  0  0  0  0  0  0
   14.0968  -17.0623   26.4527 O   0  0  0  0  0  0  0  0  0  0  0  0
  2  1  1  0
  3  5  1  0
  3  2  1  0
  3  4  1  6
  5  6  1  1
  7  5  1  0
  7  8  2  0
  9 10  1  0
 10 12  1  0
 10 11  2  0
 13 12  1  6
 13 14  1  0
 14  7  1  0
 15 23  1  0
 15 13  1  0
 16 15  2  0
 18 17  1  0
 18 19  2  0
 20 21  1  0
 20 18  1  0
 22 21  1  1
 22 23  1  0
 22 24  1  0
 24 25  2  0
 24 26  1  0
M  END
$$$$
