INQ.pdb
     RDKit          3D

 26 25  0  0  1  0  0  0  0  0999 V2000
    7.2384  -12.2455   22.4954 C   0  0  0  0  0  0  0  0  0  0  0  0
    7.1238  -13.6572   22.0335 C   0  0  0  0  0  0  0  0  0  0  0  0
    7.8434  -13.9303   20.7293 C   0  0  2  0  0  0  0  0  0  0  0  0
    7.3300  -12.9728   19.7087 C   0  0  0  0  0  0  0  0  0  0  0  0
    7.7765  -15.3791   20.3419 C   0  0  2  0  0  0  0  0  0  0  0  0
    6.3341  -15.6707   20.2156 N   0  0  0  0  0  0  0  0  0  0  0  0
    8.2870  -16.2406   21.4256 C   0  0  0  0  0  0  0  0  0  0  0  0
    7.5463  -16.8301   22.2546 O   0  0  0  0  0  0  0  0  0  0  0  0
   12.2088  -18.8716   20.2227 N   0  0  0  0  0  0  0  0  0  0  0  0
   11.4417  -18.9156   21.4072 C   0  0  0  0  0  0  0  0  0  0  0  0
   10.6745  -19.8809   21.6008 O   0  0  0  0  0  0  0  0  0  0  0  0
   11.5370  -17.8473   22.4032 C   0  0  0  0  0  0  0  0  0  0  0  0
   10.1620  -17.3223   22.7393 C   0  0  2  0  0  0  0  0  0  0  0  0
    9.6922  -16.4713   21.6138 N   0  0  0  0  0  0  0  0  0  0  0  0
   10.2680  -16.4243   23.8952 C   0  0  0  0  0  0  0  0  0  0  0  0
   10.5727  -15.1978   23.6782 O   0  0  0  0  0  0  0  0  0  0  0  0
    6.6462  -13.1493   25.1146 N   0  0  0  0  0  0  0  0  0  0  0  0
    7.3354  -12.8199   26.2986 C   0  0  0  0  0  0  0  0  0  0  0  0
    7.0277  -11.8004   26.9381 O   0  0  0  0  0  0  0  0  0  0  0  0
    8.4363  -13.7007   26.7808 C   0  0  0  0  0  0  0  0  0  0  0  0
    8.7417  -14.7898   25.7990 C   0  0  0  0  0  0  0  0  0  0  0  0
    9.8485  -15.7072   26.2619 C   0  0  2  0  0  0  0  0  0  0  0  0
   10.0655  -16.7473   25.2497 N   0  0  0  0  0  0  0  0  0  0  0  0
    9.5229  -16.3018   27.5609 C   0  0  0  0  0  0  0  0  0  0  0  0
    8.9327  -17.4355   27.5792 O   0  0  0  0  0  0  0  0  0  0  0  0
    9.8050  -15.7387   28.7880 O   0  0  0  0  0  0  0  0  0  0  0  0
  2  1  1  0
  3  5  1  0
  3  2  1  0
  3  4  1  6
  5  6  1  1
  7  5  1  0
  7  8  2  0
  9 10  1  0
 10 12  1  0
 10 11  2  0
 13 12  1  6
 13 14  1  0
 14  7  1  0
 15 23  1  0
 15 13  1  0
 16 15  2  0
 18 17  1  0
 18 19  2  0
 20 21  1  0
 20 18  1  0
 22 21  1  6
 22 23  1  0
 22 24  1  0
 24 25  2  0
 24 26  1  0
M  END
$$$$
