INQ.pdb
     RDKit          3D

 26 25  0  0  1  0  0  0  0  0999 V2000
    6.5096  -11.5409   26.7757 C   0  0  0  0  0  0  0  0  0  0  0  0
    6.2022  -12.9488   26.3981 C   0  0  0  0  0  0  0  0  0  0  0  0
    7.1625  -13.5288   25.3809 C   0  0  2  0  0  0  0  0  0  0  0  0
    7.1762  -12.6290   24.1926 C   0  0  0  0  0  0  0  0  0  0  0  0
    6.8706  -14.9725   25.0902 C   0  0  2  0  0  0  0  0  0  0  0  0
    7.0869  -15.6682   26.3750 N   0  0  0  0  0  0  0  0  0  0  0  0
    7.8517  -15.5294   24.1392 C   0  0  0  0  0  0  0  0  0  0  0  0
    7.8396  -15.2882   22.9044 O   0  0  0  0  0  0  0  0  0  0  0  0
   11.3690  -16.3233   20.8681 N   0  0  0  0  0  0  0  0  0  0  0  0
   11.7219  -15.8865   22.1635 C   0  0  0  0  0  0  0  0  0  0  0  0
   12.9289  -15.7909   22.4664 O   0  0  0  0  0  0  0  0  0  0  0  0
   10.6929  -15.5471   23.1473 C   0  0  0  0  0  0  0  0  0  0  0  0
    9.9799  -16.7950   23.6091 C   0  0  2  0  0  0  0  0  0  0  0  0
    8.9100  -16.4027   24.5646 N   0  0  0  0  0  0  0  0  0  0  0  0
   10.9177  -17.6168   24.3829 C   0  0  0  0  0  0  0  0  0  0  0  0
   12.1238  -17.7142   23.9587 O   0  0  0  0  0  0  0  0  0  0  0  0
   11.0507  -13.9779   27.9130 N   0  0  0  0  0  0  0  0  0  0  0  0
   10.5722  -14.9343   28.8306 C   0  0  0  0  0  0  0  0  0  0  0  0
   10.1068  -14.5733   29.9243 O   0  0  0  0  0  0  0  0  0  0  0  0
   10.6270  -16.3823   28.4830 C   0  0  0  0  0  0  0  0  0  0  0  0
   11.2891  -16.6070   27.1584 C   0  0  0  0  0  0  0  0  0  0  0  0
   11.4099  -18.0692   26.8005 C   0  0  2  0  0  0  0  0  0  0  0  0
   10.6544  -18.3266   25.5691 N   0  0  0  0  0  0  0  0  0  0  0  0
   10.9280  -18.9150   27.8958 C   0  0  0  0  0  0  0  0  0  0  0  0
   11.6051  -18.9497   28.9794 O   0  0  0  0  0  0  0  0  0  0  0  0
    9.7864  -19.6884   27.8622 O   0  0  0  0  0  0  0  0  0  0  0  0
  2  1  1  0
  3  5  1  0
  3  2  1  0
  3  4  1  6
  5  6  1  1
  7  5  1  0
  7  8  2  0
  9 10  1  0
 10 12  1  0
 10 11  2  0
 13 12  1  1
 13 14  1  0
 14  7  1  0
 15 23  1  0
 15 13  1  0
 16 15  2  0
 18 17  1  0
 18 19  2  0
 20 21  1  0
 20 18  1  0
 22 21  1  1
 22 23  1  0
 22 24  1  0
 24 25  2  0
 24 26  1  0
M  END
$$$$
