INQ.pdb
     RDKit          3D

 26 25  0  0  1  0  0  0  0  0999 V2000
    6.6217  -11.7631   26.9252 C   0  0  0  0  0  0  0  0  0  0  0  0
    6.4945  -13.1998   26.5524 C   0  0  0  0  0  0  0  0  0  0  0  0
    7.2353  -13.5663   25.2834 C   0  0  2  0  0  0  0  0  0  0  0  0
    6.8656  -12.5781   24.2305 C   0  0  0  0  0  0  0  0  0  0  0  0
    7.0357  -15.0069   24.9110 C   0  0  2  0  0  0  0  0  0  0  0  0
    7.5884  -15.7715   26.0474 N   0  0  0  0  0  0  0  0  0  0  0  0
    7.8441  -15.3647   23.7297 C   0  0  0  0  0  0  0  0  0  0  0  0
    7.4294  -15.2663   22.5458 O   0  0  0  0  0  0  0  0  0  0  0  0
   11.8080  -13.9895   20.2307 N   0  0  0  0  0  0  0  0  0  0  0  0
   10.8892  -14.9777   20.6464 C   0  0  0  0  0  0  0  0  0  0  0  0
   10.7651  -16.0181   19.9681 O   0  0  0  0  0  0  0  0  0  0  0  0
   10.0867  -14.7948   21.8566 C   0  0  0  0  0  0  0  0  0  0  0  0
   10.0083  -16.0878   22.6317 C   0  0  2  0  0  0  0  0  0  0  0  0
    9.1871  -15.8599   23.8505 N   0  0  0  0  0  0  0  0  0  0  0  0
   11.3499  -16.4298   23.1185 C   0  0  0  0  0  0  0  0  0  0  0  0
   11.9295  -15.6069   23.9128 O   0  0  0  0  0  0  0  0  0  0  0  0
   15.6224  -14.7732   22.1463 N   0  0  0  0  0  0  0  0  0  0  0  0
   16.2411  -16.0392   22.1398 C   0  0  0  0  0  0  0  0  0  0  0  0
   17.3151  -16.2071   21.5387 O   0  0  0  0  0  0  0  0  0  0  0  0
   15.6007  -17.1771   22.8579 C   0  0  0  0  0  0  0  0  0  0  0  0
   14.2934  -16.7774   23.4700 C   0  0  0  0  0  0  0  0  0  0  0  0
   13.3143  -17.9230   23.5689 C   0  0  2  0  0  0  0  0  0  0  0  0
   12.0992  -17.5828   22.8197 N   0  0  0  0  0  0  0  0  0  0  0  0
   12.9993  -18.2196   24.9689 C   0  0  0  0  0  0  0  0  0  0  0  0
   13.0719  -19.4331   25.3639 O   0  0  0  0  0  0  0  0  0  0  0  0
   12.6281  -17.2885   25.9165 O   0  0  0  0  0  0  0  0  0  0  0  0
  2  1  1  0
  3  5  1  0
  3  2  1  0
  3  4  1  6
  5  6  1  1
  7  5  1  0
  7  8  2  0
  9 10  1  0
 10 12  1  0
 10 11  2  0
 13 12  1  6
 13 14  1  0
 14  7  1  0
 15 23  1  0
 15 13  1  0
 16 15  2  0
 18 17  1  0
 18 19  2  0
 20 21  1  0
 20 18  1  0
 22 21  1  1
 22 23  1  0
 22 24  1  0
 24 25  2  0
 24 26  1  0
M  END
$$$$
