INQ.pdb
     RDKit          3D

 26 25  0  0  1  0  0  0  0  0999 V2000
    8.4462  -11.6140   19.9463 C   0  0  0  0  0  0  0  0  0  0  0  0
    9.0430  -12.8767   20.4647 C   0  0  0  0  0  0  0  0  0  0  0  0
    8.3088  -14.1239   20.0189 C   0  0  2  0  0  0  0  0  0  0  0  0
    6.8732  -13.9730   20.3907 C   0  0  0  0  0  0  0  0  0  0  0  0
    8.9726  -15.3757   20.5148 C   0  0  2  0  0  0  0  0  0  0  0  0
    9.0191  -15.2231   21.9831 N   0  0  0  0  0  0  0  0  0  0  0  0
   10.3726  -15.4500   20.0545 C   0  0  0  0  0  0  0  0  0  0  0  0
   10.7077  -15.8203   18.8996 O   0  0  0  0  0  0  0  0  0  0  0  0
   13.6520  -15.4028   17.8603 N   0  0  0  0  0  0  0  0  0  0  0  0
   13.8688  -14.1947   18.5581 C   0  0  0  0  0  0  0  0  0  0  0  0
   14.4281  -13.2449   17.9726 O   0  0  0  0  0  0  0  0  0  0  0  0
   13.4467  -14.0469   19.9517 C   0  0  0  0  0  0  0  0  0  0  0  0
   12.8693  -15.3447   20.4630 C   0  0  2  0  0  0  0  0  0  0  0  0
   11.4723  -15.0979   20.9090 N   0  0  0  0  0  0  0  0  0  0  0  0
   13.6031  -15.7463   21.6689 C   0  0  0  0  0  0  0  0  0  0  0  0
   13.6615  -14.9142   22.6427 O   0  0  0  0  0  0  0  0  0  0  0  0
   10.5310  -18.7243   25.2072 N   0  0  0  0  0  0  0  0  0  0  0  0
   11.9388  -18.6728   25.1788 C   0  0  0  0  0  0  0  0  0  0  0  0
   12.5967  -19.0014   26.1799 O   0  0  0  0  0  0  0  0  0  0  0  0
   12.6359  -18.2219   23.9414 C   0  0  0  0  0  0  0  0  0  0  0  0
   13.7531  -17.2738   24.2518 C   0  0  0  0  0  0  0  0  0  0  0  0
   14.8452  -17.2881   23.2088 C   0  0  2  0  0  0  0  0  0  0  0  0
   14.2643  -16.9668   21.9001 N   0  0  0  0  0  0  0  0  0  0  0  0
   15.5177  -18.5896   23.1768 C   0  0  0  0  0  0  0  0  0  0  0  0
   16.2382  -18.9258   24.1777 O   0  0  0  0  0  0  0  0  0  0  0  0
   15.4381  -19.5023   22.1457 O   0  0  0  0  0  0  0  0  0  0  0  0
  2  1  1  0
  3  5  1  0
  3  2  1  0
  3  4  1  1
  5  6  1  1
  7  5  1  0
  7  8  2  0
  9 10  1  0
 10 12  1  0
 10 11  2  0
 13 12  1  1
 13 14  1  0
 14  7  1  0
 15 23  1  0
 15 13  1  0
 16 15  2  0
 18 17  1  0
 18 19  2  0
 20 21  1  0
 20 18  1  0
 22 21  1  1
 22 23  1  0
 22 24  1  0
 24 25  2  0
 24 26  1  0
M  END
$$$$
