INQ.pdb
     RDKit          3D

 26 25  0  0  1  0  0  0  0  0999 V2000
    6.3412  -13.3467   18.8121 C   0  0  0  0  0  0  0  0  0  0  0  0
    7.5653  -13.9389   19.4206 C   0  0  0  0  0  0  0  0  0  0  0  0
    8.4522  -12.9245   20.1119 C   0  0  2  0  0  0  0  0  0  0  0  0
    8.7856  -11.8554   19.1281 C   0  0  0  0  0  0  0  0  0  0  0  0
    9.6298  -13.5704   20.7824 C   0  0  2  0  0  0  0  0  0  0  0  0
   10.3262  -14.3000   19.7035 N   0  0  0  0  0  0  0  0  0  0  0  0
    9.1911  -14.5837   21.7611 C   0  0  0  0  0  0  0  0  0  0  0  0
    8.3182  -14.3699   22.6417 O   0  0  0  0  0  0  0  0  0  0  0  0
   12.0647  -18.9401   23.2522 N   0  0  0  0  0  0  0  0  0  0  0  0
   11.2720  -18.2077   22.3418 C   0  0  0  0  0  0  0  0  0  0  0  0
   11.8315  -17.5091   21.4720 O   0  0  0  0  0  0  0  0  0  0  0  0
    9.8109  -18.2597   22.4083 C   0  0  0  0  0  0  0  0  0  0  0  0
    9.2560  -16.9040   22.7730 C   0  0  2  0  0  0  0  0  0  0  0  0
    9.7402  -15.9110   21.7774 N   0  0  0  0  0  0  0  0  0  0  0  0
    9.8310  -16.4873   24.0573 C   0  0  0  0  0  0  0  0  0  0  0  0
   10.7874  -15.6334   24.0395 O   0  0  0  0  0  0  0  0  0  0  0  0
    7.2035  -12.6879   25.2281 N   0  0  0  0  0  0  0  0  0  0  0  0
    7.1598  -13.4418   26.4178 C   0  0  0  0  0  0  0  0  0  0  0  0
    6.6465  -12.9632   27.4427 O   0  0  0  0  0  0  0  0  0  0  0  0
    7.7327  -14.8171   26.4411 C   0  0  0  0  0  0  0  0  0  0  0  0
    9.2293  -14.7905   26.4949 C   0  0  0  0  0  0  0  0  0  0  0  0
    9.8419  -16.1699   26.5454 C   0  0  2  0  0  0  0  0  0  0  0  0
    9.4501  -16.9142   25.3429 N   0  0  0  0  0  0  0  0  0  0  0  0
    9.4267  -16.8801   27.7580 C   0  0  0  0  0  0  0  0  0  0  0  0
    9.8281  -16.4380   28.8883 O   0  0  0  0  0  0  0  0  0  0  0  0
    8.6238  -18.0012   27.7893 O   0  0  0  0  0  0  0  0  0  0  0  0
  2  1  1  0
  3  5  1  0
  3  2  1  0
  3  4  1  6
  5  6  1  6
  7  5  1  0
  7  8  2  0
  9 10  1  0
 10 12  1  0
 10 11  2  0
 13 12  1  6
 13 14  1  0
 14  7  1  0
 15 23  1  0
 15 13  1  0
 16 15  2  0
 18 17  1  0
 18 19  2  0
 20 21  1  0
 20 18  1  0
 22 21  1  6
 22 23  1  0
 22 24  1  0
 24 25  2  0
 24 26  1  0
M  END
$$$$
