INQ.pdb
     RDKit          3D

 26 25  0  0  1  0  0  0  0  0999 V2000
    6.5936  -11.6554   26.5954 C   0  0  0  0  0  0  0  0  0  0  0  0
    6.5952  -12.3476   25.2764 C   0  0  0  0  0  0  0  0  0  0  0  0
    7.4525  -13.5957   25.2459 C   0  0  2  0  0  0  0  0  0  0  0  0
    8.7839  -13.2561   25.8237 C   0  0  0  0  0  0  0  0  0  0  0  0
    7.4850  -14.2233   23.8826 C   0  0  2  0  0  0  0  0  0  0  0  0
    6.0667  -14.3504   23.4907 N   0  0  0  0  0  0  0  0  0  0  0  0
    8.0294  -15.5934   23.9438 C   0  0  0  0  0  0  0  0  0  0  0  0
    7.3494  -16.6247   23.7047 O   0  0  0  0  0  0  0  0  0  0  0  0
   10.6025  -18.8392   21.3051 N   0  0  0  0  0  0  0  0  0  0  0  0
   11.0529  -17.5029   21.3748 C   0  0  0  0  0  0  0  0  0  0  0  0
   12.1098  -17.1850   20.7920 O   0  0  0  0  0  0  0  0  0  0  0  0
   10.2974  -16.4941   22.1189 C   0  0  0  0  0  0  0  0  0  0  0  0
   10.1624  -16.9044   23.5655 C   0  0  2  0  0  0  0  0  0  0  0  0
    9.4003  -15.8508   24.2871 N   0  0  0  0  0  0  0  0  0  0  0  0
   11.4952  -16.9177   24.1798 C   0  0  0  0  0  0  0  0  0  0  0  0
   12.3423  -16.0340   23.7982 O   0  0  0  0  0  0  0  0  0  0  0  0
   10.7753  -13.6309   28.7713 N   0  0  0  0  0  0  0  0  0  0  0  0
   10.6119  -15.0176   28.9612 C   0  0  0  0  0  0  0  0  0  0  0  0
    9.6092  -15.4540   29.5504 O   0  0  0  0  0  0  0  0  0  0  0  0
   11.6483  -15.9592   28.4517 C   0  0  0  0  0  0  0  0  0  0  0  0
   11.3232  -16.4435   27.0721 C   0  0  0  0  0  0  0  0  0  0  0  0
   12.4072  -17.3143   26.4825 C   0  0  2  0  0  0  0  0  0  0  0  0
   11.9721  -17.7991   25.1675 N   0  0  0  0  0  0  0  0  0  0  0  0
   12.7192  -18.4335   27.3752 C   0  0  0  0  0  0  0  0  0  0  0  0
   12.0604  -19.5205   27.2396 O   0  0  0  0  0  0  0  0  0  0  0  0
   13.6804  -18.4196   28.3644 O   0  0  0  0  0  0  0  0  0  0  0  0
  2  1  1  0
  3  5  1  0
  3  2  1  0
  3  4  1  6
  5  6  1  1
  7  5  1  0
  7  8  2  0
  9 10  1  0
 10 12  1  0
 10 11  2  0
 13 12  1  6
 13 14  1  0
 14  7  1  0
 15 23  1  0
 15 13  1  0
 16 15  2  0
 18 17  1  0
 18 19  2  0
 20 21  1  0
 20 18  1  0
 22 21  1  1
 22 23  1  0
 22 24  1  0
 24 25  2  0
 24 26  1  0
M  END
$$$$
