INQ.pdb
     RDKit          3D

 26 25  0  0  1  0  0  0  0  0999 V2000
    7.2771  -12.6056   21.1772 C   0  0  0  0  0  0  0  0  0  0  0  0
    7.4231  -13.8550   20.3792 C   0  0  0  0  0  0  0  0  0  0  0  0
    8.5676  -13.8131   19.3882 C   0  0  2  0  0  0  0  0  0  0  0  0
    8.3545  -12.6466   18.4850 C   0  0  0  0  0  0  0  0  0  0  0  0
    8.7639  -15.1321   18.6987 C   0  0  2  0  0  0  0  0  0  0  0  0
    7.5213  -15.3455   17.9294 N   0  0  0  0  0  0  0  0  0  0  0  0
    8.8480  -16.2332   19.6773 C   0  0  0  0  0  0  0  0  0  0  0  0
    8.3221  -17.3628   19.5020 O   0  0  0  0  0  0  0  0  0  0  0  0
   10.3799  -19.6825   18.9319 N   0  0  0  0  0  0  0  0  0  0  0  0
   10.5241  -19.3012   20.2837 C   0  0  0  0  0  0  0  0  0  0  0  0
   10.1953  -20.1036   21.1814 O   0  0  0  0  0  0  0  0  0  0  0  0
   11.0518  -17.9832   20.6395 C   0  0  0  0  0  0  0  0  0  0  0  0
   10.1162  -17.2876   21.5986 C   0  0  2  0  0  0  0  0  0  0  0  0
    9.5496  -16.0903   20.9225 N   0  0  0  0  0  0  0  0  0  0  0  0
   10.8963  -16.7700   22.7288 C   0  0  0  0  0  0  0  0  0  0  0  0
   11.4847  -15.6396   22.5863 O   0  0  0  0  0  0  0  0  0  0  0  0
    6.3314  -16.0695   25.2570 N   0  0  0  0  0  0  0  0  0  0  0  0
    7.1609  -14.9554   25.0194 C   0  0  0  0  0  0  0  0  0  0  0  0
    6.6676  -13.8205   24.9116 O   0  0  0  0  0  0  0  0  0  0  0  0
    8.6339  -15.1448   24.8979 C   0  0  0  0  0  0  0  0  0  0  0  0
    9.0137  -16.5907   24.9903 C   0  0  0  0  0  0  0  0  0  0  0  0
   10.4941  -16.7986   25.2045 C   0  0  2  0  0  0  0  0  0  0  0  0
   11.0801  -17.3720   23.9874 N   0  0  0  0  0  0  0  0  0  0  0  0
   10.7363  -17.6665   26.3601 C   0  0  0  0  0  0  0  0  0  0  0  0
   11.2214  -17.1440   27.4210 O   0  0  0  0  0  0  0  0  0  0  0  0
   10.4794  -19.0209   26.4070 O   0  0  0  0  0  0  0  0  0  0  0  0
  2  1  1  0
  3  5  1  0
  3  2  1  0
  3  4  1  6
  5  6  1  6
  7  5  1  0
  7  8  2  0
  9 10  1  0
 10 12  1  0
 10 11  2  0
 13 12  1  6
 13 14  1  0
 14  7  1  0
 15 23  1  0
 15 13  1  0
 16 15  2  0
 18 17  1  0
 18 19  2  0
 20 21  1  0
 20 18  1  0
 22 21  1  6
 22 23  1  0
 22 24  1  0
 24 25  2  0
 24 26  1  0
M  END
$$$$
