INQ.pdb
     RDKit          3D

 26 25  0  0  1  0  0  0  0  0999 V2000
    6.8430  -11.8631   19.8825 C   0  0  0  0  0  0  0  0  0  0  0  0
    7.3679  -13.2233   19.5768 C   0  0  0  0  0  0  0  0  0  0  0  0
    7.7408  -14.0220   20.8082 C   0  0  2  0  0  0  0  0  0  0  0  0
    8.5837  -13.1573   21.6823 C   0  0  0  0  0  0  0  0  0  0  0  0
    8.3363  -15.3543   20.4563 C   0  0  2  0  0  0  0  0  0  0  0  0
    7.2644  -16.0688   19.7338 N   0  0  0  0  0  0  0  0  0  0  0  0
    8.6238  -16.1424   21.6702 C   0  0  0  0  0  0  0  0  0  0  0  0
    7.7363  -16.7058   22.3616 O   0  0  0  0  0  0  0  0  0  0  0  0
   12.3919  -18.4247   20.9862 N   0  0  0  0  0  0  0  0  0  0  0  0
   11.6067  -18.7054   22.1255 C   0  0  0  0  0  0  0  0  0  0  0  0
   10.9365  -19.7578   22.1592 O   0  0  0  0  0  0  0  0  0  0  0  0
   11.5715  -17.7804   23.2592 C   0  0  0  0  0  0  0  0  0  0  0  0
   10.2065  -17.1457   23.3732 C   0  0  2  0  0  0  0  0  0  0  0  0
    9.9629  -16.3254   22.1569 N   0  0  0  0  0  0  0  0  0  0  0  0
   10.2179  -16.1970   24.4928 C   0  0  0  0  0  0  0  0  0  0  0  0
   11.0954  -15.2621   24.4802 O   0  0  0  0  0  0  0  0  0  0  0  0
    6.1201  -12.9093   27.3072 N   0  0  0  0  0  0  0  0  0  0  0  0
    6.9622  -12.5664   26.2307 C   0  0  0  0  0  0  0  0  0  0  0  0
    6.6855  -11.5974   25.5046 O   0  0  0  0  0  0  0  0  0  0  0  0
    8.1875  -13.3723   25.9667 C   0  0  0  0  0  0  0  0  0  0  0  0
    8.3707  -14.4494   26.9913 C   0  0  0  0  0  0  0  0  0  0  0  0
    9.6016  -15.2902   26.7488 C   0  0  2  0  0  0  0  0  0  0  0  0
    9.3588  -16.1797   25.6072 N   0  0  0  0  0  0  0  0  0  0  0  0
    9.9508  -16.0597   27.9459 C   0  0  0  0  0  0  0  0  0  0  0  0
   10.3027  -15.4222   28.9965 O   0  0  0  0  0  0  0  0  0  0  0  0
    9.9298  -17.4355   28.0429 O   0  0  0  0  0  0  0  0  0  0  0  0
  2  1  1  0
  3  5  1  0
  3  2  1  0
  3  4  1  6
  5  6  1  6
  7  5  1  0
  7  8  2  0
  9 10  1  0
 10 12  1  0
 10 11  2  0
 13 12  1  6
 13 14  1  0
 14  7  1  0
 15 23  1  0
 15 13  1  0
 16 15  2  0
 18 17  1  0
 18 19  2  0
 20 21  1  0
 20 18  1  0
 22 21  1  1
 22 23  1  0
 22 24  1  0
 24 25  2  0
 24 26  1  0
M  END
$$$$
