INQ.pdb
     RDKit          3D

 26 25  0  0  1  0  0  0  0  0999 V2000
    8.7331  -11.9207   27.3815 C   0  0  0  0  0  0  0  0  0  0  0  0
    7.9833  -13.1088   26.8861 C   0  0  0  0  0  0  0  0  0  0  0  0
    7.0072  -12.7906   25.7728 C   0  0  2  0  0  0  0  0  0  0  0  0
    6.0570  -11.7566   26.2726 C   0  0  0  0  0  0  0  0  0  0  0  0
    6.3716  -14.0289   25.2102 C   0  0  2  0  0  0  0  0  0  0  0  0
    6.0466  -14.8564   26.3896 N   0  0  0  0  0  0  0  0  0  0  0  0
    7.3384  -14.8016   24.4070 C   0  0  0  0  0  0  0  0  0  0  0  0
    7.8953  -15.8551   24.8108 O   0  0  0  0  0  0  0  0  0  0  0  0
    7.5466  -13.2531   19.4544 N   0  0  0  0  0  0  0  0  0  0  0  0
    7.9061  -14.4371   20.1344 C   0  0  0  0  0  0  0  0  0  0  0  0
    7.2350  -15.4732   19.9502 O   0  0  0  0  0  0  0  0  0  0  0  0
    9.0504  -14.4607   21.0466 C   0  0  0  0  0  0  0  0  0  0  0  0
    8.6966  -15.2091   22.3091 C   0  0  2  0  0  0  0  0  0  0  0  0
    7.7190  -14.3976   23.0820 N   0  0  0  0  0  0  0  0  0  0  0  0
    9.8915  -15.2991   23.1563 C   0  0  0  0  0  0  0  0  0  0  0  0
   10.2675  -14.2439   23.7803 O   0  0  0  0  0  0  0  0  0  0  0  0
   10.3133  -15.1854   28.5485 N   0  0  0  0  0  0  0  0  0  0  0  0
   11.0142  -16.3746   28.2658 C   0  0  0  0  0  0  0  0  0  0  0  0
   10.9884  -17.3215   29.0693 O   0  0  0  0  0  0  0  0  0  0  0  0
   11.7875  -16.4915   26.9974 C   0  0  0  0  0  0  0  0  0  0  0  0
   10.9047  -16.3391   25.7970 C   0  0  0  0  0  0  0  0  0  0  0  0
   11.6528  -16.4834   24.4931 C   0  0  2  0  0  0  0  0  0  0  0  0
   10.6960  -16.4314   23.3816 N   0  0  0  0  0  0  0  0  0  0  0  0
   12.4172  -17.7333   24.4668 C   0  0  0  0  0  0  0  0  0  0  0  0
   11.9250  -18.7331   23.8407 O   0  0  0  0  0  0  0  0  0  0  0  0
   13.6444  -17.9294   25.0652 O   0  0  0  0  0  0  0  0  0  0  0  0
  2  1  1  0
  3  5  1  0
  3  2  1  0
  3  4  1  1
  5  6  1  1
  7  5  1  0
  7  8  2  0
  9 10  1  0
 10 12  1  0
 10 11  2  0
 13 12  1  6
 13 14  1  0
 14  7  1  0
 15 23  1  0
 15 13  1  0
 16 15  2  0
 18 17  1  0
 18 19  2  0
 20 21  1  0
 20 18  1  0
 22 21  1  1
 22 23  1  0
 22 24  1  0
 24 25  2  0
 24 26  1  0
M  END
$$$$
