INQ.pdb
     RDKit          3D

 26 25  0  0  1  0  0  0  0  0999 V2000
    6.9583  -12.8061   19.3053 C   0  0  0  0  0  0  0  0  0  0  0  0
    8.2768  -13.3275   19.7623 C   0  0  0  0  0  0  0  0  0  0  0  0
    8.1875  -14.2209   20.9819 C   0  0  2  0  0  0  0  0  0  0  0  0
    7.4276  -13.4901   22.0356 C   0  0  0  0  0  0  0  0  0  0  0  0
    9.5333  -14.7370   21.4016 C   0  0  2  0  0  0  0  0  0  0  0  0
   10.0821  -15.3877   20.1946 N   0  0  0  0  0  0  0  0  0  0  0  0
    9.3998  -15.7917   22.4248 C   0  0  0  0  0  0  0  0  0  0  0  0
    8.5715  -15.7438   23.3709 O   0  0  0  0  0  0  0  0  0  0  0  0
    9.2666  -20.3763   21.4186 N   0  0  0  0  0  0  0  0  0  0  0  0
   10.4140  -19.5962   21.6797 C   0  0  0  0  0  0  0  0  0  0  0  0
   11.1132  -19.2020   20.7238 O   0  0  0  0  0  0  0  0  0  0  0  0
   10.7887  -19.2479   23.0510 C   0  0  0  0  0  0  0  0  0  0  0  0
   10.0747  -17.9903   23.4842 C   0  0  2  0  0  0  0  0  0  0  0  0
   10.2216  -16.9697   22.4125 N   0  0  0  0  0  0  0  0  0  0  0  0
   10.7634  -17.4347   24.6550 C   0  0  0  0  0  0  0  0  0  0  0  0
   11.6786  -16.5591   24.4552 O   0  0  0  0  0  0  0  0  0  0  0  0
    9.8129  -12.8177   28.3284 N   0  0  0  0  0  0  0  0  0  0  0  0
    9.2650  -13.7551   27.4302 C   0  0  0  0  0  0  0  0  0  0  0  0
    8.5255  -13.3773   26.5064 O   0  0  0  0  0  0  0  0  0  0  0  0
    9.5767  -15.2030   27.5936 C   0  0  0  0  0  0  0  0  0  0  0  0
   10.8989  -15.5549   26.9842 C   0  0  0  0  0  0  0  0  0  0  0  0
   11.2222  -17.0265   27.0869 C   0  0  2  0  0  0  0  0  0  0  0  0
   10.5351  -17.7460   26.0082 N   0  0  0  0  0  0  0  0  0  0  0  0
   10.8341  -17.5548   28.3974 C   0  0  0  0  0  0  0  0  0  0  0  0
    9.8995  -18.4252   28.4488 O   0  0  0  0  0  0  0  0  0  0  0  0
   11.4002  -17.1924   29.6019 O   0  0  0  0  0  0  0  0  0  0  0  0
  2  1  1  0
  3  5  1  0
  3  2  1  0
  3  4  1  1
  5  6  1  6
  7  5  1  0
  7  8  2  0
  9 10  1  0
 10 12  1  0
 10 11  2  0
 13 12  1  6
 13 14  1  0
 14  7  1  0
 15 23  1  0
 15 13  1  0
 16 15  2  0
 18 17  1  0
 18 19  2  0
 20 21  1  0
 20 18  1  0
 22 21  1  1
 22 23  1  0
 22 24  1  0
 24 25  2  0
 24 26  1  0
M  END
$$$$
