GSA.pdb
     RDKit          3D

 16 15  0  0  1  0  0  0  0  0999 V2000
    5.8460  -17.8867   18.4997 N   0  0  0  0  0  0  0  0  0  0  0  0
    5.6420  -17.2605   19.7762 C   0  0  0  0  0  0  0  0  0  0  0  0
    6.8918  -16.5384   20.1758 C   0  0  0  0  0  0  0  0  0  0  0  0
    7.9656  -16.6647   19.5440 O   0  0  0  0  0  0  0  0  0  0  0  0
    6.9538  -14.1895   23.6443 O   0  0  0  0  0  0  0  0  0  0  0  0
    7.6947  -13.8034   22.5532 C   0  0  0  0  0  0  0  0  0  0  0  0
    8.1231  -15.0016   21.7050 C   0  0  2  0  0  0  0  0  0  0  0  0
    6.9049  -15.6720   21.3018 N   0  0  0  0  0  0  0  0  0  0  0  0
    8.8930  -15.9270   22.5767 C   0  0  0  0  0  0  0  0  0  0  0  0
    8.2918  -16.7568   23.3265 O   0  0  0  0  0  0  0  0  0  0  0  0
   12.3915  -17.1681   22.7369 C   0  0  0  0  0  0  0  0  0  0  0  0
   11.0079  -16.9914   23.3262 C   0  0  2  0  0  0  0  0  0  0  0  0
   10.3078  -15.9389   22.6225 N   0  0  0  0  0  0  0  0  0  0  0  0
   11.1008  -16.7066   24.7850 C   0  0  0  0  0  0  0  0  0  0  0  0
   10.9808  -15.4198   25.2352 O   0  0  0  0  0  0  0  0  0  0  0  0
   11.2892  -17.6817   25.5537 O   0  0  0  0  0  0  0  0  0  0  0  0
  2  1  1  0
  3  2  1  0
  4  3  2  0
  6  5  1  0
  7  6  1  1
  7  8  1  0
  8  3  1  0
  9 10  2  0
  9  7  1  0
 12 11  1  6
 12 13  1  0
 13  9  1  0
 14 12  1  0
 14 15  1  0
 16 14  2  0
M  END
$$$$
