GSA.pdb
     RDKit          3D

 16 15  0  0  1  0  0  0  0  0999 V2000
    8.6025  -15.5995   14.3294 N   0  0  0  0  0  0  0  0  0  0  0  0
    7.9161  -15.2168   15.5318 C   0  0  0  0  0  0  0  0  0  0  0  0
    8.8996  -14.6229   16.4926 C   0  0  0  0  0  0  0  0  0  0  0  0
   10.1341  -14.6503   16.2849 O   0  0  0  0  0  0  0  0  0  0  0  0
    7.6830  -13.3036   20.2915 O   0  0  0  0  0  0  0  0  0  0  0  0
    8.6159  -12.5730   19.5955 C   0  0  0  0  0  0  0  0  0  0  0  0
    9.4166  -13.4475   18.6297 C   0  0  2  0  0  0  0  0  0  0  0  0
    8.4616  -13.9981   17.6912 N   0  0  0  0  0  0  0  0  0  0  0  0
   10.0006  -14.5712   19.4075 C   0  0  0  0  0  0  0  0  0  0  0  0
    9.3909  -15.6816   19.4936 O   0  0  0  0  0  0  0  0  0  0  0  0
   12.0797  -16.7230   19.7601 C   0  0  0  0  0  0  0  0  0  0  0  0
   11.7959  -15.6241   20.7625 C   0  0  2  0  0  0  0  0  0  0  0  0
   11.2411  -14.4739   20.0826 N   0  0  0  0  0  0  0  0  0  0  0  0
   13.0360  -15.2733   21.5087 C   0  0  0  0  0  0  0  0  0  0  0  0
   13.6454  -16.2136   22.2944 O   0  0  0  0  0  0  0  0  0  0  0  0
   13.4768  -14.1043   21.3806 O   0  0  0  0  0  0  0  0  0  0  0  0
  2  1  1  0
  3  2  1  0
  4  3  2  0
  6  5  1  0
  7  6  1  1
  7  8  1  0
  8  3  1  0
  9 10  2  0
  9  7  1  0
 12 11  1  6
 12 13  1  0
 13  9  1  0
 14 12  1  0
 14 15  1  0
 16 14  2  0
M  END
$$$$
