GSA.pdb
     RDKit          3D

 16 15  0  0  1  0  0  0  0  0999 V2000
    4.3138  -18.5900   19.5773 N   0  0  0  0  0  0  0  0  0  0  0  0
    4.5412  -17.2622   20.0757 C   0  0  0  0  0  0  0  0  0  0  0  0
    6.0060  -16.9566   20.0124 C   0  0  0  0  0  0  0  0  0  0  0  0
    6.8599  -17.8358   19.7560 O   0  0  0  0  0  0  0  0  0  0  0  0
    7.3306  -13.6352   18.5256 O   0  0  0  0  0  0  0  0  0  0  0  0
    7.9900  -13.8693   19.7084 C   0  0  0  0  0  0  0  0  0  0  0  0
    7.8978  -15.3367   20.1290 C   0  0  2  0  0  0  0  0  0  0  0  0
    6.4868  -15.6397   20.2442 N   0  0  0  0  0  0  0  0  0  0  0  0
    8.5095  -15.4650   21.4775 C   0  0  0  0  0  0  0  0  0  0  0  0
    7.9871  -14.8874   22.4803 O   0  0  0  0  0  0  0  0  0  0  0  0
   10.1126  -17.6383   23.6348 C   0  0  0  0  0  0  0  0  0  0  0  0
   10.2705  -16.2545   23.0404 C   0  0  2  0  0  0  0  0  0  0  0  0
    9.6822  -16.2202   21.7192 N   0  0  0  0  0  0  0  0  0  0  0  0
   11.7081  -15.8670   23.0097 C   0  0  0  0  0  0  0  0  0  0  0  0
   12.3692  -15.6150   24.1811 O   0  0  0  0  0  0  0  0  0  0  0  0
   12.2615  -15.7870   21.8852 O   0  0  0  0  0  0  0  0  0  0  0  0
  2  1  1  0
  3  2  1  0
  4  3  2  0
  6  5  1  0
  7  6  1  1
  7  8  1  0
  8  3  1  0
  9 10  2  0
  9  7  1  0
 12 11  1  6
 12 13  1  0
 13  9  1  0
 14 12  1  0
 14 15  1  0
 16 14  2  0
M  END
$$$$
