GSA.pdb
     RDKit          3D

 16 15  0  0  1  0  0  0  0  0999 V2000
    7.6042  -13.3029   15.2145 N   0  0  0  0  0  0  0  0  0  0  0  0
    8.7909  -13.4932   16.0012 C   0  0  0  0  0  0  0  0  0  0  0  0
    8.5243  -14.5259   17.0527 C   0  0  0  0  0  0  0  0  0  0  0  0
    7.3676  -14.9288   17.3132 O   0  0  0  0  0  0  0  0  0  0  0  0
   11.3322  -17.1225   18.0019 O   0  0  0  0  0  0  0  0  0  0  0  0
   10.0334  -17.3631   18.3811 C   0  0  0  0  0  0  0  0  0  0  0  0
    9.3259  -16.0829   18.8274 C   0  0  2  0  0  0  0  0  0  0  0  0
    9.5886  -15.0938   17.8034 N   0  0  0  0  0  0  0  0  0  0  0  0
    9.9644  -15.6234   20.0883 C   0  0  0  0  0  0  0  0  0  0  0  0
   11.0181  -14.9156   20.0571 O   0  0  0  0  0  0  0  0  0  0  0  0
    9.1106  -14.9330   23.5453 C   0  0  0  0  0  0  0  0  0  0  0  0
   10.1247  -15.4793   22.5624 C   0  0  2  0  0  0  0  0  0  0  0  0
    9.4494  -15.9393   21.3685 N   0  0  0  0  0  0  0  0  0  0  0  0
   10.9215  -16.5674   23.1941 C   0  0  0  0  0  0  0  0  0  0  0  0
   10.8244  -17.8461   22.7163 O   0  0  0  0  0  0  0  0  0  0  0  0
   11.6634  -16.2559   24.1583 O   0  0  0  0  0  0  0  0  0  0  0  0
  2  1  1  0
  3  2  1  0
  4  3  2  0
  6  5  1  0
  7  6  1  6
  7  8  1  0
  8  3  1  0
  9 10  2  0
  9  7  1  0
 12 11  1  1
 12 13  1  0
 13  9  1  0
 14 12  1  0
 14 15  1  0
 16 14  2  0
M  END
$$$$
