GSA.pdb
     RDKit          3D

 16 15  0  0  1  0  0  0  0  0999 V2000
    8.1923  -13.3888   17.7260 N   0  0  0  0  0  0  0  0  0  0  0  0
    7.5099  -14.0245   18.8183 C   0  0  0  0  0  0  0  0  0  0  0  0
    8.3285  -13.8763   20.0637 C   0  0  0  0  0  0  0  0  0  0  0  0
    9.4666  -13.3540   20.0550 O   0  0  0  0  0  0  0  0  0  0  0  0
    6.7591  -14.9187   23.8256 O   0  0  0  0  0  0  0  0  0  0  0  0
    7.6973  -13.9279   23.6630 C   0  0  0  0  0  0  0  0  0  0  0  0
    8.6533  -14.2350   22.5096 C   0  0  2  0  0  0  0  0  0  0  0  0
    7.8369  -14.3290   21.3176 N   0  0  0  0  0  0  0  0  0  0  0  0
    9.2594  -15.5686   22.7608 C   0  0  0  0  0  0  0  0  0  0  0  0
    8.6507  -16.6287   22.4177 O   0  0  0  0  0  0  0  0  0  0  0  0
   12.5211  -17.0951   23.2879 C   0  0  0  0  0  0  0  0  0  0  0  0
   11.0464  -17.0580   23.6300 C   0  0  2  0  0  0  0  0  0  0  0  0
   10.5205  -15.7332   23.3824 N   0  0  0  0  0  0  0  0  0  0  0  0
   10.8338  -17.4760   25.0434 C   0  0  0  0  0  0  0  0  0  0  0  0
   11.2199  -18.7250   25.4482 O   0  0  0  0  0  0  0  0  0  0  0  0
   10.2978  -16.6452   25.8178 O   0  0  0  0  0  0  0  0  0  0  0  0
  2  1  1  0
  3  2  1  0
  4  3  2  0
  6  5  1  0
  7  6  1  1
  7  8  1  0
  8  3  1  0
  9 10  2  0
  9  7  1  0
 12 11  1  1
 12 13  1  0
 13  9  1  0
 14 12  1  0
 14 15  1  0
 16 14  2  0
M  END
$$$$
