GSA.pdb
     RDKit          3D

 16 15  0  0  1  0  0  0  0  0999 V2000
    5.1637  -19.3045   20.7337 N   0  0  0  0  0  0  0  0  0  0  0  0
    5.0797  -19.0545   22.1456 C   0  0  0  0  0  0  0  0  0  0  0  0
    6.3415  -18.3907   22.6042 C   0  0  0  0  0  0  0  0  0  0  0  0
    7.3401  -18.2699   21.8585 O   0  0  0  0  0  0  0  0  0  0  0  0
    6.2683  -16.5015   26.1581 O   0  0  0  0  0  0  0  0  0  0  0  0
    7.2973  -16.1353   25.3240 C   0  0  0  0  0  0  0  0  0  0  0  0
    7.6903  -17.2688   24.3758 C   0  0  2  0  0  0  0  0  0  0  0  0
    6.4530  -17.8667   23.9202 N   0  0  0  0  0  0  0  0  0  0  0  0
    8.4329  -18.2872   25.1635 C   0  0  0  0  0  0  0  0  0  0  0  0
    7.8078  -19.1662   25.8334 O   0  0  0  0  0  0  0  0  0  0  0  0
   11.9310  -19.5376   25.4976 C   0  0  0  0  0  0  0  0  0  0  0  0
   10.5153  -19.3500   26.0010 C   0  0  2  0  0  0  0  0  0  0  0  0
    9.8467  -18.3373   25.2133 N   0  0  0  0  0  0  0  0  0  0  0  0
   10.5243  -19.0000   27.4485 C   0  0  0  0  0  0  0  0  0  0  0  0
   10.9921  -19.9039   28.3634 O   0  0  0  0  0  0  0  0  0  0  0  0
   10.0926  -17.8659   27.7719 O   0  0  0  0  0  0  0  0  0  0  0  0
  2  1  1  0
  3  2  1  0
  4  3  2  0
  6  5  1  0
  7  6  1  1
  7  8  1  0
  8  3  1  0
  9 10  2  0
  9  7  1  0
 12 11  1  6
 12 13  1  0
 13  9  1  0
 14 12  1  0
 14 15  1  0
 16 14  2  0
M  END
$$$$
