GSA.pdb
     RDKit          3D

 16 15  0  0  1  0  0  0  0  0999 V2000
    4.4968  -20.2108   21.3671 N   0  0  0  0  0  0  0  0  0  0  0  0
    4.8431  -20.4711   22.7366 C   0  0  0  0  0  0  0  0  0  0  0  0
    6.0878  -19.7132   23.0824 C   0  0  0  0  0  0  0  0  0  0  0  0
    6.8175  -19.1949   22.2067 O   0  0  0  0  0  0  0  0  0  0  0  0
    6.4185  -17.7136   26.4336 O   0  0  0  0  0  0  0  0  0  0  0  0
    7.3039  -17.5295   25.3988 C   0  0  0  0  0  0  0  0  0  0  0  0
    7.7183  -18.8572   24.7632 C   0  0  2  0  0  0  0  0  0  0  0  0
    6.4915  -19.5526   24.4352 N   0  0  0  0  0  0  0  0  0  0  0  0
    8.4387  -19.6516   25.7923 C   0  0  0  0  0  0  0  0  0  0  0  0
    7.8012  -20.4186   26.5781 O   0  0  0  0  0  0  0  0  0  0  0  0
   11.9782  -20.4386   26.7367 C   0  0  0  0  0  0  0  0  0  0  0  0
   10.4876  -20.3738   26.9955 C   0  0  2  0  0  0  0  0  0  0  0  0
    9.8441  -19.6023   25.9545 N   0  0  0  0  0  0  0  0  0  0  0  0
   10.2224  -19.8013   28.3444 C   0  0  0  0  0  0  0  0  0  0  0  0
    9.7384  -18.5263   28.4584 O   0  0  0  0  0  0  0  0  0  0  0  0
   10.4599  -20.5304   29.3390 O   0  0  0  0  0  0  0  0  0  0  0  0
  2  1  1  0
  3  2  1  0
  4  3  2  0
  6  5  1  0
  7  6  1  1
  7  8  1  0
  8  3  1  0
  9 10  2  0
  9  7  1  0
 12 11  1  6
 12 13  1  0
 13  9  1  0
 14 12  1  0
 14 15  1  0
 16 14  2  0
M  END
$$$$
