GSA.pdb
     RDKit          3D

 16 15  0  0  1  0  0  0  0  0999 V2000
    5.0174  -21.6772   22.1376 N   0  0  0  0  0  0  0  0  0  0  0  0
    4.9709  -20.8016   23.2753 C   0  0  0  0  0  0  0  0  0  0  0  0
    6.3009  -20.1321   23.4362 C   0  0  0  0  0  0  0  0  0  0  0  0
    7.2698  -20.3849   22.6843 O   0  0  0  0  0  0  0  0  0  0  0  0
    6.5773  -16.9958   25.9575 O   0  0  0  0  0  0  0  0  0  0  0  0
    7.6098  -17.1424   25.0625 C   0  0  0  0  0  0  0  0  0  0  0  0
    7.8293  -18.6077   24.6839 C   0  0  2  0  0  0  0  0  0  0  0  0
    6.5149  -19.1726   24.4622 N   0  0  0  0  0  0  0  0  0  0  0  0
    8.4368  -19.2958   25.8528 C   0  0  0  0  0  0  0  0  0  0  0  0
    7.7091  -19.7102   26.8072 O   0  0  0  0  0  0  0  0  0  0  0  0
   11.4592  -21.1806   26.6531 C   0  0  0  0  0  0  0  0  0  0  0  0
   10.3583  -20.2454   27.1073 C   0  0  2  0  0  0  0  0  0  0  0  0
    9.8288  -19.5251   25.9697 N   0  0  0  0  0  0  0  0  0  0  0  0
   10.8688  -19.3168   28.1537 C   0  0  0  0  0  0  0  0  0  0  0  0
   11.2998  -19.8155   29.3531 O   0  0  0  0  0  0  0  0  0  0  0  0
   10.8813  -18.0907   27.8826 O   0  0  0  0  0  0  0  0  0  0  0  0
  2  1  1  0
  3  2  1  0
  4  3  2  0
  6  5  1  0
  7  6  1  1
  7  8  1  0
  8  3  1  0
  9 10  2  0
  9  7  1  0
 12 11  1  6
 12 13  1  0
 13  9  1  0
 14 12  1  0
 14 15  1  0
 16 14  2  0
M  END
$$$$
