GSA.pdb
     RDKit          3D

 16 15  0  0  1  0  0  0  0  0999 V2000
    7.9609  -18.2545   16.5626 N   0  0  0  0  0  0  0  0  0  0  0  0
    7.1695  -17.6808   17.6151 C   0  0  0  0  0  0  0  0  0  0  0  0
    8.0673  -16.9445   18.5610 C   0  0  0  0  0  0  0  0  0  0  0  0
    9.3137  -17.0579   18.5216 O   0  0  0  0  0  0  0  0  0  0  0  0
    6.4779  -14.9428   21.8362 O   0  0  0  0  0  0  0  0  0  0  0  0
    7.5213  -14.3369   21.1784 C   0  0  0  0  0  0  0  0  0  0  0  0
    8.4020  -15.3544   20.4520 C   0  0  2  0  0  0  0  0  0  0  0  0
    7.5302  -16.0785   19.5511 N   0  0  0  0  0  0  0  0  0  0  0  0
    8.9216  -16.3129   21.4621 C   0  0  0  0  0  0  0  0  0  0  0  0
    8.2244  -17.3109   21.8228 O   0  0  0  0  0  0  0  0  0  0  0  0
   11.1277  -18.3941   22.3257 C   0  0  0  0  0  0  0  0  0  0  0  0
   10.6511  -17.1455   23.0378 C   0  0  2  0  0  0  0  0  0  0  0  0
   10.1935  -16.1744   22.0679 N   0  0  0  0  0  0  0  0  0  0  0  0
   11.7370  -16.5936   23.8945 C   0  0  0  0  0  0  0  0  0  0  0  0
   12.2137  -15.3325   23.6593 O   0  0  0  0  0  0  0  0  0  0  0  0
   12.1765  -17.3264   24.8149 O   0  0  0  0  0  0  0  0  0  0  0  0
  2  1  1  0
  3  2  1  0
  4  3  2  0
  6  5  1  0
  7  6  1  1
  7  8  1  0
  8  3  1  0
  9 10  2  0
  9  7  1  0
 12 11  1  6
 12 13  1  0
 13  9  1  0
 14 12  1  0
 14 15  1  0
 16 14  2  0
M  END
$$$$
