QAN.pdb
     RDKit          3D

 23 22  0  0  1  0  0  0  0  0999 V2000
   20.3096  -15.7732  -15.1814 N   0  0  0  0  0  0  0  0  0  0  0  0
   19.0941  -16.2858  -15.6841 C   0  0  0  0  0  0  0  0  0  0  0  0
   18.6153  -17.3488  -15.1865 O   0  0  0  0  0  0  0  0  0  0  0  0
   18.3485  -15.6508  -16.7657 C   0  0  0  0  0  0  0  0  0  0  0  0
   18.8396  -14.3404  -17.2644 C   0  0  0  0  0  0  0  0  0  0  0  0
   18.0299  -13.1445  -16.9052 C   0  0  2  0  0  0  0  0  0  0  0  0
   16.6345  -13.2491  -17.2407 N   0  0  0  0  0  0  0  0  0  0  0  0
   18.6853  -11.9301  -17.5018 C   0  0  0  0  0  0  0  0  0  0  0  0
   19.1805  -11.9711  -18.6580 O   0  0  0  0  0  0  0  0  0  0  0  0
   18.3146   -9.0194  -18.4384 C   0  0  0  0  0  0  0  0  0  0  0  0
   19.2691   -9.4637  -17.3941 C   0  0  2  0  0  0  0  0  0  0  0  0
   18.7797  -10.6975  -16.8026 N   0  0  0  0  0  0  0  0  0  0  0  0
   19.4743   -8.4820  -16.3062 C   0  0  0  0  0  0  0  0  0  0  0  0
   18.6859   -8.5083  -15.3307 O   0  0  0  0  0  0  0  0  0  0  0  0
   21.0646   -4.7000  -13.2138 N   0  0  0  0  0  0  0  0  0  0  0  0
   22.1299   -4.9933  -14.0730 C   0  0  0  0  0  0  0  0  0  0  0  0
   23.2685   -4.4392  -13.9254 O   0  0  0  0  0  0  0  0  0  0  0  0
   22.0155   -5.9754  -15.2162 C   0  0  0  0  0  0  0  0  0  0  0  0
   20.6104   -6.5649  -15.1889 C   0  0  2  0  0  0  0  0  0  0  0  0
   20.5052   -7.5085  -16.2881 N   0  0  0  0  0  0  0  0  0  0  0  0
   19.6215   -5.4788  -15.3473 C   0  0  0  0  0  0  0  0  0  0  0  0
   19.3236   -5.0729  -16.5118 O   0  0  0  0  0  0  0  0  0  0  0  0
   19.0085   -4.8868  -14.2599 O   0  0  0  0  0  0  0  0  0  0  0  0
  2  4  1  0
  2  1  1  0
  3  2  2  0
  5  4  1  0
  6  7  1  6
  6  5  1  0
  8  6  1  0
  9  8  2  0
 11 10  1  6
 11 13  1  0
 11 12  1  0
 12  8  1  0
 13 20  1  0
 14 13  2  0
 16 17  2  0
 16 15  1  0
 18 16  1  0
 19 18  1  6
 19 21  1  0
 20 19  1  0
 21 22  2  0
 21 23  1  0
M  END
$$$$
