QAN.pdb
     RDKit          3D

 23 22  0  0  1  0  0  0  0  0999 V2000
   15.4896  -11.5926  -17.4512 N   0  0  0  0  0  0  0  0  0  0  0  0
   16.2632  -12.4143  -18.2993 C   0  0  0  0  0  0  0  0  0  0  0  0
   15.6935  -13.0515  -19.2354 O   0  0  0  0  0  0  0  0  0  0  0  0
   17.7059  -12.5763  -18.1523 C   0  0  0  0  0  0  0  0  0  0  0  0
   18.3803  -11.8017  -17.0790 C   0  0  0  0  0  0  0  0  0  0  0  0
   19.8444  -12.0166  -16.9212 C   0  0  2  0  0  0  0  0  0  0  0  0
   20.2209  -13.3830  -16.6724 N   0  0  0  0  0  0  0  0  0  0  0  0
   20.3534  -11.0693  -15.8705 C   0  0  0  0  0  0  0  0  0  0  0  0
   19.5844  -10.6291  -14.9768 O   0  0  0  0  0  0  0  0  0  0  0  0
   23.6977   -9.9370  -14.7164 C   0  0  0  0  0  0  0  0  0  0  0  0
   22.2351   -9.7216  -14.8321 C   0  0  2  0  0  0  0  0  0  0  0  0
   21.7032  -10.6288  -15.8349 N   0  0  0  0  0  0  0  0  0  0  0  0
   21.8558   -8.3427  -15.2120 C   0  0  0  0  0  0  0  0  0  0  0  0
   21.9632   -8.0117  -16.4173 O   0  0  0  0  0  0  0  0  0  0  0  0
   17.5935   -6.7087  -14.8601 N   0  0  0  0  0  0  0  0  0  0  0  0
   18.8071   -6.1446  -15.2698 C   0  0  0  0  0  0  0  0  0  0  0  0
   19.1333   -6.1037  -16.5016 O   0  0  0  0  0  0  0  0  0  0  0  0
   19.8022   -5.5466  -14.3019 C   0  0  0  0  0  0  0  0  0  0  0  0
   21.1965   -5.9872  -14.7315 C   0  0  2  0  0  0  0  0  0  0  0  0
   21.3764   -7.3639  -14.3049 N   0  0  0  0  0  0  0  0  0  0  0  0
   22.2033   -5.1152  -14.0922 C   0  0  0  0  0  0  0  0  0  0  0  0
   22.2738   -3.8942  -14.4297 O   0  0  0  0  0  0  0  0  0  0  0  0
   23.0768   -5.5914  -13.1336 O   0  0  0  0  0  0  0  0  0  0  0  0
  2  4  1  0
  2  1  1  0
  3  2  2  0
  5  4  1  0
  6  7  1  1
  6  5  1  0
  8  6  1  0
  9  8  2  0
 11 10  1  6
 11 13  1  0
 11 12  1  0
 12  8  1  0
 13 20  1  0
 14 13  2  0
 16 17  2  0
 16 15  1  0
 18 16  1  0
 19 18  1  1
 19 21  1  0
 20 19  1  0
 21 22  2  0
 21 23  1  0
M  END
$$$$
