QAN.pdb
     RDKit          3D

 23 22  0  0  1  0  0  0  0  0999 V2000
   18.9382  -12.5524  -14.8333 N   0  0  0  0  0  0  0  0  0  0  0  0
   17.5755  -12.9166  -14.8917 C   0  0  0  0  0  0  0  0  0  0  0  0
   17.2398  -14.1101  -14.6276 O   0  0  0  0  0  0  0  0  0  0  0  0
   16.5153  -11.9801  -15.2496 C   0  0  0  0  0  0  0  0  0  0  0  0
   16.9123  -10.5942  -15.6082 C   0  0  0  0  0  0  0  0  0  0  0  0
   15.8088   -9.6196  -15.8250 C   0  0  2  0  0  0  0  0  0  0  0  0
   14.8496  -10.0197  -16.8203 N   0  0  0  0  0  0  0  0  0  0  0  0
   16.4132   -8.2715  -16.1041 C   0  0  0  0  0  0  0  0  0  0  0  0
   17.3745   -8.1534  -16.9076 O   0  0  0  0  0  0  0  0  0  0  0  0
   15.4290   -4.7505  -15.4795 C   0  0  0  0  0  0  0  0  0  0  0  0
   16.4811   -5.7611  -15.7456 C   0  0  2  0  0  0  0  0  0  0  0  0
   15.9403   -7.0843  -15.4844 N   0  0  0  0  0  0  0  0  0  0  0  0
   17.7014   -5.5930  -14.9257 C   0  0  0  0  0  0  0  0  0  0  0  0
   17.8039   -6.2694  -13.8741 O   0  0  0  0  0  0  0  0  0  0  0  0
   22.3187   -5.8435  -12.6709 N   0  0  0  0  0  0  0  0  0  0  0  0
   22.2105   -5.3574  -13.9790 C   0  0  0  0  0  0  0  0  0  0  0  0
   23.1641   -4.7094  -14.5231 O   0  0  0  0  0  0  0  0  0  0  0  0
   20.9804   -5.5649  -14.8324 C   0  0  0  0  0  0  0  0  0  0  0  0
   19.9110   -4.5880  -14.3584 C   0  0  2  0  0  0  0  0  0  0  0  0
   18.7692   -4.7169  -15.2469 N   0  0  0  0  0  0  0  0  0  0  0  0
   20.4484   -3.2128  -14.4082 C   0  0  0  0  0  0  0  0  0  0  0  0
   20.1505   -2.4630  -15.3873 O   0  0  0  0  0  0  0  0  0  0  0  0
   21.2718   -2.7155  -13.4165 O   0  0  0  0  0  0  0  0  0  0  0  0
  2  4  1  0
  2  1  1  0
  3  2  2  0
  5  4  1  0
  6  7  1  6
  6  5  1  0
  8  6  1  0
  9  8  2  0
 11 10  1  1
 11 13  1  0
 11 12  1  0
 12  8  1  0
 13 20  1  0
 14 13  2  0
 16 17  2  0
 16 15  1  0
 18 16  1  0
 19 18  1  6
 19 21  1  0
 20 19  1  0
 21 22  2  0
 21 23  1  0
M  END
$$$$
