QAN.pdb
     RDKit          3D

 23 22  0  0  1  0  0  0  0  0999 V2000
   23.9555  -20.0297   -9.9113 N   0  0  0  0  0  0  0  0  0  0  0  0
   24.9397  -20.7555   -9.2060 C   0  0  0  0  0  0  0  0  0  0  0  0
   24.6178  -21.3677   -8.1437 O   0  0  0  0  0  0  0  0  0  0  0  0
   26.3312  -20.8374   -9.6376 C   0  0  0  0  0  0  0  0  0  0  0  0
   26.7195  -20.0842  -10.8577 C   0  0  0  0  0  0  0  0  0  0  0  0
   26.1552  -20.5673  -12.1473 C   0  0  2  0  0  0  0  0  0  0  0  0
   26.5685  -21.8953  -12.5162 N   0  0  0  0  0  0  0  0  0  0  0  0
   26.4538  -19.5458  -13.2092 C   0  0  0  0  0  0  0  0  0  0  0  0
   26.2201  -18.3255  -13.0094 O   0  0  0  0  0  0  0  0  0  0  0  0
   28.3122  -19.4979  -16.4279 C   0  0  0  0  0  0  0  0  0  0  0  0
   27.2581  -18.9502  -15.5403 C   0  0  2  0  0  0  0  0  0  0  0  0
   27.0027  -19.8998  -14.4704 N   0  0  0  0  0  0  0  0  0  0  0  0
   25.9759  -18.6730  -16.2249 C   0  0  0  0  0  0  0  0  0  0  0  0
   25.2187  -19.6415  -16.4749 O   0  0  0  0  0  0  0  0  0  0  0  0
   21.9458  -18.2854  -16.3156 N   0  0  0  0  0  0  0  0  0  0  0  0
   22.2127  -16.9450  -16.0139 C   0  0  0  0  0  0  0  0  0  0  0  0
   21.4220  -16.2632  -15.2823 O   0  0  0  0  0  0  0  0  0  0  0  0
   23.4388  -16.2188  -16.5179 C   0  0  0  0  0  0  0  0  0  0  0  0
   24.2765  -17.2112  -17.3155 C   0  0  2  0  0  0  0  0  0  0  0  0
   25.5400  -17.3828  -16.6199 N   0  0  0  0  0  0  0  0  0  0  0  0
   24.5056  -16.6771  -18.6736 C   0  0  0  0  0  0  0  0  0  0  0  0
   24.8951  -15.4777  -18.8135 O   0  0  0  0  0  0  0  0  0  0  0  0
   24.3061  -17.4472  -19.8031 O   0  0  0  0  0  0  0  0  0  0  0  0
  2  4  1  0
  2  1  1  0
  3  2  2  0
  5  4  1  0
  6  7  1  6
  6  5  1  0
  8  6  1  0
  9  8  2  0
 11 10  1  6
 11 13  1  0
 11 12  1  0
 12  8  1  0
 13 20  1  0
 14 13  2  0
 16 17  2  0
 16 15  1  0
 18 16  1  0
 19 18  1  1
 19 21  1  0
 20 19  1  0
 21 22  2  0
 21 23  1  0
M  END
$$$$
