QAN.pdb
     RDKit          3D

 23 22  0  0  1  0  0  0  0  0999 V2000
   25.4994  -18.4713  -16.3844 N   0  0  0  0  0  0  0  0  0  0  0  0
   26.7517  -17.9386  -16.7599 C   0  0  0  0  0  0  0  0  0  0  0  0
   26.8849  -17.4141  -17.9062 O   0  0  0  0  0  0  0  0  0  0  0  0
   27.9215  -17.9627  -15.8881 C   0  0  0  0  0  0  0  0  0  0  0  0
   27.7314  -18.4373  -14.4932 C   0  0  0  0  0  0  0  0  0  0  0  0
   28.0338  -19.8704  -14.2295 C   0  0  2  0  0  0  0  0  0  0  0  0
   28.5736  -20.5811  -15.3583 N   0  0  0  0  0  0  0  0  0  0  0  0
   26.8012  -20.5201  -13.6646 C   0  0  0  0  0  0  0  0  0  0  0  0
   26.0200  -21.1690  -14.4079 O   0  0  0  0  0  0  0  0  0  0  0  0
   25.3340  -20.8735  -10.2279 C   0  0  0  0  0  0  0  0  0  0  0  0
   25.3095  -21.0927  -11.6943 C   0  0  2  0  0  0  0  0  0  0  0  0
   26.4604  -20.4340  -12.2885 N   0  0  0  0  0  0  0  0  0  0  0  0
   24.0918  -20.5811  -12.3613 C   0  0  0  0  0  0  0  0  0  0  0  0
   24.0735  -19.3773  -12.7144 O   0  0  0  0  0  0  0  0  0  0  0  0
   19.7201  -19.7821  -14.8234 N   0  0  0  0  0  0  0  0  0  0  0  0
   20.4231  -20.8783  -15.3363 C   0  0  0  0  0  0  0  0  0  0  0  0
   20.1045  -21.4021  -16.4540 O   0  0  0  0  0  0  0  0  0  0  0  0
   21.5954  -21.5092  -14.6205 C   0  0  0  0  0  0  0  0  0  0  0  0
   21.7907  -20.7718  -13.3010 C   0  0  2  0  0  0  0  0  0  0  0  0
   22.9378  -21.3597  -12.6315 N   0  0  0  0  0  0  0  0  0  0  0  0
   20.5777  -20.9242  -12.4717 C   0  0  0  0  0  0  0  0  0  0  0  0
   19.9977  -19.8898  -12.0209 O   0  0  0  0  0  0  0  0  0  0  0  0
   20.0531  -22.1658  -12.1684 O   0  0  0  0  0  0  0  0  0  0  0  0
  2  4  1  0
  2  1  1  0
  3  2  2  0
  5  4  1  0
  6  7  1  6
  6  5  1  0
  8  6  1  0
  9  8  2  0
 11 10  1  1
 11 13  1  0
 11 12  1  0
 12  8  1  0
 13 20  1  0
 14 13  2  0
 16 17  2  0
 16 15  1  0
 18 16  1  0
 19 18  1  6
 19 21  1  0
 20 19  1  0
 21 22  2  0
 21 23  1  0
M  END
$$$$
