QAN.pdb
     RDKit          3D

 23 22  0  0  1  0  0  0  0  0999 V2000
   23.4266  -20.1730   -9.8388 N   0  0  0  0  0  0  0  0  0  0  0  0
   24.2081  -20.7523   -8.8157 C   0  0  0  0  0  0  0  0  0  0  0  0
   23.6354  -21.2187   -7.7854 O   0  0  0  0  0  0  0  0  0  0  0  0
   25.6632  -20.8412   -8.8783 C   0  0  0  0  0  0  0  0  0  0  0  0
   26.3438  -20.1968  -10.0308 C   0  0  0  0  0  0  0  0  0  0  0  0
   26.0023  -20.7170  -11.3827 C   0  0  2  0  0  0  0  0  0  0  0  0
   26.1397  -22.1425  -11.5228 N   0  0  0  0  0  0  0  0  0  0  0  0
   26.7978  -19.9499  -12.4021 C   0  0  0  0  0  0  0  0  0  0  0  0
   27.1757  -18.7726  -12.1675 O   0  0  0  0  0  0  0  0  0  0  0  0
   28.1838  -20.6465  -15.8117 C   0  0  0  0  0  0  0  0  0  0  0  0
   27.6562  -19.7229  -14.7784 C   0  0  2  0  0  0  0  0  0  0  0  0
   27.1547  -20.5038  -13.6602 N   0  0  0  0  0  0  0  0  0  0  0  0
   26.5634  -18.8457  -15.2536 C   0  0  0  0  0  0  0  0  0  0  0  0
   25.5214  -18.7716  -14.5589 O   0  0  0  0  0  0  0  0  0  0  0  0
   24.6156  -14.3991  -16.7909 N   0  0  0  0  0  0  0  0  0  0  0  0
   25.5260  -14.5857  -15.7443 C   0  0  0  0  0  0  0  0  0  0  0  0
   25.7390  -13.6696  -14.8838 O   0  0  0  0  0  0  0  0  0  0  0  0
   26.3070  -15.8658  -15.5546 C   0  0  0  0  0  0  0  0  0  0  0  0
   25.8083  -16.8756  -16.5813 C   0  0  2  0  0  0  0  0  0  0  0  0
   26.6114  -18.0782  -16.4450 N   0  0  0  0  0  0  0  0  0  0  0  0
   25.9578  -16.3086  -17.9373 C   0  0  0  0  0  0  0  0  0  0  0  0
   27.0868  -16.3623  -18.5136 O   0  0  0  0  0  0  0  0  0  0  0  0
   24.9004  -15.7164  -18.6005 O   0  0  0  0  0  0  0  0  0  0  0  0
  2  4  1  0
  2  1  1  0
  3  2  2  0
  5  4  1  0
  6  7  1  1
  6  5  1  0
  8  6  1  0
  9  8  2  0
 11 10  1  6
 11 13  1  0
 11 12  1  0
 12  8  1  0
 13 20  1  0
 14 13  2  0
 16 17  2  0
 16 15  1  0
 18 16  1  0
 19 18  1  1
 19 21  1  0
 20 19  1  0
 21 22  2  0
 21 23  1  0
M  END
$$$$
