QAN.pdb
     RDKit          3D

 23 22  0  0  1  0  0  0  0  0999 V2000
   15.7272  -14.6005  -17.1617 N   0  0  0  0  0  0  0  0  0  0  0  0
   16.3747  -14.6112  -15.9073 C   0  0  0  0  0  0  0  0  0  0  0  0
   16.2250  -15.6088  -15.1397 O   0  0  0  0  0  0  0  0  0  0  0  0
   17.2174  -13.5171  -15.4364 C   0  0  0  0  0  0  0  0  0  0  0  0
   17.2231  -12.2612  -16.2299 C   0  0  0  0  0  0  0  0  0  0  0  0
   18.1569  -12.2082  -17.3875 C   0  0  2  0  0  0  0  0  0  0  0  0
   19.0559  -13.3281  -17.4773 N   0  0  0  0  0  0  0  0  0  0  0  0
   18.8714  -10.8855  -17.3616 C   0  0  0  0  0  0  0  0  0  0  0  0
   19.9834  -10.7682  -16.7842 O   0  0  0  0  0  0  0  0  0  0  0  0
   18.3362   -7.5975  -19.0685 C   0  0  0  0  0  0  0  0  0  0  0  0
   19.0630   -8.4710  -18.1157 C   0  0  2  0  0  0  0  0  0  0  0  0
   18.3362   -9.7214  -17.9743 N   0  0  0  0  0  0  0  0  0  0  0  0
   19.2346   -7.8840  -16.7683 C   0  0  0  0  0  0  0  0  0  0  0  0
   18.3570   -8.1227  -15.9041 O   0  0  0  0  0  0  0  0  0  0  0  0
   21.5688   -8.9825  -14.6331 N   0  0  0  0  0  0  0  0  0  0  0  0
   22.3832   -7.8556  -14.4725 C   0  0  0  0  0  0  0  0  0  0  0  0
   23.6157   -7.9702  -14.1673 O   0  0  0  0  0  0  0  0  0  0  0  0
   21.8748   -6.4435  -14.6514 C   0  0  0  0  0  0  0  0  0  0  0  0
   20.4028   -6.5209  -15.0386 C   0  0  2  0  0  0  0  0  0  0  0  0
   20.3272   -7.0666  -16.3826 N   0  0  0  0  0  0  0  0  0  0  0  0
   19.8152   -5.1660  -15.0001 C   0  0  0  0  0  0  0  0  0  0  0  0
   19.7663   -4.4780  -16.0649 O   0  0  0  0  0  0  0  0  0  0  0  0
   19.3159   -4.6210  -13.8329 O   0  0  0  0  0  0  0  0  0  0  0  0
  2  4  1  0
  2  1  1  0
  3  2  2  0
  5  4  1  0
  6  7  1  1
  6  5  1  0
  8  6  1  0
  9  8  2  0
 11 10  1  6
 11 13  1  0
 11 12  1  0
 12  8  1  0
 13 20  1  0
 14 13  2  0
 16 17  2  0
 16 15  1  0
 18 16  1  0
 19 18  1  6
 19 21  1  0
 20 19  1  0
 21 22  2  0
 21 23  1  0
M  END
$$$$
