DHN.pdb
     RDKit          3D

 27 27  0  0  1  0  0  0  0  0999 V2000
   10.0342  -18.6034   19.0777 N   0  0  0  0  0  0  0  0  0  0  0  0
   11.0678  -17.6807   18.7784 C   0  0  1  0  0  0  0  0  0  0  0  0
   10.9810  -17.0918   17.3947 C   0  0  0  0  0  0  0  0  0  0  0  0
   11.2783  -18.0877   16.3365 C   0  0  0  0  0  0  0  0  0  0  0  0
   11.5908  -19.2908   16.6360 O   0  0  0  0  0  0  0  0  0  0  0  0
   11.0665  -16.5270   19.7673 C   0  0  0  0  0  0  0  0  0  0  0  0
   11.9967  -15.6986   19.7504 O   0  0  0  0  0  0  0  0  0  0  0  0
   11.2418  -17.8015   14.9827 O   0  0  0  0  0  0  0  0  0  0  0  0
   10.0254  -16.3907   20.6975 N   0  0  0  0  0  0  0  0  0  0  0  0
    9.8486  -15.4494   21.7562 C   0  0  1  0  0  0  0  0  0  0  0  0
    8.4222  -14.9471   21.9600 C   0  0  0  0  0  0  0  0  0  0  0  0
    7.8283  -14.3486   20.7651 C   0  0  0  0  0  0  0  0  0  0  0  0
    6.8842  -14.9758   19.9806 C   0  0  0  0  0  0  0  0  0  0  0  0
    6.5296  -14.1892   18.9582 N   0  0  0  0  0  0  0  0  0  0  0  0
    7.2481  -13.0368   19.0751 C   0  0  0  0  0  0  0  0  0  0  0  0
    8.0241  -13.1495   20.1673 N   0  0  0  0  0  0  0  0  0  0  0  0
   10.4420  -15.7824   23.0423 C   0  0  0  0  0  0  0  0  0  0  0  0
    9.8444  -15.3021   24.0680 O   0  0  0  0  0  0  0  0  0  0  0  0
   11.3254  -18.5822   27.2392 N   0  0  0  0  0  0  0  0  0  0  0  0
   11.0255  -19.0637   25.9504 C   0  0  0  0  0  0  0  0  0  0  0  0
   10.9105  -20.3346   25.7901 O   0  0  0  0  0  0  0  0  0  0  0  0
   10.8222  -18.2608   24.7449 C   0  0  0  0  0  0  0  0  0  0  0  0
   11.9089  -17.2808   24.4518 C   0  0  2  0  0  0  0  0  0  0  0  0
   11.6046  -16.5825   23.2003 N   0  0  0  0  0  0  0  0  0  0  0  0
   13.2588  -17.9030   24.3597 C   0  0  0  0  0  0  0  0  0  0  0  0
   13.7502  -18.4689   25.3810 O   0  0  0  0  0  0  0  0  0  0  0  0
   14.0478  -17.9201   23.2301 O   0  0  0  0  0  0  0  0  0  0  0  0
  2  1  1  1
  2  3  1  0
  4  8  1  0
  4  3  1  0
  5  4  2  0
  6  7  2  0
  6  2  1  0
  9  6  1  0
 10  9  1  0
 10 11  1  1
 12 11  1  0
 12 13  2  0
 14 13  1  0
 15 14  1  0
 16 15  2  0
 16 12  1  0
 17 10  1  0
 17 18  2  0
 20 19  1  0
 20 21  2  0
 22 20  1  0
 23 24  1  0
 23 22  1  6
 24 17  1  0
 25 23  1  0
 26 25  2  0
 27 25  1  0
M  END
$$$$
