DHN.pdb
     RDKit          3D

 27 27  0  0  1  0  0  0  0  0999 V2000
   13.5571  -13.9480   17.3038 N   0  0  0  0  0  0  0  0  0  0  0  0
   13.3202  -15.1710   17.9801 C   0  0  1  0  0  0  0  0  0  0  0  0
   14.5659  -15.9758   18.2442 C   0  0  0  0  0  0  0  0  0  0  0  0
   15.3007  -16.3058   16.9988 C   0  0  0  0  0  0  0  0  0  0  0  0
   16.5290  -15.9809   16.8551 O   0  0  0  0  0  0  0  0  0  0  0  0
   12.6412  -14.9274   19.3175 C   0  0  0  0  0  0  0  0  0  0  0  0
   13.1899  -14.1970   20.1644 O   0  0  0  0  0  0  0  0  0  0  0  0
   14.7316  -16.9714   15.9268 O   0  0  0  0  0  0  0  0  0  0  0  0
   11.4020  -15.5199   19.6026 N   0  0  0  0  0  0  0  0  0  0  0  0
   10.6043  -15.4714   20.7856 C   0  0  1  0  0  0  0  0  0  0  0  0
    9.0953  -15.5277   20.5655 C   0  0  0  0  0  0  0  0  0  0  0  0
    8.5733  -14.4285   19.7545 C   0  0  0  0  0  0  0  0  0  0  0  0
    8.3291  -14.5216   18.4011 C   0  0  0  0  0  0  0  0  0  0  0  0
    7.8595  -13.3607   17.9304 N   0  0  0  0  0  0  0  0  0  0  0  0
    7.7957  -12.5003   18.9857 C   0  0  0  0  0  0  0  0  0  0  0  0
    8.2286  -13.1588   20.0750 N   0  0  0  0  0  0  0  0  0  0  0  0
   10.9775  -16.3655   21.8712 C   0  0  0  0  0  0  0  0  0  0  0  0
   10.8461  -17.6158   21.6277 O   0  0  0  0  0  0  0  0  0  0  0  0
   14.7322  -14.8930   23.3362 N   0  0  0  0  0  0  0  0  0  0  0  0
   14.2023  -16.1634   23.6329 C   0  0  0  0  0  0  0  0  0  0  0  0
   14.6007  -17.1650   22.9313 O   0  0  0  0  0  0  0  0  0  0  0  0
   13.2283  -16.4799   24.6771 C   0  0  0  0  0  0  0  0  0  0  0  0
   11.8759  -16.8668   24.1787 C   0  0  2  0  0  0  0  0  0  0  0  0
   11.4601  -15.9285   23.1332 N   0  0  0  0  0  0  0  0  0  0  0  0
   10.8407  -16.9116   25.2484 C   0  0  0  0  0  0  0  0  0  0  0  0
   11.0010  -17.6934   26.2323 O   0  0  0  0  0  0  0  0  0  0  0  0
    9.6877  -16.1573   25.2672 O   0  0  0  0  0  0  0  0  0  0  0  0
  2  1  1  1
  2  3  1  0
  4  8  1  0
  4  3  1  0
  5  4  2  0
  6  7  2  0
  6  2  1  0
  9  6  1  0
 10  9  1  0
 10 11  1  6
 12 11  1  0
 12 13  2  0
 14 13  1  0
 15 14  1  0
 16 15  2  0
 16 12  1  0
 17 10  1  0
 17 18  2  0
 20 19  1  0
 20 21  2  0
 22 20  1  0
 23 24  1  0
 23 22  1  1
 24 17  1  0
 25 23  1  0
 26 25  2  0
 27 25  1  0
M  END
$$$$
