DHN.pdb
     RDKit          3D

 27 27  0  0  1  0  0  0  0  0999 V2000
   12.2248  -16.2624   17.9524 N   0  0  0  0  0  0  0  0  0  0  0  0
   13.0864  -15.4235   18.7029 C   0  0  1  0  0  0  0  0  0  0  0  0
   13.6439  -14.2627   17.9215 C   0  0  0  0  0  0  0  0  0  0  0  0
   14.7547  -14.6657   17.0251 C   0  0  0  0  0  0  0  0  0  0  0  0
   14.7075  -15.7652   16.3741 O   0  0  0  0  0  0  0  0  0  0  0  0
   12.3679  -14.8557   19.9154 C   0  0  0  0  0  0  0  0  0  0  0  0
   12.9883  -14.1325   20.7179 O   0  0  0  0  0  0  0  0  0  0  0  0
   15.8950  -13.9060   16.8286 O   0  0  0  0  0  0  0  0  0  0  0  0
   11.0122  -15.1415   20.1354 N   0  0  0  0  0  0  0  0  0  0  0  0
   10.1469  -14.7541   21.2028 C   0  0  1  0  0  0  0  0  0  0  0  0
    8.6977  -14.4814   20.8102 C   0  0  0  0  0  0  0  0  0  0  0  0
    8.5309  -14.0480   19.4236 C   0  0  0  0  0  0  0  0  0  0  0  0
    8.4503  -12.7275   19.0364 C   0  0  0  0  0  0  0  0  0  0  0  0
    8.2968  -12.6383   17.7104 N   0  0  0  0  0  0  0  0  0  0  0  0
    8.2771  -13.9121   17.2257 C   0  0  0  0  0  0  0  0  0  0  0  0
    8.4192  -14.7475   18.2696 N   0  0  0  0  0  0  0  0  0  0  0  0
   10.1860  -15.5629   22.4117 C   0  0  0  0  0  0  0  0  0  0  0  0
    9.3516  -15.2325   23.3252 O   0  0  0  0  0  0  0  0  0  0  0  0
    8.7688  -18.6857   22.6302 N   0  0  0  0  0  0  0  0  0  0  0  0
    9.9409  -19.4034   22.9372 C   0  0  0  0  0  0  0  0  0  0  0  0
    9.9776  -20.6559   22.6476 O   0  0  0  0  0  0  0  0  0  0  0  0
   11.1517  -18.8703   23.5607 C   0  0  0  0  0  0  0  0  0  0  0  0
   11.1106  -17.4101   23.8664 C   0  0  2  0  0  0  0  0  0  0  0  0
   11.0714  -16.6551   22.6115 N   0  0  0  0  0  0  0  0  0  0  0  0
   12.2596  -16.9451   24.6919 C   0  0  0  0  0  0  0  0  0  0  0  0
   12.2896  -17.2288   25.9262 O   0  0  0  0  0  0  0  0  0  0  0  0
   13.3268  -16.2109   24.2221 O   0  0  0  0  0  0  0  0  0  0  0  0
  2  1  1  6
  2  3  1  0
  4  8  1  0
  4  3  1  0
  5  4  2  0
  6  7  2  0
  6  2  1  0
  9  6  1  0
 10  9  1  0
 10 11  1  6
 12 11  1  0
 12 13  2  0
 14 13  1  0
 15 14  1  0
 16 15  2  0
 16 12  1  0
 17 10  1  0
 17 18  2  0
 20 19  1  0
 20 21  2  0
 22 20  1  0
 23 24  1  0
 23 22  1  6
 24 17  1  0
 25 23  1  0
 26 25  2  0
 27 25  1  0
M  END
$$$$
