DHN.pdb
     RDKit          3D

 27 27  0  0  1  0  0  0  0  0999 V2000
    9.6726  -17.4436   16.5898 N   0  0  0  0  0  0  0  0  0  0  0  0
   11.0485  -17.1033   16.6081 C   0  0  1  0  0  0  0  0  0  0  0  0
   11.4726  -16.2069   15.4742 C   0  0  0  0  0  0  0  0  0  0  0  0
   11.1867  -16.8016   14.1458 C   0  0  0  0  0  0  0  0  0  0  0  0
   11.1617  -18.0699   13.9855 O   0  0  0  0  0  0  0  0  0  0  0  0
   11.4158  -16.4038   17.9060 C   0  0  0  0  0  0  0  0  0  0  0  0
   12.5835  -16.0084   18.0851 O   0  0  0  0  0  0  0  0  0  0  0  0
   10.9320  -16.0528   13.0098 O   0  0  0  0  0  0  0  0  0  0  0  0
   10.4486  -16.2017   18.9018 N   0  0  0  0  0  0  0  0  0  0  0  0
   10.5571  -15.5850   20.1847 C   0  0  1  0  0  0  0  0  0  0  0  0
    9.2392  -15.1559   20.8231 C   0  0  0  0  0  0  0  0  0  0  0  0
    8.4191  -14.2974   19.9693 C   0  0  0  0  0  0  0  0  0  0  0  0
    8.5630  -12.9286   19.8925 C   0  0  0  0  0  0  0  0  0  0  0  0
    7.6753  -12.4132   19.0345 N   0  0  0  0  0  0  0  0  0  0  0  0
    6.9441  -13.4545   18.5454 C   0  0  0  0  0  0  0  0  0  0  0  0
    7.4048  -14.5804   19.1181 N   0  0  0  0  0  0  0  0  0  0  0  0
   11.3872  -16.2571   21.1728 C   0  0  0  0  0  0  0  0  0  0  0  0
   11.2379  -17.5267   21.2489 O   0  0  0  0  0  0  0  0  0  0  0  0
   15.4215  -17.3801   24.5530 N   0  0  0  0  0  0  0  0  0  0  0  0
   15.5460  -16.1795   23.8279 C   0  0  0  0  0  0  0  0  0  0  0  0
   16.6629  -15.5452   23.8935 O   0  0  0  0  0  0  0  0  0  0  0  0
   14.5237  -15.5594   22.9856 C   0  0  0  0  0  0  0  0  0  0  0  0
   13.2456  -16.3231   22.8832 C   0  0  2  0  0  0  0  0  0  0  0  0
   12.3151  -15.5933   22.0184 N   0  0  0  0  0  0  0  0  0  0  0  0
   12.6025  -16.5813   24.2013 C   0  0  0  0  0  0  0  0  0  0  0  0
   11.5941  -15.8948   24.5429 O   0  0  0  0  0  0  0  0  0  0  0  0
   13.0166  -17.5280   25.1129 O   0  0  0  0  0  0  0  0  0  0  0  0
  2  1  1  1
  2  3  1  0
  4  8  1  0
  4  3  1  0
  5  4  2  0
  6  7  2  0
  6  2  1  0
  9  6  1  0
 10  9  1  0
 10 11  1  1
 12 11  1  0
 12 13  2  0
 14 13  1  0
 15 14  1  0
 16 15  2  0
 16 12  1  0
 17 10  1  0
 17 18  2  0
 20 19  1  0
 20 21  2  0
 22 20  1  0
 23 24  1  0
 23 22  1  1
 24 17  1  0
 25 23  1  0
 26 25  2  0
 27 25  1  0
M  END
$$$$
