DHN.pdb
     RDKit          3D

 27 27  0  0  1  0  0  0  0  0999 V2000
    9.3433  -18.5268   16.4201 N   0  0  0  0  0  0  0  0  0  0  0  0
    8.5905  -18.5208   17.6211 C   0  0  1  0  0  0  0  0  0  0  0  0
    8.2708  -19.8944   18.1501 C   0  0  0  0  0  0  0  0  0  0  0  0
    7.3889  -20.6612   17.2367 C   0  0  0  0  0  0  0  0  0  0  0  0
    7.1492  -20.2446   16.0519 O   0  0  0  0  0  0  0  0  0  0  0  0
    9.3261  -17.7683   18.7172 C   0  0  0  0  0  0  0  0  0  0  0  0
   10.5696  -17.8183   18.7728 O   0  0  0  0  0  0  0  0  0  0  0  0
    6.7750  -21.8520   17.5847 O   0  0  0  0  0  0  0  0  0  0  0  0
    8.6132  -17.0194   19.6653 N   0  0  0  0  0  0  0  0  0  0  0  0
    9.0690  -16.3189   20.8228 C   0  0  1  0  0  0  0  0  0  0  0  0
    8.1267  -15.2433   21.3555 C   0  0  0  0  0  0  0  0  0  0  0  0
    7.8403  -14.1781   20.3954 C   0  0  0  0  0  0  0  0  0  0  0  0
    8.4206  -14.0924   19.1480 C   0  0  0  0  0  0  0  0  0  0  0  0
    7.9700  -13.0143   18.4964 N   0  0  0  0  0  0  0  0  0  0  0  0
    7.0865  -12.3892   19.3251 C   0  0  0  0  0  0  0  0  0  0  0  0
    7.0204  -13.1025   20.4629 N   0  0  0  0  0  0  0  0  0  0  0  0
    9.5725  -17.1229   21.9260 C   0  0  0  0  0  0  0  0  0  0  0  0
    8.9450  -18.2178   22.1437 O   0  0  0  0  0  0  0  0  0  0  0  0
   12.2376  -20.5769   23.7184 N   0  0  0  0  0  0  0  0  0  0  0  0
   12.8656  -19.7002   22.8129 C   0  0  0  0  0  0  0  0  0  0  0  0
   13.8243  -20.1606   22.0897 O   0  0  0  0  0  0  0  0  0  0  0  0
   12.5396  -18.2911   22.5951 C   0  0  0  0  0  0  0  0  0  0  0  0
   11.4646  -17.7509   23.4782 C   0  0  2  0  0  0  0  0  0  0  0  0
   10.6818  -16.7602   22.7351 N   0  0  0  0  0  0  0  0  0  0  0  0
   11.9810  -17.1381   24.7334 C   0  0  0  0  0  0  0  0  0  0  0  0
   12.3188  -15.9171   24.7324 O   0  0  0  0  0  0  0  0  0  0  0  0
   12.1306  -17.7978   25.9338 O   0  0  0  0  0  0  0  0  0  0  0  0
  2  1  1  6
  2  3  1  0
  4  8  1  0
  4  3  1  0
  5  4  2  0
  6  7  2  0
  6  2  1  0
  9  6  1  0
 10  9  1  0
 10 11  1  1
 12 11  1  0
 12 13  2  0
 14 13  1  0
 15 14  1  0
 16 15  2  0
 16 12  1  0
 17 10  1  0
 17 18  2  0
 20 19  1  0
 20 21  2  0
 22 20  1  0
 23 24  1  0
 23 22  1  6
 24 17  1  0
 25 23  1  0
 26 25  2  0
 27 25  1  0
M  END
$$$$
