DHN.pdb
     RDKit          3D

 27 27  0  0  1  0  0  0  0  0999 V2000
   13.9003  -13.9811   17.1252 N   0  0  0  0  0  0  0  0  0  0  0  0
   13.2274  -15.1041   17.6686 C   0  0  1  0  0  0  0  0  0  0  0  0
   14.1060  -16.3135   17.8541 C   0  0  0  0  0  0  0  0  0  0  0  0
   14.3107  -17.0629   16.5906 C   0  0  0  0  0  0  0  0  0  0  0  0
   13.8637  -16.6132   15.4803 O   0  0  0  0  0  0  0  0  0  0  0  0
   12.6193  -14.7690   19.0202 C   0  0  0  0  0  0  0  0  0  0  0  0
   13.1609  -13.9133   19.7456 O   0  0  0  0  0  0  0  0  0  0  0  0
   14.9818  -18.2714   16.5166 O   0  0  0  0  0  0  0  0  0  0  0  0
   11.4536  -15.4173   19.4545 N   0  0  0  0  0  0  0  0  0  0  0  0
   10.7461  -15.3182   20.6905 C   0  0  1  0  0  0  0  0  0  0  0  0
    9.2243  -15.3494   20.5830 C   0  0  0  0  0  0  0  0  0  0  0  0
    8.6799  -14.4082   19.6051 C   0  0  0  0  0  0  0  0  0  0  0  0
    8.2937  -13.1208   19.9111 C   0  0  0  0  0  0  0  0  0  0  0  0
    7.8335  -12.4994   18.8193 N   0  0  0  0  0  0  0  0  0  0  0  0
    7.9197  -13.3884   17.7896 C   0  0  0  0  0  0  0  0  0  0  0  0
    8.4309  -14.5313   18.2798 N   0  0  0  0  0  0  0  0  0  0  0  0
   11.1815  -16.1881   21.7725 C   0  0  0  0  0  0  0  0  0  0  0  0
   11.0720  -17.4445   21.5500 O   0  0  0  0  0  0  0  0  0  0  0  0
   15.2888  -14.8981   23.1920 N   0  0  0  0  0  0  0  0  0  0  0  0
   14.5608  -16.0509   23.5439 C   0  0  0  0  0  0  0  0  0  0  0  0
   14.8338  -17.1497   22.9337 O   0  0  0  0  0  0  0  0  0  0  0  0
   13.5053  -16.1418   24.5523 C   0  0  0  0  0  0  0  0  0  0  0  0
   12.1917  -16.6356   24.0446 C   0  0  2  0  0  0  0  0  0  0  0  0
   11.6999  -15.7226   23.0099 N   0  0  0  0  0  0  0  0  0  0  0  0
   11.1618  -16.7822   25.1103 C   0  0  0  0  0  0  0  0  0  0  0  0
   10.1063  -16.0843   25.0509 O   0  0  0  0  0  0  0  0  0  0  0  0
   11.2543  -17.6338   26.1897 O   0  0  0  0  0  0  0  0  0  0  0  0
  2  1  1  1
  2  3  1  0
  4  8  1  0
  4  3  1  0
  5  4  2  0
  6  7  2  0
  6  2  1  0
  9  6  1  0
 10  9  1  0
 10 11  1  6
 12 11  1  0
 12 13  2  0
 14 13  1  0
 15 14  1  0
 16 15  2  0
 16 12  1  0
 17 10  1  0
 17 18  2  0
 20 19  1  0
 20 21  2  0
 22 20  1  0
 23 24  1  0
 23 22  1  1
 24 17  1  0
 25 23  1  0
 26 25  2  0
 27 25  1  0
M  END
$$$$
