DHN.pdb
     RDKit          3D

 27 27  0  0  1  0  0  0  0  0999 V2000
    9.6349  -16.7902   15.4969 N   0  0  0  0  0  0  0  0  0  0  0  0
   10.4200  -17.6195   16.3366 C   0  0  1  0  0  0  0  0  0  0  0  0
   11.6778  -18.1336   15.6863 C   0  0  0  0  0  0  0  0  0  0  0  0
   11.4017  -19.1688   14.6607 C   0  0  0  0  0  0  0  0  0  0  0  0
   10.2018  -19.4970   14.3650 O   0  0  0  0  0  0  0  0  0  0  0  0
   10.8277  -16.8797   17.5997 C   0  0  0  0  0  0  0  0  0  0  0  0
   11.9473  -16.3372   17.6631 O   0  0  0  0  0  0  0  0  0  0  0  0
   12.3915  -19.8405   13.9640 O   0  0  0  0  0  0  0  0  0  0  0  0
    9.9515  -16.8051   18.6926 N   0  0  0  0  0  0  0  0  0  0  0  0
   10.1011  -16.1554   19.9550 C   0  0  1  0  0  0  0  0  0  0  0  0
    8.8551  -15.4523   20.4859 C   0  0  0  0  0  0  0  0  0  0  0  0
    8.2492  -14.5215   19.5346 C   0  0  0  0  0  0  0  0  0  0  0  0
    8.4572  -13.1590   19.5551 C   0  0  0  0  0  0  0  0  0  0  0  0
    7.7729  -12.5673   18.5695 N   0  0  0  0  0  0  0  0  0  0  0  0
    7.1113  -13.5518   17.8979 C   0  0  0  0  0  0  0  0  0  0  0  0
    7.4091  -14.7209   18.4915 N   0  0  0  0  0  0  0  0  0  0  0  0
   10.7270  -16.9212   21.0221 C   0  0  0  0  0  0  0  0  0  0  0  0
   10.1893  -18.0550   21.2778 O   0  0  0  0  0  0  0  0  0  0  0  0
   12.4093  -20.1201   20.2559 N   0  0  0  0  0  0  0  0  0  0  0  0
   12.7325  -19.6046   21.5258 C   0  0  0  0  0  0  0  0  0  0  0  0
   12.4204  -20.3024   22.5601 O   0  0  0  0  0  0  0  0  0  0  0  0
   13.4024  -18.3353   21.8071 C   0  0  0  0  0  0  0  0  0  0  0  0
   12.6140  -17.3792   22.6386 C   0  0  2  0  0  0  0  0  0  0  0  0
   11.8591  -16.4832   21.7590 N   0  0  0  0  0  0  0  0  0  0  0  0
   13.4515  -16.5739   23.5701 C   0  0  0  0  0  0  0  0  0  0  0  0
   14.0949  -17.1621   24.4893 O   0  0  0  0  0  0  0  0  0  0  0  0
   13.5953  -15.2043   23.5233 O   0  0  0  0  0  0  0  0  0  0  0  0
  2  1  1  6
  2  3  1  0
  4  8  1  0
  4  3  1  0
  5  4  2  0
  6  7  2  0
  6  2  1  0
  9  6  1  0
 10  9  1  0
 10 11  1  1
 12 11  1  0
 12 13  2  0
 14 13  1  0
 15 14  1  0
 16 15  2  0
 16 12  1  0
 17 10  1  0
 17 18  2  0
 20 19  1  0
 20 21  2  0
 22 20  1  0
 23 24  1  0
 23 22  1  6
 24 17  1  0
 25 23  1  0
 26 25  2  0
 27 25  1  0
M  END
$$$$
