DHN.pdb
     RDKit          3D

 27 27  0  0  1  0  0  0  0  0999 V2000
    8.3481  -17.6220   14.4827 N   0  0  0  0  0  0  0  0  0  0  0  0
    9.6989  -17.1972   14.4198 C   0  0  1  0  0  0  0  0  0  0  0  0
   10.0666  -16.5148   13.1282 C   0  0  0  0  0  0  0  0  0  0  0  0
    9.8370  -17.3804   11.9459 C   0  0  0  0  0  0  0  0  0  0  0  0
    8.6588  -17.5618   11.4834 O   0  0  0  0  0  0  0  0  0  0  0  0
   10.0170  -16.2350   15.5520 C   0  0  0  0  0  0  0  0  0  0  0  0
   11.1909  -15.8581   15.7303 O   0  0  0  0  0  0  0  0  0  0  0  0
   10.8496  -18.0397   11.2706 O   0  0  0  0  0  0  0  0  0  0  0  0
    8.9974  -15.7702   16.3960 N   0  0  0  0  0  0  0  0  0  0  0  0
    9.0696  -15.0007   17.5963 C   0  0  1  0  0  0  0  0  0  0  0  0
    7.7311  -14.5329   18.1605 C   0  0  0  0  0  0  0  0  0  0  0  0
    7.8513  -13.6880   19.3479 C   0  0  0  0  0  0  0  0  0  0  0  0
    8.0638  -12.3267   19.3032 C   0  0  0  0  0  0  0  0  0  0  0  0
    8.1336  -11.8241   20.5411 N   0  0  0  0  0  0  0  0  0  0  0  0
    7.9648  -12.8661   21.4035 C   0  0  0  0  0  0  0  0  0  0  0  0
    7.7963  -13.9796   20.6691 N   0  0  0  0  0  0  0  0  0  0  0  0
    9.8998  -15.5264   18.6693 C   0  0  0  0  0  0  0  0  0  0  0  0
    9.6877  -16.7495   18.9838 O   0  0  0  0  0  0  0  0  0  0  0  0
   13.9259  -16.2703   22.1470 N   0  0  0  0  0  0  0  0  0  0  0  0
   14.0803  -15.1691   21.2831 C   0  0  0  0  0  0  0  0  0  0  0  0
   15.2027  -14.5413   21.2965 O   0  0  0  0  0  0  0  0  0  0  0  0
   13.0841  -14.6483   20.3474 C   0  0  0  0  0  0  0  0  0  0  0  0
   11.7796  -15.3732   20.3504 C   0  0  2  0  0  0  0  0  0  0  0  0
   10.8915  -14.7731   19.3517 N   0  0  0  0  0  0  0  0  0  0  0  0
   11.1061  -15.3755   21.6787 C   0  0  0  0  0  0  0  0  0  0  0  0
   10.1949  -14.5269   21.9119 O   0  0  0  0  0  0  0  0  0  0  0  0
   11.3922  -16.2428   22.7105 O   0  0  0  0  0  0  0  0  0  0  0  0
  2  1  1  6
  2  3  1  0
  4  8  1  0
  4  3  1  0
  5  4  2  0
  6  7  2  0
  6  2  1  0
  9  6  1  0
 10  9  1  0
 10 11  1  1
 12 11  1  0
 12 13  2  0
 14 13  1  0
 15 14  1  0
 16 15  2  0
 16 12  1  0
 17 10  1  0
 17 18  2  0
 20 19  1  0
 20 21  2  0
 22 20  1  0
 23 24  1  0
 23 22  1  1
 24 17  1  0
 25 23  1  0
 26 25  2  0
 27 25  1  0
M  END
$$$$
