DHN.pdb
     RDKit          3D

 27 27  0  0  1  0  0  0  0  0999 V2000
   12.1920  -15.1681   16.9504 N   0  0  0  0  0  0  0  0  0  0  0  0
   13.1547  -15.3144   17.9805 C   0  0  1  0  0  0  0  0  0  0  0  0
   14.4066  -14.5041   17.7681 C   0  0  0  0  0  0  0  0  0  0  0  0
   15.1144  -14.8738   16.5182 C   0  0  0  0  0  0  0  0  0  0  0  0
   15.1879  -14.0555   15.5384 O   0  0  0  0  0  0  0  0  0  0  0  0
   12.5731  -14.9135   19.3258 C   0  0  0  0  0  0  0  0  0  0  0  0
   13.1397  -14.0378   20.0069 O   0  0  0  0  0  0  0  0  0  0  0  0
   15.7323  -16.0965   16.3203 O   0  0  0  0  0  0  0  0  0  0  0  0
   11.4038  -15.5236   19.8038 N   0  0  0  0  0  0  0  0  0  0  0  0
   10.6931  -15.3295   21.0266 C   0  0  1  0  0  0  0  0  0  0  0  0
    9.1748  -15.2446   20.8999 C   0  0  0  0  0  0  0  0  0  0  0  0
    8.7176  -14.3291   19.8552 C   0  0  0  0  0  0  0  0  0  0  0  0
    8.5514  -12.9734   20.0414 C   0  0  0  0  0  0  0  0  0  0  0  0
    8.1215  -12.3965   18.9134 N   0  0  0  0  0  0  0  0  0  0  0  0
    8.0057  -13.3838   17.9809 C   0  0  0  0  0  0  0  0  0  0  0  0
    8.3682  -14.5397   18.5640 N   0  0  0  0  0  0  0  0  0  0  0  0
   11.0467  -16.1957   22.1409 C   0  0  0  0  0  0  0  0  0  0  0  0
   10.8230  -17.4441   21.9636 O   0  0  0  0  0  0  0  0  0  0  0  0
   14.4975  -16.9032   22.9074 N   0  0  0  0  0  0  0  0  0  0  0  0
   14.4599  -16.3392   24.1971 C   0  0  0  0  0  0  0  0  0  0  0  0
   15.5627  -15.9155   24.7054 O   0  0  0  0  0  0  0  0  0  0  0  0
   13.2779  -16.1744   25.0427 C   0  0  0  0  0  0  0  0  0  0  0  0
   11.9999  -16.6500   24.4362 C   0  0  2  0  0  0  0  0  0  0  0  0
   11.6051  -15.7347   23.3626 N   0  0  0  0  0  0  0  0  0  0  0  0
   10.8880  -16.7744   25.4190 C   0  0  0  0  0  0  0  0  0  0  0  0
    9.9756  -15.8956   25.4355 O   0  0  0  0  0  0  0  0  0  0  0  0
   10.7560  -17.7892   26.3417 O   0  0  0  0  0  0  0  0  0  0  0  0
  2  1  1  6
  2  3  1  0
  4  8  1  0
  4  3  1  0
  5  4  2  0
  6  7  2  0
  6  2  1  0
  9  6  1  0
 10  9  1  0
 10 11  1  6
 12 11  1  0
 12 13  2  0
 14 13  1  0
 15 14  1  0
 16 15  2  0
 16 12  1  0
 17 10  1  0
 17 18  2  0
 20 19  1  0
 20 21  2  0
 22 20  1  0
 23 24  1  0
 23 22  1  1
 24 17  1  0
 25 23  1  0
 26 25  2  0
 27 25  1  0
M  END
$$$$
