ITT.pdb
     RDKit          3D

 23 22  0  0  1  0  0  0  0  0999 V2000
    5.9087  -11.2046   26.7766 C   0  0  0  0  0  0  0  0  0  0  0  0
    5.6775  -12.4098   25.8908 C   0  0  0  0  0  0  0  0  0  0  0  0
    6.8470  -13.3637   25.9662 C   0  0  2  0  0  0  0  0  0  0  0  0
    8.0878  -12.6490   25.5821 C   0  0  0  0  0  0  0  0  0  0  0  0
    6.5543  -14.5924   25.1544 C   0  0  2  0  0  0  0  0  0  0  0  0
    5.2223  -15.0411   25.5067 N   0  0  0  0  0  0  0  0  0  0  0  0
    7.5627  -15.6572   25.3347 C   0  0  0  0  0  0  0  0  0  0  0  0
    7.6283  -16.4223   26.3013 O   0  0  0  0  0  0  0  0  0  0  0  0
    9.0354  -17.6743   22.1167 C   0  0  0  0  0  0  0  0  0  0  0  0
   10.1178  -17.2224   23.0681 C   0  0  1  0  0  0  0  0  0  0  0  0
   10.8408  -16.1596   22.6064 O   0  0  0  0  0  0  0  0  0  0  0  0
    9.5574  -16.8898   24.4402 C   0  0  2  0  0  0  0  0  0  0  0  0
    8.5465  -15.8188   24.3069 N   0  0  0  0  0  0  0  0  0  0  0  0
   10.5836  -16.5057   25.4204 C   0  0  0  0  0  0  0  0  0  0  0  0
   11.1512  -15.3753   25.3229 O   0  0  0  0  0  0  0  0  0  0  0  0
   10.8048  -14.8309   28.1381 C   0  0  0  0  0  0  0  0  0  0  0  0
   11.3036  -16.1723   28.5779 C   0  0  1  0  0  0  0  0  0  0  0  0
   10.1842  -16.9295   28.9539 O   0  0  0  0  0  0  0  0  0  0  0  0
   11.9887  -16.9313   27.4644 C   0  0  2  0  0  0  0  0  0  0  0  0
   10.9904  -17.3314   26.4918 N   0  0  0  0  0  0  0  0  0  0  0  0
   12.6743  -18.1435   27.9547 C   0  0  0  0  0  0  0  0  0  0  0  0
   13.7869  -18.1093   28.7814 O   0  0  0  0  0  0  0  0  0  0  0  0
   12.2409  -19.2683   27.6155 O   0  0  0  0  0  0  0  0  0  0  0  0
  1  2  1  0
  3  2  1  0
  3  5  1  0
  3  4  1  6
  5  7  1  0
  5  6  1  1
  7  8  2  0
  7 13  1  0
 10  9  1  6
 11 10  1  0
 12 14  1  0
 12 10  1  0
 12 13  1  6
 14 15  2  0
 17 19  1  0
 17 16  1  6
 17 18  1  0
 19 20  1  6
 20 14  1  0
 21 22  1  0
 21 19  1  0
 23 21  2  0
M  END
$$$$
