ITT.pdb
     RDKit          3D

 23 22  0  0  1  0  0  0  0  0999 V2000
    5.6061  -11.4777   25.8047 C   0  0  0  0  0  0  0  0  0  0  0  0
    6.2184  -12.1383   24.5884 C   0  0  0  0  0  0  0  0  0  0  0  0
    6.9729  -13.3879   24.9789 C   0  0  2  0  0  0  0  0  0  0  0  0
    8.0286  -13.0367   25.9589 C   0  0  0  0  0  0  0  0  0  0  0  0
    7.4691  -14.0883   23.7470 C   0  0  2  0  0  0  0  0  0  0  0  0
    6.3676  -14.1521   22.8078 N   0  0  0  0  0  0  0  0  0  0  0  0
    8.0329  -15.4244   24.0302 C   0  0  0  0  0  0  0  0  0  0  0  0
    7.6307  -16.4865   23.5461 O   0  0  0  0  0  0  0  0  0  0  0  0
    9.2520  -17.3967   22.7470 C   0  0  0  0  0  0  0  0  0  0  0  0
   10.3682  -17.2442   23.7529 C   0  0  1  0  0  0  0  0  0  0  0  0
   11.3619  -16.4024   23.3413 O   0  0  0  0  0  0  0  0  0  0  0  0
    9.8485  -16.7841   25.1040 C   0  0  2  0  0  0  0  0  0  0  0  0
    9.1363  -15.4986   24.9399 N   0  0  0  0  0  0  0  0  0  0  0  0
   10.8951  -16.6620   26.1294 C   0  0  0  0  0  0  0  0  0  0  0  0
   11.9559  -16.0170   25.8681 O   0  0  0  0  0  0  0  0  0  0  0  0
   11.0059  -14.7278   29.0368 C   0  0  0  0  0  0  0  0  0  0  0  0
   11.2201  -16.1291   29.5186 C   0  0  1  0  0  0  0  0  0  0  0  0
    9.9614  -16.6518   29.8506 O   0  0  0  0  0  0  0  0  0  0  0  0
   11.7972  -17.0292   28.4498 C   0  0  2  0  0  0  0  0  0  0  0  0
   10.7964  -17.2283   27.4196 N   0  0  0  0  0  0  0  0  0  0  0  0
   12.1870  -18.3497   28.9828 C   0  0  0  0  0  0  0  0  0  0  0  0
   11.5291  -19.5270   28.6611 O   0  0  0  0  0  0  0  0  0  0  0  0
   13.1601  -18.4275   29.7672 O   0  0  0  0  0  0  0  0  0  0  0  0
  1  2  1  0
  3  2  1  0
  3  5  1  0
  3  4  1  1
  5  7  1  0
  5  6  1  6
  7  8  2  0
  7 13  1  0
 10  9  1  6
 11 10  1  0
 12 14  1  0
 12 10  1  0
 12 13  1  6
 14 15  2  0
 17 19  1  0
 17 16  1  6
 17 18  1  0
 19 20  1  6
 20 14  1  0
 21 22  1  0
 21 19  1  0
 23 21  2  0
M  END
$$$$
