ITT.pdb
     RDKit          3D

 23 22  0  0  1  0  0  0  0  0999 V2000
    7.3535  -12.2647   19.1074 C   0  0  0  0  0  0  0  0  0  0  0  0
    8.1771  -13.5323   19.1793 C   0  0  0  0  0  0  0  0  0  0  0  0
    8.1402  -14.1184   20.5716 C   0  0  2  0  0  0  0  0  0  0  0  0
    8.6437  -13.1143   21.5393 C   0  0  0  0  0  0  0  0  0  0  0  0
    8.8714  -15.4296   20.5910 C   0  0  2  0  0  0  0  0  0  0  0  0
    8.3377  -16.2428   19.5172 N   0  0  0  0  0  0  0  0  0  0  0  0
    8.7914  -16.1158   21.8971 C   0  0  0  0  0  0  0  0  0  0  0  0
    7.7749  -16.6306   22.3723 O   0  0  0  0  0  0  0  0  0  0  0  0
   10.2320  -19.1598   22.8991 C   0  0  0  0  0  0  0  0  0  0  0  0
   10.8148  -18.1606   23.8701 C   0  0  1  0  0  0  0  0  0  0  0  0
   12.1007  -17.8039   23.5793 O   0  0  0  0  0  0  0  0  0  0  0  0
    9.9583  -16.9103   23.9721 C   0  0  2  0  0  0  0  0  0  0  0  0
    9.9882  -16.1926   22.6796 N   0  0  0  0  0  0  0  0  0  0  0  0
   10.3532  -16.0110   25.0661 C   0  0  0  0  0  0  0  0  0  0  0  0
   10.9664  -14.9326   24.8002 O   0  0  0  0  0  0  0  0  0  0  0  0
    9.6115  -13.6078   29.0290 C   0  0  0  0  0  0  0  0  0  0  0  0
    9.3285  -14.4841   27.8485 C   0  0  1  0  0  0  0  0  0  0  0  0
    9.1219  -13.6423   26.7456 O   0  0  0  0  0  0  0  0  0  0  0  0
   10.4933  -15.3820   27.4988 C   0  0  2  0  0  0  0  0  0  0  0  0
   10.0887  -16.2729   26.4286 N   0  0  0  0  0  0  0  0  0  0  0  0
   10.9313  -16.2007   28.6467 C   0  0  0  0  0  0  0  0  0  0  0  0
   11.7187  -15.7106   29.6773 O   0  0  0  0  0  0  0  0  0  0  0  0
   10.5819  -17.4017   28.7075 O   0  0  0  0  0  0  0  0  0  0  0  0
  1  2  1  0
  3  2  1  0
  3  5  1  0
  3  4  1  1
  5  7  1  0
  5  6  1  6
  7  8  2  0
  7 13  1  0
 10  9  1  6
 11 10  1  0
 12 14  1  0
 12 10  1  0
 12 13  1  6
 14 15  2  0
 17 19  1  0
 17 16  1  1
 17 18  1  0
 19 20  1  6
 20 14  1  0
 21 22  1  0
 21 19  1  0
 23 21  2  0
M  END
$$$$
