ITT.pdb
     RDKit          3D

 23 22  0  0  1  0  0  0  0  0999 V2000
    6.4145  -11.4141   27.4869 C   0  0  0  0  0  0  0  0  0  0  0  0
    5.8564  -12.5795   26.6988 C   0  0  0  0  0  0  0  0  0  0  0  0
    6.9642  -13.3395   26.0072 C   0  0  2  0  0  0  0  0  0  0  0  0
    7.7429  -12.4062   25.1582 C   0  0  0  0  0  0  0  0  0  0  0  0
    6.3923  -14.5211   25.2785 C   0  0  2  0  0  0  0  0  0  0  0  0
    5.5575  -15.2481   26.2133 N   0  0  0  0  0  0  0  0  0  0  0  0
    7.4287  -15.3842   24.6751 C   0  0  0  0  0  0  0  0  0  0  0  0
    8.0475  -16.2755   25.2640 O   0  0  0  0  0  0  0  0  0  0  0  0
    7.0116  -16.0897   20.6856 C   0  0  0  0  0  0  0  0  0  0  0  0
    8.4595  -15.9810   21.1011 C   0  0  1  0  0  0  0  0  0  0  0  0
    9.0563  -14.8200   20.6997 O   0  0  0  0  0  0  0  0  0  0  0  0
    8.6268  -16.1380   22.6027 C   0  0  2  0  0  0  0  0  0  0  0  0
    7.7450  -15.1734   23.2945 N   0  0  0  0  0  0  0  0  0  0  0  0
   10.0148  -15.9832   23.0621 C   0  0  0  0  0  0  0  0  0  0  0  0
   10.3307  -14.9828   23.7755 O   0  0  0  0  0  0  0  0  0  0  0  0
   13.2677  -18.3811   25.3737 C   0  0  0  0  0  0  0  0  0  0  0  0
   12.0053  -17.9292   24.7075 C   0  0  1  0  0  0  0  0  0  0  0  0
   11.2788  -17.1886   25.6517 O   0  0  0  0  0  0  0  0  0  0  0  0
   12.2636  -17.0082   23.5368 C   0  0  2  0  0  0  0  0  0  0  0  0
   11.0472  -16.8972   22.7555 N   0  0  0  0  0  0  0  0  0  0  0  0
   13.3383  -17.5106   22.6579 C   0  0  0  0  0  0  0  0  0  0  0  0
   13.2440  -18.6899   21.9348 O   0  0  0  0  0  0  0  0  0  0  0  0
   14.3959  -16.8490   22.5489 O   0  0  0  0  0  0  0  0  0  0  0  0
  1  2  1  0
  3  2  1  0
  3  5  1  0
  3  4  1  6
  5  7  1  0
  5  6  1  1
  7  8  2  0
  7 13  1  0
 10  9  1  1
 11 10  1  0
 12 14  1  0
 12 10  1  0
 12 13  1  1
 14 15  2  0
 17 19  1  0
 17 16  1  1
 17 18  1  0
 19 20  1  6
 20 14  1  0
 21 22  1  0
 21 19  1  0
 23 21  2  0
M  END
$$$$
