ITT.pdb
     RDKit          3D

 23 22  0  0  1  0  0  0  0  0999 V2000
    7.4839  -12.2095   19.0877 C   0  0  0  0  0  0  0  0  0  0  0  0
    8.0710  -13.6013   19.1811 C   0  0  0  0  0  0  0  0  0  0  0  0
    8.0557  -14.0957   20.6089 C   0  0  2  0  0  0  0  0  0  0  0  0
    8.6883  -13.0811   21.4856 C   0  0  0  0  0  0  0  0  0  0  0  0
    8.6761  -15.4610   20.6810 C   0  0  2  0  0  0  0  0  0  0  0  0
    8.0034  -16.2981   19.7083 N   0  0  0  0  0  0  0  0  0  0  0  0
    8.6318  -16.0443   22.0379 C   0  0  0  0  0  0  0  0  0  0  0  0
    7.6132  -16.4411   22.6117 O   0  0  0  0  0  0  0  0  0  0  0  0
   10.0729  -19.0944   23.0084 C   0  0  0  0  0  0  0  0  0  0  0  0
   10.6921  -18.1104   23.9725 C   0  0  1  0  0  0  0  0  0  0  0  0
   11.9893  -17.8009   23.6777 O   0  0  0  0  0  0  0  0  0  0  0  0
    9.8802  -16.8302   24.0682 C   0  0  2  0  0  0  0  0  0  0  0  0
    9.8688  -16.1610   22.7497 N   0  0  0  0  0  0  0  0  0  0  0  0
   10.3555  -15.9053   25.1075 C   0  0  0  0  0  0  0  0  0  0  0  0
   11.1948  -15.0027   24.8066 O   0  0  0  0  0  0  0  0  0  0  0  0
    9.1308  -13.0913   26.8829 C   0  0  0  0  0  0  0  0  0  0  0  0
    9.4268  -14.1206   27.9292 C   0  0  1  0  0  0  0  0  0  0  0  0
    8.2495  -14.8553   28.1346 O   0  0  0  0  0  0  0  0  0  0  0  0
   10.4849  -15.1073   27.4907 C   0  0  2  0  0  0  0  0  0  0  0  0
    9.9292  -15.9543   26.4532 N   0  0  0  0  0  0  0  0  0  0  0  0
   10.9402  -15.9675   28.6009 C   0  0  0  0  0  0  0  0  0  0  0  0
   10.7559  -17.3415   28.6268 O   0  0  0  0  0  0  0  0  0  0  0  0
   11.5248  -15.4445   29.5771 O   0  0  0  0  0  0  0  0  0  0  0  0
  1  2  1  0
  3  2  1  0
  3  5  1  0
  3  4  1  1
  5  7  1  0
  5  6  1  6
  7  8  2  0
  7 13  1  0
 10  9  1  6
 11 10  1  0
 12 14  1  0
 12 10  1  0
 12 13  1  6
 14 15  2  0
 17 19  1  0
 17 16  1  6
 17 18  1  0
 19 20  1  6
 20 14  1  0
 21 22  1  0
 21 19  1  0
 23 21  2  0
M  END
$$$$
