ITT.pdb
     RDKit          3D

 23 22  0  0  1  0  0  0  0  0999 V2000
    6.8914  -11.3669   27.3425 C   0  0  0  0  0  0  0  0  0  0  0  0
    6.1912  -12.4484   26.5484 C   0  0  0  0  0  0  0  0  0  0  0  0
    7.1939  -13.3932   25.9277 C   0  0  2  0  0  0  0  0  0  0  0  0
    8.1778  -12.6140   25.1384 C   0  0  0  0  0  0  0  0  0  0  0  0
    6.4755  -14.4615   25.1551 C   0  0  2  0  0  0  0  0  0  0  0  0
    5.4866  -15.0477   26.0371 N   0  0  0  0  0  0  0  0  0  0  0  0
    7.3873  -15.4789   24.5922 C   0  0  0  0  0  0  0  0  0  0  0  0
    7.8426  -16.4480   25.2067 O   0  0  0  0  0  0  0  0  0  0  0  0
    7.1525  -16.3397   20.6289 C   0  0  0  0  0  0  0  0  0  0  0  0
    8.5829  -16.2527   21.1057 C   0  0  1  0  0  0  0  0  0  0  0  0
    9.2333  -15.1308   20.6771 O   0  0  0  0  0  0  0  0  0  0  0  0
    8.6774  -16.3400   22.6192 C   0  0  2  0  0  0  0  0  0  0  0  0
    7.7777  -15.3332   23.2222 N   0  0  0  0  0  0  0  0  0  0  0  0
   10.0443  -16.1798   23.1363 C   0  0  0  0  0  0  0  0  0  0  0  0
   10.2913  -15.2665   23.9816 O   0  0  0  0  0  0  0  0  0  0  0  0
   12.6093  -19.0073   25.5206 C   0  0  0  0  0  0  0  0  0  0  0  0
   11.5842  -18.2139   24.7713 C   0  0  1  0  0  0  0  0  0  0  0  0
   11.0161  -17.3067   25.6780 O   0  0  0  0  0  0  0  0  0  0  0  0
   12.1873  -17.3931   23.6543 C   0  0  2  0  0  0  0  0  0  0  0  0
   11.1293  -16.9956   22.7459 N   0  0  0  0  0  0  0  0  0  0  0  0
   13.1989  -18.1492   22.8895 C   0  0  0  0  0  0  0  0  0  0  0  0
   14.5631  -17.9283   23.0023 O   0  0  0  0  0  0  0  0  0  0  0  0
   12.8217  -19.0394   22.0937 O   0  0  0  0  0  0  0  0  0  0  0  0
  1  2  1  0
  3  2  1  0
  3  5  1  0
  3  4  1  6
  5  7  1  0
  5  6  1  1
  7  8  2  0
  7 13  1  0
 10  9  1  1
 11 10  1  0
 12 14  1  0
 12 10  1  0
 12 13  1  1
 14 15  2  0
 17 19  1  0
 17 16  1  1
 17 18  1  0
 19 20  1  6
 20 14  1  0
 21 22  1  0
 21 19  1  0
 23 21  2  0
M  END
$$$$
