ITT.pdb
     RDKit          3D

 23 22  0  0  1  0  0  0  0  0999 V2000
    7.5026  -11.5528   19.2220 C   0  0  0  0  0  0  0  0  0  0  0  0
    8.1757  -12.8051   18.7030 C   0  0  0  0  0  0  0  0  0  0  0  0
    8.3181  -13.8327   19.8017 C   0  0  2  0  0  0  0  0  0  0  0  0
    9.1128  -13.2556   20.9123 C   0  0  0  0  0  0  0  0  0  0  0  0
    8.8677  -15.1099   19.2352 C   0  0  2  0  0  0  0  0  0  0  0  0
    8.0219  -15.4936   18.1230 N   0  0  0  0  0  0  0  0  0  0  0  0
    8.9807  -16.1861   20.2413 C   0  0  0  0  0  0  0  0  0  0  0  0
    8.0371  -16.8360   20.7010 O   0  0  0  0  0  0  0  0  0  0  0  0
   10.5805  -19.3398   19.9886 C   0  0  0  0  0  0  0  0  0  0  0  0
   11.2628  -18.7016   21.1753 C   0  0  1  0  0  0  0  0  0  0  0  0
   12.5250  -18.2558   20.9038 O   0  0  0  0  0  0  0  0  0  0  0  0
   10.4407  -17.5610   21.7501 C   0  0  2  0  0  0  0  0  0  0  0  0
   10.2899  -16.5050   20.7261 N   0  0  0  0  0  0  0  0  0  0  0  0
   10.9972  -16.9971   22.9886 C   0  0  0  0  0  0  0  0  0  0  0  0
   11.4307  -15.8048   22.9946 O   0  0  0  0  0  0  0  0  0  0  0  0
    8.7241  -16.6276   25.4155 C   0  0  0  0  0  0  0  0  0  0  0  0
   10.0850  -16.0362   25.6149 C   0  0  1  0  0  0  0  0  0  0  0  0
   10.1345  -15.5388   26.9257 O   0  0  0  0  0  0  0  0  0  0  0  0
   11.1880  -17.0633   25.4971 C   0  0  2  0  0  0  0  0  0  0  0  0
   11.0834  -17.7114   24.2041 N   0  0  0  0  0  0  0  0  0  0  0  0
   11.1009  -18.0986   26.5460 C   0  0  0  0  0  0  0  0  0  0  0  0
   11.6711  -17.9619   27.8025 O   0  0  0  0  0  0  0  0  0  0  0  0
   10.4836  -19.1610   26.3043 O   0  0  0  0  0  0  0  0  0  0  0  0
  1  2  1  0
  3  2  1  0
  3  5  1  0
  3  4  1  1
  5  7  1  0
  5  6  1  6
  7  8  2  0
  7 13  1  0
 10  9  1  6
 11 10  1  0
 12 14  1  0
 12 10  1  0
 12 13  1  6
 14 15  2  0
 17 19  1  0
 17 16  1  1
 17 18  1  0
 19 20  1  6
 20 14  1  0
 21 22  1  0
 21 19  1  0
 23 21  2  0
M  END
$$$$
