DDS.pdb
     RDKit          3D

 23 22  0  0  1  0  0  0  0  0999 V2000
   11.5222  -17.4989   17.4943 N   0  0  0  0  0  0  0  0  0  0  0  0
   10.5066  -18.0077   18.3946 C   0  0  1  0  0  0  0  0  0  0  0  0
    9.8942  -19.2734   17.8761 C   0  0  0  0  0  0  0  0  0  0  0  0
    9.4140  -19.0979   16.5047 C   0  0  0  0  0  0  0  0  0  0  0  0
   10.2426  -18.9885   15.5689 O   0  0  0  0  0  0  0  0  0  0  0  0
   11.1117  -18.1732   19.7375 C   0  0  0  0  0  0  0  0  0  0  0  0
   10.4383  -18.6684   20.6910 O   0  0  0  0  0  0  0  0  0  0  0  0
    8.0307  -19.0573   16.2789 O   0  0  0  0  0  0  0  0  0  0  0  0
   12.4468  -17.8002   20.0408 N   0  0  0  0  0  0  0  0  0  0  0  0
   13.0851  -17.9655   21.3244 C   0  0  1  0  0  0  0  0  0  0  0  0
   14.5698  -18.0889   21.2419 C   0  0  0  0  0  0  0  0  0  0  0  0
   15.1105  -17.3355   20.0876 C   0  0  0  0  0  0  0  0  0  0  0  0
   14.9012  -17.7178   18.9144 O   0  0  0  0  0  0  0  0  0  0  0  0
   12.6503  -16.9234   22.2917 C   0  0  0  0  0  0  0  0  0  0  0  0
   13.3189  -15.8668   22.3854 O   0  0  0  0  0  0  0  0  0  0  0  0
   15.8691  -16.1795   20.2363 O   0  0  0  0  0  0  0  0  0  0  0  0
    8.8455  -16.4326   23.6207 O   0  0  0  0  0  0  0  0  0  0  0  0
    9.7865  -15.4197   23.7313 C   0  0  0  0  0  0  0  0  0  0  0  0
   11.1205  -16.0503   24.0781 C   0  0  2  0  0  0  0  0  0  0  0  0
   11.5099  -17.0647   23.1192 N   0  0  0  0  0  0  0  0  0  0  0  0
   11.1486  -16.5684   25.4570 C   0  0  0  0  0  0  0  0  0  0  0  0
   11.4054  -17.8972   25.6894 O   0  0  0  0  0  0  0  0  0  0  0  0
   10.9395  -15.8025   26.4166 O   0  0  0  0  0  0  0  0  0  0  0  0
  2  1  1  6
  3  2  1  0
  4  8  1  0
  4  3  1  0
  5  4  2  0
  6  2  1  0
  7  6  2  0
  9  6  1  0
 10 14  1  0
 10  9  1  0
 10 11  1  6
 12 13  2  0
 12 11  1  0
 14 20  1  0
 15 14  2  0
 16 12  1  0
 18 17  1  0
 19 18  1  6
 19 21  1  0
 20 19  1  0
 21 23  2  0
 21 22  1  0
M  END
$$$$
