DDS.pdb
     RDKit          3D

 23 22  0  0  1  0  0  0  0  0999 V2000
   11.2854  -19.7575   15.8236 N   0  0  0  0  0  0  0  0  0  0  0  0
   11.9973  -20.4658   16.8687 C   0  0  1  0  0  0  0  0  0  0  0  0
   13.4418  -20.0698   16.9178 C   0  0  0  0  0  0  0  0  0  0  0  0
   14.0520  -20.1539   15.5902 C   0  0  0  0  0  0  0  0  0  0  0  0
   13.7706  -21.1199   14.8406 O   0  0  0  0  0  0  0  0  0  0  0  0
   11.2962  -20.2327   18.1536 C   0  0  0  0  0  0  0  0  0  0  0  0
   10.5694  -19.2060   18.3138 O   0  0  0  0  0  0  0  0  0  0  0  0
   14.9397  -19.1429   15.1951 O   0  0  0  0  0  0  0  0  0  0  0  0
   11.3865  -21.1156   19.2608 N   0  0  0  0  0  0  0  0  0  0  0  0
   10.6401  -20.9876   20.4892 C   0  0  1  0  0  0  0  0  0  0  0  0
   10.4740  -22.2755   21.2242 C   0  0  0  0  0  0  0  0  0  0  0  0
    9.6334  -22.1035   22.4310 C   0  0  0  0  0  0  0  0  0  0  0  0
   10.1281  -22.1885   23.5775 O   0  0  0  0  0  0  0  0  0  0  0  0
   11.1820  -19.9032   21.3500 C   0  0  0  0  0  0  0  0  0  0  0  0
   12.4243  -19.8004   21.4852 O   0  0  0  0  0  0  0  0  0  0  0  0
    8.2693  -21.8420   22.3628 O   0  0  0  0  0  0  0  0  0  0  0  0
   10.6573  -15.6090   23.4022 O   0  0  0  0  0  0  0  0  0  0  0  0
   10.0157  -16.6408   22.7334 C   0  0  0  0  0  0  0  0  0  0  0  0
   10.9079  -17.8650   22.7868 C   0  0  2  0  0  0  0  0  0  0  0  0
   10.3595  -18.9729   22.0306 N   0  0  0  0  0  0  0  0  0  0  0  0
   11.2292  -18.2587   24.1697 C   0  0  0  0  0  0  0  0  0  0  0  0
   12.1585  -17.5496   24.8903 O   0  0  0  0  0  0  0  0  0  0  0  0
   10.6589  -19.2361   24.6896 O   0  0  0  0  0  0  0  0  0  0  0  0
  2  1  1  6
  3  2  1  0
  4  8  1  0
  4  3  1  0
  5  4  2  0
  6  2  1  0
  7  6  2  0
  9  6  1  0
 10 14  1  0
 10  9  1  0
 10 11  1  1
 12 13  2  0
 12 11  1  0
 14 20  1  0
 15 14  2  0
 16 12  1  0
 18 17  1  0
 19 18  1  1
 19 21  1  0
 20 19  1  0
 21 23  2  0
 21 22  1  0
M  END
$$$$
