DDS.pdb
     RDKit          3D

 23 22  0  0  1  0  0  0  0  0999 V2000
    9.6477  -13.7348   17.2382 N   0  0  0  0  0  0  0  0  0  0  0  0
    8.3621  -13.8297   17.9009 C   0  0  1  0  0  0  0  0  0  0  0  0
    7.2804  -14.2417   16.9491 C   0  0  0  0  0  0  0  0  0  0  0  0
    7.8262  -14.4920   15.6143 C   0  0  0  0  0  0  0  0  0  0  0  0
    9.0651  -14.4191   15.4295 O   0  0  0  0  0  0  0  0  0  0  0  0
    8.4953  -14.7551   19.0509 C   0  0  0  0  0  0  0  0  0  0  0  0
    7.4809  -15.0751   19.7412 O   0  0  0  0  0  0  0  0  0  0  0  0
    6.9388  -14.8080   14.5757 O   0  0  0  0  0  0  0  0  0  0  0  0
    9.7303  -15.3304   19.4478 N   0  0  0  0  0  0  0  0  0  0  0  0
    9.9023  -16.2589   20.5391 C   0  0  1  0  0  0  0  0  0  0  0  0
   11.0220  -17.2233   20.3320 C   0  0  0  0  0  0  0  0  0  0  0  0
   10.7912  -18.0700   19.1394 C   0  0  0  0  0  0  0  0  0  0  0  0
    9.7972  -18.8274   19.0703 O   0  0  0  0  0  0  0  0  0  0  0  0
    9.9852  -15.5582   21.8478 C   0  0  0  0  0  0  0  0  0  0  0  0
   10.7935  -14.6083   21.9765 O   0  0  0  0  0  0  0  0  0  0  0  0
   11.6499  -18.0735   18.0456 O   0  0  0  0  0  0  0  0  0  0  0  0
    6.9413  -15.0091   24.3302 O   0  0  0  0  0  0  0  0  0  0  0  0
    8.1115  -14.2744   24.4499 C   0  0  0  0  0  0  0  0  0  0  0  0
    9.2822  -15.2119   24.2310 C   0  0  2  0  0  0  0  0  0  0  0  0
    9.1910  -15.9121   22.9655 N   0  0  0  0  0  0  0  0  0  0  0  0
    9.4640  -16.1462   25.3556 C   0  0  0  0  0  0  0  0  0  0  0  0
    9.7320  -15.6666   26.6141 O   0  0  0  0  0  0  0  0  0  0  0  0
    9.3751  -17.3742   25.1684 O   0  0  0  0  0  0  0  0  0  0  0  0
  2  1  1  6
  3  2  1  0
  4  8  1  0
  4  3  1  0
  5  4  2  0
  6  2  1  0
  7  6  2  0
  9  6  1  0
 10 14  1  0
 10  9  1  0
 10 11  1  6
 12 13  2  0
 12 11  1  0
 14 20  1  0
 15 14  2  0
 16 12  1  0
 18 17  1  0
 19 18  1  1
 19 21  1  0
 20 19  1  0
 21 23  2  0
 21 22  1  0
M  END
$$$$
