DDS.pdb
     RDKit          3D

 23 22  0  0  1  0  0  0  0  0999 V2000
   12.7948  -21.9607   23.4046 N   0  0  0  0  0  0  0  0  0  0  0  0
   11.6625  -22.1516   24.2891 C   0  0  1  0  0  0  0  0  0  0  0  0
   11.0253  -23.4929   24.0873 C   0  0  0  0  0  0  0  0  0  0  0  0
   10.7946  -23.7531   22.6656 C   0  0  0  0  0  0  0  0  0  0  0  0
   10.3829  -22.8266   21.9264 O   0  0  0  0  0  0  0  0  0  0  0  0
   12.1166  -21.9379   25.6838 C   0  0  0  0  0  0  0  0  0  0  0  0
   13.2646  -22.3286   26.0545 O   0  0  0  0  0  0  0  0  0  0  0  0
   11.0433  -25.0414   22.1710 O   0  0  0  0  0  0  0  0  0  0  0  0
   11.3222  -21.3004   26.6717 N   0  0  0  0  0  0  0  0  0  0  0  0
   11.7193  -21.0771   28.0410 C   0  0  1  0  0  0  0  0  0  0  0  0
   11.4935  -19.6780   28.5080 C   0  0  0  0  0  0  0  0  0  0  0  0
   12.0471  -19.4661   29.8648 C   0  0  0  0  0  0  0  0  0  0  0  0
   12.6771  -20.3742   30.4521 O   0  0  0  0  0  0  0  0  0  0  0  0
   11.1270  -22.0884   28.9559 C   0  0  0  0  0  0  0  0  0  0  0  0
    9.8810  -22.2274   28.9805 O   0  0  0  0  0  0  0  0  0  0  0  0
   11.9023  -18.2671   30.5542 O   0  0  0  0  0  0  0  0  0  0  0  0
   13.1267  -23.9992   32.0723 O   0  0  0  0  0  0  0  0  0  0  0  0
   12.3915  -24.8411   31.2511 C   0  0  0  0  0  0  0  0  0  0  0  0
   11.3317  -24.0124   30.5528 C   0  0  2  0  0  0  0  0  0  0  0  0
   11.9049  -22.9094   29.8080 N   0  0  0  0  0  0  0  0  0  0  0  0
   10.2840  -23.5533   31.4813 C   0  0  0  0  0  0  0  0  0  0  0  0
   10.0938  -22.2106   31.6971 O   0  0  0  0  0  0  0  0  0  0  0  0
    9.5673  -24.3819   32.0737 O   0  0  0  0  0  0  0  0  0  0  0  0
  2  1  1  6
  3  2  1  0
  4  8  1  0
  4  3  1  0
  5  4  2  0
  6  2  1  0
  7  6  2  0
  9  6  1  0
 10 14  1  0
 10  9  1  0
 10 11  1  1
 12 13  2  0
 12 11  1  0
 14 20  1  0
 15 14  2  0
 16 12  1  0
 18 17  1  0
 19 18  1  1
 19 21  1  0
 20 19  1  0
 21 23  2  0
 21 22  1  0
M  END
$$$$
