DDS.pdb
     RDKit          3D

 23 22  0  0  1  0  0  0  0  0999 V2000
   12.8128  -18.0519   16.6723 N   0  0  0  0  0  0  0  0  0  0  0  0
   11.4893  -17.8896   17.2405 C   0  0  1  0  0  0  0  0  0  0  0  0
   10.4767  -18.7352   16.5296 C   0  0  0  0  0  0  0  0  0  0  0  0
   10.3942  -18.3725   15.1141 C   0  0  0  0  0  0  0  0  0  0  0  0
   10.6432  -17.1940   14.7624 O   0  0  0  0  0  0  0  0  0  0  0  0
   11.5632  -18.1838   18.6912 C   0  0  0  0  0  0  0  0  0  0  0  0
   10.5236  -18.1230   19.4147 O   0  0  0  0  0  0  0  0  0  0  0  0
   10.0362  -19.3627   14.1881 O   0  0  0  0  0  0  0  0  0  0  0  0
   12.7665  -18.5434   19.3520 N   0  0  0  0  0  0  0  0  0  0  0  0
   12.8817  -18.8600   20.7552 C   0  0  1  0  0  0  0  0  0  0  0  0
   14.1701  -19.5213   21.1146 C   0  0  0  0  0  0  0  0  0  0  0  0
   14.3872  -20.7494   20.3163 C   0  0  0  0  0  0  0  0  0  0  0  0
   13.4585  -21.5666   20.1269 O   0  0  0  0  0  0  0  0  0  0  0  0
   12.5863  -17.6799   21.6100 C   0  0  0  0  0  0  0  0  0  0  0  0
   13.4852  -16.8255   21.7952 O   0  0  0  0  0  0  0  0  0  0  0  0
   15.6139  -21.0614   19.7403 O   0  0  0  0  0  0  0  0  0  0  0  0
    9.1742  -15.6886   22.0080 O   0  0  0  0  0  0  0  0  0  0  0  0
    9.6323  -16.0277   23.2724 C   0  0  0  0  0  0  0  0  0  0  0  0
   11.1014  -16.3842   23.1625 C   0  0  2  0  0  0  0  0  0  0  0  0
   11.3309  -17.4701   22.2308 N   0  0  0  0  0  0  0  0  0  0  0  0
   11.7061  -16.6609   24.4772 C   0  0  0  0  0  0  0  0  0  0  0  0
   11.6712  -15.7090   25.4663 O   0  0  0  0  0  0  0  0  0  0  0  0
   12.2509  -17.7593   24.6957 O   0  0  0  0  0  0  0  0  0  0  0  0
  2  1  1  6
  3  2  1  0
  4  8  1  0
  4  3  1  0
  5  4  2  0
  6  2  1  0
  7  6  2  0
  9  6  1  0
 10 14  1  0
 10  9  1  0
 10 11  1  6
 12 13  2  0
 12 11  1  0
 14 20  1  0
 15 14  2  0
 16 12  1  0
 18 17  1  0
 19 18  1  1
 19 21  1  0
 20 19  1  0
 21 23  2  0
 21 22  1  0
M  END
$$$$
