DDS.pdb
     RDKit          3D

 23 22  0  0  1  0  0  0  0  0999 V2000
    9.2648  -15.5212   19.8738 N   0  0  0  0  0  0  0  0  0  0  0  0
    7.8893  -15.3028   20.2752 C   0  0  1  0  0  0  0  0  0  0  0  0
    6.9350  -16.0751   19.4157 C   0  0  0  0  0  0  0  0  0  0  0  0
    7.5827  -16.5124   18.1783 C   0  0  0  0  0  0  0  0  0  0  0  0
    8.8060  -16.2902   18.0090 O   0  0  0  0  0  0  0  0  0  0  0  0
    7.7626  -15.6368   21.7137 C   0  0  0  0  0  0  0  0  0  0  0  0
    6.6539  -15.4956   22.3126 O   0  0  0  0  0  0  0  0  0  0  0  0
    6.8082  -17.1714   17.2129 O   0  0  0  0  0  0  0  0  0  0  0  0
    8.8408  -16.1234   22.4974 N   0  0  0  0  0  0  0  0  0  0  0  0
    8.7777  -16.4128   23.9098 C   0  0  1  0  0  0  0  0  0  0  0  0
    9.7487  -17.4568   24.3497 C   0  0  0  0  0  0  0  0  0  0  0  0
    9.6290  -17.7280   25.8004 C   0  0  0  0  0  0  0  0  0  0  0  0
   10.5366  -17.3938   26.5948 O   0  0  0  0  0  0  0  0  0  0  0  0
    8.8596  -15.1740   24.7279 C   0  0  0  0  0  0  0  0  0  0  0  0
    9.9275  -14.5168   24.7272 O   0  0  0  0  0  0  0  0  0  0  0  0
    8.5210  -18.3586   26.3559 O   0  0  0  0  0  0  0  0  0  0  0  0
    6.1562  -12.4572   25.0581 O   0  0  0  0  0  0  0  0  0  0  0  0
    6.5583  -12.7351   26.3561 C   0  0  0  0  0  0  0  0  0  0  0  0
    7.8790  -13.4762   26.2930 C   0  0  2  0  0  0  0  0  0  0  0  0
    7.7840  -14.6946   25.5143 N   0  0  0  0  0  0  0  0  0  0  0  0
    8.4380  -13.7307   27.6322 C   0  0  0  0  0  0  0  0  0  0  0  0
    8.8333  -14.9976   27.9851 O   0  0  0  0  0  0  0  0  0  0  0  0
    8.5539  -12.7975   28.4486 O   0  0  0  0  0  0  0  0  0  0  0  0
  2  1  1  6
  3  2  1  0
  4  8  1  0
  4  3  1  0
  5  4  2  0
  6  2  1  0
  7  6  2  0
  9  6  1  0
 10 14  1  0
 10  9  1  0
 10 11  1  1
 12 13  2  0
 12 11  1  0
 14 20  1  0
 15 14  2  0
 16 12  1  0
 18 17  1  0
 19 18  1  1
 19 21  1  0
 20 19  1  0
 21 23  2  0
 21 22  1  0
M  END
$$$$
