DDS.pdb
     RDKit          3D

 23 22  0  0  1  0  0  0  0  0999 V2000
   14.8277  -18.4842   16.4808 N   0  0  0  0  0  0  0  0  0  0  0  0
   13.8911  -17.5156   17.0151 C   0  0  1  0  0  0  0  0  0  0  0  0
   12.5380  -18.1207   17.2358 C   0  0  0  0  0  0  0  0  0  0  0  0
   11.9194  -18.4954   15.9634 C   0  0  0  0  0  0  0  0  0  0  0  0
   10.7794  -18.0561   15.6773 O   0  0  0  0  0  0  0  0  0  0  0  0
   14.4687  -16.9390   18.2524 C   0  0  0  0  0  0  0  0  0  0  0  0
   15.1463  -17.6612   19.0443 O   0  0  0  0  0  0  0  0  0  0  0  0
   12.6270  -19.3411   15.0973 O   0  0  0  0  0  0  0  0  0  0  0  0
   14.3085  -15.5794   18.6258 N   0  0  0  0  0  0  0  0  0  0  0  0
   14.8269  -14.9821   19.8328 C   0  0  1  0  0  0  0  0  0  0  0  0
   15.2582  -13.5642   19.6602 C   0  0  0  0  0  0  0  0  0  0  0  0
   16.4576  -13.4662   18.7975 C   0  0  0  0  0  0  0  0  0  0  0  0
   17.4628  -14.1813   19.0090 O   0  0  0  0  0  0  0  0  0  0  0  0
   13.8955  -15.1617   20.9777 C   0  0  0  0  0  0  0  0  0  0  0  0
   12.8302  -14.5006   21.0017 O   0  0  0  0  0  0  0  0  0  0  0  0
   16.5365  -12.5897   17.7208 O   0  0  0  0  0  0  0  0  0  0  0  0
   11.7489  -17.5426   21.9571 O   0  0  0  0  0  0  0  0  0  0  0  0
   12.4892  -17.5054   23.1294 C   0  0  0  0  0  0  0  0  0  0  0  0
   13.2430  -16.1911   23.1705 C   0  0  2  0  0  0  0  0  0  0  0  0
   14.1523  -16.0487   22.0513 N   0  0  0  0  0  0  0  0  0  0  0  0
   13.9303  -15.9845   24.4572 C   0  0  0  0  0  0  0  0  0  0  0  0
   13.2059  -15.9046   25.6210 O   0  0  0  0  0  0  0  0  0  0  0  0
   15.1709  -15.8817   24.4934 O   0  0  0  0  0  0  0  0  0  0  0  0
  2  1  1  1
  3  2  1  0
  4  8  1  0
  4  3  1  0
  5  4  2  0
  6  2  1  0
  7  6  2  0
  9  6  1  0
 10 14  1  0
 10  9  1  0
 10 11  1  6
 12 13  2  0
 12 11  1  0
 14 20  1  0
 15 14  2  0
 16 12  1  0
 18 17  1  0
 19 18  1  1
 19 21  1  0
 20 19  1  0
 21 23  2  0
 21 22  1  0
M  END
$$$$
