DDS.pdb
     RDKit          3D

 23 22  0  0  1  0  0  0  0  0999 V2000
   12.3594  -15.0082   17.4891 N   0  0  0  0  0  0  0  0  0  0  0  0
   12.8155  -15.4891   18.7781 C   0  0  1  0  0  0  0  0  0  0  0  0
   13.7646  -14.5245   19.4220 C   0  0  0  0  0  0  0  0  0  0  0  0
   15.0577  -14.5274   18.7366 C   0  0  0  0  0  0  0  0  0  0  0  0
   15.8790  -15.4468   18.9701 O   0  0  0  0  0  0  0  0  0  0  0  0
   11.6282  -15.7714   19.6193 C   0  0  0  0  0  0  0  0  0  0  0  0
   10.6829  -14.9303   19.7024 O   0  0  0  0  0  0  0  0  0  0  0  0
   15.3396  -13.4932   17.8327 O   0  0  0  0  0  0  0  0  0  0  0  0
   11.4713  -16.9667   20.3678 N   0  0  0  0  0  0  0  0  0  0  0  0
   10.3491  -17.2711   21.2225 C   0  0  1  0  0  0  0  0  0  0  0  0
    9.8427  -18.6663   21.0692 C   0  0  0  0  0  0  0  0  0  0  0  0
    8.6257  -18.8909   21.8822 C   0  0  0  0  0  0  0  0  0  0  0  0
    8.1446  -17.9755   22.5873 O   0  0  0  0  0  0  0  0  0  0  0  0
   10.6259  -16.9152   22.6392 C   0  0  0  0  0  0  0  0  0  0  0  0
   11.7681  -17.1357   23.1074 O   0  0  0  0  0  0  0  0  0  0  0  0
    7.9575  -20.1102   21.9098 O   0  0  0  0  0  0  0  0  0  0  0  0
    8.7076  -14.0627   24.5777 O   0  0  0  0  0  0  0  0  0  0  0  0
    8.9135  -15.0934   25.4827 C   0  0  0  0  0  0  0  0  0  0  0  0
    9.9293  -16.0482   24.8880 C   0  0  2  0  0  0  0  0  0  0  0  0
    9.6573  -16.3350   23.4938 N   0  0  0  0  0  0  0  0  0  0  0  0
   10.0611  -17.2836   25.6799 C   0  0  0  0  0  0  0  0  0  0  0  0
   10.3518  -17.2158   27.0203 O   0  0  0  0  0  0  0  0  0  0  0  0
    9.9091  -18.3936   25.1361 O   0  0  0  0  0  0  0  0  0  0  0  0
  2  1  1  6
  3  2  1  0
  4  8  1  0
  4  3  1  0
  5  4  2  0
  6  2  1  0
  7  6  2  0
  9  6  1  0
 10 14  1  0
 10  9  1  0
 10 11  1  1
 12 13  2  0
 12 11  1  0
 14 20  1  0
 15 14  2  0
 16 12  1  0
 18 17  1  0
 19 18  1  1
 19 21  1  0
 20 19  1  0
 21 23  2  0
 21 22  1  0
M  END
$$$$
