MLW.pdb
     RDKit          3D

 31 32  0  0  1  0  0  0  0  0999 V2000
   20.0900  -16.6136  -19.3184 C   0  0  0  0  0  0  0  0  0  0  0  0
   21.1964  -17.9440  -18.8301 S   0  0  0  0  0  0  0  0  0  0  0  0
   22.9482  -17.4741  -19.0916 C   0  0  0  0  0  0  0  0  0  0  0  0
   23.7750  -18.6530  -18.6888 C   0  0  0  0  0  0  0  0  0  0  0  0
   23.9731  -18.8099  -17.2178 C   0  0  2  0  0  0  0  0  0  0  0  0
   24.2721  -17.5841  -16.5424 N   0  0  0  0  0  0  0  0  0  0  0  0
   24.9109  -19.9162  -16.8541 C   0  0  0  0  0  0  0  0  0  0  0  0
   24.7711  -21.0112  -17.4023 O   0  0  0  0  0  0  0  0  0  0  0  0
   28.9810  -19.2481  -17.2555 C   0  0  0  0  0  0  0  0  0  0  0  0
   28.6866  -18.9049  -15.7723 C   0  0  2  0  0  0  0  0  0  0  0  0
   30.0727  -18.5264  -15.2105 C   0  0  0  0  0  0  0  0  0  0  0  0
   28.2891  -20.1631  -15.1176 C   0  0  0  0  0  0  0  0  0  0  0  0
   26.9036  -20.6608  -15.4329 C   0  0  2  0  0  0  0  0  0  0  0  0
   25.9437  -19.7486  -15.9096 N   0  0  0  0  0  0  0  0  0  0  0  0
   26.4438  -21.6920  -14.4950 C   0  0  0  0  0  0  0  0  0  0  0  0
   27.2052  -22.6521  -14.1244 O   0  0  0  0  0  0  0  0  0  0  0  0
   25.1402  -21.7115  -13.9297 N   0  0  0  0  0  0  0  0  0  0  0  0
   24.8885  -21.8664  -12.4823 C   0  0  1  0  0  0  0  0  0  0  0  0
   26.1671  -21.9576  -11.7403 C   0  0  0  0  0  0  0  0  0  0  0  0
   26.1353  -21.3085  -10.4274 C   0  0  0  0  0  0  0  0  0  0  0  0
   25.0623  -20.6946   -9.7843 C   0  0  0  0  0  0  0  0  0  0  0  0
   25.4451  -20.1924   -8.6065 N   0  0  0  0  0  0  0  0  0  0  0  0
   26.7527  -20.4529   -8.4383 C   0  0  0  0  0  0  0  0  0  0  0  0
   27.5959  -20.1468   -7.3714 C   0  0  0  0  0  0  0  0  0  0  0  0
   28.9247  -20.5305   -7.3952 C   0  0  0  0  0  0  0  0  0  0  0  0
   29.3572  -21.2115   -8.4976 C   0  0  0  0  0  0  0  0  0  0  0  0
   28.5333  -21.5127   -9.5454 C   0  0  0  0  0  0  0  0  0  0  0  0
   27.2134  -21.1449   -9.5495 C   0  0  0  0  0  0  0  0  0  0  0  0
   23.8699  -20.9412  -12.0230 C   0  0  0  0  0  0  0  0  0  0  0  0
   23.7998  -19.7800  -12.5404 O   0  0  0  0  0  0  0  0  0  0  0  0
   22.9235  -21.2041  -11.0438 O   0  0  0  0  0  0  0  0  0  0  0  0
  1  2  1  0
  2  3  1  0
  4  3  1  0
  5  6  1  6
  5  4  1  0
  7  8  2  0
  7  5  1  0
 10  9  1  6
 10 11  1  0
 10 12  1  0
 13 12  1  1
 13 14  1  0
 14  7  1  0
 15 13  1  0
 16 15  2  0
 17 15  1  0
 18 29  1  0
 18 17  1  0
 18 19  1  1
 20 19  1  0
 20 28  1  0
 21 22  1  0
 21 20  2  0
 22 23  1  0
 23 28  2  0
 23 24  1  0
 24 25  2  0
 25 26  1  0
 27 26  2  0
 28 27  1  0
 29 31  1  0
 30 29  2  0
M  END
$$$$
