MLW.pdb
     RDKit          3D

 31 32  0  0  1  0  0  0  0  0999 V2000
   32.8826  -23.8078  -12.4728 C   0  0  0  0  0  0  0  0  0  0  0  0
   33.5324  -25.1246  -13.5103 S   0  0  0  0  0  0  0  0  0  0  0  0
   33.0122  -24.9077  -15.2538 C   0  0  0  0  0  0  0  0  0  0  0  0
   31.7457  -24.1132  -15.2297 C   0  0  0  0  0  0  0  0  0  0  0  0
   31.0951  -23.9252  -16.5598 C   0  0  2  0  0  0  0  0  0  0  0  0
   32.0223  -23.7406  -17.6342 N   0  0  0  0  0  0  0  0  0  0  0  0
   30.0033  -22.9036  -16.5537 C   0  0  0  0  0  0  0  0  0  0  0  0
   30.3035  -21.7214  -16.3767 O   0  0  0  0  0  0  0  0  0  0  0  0
   24.3049  -22.1230  -18.7917 C   0  0  0  0  0  0  0  0  0  0  0  0
   25.3038  -21.6802  -17.6915 C   0  0  2  0  0  0  0  0  0  0  0  0
   25.7846  -20.2979  -18.1798 C   0  0  0  0  0  0  0  0  0  0  0  0
   26.4593  -22.5896  -17.7781 C   0  0  0  0  0  0  0  0  0  0  0  0
   27.4886  -22.4528  -16.6878 C   0  0  2  0  0  0  0  0  0  0  0  0
   28.6493  -23.2468  -16.7426 N   0  0  0  0  0  0  0  0  0  0  0  0
   26.8897  -22.2275  -15.3668 C   0  0  0  0  0  0  0  0  0  0  0  0
   26.5164  -23.2002  -14.6227 O   0  0  0  0  0  0  0  0  0  0  0  0
   26.6780  -20.9363  -14.8125 N   0  0  0  0  0  0  0  0  0  0  0  0
   26.1497  -20.7176  -13.4504 C   0  0  1  0  0  0  0  0  0  0  0  0
   26.8291  -19.5685  -12.8089 C   0  0  0  0  0  0  0  0  0  0  0  0
   27.7313  -19.9494  -11.7193 C   0  0  0  0  0  0  0  0  0  0  0  0
   29.0958  -20.2266  -11.7741 C   0  0  0  0  0  0  0  0  0  0  0  0
   29.5551  -20.5669  -10.5661 N   0  0  0  0  0  0  0  0  0  0  0  0
   28.5323  -20.5259   -9.6955 C   0  0  0  0  0  0  0  0  0  0  0  0
   28.5127  -20.7822   -8.3255 C   0  0  0  0  0  0  0  0  0  0  0  0
   27.3373  -20.6612   -7.6061 C   0  0  0  0  0  0  0  0  0  0  0  0
   26.2200  -20.2849   -8.2961 C   0  0  0  0  0  0  0  0  0  0  0  0
   26.2358  -20.0336   -9.6393 C   0  0  0  0  0  0  0  0  0  0  0  0
   27.3848  -20.1459  -10.3773 C   0  0  0  0  0  0  0  0  0  0  0  0
   24.7007  -20.7819  -13.4310 C   0  0  0  0  0  0  0  0  0  0  0  0
   24.0566  -20.7208  -14.5277 O   0  0  0  0  0  0  0  0  0  0  0  0
   23.9139  -20.9143  -12.2965 O   0  0  0  0  0  0  0  0  0  0  0  0
  1  2  1  0
  2  3  1  0
  4  3  1  0
  5  6  1  6
  5  4  1  0
  7  8  2  0
  7  5  1  0
 10  9  1  6
 10 11  1  0
 10 12  1  0
 13 12  1  6
 13 14  1  0
 14  7  1  0
 15 13  1  0
 16 15  2  0
 17 15  1  0
 18 29  1  0
 18 17  1  0
 18 19  1  6
 20 19  1  0
 20 28  1  0
 21 22  1  0
 21 20  2  0
 22 23  1  0
 23 28  2  0
 23 24  1  0
 24 25  2  0
 25 26  1  0
 27 26  2  0
 28 27  1  0
 29 31  1  0
 30 29  2  0
M  END
$$$$
