MLW.pdb
     RDKit          3D

 31 32  0  0  1  0  0  0  0  0999 V2000
   17.9788  -21.2226   -0.2192 C   0  0  0  0  0  0  0  0  0  0  0  0
   17.7284  -19.9461    1.0219 S   0  0  0  0  0  0  0  0  0  0  0  0
   16.2035  -20.2571    1.9893 C   0  0  0  0  0  0  0  0  0  0  0  0
   16.0874  -19.1433    2.9800 C   0  0  0  0  0  0  0  0  0  0  0  0
   16.0402  -19.5738    4.4084 C   0  0  2  0  0  0  0  0  0  0  0  0
   14.9679  -20.4742    4.7041 N   0  0  0  0  0  0  0  0  0  0  0  0
   16.1301  -18.4401    5.3792 C   0  0  0  0  0  0  0  0  0  0  0  0
   16.2608  -17.2964    4.9389 O   0  0  0  0  0  0  0  0  0  0  0  0
   13.0960  -17.0251    8.6778 C   0  0  0  0  0  0  0  0  0  0  0  0
   13.9084  -18.3372    8.8287 C   0  0  2  0  0  0  0  0  0  0  0  0
   13.3838  -18.9330   10.1515 C   0  0  0  0  0  0  0  0  0  0  0  0
   15.3084  -17.9436    9.0628 C   0  0  0  0  0  0  0  0  0  0  0  0
   16.1418  -17.7095    7.8310 C   0  0  2  0  0  0  0  0  0  0  0  0
   16.0709  -18.6359    6.7738 N   0  0  0  0  0  0  0  0  0  0  0  0
   17.4586  -17.1377    8.1367 C   0  0  0  0  0  0  0  0  0  0  0  0
   18.4892  -17.8771    8.3106 O   0  0  0  0  0  0  0  0  0  0  0  0
   17.6966  -15.7425    8.2628 N   0  0  0  0  0  0  0  0  0  0  0  0
   19.0325  -15.1706    8.5290 C   0  0  1  0  0  0  0  0  0  0  0  0
   19.8792  -15.2441    7.3160 C   0  0  0  0  0  0  0  0  0  0  0  0
   19.7112  -14.1059    6.4091 C   0  0  0  0  0  0  0  0  0  0  0  0
   20.2691  -12.8320    6.4965 C   0  0  0  0  0  0  0  0  0  0  0  0
   19.8479  -12.0642    5.4870 N   0  0  0  0  0  0  0  0  0  0  0  0
   19.0180  -12.7900    4.7187 C   0  0  0  0  0  0  0  0  0  0  0  0
   18.3419  -12.4380    3.5516 C   0  0  0  0  0  0  0  0  0  0  0  0
   17.5410  -13.3587    2.9002 C   0  0  0  0  0  0  0  0  0  0  0  0
   17.4501  -14.6057    3.4506 C   0  0  0  0  0  0  0  0  0  0  0  0
   18.1111  -14.9537    4.5949 C   0  0  0  0  0  0  0  0  0  0  0  0
   18.9105  -14.0626    5.2616 C   0  0  0  0  0  0  0  0  0  0  0  0
   18.9338  -13.9137    9.2463 C   0  0  0  0  0  0  0  0  0  0  0  0
   17.8131  -13.3120    9.3039 O   0  0  0  0  0  0  0  0  0  0  0  0
   19.9744  -13.2778    9.9070 O   0  0  0  0  0  0  0  0  0  0  0  0
  1  2  1  0
  2  3  1  0
  4  3  1  0
  5  6  1  6
  5  4  1  0
  7  8  2  0
  7  5  1  0
 10  9  1  1
 10 11  1  0
 10 12  1  0
 13 12  1  1
 13 14  1  0
 14  7  1  0
 15 13  1  0
 16 15  2  0
 17 15  1  0
 18 29  1  0
 18 17  1  0
 18 19  1  6
 20 19  1  0
 20 28  1  0
 21 22  1  0
 21 20  2  0
 22 23  1  0
 23 28  2  0
 23 24  1  0
 24 25  2  0
 25 26  1  0
 27 26  2  0
 28 27  1  0
 29 31  1  0
 30 29  2  0
M  END
$$$$
