MLW.pdb
     RDKit          3D

 31 32  0  0  1  0  0  0  0  0999 V2000
   34.6306  -24.1982  -10.9237 C   0  0  0  0  0  0  0  0  0  0  0  0
   32.9945  -23.5303  -11.2551 S   0  0  0  0  0  0  0  0  0  0  0  0
   32.8760  -21.7813  -10.7215 C   0  0  0  0  0  0  0  0  0  0  0  0
   31.4552  -21.3635  -10.9279 C   0  0  0  0  0  0  0  0  0  0  0  0
   30.9846  -21.4104  -12.3436 C   0  0  2  0  0  0  0  0  0  0  0  0
   32.0194  -21.1733  -13.3032 N   0  0  0  0  0  0  0  0  0  0  0  0
   29.7606  -20.5895  -12.5956 C   0  0  0  0  0  0  0  0  0  0  0  0
   29.8207  -19.3716  -12.4165 O   0  0  0  0  0  0  0  0  0  0  0  0
   28.1414  -17.7369  -15.7780 C   0  0  0  0  0  0  0  0  0  0  0  0
   28.3881  -19.0950  -15.0716 C   0  0  2  0  0  0  0  0  0  0  0  0
   28.1773  -20.1279  -16.1980 C   0  0  0  0  0  0  0  0  0  0  0  0
   27.2863  -19.2789  -14.1115 C   0  0  0  0  0  0  0  0  0  0  0  0
   27.3076  -20.5606  -13.3218 C   0  0  2  0  0  0  0  0  0  0  0  0
   28.5467  -21.1602  -13.0288 N   0  0  0  0  0  0  0  0  0  0  0  0
   26.1914  -21.4528  -13.6573 C   0  0  0  0  0  0  0  0  0  0  0  0
   25.8990  -21.7373  -14.8708 O   0  0  0  0  0  0  0  0  0  0  0  0
   25.3574  -22.0646  -12.6830 N   0  0  0  0  0  0  0  0  0  0  0  0
   25.1149  -21.4840  -11.3464 C   0  0  1  0  0  0  0  0  0  0  0  0
   26.3980  -21.1670  -10.6780 C   0  0  0  0  0  0  0  0  0  0  0  0
   26.2403  -20.5923   -9.3397 C   0  0  0  0  0  0  0  0  0  0  0  0
   25.0794  -20.1368   -8.7180 C   0  0  0  0  0  0  0  0  0  0  0  0
   25.3554  -19.6542   -7.5027 N   0  0  0  0  0  0  0  0  0  0  0  0
   26.6767  -19.7733   -7.2883 C   0  0  0  0  0  0  0  0  0  0  0  0
   27.4366  -19.4275   -6.1720 C   0  0  0  0  0  0  0  0  0  0  0  0
   28.8007  -19.6568   -6.1539 C   0  0  0  0  0  0  0  0  0  0  0  0
   29.3516  -20.2284   -7.2656 C   0  0  0  0  0  0  0  0  0  0  0  0
   28.6095  -20.5679   -8.3617 C   0  0  0  0  0  0  0  0  0  0  0  0
   27.2572  -20.3520   -8.4081 C   0  0  0  0  0  0  0  0  0  0  0  0
   24.0739  -20.4747  -11.3917 C   0  0  0  0  0  0  0  0  0  0  0  0
   22.9518  -20.7074  -10.8369 O   0  0  0  0  0  0  0  0  0  0  0  0
   24.1817  -19.2310  -11.9959 O   0  0  0  0  0  0  0  0  0  0  0  0
  1  2  1  0
  2  3  1  0
  4  3  1  0
  5  6  1  6
  5  4  1  0
  7  8  2  0
  7  5  1  0
 10  9  1  6
 10 11  1  0
 10 12  1  0
 13 12  1  6
 13 14  1  0
 14  7  1  0
 15 13  1  0
 16 15  2  0
 17 15  1  0
 18 29  1  0
 18 17  1  0
 18 19  1  6
 20 19  1  0
 20 28  1  0
 21 22  1  0
 21 20  2  0
 22 23  1  0
 23 28  2  0
 23 24  1  0
 24 25  2  0
 25 26  1  0
 27 26  2  0
 28 27  1  0
 29 31  1  0
 30 29  2  0
M  END
$$$$
