MLW.pdb
     RDKit          3D

 31 32  0  0  1  0  0  0  0  0999 V2000
   19.8020  -20.2909  -15.2072 C   0  0  0  0  0  0  0  0  0  0  0  0
   20.0818  -18.7317  -16.0577 S   0  0  0  0  0  0  0  0  0  0  0  0
   21.8412  -18.2306  -15.9537 C   0  0  0  0  0  0  0  0  0  0  0  0
   22.5544  -19.3141  -15.2100 C   0  0  0  0  0  0  0  0  0  0  0  0
   23.6928  -18.8519  -14.3626 C   0  0  2  0  0  0  0  0  0  0  0  0
   24.5448  -17.9018  -15.0101 N   0  0  0  0  0  0  0  0  0  0  0  0
   24.4520  -19.9675  -13.7186 C   0  0  0  0  0  0  0  0  0  0  0  0
   23.8594  -21.0208  -13.4765 O   0  0  0  0  0  0  0  0  0  0  0  0
   28.2553  -21.2686  -15.3702 C   0  0  0  0  0  0  0  0  0  0  0  0
   28.5315  -20.1532  -14.3292 C   0  0  2  0  0  0  0  0  0  0  0  0
   30.0693  -20.0306  -14.3352 C   0  0  0  0  0  0  0  0  0  0  0  0
   28.1513  -20.6978  -13.0145 C   0  0  0  0  0  0  0  0  0  0  0  0
   26.6744  -20.7588  -12.7286 C   0  0  2  0  0  0  0  0  0  0  0  0
   25.8159  -19.8543  -13.3810 N   0  0  0  0  0  0  0  0  0  0  0  0
   26.3803  -21.0719  -11.3251 C   0  0  0  0  0  0  0  0  0  0  0  0
   26.8436  -22.1224  -10.7587 O   0  0  0  0  0  0  0  0  0  0  0  0
   25.5726  -20.2515  -10.4921 N   0  0  0  0  0  0  0  0  0  0  0  0
   25.1967  -20.6215   -9.1122 C   0  0  1  0  0  0  0  0  0  0  0  0
   25.8754  -19.7390   -8.1354 C   0  0  0  0  0  0  0  0  0  0  0  0
   27.2317  -20.1727   -7.7909 C   0  0  0  0  0  0  0  0  0  0  0  0
   28.1633  -20.8361   -8.5870 C   0  0  0  0  0  0  0  0  0  0  0  0
   29.2801  -21.0840   -7.8962 N   0  0  0  0  0  0  0  0  0  0  0  0
   29.1251  -20.6030   -6.6510 C   0  0  0  0  0  0  0  0  0  0  0  0
   30.0101  -20.6063   -5.5740 C   0  0  0  0  0  0  0  0  0  0  0  0
   29.6496  -20.0318   -4.3684 C   0  0  0  0  0  0  0  0  0  0  0  0
   28.4056  -19.4726   -4.2915 C   0  0  0  0  0  0  0  0  0  0  0  0
   27.5355  -19.4683   -5.3452 C   0  0  0  0  0  0  0  0  0  0  0  0
   27.8650  -20.0303   -6.5506 C   0  0  0  0  0  0  0  0  0  0  0  0
   23.7669  -20.8363   -8.9956 C   0  0  0  0  0  0  0  0  0  0  0  0
   23.0111  -20.5709   -9.9853 O   0  0  0  0  0  0  0  0  0  0  0  0
   23.1133  -21.3258   -7.8745 O   0  0  0  0  0  0  0  0  0  0  0  0
  1  2  1  0
  2  3  1  0
  4  3  1  0
  5  6  1  6
  5  4  1  0
  7  8  2  0
  7  5  1  0
 10  9  1  6
 10 11  1  0
 10 12  1  0
 13 12  1  1
 13 14  1  0
 14  7  1  0
 15 13  1  0
 16 15  2  0
 17 15  1  0
 18 29  1  0
 18 17  1  0
 18 19  1  1
 20 19  1  0
 20 28  1  0
 21 22  1  0
 21 20  2  0
 22 23  1  0
 23 28  2  0
 23 24  1  0
 24 25  2  0
 25 26  1  0
 27 26  2  0
 28 27  1  0
 29 31  1  0
 30 29  2  0
M  END
$$$$
