MLW.pdb
     RDKit          3D

 31 32  0  0  1  0  0  0  0  0999 V2000
   20.6513  -15.9441  -14.9618 C   0  0  0  0  0  0  0  0  0  0  0  0
   19.9495  -15.4207  -16.5322 S   0  0  0  0  0  0  0  0  0  0  0  0
   21.1586  -15.6220  -17.8944 C   0  0  0  0  0  0  0  0  0  0  0  0
   22.1580  -16.6356  -17.4368 C   0  0  0  0  0  0  0  0  0  0  0  0
   23.3181  -16.8348  -18.3547 C   0  0  2  0  0  0  0  0  0  0  0  0
   22.9452  -17.0119  -19.7249 N   0  0  0  0  0  0  0  0  0  0  0  0
   24.2878  -17.8688  -17.8791 C   0  0  0  0  0  0  0  0  0  0  0  0
   24.0516  -19.0539  -18.1215 O   0  0  0  0  0  0  0  0  0  0  0  0
   29.8168  -16.8270  -17.2892 C   0  0  0  0  0  0  0  0  0  0  0  0
   28.6693  -17.8349  -17.5572 C   0  0  2  0  0  0  0  0  0  0  0  0
   27.8595  -17.1637  -18.6858 C   0  0  0  0  0  0  0  0  0  0  0  0
   27.8144  -17.8316  -16.3577 C   0  0  0  0  0  0  0  0  0  0  0  0
   26.4154  -18.3558  -16.5443 C   0  0  2  0  0  0  0  0  0  0  0  0
   25.4568  -17.5340  -17.1662 N   0  0  0  0  0  0  0  0  0  0  0  0
   25.9637  -19.1819  -15.4183 C   0  0  0  0  0  0  0  0  0  0  0  0
   26.6915  -20.1185  -14.9366 O   0  0  0  0  0  0  0  0  0  0  0  0
   24.7054  -19.0152  -14.7796 N   0  0  0  0  0  0  0  0  0  0  0  0
   24.2860  -19.8012  -13.6011 C   0  0  1  0  0  0  0  0  0  0  0  0
   24.3661  -18.9774  -12.3729 C   0  0  0  0  0  0  0  0  0  0  0  0
   23.9860  -19.6961  -11.1543 C   0  0  0  0  0  0  0  0  0  0  0  0
   24.7949  -20.4226  -10.2826 C   0  0  0  0  0  0  0  0  0  0  0  0
   24.0648  -20.9567   -9.2989 N   0  0  0  0  0  0  0  0  0  0  0  0
   22.7805  -20.6076   -9.4852 C   0  0  0  0  0  0  0  0  0  0  0  0
   21.6526  -20.9057   -8.7223 C   0  0  0  0  0  0  0  0  0  0  0  0
   20.4097  -20.4222   -9.0895 C   0  0  0  0  0  0  0  0  0  0  0  0
   20.3482  -19.6526  -10.2165 C   0  0  0  0  0  0  0  0  0  0  0  0
   21.4520  -19.3590  -10.9668 C   0  0  0  0  0  0  0  0  0  0  0  0
   22.6952  -19.8245  -10.6278 C   0  0  0  0  0  0  0  0  0  0  0  0
   23.0731  -20.5495  -13.8718 C   0  0  0  0  0  0  0  0  0  0  0  0
   22.1590  -20.0234  -14.5850 O   0  0  0  0  0  0  0  0  0  0  0  0
   22.7986  -21.8319  -13.4206 O   0  0  0  0  0  0  0  0  0  0  0  0
  1  2  1  0
  2  3  1  0
  4  3  1  0
  5  6  1  6
  5  4  1  0
  7  8  2  0
  7  5  1  0
 10  9  1  1
 10 11  1  0
 10 12  1  0
 13 12  1  1
 13 14  1  0
 14  7  1  0
 15 13  1  0
 16 15  2  0
 17 15  1  0
 18 29  1  0
 18 17  1  0
 18 19  1  1
 20 19  1  0
 20 28  1  0
 21 22  1  0
 21 20  2  0
 22 23  1  0
 23 28  2  0
 23 24  1  0
 24 25  2  0
 25 26  1  0
 27 26  2  0
 28 27  1  0
 29 31  1  0
 30 29  2  0
M  END
$$$$
