MLW.pdb
     RDKit          3D

 31 32  0  0  1  0  0  0  0  0999 V2000
   26.7850  -22.0444  -17.6508 C   0  0  0  0  0  0  0  0  0  0  0  0
   27.4751  -20.4706  -17.1222 S   0  0  0  0  0  0  0  0  0  0  0  0
   28.9270  -20.7202  -16.0323 C   0  0  0  0  0  0  0  0  0  0  0  0
   28.4130  -21.3124  -14.7593 C   0  0  0  0  0  0  0  0  0  0  0  0
   27.4488  -20.4541  -14.0099 C   0  0  2  0  0  0  0  0  0  0  0  0
   27.9562  -19.1524  -13.6998 N   0  0  0  0  0  0  0  0  0  0  0  0
   26.8345  -21.1339  -12.8283 C   0  0  0  0  0  0  0  0  0  0  0  0
   26.3927  -22.2758  -12.9693 O   0  0  0  0  0  0  0  0  0  0  0  0
   27.6932  -20.1348   -7.1951 C   0  0  0  0  0  0  0  0  0  0  0  0
   27.3940  -20.9052   -8.5071 C   0  0  2  0  0  0  0  0  0  0  0  0
   28.6101  -20.5795   -9.3988 C   0  0  0  0  0  0  0  0  0  0  0  0
   26.2256  -20.2537   -9.1234 C   0  0  0  0  0  0  0  0  0  0  0  0
   25.8520  -20.7361  -10.4998 C   0  0  2  0  0  0  0  0  0  0  0  0
   26.7444  -20.5145  -11.5653 N   0  0  0  0  0  0  0  0  0  0  0  0
   24.4188  -20.5924  -10.7822 C   0  0  0  0  0  0  0  0  0  0  0  0
   23.7170  -19.6659  -10.2456 O   0  0  0  0  0  0  0  0  0  0  0  0
   23.7029  -21.4525  -11.6580 N   0  0  0  0  0  0  0  0  0  0  0  0
   22.6656  -20.9723  -12.5939 C   0  0  1  0  0  0  0  0  0  0  0  0
   23.1379  -19.7707  -13.3197 C   0  0  0  0  0  0  0  0  0  0  0  0
   22.1506  -19.2167  -14.2494 C   0  0  0  0  0  0  0  0  0  0  0  0
   20.7822  -19.0332  -14.0604 C   0  0  0  0  0  0  0  0  0  0  0  0
   20.2197  -18.5251  -15.1611 N   0  0  0  0  0  0  0  0  0  0  0  0
   21.1767  -18.3604  -16.0901 C   0  0  0  0  0  0  0  0  0  0  0  0
   21.0884  -17.8524  -17.3851 C   0  0  0  0  0  0  0  0  0  0  0  0
   22.2178  -17.7519  -18.1775 C   0  0  0  0  0  0  0  0  0  0  0  0
   23.3998  -18.1685  -17.6340 C   0  0  0  0  0  0  0  0  0  0  0  0
   23.4896  -18.6676  -16.3650 C   0  0  0  0  0  0  0  0  0  0  0  0
   22.3880  -18.7794  -15.5579 C   0  0  0  0  0  0  0  0  0  0  0  0
   22.0863  -22.0693  -13.3457 C   0  0  0  0  0  0  0  0  0  0  0  0
   20.8198  -22.1756  -13.4227 O   0  0  0  0  0  0  0  0  0  0  0  0
   22.7983  -23.0495  -14.0209 O   0  0  0  0  0  0  0  0  0  0  0  0
  1  2  1  0
  2  3  1  0
  4  3  1  0
  5  6  1  1
  5  4  1  0
  7  8  2  0
  7  5  1  0
 10  9  1  1
 10 11  1  0
 10 12  1  0
 13 12  1  1
 13 14  1  0
 14  7  1  0
 15 13  1  0
 16 15  2  0
 17 15  1  0
 18 29  1  0
 18 17  1  0
 18 19  1  6
 20 19  1  0
 20 28  1  0
 21 22  1  0
 21 20  2  0
 22 23  1  0
 23 28  2  0
 23 24  1  0
 24 25  2  0
 25 26  1  0
 27 26  2  0
 28 27  1  0
 29 31  1  0
 30 29  2  0
M  END
$$$$
