MLW.pdb
     RDKit          3D

 31 32  0  0  1  0  0  0  0  0999 V2000
   25.9179  -17.0252  -15.3027 C   0  0  0  0  0  0  0  0  0  0  0  0
   27.6223  -17.5384  -15.5562 S   0  0  0  0  0  0  0  0  0  0  0  0
   27.7401  -19.3555  -15.7614 C   0  0  0  0  0  0  0  0  0  0  0  0
   27.0682  -19.9673  -14.5740 C   0  0  0  0  0  0  0  0  0  0  0  0
   27.9065  -20.9337  -13.8049 C   0  0  2  0  0  0  0  0  0  0  0  0
   28.4558  -21.9848  -14.6057 N   0  0  0  0  0  0  0  0  0  0  0  0
   27.2508  -21.4360  -12.5586 C   0  0  0  0  0  0  0  0  0  0  0  0
   26.3795  -22.3019  -12.6591 O   0  0  0  0  0  0  0  0  0  0  0  0
   25.8086  -19.4018   -7.6301 C   0  0  0  0  0  0  0  0  0  0  0  0
   26.7520  -20.6310   -7.5732 C   0  0  2  0  0  0  0  0  0  0  0  0
   27.6915  -20.3069   -6.3931 C   0  0  0  0  0  0  0  0  0  0  0  0
   27.5725  -20.5917   -8.7958 C   0  0  0  0  0  0  0  0  0  0  0  0
   26.8676  -20.9590  -10.0744 C   0  0  2  0  0  0  0  0  0  0  0  0
   27.5948  -20.9540  -11.2794 N   0  0  0  0  0  0  0  0  0  0  0  0
   25.4850  -20.4685  -10.1215 C   0  0  0  0  0  0  0  0  0  0  0  0
   25.1889  -19.2606   -9.8176 O   0  0  0  0  0  0  0  0  0  0  0  0
   24.3796  -21.2767  -10.5012 N   0  0  0  0  0  0  0  0  0  0  0  0
   23.2220  -20.7594  -11.2594 C   0  0  1  0  0  0  0  0  0  0  0  0
   23.6764  -19.9054  -12.3810 C   0  0  0  0  0  0  0  0  0  0  0  0
   22.5974  -19.4883  -13.2799 C   0  0  0  0  0  0  0  0  0  0  0  0
   21.4011  -18.8461  -12.9666 C   0  0  0  0  0  0  0  0  0  0  0  0
   20.6643  -18.6624  -14.0663 N   0  0  0  0  0  0  0  0  0  0  0  0
   21.3352  -19.1656  -15.1163 C   0  0  0  0  0  0  0  0  0  0  0  0
   20.9893  -19.1992  -16.4662 C   0  0  0  0  0  0  0  0  0  0  0  0
   21.8479  -19.7568  -17.3965 C   0  0  0  0  0  0  0  0  0  0  0  0
   23.0286  -20.2622  -16.9309 C   0  0  0  0  0  0  0  0  0  0  0  0
   23.3703  -20.2313  -15.6082 C   0  0  0  0  0  0  0  0  0  0  0  0
   22.5397  -19.6862  -14.6646 C   0  0  0  0  0  0  0  0  0  0  0  0
   22.2511  -21.8059  -11.5169 C   0  0  0  0  0  0  0  0  0  0  0  0
   22.6555  -22.9728  -11.8267 O   0  0  0  0  0  0  0  0  0  0  0  0
   20.8731  -21.6618  -11.4519 O   0  0  0  0  0  0  0  0  0  0  0  0
  1  2  1  0
  2  3  1  0
  4  3  1  0
  5  6  1  6
  5  4  1  0
  7  8  2  0
  7  5  1  0
 10  9  1  6
 10 11  1  0
 10 12  1  0
 13 12  1  1
 13 14  1  0
 14  7  1  0
 15 13  1  0
 16 15  2  0
 17 15  1  0
 18 29  1  0
 18 17  1  0
 18 19  1  6
 20 19  1  0
 20 28  1  0
 21 22  1  0
 21 20  2  0
 22 23  1  0
 23 28  2  0
 23 24  1  0
 24 25  2  0
 25 26  1  0
 27 26  2  0
 28 27  1  0
 29 31  1  0
 30 29  2  0
M  END
$$$$
