MLW.pdb
     RDKit          3D

 31 32  0  0  1  0  0  0  0  0999 V2000
   32.0557  -20.8881  -10.0286 C   0  0  0  0  0  0  0  0  0  0  0  0
   31.8545  -22.3407  -11.0689 S   0  0  0  0  0  0  0  0  0  0  0  0
   31.2976  -21.8746  -12.7513 C   0  0  0  0  0  0  0  0  0  0  0  0
   29.8429  -21.5449  -12.6474 C   0  0  0  0  0  0  0  0  0  0  0  0
   29.1769  -21.2204  -13.9432 C   0  0  2  0  0  0  0  0  0  0  0  0
   29.8261  -20.1796  -14.6803 N   0  0  0  0  0  0  0  0  0  0  0  0
   27.7011  -21.0122  -13.8228 C   0  0  0  0  0  0  0  0  0  0  0  0
   27.2727  -19.8588  -13.7508 O   0  0  0  0  0  0  0  0  0  0  0  0
   24.1163  -22.4792  -16.1685 C   0  0  0  0  0  0  0  0  0  0  0  0
   24.7525  -23.6111  -15.3209 C   0  0  2  0  0  0  0  0  0  0  0  0
   23.8346  -24.8210  -15.5926 C   0  0  0  0  0  0  0  0  0  0  0  0
   24.5627  -23.2395  -13.9082 C   0  0  0  0  0  0  0  0  0  0  0  0
   25.4380  -22.1265  -13.3964 C   0  0  2  0  0  0  0  0  0  0  0  0
   26.7890  -22.0863  -13.7888 N   0  0  0  0  0  0  0  0  0  0  0  0
   25.1287  -21.7524  -12.0112 C   0  0  0  0  0  0  0  0  0  0  0  0
   23.9413  -21.4410  -11.6475 O   0  0  0  0  0  0  0  0  0  0  0  0
   26.1017  -21.7053  -10.9766 N   0  0  0  0  0  0  0  0  0  0  0  0
   25.8230  -21.1706   -9.6280 C   0  0  1  0  0  0  0  0  0  0  0  0
   26.9358  -21.4887   -8.7038 C   0  0  0  0  0  0  0  0  0  0  0  0
   26.7649  -20.9307   -7.3601 C   0  0  0  0  0  0  0  0  0  0  0  0
   25.6066  -20.8531   -6.5893 C   0  0  0  0  0  0  0  0  0  0  0  0
   25.8561  -20.2449   -5.4258 N   0  0  0  0  0  0  0  0  0  0  0  0
   27.1570  -19.9097   -5.3919 C   0  0  0  0  0  0  0  0  0  0  0  0
   27.8919  -19.2758   -4.3913 C   0  0  0  0  0  0  0  0  0  0  0  0
   29.2449  -19.0404   -4.5571 C   0  0  0  0  0  0  0  0  0  0  0  0
   29.8106  -19.4541   -5.7297 C   0  0  0  0  0  0  0  0  0  0  0  0
   29.0928  -20.0752   -6.7128 C   0  0  0  0  0  0  0  0  0  0  0  0
   27.7517  -20.3208   -6.5766 C   0  0  0  0  0  0  0  0  0  0  0  0
   25.3267  -19.8091   -9.6936 C   0  0  0  0  0  0  0  0  0  0  0  0
   25.9314  -18.9566  -10.4207 O   0  0  0  0  0  0  0  0  0  0  0  0
   24.2137  -19.3228   -9.0238 O   0  0  0  0  0  0  0  0  0  0  0  0
  1  2  1  0
  2  3  1  0
  4  3  1  0
  5  6  1  1
  5  4  1  0
  7  8  2  0
  7  5  1  0
 10  9  1  6
 10 11  1  0
 10 12  1  0
 13 12  1  1
 13 14  1  0
 14  7  1  0
 15 13  1  0
 16 15  2  0
 17 15  1  0
 18 29  1  0
 18 17  1  0
 18 19  1  1
 20 19  1  0
 20 28  1  0
 21 22  1  0
 21 20  2  0
 22 23  1  0
 23 28  2  0
 23 24  1  0
 24 25  2  0
 25 26  1  0
 27 26  2  0
 28 27  1  0
 29 31  1  0
 30 29  2  0
M  END
$$$$
