MLW.pdb
     RDKit          3D

 31 32  0  0  1  0  0  0  0  0999 V2000
   20.1840  -17.9913  -12.0823 C   0  0  0  0  0  0  0  0  0  0  0  0
   20.8000  -18.3404  -13.7350 S   0  0  0  0  0  0  0  0  0  0  0  0
   20.7404  -20.1361  -14.0950 C   0  0  0  0  0  0  0  0  0  0  0  0
   21.7146  -20.7932  -13.1704 C   0  0  0  0  0  0  0  0  0  0  0  0
   23.1128  -20.8780  -13.6858 C   0  0  2  0  0  0  0  0  0  0  0  0
   23.2092  -21.4289  -15.0031 N   0  0  0  0  0  0  0  0  0  0  0  0
   24.0693  -21.5058  -12.7231 C   0  0  0  0  0  0  0  0  0  0  0  0
   24.4439  -22.6610  -12.9334 O   0  0  0  0  0  0  0  0  0  0  0  0
   29.3855  -20.4443  -12.4859 C   0  0  0  0  0  0  0  0  0  0  0  0
   28.3591  -20.7101  -11.3545 C   0  0  2  0  0  0  0  0  0  0  0  0
   28.6842  -22.1503  -10.9071 C   0  0  0  0  0  0  0  0  0  0  0  0
   27.0304  -20.7493  -11.9890 C   0  0  0  0  0  0  0  0  0  0  0  0
   25.8523  -20.7493  -11.0516 C   0  0  2  0  0  0  0  0  0  0  0  0
   24.5536  -20.8231  -11.5889 N   0  0  0  0  0  0  0  0  0  0  0  0
   26.0507  -19.8736   -9.8905 C   0  0  0  0  0  0  0  0  0  0  0  0
   26.6147  -18.7294   -9.9993 O   0  0  0  0  0  0  0  0  0  0  0  0
   25.6413  -20.2145   -8.5731 N   0  0  0  0  0  0  0  0  0  0  0  0
   26.5664  -20.2472   -7.4217 C   0  0  1  0  0  0  0  0  0  0  0  0
   26.2981  -21.4320   -6.5744 C   0  0  0  0  0  0  0  0  0  0  0  0
   25.3566  -21.1753   -5.4818 C   0  0  0  0  0  0  0  0  0  0  0  0
   24.0032  -21.4975   -5.4036 C   0  0  0  0  0  0  0  0  0  0  0  0
   23.4832  -21.0664   -4.2504 N   0  0  0  0  0  0  0  0  0  0  0  0
   24.4544  -20.4602   -3.5467 C   0  0  0  0  0  0  0  0  0  0  0  0
   24.4087  -19.8667   -2.2862 C   0  0  0  0  0  0  0  0  0  0  0  0
   25.5467  -19.3089   -1.7320 C   0  0  0  0  0  0  0  0  0  0  0  0
   26.6940  -19.3695   -2.4709 C   0  0  0  0  0  0  0  0  0  0  0  0
   26.7421  -19.9500   -3.7071 C   0  0  0  0  0  0  0  0  0  0  0  0
   25.6309  -20.5097   -4.2811 C   0  0  0  0  0  0  0  0  0  0  0  0
   27.9289  -19.9669   -7.8328 C   0  0  0  0  0  0  0  0  0  0  0  0
   28.4210  -20.5840   -8.8319 O   0  0  0  0  0  0  0  0  0  0  0  0
   28.7825  -19.0554   -7.2293 O   0  0  0  0  0  0  0  0  0  0  0  0
  1  2  1  0
  2  3  1  0
  4  3  1  0
  5  6  1  6
  5  4  1  0
  7  8  2  0
  7  5  1  0
 10  9  1  6
 10 11  1  0
 10 12  1  0
 13 12  1  6
 13 14  1  0
 14  7  1  0
 15 13  1  0
 16 15  2  0
 17 15  1  0
 18 29  1  0
 18 17  1  0
 18 19  1  6
 20 19  1  0
 20 28  1  0
 21 22  1  0
 21 20  2  0
 22 23  1  0
 23 28  2  0
 23 24  1  0
 24 25  2  0
 25 26  1  0
 27 26  2  0
 28 27  1  0
 29 31  1  0
 30 29  2  0
M  END
$$$$
