QNR.pdb
     RDKit          3D

 29 28  0  0  1  0  0  0  0  0999 V2000
    9.0074  -13.7972   15.7720 N   0  0  0  0  0  0  0  0  0  0  0  0
    7.9322  -14.6311   15.3251 C   0  0  0  0  0  0  0  0  0  0  0  0
    7.1438  -14.1619   14.4944 O   0  0  0  0  0  0  0  0  0  0  0  0
    7.8617  -15.9897   15.9017 C   0  0  0  0  0  0  0  0  0  0  0  0
    9.0172  -16.2930   16.7986 C   0  0  0  0  0  0  0  0  0  0  0  0
    8.8636  -15.6271   18.1463 C   0  0  2  0  0  0  0  0  0  0  0  0
    8.8958  -14.1672   18.0021 N   0  0  0  0  0  0  0  0  0  0  0  0
    9.9800  -16.0040   19.0458 C   0  0  0  0  0  0  0  0  0  0  0  0
   10.1427  -17.2140   19.3752 O   0  0  0  0  0  0  0  0  0  0  0  0
   14.4867  -15.7777   18.8257 N   0  0  0  0  0  0  0  0  0  0  0  0
   13.7389  -14.5705   19.0941 C   0  0  0  0  0  0  0  0  0  0  0  0
   13.7844  -13.7012   18.1994 O   0  0  0  0  0  0  0  0  0  0  0  0
   13.0202  -14.5037   20.3713 C   0  0  0  0  0  0  0  0  0  0  0  0
   11.8793  -15.4517   20.5142 C   0  0  2  0  0  0  0  0  0  0  0  0
   10.8676  -15.0405   19.5437 N   0  0  0  0  0  0  0  0  0  0  0  0
   11.2849  -15.3389   21.8947 C   0  0  0  0  0  0  0  0  0  0  0  0
   11.6233  -14.3996   22.6381 O   0  0  0  0  0  0  0  0  0  0  0  0
    7.4462  -20.8710   25.4832 N   0  0  0  0  0  0  0  0  0  0  0  0
    7.3076  -20.1516   26.6863 C   0  0  0  0  0  0  0  0  0  0  0  0
    7.3723  -20.7808   27.8101 N   0  0  0  0  0  0  0  0  0  0  0  0
    7.0966  -18.7516   26.7467 N   0  0  0  0  0  0  0  0  0  0  0  0
    6.9887  -17.9489   25.5817 C   0  0  0  0  0  0  0  0  0  0  0  0
    8.1949  -17.0466   25.3562 C   0  0  0  0  0  0  0  0  0  0  0  0
    8.6468  -17.0780   23.9262 C   0  0  0  0  0  0  0  0  0  0  0  0
    9.8495  -16.1843   23.7620 C   0  0  2  0  0  0  0  0  0  0  0  0
   10.3442  -16.2785   22.3765 N   0  0  0  0  0  0  0  0  0  0  0  0
   10.9551  -16.6235   24.6110 C   0  0  0  0  0  0  0  0  0  0  0  0
   11.1962  -16.0393   25.8311 O   0  0  0  0  0  0  0  0  0  0  0  0
   11.7173  -17.5450   24.2468 O   0  0  0  0  0  0  0  0  0  0  0  0
  2  1  1  0
  3  2  2  0
  4  2  1  0
  5  4  1  0
  6  5  1  0
  6  7  1  6
  8  6  1  0
  9  8  2  0
 10 11  1  0
 11 13  1  0
 12 11  2  0
 14 13  1  1
 14 15  1  0
 15  8  1  0
 16 14  1  0
 16 17  2  0
 18 19  1  0
 19 20  2  0
 21 22  1  0
 21 19  1  0
 23 24  1  0
 23 22  1  0
 25 24  1  6
 25 26  1  0
 26 16  1  0
 27 25  1  0
 28 27  1  0
 29 27  2  0
M  END
$$$$
