QNR.pdb
     RDKit          3D

 29 28  0  0  1  0  0  0  0  0999 V2000
    7.7223  -16.5837   14.4281 N   0  0  0  0  0  0  0  0  0  0  0  0
    8.8525  -15.7117   14.3127 C   0  0  0  0  0  0  0  0  0  0  0  0
    9.3609  -15.5697   13.1932 O   0  0  0  0  0  0  0  0  0  0  0  0
    9.3129  -15.0535   15.5528 C   0  0  0  0  0  0  0  0  0  0  0  0
    8.5036  -15.4464   16.7454 C   0  0  0  0  0  0  0  0  0  0  0  0
    9.0947  -14.8970   18.0229 C   0  0  2  0  0  0  0  0  0  0  0  0
    9.1689  -13.4327   17.9639 N   0  0  0  0  0  0  0  0  0  0  0  0
   10.4759  -15.3989   18.2178 C   0  0  0  0  0  0  0  0  0  0  0  0
   10.6987  -16.6436   18.2250 O   0  0  0  0  0  0  0  0  0  0  0  0
   16.2697  -13.7221   17.6200 N   0  0  0  0  0  0  0  0  0  0  0  0
   15.2669  -14.5955   18.1857 C   0  0  0  0  0  0  0  0  0  0  0  0
   15.7016  -15.6375   18.7181 O   0  0  0  0  0  0  0  0  0  0  0  0
   13.8692  -14.1646   18.0718 C   0  0  0  0  0  0  0  0  0  0  0  0
   12.8673  -15.0669   18.7067 C   0  0  2  0  0  0  0  0  0  0  0  0
   11.5501  -14.5167   18.3958 N   0  0  0  0  0  0  0  0  0  0  0  0
   13.0424  -15.0595   20.2038 C   0  0  0  0  0  0  0  0  0  0  0  0
   13.3633  -14.0054   20.7831 O   0  0  0  0  0  0  0  0  0  0  0  0
    6.4333  -13.4810   20.5612 N   0  0  0  0  0  0  0  0  0  0  0  0
    7.2609  -13.2295   21.6729 C   0  0  0  0  0  0  0  0  0  0  0  0
    6.9612  -12.2694   22.4798 N   0  0  0  0  0  0  0  0  0  0  0  0
    8.4275  -13.9768   21.9711 N   0  0  0  0  0  0  0  0  0  0  0  0
    8.4006  -15.1283   22.7997 C   0  0  0  0  0  0  0  0  0  0  0  0
    9.7826  -15.7056   23.0765 C   0  0  0  0  0  0  0  0  0  0  0  0
   10.6439  -15.6860   21.8487 C   0  0  0  0  0  0  0  0  0  0  0  0
   12.0255  -16.1763   22.1990 C   0  0  2  0  0  0  0  0  0  0  0  0
   12.8514  -16.2268   20.9789 N   0  0  0  0  0  0  0  0  0  0  0  0
   11.9874  -17.5445   22.7117 C   0  0  0  0  0  0  0  0  0  0  0  0
   12.4434  -18.6023   21.9626 O   0  0  0  0  0  0  0  0  0  0  0  0
   11.5335  -17.7909   23.8501 O   0  0  0  0  0  0  0  0  0  0  0  0
  2  1  1  0
  3  2  2  0
  4  2  1  0
  5  4  1  0
  6  5  1  0
  6  7  1  6
  8  6  1  0
  9  8  2  0
 10 11  1  0
 11 13  1  0
 12 11  2  0
 14 13  1  6
 14 15  1  0
 15  8  1  0
 16 14  1  0
 16 17  2  0
 18 19  1  0
 19 20  2  0
 21 22  1  0
 21 19  1  0
 23 24  1  0
 23 22  1  0
 25 24  1  6
 25 26  1  0
 26 16  1  0
 27 25  1  0
 28 27  1  0
 29 27  2  0
M  END
$$$$
