QNR.pdb
     RDKit          3D

 29 28  0  0  1  0  0  0  0  0999 V2000
    1.4258  -27.0580   26.8244 N   0  0  0  0  0  0  0  0  0  0  0  0
    1.8169  -26.1657   27.8741 C   0  0  0  0  0  0  0  0  0  0  0  0
    0.9777  -25.8904   28.7412 O   0  0  0  0  0  0  0  0  0  0  0  0
    3.2007  -25.6502   27.8265 C   0  0  0  0  0  0  0  0  0  0  0  0
    3.9271  -26.0700   26.5904 C   0  0  0  0  0  0  0  0  0  0  0  0
    5.3641  -25.6029   26.6053 C   0  0  2  0  0  0  0  0  0  0  0  0
    5.5415  -24.5251   27.5851 N   0  0  0  0  0  0  0  0  0  0  0  0
    5.7510  -25.0603   25.2811 C   0  0  0  0  0  0  0  0  0  0  0  0
    5.7148  -25.8053   24.2600 O   0  0  0  0  0  0  0  0  0  0  0  0
    6.7814  -22.1008   21.2489 N   0  0  0  0  0  0  0  0  0  0  0  0
    6.0759  -21.3570   22.2676 C   0  0  0  0  0  0  0  0  0  0  0  0
    5.8458  -20.1606   21.9959 O   0  0  0  0  0  0  0  0  0  0  0  0
    5.7146  -22.0827   23.4903 C   0  0  0  0  0  0  0  0  0  0  0  0
    6.5695  -23.2602   23.8122 C   0  0  2  0  0  0  0  0  0  0  0  0
    6.1596  -23.7279   25.1342 N   0  0  0  0  0  0  0  0  0  0  0  0
    8.0160  -22.8426   23.8849 C   0  0  0  0  0  0  0  0  0  0  0  0
    8.4160  -22.1661   24.8502 O   0  0  0  0  0  0  0  0  0  0  0  0
   11.0721  -19.6264   18.1217 N   0  0  0  0  0  0  0  0  0  0  0  0
   12.2948  -20.2131   18.5024 C   0  0  0  0  0  0  0  0  0  0  0  0
   13.3903  -19.7969   17.9644 N   0  0  0  0  0  0  0  0  0  0  0  0
   12.4049  -21.2539   19.4580 N   0  0  0  0  0  0  0  0  0  0  0  0
   11.3405  -21.5999   20.3301 C   0  0  0  0  0  0  0  0  0  0  0  0
   11.2589  -20.7124   21.5652 C   0  0  0  0  0  0  0  0  0  0  0  0
   10.1216  -21.1131   22.4573 C   0  0  0  0  0  0  0  0  0  0  0  0
   10.2720  -22.5636   22.8386 C   0  0  2  0  0  0  0  0  0  0  0  0
    8.9429  -23.2000   22.8784 N   0  0  0  0  0  0  0  0  0  0  0  0
   10.8212  -22.7025   24.1860 C   0  0  0  0  0  0  0  0  0  0  0  0
   11.7295  -23.6875   24.4905 O   0  0  0  0  0  0  0  0  0  0  0  0
   10.4750  -21.9270   25.1033 O   0  0  0  0  0  0  0  0  0  0  0  0
  2  1  1  0
  3  2  2  0
  4  2  1  0
  5  4  1  0
  6  5  1  0
  6  7  1  1
  8  6  1  0
  9  8  2  0
 10 11  1  0
 11 13  1  0
 12 11  2  0
 14 13  1  1
 14 15  1  0
 15  8  1  0
 16 14  1  0
 16 17  2  0
 18 19  1  0
 19 20  2  0
 21 22  1  0
 21 19  1  0
 23 24  1  0
 23 22  1  0
 25 24  1  1
 25 26  1  0
 26 16  1  0
 27 25  1  0
 28 27  1  0
 29 27  2  0
M  END
$$$$
