QNR.pdb
     RDKit          3D

 29 28  0  0  1  0  0  0  0  0999 V2000
    7.7391  -12.0574   20.0096 N   0  0  0  0  0  0  0  0  0  0  0  0
    7.4197  -13.4378   19.8015 C   0  0  0  0  0  0  0  0  0  0  0  0
    6.6208  -13.9703   20.5827 O   0  0  0  0  0  0  0  0  0  0  0  0
    8.0789  -14.1075   18.6613 C   0  0  0  0  0  0  0  0  0  0  0  0
    9.5688  -14.0215   18.7287 C   0  0  0  0  0  0  0  0  0  0  0  0
   10.2172  -14.6724   17.5291 C   0  0  2  0  0  0  0  0  0  0  0  0
    9.4524  -15.8531   17.1119 N   0  0  0  0  0  0  0  0  0  0  0  0
   11.5873  -15.1315   17.8604 C   0  0  0  0  0  0  0  0  0  0  0  0
   11.8306  -16.3685   17.9588 O   0  0  0  0  0  0  0  0  0  0  0  0
   17.3314  -13.1079   17.8504 N   0  0  0  0  0  0  0  0  0  0  0  0
   16.3521  -14.1578   18.0155 C   0  0  0  0  0  0  0  0  0  0  0  0
   16.8131  -15.2804   18.3077 O   0  0  0  0  0  0  0  0  0  0  0  0
   14.9448  -13.7906   17.8233 C   0  0  0  0  0  0  0  0  0  0  0  0
   13.9514  -14.7267   18.4217 C   0  0  2  0  0  0  0  0  0  0  0  0
   12.6285  -14.2170   18.0687 N   0  0  0  0  0  0  0  0  0  0  0  0
   14.0764  -14.7199   19.9238 C   0  0  0  0  0  0  0  0  0  0  0  0
   13.3095  -14.0141   20.6044 O   0  0  0  0  0  0  0  0  0  0  0  0
   10.2780  -18.7319   24.5171 N   0  0  0  0  0  0  0  0  0  0  0  0
   11.3460  -19.6284   24.7162 C   0  0  0  0  0  0  0  0  0  0  0  0
   11.5397  -20.1306   25.8880 N   0  0  0  0  0  0  0  0  0  0  0  0
   12.2427  -20.0246   23.6928 N   0  0  0  0  0  0  0  0  0  0  0  0
   12.4809  -19.2294   22.5420 C   0  0  0  0  0  0  0  0  0  0  0  0
   13.4153  -18.0551   22.8023 C   0  0  0  0  0  0  0  0  0  0  0  0
   13.7220  -17.3048   21.5403 C   0  0  0  0  0  0  0  0  0  0  0  0
   14.7040  -16.2013   21.8405 C   0  0  2  0  0  0  0  0  0  0  0  0
   15.0495  -15.4996   20.5909 N   0  0  0  0  0  0  0  0  0  0  0  0
   15.9614  -16.7379   22.3573 C   0  0  0  0  0  0  0  0  0  0  0  0
   16.1419  -16.9716   23.6992 O   0  0  0  0  0  0  0  0  0  0  0  0
   16.9128  -16.9970   21.5888 O   0  0  0  0  0  0  0  0  0  0  0  0
  2  1  1  0
  3  2  2  0
  4  2  1  0
  5  4  1  0
  6  5  1  0
  6  7  1  1
  8  6  1  0
  9  8  2  0
 10 11  1  0
 11 13  1  0
 12 11  2  0
 14 13  1  6
 14 15  1  0
 15  8  1  0
 16 14  1  0
 16 17  2  0
 18 19  1  0
 19 20  2  0
 21 22  1  0
 21 19  1  0
 23 24  1  0
 23 22  1  0
 25 24  1  6
 25 26  1  0
 26 16  1  0
 27 25  1  0
 28 27  1  0
 29 27  2  0
M  END
$$$$
