QNR.pdb
     RDKit          3D

 29 28  0  0  1  0  0  0  0  0999 V2000
    9.2778  -13.4159   17.3610 N   0  0  0  0  0  0  0  0  0  0  0  0
    7.9353  -13.1209   16.9587 C   0  0  0  0  0  0  0  0  0  0  0  0
    7.7743  -12.3489   16.0048 O   0  0  0  0  0  0  0  0  0  0  0  0
    6.8538  -13.7721   17.7263 C   0  0  0  0  0  0  0  0  0  0  0  0
    7.3734  -14.6686   18.8024 C   0  0  0  0  0  0  0  0  0  0  0  0
    7.8559  -15.9864   18.2423 C   0  0  2  0  0  0  0  0  0  0  0  0
    6.7230  -16.7785   17.7500 N   0  0  0  0  0  0  0  0  0  0  0  0
    8.5269  -16.7871   19.2942 C   0  0  0  0  0  0  0  0  0  0  0  0
    7.8362  -17.4785   20.0965 O   0  0  0  0  0  0  0  0  0  0  0  0
   11.6534  -19.9701   21.7456 N   0  0  0  0  0  0  0  0  0  0  0  0
   12.3738  -19.2949   20.6903 C   0  0  0  0  0  0  0  0  0  0  0  0
   13.6008  -19.5206   20.6488 O   0  0  0  0  0  0  0  0  0  0  0  0
   11.5919  -18.4314   19.7985 C   0  0  0  0  0  0  0  0  0  0  0  0
   10.5296  -17.6223   20.4603 C   0  0  2  0  0  0  0  0  0  0  0  0
    9.9226  -16.7951   19.4202 N   0  0  0  0  0  0  0  0  0  0  0  0
   11.1432  -16.7110   21.4923 C   0  0  0  0  0  0  0  0  0  0  0  0
   12.0050  -15.8809   21.1493 O   0  0  0  0  0  0  0  0  0  0  0  0
   10.2437  -14.0291   30.0556 N   0  0  0  0  0  0  0  0  0  0  0  0
   10.8787  -15.2717   29.8642 C   0  0  0  0  0  0  0  0  0  0  0  0
   11.4774  -15.8353   30.8576 N   0  0  0  0  0  0  0  0  0  0  0  0
   10.9052  -15.9599   28.6257 N   0  0  0  0  0  0  0  0  0  0  0  0
   10.5971  -15.3225   27.3960 C   0  0  0  0  0  0  0  0  0  0  0  0
   10.7838  -16.2259   26.1841 C   0  0  0  0  0  0  0  0  0  0  0  0
   10.3853  -15.5339   24.9144 C   0  0  0  0  0  0  0  0  0  0  0  0
   11.3837  -15.8591   23.8329 C   0  0  2  0  0  0  0  0  0  0  0  0
   10.7655  -16.7714   22.8538 N   0  0  0  0  0  0  0  0  0  0  0  0
   12.5359  -16.5769   24.3747 C   0  0  0  0  0  0  0  0  0  0  0  0
   13.7049  -15.9242   24.6837 O   0  0  0  0  0  0  0  0  0  0  0  0
   12.4898  -17.8109   24.5695 O   0  0  0  0  0  0  0  0  0  0  0  0
  2  1  1  0
  3  2  2  0
  4  2  1  0
  5  4  1  0
  6  5  1  0
  6  7  1  1
  8  6  1  0
  9  8  2  0
 10 11  1  0
 11 13  1  0
 12 11  2  0
 14 13  1  6
 14 15  1  0
 15  8  1  0
 16 14  1  0
 16 17  2  0
 18 19  1  0
 19 20  2  0
 21 22  1  0
 21 19  1  0
 23 24  1  0
 23 22  1  0
 25 24  1  1
 25 26  1  0
 26 16  1  0
 27 25  1  0
 28 27  1  0
 29 27  2  0
M  END
$$$$
