QNR.pdb
     RDKit          3D

 29 28  0  0  1  0  0  0  0  0999 V2000
    4.8851  -19.9764   16.6943 N   0  0  0  0  0  0  0  0  0  0  0  0
    5.7406  -20.2347   15.5752 C   0  0  0  0  0  0  0  0  0  0  0  0
    5.4237  -21.1498   14.8045 O   0  0  0  0  0  0  0  0  0  0  0  0
    6.9355  -19.3761   15.4407 C   0  0  0  0  0  0  0  0  0  0  0  0
    7.0898  -18.4245   16.5819 C   0  0  0  0  0  0  0  0  0  0  0  0
    7.7538  -17.1388   16.1468 C   0  0  2  0  0  0  0  0  0  0  0  0
    8.8360  -17.4182   15.1961 N   0  0  0  0  0  0  0  0  0  0  0  0
    8.3586  -16.4439   17.3083 C   0  0  0  0  0  0  0  0  0  0  0  0
    9.5304  -16.7404   17.6796 O   0  0  0  0  0  0  0  0  0  0  0  0
    9.1846  -13.2859   21.2745 N   0  0  0  0  0  0  0  0  0  0  0  0
    7.9567  -12.8492   20.6500 C   0  0  0  0  0  0  0  0  0  0  0  0
    7.4660  -11.7972   21.1089 O   0  0  0  0  0  0  0  0  0  0  0  0
    7.4322  -13.6810   19.5613 C   0  0  0  0  0  0  0  0  0  0  0  0
    8.2772  -14.8492   19.1841 C   0  0  2  0  0  0  0  0  0  0  0  0
    7.6543  -15.4564   18.0103 N   0  0  0  0  0  0  0  0  0  0  0  0
    8.2796  -15.8649   20.2978 C   0  0  0  0  0  0  0  0  0  0  0  0
    7.4802  -16.8185   20.2660 O   0  0  0  0  0  0  0  0  0  0  0  0
   10.4329  -21.5206   23.8050 N   0  0  0  0  0  0  0  0  0  0  0  0
   10.8574  -22.0642   22.5768 C   0  0  0  0  0  0  0  0  0  0  0  0
   10.4689  -23.2472   22.2412 N   0  0  0  0  0  0  0  0  0  0  0  0
   11.7021  -21.3840   21.6646 N   0  0  0  0  0  0  0  0  0  0  0  0
   11.3002  -20.1983   20.9969 C   0  0  0  0  0  0  0  0  0  0  0  0
   10.6675  -19.1683   21.9234 C   0  0  0  0  0  0  0  0  0  0  0  0
   10.2612  -17.9321   21.1774 C   0  0  0  0  0  0  0  0  0  0  0  0
    9.5785  -16.9783   22.1241 C   0  0  2  0  0  0  0  0  0  0  0  0
    9.1725  -15.7660   21.3900 N   0  0  0  0  0  0  0  0  0  0  0  0
   10.4937  -16.5239   23.1691 C   0  0  0  0  0  0  0  0  0  0  0  0
   10.8833  -15.2092   23.2571 O   0  0  0  0  0  0  0  0  0  0  0  0
   10.9519  -17.3239   24.0134 O   0  0  0  0  0  0  0  0  0  0  0  0
  2  1  1  0
  3  2  2  0
  4  2  1  0
  5  4  1  0
  6  5  1  0
  6  7  1  6
  8  6  1  0
  9  8  2  0
 10 11  1  0
 11 13  1  0
 12 11  2  0
 14 13  1  1
 14 15  1  0
 15  8  1  0
 16 14  1  0
 16 17  2  0
 18 19  1  0
 19 20  2  0
 21 22  1  0
 21 19  1  0
 23 24  1  0
 23 22  1  0
 25 24  1  6
 25 26  1  0
 26 16  1  0
 27 25  1  0
 28 27  1  0
 29 27  2  0
M  END
$$$$
