CYF.pdb
     RDKit          3D

 30 31  0  0  1  0  0  0  0  0999 V2000
    6.7668  -15.0422   19.4910 N   0  0  0  0  0  0  0  0  0  0  0  0
    7.8778  -14.5612   20.2466 C   0  0  1  0  0  0  0  0  0  0  0  0
    7.6361  -13.2339   20.9087 C   0  0  0  0  0  0  0  0  0  0  0  0
    8.1660  -11.8918   19.8215 S   0  0  0  0  0  0  0  0  0  0  0  0
    8.2579  -15.5260   21.3486 C   0  0  0  0  0  0  0  0  0  0  0  0
    7.3707  -16.1878   21.9404 O   0  0  0  0  0  0  0  0  0  0  0  0
   13.5515  -21.9322   24.4352 O   0  0  0  0  0  0  0  0  0  0  0  0
   12.9605  -20.7941   23.9212 C   0  0  0  0  0  0  0  0  0  0  0  0
   11.8340  -20.2470   24.4886 C   0  0  0  0  0  0  0  0  0  0  0  0
   11.2991  -19.1194   23.9303 C   0  0  0  0  0  0  0  0  0  0  0  0
   11.8222  -18.4803   22.8148 C   0  0  0  0  0  0  0  0  0  0  0  0
   11.2543  -17.3005   22.1937 C   0  0  0  0  0  0  0  0  0  0  0  0
   10.0134  -16.7172   22.7059 C   0  0  2  0  0  0  0  0  0  0  0  0
    9.6128  -15.6942   21.7247 N   0  0  0  0  0  0  0  0  0  0  0  0
   10.0339  -16.0872   24.0399 C   0  0  0  0  0  0  0  0  0  0  0  0
   10.7054  -15.0250   24.2598 O   0  0  0  0  0  0  0  0  0  0  0  0
   12.9530  -19.0522   22.2668 C   0  0  0  0  0  0  0  0  0  0  0  0
   13.5215  -20.2040   22.8159 C   0  0  0  0  0  0  0  0  0  0  0  0
    9.3365  -16.5654   25.1822 N   0  0  0  0  0  0  0  0  0  0  0  0
    9.5085  -15.9540   26.5148 C   0  0  1  0  0  0  0  0  0  0  0  0
    8.1596  -15.5443   27.0449 C   0  0  0  0  0  0  0  0  0  0  0  0
    7.6210  -14.3207   26.4392 C   0  0  0  0  0  0  0  0  0  0  0  0
    8.0533  -13.0515   26.7784 C   0  0  0  0  0  0  0  0  0  0  0  0
    7.5147  -11.9396   26.1721 C   0  0  0  0  0  0  0  0  0  0  0  0
    6.5343  -12.0076   25.2116 C   0  0  0  0  0  0  0  0  0  0  0  0
    6.0935  -13.2653   24.8638 C   0  0  0  0  0  0  0  0  0  0  0  0
    6.6210  -14.3863   25.4595 C   0  0  0  0  0  0  0  0  0  0  0  0
   10.1369  -16.8976   27.4640 C   0  0  0  0  0  0  0  0  0  0  0  0
   10.3468  -18.1145   27.1710 O   0  0  0  0  0  0  0  0  0  0  0  0
   10.5280  -16.4930   28.7192 O   0  0  0  0  0  0  0  0  0  0  0  0
  2  1  1  1
  2  3  1  0
  3  4  1  0
  5  6  2  0
  5  2  1  0
  8  7  1  0
  9  8  2  0
 10  9  1  0
 11 10  2  0
 11 17  1  0
 12 11  1  0
 13 14  1  0
 13 12  1  6
 14  5  1  0
 15 13  1  0
 16 15  2  0
 17 18  2  0
 18  8  1  0
 19 15  1  0
 20 19  1  0
 20 21  1  1
 22 21  1  0
 23 22  2  0
 24 23  1  0
 25 24  2  0
 25 26  1  0
 26 27  2  0
 27 22  1  0
 28 20  1  0
 28 30  1  0
 29 28  2  0
M  END
$$$$
