CYF.pdb
     RDKit          3D

 30 31  0  0  1  0  0  0  0  0999 V2000
    6.5711  -19.7490   22.0143 N   0  0  0  0  0  0  0  0  0  0  0  0
    6.4701  -18.4375   22.5677 C   0  0  1  0  0  0  0  0  0  0  0  0
    6.0038  -18.4126   23.9962 C   0  0  0  0  0  0  0  0  0  0  0  0
    6.6723  -19.8318   24.8924 S   0  0  0  0  0  0  0  0  0  0  0  0
    7.8022  -17.7202   22.5400 C   0  0  0  0  0  0  0  0  0  0  0  0
    8.8577  -18.3599   22.3120 O   0  0  0  0  0  0  0  0  0  0  0  0
    7.4106  -13.7483   16.6690 O   0  0  0  0  0  0  0  0  0  0  0  0
    7.7106  -13.8722   18.0119 C   0  0  0  0  0  0  0  0  0  0  0  0
    6.7838  -13.5895   18.9872 C   0  0  0  0  0  0  0  0  0  0  0  0
    7.1455  -13.7327   20.2980 C   0  0  0  0  0  0  0  0  0  0  0  0
    8.4011  -14.1497   20.7174 C   0  0  0  0  0  0  0  0  0  0  0  0
    8.8106  -14.2820   22.1012 C   0  0  0  0  0  0  0  0  0  0  0  0
    9.1493  -15.5951   22.6520 C   0  0  2  0  0  0  0  0  0  0  0  0
    7.8751  -16.3247   22.7698 N   0  0  0  0  0  0  0  0  0  0  0  0
    9.8304  -15.6518   23.9596 C   0  0  0  0  0  0  0  0  0  0  0  0
   11.0931  -15.4968   24.0553 O   0  0  0  0  0  0  0  0  0  0  0  0
    9.3106  -14.4262   19.7161 C   0  0  0  0  0  0  0  0  0  0  0  0
    8.9691  -14.2889   18.3686 C   0  0  0  0  0  0  0  0  0  0  0  0
    9.1884  -15.8711   25.2085 N   0  0  0  0  0  0  0  0  0  0  0  0
    9.9525  -16.0391   26.4604 C   0  0  1  0  0  0  0  0  0  0  0  0
    9.9794  -14.7269   27.1992 C   0  0  0  0  0  0  0  0  0  0  0  0
    8.7965  -13.8867   26.9771 C   0  0  0  0  0  0  0  0  0  0  0  0
    8.6119  -12.6588   27.5863 C   0  0  0  0  0  0  0  0  0  0  0  0
    7.4837  -11.9117   27.3353 C   0  0  0  0  0  0  0  0  0  0  0  0
    6.4853  -12.3205   26.4842 C   0  0  0  0  0  0  0  0  0  0  0  0
    6.6553  -13.5418   25.8704 C   0  0  0  0  0  0  0  0  0  0  0  0
    7.7763  -14.3005   26.1100 C   0  0  0  0  0  0  0  0  0  0  0  0
    9.3463  -17.0720   27.3276 C   0  0  0  0  0  0  0  0  0  0  0  0
    9.8536  -17.4039   28.4425 O   0  0  0  0  0  0  0  0  0  0  0  0
    8.1918  -17.7241   26.9610 O   0  0  0  0  0  0  0  0  0  0  0  0
  2  1  1  1
  2  3  1  0
  3  4  1  0
  5  6  2  0
  5  2  1  0
  8  7  1  0
  9  8  2  0
 10  9  1  0
 11 10  2  0
 11 17  1  0
 12 11  1  0
 13 14  1  0
 13 12  1  1
 14  5  1  0
 15 13  1  0
 16 15  2  0
 17 18  2  0
 18  8  1  0
 19 15  1  0
 20 19  1  0
 20 21  1  1
 22 21  1  0
 23 22  2  0
 24 23  1  0
 25 24  2  0
 25 26  1  0
 26 27  2  0
 27 22  1  0
 28 20  1  0
 28 30  1  0
 29 28  2  0
M  END
$$$$
