CYF.pdb
     RDKit          3D

 30 31  0  0  1  0  0  0  0  0999 V2000
    6.7783  -19.8230   21.4015 N   0  0  0  0  0  0  0  0  0  0  0  0
    6.5201  -18.6391   22.1554 C   0  0  1  0  0  0  0  0  0  0  0  0
    5.9161  -18.8967   23.5072 C   0  0  0  0  0  0  0  0  0  0  0  0
    7.1685  -18.7011   24.7945 S   0  0  0  0  0  0  0  0  0  0  0  0
    7.7876  -17.8485   22.3969 C   0  0  0  0  0  0  0  0  0  0  0  0
    8.8978  -18.4328   22.4312 O   0  0  0  0  0  0  0  0  0  0  0  0
    7.6696  -13.1874   16.6354 O   0  0  0  0  0  0  0  0  0  0  0  0
    7.8336  -13.4599   17.9799 C   0  0  0  0  0  0  0  0  0  0  0  0
    6.7676  -13.4750   18.8481 C   0  0  0  0  0  0  0  0  0  0  0  0
    6.9990  -13.7518   20.1670 C   0  0  0  0  0  0  0  0  0  0  0  0
    8.2530  -14.0223   20.6967 C   0  0  0  0  0  0  0  0  0  0  0  0
    8.5209  -14.2918   22.0952 C   0  0  0  0  0  0  0  0  0  0  0  0
    8.9571  -15.6216   22.5240 C   0  0  2  0  0  0  0  0  0  0  0  0
    7.7379  -16.4460   22.5864 N   0  0  0  0  0  0  0  0  0  0  0  0
    9.6589  -15.7459   23.8158 C   0  0  0  0  0  0  0  0  0  0  0  0
   10.8920  -15.4398   23.9311 O   0  0  0  0  0  0  0  0  0  0  0  0
    9.3037  -14.0001   19.8015 C   0  0  0  0  0  0  0  0  0  0  0  0
    9.0973  -13.7204   18.4485 C   0  0  0  0  0  0  0  0  0  0  0  0
    9.0693  -16.1963   25.0280 N   0  0  0  0  0  0  0  0  0  0  0  0
    9.8111  -16.1964   26.3043 C   0  0  1  0  0  0  0  0  0  0  0  0
    9.9632  -14.7768   26.7840 C   0  0  0  0  0  0  0  0  0  0  0  0
    8.7098  -14.0137   26.8133 C   0  0  0  0  0  0  0  0  0  0  0  0
    7.4899  -14.5419   26.4318 C   0  0  0  0  0  0  0  0  0  0  0  0
    6.3455  -13.7795   26.4858 C   0  0  0  0  0  0  0  0  0  0  0  0
    6.3320  -12.4728   26.9108 C   0  0  0  0  0  0  0  0  0  0  0  0
    7.5399  -11.9329   27.2938 C   0  0  0  0  0  0  0  0  0  0  0  0
    8.6924  -12.6808   27.2461 C   0  0  0  0  0  0  0  0  0  0  0  0
    9.1063  -16.9850   27.3377 C   0  0  0  0  0  0  0  0  0  0  0  0
    9.5743  -17.1421   28.5068 O   0  0  0  0  0  0  0  0  0  0  0  0
    7.8980  -17.5877   27.0749 O   0  0  0  0  0  0  0  0  0  0  0  0
  2  1  1  1
  2  3  1  0
  3  4  1  0
  5  6  2  0
  5  2  1  0
  8  7  1  0
  9  8  2  0
 10  9  1  0
 11 10  2  0
 11 17  1  0
 12 11  1  0
 13 14  1  0
 13 12  1  1
 14  5  1  0
 15 13  1  0
 16 15  2  0
 17 18  2  0
 18  8  1  0
 19 15  1  0
 20 19  1  0
 20 21  1  1
 22 21  1  0
 23 22  2  0
 24 23  1  0
 25 24  2  0
 25 26  1  0
 26 27  2  0
 27 22  1  0
 28 20  1  0
 28 30  1  0
 29 28  2  0
M  END
$$$$
