CYF.pdb
     RDKit          3D

 30 31  0  0  1  0  0  0  0  0999 V2000
    7.7213  -16.1284   19.5829 N   0  0  0  0  0  0  0  0  0  0  0  0
    8.5261  -15.3585   20.4751 C   0  0  1  0  0  0  0  0  0  0  0  0
    7.8249  -14.1586   21.0474 C   0  0  0  0  0  0  0  0  0  0  0  0
    6.2812  -14.6610   21.8402 S   0  0  0  0  0  0  0  0  0  0  0  0
    8.9916  -16.1846   21.6544 C   0  0  0  0  0  0  0  0  0  0  0  0
    8.3220  -17.1764   22.0325 O   0  0  0  0  0  0  0  0  0  0  0  0
   13.1180  -20.5246   18.6750 O   0  0  0  0  0  0  0  0  0  0  0  0
   12.8603  -19.7028   19.7554 C   0  0  0  0  0  0  0  0  0  0  0  0
   12.3001  -20.1881   20.9134 C   0  0  0  0  0  0  0  0  0  0  0  0
   12.0709  -19.3210   21.9453 C   0  0  0  0  0  0  0  0  0  0  0  0
   12.3689  -17.9660   21.9037 C   0  0  0  0  0  0  0  0  0  0  0  0
   12.1092  -17.0273   22.9769 C   0  0  0  0  0  0  0  0  0  0  0  0
   10.7357  -16.7314   23.3871 C   0  0  2  0  0  0  0  0  0  0  0  0
   10.1831  -15.8511   22.3434 N   0  0  0  0  0  0  0  0  0  0  0  0
   10.5196  -16.0816   24.6940 C   0  0  0  0  0  0  0  0  0  0  0  0
   11.0648  -14.9630   24.9750 O   0  0  0  0  0  0  0  0  0  0  0  0
   12.9302  -17.5076   20.7286 C   0  0  0  0  0  0  0  0  0  0  0  0
   13.1758  -18.3704   19.6578 C   0  0  0  0  0  0  0  0  0  0  0  0
    9.7122  -16.5998   25.7426 N   0  0  0  0  0  0  0  0  0  0  0  0
    9.6869  -15.9859   27.0849 C   0  0  1  0  0  0  0  0  0  0  0  0
    8.2564  -15.7323   27.4819 C   0  0  0  0  0  0  0  0  0  0  0  0
    7.6232  -14.6153   26.7707 C   0  0  0  0  0  0  0  0  0  0  0  0
    7.7913  -13.2912   27.1331 C   0  0  0  0  0  0  0  0  0  0  0  0
    7.1762  -12.2845   26.4245 C   0  0  0  0  0  0  0  0  0  0  0  0
    6.3716  -12.5154   25.3348 C   0  0  0  0  0  0  0  0  0  0  0  0
    6.1947  -13.8296   24.9621 C   0  0  0  0  0  0  0  0  0  0  0  0
    6.8020  -14.8472   25.6590 C   0  0  0  0  0  0  0  0  0  0  0  0
   10.3217  -16.8637   28.0914 C   0  0  0  0  0  0  0  0  0  0  0  0
   10.6426  -18.0649   27.8371 O   0  0  0  0  0  0  0  0  0  0  0  0
   10.5974  -16.4110   29.3608 O   0  0  0  0  0  0  0  0  0  0  0  0
  2  1  1  6
  2  3  1  0
  3  4  1  0
  5  6  2  0
  5  2  1  0
  8  7  1  0
  9  8  2  0
 10  9  1  0
 11 10  2  0
 11 17  1  0
 12 11  1  0
 13 14  1  0
 13 12  1  6
 14  5  1  0
 15 13  1  0
 16 15  2  0
 17 18  2  0
 18  8  1  0
 19 15  1  0
 20 19  1  0
 20 21  1  1
 22 21  1  0
 23 22  2  0
 24 23  1  0
 25 24  2  0
 25 26  1  0
 26 27  2  0
 27 22  1  0
 28 20  1  0
 28 30  1  0
 29 28  2  0
M  END
$$$$
