CYF.pdb
     RDKit          3D

 30 31  0  0  1  0  0  0  0  0999 V2000
    7.9063  -15.7402   17.6642 N   0  0  0  0  0  0  0  0  0  0  0  0
    8.7594  -15.0905   18.6058 C   0  0  1  0  0  0  0  0  0  0  0  0
    8.2690  -13.7382   19.0410 C   0  0  0  0  0  0  0  0  0  0  0  0
    8.4488  -12.5489   17.6929 S   0  0  0  0  0  0  0  0  0  0  0  0
    8.9217  -15.9125   19.8658 C   0  0  0  0  0  0  0  0  0  0  0  0
    7.9277  -16.4807   20.3799 O   0  0  0  0  0  0  0  0  0  0  0  0
   12.3251  -22.1469   18.4708 O   0  0  0  0  0  0  0  0  0  0  0  0
   12.1667  -20.9818   19.1963 C   0  0  0  0  0  0  0  0  0  0  0  0
   12.3180  -19.7446   18.6162 C   0  0  0  0  0  0  0  0  0  0  0  0
   12.1475  -18.6309   19.3909 C   0  0  0  0  0  0  0  0  0  0  0  0
   11.8278  -18.6641   20.7412 C   0  0  0  0  0  0  0  0  0  0  0  0
   11.6691  -17.4958   21.5838 C   0  0  0  0  0  0  0  0  0  0  0  0
   10.3651  -16.8427   21.7082 C   0  0  2  0  0  0  0  0  0  0  0  0
   10.1910  -16.0507   20.4785 N   0  0  0  0  0  0  0  0  0  0  0  0
   10.1350  -15.9518   22.8615 C   0  0  0  0  0  0  0  0  0  0  0  0
   10.5854  -14.7583   22.8760 O   0  0  0  0  0  0  0  0  0  0  0  0
   11.6822  -19.9199   21.2960 C   0  0  0  0  0  0  0  0  0  0  0  0
   11.8504  -21.0752   20.5288 C   0  0  0  0  0  0  0  0  0  0  0  0
    9.4141  -16.3015   24.0354 N   0  0  0  0  0  0  0  0  0  0  0  0
    9.0449  -15.2979   25.0531 C   0  0  1  0  0  0  0  0  0  0  0  0
    7.9549  -14.4170   24.5013 C   0  0  0  0  0  0  0  0  0  0  0  0
    7.4388  -13.4285   25.4557 C   0  0  0  0  0  0  0  0  0  0  0  0
    6.1834  -13.5110   26.0302 C   0  0  0  0  0  0  0  0  0  0  0  0
    5.7549  -12.5563   26.9241 C   0  0  0  0  0  0  0  0  0  0  0  0
    6.5225  -11.4805   27.3006 C   0  0  0  0  0  0  0  0  0  0  0  0
    7.7754  -11.3850   26.7362 C   0  0  0  0  0  0  0  0  0  0  0  0
    8.2188  -12.3301   25.8418 C   0  0  0  0  0  0  0  0  0  0  0  0
    8.5670  -15.9407   26.2959 C   0  0  0  0  0  0  0  0  0  0  0  0
    8.8186  -15.4649   27.4452 O   0  0  0  0  0  0  0  0  0  0  0  0
    7.8183  -17.0943   26.2605 O   0  0  0  0  0  0  0  0  0  0  0  0
  2  1  1  6
  2  3  1  0
  3  4  1  0
  5  6  2  0
  5  2  1  0
  8  7  1  0
  9  8  2  0
 10  9  1  0
 11 10  2  0
 11 17  1  0
 12 11  1  0
 13 14  1  0
 13 12  1  1
 14  5  1  0
 15 13  1  0
 16 15  2  0
 17 18  2  0
 18  8  1  0
 19 15  1  0
 20 19  1  0
 20 21  1  6
 22 21  1  0
 23 22  2  0
 24 23  1  0
 25 24  2  0
 25 26  1  0
 26 27  2  0
 27 22  1  0
 28 20  1  0
 28 30  1  0
 29 28  2  0
M  END
$$$$
