PAV.pdb
     RDKit          3D

 20 20  0  0  1  0  0  0  0  0999 V2000
   23.0365  -13.2207  -17.0415 N   0  0  0  0  0  0  0  0  0  0  0  0
   24.3068  -13.8953  -17.0136 C   0  0  0  0  0  0  0  0  0  0  0  0
   24.7747  -13.8326  -15.5537 C   0  0  0  0  0  0  0  0  0  0  0  0
   24.2501  -12.4414  -15.1740 C   0  0  0  0  0  0  0  0  0  0  0  0
   22.8869  -12.4763  -15.8357 C   0  0  1  0  0  0  0  0  0  0  0  0
   22.3402  -11.1204  -16.0359 C   0  0  0  0  0  0  0  0  0  0  0  0
   22.8417  -10.2892  -16.8193 O   0  0  0  0  0  0  0  0  0  0  0  0
   19.1326   -9.4607  -14.9308 C   0  0  0  0  0  0  0  0  0  0  0  0
   20.5545   -9.4397  -15.4712 C   0  0  2  0  0  0  0  0  0  0  0  0
   21.1895  -10.7327  -15.3079 N   0  0  0  0  0  0  0  0  0  0  0  0
   21.3350   -8.3557  -14.8377 C   0  0  0  0  0  0  0  0  0  0  0  0
   21.9994   -8.6305  -13.8076 O   0  0  0  0  0  0  0  0  0  0  0  0
   22.1323   -4.7269  -16.9430 C   0  0  0  0  0  0  0  0  0  0  0  0
   23.0514   -5.3400  -15.9132 C   0  0  1  0  0  0  0  0  0  0  0  0
   24.0251   -4.3341  -15.3981 C   0  0  0  0  0  0  0  0  0  0  0  0
   22.2604   -6.0049  -14.8053 C   0  0  2  0  0  0  0  0  0  0  0  0
   21.3780   -7.0297  -15.3216 N   0  0  0  0  0  0  0  0  0  0  0  0
   21.4508   -5.0340  -14.0451 C   0  0  0  0  0  0  0  0  0  0  0  0
   22.0607   -4.2364  -13.0970 O   0  0  0  0  0  0  0  0  0  0  0  0
   20.2147   -4.8900  -14.2156 O   0  0  0  0  0  0  0  0  0  0  0  0
  1  2  1  0
  3  2  1  0
  4  3  1  0
  5  4  1  0
  5  6  1  6
  5  1  1  0
  6 10  1  0
  7  6  2  0
  9 11  1  0
  9 10  1  0
  9  8  1  1
 11 17  1  0
 12 11  2  0
 14 13  1  6
 14 15  1  0
 16 14  1  0
 16 17  1  6
 18 16  1  0
 19 18  1  0
 20 18  2  0
M  END
$$$$
