PAV.pdb
     RDKit          3D

 20 20  0  0  1  0  0  0  0  0999 V2000
   26.1302  -20.2308  -13.7512 N   0  0  0  0  0  0  0  0  0  0  0  0
   27.0332  -20.1459  -14.8677 C   0  0  0  0  0  0  0  0  0  0  0  0
   28.1872  -21.1019  -14.5380 C   0  0  0  0  0  0  0  0  0  0  0  0
   28.2765  -20.8852  -13.0215 C   0  0  0  0  0  0  0  0  0  0  0  0
   26.8036  -20.8600  -12.6644 C   0  0  1  0  0  0  0  0  0  0  0  0
   26.5670  -20.2114  -11.3603 C   0  0  0  0  0  0  0  0  0  0  0  0
   26.9714  -19.0643  -11.0833 O   0  0  0  0  0  0  0  0  0  0  0  0
   24.2906  -20.8821   -8.4773 C   0  0  0  0  0  0  0  0  0  0  0  0
   25.6149  -20.3859   -9.0375 C   0  0  2  0  0  0  0  0  0  0  0  0
   25.8463  -20.9167  -10.3666 N   0  0  0  0  0  0  0  0  0  0  0  0
   26.7229  -20.7065   -8.1127 C   0  0  0  0  0  0  0  0  0  0  0  0
   27.2878  -21.8222   -8.2321 O   0  0  0  0  0  0  0  0  0  0  0  0
   28.1764  -17.8785   -5.1539 C   0  0  0  0  0  0  0  0  0  0  0  0
   29.0563  -18.9095   -5.8201 C   0  0  1  0  0  0  0  0  0  0  0  0
   30.2461  -19.2232   -4.9769 C   0  0  0  0  0  0  0  0  0  0  0  0
   28.2620  -20.1456   -6.1891 C   0  0  2  0  0  0  0  0  0  0  0  0
   27.1840  -19.8331   -7.1033 N   0  0  0  0  0  0  0  0  0  0  0  0
   27.6883  -20.8083   -5.0028 C   0  0  0  0  0  0  0  0  0  0  0  0
   26.3168  -20.8566   -4.8488 O   0  0  0  0  0  0  0  0  0  0  0  0
   28.3912  -21.3411   -4.1083 O   0  0  0  0  0  0  0  0  0  0  0  0
  1  2  1  0
  3  2  1  0
  4  3  1  0
  5  4  1  0
  5  6  1  1
  5  1  1  0
  6 10  1  0
  7  6  2  0
  9 11  1  0
  9 10  1  0
  9  8  1  1
 11 17  1  0
 12 11  2  0
 14 13  1  1
 14 15  1  0
 16 14  1  0
 16 17  1  6
 18 16  1  0
 19 18  1  0
 20 18  2  0
M  END
$$$$
