PAV.pdb
     RDKit          3D

 20 20  0  0  1  0  0  0  0  0999 V2000
   26.5675  -19.7693  -15.5543 N   0  0  0  0  0  0  0  0  0  0  0  0
   26.5352  -19.0023  -16.7708 C   0  0  0  0  0  0  0  0  0  0  0  0
   27.7771  -18.1025  -16.7238 C   0  0  0  0  0  0  0  0  0  0  0  0
   27.8165  -17.7955  -15.2208 C   0  0  0  0  0  0  0  0  0  0  0  0
   27.4940  -19.1646  -14.6562 C   0  0  1  0  0  0  0  0  0  0  0  0
   27.0095  -19.0833  -13.2648 C   0  0  0  0  0  0  0  0  0  0  0  0
   27.6561  -18.5418  -12.3457 O   0  0  0  0  0  0  0  0  0  0  0  0
   23.6332  -19.7892  -11.7243 C   0  0  0  0  0  0  0  0  0  0  0  0
   25.1205  -19.4786  -11.6500 C   0  0  2  0  0  0  0  0  0  0  0  0
   25.7495  -19.6443  -12.9456 N   0  0  0  0  0  0  0  0  0  0  0  0
   25.7717  -20.3021  -10.6090 C   0  0  0  0  0  0  0  0  0  0  0  0
   26.1077  -21.4749  -10.9082 O   0  0  0  0  0  0  0  0  0  0  0  0
   26.7399  -18.7163   -6.6975 C   0  0  0  0  0  0  0  0  0  0  0  0
   27.5667  -19.7775   -7.3842 C   0  0  1  0  0  0  0  0  0  0  0  0
   28.3389  -20.5800   -6.3918 C   0  0  0  0  0  0  0  0  0  0  0  0
   26.7061  -20.6386   -8.2858 C   0  0  2  0  0  0  0  0  0  0  0  0
   26.0385  -19.8485   -9.2985 N   0  0  0  0  0  0  0  0  0  0  0  0
   25.6830  -21.3826   -7.5272 C   0  0  0  0  0  0  0  0  0  0  0  0
   24.3581  -21.0055   -7.6242 O   0  0  0  0  0  0  0  0  0  0  0  0
   25.9552  -22.3582   -6.7842 O   0  0  0  0  0  0  0  0  0  0  0  0
  1  2  1  0
  3  2  1  0
  4  3  1  0
  5  4  1  0
  5  6  1  1
  5  1  1  0
  6 10  1  0
  7  6  2  0
  9 11  1  0
  9 10  1  0
  9  8  1  6
 11 17  1  0
 12 11  2  0
 14 13  1  1
 14 15  1  0
 16 14  1  0
 16 17  1  6
 18 16  1  0
 19 18  1  0
 20 18  2  0
M  END
$$$$
