PAV.pdb
     RDKit          3D

 20 20  0  0  1  0  0  0  0  0999 V2000
   27.7605  -19.3252  -15.5387 N   0  0  0  0  0  0  0  0  0  0  0  0
   29.0031  -19.5218  -16.2362 C   0  0  0  0  0  0  0  0  0  0  0  0
   28.6153  -19.8659  -17.6803 C   0  0  0  0  0  0  0  0  0  0  0  0
   27.3492  -20.6922  -17.4174 C   0  0  0  0  0  0  0  0  0  0  0  0
   26.7020  -19.8575  -16.3304 C   0  0  1  0  0  0  0  0  0  0  0  0
   25.7127  -20.6343  -15.5589 C   0  0  0  0  0  0  0  0  0  0  0  0
   24.6958  -21.1457  -16.0692 O   0  0  0  0  0  0  0  0  0  0  0  0
   25.5346  -21.6834  -11.9138 C   0  0  0  0  0  0  0  0  0  0  0  0
   24.9841  -21.5318  -13.3237 C   0  0  2  0  0  0  0  0  0  0  0  0
   25.9178  -20.8146  -14.1697 N   0  0  0  0  0  0  0  0  0  0  0  0
   23.6543  -20.8865  -13.2956 C   0  0  0  0  0  0  0  0  0  0  0  0
   23.5914  -19.6778  -12.9594 O   0  0  0  0  0  0  0  0  0  0  0  0
   21.5267  -19.8461  -15.8903 C   0  0  0  0  0  0  0  0  0  0  0  0
   20.6429  -20.7666  -15.0824 C   0  0  1  0  0  0  0  0  0  0  0  0
   20.4779  -22.0837  -15.7628 C   0  0  0  0  0  0  0  0  0  0  0  0
   21.1546  -20.9045  -13.6631 C   0  0  2  0  0  0  0  0  0  0  0  0
   22.4507  -21.5481  -13.6241 N   0  0  0  0  0  0  0  0  0  0  0  0
   20.2270  -21.6752  -12.8137 C   0  0  0  0  0  0  0  0  0  0  0  0
   20.5505  -22.9689  -12.4552 O   0  0  0  0  0  0  0  0  0  0  0  0
   19.1391  -21.2112  -12.3907 O   0  0  0  0  0  0  0  0  0  0  0  0
  1  2  1  0
  3  2  1  0
  4  3  1  0
  5  4  1  0
  5  6  1  1
  5  1  1  0
  6 10  1  0
  7  6  2  0
  9 11  1  0
  9 10  1  0
  9  8  1  1
 11 17  1  0
 12 11  2  0
 14 13  1  6
 14 15  1  0
 16 14  1  0
 16 17  1  6
 18 16  1  0
 19 18  1  0
 20 18  2  0
M  END
$$$$
