PAV.pdb
     RDKit          3D

 20 20  0  0  1  0  0  0  0  0999 V2000
   30.4758  -27.2042  -18.4525 N   0  0  0  0  0  0  0  0  0  0  0  0
   31.6383  -28.0057  -18.1779 C   0  0  0  0  0  0  0  0  0  0  0  0
   31.1259  -29.2186  -17.3902 C   0  0  0  0  0  0  0  0  0  0  0  0
   30.0252  -28.5423  -16.5621 C   0  0  0  0  0  0  0  0  0  0  0  0
   29.4097  -27.6414  -17.6142 C   0  0  1  0  0  0  0  0  0  0  0  0
   28.6371  -26.5399  -17.0084 C   0  0  0  0  0  0  0  0  0  0  0  0
   27.7712  -26.7150  -16.1277 O   0  0  0  0  0  0  0  0  0  0  0  0
   29.1583  -22.9713  -16.5002 C   0  0  0  0  0  0  0  0  0  0  0  0
   28.1813  -24.0676  -16.8969 C   0  0  2  0  0  0  0  0  0  0  0  0
   28.8825  -25.2142  -17.4404 N   0  0  0  0  0  0  0  0  0  0  0  0
   27.1659  -23.5439  -17.8351 C   0  0  0  0  0  0  0  0  0  0  0  0
   27.4462  -23.5266  -19.0595 O   0  0  0  0  0  0  0  0  0  0  0  0
   24.0733  -24.9143  -18.9658 C   0  0  0  0  0  0  0  0  0  0  0  0
   23.6912  -23.5838  -18.3618 C   0  0  1  0  0  0  0  0  0  0  0  0
   23.0928  -23.7630  -17.0071 C   0  0  0  0  0  0  0  0  0  0  0  0
   24.8686  -22.6306  -18.3567 C   0  0  2  0  0  0  0  0  0  0  0  0
   25.8996  -23.0620  -17.4367 N   0  0  0  0  0  0  0  0  0  0  0  0
   24.4669  -21.2582  -17.9946 C   0  0  0  0  0  0  0  0  0  0  0  0
   23.8468  -20.4614  -18.9368 O   0  0  0  0  0  0  0  0  0  0  0  0
   24.6614  -20.7651  -16.8558 O   0  0  0  0  0  0  0  0  0  0  0  0
  1  2  1  0
  3  2  1  0
  4  3  1  0
  5  4  1  0
  5  6  1  1
  5  1  1  0
  6 10  1  0
  7  6  2  0
  9 11  1  0
  9 10  1  0
  9  8  1  6
 11 17  1  0
 12 11  2  0
 14 13  1  1
 14 15  1  0
 16 14  1  0
 16 17  1  1
 18 16  1  0
 19 18  1  0
 20 18  2  0
M  END
$$$$
