PAV.pdb
     RDKit          3D

 20 20  0  0  1  0  0  0  0  0999 V2000
   13.8543  -10.4043  -10.7257 N   0  0  0  0  0  0  0  0  0  0  0  0
   13.8780  -11.8260  -10.9436 C   0  0  0  0  0  0  0  0  0  0  0  0
   14.9440  -12.3722   -9.9846 C   0  0  0  0  0  0  0  0  0  0  0  0
   15.9603  -11.2241  -10.0476 C   0  0  0  0  0  0  0  0  0  0  0  0
   15.0252  -10.0320  -10.0041 C   0  0  1  0  0  0  0  0  0  0  0  0
   15.6743   -8.8077  -10.5111 C   0  0  0  0  0  0  0  0  0  0  0  0
   15.8837   -8.5959  -11.7225 O   0  0  0  0  0  0  0  0  0  0  0  0
   16.5540   -5.5137   -8.9059 C   0  0  0  0  0  0  0  0  0  0  0  0
   16.6999   -6.5694   -9.9914 C   0  0  2  0  0  0  0  0  0  0  0  0
   16.0838   -7.8175   -9.5859 N   0  0  0  0  0  0  0  0  0  0  0  0
   18.1217   -6.7466  -10.3559 C   0  0  0  0  0  0  0  0  0  0  0  0
   18.8661   -7.3587   -9.5503 O   0  0  0  0  0  0  0  0  0  0  0  0
   19.2008   -7.0619  -14.2848 C   0  0  0  0  0  0  0  0  0  0  0  0
   20.0514   -7.5550  -13.1382 C   0  0  1  0  0  0  0  0  0  0  0  0
   21.4315   -7.8844  -13.5985 C   0  0  0  0  0  0  0  0  0  0  0  0
   20.0409   -6.5676  -11.9894 C   0  0  2  0  0  0  0  0  0  0  0  0
   18.6925   -6.2685  -11.5559 N   0  0  0  0  0  0  0  0  0  0  0  0
   20.7072   -5.3002  -12.3439 C   0  0  0  0  0  0  0  0  0  0  0  0
   22.0864   -5.2478  -12.3891 O   0  0  0  0  0  0  0  0  0  0  0  0
   20.0779   -4.2467  -12.6120 O   0  0  0  0  0  0  0  0  0  0  0  0
  1  2  1  0
  3  2  1  0
  4  3  1  0
  5  4  1  0
  5  6  1  6
  5  1  1  0
  6 10  1  0
  7  6  2  0
  9 11  1  0
  9 10  1  0
  9  8  1  1
 11 17  1  0
 12 11  2  0
 14 13  1  6
 14 15  1  0
 16 14  1  0
 16 17  1  6
 18 16  1  0
 19 18  1  0
 20 18  2  0
M  END
$$$$
