PAV.pdb
     RDKit          3D

 20 20  0  0  1  0  0  0  0  0999 V2000
   17.8634  -14.0780  -19.4706 N   0  0  0  0  0  0  0  0  0  0  0  0
   17.7491  -15.3151  -20.1957 C   0  0  0  0  0  0  0  0  0  0  0  0
   17.9755  -16.4231  -19.1586 C   0  0  0  0  0  0  0  0  0  0  0  0
   19.0389  -15.7449  -18.2846 C   0  0  0  0  0  0  0  0  0  0  0  0
   18.4728  -14.3409  -18.2097 C   0  0  1  0  0  0  0  0  0  0  0  0
   19.5019  -13.3549  -17.8274 C   0  0  0  0  0  0  0  0  0  0  0  0
   20.1922  -13.4525  -16.7931 O   0  0  0  0  0  0  0  0  0  0  0  0
   20.9388  -10.3377  -19.6203 C   0  0  0  0  0  0  0  0  0  0  0  0
   20.7816  -11.2742  -18.4320 C   0  0  2  0  0  0  0  0  0  0  0  0
   19.7253  -12.2386  -18.6690 N   0  0  0  0  0  0  0  0  0  0  0  0
   20.5596  -10.5042  -17.1896 C   0  0  0  0  0  0  0  0  0  0  0  0
   19.3752  -10.2615  -16.8488 O   0  0  0  0  0  0  0  0  0  0  0  0
   23.6590  -10.0479  -14.2984 C   0  0  0  0  0  0  0  0  0  0  0  0
   22.1819  -10.0488  -13.9830 C   0  0  1  0  0  0  0  0  0  0  0  0
   21.9203   -9.4487  -12.6426 C   0  0  0  0  0  0  0  0  0  0  0  0
   21.3898   -9.3774  -15.0861 C   0  0  2  0  0  0  0  0  0  0  0  0
   21.6000  -10.0254  -16.3633 N   0  0  0  0  0  0  0  0  0  0  0  0
   21.7369   -7.9506  -15.2258 C   0  0  0  0  0  0  0  0  0  0  0  0
   21.2526   -7.0409  -14.3066 O   0  0  0  0  0  0  0  0  0  0  0  0
   22.4620   -7.5092  -16.1517 O   0  0  0  0  0  0  0  0  0  0  0  0
  1  2  1  0
  3  2  1  0
  4  3  1  0
  5  4  1  0
  5  6  1  6
  5  1  1  0
  6 10  1  0
  7  6  2  0
  9 11  1  0
  9 10  1  0
  9  8  1  6
 11 17  1  0
 12 11  2  0
 14 13  1  6
 14 15  1  0
 16 14  1  0
 16 17  1  6
 18 16  1  0
 19 18  1  0
 20 18  2  0
M  END
$$$$
