PAV.pdb
     RDKit          3D

 20 20  0  0  1  0  0  0  0  0999 V2000
   26.3302  -18.2221  -16.0610 N   0  0  0  0  0  0  0  0  0  0  0  0
   27.3898  -17.6985  -16.8809 C   0  0  0  0  0  0  0  0  0  0  0  0
   28.6284  -18.5371  -16.5390 C   0  0  0  0  0  0  0  0  0  0  0  0
   28.3901  -18.7491  -15.0379 C   0  0  0  0  0  0  0  0  0  0  0  0
   26.9012  -19.0328  -15.0376 C   0  0  1  0  0  0  0  0  0  0  0  0
   26.3033  -18.8204  -13.7054 C   0  0  0  0  0  0  0  0  0  0  0  0
   26.2201  -17.6999  -13.1635 O   0  0  0  0  0  0  0  0  0  0  0  0
   23.7868  -20.4494  -11.6968 C   0  0  0  0  0  0  0  0  0  0  0  0
   25.1735  -19.8240  -11.6932 C   0  0  2  0  0  0  0  0  0  0  0  0
   25.7956  -19.9366  -12.9979 N   0  0  0  0  0  0  0  0  0  0  0  0
   26.0089  -20.4188  -10.6284 C   0  0  0  0  0  0  0  0  0  0  0  0
   26.5988  -21.5001  -10.8751 O   0  0  0  0  0  0  0  0  0  0  0  0
   26.5466  -18.5221   -6.7561 C   0  0  0  0  0  0  0  0  0  0  0  0
   27.5943  -19.4018   -7.3963 C   0  0  1  0  0  0  0  0  0  0  0  0
   28.4953  -19.9968   -6.3671 C   0  0  0  0  0  0  0  0  0  0  0  0
   26.9557  -20.4485   -8.2861 C   0  0  2  0  0  0  0  0  0  0  0  0
   26.1831  -19.8437   -9.3504 N   0  0  0  0  0  0  0  0  0  0  0  0
   26.0728  -21.3545   -7.5275 C   0  0  0  0  0  0  0  0  0  0  0  0
   26.6081  -22.4740   -6.9215 O   0  0  0  0  0  0  0  0  0  0  0  0
   24.8383  -21.1605   -7.4000 O   0  0  0  0  0  0  0  0  0  0  0  0
  1  2  1  0
  3  2  1  0
  4  3  1  0
  5  4  1  0
  5  6  1  1
  5  1  1  0
  6 10  1  0
  7  6  2  0
  9 11  1  0
  9 10  1  0
  9  8  1  6
 11 17  1  0
 12 11  2  0
 14 13  1  1
 14 15  1  0
 16 14  1  0
 16 17  1  6
 18 16  1  0
 19 18  1  0
 20 18  2  0
M  END
$$$$
