PAV.pdb
     RDKit          3D

 20 20  0  0  1  0  0  0  0  0999 V2000
   27.0966  -17.7824  -17.9842 N   0  0  0  0  0  0  0  0  0  0  0  0
   27.3947  -16.7182  -18.9050 C   0  0  0  0  0  0  0  0  0  0  0  0
   28.5516  -15.9357  -18.2699 C   0  0  0  0  0  0  0  0  0  0  0  0
   28.1551  -16.0434  -16.7914 C   0  0  0  0  0  0  0  0  0  0  0  0
   27.7157  -17.4929  -16.7339 C   0  0  1  0  0  0  0  0  0  0  0  0
   26.8538  -17.7582  -15.5660 C   0  0  0  0  0  0  0  0  0  0  0  0
   27.1812  -17.4759  -14.3958 O   0  0  0  0  0  0  0  0  0  0  0  0
   23.2134  -18.5575  -15.2215 C   0  0  0  0  0  0  0  0  0  0  0  0
   24.6416  -18.5866  -14.6987 C   0  0  2  0  0  0  0  0  0  0  0  0
   25.5904  -18.3630  -15.7718 N   0  0  0  0  0  0  0  0  0  0  0  0
   24.9062  -19.8514  -13.9804 C   0  0  0  0  0  0  0  0  0  0  0  0
   25.1608  -20.8755  -14.6619 O   0  0  0  0  0  0  0  0  0  0  0  0
   27.5979  -20.4888  -11.5285 C   0  0  0  0  0  0  0  0  0  0  0  0
   26.3314  -20.9559  -10.8511 C   0  0  1  0  0  0  0  0  0  0  0  0
   25.9247  -20.0139   -9.7684 C   0  0  0  0  0  0  0  0  0  0  0  0
   25.2285  -21.1912  -11.8627 C   0  0  2  0  0  0  0  0  0  0  0  0
   24.8897  -19.9768  -12.5739 N   0  0  0  0  0  0  0  0  0  0  0  0
   24.0034  -21.7180  -11.2321 C   0  0  0  0  0  0  0  0  0  0  0  0
   24.0034  -22.9977  -10.7132 O   0  0  0  0  0  0  0  0  0  0  0  0
   22.9407  -21.0547  -11.1394 O   0  0  0  0  0  0  0  0  0  0  0  0
  1  2  1  0
  3  2  1  0
  4  3  1  0
  5  4  1  0
  5  6  1  1
  5  1  1  0
  6 10  1  0
  7  6  2  0
  9 11  1  0
  9 10  1  0
  9  8  1  6
 11 17  1  0
 12 11  2  0
 14 13  1  6
 14 15  1  0
 16 14  1  0
 16 17  1  1
 18 16  1  0
 19 18  1  0
 20 18  2  0
M  END
$$$$
