PAV.pdb
     RDKit          3D

 20 20  0  0  1  0  0  0  0  0999 V2000
   20.7330  -11.1874  -18.5603 N   0  0  0  0  0  0  0  0  0  0  0  0
   21.4584  -11.5467  -19.7493 C   0  0  0  0  0  0  0  0  0  0  0  0
   22.9177  -11.1606  -19.4743 C   0  0  0  0  0  0  0  0  0  0  0  0
   22.6963   -9.8821  -18.6550 C   0  0  0  0  0  0  0  0  0  0  0  0
   21.5458  -10.3223  -17.7719 C   0  0  1  0  0  0  0  0  0  0  0  0
   20.8171   -9.1704  -17.2066 C   0  0  0  0  0  0  0  0  0  0  0  0
   19.8392   -8.6370  -17.7681 O   0  0  0  0  0  0  0  0  0  0  0  0
   20.9507   -7.4538  -13.8421 C   0  0  0  0  0  0  0  0  0  0  0  0
   20.5581   -7.5377  -15.3094 C   0  0  2  0  0  0  0  0  0  0  0  0
   21.2401   -8.6358  -15.9659 N   0  0  0  0  0  0  0  0  0  0  0  0
   20.8055   -6.2476  -15.9878 C   0  0  0  0  0  0  0  0  0  0  0  0
   21.9508   -6.0385  -16.4597 O   0  0  0  0  0  0  0  0  0  0  0  0
   18.8536   -4.7025  -18.9318 C   0  0  0  0  0  0  0  0  0  0  0  0
   18.9031   -3.6989  -17.8042 C   0  0  1  0  0  0  0  0  0  0  0  0
   17.5881   -3.6138  -17.1052 C   0  0  0  0  0  0  0  0  0  0  0  0
   20.0471   -4.0001  -16.8579 C   0  0  2  0  0  0  0  0  0  0  0  0
   19.8309   -5.2366  -16.1369 N   0  0  0  0  0  0  0  0  0  0  0  0
   20.2510   -2.9187  -15.8756 C   0  0  0  0  0  0  0  0  0  0  0  0
   20.9341   -1.7792  -16.2523 O   0  0  0  0  0  0  0  0  0  0  0  0
   19.8299   -2.9780  -14.6936 O   0  0  0  0  0  0  0  0  0  0  0  0
  1  2  1  0
  3  2  1  0
  4  3  1  0
  5  4  1  0
  5  6  1  6
  5  1  1  0
  6 10  1  0
  7  6  2  0
  9 11  1  0
  9 10  1  0
  9  8  1  1
 11 17  1  0
 12 11  2  0
 14 13  1  6
 14 15  1  0
 16 14  1  0
 16 17  1  1
 18 16  1  0
 19 18  1  0
 20 18  2  0
M  END
$$$$
