IEN.pdb
     RDKit          3D

 26 25  0  0  1  0  0  0  0  0999 V2000
    6.9156  -11.4141   27.3883 C   0  0  0  0  0  0  0  0  0  0  0  0
    6.2626  -12.5029   26.6074 C   0  0  0  0  0  0  0  0  0  0  0  0
    7.2048  -13.3010   25.7269 C   0  0  2  0  0  0  0  0  0  0  0  0
    7.5502  -12.3966   24.5551 C   0  0  0  0  0  0  0  0  0  0  0  0
    6.4823  -14.5147   25.2551 C   0  0  2  0  0  0  0  0  0  0  0  0
    5.4639  -14.8362   26.2227 N   0  0  0  0  0  0  0  0  0  0  0  0
    7.3558  -15.6667   24.9049 C   0  0  0  0  0  0  0  0  0  0  0  0
    7.2079  -16.7457   25.5295 O   0  0  0  0  0  0  0  0  0  0  0  0
    8.3430  -15.5893   23.8970 N   0  0  0  0  0  0  0  0  0  0  0  0
    9.2056  -16.6892   23.4670 C   0  0  1  0  0  0  0  0  0  0  0  0
    9.6242  -16.4415   22.0198 C   0  0  0  0  0  0  0  0  0  0  0  0
   10.5987  -17.4131   21.4667 C   0  0  0  0  0  0  0  0  0  0  0  0
   10.8214  -17.0359   20.0360 C   0  0  0  0  0  0  0  0  0  0  0  0
   10.3778  -15.9427   19.6331 O   0  0  0  0  0  0  0  0  0  0  0  0
   10.3649  -16.8475   24.3073 C   0  0  0  0  0  0  0  0  0  0  0  0
   10.7794  -15.7708   24.9028 O   0  0  0  0  0  0  0  0  0  0  0  0
   11.4940  -17.8792   19.2004 O   0  0  0  0  0  0  0  0  0  0  0  0
   10.2161  -20.3342   28.5840 N   0  0  0  0  0  0  0  0  0  0  0  0
   10.5719  -19.0216   28.2062 C   0  0  0  0  0  0  0  0  0  0  0  0
   11.1583  -18.2770   29.0413 O   0  0  0  0  0  0  0  0  0  0  0  0
   10.2537  -18.5481   26.8526 C   0  0  0  0  0  0  0  0  0  0  0  0
   11.4751  -18.3742   25.9667 C   0  0  2  0  0  0  0  0  0  0  0  0
   11.1410  -17.9798   24.6121 N   0  0  0  0  0  0  0  0  0  0  0  0
   12.1316  -19.7019   25.9080 C   0  0  0  0  0  0  0  0  0  0  0  0
   13.0697  -20.1433   26.8268 O   0  0  0  0  0  0  0  0  0  0  0  0
   11.8543  -20.5185   24.9818 O   0  0  0  0  0  0  0  0  0  0  0  0
  2  1  1  0
  3  5  1  0
  3  2  1  0
  3  4  1  6
  5  6  1  1
  7  5  1  0
  7  8  2  0
  9  7  1  0
 10  9  1  0
 10 11  1  6
 12 11  1  0
 12 13  1  0
 13 14  2  0
 15 10  1  0
 16 15  2  0
 17 13  1  0
 18 19  1  0
 19 20  2  0
 19 21  1  0
 22 21  1  1
 22 23  1  0
 22 24  1  0
 23 15  1  0
 24 25  1  0
 26 24  2  0
M  END
$$$$
