IEN.pdb
     RDKit          3D

 26 25  0  0  1  0  0  0  0  0999 V2000
    7.0311  -12.0459   19.8728 C   0  0  0  0  0  0  0  0  0  0  0  0
    7.7142  -12.9514   18.9058 C   0  0  0  0  0  0  0  0  0  0  0  0
    8.9678  -13.6164   19.4406 C   0  0  2  0  0  0  0  0  0  0  0  0
    9.9389  -12.4898   19.7536 C   0  0  0  0  0  0  0  0  0  0  0  0
    9.5166  -14.4979   18.3732 C   0  0  2  0  0  0  0  0  0  0  0  0
    8.4853  -15.4253   17.9815 N   0  0  0  0  0  0  0  0  0  0  0  0
   10.8107  -15.1520   18.7052 C   0  0  0  0  0  0  0  0  0  0  0  0
   10.7920  -16.2359   19.3385 O   0  0  0  0  0  0  0  0  0  0  0  0
   12.0563  -14.5980   18.3338 N   0  0  0  0  0  0  0  0  0  0  0  0
   13.3662  -15.1708   18.6415 C   0  0  1  0  0  0  0  0  0  0  0  0
   14.4293  -14.3982   17.8646 C   0  0  0  0  0  0  0  0  0  0  0  0
   15.8295  -14.8147   18.1210 C   0  0  0  0  0  0  0  0  0  0  0  0
   16.4964  -14.9349   16.7870 C   0  0  0  0  0  0  0  0  0  0  0  0
   16.4289  -16.0240   16.1842 O   0  0  0  0  0  0  0  0  0  0  0  0
   13.6617  -15.1565   20.0513 C   0  0  0  0  0  0  0  0  0  0  0  0
   13.6261  -13.9907   20.6218 O   0  0  0  0  0  0  0  0  0  0  0  0
   17.1626  -13.8700   16.2540 O   0  0  0  0  0  0  0  0  0  0  0  0
   11.8934  -18.6150   22.5990 N   0  0  0  0  0  0  0  0  0  0  0  0
   12.3723  -17.4258   23.1894 C   0  0  0  0  0  0  0  0  0  0  0  0
   11.5474  -16.6076   23.6851 O   0  0  0  0  0  0  0  0  0  0  0  0
   13.8173  -17.1633   23.2155 C   0  0  0  0  0  0  0  0  0  0  0  0
   14.2367  -15.9853   22.3534 C   0  0  2  0  0  0  0  0  0  0  0  0
   13.9811  -16.1967   20.9419 N   0  0  0  0  0  0  0  0  0  0  0  0
   15.7008  -15.8433   22.5371 C   0  0  0  0  0  0  0  0  0  0  0  0
   16.3005  -15.4939   23.7360 O   0  0  0  0  0  0  0  0  0  0  0  0
   16.4945  -16.0410   21.5715 O   0  0  0  0  0  0  0  0  0  0  0  0
  2  1  1  0
  3  5  1  0
  3  2  1  0
  3  4  1  6
  5  6  1  1
  7  5  1  0
  7  8  2  0
  9  7  1  0
 10  9  1  0
 10 11  1  6
 12 11  1  0
 12 13  1  0
 13 14  2  0
 15 10  1  0
 16 15  2  0
 17 13  1  0
 18 19  1  0
 19 20  2  0
 19 21  1  0
 22 21  1  1
 22 23  1  0
 22 24  1  0
 23 15  1  0
 24 25  1  0
 26 24  2  0
M  END
$$$$
