IEN.pdb
     RDKit          3D

 26 25  0  0  1  0  0  0  0  0999 V2000
    6.1056  -11.4568   26.9826 C   0  0  0  0  0  0  0  0  0  0  0  0
    5.8860  -12.7108   26.2074 C   0  0  0  0  0  0  0  0  0  0  0  0
    7.0673  -13.6617   26.1967 C   0  0  2  0  0  0  0  0  0  0  0  0
    8.2041  -12.9103   25.5232 C   0  0  0  0  0  0  0  0  0  0  0  0
    6.6896  -14.8616   25.3998 C   0  0  2  0  0  0  0  0  0  0  0  0
    5.4932  -15.4239   25.9736 N   0  0  0  0  0  0  0  0  0  0  0  0
    7.7808  -15.8541   25.2071 C   0  0  0  0  0  0  0  0  0  0  0  0
    7.9464  -16.7430   26.0782 O   0  0  0  0  0  0  0  0  0  0  0  0
    8.6345  -15.8316   24.0815 N   0  0  0  0  0  0  0  0  0  0  0  0
    9.6913  -16.8019   23.7977 C   0  0  1  0  0  0  0  0  0  0  0  0
   10.3526  -16.4270   22.4737 C   0  0  0  0  0  0  0  0  0  0  0  0
    9.4859  -16.5469   21.2761 C   0  0  0  0  0  0  0  0  0  0  0  0
   10.3915  -16.7834   20.1086 C   0  0  0  0  0  0  0  0  0  0  0  0
   10.3923  -15.9532   19.1787 O   0  0  0  0  0  0  0  0  0  0  0  0
   10.6736  -16.8771   24.8486 C   0  0  0  0  0  0  0  0  0  0  0  0
   10.5276  -16.0249   25.8172 O   0  0  0  0  0  0  0  0  0  0  0  0
   11.1918  -17.8880   20.0732 O   0  0  0  0  0  0  0  0  0  0  0  0
   10.1774  -17.6534   28.1548 N   0  0  0  0  0  0  0  0  0  0  0  0
   10.0143  -18.9438   27.6066 C   0  0  0  0  0  0  0  0  0  0  0  0
    9.0314  -19.6488   27.9705 O   0  0  0  0  0  0  0  0  0  0  0  0
   10.9889  -19.4408   26.6264 C   0  0  0  0  0  0  0  0  0  0  0  0
   12.0584  -18.4251   26.2640 C   0  0  2  0  0  0  0  0  0  0  0  0
   11.7800  -17.7271   25.0240 N   0  0  0  0  0  0  0  0  0  0  0  0
   13.3117  -19.1958   26.0837 C   0  0  0  0  0  0  0  0  0  0  0  0
   13.9385  -19.3802   24.8622 O   0  0  0  0  0  0  0  0  0  0  0  0
   13.8832  -19.7392   27.0735 O   0  0  0  0  0  0  0  0  0  0  0  0
  2  1  1  0
  3  5  1  0
  3  2  1  0
  3  4  1  6
  5  6  1  1
  7  5  1  0
  7  8  2  0
  9  7  1  0
 10  9  1  0
 10 11  1  6
 12 11  1  0
 12 13  1  0
 13 14  2  0
 15 10  1  0
 16 15  2  0
 17 13  1  0
 18 19  1  0
 19 20  2  0
 19 21  1  0
 22 21  1  6
 22 23  1  0
 22 24  1  0
 23 15  1  0
 24 25  1  0
 26 24  2  0
M  END
$$$$
