IEN.pdb
     RDKit          3D

 26 25  0  0  1  0  0  0  0  0999 V2000
    6.6831  -12.3020   19.7591 C   0  0  0  0  0  0  0  0  0  0  0  0
    7.4783  -13.0431   18.7392 C   0  0  0  0  0  0  0  0  0  0  0  0
    8.6630  -13.8086   19.2962 C   0  0  2  0  0  0  0  0  0  0  0  0
    9.5612  -12.7722   19.9513 C   0  0  0  0  0  0  0  0  0  0  0  0
    9.3660  -14.4662   18.1600 C   0  0  2  0  0  0  0  0  0  0  0  0
    8.4150  -15.2930   17.4608 N   0  0  0  0  0  0  0  0  0  0  0  0
   10.6185  -15.1796   18.5272 C   0  0  0  0  0  0  0  0  0  0  0  0
   10.5320  -16.3234   19.0377 O   0  0  0  0  0  0  0  0  0  0  0  0
   11.8983  -14.6169   18.3222 N   0  0  0  0  0  0  0  0  0  0  0  0
   13.1700  -15.2512   18.6671 C   0  0  1  0  0  0  0  0  0  0  0  0
   14.2927  -14.5177   17.9375 C   0  0  0  0  0  0  0  0  0  0  0  0
   15.6643  -14.9888   18.2483 C   0  0  0  0  0  0  0  0  0  0  0  0
   16.6026  -14.1602   17.4286 C   0  0  0  0  0  0  0  0  0  0  0  0
   17.2902  -13.2946   18.0047 O   0  0  0  0  0  0  0  0  0  0  0  0
   13.4165  -15.2667   20.0863 C   0  0  0  0  0  0  0  0  0  0  0  0
   13.1370  -14.1673   20.7179 O   0  0  0  0  0  0  0  0  0  0  0  0
   16.6926  -14.3555   16.0811 O   0  0  0  0  0  0  0  0  0  0  0  0
   14.1816  -16.1217   25.1421 N   0  0  0  0  0  0  0  0  0  0  0  0
   13.5602  -17.2527   24.5704 C   0  0  0  0  0  0  0  0  0  0  0  0
   13.1718  -18.1897   25.3233 O   0  0  0  0  0  0  0  0  0  0  0  0
   13.3780  -17.3180   23.1143 C   0  0  0  0  0  0  0  0  0  0  0  0
   13.9882  -16.1419   22.3720 C   0  0  2  0  0  0  0  0  0  0  0  0
   13.9077  -16.2780   20.9307 N   0  0  0  0  0  0  0  0  0  0  0  0
   15.4213  -16.1172   22.7500 C   0  0  0  0  0  0  0  0  0  0  0  0
   15.9118  -15.4951   23.8865 O   0  0  0  0  0  0  0  0  0  0  0  0
   16.2901  -16.6825   22.0240 O   0  0  0  0  0  0  0  0  0  0  0  0
  2  1  1  0
  3  5  1  0
  3  2  1  0
  3  4  1  6
  5  6  1  1
  7  5  1  0
  7  8  2  0
  9  7  1  0
 10  9  1  0
 10 11  1  6
 12 11  1  0
 12 13  1  0
 13 14  2  0
 15 10  1  0
 16 15  2  0
 17 13  1  0
 18 19  1  0
 19 20  2  0
 19 21  1  0
 22 21  1  1
 22 23  1  0
 22 24  1  0
 23 15  1  0
 24 25  1  0
 26 24  2  0
M  END
$$$$
