IEN.pdb
     RDKit          3D

 26 25  0  0  1  0  0  0  0  0999 V2000
    6.0084  -11.3271   27.0216 C   0  0  0  0  0  0  0  0  0  0  0  0
    5.7418  -12.5827   26.2640 C   0  0  0  0  0  0  0  0  0  0  0  0
    6.9130  -13.5442   26.2029 C   0  0  2  0  0  0  0  0  0  0  0  0
    8.0220  -12.8076   25.4696 C   0  0  0  0  0  0  0  0  0  0  0  0
    6.4867  -14.7461   25.4340 C   0  0  2  0  0  0  0  0  0  0  0  0
    5.3192  -15.2982   26.0737 N   0  0  0  0  0  0  0  0  0  0  0  0
    7.5604  -15.7461   25.1892 C   0  0  0  0  0  0  0  0  0  0  0  0
    7.8045  -16.5970   26.0796 O   0  0  0  0  0  0  0  0  0  0  0  0
    8.3127  -15.7718   23.9935 N   0  0  0  0  0  0  0  0  0  0  0  0
    9.3600  -16.7398   23.6697 C   0  0  1  0  0  0  0  0  0  0  0  0
    9.8908  -16.4323   22.2717 C   0  0  0  0  0  0  0  0  0  0  0  0
   10.8647  -17.4130   21.7337 C   0  0  0  0  0  0  0  0  0  0  0  0
   11.1302  -17.0245   20.3133 C   0  0  0  0  0  0  0  0  0  0  0  0
   10.1649  -16.9419   19.5288 O   0  0  0  0  0  0  0  0  0  0  0  0
   10.4346  -16.7377   24.6291 C   0  0  0  0  0  0  0  0  0  0  0  0
   10.4510  -15.7346   25.4532 O   0  0  0  0  0  0  0  0  0  0  0  0
   12.4049  -16.7713   19.8976 O   0  0  0  0  0  0  0  0  0  0  0  0
   10.0150  -20.0317   28.8874 N   0  0  0  0  0  0  0  0  0  0  0  0
   10.4167  -18.8899   28.1613 C   0  0  0  0  0  0  0  0  0  0  0  0
   10.7058  -17.8313   28.7871 O   0  0  0  0  0  0  0  0  0  0  0  0
   10.4902  -18.9546   26.6957 C   0  0  0  0  0  0  0  0  0  0  0  0
   11.7298  -18.2929   26.1194 C   0  0  2  0  0  0  0  0  0  0  0  0
   11.4861  -17.6459   24.8449 N   0  0  0  0  0  0  0  0  0  0  0  0
   12.7114  -19.3817   25.8997 C   0  0  0  0  0  0  0  0  0  0  0  0
   13.8845  -19.5242   26.6226 O   0  0  0  0  0  0  0  0  0  0  0  0
   12.5136  -20.2588   25.0092 O   0  0  0  0  0  0  0  0  0  0  0  0
  2  1  1  0
  3  5  1  0
  3  2  1  0
  3  4  1  6
  5  6  1  1
  7  5  1  0
  7  8  2  0
  9  7  1  0
 10  9  1  0
 10 11  1  6
 12 11  1  0
 12 13  1  0
 13 14  2  0
 15 10  1  0
 16 15  2  0
 17 13  1  0
 18 19  1  0
 19 20  2  0
 19 21  1  0
 22 21  1  6
 22 23  1  0
 22 24  1  0
 23 15  1  0
 24 25  1  0
 26 24  2  0
M  END
$$$$
