IEN.pdb
     RDKit          3D

 26 25  0  0  1  0  0  0  0  0999 V2000
    8.1173  -11.1645   25.4850 C   0  0  0  0  0  0  0  0  0  0  0  0
    7.5734  -12.4262   24.9070 C   0  0  0  0  0  0  0  0  0  0  0  0
    6.3689  -12.9877   25.6376 C   0  0  2  0  0  0  0  0  0  0  0  0
    6.8145  -13.2059   27.0743 C   0  0  0  0  0  0  0  0  0  0  0  0
    6.0031  -14.2835   25.0014 C   0  0  2  0  0  0  0  0  0  0  0  0
    4.8361  -14.7995   25.6712 N   0  0  0  0  0  0  0  0  0  0  0  0
    7.1146  -15.2668   24.8995 C   0  0  0  0  0  0  0  0  0  0  0  0
    7.3722  -15.9889   25.8937 O   0  0  0  0  0  0  0  0  0  0  0  0
    7.8881  -15.4161   23.7266 N   0  0  0  0  0  0  0  0  0  0  0  0
    8.7867  -16.5334   23.4384 C   0  0  1  0  0  0  0  0  0  0  0  0
    9.5544  -16.2216   22.1561 C   0  0  0  0  0  0  0  0  0  0  0  0
   10.4741  -17.2888   21.6926 C   0  0  0  0  0  0  0  0  0  0  0  0
   11.0205  -16.8457   20.3720 C   0  0  0  0  0  0  0  0  0  0  0  0
   11.9813  -16.0515   20.3621 O   0  0  0  0  0  0  0  0  0  0  0  0
    9.6993  -16.8058   24.5191 C   0  0  0  0  0  0  0  0  0  0  0  0
   10.1535  -15.7645   25.1478 O   0  0  0  0  0  0  0  0  0  0  0  0
   10.4693  -17.3058   19.2117 O   0  0  0  0  0  0  0  0  0  0  0  0
   11.7584  -18.0502   29.2487 N   0  0  0  0  0  0  0  0  0  0  0  0
   11.0856  -19.0729   28.5461 C   0  0  0  0  0  0  0  0  0  0  0  0
   11.2340  -20.2729   28.9118 O   0  0  0  0  0  0  0  0  0  0  0  0
   10.2285  -18.7227   27.4058 C   0  0  0  0  0  0  0  0  0  0  0  0
   10.9860  -18.1059   26.2429 C   0  0  2  0  0  0  0  0  0  0  0  0
   10.1925  -18.0184   25.0325 N   0  0  0  0  0  0  0  0  0  0  0  0
   12.1313  -19.0079   25.9749 C   0  0  0  0  0  0  0  0  0  0  0  0
   13.4049  -18.8149   26.4848 O   0  0  0  0  0  0  0  0  0  0  0  0
   11.9905  -20.0293   25.2411 O   0  0  0  0  0  0  0  0  0  0  0  0
  2  1  1  0
  3  5  1  0
  3  2  1  0
  3  4  1  1
  5  6  1  1
  7  5  1  0
  7  8  2  0
  9  7  1  0
 10  9  1  0
 10 11  1  6
 12 11  1  0
 12 13  1  0
 13 14  2  0
 15 10  1  0
 16 15  2  0
 17 13  1  0
 18 19  1  0
 19 20  2  0
 19 21  1  0
 22 21  1  1
 22 23  1  0
 22 24  1  0
 23 15  1  0
 24 25  1  0
 26 24  2  0
M  END
$$$$
