IEN.pdb
     RDKit          3D

 26 25  0  0  1  0  0  0  0  0999 V2000
    7.8299  -12.2097   22.3538 C   0  0  0  0  0  0  0  0  0  0  0  0
    7.3907  -13.4755   21.7007 C   0  0  0  0  0  0  0  0  0  0  0  0
    7.9449  -13.6917   20.3058 C   0  0  2  0  0  0  0  0  0  0  0  0
    7.3640  -12.5802   19.4471 C   0  0  0  0  0  0  0  0  0  0  0  0
    7.4805  -15.0218   19.8232 C   0  0  2  0  0  0  0  0  0  0  0  0
    6.0413  -15.0484   19.8941 N   0  0  0  0  0  0  0  0  0  0  0  0
    8.1305  -16.1879   20.4793 C   0  0  0  0  0  0  0  0  0  0  0  0
    7.4985  -16.8063   21.3706 O   0  0  0  0  0  0  0  0  0  0  0  0
    9.4303  -16.6225   20.1357 N   0  0  0  0  0  0  0  0  0  0  0  0
   10.1203  -17.7757   20.7123 C   0  0  1  0  0  0  0  0  0  0  0  0
   11.1351  -18.2933   19.6959 C   0  0  0  0  0  0  0  0  0  0  0  0
   10.5630  -19.0637   18.5650 C   0  0  0  0  0  0  0  0  0  0  0  0
   11.5363  -18.9585   17.4334 C   0  0  0  0  0  0  0  0  0  0  0  0
   12.7255  -19.2699   17.6408 O   0  0  0  0  0  0  0  0  0  0  0  0
   10.7692  -17.4679   21.9610 C   0  0  0  0  0  0  0  0  0  0  0  0
   11.4944  -16.3909   21.9677 O   0  0  0  0  0  0  0  0  0  0  0  0
   11.1199  -18.5278   16.2075 O   0  0  0  0  0  0  0  0  0  0  0  0
   11.8414  -18.7714   27.7022 N   0  0  0  0  0  0  0  0  0  0  0  0
   11.2826  -19.0423   26.4347 C   0  0  0  0  0  0  0  0  0  0  0  0
   11.3240  -20.2207   25.9815 O   0  0  0  0  0  0  0  0  0  0  0  0
   10.6656  -17.9512   25.6690 C   0  0  0  0  0  0  0  0  0  0  0  0
   11.4074  -17.6125   24.3878 C   0  0  2  0  0  0  0  0  0  0  0  0
   10.7545  -18.1304   23.2012 N   0  0  0  0  0  0  0  0  0  0  0  0
   12.7357  -18.2611   24.4991 C   0  0  0  0  0  0  0  0  0  0  0  0
   13.2189  -19.1961   23.5983 O   0  0  0  0  0  0  0  0  0  0  0  0
   13.5130  -17.9796   25.4572 O   0  0  0  0  0  0  0  0  0  0  0  0
  2  1  1  0
  3  5  1  0
  3  2  1  0
  3  4  1  6
  5  6  1  1
  7  5  1  0
  7  8  2  0
  9  7  1  0
 10  9  1  0
 10 11  1  6
 12 11  1  0
 12 13  1  0
 13 14  2  0
 15 10  1  0
 16 15  2  0
 17 13  1  0
 18 19  1  0
 19 20  2  0
 19 21  1  0
 22 21  1  1
 22 23  1  0
 22 24  1  0
 23 15  1  0
 24 25  1  0
 26 24  2  0
M  END
$$$$
