IEN.pdb
     RDKit          3D

 26 25  0  0  1  0  0  0  0  0999 V2000
    7.9783  -12.3868   27.5690 C   0  0  0  0  0  0  0  0  0  0  0  0
    7.5039  -13.6547   26.9454 C   0  0  0  0  0  0  0  0  0  0  0  0
    7.4364  -13.6268   25.4307 C   0  0  2  0  0  0  0  0  0  0  0  0
    6.3175  -12.6601   25.0788 C   0  0  0  0  0  0  0  0  0  0  0  0
    7.1095  -14.9998   24.9556 C   0  0  2  0  0  0  0  0  0  0  0  0
    5.9157  -15.4378   25.6337 N   0  0  0  0  0  0  0  0  0  0  0  0
    8.2310  -15.9737   25.0357 C   0  0  0  0  0  0  0  0  0  0  0  0
    8.2232  -16.8259   25.9576 O   0  0  0  0  0  0  0  0  0  0  0  0
    9.3014  -15.9732   24.1134 N   0  0  0  0  0  0  0  0  0  0  0  0
   10.4587  -16.8663   24.1551 C   0  0  1  0  0  0  0  0  0  0  0  0
   11.2968  -16.6349   22.9002 C   0  0  0  0  0  0  0  0  0  0  0  0
   12.5149  -17.4735   22.7880 C   0  0  0  0  0  0  0  0  0  0  0  0
   13.1748  -17.1075   21.4959 C   0  0  0  0  0  0  0  0  0  0  0  0
   14.2269  -16.4399   21.5335 O   0  0  0  0  0  0  0  0  0  0  0  0
   11.2601  -16.6827   25.3379 C   0  0  0  0  0  0  0  0  0  0  0  0
   11.1983  -15.5055   25.8822 O   0  0  0  0  0  0  0  0  0  0  0  0
   12.6261  -17.4994   20.3097 O   0  0  0  0  0  0  0  0  0  0  0  0
   11.8707  -15.8208   29.5531 N   0  0  0  0  0  0  0  0  0  0  0  0
   10.7245  -16.5689   29.2084 C   0  0  0  0  0  0  0  0  0  0  0  0
    9.6440  -16.3631   29.8294 O   0  0  0  0  0  0  0  0  0  0  0  0
   10.8106  -17.5700   28.1369 C   0  0  0  0  0  0  0  0  0  0  0  0
   12.1761  -17.6364   27.4753 C   0  0  2  0  0  0  0  0  0  0  0  0
   12.1088  -17.5657   26.0287 N   0  0  0  0  0  0  0  0  0  0  0  0
   12.7464  -18.9542   27.8430 C   0  0  0  0  0  0  0  0  0  0  0  0
   13.7092  -19.1353   28.8226 O   0  0  0  0  0  0  0  0  0  0  0  0
   12.3657  -20.0087   27.2560 O   0  0  0  0  0  0  0  0  0  0  0  0
  2  1  1  0
  3  5  1  0
  3  2  1  0
  3  4  1  1
  5  6  1  1
  7  5  1  0
  7  8  2  0
  9  7  1  0
 10  9  1  0
 10 11  1  6
 12 11  1  0
 12 13  1  0
 13 14  2  0
 15 10  1  0
 16 15  2  0
 17 13  1  0
 18 19  1  0
 19 20  2  0
 19 21  1  0
 22 21  1  1
 22 23  1  0
 22 24  1  0
 23 15  1  0
 24 25  1  0
 26 24  2  0
M  END
$$$$
