IEN.pdb
     RDKit          3D

 26 25  0  0  1  0  0  0  0  0999 V2000
    5.9114  -11.3551   26.2907 C   0  0  0  0  0  0  0  0  0  0  0  0
    5.6672  -12.7392   25.7945 C   0  0  0  0  0  0  0  0  0  0  0  0
    6.9194  -13.4997   25.4027 C   0  0  2  0  0  0  0  0  0  0  0  0
    7.5046  -12.7583   24.2119 C   0  0  0  0  0  0  0  0  0  0  0  0
    6.5206  -14.8808   25.0140 C   0  0  2  0  0  0  0  0  0  0  0  0
    5.5292  -15.3434   25.9521 N   0  0  0  0  0  0  0  0  0  0  0  0
    7.6509  -15.8294   24.8262 C   0  0  0  0  0  0  0  0  0  0  0  0
    7.8288  -16.7305   25.6821 O   0  0  0  0  0  0  0  0  0  0  0  0
    8.5285  -15.7521   23.7215 N   0  0  0  0  0  0  0  0  0  0  0  0
    9.5832  -16.7148   23.4058 C   0  0  1  0  0  0  0  0  0  0  0  0
   10.0517  -16.4703   21.9735 C   0  0  0  0  0  0  0  0  0  0  0  0
   11.1494  -17.3517   21.5065 C   0  0  0  0  0  0  0  0  0  0  0  0
   11.4111  -16.9963   20.0768 C   0  0  0  0  0  0  0  0  0  0  0  0
   10.4547  -17.0038   19.2773 O   0  0  0  0  0  0  0  0  0  0  0  0
   10.6944  -16.6414   24.3195 C   0  0  0  0  0  0  0  0  0  0  0  0
   11.6597  -17.4814   24.0999 O   0  0  0  0  0  0  0  0  0  0  0  0
   12.6732  -16.6755   19.6691 O   0  0  0  0  0  0  0  0  0  0  0  0
    9.4120  -16.0261   28.3447 N   0  0  0  0  0  0  0  0  0  0  0  0
   10.6403  -15.3499   28.1820 C   0  0  0  0  0  0  0  0  0  0  0  0
   10.7031  -14.1148   28.4390 O   0  0  0  0  0  0  0  0  0  0  0  0
   11.8185  -16.0940   27.7176 C   0  0  0  0  0  0  0  0  0  0  0  0
   12.1250  -15.8892   26.2443 C   0  0  2  0  0  0  0  0  0  0  0  0
   10.9326  -15.8042   25.4239 N   0  0  0  0  0  0  0  0  0  0  0  0
   12.8917  -17.0830   25.8150 C   0  0  0  0  0  0  0  0  0  0  0  0
   14.1193  -17.4465   26.3443 O   0  0  0  0  0  0  0  0  0  0  0  0
   12.4425  -17.8484   24.9129 O   0  0  0  0  0  0  0  0  0  0  0  0
  2  1  1  0
  3  5  1  0
  3  2  1  0
  3  4  1  6
  5  6  1  1
  7  5  1  0
  7  8  2  0
  9  7  1  0
 10  9  1  0
 10 11  1  6
 12 11  1  0
 12 13  1  0
 13 14  2  0
 15 10  1  0
 16 15  2  0
 17 13  1  0
 18 19  1  0
 19 20  2  0
 19 21  1  0
 22 21  1  1
 22 23  1  0
 22 24  1  0
 23 15  1  0
 24 25  1  0
 26 24  2  0
M  END
$$$$
