IEN.pdb
     RDKit          3D

 26 25  0  0  1  0  0  0  0  0999 V2000
    7.0156  -11.8774   18.7495 C   0  0  0  0  0  0  0  0  0  0  0  0
    8.3219  -12.5952   18.7409 C   0  0  0  0  0  0  0  0  0  0  0  0
    8.4023  -13.7719   19.6942 C   0  0  2  0  0  0  0  0  0  0  0  0
    8.2072  -13.1966   21.0875 C   0  0  0  0  0  0  0  0  0  0  0  0
    9.7547  -14.3817   19.5652 C   0  0  2  0  0  0  0  0  0  0  0  0
    9.9080  -14.8535   18.2121 N   0  0  0  0  0  0  0  0  0  0  0  0
   10.0801  -15.4063   20.5934 C   0  0  0  0  0  0  0  0  0  0  0  0
   10.0512  -15.0744   21.8038 O   0  0  0  0  0  0  0  0  0  0  0  0
   10.4194  -16.7359   20.2563 N   0  0  0  0  0  0  0  0  0  0  0  0
   10.8173  -17.7768   21.2033 C   0  0  1  0  0  0  0  0  0  0  0  0
   11.6987  -18.7872   20.4730 C   0  0  0  0  0  0  0  0  0  0  0  0
   12.1145  -19.9627   21.2761 C   0  0  0  0  0  0  0  0  0  0  0  0
   12.9349  -20.8328   20.3769 C   0  0  0  0  0  0  0  0  0  0  0  0
   12.5059  -21.9688   20.0948 O   0  0  0  0  0  0  0  0  0  0  0  0
   11.5033  -17.2483   22.3544 C   0  0  0  0  0  0  0  0  0  0  0  0
   11.6838  -15.9625   22.3605 O   0  0  0  0  0  0  0  0  0  0  0  0
   14.1254  -20.3826   19.8850 O   0  0  0  0  0  0  0  0  0  0  0  0
   10.3290  -15.1122   24.7905 N   0  0  0  0  0  0  0  0  0  0  0  0
    9.4645  -16.2208   24.9167 C   0  0  0  0  0  0  0  0  0  0  0  0
    8.2199  -16.0252   25.0067 O   0  0  0  0  0  0  0  0  0  0  0  0
   10.0280  -17.5771   24.9414 C   0  0  0  0  0  0  0  0  0  0  0  0
   11.5432  -17.6078   24.8416 C   0  0  2  0  0  0  0  0  0  0  0  0
   12.0172  -17.8826   23.4992 N   0  0  0  0  0  0  0  0  0  0  0  0
   11.9897  -18.7150   25.7203 C   0  0  0  0  0  0  0  0  0  0  0  0
   12.1842  -18.5894   27.0861 O   0  0  0  0  0  0  0  0  0  0  0  0
   12.2222  -19.8638   25.2432 O   0  0  0  0  0  0  0  0  0  0  0  0
  2  1  1  0
  3  5  1  0
  3  2  1  0
  3  4  1  1
  5  6  1  6
  7  5  1  0
  7  8  2  0
  9  7  1  0
 10  9  1  0
 10 11  1  6
 12 11  1  0
 12 13  1  0
 13 14  2  0
 15 10  1  0
 16 15  2  0
 17 13  1  0
 18 19  1  0
 19 20  2  0
 19 21  1  0
 22 21  1  6
 22 23  1  0
 22 24  1  0
 23 15  1  0
 24 25  1  0
 26 24  2  0
M  END
$$$$
