IEN.pdb
     RDKit          3D

 26 25  0  0  1  0  0  0  0  0999 V2000
    8.2542  -12.2311   27.6857 C   0  0  0  0  0  0  0  0  0  0  0  0
    7.7243  -13.5251   27.1695 C   0  0  0  0  0  0  0  0  0  0  0  0
    7.1167  -13.4502   25.7821 C   0  0  2  0  0  0  0  0  0  0  0  0
    5.8679  -12.5943   25.9170 C   0  0  0  0  0  0  0  0  0  0  0  0
    6.7598  -14.8320   25.3568 C   0  0  2  0  0  0  0  0  0  0  0  0
    5.9021  -15.4048   26.3635 N   0  0  0  0  0  0  0  0  0  0  0  0
    7.9169  -15.6956   24.9991 C   0  0  0  0  0  0  0  0  0  0  0  0
    8.2803  -16.5816   25.8110 O   0  0  0  0  0  0  0  0  0  0  0  0
    8.6191  -15.5542   23.7812 N   0  0  0  0  0  0  0  0  0  0  0  0
    9.7661  -16.3597   23.3637 C   0  0  1  0  0  0  0  0  0  0  0  0
   10.2294  -15.8723   21.9931 C   0  0  0  0  0  0  0  0  0  0  0  0
   11.3644  -16.6233   21.4037 C   0  0  0  0  0  0  0  0  0  0  0  0
   10.7780  -17.7879   20.6697 C   0  0  0  0  0  0  0  0  0  0  0  0
   11.3108  -18.9066   20.8064 O   0  0  0  0  0  0  0  0  0  0  0  0
   10.8518  -16.3127   24.3092 C   0  0  0  0  0  0  0  0  0  0  0  0
   10.7797  -15.3732   25.2025 O   0  0  0  0  0  0  0  0  0  0  0  0
    9.6861  -17.6160   19.8697 O   0  0  0  0  0  0  0  0  0  0  0  0
   11.6777  -16.5265   28.1728 N   0  0  0  0  0  0  0  0  0  0  0  0
   11.0928  -17.7506   27.7834 C   0  0  0  0  0  0  0  0  0  0  0  0
   10.2223  -18.2827   28.5281 O   0  0  0  0  0  0  0  0  0  0  0  0
   11.5072  -18.3805   26.5228 C   0  0  0  0  0  0  0  0  0  0  0  0
   12.5087  -17.5568   25.7321 C   0  0  2  0  0  0  0  0  0  0  0  0
   11.9950  -17.1195   24.4486 N   0  0  0  0  0  0  0  0  0  0  0  0
   13.6664  -18.4481   25.4820 C   0  0  0  0  0  0  0  0  0  0  0  0
   14.7732  -18.5309   26.3110 O   0  0  0  0  0  0  0  0  0  0  0  0
   13.6953  -19.1979   24.4630 O   0  0  0  0  0  0  0  0  0  0  0  0
  2  1  1  0
  3  5  1  0
  3  2  1  0
  3  4  1  1
  5  6  1  1
  7  5  1  0
  7  8  2  0
  9  7  1  0
 10  9  1  0
 10 11  1  6
 12 11  1  0
 12 13  1  0
 13 14  2  0
 15 10  1  0
 16 15  2  0
 17 13  1  0
 18 19  1  0
 19 20  2  0
 19 21  1  0
 22 21  1  6
 22 23  1  0
 22 24  1  0
 23 15  1  0
 24 25  1  0
 26 24  2  0
M  END
$$$$
