TKI.pdb
     RDKit          3D

 25 24  0  0  1  0  0  0  0  0999 V2000
   10.6635  -13.9982   20.1829 C   0  0  0  0  0  0  0  0  0  0  0  0
    9.5072  -13.2482   19.5615 C   0  0  1  0  0  0  0  0  0  0  0  0
    9.9728  -12.8555   18.2820 O   0  0  0  0  0  0  0  0  0  0  0  0
    8.3381  -14.1998   19.3955 C   0  0  2  0  0  0  0  0  0  0  0  0
    7.2511  -13.3522   18.8580 N   0  0  0  0  0  0  0  0  0  0  0  0
    7.8498  -14.6530   20.7242 C   0  0  0  0  0  0  0  0  0  0  0  0
    7.1682  -13.8870   21.4961 O   0  0  0  0  0  0  0  0  0  0  0  0
    8.0818  -15.9461   21.2578 N   0  0  0  0  0  0  0  0  0  0  0  0
    7.5018  -16.4054   22.5148 C   0  0  1  0  0  0  0  0  0  0  0  0
    7.5425  -17.9050   22.5588 C   0  0  0  0  0  0  0  0  0  0  0  0
    7.0496  -18.4790   23.8573 C   0  0  0  0  0  0  0  0  0  0  0  0
    7.2302  -19.9974   23.7598 C   0  0  0  0  0  0  0  0  0  0  0  0
    6.6546  -20.6820   24.9824 C   0  0  0  0  0  0  0  0  0  0  0  0
    6.9053  -22.1062   24.9712 N   0  0  0  0  0  0  0  0  0  0  0  0
    8.2557  -15.7630   23.6015 C   0  0  0  0  0  0  0  0  0  0  0  0
    9.5171  -15.6852   23.6117 O   0  0  0  0  0  0  0  0  0  0  0  0
    5.7816  -11.6673   26.0435 C   0  0  0  0  0  0  0  0  0  0  0  0
    6.8101  -12.5802   25.3699 C   0  0  0  0  0  0  0  0  0  0  0  0
    7.4123  -13.4717   26.4171 C   0  0  2  0  0  0  0  0  0  0  0  0
    8.2530  -12.5917   27.3346 C   0  0  0  0  0  0  0  0  0  0  0  0
    8.3421  -14.4635   25.7577 C   0  0  2  0  0  0  0  0  0  0  0  0
    7.6130  -15.1681   24.7468 N   0  0  0  0  0  0  0  0  0  0  0  0
    8.8695  -15.3501   26.8208 C   0  0  0  0  0  0  0  0  0  0  0  0
    9.9643  -15.0662   27.5927 O   0  0  0  0  0  0  0  0  0  0  0  0
    8.2595  -16.4336   27.0158 O   0  0  0  0  0  0  0  0  0  0  0  0
  2  4  1  0
  2  1  1  6
  3  2  1  0
  4  5  1  1
  6  4  1  0
  7  6  2  0
  8  6  1  0
  9  8  1  0
  9 10  1  1
 10 11  1  0
 11 12  1  0
 12 13  1  0
 13 14  1  0
 15 16  2  0
 15  9  1  0
 18 17  1  0
 19 21  1  0
 19 18  1  0
 19 20  1  1
 21 22  1  6
 22 15  1  0
 23 24  1  0
 23 21  1  0
 25 23  2  0
M  END
$$$$
