TKI.pdb
     RDKit          3D

 25 24  0  0  1  0  0  0  0  0999 V2000
    8.6715  -12.6456   20.1204 C   0  0  0  0  0  0  0  0  0  0  0  0
    7.8846  -13.4389   19.1021 C   0  0  1  0  0  0  0  0  0  0  0  0
    8.3875  -13.0193   17.8454 O   0  0  0  0  0  0  0  0  0  0  0  0
    8.1844  -14.9134   19.2911 C   0  0  2  0  0  0  0  0  0  0  0  0
    7.3808  -15.5860   18.2468 N   0  0  0  0  0  0  0  0  0  0  0  0
    7.6186  -15.3933   20.5791 C   0  0  0  0  0  0  0  0  0  0  0  0
    6.3731  -15.2693   20.8634 O   0  0  0  0  0  0  0  0  0  0  0  0
    8.3799  -16.0219   21.5970 N   0  0  0  0  0  0  0  0  0  0  0  0
    7.8154  -16.4265   22.8795 C   0  0  1  0  0  0  0  0  0  0  0  0
    7.9830  -17.9084   23.0475 C   0  0  0  0  0  0  0  0  0  0  0  0
    6.9285  -18.7135   22.3417 C   0  0  0  0  0  0  0  0  0  0  0  0
    7.2539  -20.1871   22.6069 C   0  0  0  0  0  0  0  0  0  0  0  0
    8.6059  -20.5472   22.0263 C   0  0  0  0  0  0  0  0  0  0  0  0
    8.8772  -21.9639   22.1292 N   0  0  0  0  0  0  0  0  0  0  0  0
    8.4893  -15.6353   23.9197 C   0  0  0  0  0  0  0  0  0  0  0  0
    9.7305  -15.3979   23.9079 O   0  0  0  0  0  0  0  0  0  0  0  0
    5.7125  -11.6943   26.3518 C   0  0  0  0  0  0  0  0  0  0  0  0
    6.8170  -12.5200   25.6860 C   0  0  0  0  0  0  0  0  0  0  0  0
    7.4398  -13.4063   26.7254 C   0  0  2  0  0  0  0  0  0  0  0  0
    8.1972  -12.5070   27.6951 C   0  0  0  0  0  0  0  0  0  0  0  0
    8.4478  -14.3197   26.0674 C   0  0  2  0  0  0  0  0  0  0  0  0
    7.7843  -15.0650   25.0406 N   0  0  0  0  0  0  0  0  0  0  0  0
    9.0270  -15.1766   27.1280 C   0  0  0  0  0  0  0  0  0  0  0  0
    8.7814  -16.5173   27.2597 O   0  0  0  0  0  0  0  0  0  0  0  0
    9.7944  -14.6204   27.9561 O   0  0  0  0  0  0  0  0  0  0  0  0
  2  4  1  0
  2  1  1  1
  3  2  1  0
  4  5  1  6
  6  4  1  0
  7  6  2  0
  8  6  1  0
  9  8  1  0
  9 10  1  1
 10 11  1  0
 11 12  1  0
 12 13  1  0
 13 14  1  0
 15 16  2  0
 15  9  1  0
 18 17  1  0
 19 21  1  0
 19 18  1  0
 19 20  1  1
 21 22  1  6
 22 15  1  0
 23 24  1  0
 23 21  1  0
 25 23  2  0
M  END
$$$$
