TKI.pdb
     RDKit          3D

 25 24  0  0  1  0  0  0  0  0999 V2000
    8.7192  -12.4810   19.9218 C   0  0  0  0  0  0  0  0  0  0  0  0
    7.8676  -13.3880   19.0628 C   0  0  1  0  0  0  0  0  0  0  0  0
    7.9166  -12.8152   17.7676 O   0  0  0  0  0  0  0  0  0  0  0  0
    8.5031  -14.7644   19.0230 C   0  0  2  0  0  0  0  0  0  0  0  0
    7.6340  -15.5413   18.1121 N   0  0  0  0  0  0  0  0  0  0  0  0
    8.3689  -15.4324   20.3440 C   0  0  0  0  0  0  0  0  0  0  0  0
    7.2429  -15.8769   20.7704 O   0  0  0  0  0  0  0  0  0  0  0  0
    9.4458  -15.6411   21.2425 N   0  0  0  0  0  0  0  0  0  0  0  0
    9.3055  -16.3670   22.4998 C   0  0  1  0  0  0  0  0  0  0  0  0
   10.3285  -17.4638   22.5537 C   0  0  0  0  0  0  0  0  0  0  0  0
    9.9088  -18.7097   21.8258 C   0  0  0  0  0  0  0  0  0  0  0  0
   11.0875  -19.6847   21.9136 C   0  0  0  0  0  0  0  0  0  0  0  0
   10.7443  -20.9977   21.2404 C   0  0  0  0  0  0  0  0  0  0  0  0
   11.8585  -21.9195   21.2566 N   0  0  0  0  0  0  0  0  0  0  0  0
    9.4368  -15.3845   23.5857 C   0  0  0  0  0  0  0  0  0  0  0  0
   10.4369  -14.6214   23.7063 O   0  0  0  0  0  0  0  0  0  0  0  0
    6.3709  -11.3255   26.6276 C   0  0  0  0  0  0  0  0  0  0  0  0
    7.5361  -12.3133   26.7365 C   0  0  0  0  0  0  0  0  0  0  0  0
    7.3566  -13.3770   25.6923 C   0  0  2  0  0  0  0  0  0  0  0  0
    6.1632  -14.2278   26.1105 C   0  0  0  0  0  0  0  0  0  0  0  0
    8.5729  -14.2734   25.6748 C   0  0  2  0  0  0  0  0  0  0  0  0
    8.4304  -15.2128   24.6037 N   0  0  0  0  0  0  0  0  0  0  0  0
    8.6676  -14.9168   27.0058 C   0  0  0  0  0  0  0  0  0  0  0  0
    8.4858  -16.2548   27.2331 O   0  0  0  0  0  0  0  0  0  0  0  0
    8.9337  -14.1702   27.9835 O   0  0  0  0  0  0  0  0  0  0  0  0
  2  4  1  0
  2  1  1  1
  3  2  1  0
  4  5  1  6
  6  4  1  0
  7  6  2  0
  8  6  1  0
  9  8  1  0
  9 10  1  1
 10 11  1  0
 11 12  1  0
 12 13  1  0
 13 14  1  0
 15 16  2  0
 15  9  1  0
 18 17  1  0
 19 21  1  0
 19 18  1  0
 19 20  1  1
 21 22  1  6
 22 15  1  0
 23 24  1  0
 23 21  1  0
 25 23  2  0
M  END
$$$$
