TKI.pdb
     RDKit          3D

 25 24  0  0  1  0  0  0  0  0999 V2000
    8.5853  -13.6900   20.5955 C   0  0  0  0  0  0  0  0  0  0  0  0
    7.6667  -14.3914   19.6208 C   0  0  1  0  0  0  0  0  0  0  0  0
    8.2426  -14.1610   18.3467 O   0  0  0  0  0  0  0  0  0  0  0  0
    7.6849  -15.8792   19.9139 C   0  0  2  0  0  0  0  0  0  0  0  0
    6.6635  -16.4428   19.0040 N   0  0  0  0  0  0  0  0  0  0  0  0
    7.1665  -16.1414   21.2820 C   0  0  0  0  0  0  0  0  0  0  0  0
    5.9601  -15.8604   21.6179 O   0  0  0  0  0  0  0  0  0  0  0  0
    7.9344  -16.7154   22.3268 N   0  0  0  0  0  0  0  0  0  0  0  0
    7.4498  -16.8386   23.6969 C   0  0  1  0  0  0  0  0  0  0  0  0
    7.5826  -18.2659   24.1414 C   0  0  0  0  0  0  0  0  0  0  0  0
    8.9870  -18.7928   24.0499 C   0  0  0  0  0  0  0  0  0  0  0  0
    8.9288  -20.2657   24.4680 C   0  0  0  0  0  0  0  0  0  0  0  0
   10.2981  -20.9046   24.3607 C   0  0  0  0  0  0  0  0  0  0  0  0
   10.2837  -22.2861   24.7879 N   0  0  0  0  0  0  0  0  0  0  0  0
    8.2199  -15.8916   24.5169 C   0  0  0  0  0  0  0  0  0  0  0  0
    9.4230  -15.5908   24.2737 O   0  0  0  0  0  0  0  0  0  0  0  0
    5.7103  -11.6180   26.4307 C   0  0  0  0  0  0  0  0  0  0  0  0
    6.7811  -12.5515   25.8589 C   0  0  0  0  0  0  0  0  0  0  0  0
    7.4568  -13.2551   27.0001 C   0  0  2  0  0  0  0  0  0  0  0  0
    8.2862  -12.2173   27.7470 C   0  0  0  0  0  0  0  0  0  0  0  0
    8.4085  -14.2949   26.4559 C   0  0  2  0  0  0  0  0  0  0  0  0
    7.6610  -15.2282   25.6685 N   0  0  0  0  0  0  0  0  0  0  0  0
    9.0883  -14.9215   27.6133 C   0  0  0  0  0  0  0  0  0  0  0  0
    8.8726  -16.2063   28.0348 O   0  0  0  0  0  0  0  0  0  0  0  0
    9.9171  -14.2125   28.2414 O   0  0  0  0  0  0  0  0  0  0  0  0
  2  4  1  0
  2  1  1  1
  3  2  1  0
  4  5  1  6
  6  4  1  0
  7  6  2  0
  8  6  1  0
  9  8  1  0
  9 10  1  1
 10 11  1  0
 11 12  1  0
 12 13  1  0
 13 14  1  0
 15 16  2  0
 15  9  1  0
 18 17  1  0
 19 21  1  0
 19 18  1  0
 19 20  1  6
 21 22  1  1
 22 15  1  0
 23 24  1  0
 23 21  1  0
 25 23  2  0
M  END
$$$$
