TKI.pdb
     RDKit          3D

 25 24  0  0  1  0  0  0  0  0999 V2000
    8.7417  -12.7655   18.6682 C   0  0  0  0  0  0  0  0  0  0  0  0
    8.5032  -13.4305   20.0049 C   0  0  1  0  0  0  0  0  0  0  0  0
    7.1872  -13.0525   20.3704 O   0  0  0  0  0  0  0  0  0  0  0  0
    8.5562  -14.9348   19.8206 C   0  0  2  0  0  0  0  0  0  0  0  0
    7.3487  -15.2477   19.0250 N   0  0  0  0  0  0  0  0  0  0  0  0
    8.3466  -15.6212   21.1222 C   0  0  0  0  0  0  0  0  0  0  0  0
    7.1745  -15.8174   21.6069 O   0  0  0  0  0  0  0  0  0  0  0  0
    9.3954  -16.1166   21.9378 N   0  0  0  0  0  0  0  0  0  0  0  0
    9.1697  -16.7256   23.2437 C   0  0  1  0  0  0  0  0  0  0  0  0
    9.9458  -18.0072   23.3320 C   0  0  0  0  0  0  0  0  0  0  0  0
    9.3790  -19.1095   22.4823 C   0  0  0  0  0  0  0  0  0  0  0  0
   10.3757  -20.2711   22.5524 C   0  0  0  0  0  0  0  0  0  0  0  0
    9.9064  -21.4285   21.6951 C   0  0  0  0  0  0  0  0  0  0  0  0
   10.8592  -22.5163   21.6889 N   0  0  0  0  0  0  0  0  0  0  0  0
    9.5534  -15.7329   24.2582 C   0  0  0  0  0  0  0  0  0  0  0  0
   10.6039  -15.0351   24.1755 O   0  0  0  0  0  0  0  0  0  0  0  0
    6.2795  -12.1208   26.1328 C   0  0  0  0  0  0  0  0  0  0  0  0
    7.4931  -12.9450   25.6936 C   0  0  0  0  0  0  0  0  0  0  0  0
    7.9843  -13.7333   26.8731 C   0  0  2  0  0  0  0  0  0  0  0  0
    8.4638  -12.7344   27.9196 C   0  0  0  0  0  0  0  0  0  0  0  0
    9.1742  -14.5675   26.4589 C   0  0  2  0  0  0  0  0  0  0  0  0
    8.7583  -15.4755   25.4330 N   0  0  0  0  0  0  0  0  0  0  0  0
    9.6795  -15.2508   27.6723 C   0  0  0  0  0  0  0  0  0  0  0  0
   10.5707  -14.7018   28.5550 O   0  0  0  0  0  0  0  0  0  0  0  0
    9.2515  -16.4136   27.8930 O   0  0  0  0  0  0  0  0  0  0  0  0
  2  4  1  0
  2  1  1  6
  3  2  1  0
  4  5  1  6
  6  4  1  0
  7  6  2  0
  8  6  1  0
  9  8  1  0
  9 10  1  6
 10 11  1  0
 11 12  1  0
 12 13  1  0
 13 14  1  0
 15 16  2  0
 15  9  1  0
 18 17  1  0
 19 21  1  0
 19 18  1  0
 19 20  1  1
 21 22  1  6
 22 15  1  0
 23 24  1  0
 23 21  1  0
 25 23  2  0
M  END
$$$$
