TKI.pdb
     RDKit          3D

 25 24  0  0  1  0  0  0  0  0999 V2000
    9.3063  -12.8283   20.4105 C   0  0  0  0  0  0  0  0  0  0  0  0
    8.1044  -13.1935   19.5692 C   0  0  1  0  0  0  0  0  0  0  0  0
    8.3838  -12.6637   18.2849 O   0  0  0  0  0  0  0  0  0  0  0  0
    8.0123  -14.7043   19.4754 C   0  0  2  0  0  0  0  0  0  0  0  0
    6.7711  -14.9472   18.7079 N   0  0  0  0  0  0  0  0  0  0  0  0
    7.7544  -15.2892   20.8173 C   0  0  0  0  0  0  0  0  0  0  0  0
    6.6339  -15.1333   21.4235 O   0  0  0  0  0  0  0  0  0  0  0  0
    8.6974  -16.0600   21.5433 N   0  0  0  0  0  0  0  0  0  0  0  0
    8.4073  -16.6586   22.8413 C   0  0  1  0  0  0  0  0  0  0  0  0
    8.9924  -18.0398   22.8903 C   0  0  0  0  0  0  0  0  0  0  0  0
    8.8727  -18.6927   24.2385 C   0  0  0  0  0  0  0  0  0  0  0  0
    9.5335  -20.0698   24.1169 C   0  0  0  0  0  0  0  0  0  0  0  0
    9.3700  -20.8547   25.4021 C   0  0  0  0  0  0  0  0  0  0  0  0
    9.9621  -22.1708   25.3094 N   0  0  0  0  0  0  0  0  0  0  0  0
    8.9457  -15.7534   23.8673 C   0  0  0  0  0  0  0  0  0  0  0  0
   10.1206  -15.2896   23.8278 O   0  0  0  0  0  0  0  0  0  0  0  0
    6.2895  -11.6303   25.7539 C   0  0  0  0  0  0  0  0  0  0  0  0
    7.3694  -12.6237   25.3156 C   0  0  0  0  0  0  0  0  0  0  0  0
    7.7086  -13.5031   26.4841 C   0  0  2  0  0  0  0  0  0  0  0  0
    8.3550  -12.6203   27.5450 C   0  0  0  0  0  0  0  0  0  0  0  0
    8.7322  -14.5301   26.0589 C   0  0  2  0  0  0  0  0  0  0  0  0
    8.1725  -15.3210   25.0048 N   0  0  0  0  0  0  0  0  0  0  0  0
    9.0870  -15.3241   27.2581 C   0  0  0  0  0  0  0  0  0  0  0  0
   10.0468  -14.9665   28.1668 O   0  0  0  0  0  0  0  0  0  0  0  0
    8.4548  -16.3971   27.4402 O   0  0  0  0  0  0  0  0  0  0  0  0
  2  4  1  0
  2  1  1  1
  3  2  1  0
  4  5  1  6
  6  4  1  0
  7  6  2  0
  8  6  1  0
  9  8  1  0
  9 10  1  6
 10 11  1  0
 11 12  1  0
 12 13  1  0
 13 14  1  0
 15 16  2  0
 15  9  1  0
 18 17  1  0
 19 21  1  0
 19 18  1  0
 19 20  1  1
 21 22  1  6
 22 15  1  0
 23 24  1  0
 23 21  1  0
 25 23  2  0
M  END
$$$$
