VLK.pdb
     RDKit          3D

 25 24  0  0  1  0  0  0  0  0999 V2000
    8.2339  -18.7235   22.3031 C   0  0  0  0  0  0  0  0  0  0  0  0
    8.2581  -17.9394   21.0337 C   0  0  1  0  0  0  0  0  0  0  0  0
    7.6594  -18.7750   19.9271 C   0  0  0  0  0  0  0  0  0  0  0  0
    7.4983  -16.6380   21.0856 C   0  0  2  0  0  0  0  0  0  0  0  0
    7.5329  -16.1043   19.7276 N   0  0  0  0  0  0  0  0  0  0  0  0
    8.0172  -15.6471   22.0161 C   0  0  0  0  0  0  0  0  0  0  0  0
    9.1459  -15.1123   21.7413 O   0  0  0  0  0  0  0  0  0  0  0  0
    5.8544  -12.5287   26.8079 C   0  0  0  0  0  0  0  0  0  0  0  0
    7.1657  -12.7689   26.0256 C   0  0  2  0  0  0  0  0  0  0  0  0
    7.6006  -11.4110   25.5286 C   0  0  0  0  0  0  0  0  0  0  0  0
    6.8862  -13.6929   24.9093 C   0  0  0  0  0  0  0  0  0  0  0  0
    8.0204  -14.2061   24.1037 C   0  0  2  0  0  0  0  0  0  0  0  0
    7.4097  -15.2079   23.1950 N   0  0  0  0  0  0  0  0  0  0  0  0
    9.1251  -14.8333   24.8546 C   0  0  0  0  0  0  0  0  0  0  0  0
   10.0038  -14.1277   25.4651 O   0  0  0  0  0  0  0  0  0  0  0  0
    9.3048  -16.2339   24.9671 N   0  0  0  0  0  0  0  0  0  0  0  0
   10.3944  -16.7886   25.7971 C   0  0  1  0  0  0  0  0  0  0  0  0
    9.9618  -18.1526   26.3262 C   0  0  0  0  0  0  0  0  0  0  0  0
   11.0261  -18.8312   27.1279 C   0  0  0  0  0  0  0  0  0  0  0  0
   10.4790  -19.3954   28.4142 C   0  0  0  0  0  0  0  0  0  0  0  0
   11.5617  -19.9352   29.3167 C   0  0  0  0  0  0  0  0  0  0  0  0
   10.9385  -20.1867   30.6292 N   0  0  0  0  0  0  0  0  0  0  0  0
   11.5812  -16.8583   24.9231 C   0  0  0  0  0  0  0  0  0  0  0  0
   12.8451  -16.4803   25.3523 O   0  0  0  0  0  0  0  0  0  0  0  0
   11.5180  -17.2713   23.7127 O   0  0  0  0  0  0  0  0  0  0  0  0
  2  1  1  1
  3  2  1  0
  4  2  1  0
  4  6  1  0
  4  5  1  6
  6  7  2  0
  9  8  1  6
 10  9  1  0
 11  9  1  0
 12 11  1  1
 13  6  1  0
 13 12  1  0
 14 12  1  0
 14 15  2  0
 16 14  1  0
 17 16  1  0
 18 19  1  0
 17 18  1  6
 20 19  1  0
 21 22  1  0
 21 20  1  0
 23 17  1  0
 24 23  1  0
 25 23  2  0
M  END
$$$$
