VLK.pdb
     RDKit          3D

 25 24  0  0  1  0  0  0  0  0999 V2000
    7.1050  -17.8875   21.7067 C   0  0  0  0  0  0  0  0  0  0  0  0
    7.8791  -16.9376   20.8551 C   0  0  1  0  0  0  0  0  0  0  0  0
    7.3996  -17.0528   19.4275 C   0  0  0  0  0  0  0  0  0  0  0  0
    7.7599  -15.4905   21.2616 C   0  0  2  0  0  0  0  0  0  0  0  0
    8.5300  -14.7374   20.2768 N   0  0  0  0  0  0  0  0  0  0  0  0
    8.2337  -15.1756   22.6007 C   0  0  0  0  0  0  0  0  0  0  0  0
    9.4931  -15.2415   22.8128 O   0  0  0  0  0  0  0  0  0  0  0  0
    7.8862  -11.6399   25.8099 C   0  0  0  0  0  0  0  0  0  0  0  0
    6.6330  -12.4842   25.4844 C   0  0  2  0  0  0  0  0  0  0  0  0
    5.5310  -11.9350   26.3584 C   0  0  0  0  0  0  0  0  0  0  0  0
    6.9222  -13.8972   25.7969 C   0  0  0  0  0  0  0  0  0  0  0  0
    8.0072  -14.5863   25.0576 C   0  0  2  0  0  0  0  0  0  0  0  0
    7.4532  -14.8031   23.6980 N   0  0  0  0  0  0  0  0  0  0  0  0
    8.4615  -15.8754   25.6140 C   0  0  0  0  0  0  0  0  0  0  0  0
    7.6789  -16.8882   25.6798 O   0  0  0  0  0  0  0  0  0  0  0  0
    9.7697  -16.1021   26.1079 N   0  0  0  0  0  0  0  0  0  0  0  0
   10.1940  -17.4561   26.5210 C   0  0  1  0  0  0  0  0  0  0  0  0
   11.4070  -17.8643   25.6906 C   0  0  0  0  0  0  0  0  0  0  0  0
   11.4779  -19.3380   25.4477 C   0  0  0  0  0  0  0  0  0  0  0  0
   12.6451  -19.7010   24.5656 C   0  0  0  0  0  0  0  0  0  0  0  0
   12.7745  -21.1906   24.3599 C   0  0  0  0  0  0  0  0  0  0  0  0
   13.9253  -21.4000   23.4620 N   0  0  0  0  0  0  0  0  0  0  0  0
   10.4848  -17.3722   27.9651 C   0  0  0  0  0  0  0  0  0  0  0  0
   10.7443  -18.4942   28.7387 O   0  0  0  0  0  0  0  0  0  0  0  0
   10.5144  -16.2577   28.5950 O   0  0  0  0  0  0  0  0  0  0  0  0
  2  1  1  1
  3  2  1  0
  4  2  1  0
  4  6  1  0
  4  5  1  6
  6  7  2  0
  9  8  1  1
 10  9  1  0
 11  9  1  0
 12 11  1  1
 13  6  1  0
 13 12  1  0
 14 12  1  0
 14 15  2  0
 16 14  1  0
 17 16  1  0
 18 19  1  0
 17 18  1  6
 20 19  1  0
 21 22  1  0
 21 20  1  0
 23 17  1  0
 24 23  1  0
 25 23  2  0
M  END
$$$$
