VLK.pdb
     RDKit          3D

 25 24  0  0  1  0  0  0  0  0999 V2000
    7.0484  -17.6592   21.3960 C   0  0  0  0  0  0  0  0  0  0  0  0
    7.9033  -16.9365   20.4093 C   0  0  1  0  0  0  0  0  0  0  0  0
    7.4399  -17.2776   19.0129 C   0  0  0  0  0  0  0  0  0  0  0  0
    7.8833  -15.4348   20.5432 C   0  0  2  0  0  0  0  0  0  0  0  0
    8.7988  -14.9336   19.5230 N   0  0  0  0  0  0  0  0  0  0  0  0
    8.2702  -14.9175   21.8469 C   0  0  0  0  0  0  0  0  0  0  0  0
    9.5172  -14.9011   22.1300 O   0  0  0  0  0  0  0  0  0  0  0  0
    5.4535  -12.2882   26.6020 C   0  0  0  0  0  0  0  0  0  0  0  0
    6.7751  -13.0006   26.2348 C   0  0  2  0  0  0  0  0  0  0  0  0
    7.8763  -12.0336   26.5986 C   0  0  0  0  0  0  0  0  0  0  0  0
    6.7659  -13.2955   24.7888 C   0  0  0  0  0  0  0  0  0  0  0  0
    7.8671  -14.1071   24.2167 C   0  0  2  0  0  0  0  0  0  0  0  0
    7.4171  -14.4289   22.8396 N   0  0  0  0  0  0  0  0  0  0  0  0
    8.1978  -15.3561   24.9297 C   0  0  0  0  0  0  0  0  0  0  0  0
    7.3602  -16.3230   25.0082 O   0  0  0  0  0  0  0  0  0  0  0  0
    9.4392  -15.5918   25.5700 N   0  0  0  0  0  0  0  0  0  0  0  0
    9.7886  -16.9411   26.0608 C   0  0  1  0  0  0  0  0  0  0  0  0
   10.8759  -17.5231   25.1625 C   0  0  0  0  0  0  0  0  0  0  0  0
   11.4229  -18.8176   25.6733 C   0  0  0  0  0  0  0  0  0  0  0  0
   12.4646  -19.3866   24.7442 C   0  0  0  0  0  0  0  0  0  0  0  0
   12.9851  -20.7253   25.2079 C   0  0  0  0  0  0  0  0  0  0  0  0
   13.8213  -21.2601   24.1174 N   0  0  0  0  0  0  0  0  0  0  0  0
   10.2263  -16.7685   27.4593 C   0  0  0  0  0  0  0  0  0  0  0  0
   10.2885  -17.8255   28.3557 O   0  0  0  0  0  0  0  0  0  0  0  0
   10.5751  -15.6313   27.9332 O   0  0  0  0  0  0  0  0  0  0  0  0
  2  1  1  1
  3  2  1  0
  4  2  1  0
  4  6  1  0
  4  5  1  6
  6  7  2  0
  9  8  1  6
 10  9  1  0
 11  9  1  0
 12 11  1  1
 13  6  1  0
 13 12  1  0
 14 12  1  0
 14 15  2  0
 16 14  1  0
 17 16  1  0
 18 19  1  0
 17 18  1  6
 20 19  1  0
 21 22  1  0
 21 20  1  0
 23 17  1  0
 24 23  1  0
 25 23  2  0
M  END
$$$$
