VLK.pdb
     RDKit          3D

 25 24  0  0  1  0  0  0  0  0999 V2000
    7.3360  -18.5758   21.5252 C   0  0  0  0  0  0  0  0  0  0  0  0
    8.0126  -17.6984   22.5247 C   0  0  1  0  0  0  0  0  0  0  0  0
    9.4961  -17.9817   22.5046 C   0  0  0  0  0  0  0  0  0  0  0  0
    7.8266  -16.2206   22.2901 C   0  0  2  0  0  0  0  0  0  0  0  0
    8.3984  -15.9531   20.9741 N   0  0  0  0  0  0  0  0  0  0  0  0
    8.4407  -15.3478   23.2790 C   0  0  0  0  0  0  0  0  0  0  0  0
    9.6702  -15.0384   23.1120 O   0  0  0  0  0  0  0  0  0  0  0  0
    7.5573  -11.2143   24.7574 C   0  0  0  0  0  0  0  0  0  0  0  0
    6.6919  -12.3692   25.3112 C   0  0  2  0  0  0  0  0  0  0  0  0
    5.6069  -11.7115   26.1299 C   0  0  0  0  0  0  0  0  0  0  0  0
    7.5454  -13.2423   26.1402 C   0  0  0  0  0  0  0  0  0  0  0  0
    8.5689  -14.0837   25.4746 C   0  0  2  0  0  0  0  0  0  0  0  0
    7.8265  -14.8014   24.4086 N   0  0  0  0  0  0  0  0  0  0  0  0
    9.2683  -15.0621   26.3298 C   0  0  0  0  0  0  0  0  0  0  0  0
    9.9902  -14.6884   27.3206 O   0  0  0  0  0  0  0  0  0  0  0  0
    9.2021  -16.4641   26.1382 N   0  0  0  0  0  0  0  0  0  0  0  0
    9.9409  -17.3813   27.0306 C   0  0  1  0  0  0  0  0  0  0  0  0
    9.1902  -18.7077   27.1006 C   0  0  0  0  0  0  0  0  0  0  0  0
    9.8720  -19.7185   27.9662 C   0  0  0  0  0  0  0  0  0  0  0  0
    9.1913  -21.0615   27.8950 C   0  0  0  0  0  0  0  0  0  0  0  0
    9.8735  -22.1026   28.7488 C   0  0  0  0  0  0  0  0  0  0  0  0
    9.0169  -23.3027   28.7259 N   0  0  0  0  0  0  0  0  0  0  0  0
   11.2932  -17.5131   26.4552 C   0  0  0  0  0  0  0  0  0  0  0  0
   12.4040  -17.8206   27.2273 O   0  0  0  0  0  0  0  0  0  0  0  0
   11.5259  -17.3503   25.2066 O   0  0  0  0  0  0  0  0  0  0  0  0
  2  1  1  6
  3  2  1  0
  4  2  1  0
  4  6  1  0
  4  5  1  6
  6  7  2  0
  9  8  1  1
 10  9  1  0
 11  9  1  0
 12 11  1  1
 13  6  1  0
 13 12  1  0
 14 12  1  0
 14 15  2  0
 16 14  1  0
 17 16  1  0
 18 19  1  0
 17 18  1  6
 20 19  1  0
 21 22  1  0
 21 20  1  0
 23 17  1  0
 24 23  1  0
 25 23  2  0
M  END
$$$$
