VLK.pdb
     RDKit          3D

 25 24  0  0  1  0  0  0  0  0999 V2000
    3.3904  -19.9621   22.6376 C   0  0  0  0  0  0  0  0  0  0  0  0
    4.5842  -19.0797   22.4859 C   0  0  1  0  0  0  0  0  0  0  0  0
    5.8338  -19.9253   22.5549 C   0  0  0  0  0  0  0  0  0  0  0  0
    4.6296  -18.3021   21.1949 C   0  0  2  0  0  0  0  0  0  0  0  0
    4.4838  -19.2908   20.1312 N   0  0  0  0  0  0  0  0  0  0  0  0
    5.8376  -17.5209   20.9770 C   0  0  0  0  0  0  0  0  0  0  0  0
    6.8524  -18.1259   20.4875 O   0  0  0  0  0  0  0  0  0  0  0  0
    7.4328  -11.6320   20.7917 C   0  0  0  0  0  0  0  0  0  0  0  0
    8.0502  -13.0490   20.7877 C   0  0  2  0  0  0  0  0  0  0  0  0
    8.7325  -13.1945   19.4486 C   0  0  0  0  0  0  0  0  0  0  0  0
    6.9662  -14.0362   20.9561 C   0  0  0  0  0  0  0  0  0  0  0  0
    7.3197  -15.4671   21.1176 C   0  0  2  0  0  0  0  0  0  0  0  0
    6.0147  -16.1617   21.2472 N   0  0  0  0  0  0  0  0  0  0  0  0
    8.1722  -15.8038   22.2741 C   0  0  0  0  0  0  0  0  0  0  0  0
    7.6702  -16.0292   23.4316 O   0  0  0  0  0  0  0  0  0  0  0  0
    9.5833  -15.9086   22.2078 N   0  0  0  0  0  0  0  0  0  0  0  0
   10.3343  -16.6315   23.2553 C   0  0  1  0  0  0  0  0  0  0  0  0
   10.0190  -18.1202   23.1455 C   0  0  0  0  0  0  0  0  0  0  0  0
   10.8717  -18.9640   24.0382 C   0  0  0  0  0  0  0  0  0  0  0  0
   10.6247  -20.4343   23.8161 C   0  0  0  0  0  0  0  0  0  0  0  0
   11.4870  -21.3059   24.6964 C   0  0  0  0  0  0  0  0  0  0  0  0
   11.0606  -22.6989   24.4681 N   0  0  0  0  0  0  0  0  0  0  0  0
   11.7590  -16.3246   23.0245 C   0  0  0  0  0  0  0  0  0  0  0  0
   12.6968  -16.3302   24.0468 O   0  0  0  0  0  0  0  0  0  0  0  0
   12.2185  -16.0326   21.8655 O   0  0  0  0  0  0  0  0  0  0  0  0
  2  1  1  6
  3  2  1  0
  4  2  1  0
  4  6  1  0
  4  5  1  6
  6  7  2  0
  9  8  1  6
 10  9  1  0
 11  9  1  0
 12 11  1  1
 13  6  1  0
 13 12  1  0
 14 12  1  0
 14 15  2  0
 16 14  1  0
 17 16  1  0
 18 19  1  0
 17 18  1  6
 20 19  1  0
 21 22  1  0
 21 20  1  0
 23 17  1  0
 24 23  1  0
 25 23  2  0
M  END
$$$$
