VLK.pdb
     RDKit          3D

 25 24  0  0  1  0  0  0  0  0999 V2000
    8.2281  -15.8880   19.4442 C   0  0  0  0  0  0  0  0  0  0  0  0
    8.4520  -14.9951   20.6187 C   0  0  1  0  0  0  0  0  0  0  0  0
    7.1650  -14.2732   20.9411 C   0  0  0  0  0  0  0  0  0  0  0  0
    8.9030  -15.7055   21.8698 C   0  0  2  0  0  0  0  0  0  0  0  0
    7.9202  -16.7588   22.1039 N   0  0  0  0  0  0  0  0  0  0  0  0
    9.0201  -14.8707   23.0557 C   0  0  0  0  0  0  0  0  0  0  0  0
   10.1141  -14.2295   23.2215 O   0  0  0  0  0  0  0  0  0  0  0  0
    5.3556  -12.1449   27.0464 C   0  0  0  0  0  0  0  0  0  0  0  0
    6.8388  -12.5424   26.8699 C   0  0  2  0  0  0  0  0  0  0  0  0
    7.5998  -11.2434   26.7541 C   0  0  0  0  0  0  0  0  0  0  0  0
    6.9660  -13.3584   25.6469 C   0  0  0  0  0  0  0  0  0  0  0  0
    8.2956  -13.9080   25.2880 C   0  0  2  0  0  0  0  0  0  0  0  0
    8.0548  -14.6888   24.0491 N   0  0  0  0  0  0  0  0  0  0  0  0
    8.9398  -14.7723   26.2957 C   0  0  0  0  0  0  0  0  0  0  0  0
    9.1524  -14.3617   27.4911 O   0  0  0  0  0  0  0  0  0  0  0  0
    9.3654  -16.0988   26.0386 N   0  0  0  0  0  0  0  0  0  0  0  0
   10.0223  -16.8965   27.0949 C   0  0  1  0  0  0  0  0  0  0  0  0
   10.5148  -18.2057   26.4857 C   0  0  0  0  0  0  0  0  0  0  0  0
   11.2203  -19.0792   27.4732 C   0  0  0  0  0  0  0  0  0  0  0  0
   11.6632  -20.3782   26.8500 C   0  0  0  0  0  0  0  0  0  0  0  0
   12.2190  -21.3475   27.8647 C   0  0  0  0  0  0  0  0  0  0  0  0
   12.7154  -22.5153   27.1135 N   0  0  0  0  0  0  0  0  0  0  0  0
   11.1159  -16.0578   27.6222 C   0  0  0  0  0  0  0  0  0  0  0  0
   11.9743  -15.3477   26.7956 O   0  0  0  0  0  0  0  0  0  0  0  0
   11.3414  -15.9344   28.8766 O   0  0  0  0  0  0  0  0  0  0  0  0
  2  1  1  6
  3  2  1  0
  4  2  1  0
  4  6  1  0
  4  5  1  1
  6  7  2  0
  9  8  1  6
 10  9  1  0
 11  9  1  0
 12 11  1  1
 13  6  1  0
 13 12  1  0
 14 12  1  0
 14 15  2  0
 16 14  1  0
 17 16  1  0
 18 19  1  0
 17 18  1  6
 20 19  1  0
 21 22  1  0
 21 20  1  0
 23 17  1  0
 24 23  1  0
 25 23  2  0
M  END
$$$$
