VLK.pdb
     RDKit          3D

 25 24  0  0  1  0  0  0  0  0999 V2000
    6.8675  -18.7753   20.0189 C   0  0  0  0  0  0  0  0  0  0  0  0
    7.4505  -18.0354   21.1762 C   0  0  1  0  0  0  0  0  0  0  0  0
    8.8866  -18.4645   21.3623 C   0  0  0  0  0  0  0  0  0  0  0  0
    7.4371  -16.5346   21.0324 C   0  0  2  0  0  0  0  0  0  0  0  0
    8.2115  -16.2447   19.8297 N   0  0  0  0  0  0  0  0  0  0  0  0
    7.9834  -15.7931   22.1588 C   0  0  0  0  0  0  0  0  0  0  0  0
    9.2475  -15.6011   22.1828 O   0  0  0  0  0  0  0  0  0  0  0  0
    5.7773  -12.4283   26.7564 C   0  0  0  0  0  0  0  0  0  0  0  0
    7.0888  -13.0944   26.2817 C   0  0  2  0  0  0  0  0  0  0  0  0
    8.0902  -11.9730   26.1417 C   0  0  0  0  0  0  0  0  0  0  0  0
    6.8373  -13.7635   24.9905 C   0  0  0  0  0  0  0  0  0  0  0  0
    7.9139  -14.5869   24.3893 C   0  0  2  0  0  0  0  0  0  0  0  0
    7.2689  -15.2589   23.2340 N   0  0  0  0  0  0  0  0  0  0  0  0
    8.5288  -15.6015   25.2669 C   0  0  0  0  0  0  0  0  0  0  0  0
    7.8323  -16.5379   25.7967 O   0  0  0  0  0  0  0  0  0  0  0  0
    9.9079  -15.6316   25.5894 N   0  0  0  0  0  0  0  0  0  0  0  0
   10.4789  -16.7641   26.3476 C   0  0  1  0  0  0  0  0  0  0  0  0
   11.8738  -17.0626   25.8066 C   0  0  0  0  0  0  0  0  0  0  0  0
   11.8556  -17.5942   24.4091 C   0  0  0  0  0  0  0  0  0  0  0  0
   13.2497  -17.7899   23.8702 C   0  0  0  0  0  0  0  0  0  0  0  0
   13.2588  -18.4537   22.5147 C   0  0  0  0  0  0  0  0  0  0  0  0
   14.6705  -18.5701   22.1050 N   0  0  0  0  0  0  0  0  0  0  0  0
   10.4856  -16.3484   27.7634 C   0  0  0  0  0  0  0  0  0  0  0  0
   10.5914  -17.2577   28.8058 O   0  0  0  0  0  0  0  0  0  0  0  0
   10.3927  -15.1216   28.1181 O   0  0  0  0  0  0  0  0  0  0  0  0
  2  1  1  6
  3  2  1  0
  4  2  1  0
  4  6  1  0
  4  5  1  6
  6  7  2  0
  9  8  1  6
 10  9  1  0
 11  9  1  0
 12 11  1  1
 13  6  1  0
 13 12  1  0
 14 12  1  0
 14 15  2  0
 16 14  1  0
 17 16  1  0
 18 19  1  0
 17 18  1  6
 20 19  1  0
 21 22  1  0
 21 20  1  0
 23 17  1  0
 24 23  1  0
 25 23  2  0
M  END
$$$$
