VLK.pdb
     RDKit          3D

 25 24  0  0  1  0  0  0  0  0999 V2000
    7.1088  -17.4896   20.4790 C   0  0  0  0  0  0  0  0  0  0  0  0
    7.5684  -17.0620   21.8329 C   0  0  1  0  0  0  0  0  0  0  0  0
    8.7619  -17.8961   22.2341 C   0  0  0  0  0  0  0  0  0  0  0  0
    7.9709  -15.6122   21.9299 C   0  0  2  0  0  0  0  0  0  0  0  0
    9.1212  -15.4600   21.0446 N   0  0  0  0  0  0  0  0  0  0  0  0
    8.3135  -15.1459   23.2649 C   0  0  0  0  0  0  0  0  0  0  0  0
    9.5480  -15.1634   23.5983 O   0  0  0  0  0  0  0  0  0  0  0  0
    7.8560  -11.3745   25.9365 C   0  0  0  0  0  0  0  0  0  0  0  0
    6.5831  -12.1953   25.6280 C   0  0  2  0  0  0  0  0  0  0  0  0
    5.4477  -11.4561   26.2947 C   0  0  0  0  0  0  0  0  0  0  0  0
    6.7504  -13.5518   26.1847 C   0  0  0  0  0  0  0  0  0  0  0  0
    7.8255  -14.4192   25.6458 C   0  0  2  0  0  0  0  0  0  0  0  0
    7.4296  -14.6735   24.2383 N   0  0  0  0  0  0  0  0  0  0  0  0
    8.0359  -15.7059   26.3368 C   0  0  0  0  0  0  0  0  0  0  0  0
    8.4376  -15.7539   27.5530 O   0  0  0  0  0  0  0  0  0  0  0  0
    7.8145  -16.9685   25.7339 N   0  0  0  0  0  0  0  0  0  0  0  0
    8.0191  -18.2150   26.5009 C   0  0  1  0  0  0  0  0  0  0  0  0
    7.2714  -19.3477   25.8040 C   0  0  0  0  0  0  0  0  0  0  0  0
    7.4428  -20.6665   26.4875 C   0  0  0  0  0  0  0  0  0  0  0  0
    6.7360  -21.7729   25.7469 C   0  0  0  0  0  0  0  0  0  0  0  0
    6.7995  -23.0919   26.4779 C   0  0  0  0  0  0  0  0  0  0  0  0
    6.0959  -24.0799   25.6392 N   0  0  0  0  0  0  0  0  0  0  0  0
    9.4778  -18.4312   26.5513 C   0  0  0  0  0  0  0  0  0  0  0  0
   10.0926  -19.1233   27.5845 O   0  0  0  0  0  0  0  0  0  0  0  0
   10.2677  -17.9920   25.6442 O   0  0  0  0  0  0  0  0  0  0  0  0
  2  1  1  6
  3  2  1  0
  4  2  1  0
  4  6  1  0
  4  5  1  6
  6  7  2  0
  9  8  1  1
 10  9  1  0
 11  9  1  0
 12 11  1  1
 13  6  1  0
 13 12  1  0
 14 12  1  0
 14 15  2  0
 16 14  1  0
 17 16  1  0
 18 19  1  0
 17 18  1  6
 20 19  1  0
 21 22  1  0
 21 20  1  0
 23 17  1  0
 24 23  1  0
 25 23  2  0
M  END
$$$$
