VLK.pdb
     RDKit          3D

 25 24  0  0  1  0  0  0  0  0999 V2000
    6.4268  -20.9891   26.7026 C   0  0  0  0  0  0  0  0  0  0  0  0
    7.0164  -19.7090   26.2123 C   0  0  1  0  0  0  0  0  0  0  0  0
    8.2795  -20.0118   25.4414 C   0  0  0  0  0  0  0  0  0  0  0  0
    6.1124  -18.9066   25.3110 C   0  0  2  0  0  0  0  0  0  0  0  0
    5.8367  -19.7630   24.1618 N   0  0  0  0  0  0  0  0  0  0  0  0
    6.6514  -17.6337   24.8568 C   0  0  0  0  0  0  0  0  0  0  0  0
    7.3525  -17.6366   23.7873 O   0  0  0  0  0  0  0  0  0  0  0  0
    6.2409  -11.7602   26.5555 C   0  0  0  0  0  0  0  0  0  0  0  0
    7.0716  -12.6956   25.6477 C   0  0  2  0  0  0  0  0  0  0  0  0
    6.9504  -12.1274   24.2540 C   0  0  0  0  0  0  0  0  0  0  0  0
    6.5076  -14.0568   25.7312 C   0  0  0  0  0  0  0  0  0  0  0  0
    7.2093  -15.1660   25.0415 C   0  0  2  0  0  0  0  0  0  0  0  0
    6.4852  -16.3889   25.4689 N   0  0  0  0  0  0  0  0  0  0  0  0
    8.6466  -15.3169   25.3402 C   0  0  0  0  0  0  0  0  0  0  0  0
    9.0659  -15.4883   26.5391 O   0  0  0  0  0  0  0  0  0  0  0  0
    9.6626  -15.2902   24.3534 N   0  0  0  0  0  0  0  0  0  0  0  0
   10.9938  -15.8699   24.6281 C   0  0  1  0  0  0  0  0  0  0  0  0
   10.8219  -17.3415   24.9925 C   0  0  0  0  0  0  0  0  0  0  0  0
   11.3141  -17.6629   26.3674 C   0  0  0  0  0  0  0  0  0  0  0  0
   11.1715  -19.1305   26.6804 C   0  0  0  0  0  0  0  0  0  0  0  0
   11.7889  -19.5026   28.0064 C   0  0  0  0  0  0  0  0  0  0  0  0
   11.6714  -20.9667   28.1370 N   0  0  0  0  0  0  0  0  0  0  0  0
   11.7902  -15.6679   23.4025 C   0  0  0  0  0  0  0  0  0  0  0  0
   13.1744  -15.5769   23.4206 O   0  0  0  0  0  0  0  0  0  0  0  0
   11.2526  -15.5628   22.2451 O   0  0  0  0  0  0  0  0  0  0  0  0
  2  1  1  6
  3  2  1  0
  4  2  1  0
  4  6  1  0
  4  5  1  6
  6  7  2  0
  9  8  1  1
 10  9  1  0
 11  9  1  0
 12 11  1  1
 13  6  1  0
 13 12  1  0
 14 12  1  0
 14 15  2  0
 16 14  1  0
 17 16  1  0
 18 19  1  0
 17 18  1  6
 20 19  1  0
 21 22  1  0
 21 20  1  0
 23 17  1  0
 24 23  1  0
 25 23  2  0
M  END
$$$$
