FAP.pdb
     RDKit          3D

 24 25  0  0  1  0  0  0  0  0999 V2000
    6.1273  -16.2231   20.9726 N   0  0  0  0  0  0  0  0  0  0  0  0
    6.9807  -15.4967   21.8733 C   0  0  1  0  0  0  0  0  0  0  0  0
    6.8322  -14.0070   21.7115 C   0  0  0  0  0  0  0  0  0  0  0  0
    7.5437  -13.6376   20.4478 C   0  0  0  0  0  0  0  0  0  0  0  0
    6.9104  -13.6593   19.2248 C   0  0  0  0  0  0  0  0  0  0  0  0
    7.5805  -13.3142   18.0557 C   0  0  0  0  0  0  0  0  0  0  0  0
    8.9119  -12.9401   18.1152 C   0  0  0  0  0  0  0  0  0  0  0  0
    9.5605  -12.9123   19.3253 C   0  0  0  0  0  0  0  0  0  0  0  0
    8.8690  -13.2615   20.4784 C   0  0  0  0  0  0  0  0  0  0  0  0
    6.7442  -15.9542   23.2608 C   0  0  0  0  0  0  0  0  0  0  0  0
    5.6891  -15.5795   23.8171 O   0  0  0  0  0  0  0  0  0  0  0  0
    7.4682  -18.1778   25.9556 C   0  0  0  0  0  0  0  0  0  0  0  0
    7.8576  -16.8629   25.3640 C   0  0  2  0  0  0  0  0  0  0  0  0
    7.6507  -16.7801   23.9577 N   0  0  0  0  0  0  0  0  0  0  0  0
    9.2062  -16.3784   25.8134 C   0  0  0  0  0  0  0  0  0  0  0  0
   10.1919  -16.5084   25.0528 O   0  0  0  0  0  0  0  0  0  0  0  0
    9.4215  -15.7706   27.0753 N   0  0  0  0  0  0  0  0  0  0  0  0
    8.4724  -15.4678   28.1194 C   0  0  0  0  0  0  0  0  0  0  0  0
    8.9649  -14.1120   28.6184 C   0  0  0  0  0  0  0  0  0  0  0  0
   10.3661  -13.9593   28.1398 C   0  0  0  0  0  0  0  0  0  0  0  0
   10.7055  -15.3187   27.5722 C   0  0  1  0  0  0  0  0  0  0  0  0
   11.2037  -16.1646   28.6791 C   0  0  0  0  0  0  0  0  0  0  0  0
   12.4709  -16.0606   29.2316 O   0  0  0  0  0  0  0  0  0  0  0  0
   10.4487  -17.0406   29.1672 O   0  0  0  0  0  0  0  0  0  0  0  0
  2  1  1  6
  2 10  1  0
  3  2  1  0
  4  3  1  0
  5  4  2  0
  6  5  1  0
  7  6  2  0
  7  8  1  0
  8  9  2  0
  9  4  1  0
 10 11  2  0
 13 12  1  6
 13 15  1  0
 14 13  1  0
 14 10  1  0
 15 16  2  0
 15 17  1  0
 17 18  1  0
 17 21  1  0
 18 19  1  0
 20 19  1  0
 20 21  1  0
 21 22  1  1
 22 24  2  0
 22 23  1  0
M  END
$$$$
