FAP.pdb
     RDKit          3D

 24 25  0  0  1  0  0  0  0  0999 V2000
    5.7157  -17.8559   25.6695 N   0  0  0  0  0  0  0  0  0  0  0  0
    6.2795  -16.5489   25.4666 C   0  0  1  0  0  0  0  0  0  0  0  0
    6.9973  -16.0489   26.6924 C   0  0  0  0  0  0  0  0  0  0  0  0
    6.8803  -14.5570   26.6819 C   0  0  0  0  0  0  0  0  0  0  0  0
    7.9902  -13.7415   26.6839 C   0  0  0  0  0  0  0  0  0  0  0  0
    7.8712  -12.3556   26.6741 C   0  0  0  0  0  0  0  0  0  0  0  0
    6.6137  -11.7771   26.6621 C   0  0  0  0  0  0  0  0  0  0  0  0
    5.4950  -12.5736   26.6600 C   0  0  0  0  0  0  0  0  0  0  0  0
    5.6408  -13.9551   26.6699 C   0  0  0  0  0  0  0  0  0  0  0  0
    7.1348  -16.5578   24.2589 C   0  0  0  0  0  0  0  0  0  0  0  0
    7.9311  -17.5125   24.1260 O   0  0  0  0  0  0  0  0  0  0  0  0
    7.8235  -14.0548   21.4880 C   0  0  0  0  0  0  0  0  0  0  0  0
    7.8927  -15.4081   22.1157 C   0  0  2  0  0  0  0  0  0  0  0  0
    7.0803  -15.5467   23.2769 N   0  0  0  0  0  0  0  0  0  0  0  0
    9.2943  -15.9203   22.2852 C   0  0  0  0  0  0  0  0  0  0  0  0
    9.8168  -15.9191   23.4228 O   0  0  0  0  0  0  0  0  0  0  0  0
   10.0665  -16.4138   21.2043 N   0  0  0  0  0  0  0  0  0  0  0  0
    9.7736  -16.4058   19.7913 C   0  0  0  0  0  0  0  0  0  0  0  0
   10.3001  -17.7675   19.3460 C   0  0  0  0  0  0  0  0  0  0  0  0
   11.2197  -18.2449   20.4148 C   0  0  0  0  0  0  0  0  0  0  0  0
   11.3619  -17.0507   21.3307 C   0  0  1  0  0  0  0  0  0  0  0  0
   12.4541  -16.2009   20.8071 C   0  0  0  0  0  0  0  0  0  0  0  0
   13.7876  -16.3380   21.1605 O   0  0  0  0  0  0  0  0  0  0  0  0
   12.1813  -15.2896   19.9881 O   0  0  0  0  0  0  0  0  0  0  0  0
  2  1  1  1
  2 10  1  0
  3  2  1  0
  4  3  1  0
  5  4  2  0
  6  5  1  0
  7  6  2  0
  7  8  1  0
  8  9  2  0
  9  4  1  0
 10 11  2  0
 13 12  1  1
 13 15  1  0
 14 13  1  0
 14 10  1  0
 15 16  2  0
 15 17  1  0
 17 18  1  0
 17 21  1  0
 18 19  1  0
 20 19  1  0
 20 21  1  0
 21 22  1  6
 22 24  2  0
 22 23  1  0
M  END
$$$$
