FAP.pdb
     RDKit          3D

 24 25  0  0  1  0  0  0  0  0999 V2000
    5.7571  -17.0667   24.9697 N   0  0  0  0  0  0  0  0  0  0  0  0
    6.5133  -15.8840   24.6589 C   0  0  1  0  0  0  0  0  0  0  0  0
    7.6354  -15.6597   25.6378 C   0  0  0  0  0  0  0  0  0  0  0  0
    7.4806  -14.2654   26.1589 C   0  0  0  0  0  0  0  0  0  0  0  0
    8.5557  -13.5398   26.6222 C   0  0  0  0  0  0  0  0  0  0  0  0
    8.4017  -12.2442   27.1046 C   0  0  0  0  0  0  0  0  0  0  0  0
    7.1442  -11.6658   27.1222 C   0  0  0  0  0  0  0  0  0  0  0  0
    6.0600  -12.3734   26.6644 C   0  0  0  0  0  0  0  0  0  0  0  0
    6.2403  -13.6657   26.1877 C   0  0  0  0  0  0  0  0  0  0  0  0
    6.9747  -15.9432   23.2539 C   0  0  0  0  0  0  0  0  0  0  0  0
    7.4081  -17.0394   22.8374 O   0  0  0  0  0  0  0  0  0  0  0  0
    7.6697  -13.3028   20.6243 C   0  0  0  0  0  0  0  0  0  0  0  0
    7.4965  -14.7128   21.0853 C   0  0  2  0  0  0  0  0  0  0  0  0
    6.9411  -14.8276   22.3914 N   0  0  0  0  0  0  0  0  0  0  0  0
    8.7072  -15.5717   20.8578 C   0  0  0  0  0  0  0  0  0  0  0  0
    9.3811  -15.9583   21.8395 O   0  0  0  0  0  0  0  0  0  0  0  0
    9.1309  -15.9737   19.5666 N   0  0  0  0  0  0  0  0  0  0  0  0
    8.6029  -15.6070   18.2746 C   0  0  0  0  0  0  0  0  0  0  0  0
    8.6927  -16.9224   17.5055 C   0  0  0  0  0  0  0  0  0  0  0  0
    9.6422  -17.7937   18.2505 C   0  0  0  0  0  0  0  0  0  0  0  0
   10.2324  -16.8756   19.2964 C   0  0  1  0  0  0  0  0  0  0  0  0
   11.3885  -16.1777   18.6918 C   0  0  0  0  0  0  0  0  0  0  0  0
   11.3133  -14.9466   18.0589 O   0  0  0  0  0  0  0  0  0  0  0  0
   12.5220  -16.7146   18.7424 O   0  0  0  0  0  0  0  0  0  0  0  0
  2  1  1  1
  2 10  1  0
  3  2  1  0
  4  3  1  0
  5  4  2  0
  6  5  1  0
  7  6  2  0
  7  8  1  0
  8  9  2  0
  9  4  1  0
 10 11  2  0
 13 12  1  1
 13 15  1  0
 14 13  1  0
 14 10  1  0
 15 16  2  0
 15 17  1  0
 17 18  1  0
 17 21  1  0
 18 19  1  0
 20 19  1  0
 20 21  1  0
 21 22  1  6
 22 24  2  0
 22 23  1  0
M  END
$$$$
