FAP.pdb
     RDKit          3D

 24 25  0  0  1  0  0  0  0  0999 V2000
    6.7151  -16.5314   25.9439 N   0  0  0  0  0  0  0  0  0  0  0  0
    7.0824  -15.5395   24.9699 C   0  0  1  0  0  0  0  0  0  0  0  0
    8.1784  -14.6367   25.4716 C   0  0  0  0  0  0  0  0  0  0  0  0
    7.5103  -13.5012   26.1815 C   0  0  0  0  0  0  0  0  0  0  0  0
    7.9721  -13.0279   27.3897 C   0  0  0  0  0  0  0  0  0  0  0  0
    7.3442  -11.9718   28.0419 C   0  0  0  0  0  0  0  0  0  0  0  0
    6.2314  -11.3793   27.4703 C   0  0  0  0  0  0  0  0  0  0  0  0
    5.7560  -11.8373   26.2661 C   0  0  0  0  0  0  0  0  0  0  0  0
    6.4010  -12.8935   25.6349 C   0  0  0  0  0  0  0  0  0  0  0  0
    7.4183  -16.2002   23.6890 C   0  0  0  0  0  0  0  0  0  0  0  0
    7.8995  -17.3527   23.7460 O   0  0  0  0  0  0  0  0  0  0  0  0
    7.6111  -14.9448   20.1093 C   0  0  0  0  0  0  0  0  0  0  0  0
    7.7199  -15.9924   21.1680 C   0  0  2  0  0  0  0  0  0  0  0  0
    7.2170  -15.5843   22.4361 N   0  0  0  0  0  0  0  0  0  0  0  0
    9.0699  -16.6477   21.2276 C   0  0  0  0  0  0  0  0  0  0  0  0
    9.8714  -16.3250   22.1334 O   0  0  0  0  0  0  0  0  0  0  0  0
    9.4876  -17.6298   20.2952 N   0  0  0  0  0  0  0  0  0  0  0  0
    8.8393  -18.0792   19.0869 C   0  0  0  0  0  0  0  0  0  0  0  0
    9.1090  -19.5812   19.1167 C   0  0  0  0  0  0  0  0  0  0  0  0
   10.2289  -19.7994   20.0729 C   0  0  0  0  0  0  0  0  0  0  0  0
   10.7096  -18.4024   20.3930 C   0  0  1  0  0  0  0  0  0  0  0  0
   11.6990  -18.0127   19.3642 C   0  0  0  0  0  0  0  0  0  0  0  0
   11.4138  -17.2076   18.2723 O   0  0  0  0  0  0  0  0  0  0  0  0
   12.8804  -18.4249   19.4644 O   0  0  0  0  0  0  0  0  0  0  0  0
  2  1  1  1
  2 10  1  0
  3  2  1  0
  4  3  1  0
  5  4  2  0
  6  5  1  0
  7  6  2  0
  7  8  1  0
  8  9  2  0
  9  4  1  0
 10 11  2  0
 13 12  1  6
 13 15  1  0
 14 13  1  0
 14 10  1  0
 15 16  2  0
 15 17  1  0
 17 18  1  0
 17 21  1  0
 18 19  1  0
 20 19  1  0
 20 21  1  0
 21 22  1  6
 22 24  2  0
 22 23  1  0
M  END
$$$$
