FAP.pdb
     RDKit          3D

 24 25  0  0  1  0  0  0  0  0999 V2000
    8.6744  -15.3837   26.5829 N   0  0  0  0  0  0  0  0  0  0  0  0
    8.3265  -14.9918   25.2440 C   0  0  1  0  0  0  0  0  0  0  0  0
    8.4549  -13.5052   25.0413 C   0  0  0  0  0  0  0  0  0  0  0  0
    7.5322  -12.8549   26.0238 C   0  0  0  0  0  0  0  0  0  0  0  0
    7.9863  -12.3500   27.2222 C   0  0  0  0  0  0  0  0  0  0  0  0
    7.1207  -11.7472   28.1290 C   0  0  0  0  0  0  0  0  0  0  0  0
    5.7733  -11.6493   27.8272 C   0  0  0  0  0  0  0  0  0  0  0  0
    5.3016  -12.1468   26.6373 C   0  0  0  0  0  0  0  0  0  0  0  0
    6.1865  -12.7442   25.7486 C   0  0  0  0  0  0  0  0  0  0  0  0
    9.1196  -15.7786   24.2733 C   0  0  0  0  0  0  0  0  0  0  0  0
   10.3457  -15.8910   24.4903 O   0  0  0  0  0  0  0  0  0  0  0  0
    9.6076  -17.6945   21.3617 C   0  0  0  0  0  0  0  0  0  0  0  0
    9.0369  -16.3861   21.8008 C   0  0  2  0  0  0  0  0  0  0  0  0
    8.5481  -16.3907   23.1382 N   0  0  0  0  0  0  0  0  0  0  0  0
    8.0894  -15.7802   20.8055 C   0  0  0  0  0  0  0  0  0  0  0  0
    6.8642  -16.0204   20.8966 O   0  0  0  0  0  0  0  0  0  0  0  0
    8.5202  -14.9357   19.7521 N   0  0  0  0  0  0  0  0  0  0  0  0
    9.8432  -14.4387   19.4602 C   0  0  0  0  0  0  0  0  0  0  0  0
    9.5573  -13.0091   19.0086 C   0  0  0  0  0  0  0  0  0  0  0  0
    8.1100  -12.9463   18.6658 C   0  0  0  0  0  0  0  0  0  0  0  0
    7.6616  -14.3889   18.7209 C   0  0  1  0  0  0  0  0  0  0  0  0
    7.9213  -14.9989   17.3982 C   0  0  0  0  0  0  0  0  0  0  0  0
    8.9617  -15.8762   17.1340 O   0  0  0  0  0  0  0  0  0  0  0  0
    7.1642  -14.7201   16.4366 O   0  0  0  0  0  0  0  0  0  0  0  0
  2  1  1  1
  2 10  1  0
  3  2  1  0
  4  3  1  0
  5  4  2  0
  6  5  1  0
  7  6  2  0
  7  8  1  0
  8  9  2  0
  9  4  1  0
 10 11  2  0
 13 12  1  6
 13 15  1  0
 14 13  1  0
 14 10  1  0
 15 16  2  0
 15 17  1  0
 17 18  1  0
 17 21  1  0
 18 19  1  0
 20 19  1  0
 20 21  1  0
 21 22  1  6
 22 24  2  0
 22 23  1  0
M  END
$$$$
