FAP.pdb
     RDKit          3D

 24 25  0  0  1  0  0  0  0  0999 V2000
    5.8761  -17.4618   25.7559 N   0  0  0  0  0  0  0  0  0  0  0  0
    6.4640  -16.2501   25.2526 C   0  0  1  0  0  0  0  0  0  0  0  0
    7.5606  -15.7412   26.1505 C   0  0  0  0  0  0  0  0  0  0  0  0
    7.2534  -14.3044   26.4344 C   0  0  0  0  0  0  0  0  0  0  0  0
    5.9837  -13.7907   26.2888 C   0  0  0  0  0  0  0  0  0  0  0  0
    5.7080  -12.4536   26.5552 C   0  0  0  0  0  0  0  0  0  0  0  0
    6.7264  -11.6158   26.9759 C   0  0  0  0  0  0  0  0  0  0  0  0
    7.9990  -12.1094   27.1271 C   0  0  0  0  0  0  0  0  0  0  0  0
    8.2483  -13.4486   26.8545 C   0  0  0  0  0  0  0  0  0  0  0  0
    6.9085  -16.4553   23.8560 C   0  0  0  0  0  0  0  0  0  0  0  0
    7.3166  -17.5953   23.5447 O   0  0  0  0  0  0  0  0  0  0  0  0
    7.5467  -14.0856   20.9554 C   0  0  0  0  0  0  0  0  0  0  0  0
    7.4716  -15.4351   21.5908 C   0  0  2  0  0  0  0  0  0  0  0  0
    6.8863  -15.4288   22.8888 N   0  0  0  0  0  0  0  0  0  0  0  0
    8.7534  -16.2126   21.5016 C   0  0  0  0  0  0  0  0  0  0  0  0
    9.4573  -16.3589   22.5265 O   0  0  0  0  0  0  0  0  0  0  0  0
    9.2123  -16.7994   20.2960 N   0  0  0  0  0  0  0  0  0  0  0  0
    8.7219  -16.6276   18.9498 C   0  0  0  0  0  0  0  0  0  0  0  0
    8.8302  -18.0415   18.3852 C   0  0  0  0  0  0  0  0  0  0  0  0
    9.7562  -18.7922   19.2768 C   0  0  0  0  0  0  0  0  0  0  0  0
   10.3189  -17.7292   20.1926 C   0  0  1  0  0  0  0  0  0  0  0  0
   11.4932  -17.1258   19.5248 C   0  0  0  0  0  0  0  0  0  0  0  0
   12.7729  -17.6572   19.5658 O   0  0  0  0  0  0  0  0  0  0  0  0
   11.3471  -16.0635   18.8722 O   0  0  0  0  0  0  0  0  0  0  0  0
  2  1  1  1
  2 10  1  0
  3  2  1  0
  4  3  1  0
  5  4  2  0
  6  5  1  0
  7  6  2  0
  7  8  1  0
  8  9  2  0
  9  4  1  0
 10 11  2  0
 13 12  1  1
 13 15  1  0
 14 13  1  0
 14 10  1  0
 15 16  2  0
 15 17  1  0
 17 18  1  0
 17 21  1  0
 18 19  1  0
 20 19  1  0
 20 21  1  0
 21 22  1  6
 22 24  2  0
 22 23  1  0
M  END
$$$$
