FAP.pdb
     RDKit          3D

 24 25  0  0  1  0  0  0  0  0999 V2000
    8.7520  -17.8750   26.0172 N   0  0  0  0  0  0  0  0  0  0  0  0
    7.6095  -17.0055   25.9403 C   0  0  1  0  0  0  0  0  0  0  0  0
    7.2482  -16.4304   27.2843 C   0  0  0  0  0  0  0  0  0  0  0  0
    8.4304  -15.6372   27.7457 C   0  0  0  0  0  0  0  0  0  0  0  0
    8.5022  -14.2728   27.5717 C   0  0  0  0  0  0  0  0  0  0  0  0
    9.6055  -13.5443   28.0040 C   0  0  0  0  0  0  0  0  0  0  0  0
   10.6570  -14.1979   28.6230 C   0  0  0  0  0  0  0  0  0  0  0  0
   10.6038  -15.5580   28.8055 C   0  0  0  0  0  0  0  0  0  0  0  0
    9.4908  -16.2627   28.3647 C   0  0  0  0  0  0  0  0  0  0  0  0
    7.8420  -15.9680   24.9108 C   0  0  0  0  0  0  0  0  0  0  0  0
    6.9186  -15.1523   24.6985 O   0  0  0  0  0  0  0  0  0  0  0  0
   10.7508  -15.0517   22.6332 C   0  0  0  0  0  0  0  0  0  0  0  0
    9.3116  -15.0747   23.0316 C   0  0  2  0  0  0  0  0  0  0  0  0
    9.0445  -15.8736   24.1796 N   0  0  0  0  0  0  0  0  0  0  0  0
    8.3749  -15.3207   21.8838 C   0  0  0  0  0  0  0  0  0  0  0  0
    7.5109  -16.2219   21.9765 O   0  0  0  0  0  0  0  0  0  0  0  0
    8.4204  -14.5706   20.6823 N   0  0  0  0  0  0  0  0  0  0  0  0
    9.2998  -13.4881   20.3118 C   0  0  0  0  0  0  0  0  0  0  0  0
    8.3569  -12.5494   19.5638 C   0  0  0  0  0  0  0  0  0  0  0  0
    7.1567  -13.3484   19.1939 C   0  0  0  0  0  0  0  0  0  0  0  0
    7.5429  -14.7669   19.5460 C   0  0  1  0  0  0  0  0  0  0  0  0
    8.2546  -15.3480   18.3862 C   0  0  0  0  0  0  0  0  0  0  0  0
    7.6257  -15.8812   17.2718 O   0  0  0  0  0  0  0  0  0  0  0  0
    9.5096  -15.3710   18.3874 O   0  0  0  0  0  0  0  0  0  0  0  0
  2  1  1  1
  2 10  1  0
  3  2  1  0
  4  3  1  0
  5  4  2  0
  6  5  1  0
  7  6  2  0
  7  8  1  0
  8  9  2  0
  9  4  1  0
 10 11  2  0
 13 12  1  6
 13 15  1  0
 14 13  1  0
 14 10  1  0
 15 16  2  0
 15 17  1  0
 17 18  1  0
 17 21  1  0
 18 19  1  0
 20 19  1  0
 20 21  1  0
 21 22  1  6
 22 24  2  0
 22 23  1  0
M  END
$$$$
