FAP.pdb
     RDKit          3D

 24 25  0  0  1  0  0  0  0  0999 V2000
    5.9717  -16.8890   25.8494 N   0  0  0  0  0  0  0  0  0  0  0  0
    6.6603  -15.8078   25.1981 C   0  0  1  0  0  0  0  0  0  0  0  0
    7.7860  -15.2686   26.0406 C   0  0  0  0  0  0  0  0  0  0  0  0
    7.3915  -13.8850   26.4527 C   0  0  0  0  0  0  0  0  0  0  0  0
    8.1531  -13.1431   27.3283 C   0  0  0  0  0  0  0  0  0  0  0  0
    7.7779  -11.8578   27.7053 C   0  0  0  0  0  0  0  0  0  0  0  0
    6.6159  -11.3065   27.1935 C   0  0  0  0  0  0  0  0  0  0  0  0
    5.8433  -12.0307   26.3192 C   0  0  0  0  0  0  0  0  0  0  0  0
    6.2398  -13.3122   25.9584 C   0  0  0  0  0  0  0  0  0  0  0  0
    7.0999  -16.2369   23.8517 C   0  0  0  0  0  0  0  0  0  0  0  0
    7.5381  -17.4020   23.7347 O   0  0  0  0  0  0  0  0  0  0  0  0
    7.5662  -14.4112   20.5465 C   0  0  0  0  0  0  0  0  0  0  0  0
    7.6031  -15.6118   21.4340 C   0  0  2  0  0  0  0  0  0  0  0  0
    7.0410  -15.3921   22.7237 N   0  0  0  0  0  0  0  0  0  0  0  0
    8.9377  -16.3000   21.4577 C   0  0  0  0  0  0  0  0  0  0  0  0
    9.6315  -16.2622   22.4990 O   0  0  0  0  0  0  0  0  0  0  0  0
    9.4584  -17.0024   20.3424 N   0  0  0  0  0  0  0  0  0  0  0  0
    8.9229  -17.1276   19.0082 C   0  0  0  0  0  0  0  0  0  0  0  0
    9.2347  -18.5834   18.6719 C   0  0  0  0  0  0  0  0  0  0  0  0
   10.2804  -19.0333   19.6312 C   0  0  0  0  0  0  0  0  0  0  0  0
   10.6914  -17.7635   20.3410 C   0  0  1  0  0  0  0  0  0  0  0  0
   11.7478  -17.1115   19.5361 C   0  0  0  0  0  0  0  0  0  0  0  0
   11.5069  -16.1674   18.5500 O   0  0  0  0  0  0  0  0  0  0  0  0
   12.9483  -17.4158   19.7406 O   0  0  0  0  0  0  0  0  0  0  0  0
  2  1  1  1
  2 10  1  0
  3  2  1  0
  4  3  1  0
  5  4  2  0
  6  5  1  0
  7  6  2  0
  7  8  1  0
  8  9  2  0
  9  4  1  0
 10 11  2  0
 13 12  1  1
 13 15  1  0
 14 13  1  0
 14 10  1  0
 15 16  2  0
 15 17  1  0
 17 18  1  0
 17 21  1  0
 18 19  1  0
 20 19  1  0
 20 21  1  0
 21 22  1  6
 22 24  2  0
 22 23  1  0
M  END
$$$$
