FAP.pdb
     RDKit          3D

 24 25  0  0  1  0  0  0  0  0999 V2000
    8.7593  -17.8246   26.0896 N   0  0  0  0  0  0  0  0  0  0  0  0
    7.6008  -16.9841   25.9530 C   0  0  1  0  0  0  0  0  0  0  0  0
    7.2219  -16.3314   27.2561 C   0  0  0  0  0  0  0  0  0  0  0  0
    8.4005  -15.5172   27.6891 C   0  0  0  0  0  0  0  0  0  0  0  0
    9.4649  -16.0793   28.3587 C   0  0  0  0  0  0  0  0  0  0  0  0
   10.5560  -15.3141   28.7571 C   0  0  0  0  0  0  0  0  0  0  0  0
   10.5794  -13.9585   28.4780 C   0  0  0  0  0  0  0  0  0  0  0  0
    9.5275  -13.3798   27.8113 C   0  0  0  0  0  0  0  0  0  0  0  0
    8.4495  -14.1658   27.4242 C   0  0  0  0  0  0  0  0  0  0  0  0
    7.8186  -16.0102   24.8601 C   0  0  0  0  0  0  0  0  0  0  0  0
    6.8978  -15.1987   24.6218 O   0  0  0  0  0  0  0  0  0  0  0  0
   10.7644  -15.0293   22.6849 C   0  0  0  0  0  0  0  0  0  0  0  0
    9.3056  -15.1299   22.9884 C   0  0  2  0  0  0  0  0  0  0  0  0
    9.0046  -15.9705   24.0976 N   0  0  0  0  0  0  0  0  0  0  0  0
    8.4569  -15.3887   21.7767 C   0  0  0  0  0  0  0  0  0  0  0  0
    7.6642  -16.3577   21.7759 O   0  0  0  0  0  0  0  0  0  0  0  0
    8.5087  -14.5769   20.6163 N   0  0  0  0  0  0  0  0  0  0  0  0
    9.3458  -13.4358   20.3341 C   0  0  0  0  0  0  0  0  0  0  0  0
    8.3851  -12.5066   19.5970 C   0  0  0  0  0  0  0  0  0  0  0  0
    7.2407  -13.3426   19.1416 C   0  0  0  0  0  0  0  0  0  0  0  0
    7.6843  -14.7570   19.4383 C   0  0  1  0  0  0  0  0  0  0  0  0
    8.4662  -15.2431   18.2801 C   0  0  0  0  0  0  0  0  0  0  0  0
    9.8483  -15.3482   18.2601 O   0  0  0  0  0  0  0  0  0  0  0  0
    7.8617  -15.5893   17.2358 O   0  0  0  0  0  0  0  0  0  0  0  0
  2  1  1  1
  2 10  1  0
  3  2  1  0
  4  3  1  0
  5  4  2  0
  6  5  1  0
  7  6  2  0
  7  8  1  0
  8  9  2  0
  9  4  1  0
 10 11  2  0
 13 12  1  6
 13 15  1  0
 14 13  1  0
 14 10  1  0
 15 16  2  0
 15 17  1  0
 17 18  1  0
 17 21  1  0
 18 19  1  0
 20 19  1  0
 20 21  1  0
 21 22  1  6
 22 24  2  0
 22 23  1  0
M  END
$$$$
