ASA.pdb
     RDKit          3D

 17 16  0  0  1  0  0  0  0  0999 V2000
   16.8602  -13.7344  -16.9434 C   0  0  0  0  0  0  0  0  0  0  0  0
   17.1674  -12.3534  -17.3861 C   0  0  2  0  0  0  0  0  0  0  0  0
   18.2734  -12.3703  -18.3192 N   0  0  0  0  0  0  0  0  0  0  0  0
   17.4019  -11.3639  -16.3565 C   0  0  0  0  0  0  0  0  0  0  0  0
   16.4894  -11.2150  -15.4694 O   0  0  0  0  0  0  0  0  0  0  0  0
   20.2528   -8.2372  -13.9907 O   0  0  0  0  0  0  0  0  0  0  0  0
   20.1672   -9.1932  -15.0003 C   0  0  0  0  0  0  0  0  0  0  0  0
   18.7107   -9.4694  -15.3124 C   0  0  2  0  0  0  0  0  0  0  0  0
   18.5620  -10.5489  -16.2553 N   0  0  0  0  0  0  0  0  0  0  0  0
   18.1468   -8.1866  -15.8535 C   0  0  0  0  0  0  0  0  0  0  0  0
   18.4452   -7.8892  -17.0232 O   0  0  0  0  0  0  0  0  0  0  0  0
   15.2705   -5.9998  -15.0816 C   0  0  0  0  0  0  0  0  0  0  0  0
   16.6661   -6.1956  -15.6445 C   0  0  2  0  0  0  0  0  0  0  0  0
   17.3135   -7.3529  -15.0693 N   0  0  0  0  0  0  0  0  0  0  0  0
   17.4574   -4.9692  -15.3750 C   0  0  0  0  0  0  0  0  0  0  0  0
   18.5978   -5.0085  -14.6046 O   0  0  0  0  0  0  0  0  0  0  0  0
   17.0733   -3.8778  -15.8624 O   0  0  0  0  0  0  0  0  0  0  0  0
  2  1  1  1
  2  3  1  0
  4  5  2  0
  4  2  1  0
  6  7  1  0
  8  7  1  6
  8  9  1  0
  9  4  1  0
 10  8  1  0
 11 10  2  0
 13 12  1  1
 13 15  1  0
 13 14  1  0
 14 10  1  0
 15 16  1  0
 17 15  2  0
M  END
$$$$
