ASA.pdb
     RDKit          3D

 17 16  0  0  1  0  0  0  0  0999 V2000
   16.7059  -11.5587  -13.8898 C   0  0  0  0  0  0  0  0  0  0  0  0
   16.0642  -10.2859  -13.4828 C   0  0  2  0  0  0  0  0  0  0  0  0
   16.2439   -9.2911  -14.5183 N   0  0  0  0  0  0  0  0  0  0  0  0
   16.4377   -9.7368  -12.1969 C   0  0  0  0  0  0  0  0  0  0  0  0
   16.2214  -10.4645  -11.1649 O   0  0  0  0  0  0  0  0  0  0  0  0
   18.2291   -5.9655  -11.7313 O   0  0  0  0  0  0  0  0  0  0  0  0
   18.5037   -6.9385  -10.7729 C   0  0  0  0  0  0  0  0  0  0  0  0
   17.3479   -7.9151  -10.6987 C   0  0  2  0  0  0  0  0  0  0  0  0
   17.0233   -8.4578  -11.9935 N   0  0  0  0  0  0  0  0  0  0  0  0
   16.1913   -7.1531  -10.1173 C   0  0  0  0  0  0  0  0  0  0  0  0
   15.4192   -6.6017  -10.9207 O   0  0  0  0  0  0  0  0  0  0  0  0
   14.6587   -6.6365   -6.7055 C   0  0  0  0  0  0  0  0  0  0  0  0
   14.8741   -6.3222   -8.1744 C   0  0  2  0  0  0  0  0  0  0  0  0
   15.9877   -7.0655   -8.7190 N   0  0  0  0  0  0  0  0  0  0  0  0
   15.1052   -4.8626   -8.3133 C   0  0  0  0  0  0  0  0  0  0  0  0
   16.3173   -4.3675   -8.7387 O   0  0  0  0  0  0  0  0  0  0  0  0
   14.1722   -4.0698   -8.0356 O   0  0  0  0  0  0  0  0  0  0  0  0
  2  1  1  6
  2  3  1  0
  4  5  2  0
  4  2  1  0
  6  7  1  0
  8  7  1  6
  8  9  1  0
  9  4  1  0
 10  8  1  0
 11 10  2  0
 13 12  1  1
 13 15  1  0
 13 14  1  0
 14 10  1  0
 15 16  1  0
 17 15  2  0
M  END
$$$$
