ASA.pdb
     RDKit          3D

 17 16  0  0  1  0  0  0  0  0999 V2000
   10.6345  -10.4374  -11.2245 C   0  0  0  0  0  0  0  0  0  0  0  0
   11.6900  -11.4673  -11.0748 C   0  0  2  0  0  0  0  0  0  0  0  0
   11.2327  -12.5154  -10.1880 N   0  0  0  0  0  0  0  0  0  0  0  0
   13.0048  -11.0155  -10.6725 C   0  0  0  0  0  0  0  0  0  0  0  0
   13.2354  -10.9326   -9.4149 O   0  0  0  0  0  0  0  0  0  0  0  0
   16.7760  -11.6859  -12.2847 O   0  0  0  0  0  0  0  0  0  0  0  0
   16.3912  -10.3487  -12.2189 C   0  0  0  0  0  0  0  0  0  0  0  0
   15.3440  -10.1768  -11.1378 C   0  0  2  0  0  0  0  0  0  0  0  0
   14.0540  -10.6588  -11.5624 N   0  0  0  0  0  0  0  0  0  0  0  0
   15.3044   -8.7088  -10.8214 C   0  0  0  0  0  0  0  0  0  0  0  0
   14.7212   -7.9727  -11.6359 O   0  0  0  0  0  0  0  0  0  0  0  0
   16.2095   -6.5148   -7.8839 C   0  0  0  0  0  0  0  0  0  0  0  0
   15.7817   -6.7848   -9.3146 C   0  0  2  0  0  0  0  0  0  0  0  0
   15.9030   -8.1856   -9.6500 N   0  0  0  0  0  0  0  0  0  0  0  0
   16.6197   -5.9588  -10.2192 C   0  0  0  0  0  0  0  0  0  0  0  0
   16.4266   -4.6003  -10.3315 O   0  0  0  0  0  0  0  0  0  0  0  0
   17.5207   -6.5169  -10.8923 O   0  0  0  0  0  0  0  0  0  0  0  0
  2  1  1  1
  2  3  1  0
  4  5  2  0
  4  2  1  0
  6  7  1  0
  8  7  1  6
  8  9  1  0
  9  4  1  0
 10  8  1  0
 11 10  2  0
 13 12  1  1
 13 15  1  0
 13 14  1  0
 14 10  1  0
 15 16  1  0
 17 15  2  0
M  END
$$$$
