ASA.pdb
     RDKit          3D

 17 16  0  0  1  0  0  0  0  0999 V2000
   17.6483  -11.6995  -14.5090 C   0  0  0  0  0  0  0  0  0  0  0  0
   17.9476  -11.4863  -15.9451 C   0  0  2  0  0  0  0  0  0  0  0  0
   18.6173  -12.6494  -16.4862 N   0  0  0  0  0  0  0  0  0  0  0  0
   18.6738  -10.2858  -16.2999 C   0  0  0  0  0  0  0  0  0  0  0  0
   19.8917  -10.4272  -16.6719 O   0  0  0  0  0  0  0  0  0  0  0  0
   17.1488   -6.4528  -15.6762 O   0  0  0  0  0  0  0  0  0  0  0  0
   18.0022   -6.5775  -16.7702 C   0  0  0  0  0  0  0  0  0  0  0  0
   18.8991   -7.7829  -16.5766 C   0  0  2  0  0  0  0  0  0  0  0  0
   18.1410   -8.9686  -16.2669 N   0  0  0  0  0  0  0  0  0  0  0  0
   19.8434   -7.4289  -15.4632 C   0  0  0  0  0  0  0  0  0  0  0  0
   19.4716   -7.6882  -14.3056 O   0  0  0  0  0  0  0  0  0  0  0  0
   23.4751   -6.6672  -15.1392 C   0  0  0  0  0  0  0  0  0  0  0  0
   22.0415   -6.5900  -14.6478 C   0  0  2  0  0  0  0  0  0  0  0  0
   21.0995   -6.8276  -15.7181 N   0  0  0  0  0  0  0  0  0  0  0  0
   21.8217   -5.2497  -14.0492 C   0  0  0  0  0  0  0  0  0  0  0  0
   20.8840   -4.3821  -14.5623 O   0  0  0  0  0  0  0  0  0  0  0  0
   22.5082   -4.9072  -13.0555 O   0  0  0  0  0  0  0  0  0  0  0  0
  2  1  1  1
  2  3  1  0
  4  5  2  0
  4  2  1  0
  6  7  1  0
  8  7  1  1
  8  9  1  0
  9  4  1  0
 10  8  1  0
 11 10  2  0
 13 12  1  6
 13 15  1  0
 13 14  1  0
 14 10  1  0
 15 16  1  0
 17 15  2  0
M  END
$$$$
