ASA.pdb
     RDKit          3D

 17 16  0  0  1  0  0  0  0  0999 V2000
   15.6364  -12.0771  -15.5901 C   0  0  0  0  0  0  0  0  0  0  0  0
   15.9312  -10.7780  -16.2404 C   0  0  2  0  0  0  0  0  0  0  0  0
   16.8946  -10.9672  -17.3035 N   0  0  0  0  0  0  0  0  0  0  0  0
   16.3449   -9.6869  -15.3843 C   0  0  0  0  0  0  0  0  0  0  0  0
   15.5333   -9.3285  -14.4599 O   0  0  0  0  0  0  0  0  0  0  0  0
   19.8989   -8.3861  -13.3532 O   0  0  0  0  0  0  0  0  0  0  0  0
   19.4663   -7.7677  -14.5241 C   0  0  0  0  0  0  0  0  0  0  0  0
   17.9606   -7.8926  -14.6349 C   0  0  2  0  0  0  0  0  0  0  0  0
   17.5769   -8.9864  -15.4910 N   0  0  0  0  0  0  0  0  0  0  0  0
   17.4687   -6.5780  -15.1703 C   0  0  0  0  0  0  0  0  0  0  0  0
   17.5612   -6.3995  -16.3971 O   0  0  0  0  0  0  0  0  0  0  0  0
   15.5037   -3.6300  -13.9217 C   0  0  0  0  0  0  0  0  0  0  0  0
   16.5033   -4.3064  -14.8414 C   0  0  2  0  0  0  0  0  0  0  0  0
   16.9245   -5.5866  -14.3187 N   0  0  0  0  0  0  0  0  0  0  0  0
   17.6699   -3.4047  -15.0116 C   0  0  0  0  0  0  0  0  0  0  0  0
   18.9013   -3.7204  -14.4830 O   0  0  0  0  0  0  0  0  0  0  0  0
   17.5234   -2.3345  -15.6514 O   0  0  0  0  0  0  0  0  0  0  0  0
  2  1  1  1
  2  3  1  0
  4  5  2  0
  4  2  1  0
  6  7  1  0
  8  7  1  6
  8  9  1  0
  9  4  1  0
 10  8  1  0
 11 10  2  0
 13 12  1  1
 13 15  1  0
 13 14  1  0
 14 10  1  0
 15 16  1  0
 17 15  2  0
M  END
$$$$
