ASA.pdb
     RDKit          3D

 17 16  0  0  1  0  0  0  0  0999 V2000
   18.9345  -12.8634  -17.8594 C   0  0  0  0  0  0  0  0  0  0  0  0
   19.5405  -12.1395  -16.7165 C   0  0  2  0  0  0  0  0  0  0  0  0
   18.8259  -12.4563  -15.4987 N   0  0  0  0  0  0  0  0  0  0  0  0
   19.6912  -10.7058  -16.8446 C   0  0  0  0  0  0  0  0  0  0  0  0
   20.4354  -10.2786  -17.7961 O   0  0  0  0  0  0  0  0  0  0  0  0
   17.6772   -8.0163  -14.3813 O   0  0  0  0  0  0  0  0  0  0  0  0
   17.9747   -7.5819  -15.6710 C   0  0  0  0  0  0  0  0  0  0  0  0
   19.1970   -8.3165  -16.1824 C   0  0  2  0  0  0  0  0  0  0  0  0
   19.0794   -9.7410  -15.9992 N   0  0  0  0  0  0  0  0  0  0  0  0
   20.3686   -7.7606  -15.4242 C   0  0  0  0  0  0  0  0  0  0  0  0
   20.6644   -8.3209  -14.3546 O   0  0  0  0  0  0  0  0  0  0  0  0
   23.0535   -5.1689  -16.0012 C   0  0  0  0  0  0  0  0  0  0  0  0
   22.2258   -6.1231  -15.1603 C   0  0  2  0  0  0  0  0  0  0  0  0
   21.1035   -6.6496  -15.9037 N   0  0  0  0  0  0  0  0  0  0  0  0
   21.7561   -5.3985  -13.9530 C   0  0  0  0  0  0  0  0  0  0  0  0
   20.4261   -5.0905  -13.7757 O   0  0  0  0  0  0  0  0  0  0  0  0
   22.5941   -5.0631  -13.0804 O   0  0  0  0  0  0  0  0  0  0  0  0
  2  1  1  6
  2  3  1  0
  4  5  2  0
  4  2  1  0
  6  7  1  0
  8  7  1  1
  8  9  1  0
  9  4  1  0
 10  8  1  0
 11 10  2  0
 13 12  1  6
 13 15  1  0
 13 14  1  0
 14 10  1  0
 15 16  1  0
 17 15  2  0
M  END
$$$$
