ASA.pdb
     RDKit          3D

 17 16  0  0  1  0  0  0  0  0999 V2000
   18.1993  -12.6537  -17.3934 C   0  0  0  0  0  0  0  0  0  0  0  0
   18.9395  -11.9379  -16.3270 C   0  0  2  0  0  0  0  0  0  0  0  0
   18.2372  -12.0677  -15.0684 N   0  0  0  0  0  0  0  0  0  0  0  0
   19.2730  -10.5505  -16.5682 C   0  0  0  0  0  0  0  0  0  0  0  0
   20.0760  -10.3014  -17.5351 O   0  0  0  0  0  0  0  0  0  0  0  0
   17.3158   -7.4348  -14.6623 O   0  0  0  0  0  0  0  0  0  0  0  0
   17.8944   -7.1689  -15.9013 C   0  0  0  0  0  0  0  0  0  0  0  0
   19.0940   -8.0719  -16.1030 C   0  0  2  0  0  0  0  0  0  0  0  0
   18.7799   -9.4490  -15.8175 N   0  0  0  0  0  0  0  0  0  0  0  0
   20.1680   -7.5533  -15.1898 C   0  0  0  0  0  0  0  0  0  0  0  0
   20.1356   -7.9365  -14.0076 O   0  0  0  0  0  0  0  0  0  0  0  0
   23.4352   -5.7311  -15.5906 C   0  0  0  0  0  0  0  0  0  0  0  0
   22.2602   -6.2633  -14.7913 C   0  0  2  0  0  0  0  0  0  0  0  0
   21.1720   -6.6686  -15.6521 N   0  0  0  0  0  0  0  0  0  0  0  0
   21.8137   -5.2048  -13.8515 C   0  0  0  0  0  0  0  0  0  0  0  0
   20.5918   -4.5875  -13.9975 O   0  0  0  0  0  0  0  0  0  0  0  0
   22.5704   -4.8710  -12.9070 O   0  0  0  0  0  0  0  0  0  0  0  0
  2  1  1  6
  2  3  1  0
  4  5  2  0
  4  2  1  0
  6  7  1  0
  8  7  1  1
  8  9  1  0
  9  4  1  0
 10  8  1  0
 11 10  2  0
 13 12  1  6
 13 15  1  0
 13 14  1  0
 14 10  1  0
 15 16  1  0
 17 15  2  0
M  END
$$$$
