FVR.pdb
     RDKit          3D

 30 30  0  0  1  0  0  0  0  0999 V2000
   28.4094  -22.4236   -9.4929 N   0  0  0  0  0  0  0  0  0  0  0  0
   27.6012  -21.2215   -9.5311 C   0  0  1  0  0  0  0  0  0  0  0  0
   28.4818  -20.0508   -9.1664 C   0  0  0  0  0  0  0  0  0  0  0  0
   28.4048  -19.8443   -7.6783 C   0  0  0  0  0  0  0  0  0  0  0  0
   29.3825  -20.4053   -6.8971 C   0  0  0  0  0  0  0  0  0  0  0  0
   29.3398  -20.2326   -5.5277 C   0  0  0  0  0  0  0  0  0  0  0  0
   28.3466  -19.5124   -4.8983 C   0  0  0  0  0  0  0  0  0  0  0  0
   27.3845  -18.9666   -5.7256 C   0  0  0  0  0  0  0  0  0  0  0  0
   27.3957  -19.1185   -7.0931 C   0  0  0  0  0  0  0  0  0  0  0  0
   27.0081  -21.1067  -10.8618 C   0  0  0  0  0  0  0  0  0  0  0  0
   27.7264  -21.2364  -11.8816 O   0  0  0  0  0  0  0  0  0  0  0  0
   23.1738  -22.4491  -11.4842 C   0  0  0  0  0  0  0  0  0  0  0  0
   24.2971  -22.3276  -12.4816 C   0  0  2  0  0  0  0  0  0  0  0  0
   25.1680  -23.5646  -12.4255 C   0  0  0  0  0  0  0  0  0  0  0  0
   25.0430  -21.0409  -12.4438 C   0  0  2  0  0  0  0  0  0  0  0  0
   25.6247  -20.8479  -11.0971 N   0  0  0  0  0  0  0  0  0  0  0  0
   24.2447  -19.8579  -12.7935 C   0  0  0  0  0  0  0  0  0  0  0  0
   23.6273  -19.1694  -11.9085 O   0  0  0  0  0  0  0  0  0  0  0  0
   20.3312  -15.3321  -16.5068 N   0  0  0  0  0  0  0  0  0  0  0  0
   21.0952  -14.3278  -17.1471 C   0  0  0  0  0  0  0  0  0  0  0  0
   20.7490  -13.1112  -17.2438 N   0  0  0  0  0  0  0  0  0  0  0  0
   22.3375  -14.7399  -17.7152 N   0  0  0  0  0  0  0  0  0  0  0  0
   22.8773  -16.0885  -17.5083 C   0  0  0  0  0  0  0  0  0  0  0  0
   23.1426  -16.2779  -16.0496 C   0  0  0  0  0  0  0  0  0  0  0  0
   23.8297  -17.5229  -15.6463 C   0  0  0  0  0  0  0  0  0  0  0  0
   23.3290  -18.2391  -14.4339 C   0  0  2  0  0  0  0  0  0  0  0  0
   24.1233  -19.4155  -14.1275 N   0  0  0  0  0  0  0  0  0  0  0  0
   21.9146  -18.6359  -14.7509 C   0  0  0  0  0  0  0  0  0  0  0  0
   21.7706  -19.7294  -15.3546 O   0  0  0  0  0  0  0  0  0  0  0  0
   20.8059  -17.9040  -14.4339 O   0  0  0  0  0  0  0  0  0  0  0  0
  2 10  1  0
  2  1  1  6
  3  2  1  0
  4  3  1  0
  4  5  2  0
  6  5  1  0
  7  6  2  0
  8  9  2  0
  8  7  1  0
  9  4  1  0
 10 11  2  0
 13 12  1  1
 13 15  1  0
 14 13  1  0
 15 16  1  1
 16 10  1  0
 17 18  2  0
 17 15  1  0
 20 19  1  0
 21 20  2  0
 22 20  1  0
 22 23  1  0
 23 24  1  0
 24 25  1  0
 26 25  1  6
 26 28  1  0
 26 27  1  0
 27 17  1  0
 28 30  1  0
 29 28  2  0
M  END
$$$$
