FVR.pdb
     RDKit          3D

 30 30  0  0  1  0  0  0  0  0999 V2000
   25.0212  -20.2310   -8.2391 N   0  0  0  0  0  0  0  0  0  0  0  0
   24.6945  -20.8081   -9.5275 C   0  0  1  0  0  0  0  0  0  0  0  0
   23.2400  -20.5236   -9.8152 C   0  0  0  0  0  0  0  0  0  0  0  0
   22.4009  -21.3347   -8.8661 C   0  0  0  0  0  0  0  0  0  0  0  0
   21.0732  -21.5066   -9.1634 C   0  0  0  0  0  0  0  0  0  0  0  0
   20.2771  -22.2471   -8.3120 C   0  0  0  0  0  0  0  0  0  0  0  0
   20.7600  -22.8308   -7.1599 C   0  0  0  0  0  0  0  0  0  0  0  0
   22.1022  -22.6304   -6.9022 C   0  0  0  0  0  0  0  0  0  0  0  0
   22.9245  -21.8987   -7.7279 C   0  0  0  0  0  0  0  0  0  0  0  0
   25.6019  -20.2483  -10.5270 C   0  0  0  0  0  0  0  0  0  0  0  0
   25.9777  -19.0555  -10.4346 O   0  0  0  0  0  0  0  0  0  0  0  0
   29.0626  -21.3854  -11.5680 C   0  0  0  0  0  0  0  0  0  0  0  0
   28.2258  -21.1781  -12.8041 C   0  0  2  0  0  0  0  0  0  0  0  0
   29.1121  -20.7623  -13.9589 C   0  0  0  0  0  0  0  0  0  0  0  0
   27.0143  -20.3351  -12.6166 C   0  0  2  0  0  0  0  0  0  0  0  0
   26.1102  -20.9821  -11.6404 N   0  0  0  0  0  0  0  0  0  0  0  0
   26.2649  -20.0543  -13.8488 C   0  0  0  0  0  0  0  0  0  0  0  0
   25.5858  -20.9568  -14.4513 O   0  0  0  0  0  0  0  0  0  0  0  0
   23.9078  -12.3955  -17.0628 N   0  0  0  0  0  0  0  0  0  0  0  0
   24.1167  -13.1105  -15.8597 C   0  0  0  0  0  0  0  0  0  0  0  0
   24.1466  -12.5850  -14.7055 N   0  0  0  0  0  0  0  0  0  0  0  0
   24.3041  -14.5195  -15.9824 N   0  0  0  0  0  0  0  0  0  0  0  0
   24.2888  -15.1950  -17.2850 C   0  0  0  0  0  0  0  0  0  0  0  0
   24.4897  -16.6598  -17.0656 C   0  0  0  0  0  0  0  0  0  0  0  0
   25.2193  -17.0640  -15.8453 C   0  0  0  0  0  0  0  0  0  0  0  0
   25.4711  -18.5212  -15.6290 C   0  0  2  0  0  0  0  0  0  0  0  0
   26.2506  -18.7686  -14.4291 N   0  0  0  0  0  0  0  0  0  0  0  0
   26.2242  -18.9884  -16.8428 C   0  0  0  0  0  0  0  0  0  0  0  0
   27.4637  -18.7777  -16.8377 O   0  0  0  0  0  0  0  0  0  0  0  0
   25.6630  -19.6100  -17.9216 O   0  0  0  0  0  0  0  0  0  0  0  0
  2 10  1  0
  2  1  1  1
  3  2  1  0
  4  3  1  0
  4  5  2  0
  6  5  1  0
  7  6  2  0
  8  9  2  0
  8  7  1  0
  9  4  1  0
 10 11  2  0
 13 12  1  1
 13 15  1  0
 14 13  1  0
 15 16  1  1
 16 10  1  0
 17 18  2  0
 17 15  1  0
 20 19  1  0
 21 20  2  0
 22 20  1  0
 22 23  1  0
 23 24  1  0
 24 25  1  0
 26 25  1  6
 26 28  1  0
 26 27  1  0
 27 17  1  0
 28 30  1  0
 29 28  2  0
M  END
$$$$
