FVR.pdb
     RDKit          3D

 30 30  0  0  1  0  0  0  0  0999 V2000
   25.7627  -18.6554  -18.2929 N   0  0  0  0  0  0  0  0  0  0  0  0
   25.5845  -18.0128  -17.0064 C   0  0  1  0  0  0  0  0  0  0  0  0
   24.1618  -17.5149  -16.9223 C   0  0  0  0  0  0  0  0  0  0  0  0
   24.0167  -16.3343  -17.8430 C   0  0  0  0  0  0  0  0  0  0  0  0
   24.5732  -15.1419  -17.4568 C   0  0  0  0  0  0  0  0  0  0  0  0
   24.4577  -14.0401  -18.2811 C   0  0  0  0  0  0  0  0  0  0  0  0
   23.7998  -14.0815  -19.4922 C   0  0  0  0  0  0  0  0  0  0  0  0
   23.2558  -15.3029  -19.8386 C   0  0  0  0  0  0  0  0  0  0  0  0
   23.3515  -16.4209  -19.0422 C   0  0  0  0  0  0  0  0  0  0  0  0
   25.9236  -18.9745  -15.9596 C   0  0  0  0  0  0  0  0  0  0  0  0
   25.5419  -20.1652  -16.0546 O   0  0  0  0  0  0  0  0  0  0  0  0
   29.3819  -19.8916  -14.7528 C   0  0  0  0  0  0  0  0  0  0  0  0
   28.5040  -19.6512  -13.5517 C   0  0  2  0  0  0  0  0  0  0  0  0
   28.9661  -20.5157  -12.3981 C   0  0  0  0  0  0  0  0  0  0  0  0
   27.0405  -19.6985  -13.8155 C   0  0  2  0  0  0  0  0  0  0  0  0
   26.6824  -18.6495  -14.7956 N   0  0  0  0  0  0  0  0  0  0  0  0
   26.1963  -19.5461  -12.6225 C   0  0  0  0  0  0  0  0  0  0  0  0
   26.1265  -18.4434  -11.9763 O   0  0  0  0  0  0  0  0  0  0  0  0
   18.9198  -19.9117  -12.0014 N   0  0  0  0  0  0  0  0  0  0  0  0
   19.2683  -20.3805  -13.2902 C   0  0  0  0  0  0  0  0  0  0  0  0
   18.6742  -20.0510  -14.3615 N   0  0  0  0  0  0  0  0  0  0  0  0
   20.3685  -21.2862  -13.3607 N   0  0  0  0  0  0  0  0  0  0  0  0
   21.1216  -21.6886  -12.1674 C   0  0  0  0  0  0  0  0  0  0  0  0
   22.3919  -20.9026  -12.1171 C   0  0  0  0  0  0  0  0  0  0  0  0
   23.3219  -21.1965  -11.0064 C   0  0  0  0  0  0  0  0  0  0  0  0
   24.6009  -20.4262  -10.9403 C   0  0  2  0  0  0  0  0  0  0  0  0
   25.4116  -20.6103  -12.1310 N   0  0  0  0  0  0  0  0  0  0  0  0
   25.3275  -20.9470   -9.7321 C   0  0  0  0  0  0  0  0  0  0  0  0
   26.0898  -21.9277   -9.9272 O   0  0  0  0  0  0  0  0  0  0  0  0
   25.2151  -20.4369   -8.4702 O   0  0  0  0  0  0  0  0  0  0  0  0
  2 10  1  0
  2  1  1  6
  3  2  1  0
  4  3  1  0
  4  5  2  0
  6  5  1  0
  7  6  2  0
  8  9  2  0
  8  7  1  0
  9  4  1  0
 10 11  2  0
 13 12  1  6
 13 15  1  0
 14 13  1  0
 15 16  1  6
 16 10  1  0
 17 18  2  0
 17 15  1  0
 20 19  1  0
 21 20  2  0
 22 20  1  0
 22 23  1  0
 23 24  1  0
 24 25  1  0
 26 25  1  6
 26 28  1  0
 26 27  1  0
 27 17  1  0
 28 30  1  0
 29 28  2  0
M  END
$$$$
