FVR.pdb
     RDKit          3D

 30 30  0  0  1  0  0  0  0  0999 V2000
   23.5554  -20.3616  -14.7151 N   0  0  0  0  0  0  0  0  0  0  0  0
   22.3828  -20.1314  -13.8954 C   0  0  1  0  0  0  0  0  0  0  0  0
   21.1655  -20.5359  -14.6915 C   0  0  0  0  0  0  0  0  0  0  0  0
   21.0475  -19.6183  -15.8776 C   0  0  0  0  0  0  0  0  0  0  0  0
   21.4139  -20.1021  -17.1074 C   0  0  0  0  0  0  0  0  0  0  0  0
   21.3159  -19.2841  -18.2156 C   0  0  0  0  0  0  0  0  0  0  0  0
   20.8606  -17.9845  -18.1443 C   0  0  0  0  0  0  0  0  0  0  0  0
   20.5036  -17.5415  -16.8856 C   0  0  0  0  0  0  0  0  0  0  0  0
   20.5883  -18.3287  -15.7602 C   0  0  0  0  0  0  0  0  0  0  0  0
   22.5356  -20.8820  -12.6508 C   0  0  0  0  0  0  0  0  0  0  0  0
   23.6586  -21.3362  -12.3264 O   0  0  0  0  0  0  0  0  0  0  0  0
   23.9069  -20.1680  -10.3252 C   0  0  0  0  0  0  0  0  0  0  0  0
   22.5469  -20.3885   -9.7145 C   0  0  2  0  0  0  0  0  0  0  0  0
   22.6686  -20.4671   -8.2075 C   0  0  0  0  0  0  0  0  0  0  0  0
   21.7439  -21.4792  -10.3302 C   0  0  2  0  0  0  0  0  0  0  0  0
   21.4654  -21.1476  -11.7450 N   0  0  0  0  0  0  0  0  0  0  0  0
   20.4746  -21.7673   -9.6482 C   0  0  0  0  0  0  0  0  0  0  0  0
   19.4392  -21.0302   -9.8006 O   0  0  0  0  0  0  0  0  0  0  0  0
   15.4728  -25.8484   -3.8494 N   0  0  0  0  0  0  0  0  0  0  0  0
   16.2416  -26.9192   -4.3639 C   0  0  0  0  0  0  0  0  0  0  0  0
   16.0204  -28.1450   -4.1240 N   0  0  0  0  0  0  0  0  0  0  0  0
   17.3361  -26.5670   -5.2086 N   0  0  0  0  0  0  0  0  0  0  0  0
   17.5929  -25.1791   -5.6098 C   0  0  0  0  0  0  0  0  0  0  0  0
   17.7787  -25.1373   -7.0923 C   0  0  0  0  0  0  0  0  0  0  0  0
   19.0546  -24.5866   -7.5957 C   0  0  0  0  0  0  0  0  0  0  0  0
   19.0067  -23.3257   -8.3967 C   0  0  2  0  0  0  0  0  0  0  0  0
   20.3307  -22.8794   -8.7924 N   0  0  0  0  0  0  0  0  0  0  0  0
   18.3585  -22.3027   -7.5067 C   0  0  0  0  0  0  0  0  0  0  0  0
   19.1269  -21.6833   -6.7278 O   0  0  0  0  0  0  0  0  0  0  0  0
   17.0243  -22.0115   -7.4904 O   0  0  0  0  0  0  0  0  0  0  0  0
  2 10  1  0
  2  1  1  6
  3  2  1  0
  4  3  1  0
  4  5  2  0
  6  5  1  0
  7  6  2  0
  8  9  2  0
  8  7  1  0
  9  4  1  0
 10 11  2  0
 13 12  1  6
 13 15  1  0
 14 13  1  0
 15 16  1  6
 16 10  1  0
 17 18  2  0
 17 15  1  0
 20 19  1  0
 21 20  2  0
 22 20  1  0
 22 23  1  0
 23 24  1  0
 24 25  1  0
 26 25  1  1
 26 28  1  0
 26 27  1  0
 27 17  1  0
 28 30  1  0
 29 28  2  0
M  END
$$$$
