FVR.pdb
     RDKit          3D

 30 30  0  0  1  0  0  0  0  0999 V2000
   28.2028  -20.3575  -15.4605 N   0  0  0  0  0  0  0  0  0  0  0  0
   27.3997  -19.5528  -14.5620 C   0  0  1  0  0  0  0  0  0  0  0  0
   26.5142  -18.6584  -15.3958 C   0  0  0  0  0  0  0  0  0  0  0  0
   27.3181  -17.4617  -15.8255 C   0  0  0  0  0  0  0  0  0  0  0  0
   27.3544  -16.3745  -14.9905 C   0  0  0  0  0  0  0  0  0  0  0  0
   28.0846  -15.2611  -15.3567 C   0  0  0  0  0  0  0  0  0  0  0  0
   28.7897  -15.1887  -16.5395 C   0  0  0  0  0  0  0  0  0  0  0  0
   28.7234  -16.3070  -17.3475 C   0  0  0  0  0  0  0  0  0  0  0  0
   28.0060  -17.4330  -17.0145 C   0  0  0  0  0  0  0  0  0  0  0  0
   26.6523  -20.4497  -13.6831 C   0  0  0  0  0  0  0  0  0  0  0  0
   26.2842  -21.5735  -14.1004 O   0  0  0  0  0  0  0  0  0  0  0  0
   27.0613  -21.3897   -9.8025 C   0  0  0  0  0  0  0  0  0  0  0  0
   25.6617  -20.9510  -10.1484 C   0  0  2  0  0  0  0  0  0  0  0  0
   24.6661  -21.6677   -9.2613 C   0  0  0  0  0  0  0  0  0  0  0  0
   25.3297  -20.9734  -11.5986 C   0  0  2  0  0  0  0  0  0  0  0  0
   26.2959  -20.1319  -12.3383 N   0  0  0  0  0  0  0  0  0  0  0  0
   23.9660  -20.5329  -11.9231 C   0  0  0  0  0  0  0  0  0  0  0  0
   23.6467  -19.2945  -11.9756 O   0  0  0  0  0  0  0  0  0  0  0  0
   21.9269  -21.7452  -18.7656 N   0  0  0  0  0  0  0  0  0  0  0  0
   20.5415  -21.9590  -18.5729 C   0  0  0  0  0  0  0  0  0  0  0  0
   19.8079  -22.6595  -19.3348 N   0  0  0  0  0  0  0  0  0  0  0  0
   19.9541  -21.3311  -17.4344 N   0  0  0  0  0  0  0  0  0  0  0  0
   20.7516  -20.5580  -16.4755 C   0  0  0  0  0  0  0  0  0  0  0  0
   21.4604  -21.5099  -15.5669 C   0  0  0  0  0  0  0  0  0  0  0  0
   22.2984  -20.9242  -14.4994 C   0  0  0  0  0  0  0  0  0  0  0  0
   21.8457  -21.0859  -13.0843 C   0  0  2  0  0  0  0  0  0  0  0  0
   22.9368  -21.4568  -12.2008 N   0  0  0  0  0  0  0  0  0  0  0  0
   20.8072  -22.1719  -13.1110 C   0  0  0  0  0  0  0  0  0  0  0  0
   21.2414  -23.3513  -13.0741 O   0  0  0  0  0  0  0  0  0  0  0  0
   19.4585  -21.9648  -13.1714 O   0  0  0  0  0  0  0  0  0  0  0  0
  2 10  1  0
  2  1  1  6
  3  2  1  0
  4  3  1  0
  4  5  2  0
  6  5  1  0
  7  6  2  0
  8  9  2  0
  8  7  1  0
  9  4  1  0
 10 11  2  0
 13 12  1  6
 13 15  1  0
 14 13  1  0
 15 16  1  6
 16 10  1  0
 17 18  2  0
 17 15  1  0
 20 19  1  0
 21 20  2  0
 22 20  1  0
 22 23  1  0
 23 24  1  0
 24 25  1  0
 26 25  1  6
 26 28  1  0
 26 27  1  0
 27 17  1  0
 28 30  1  0
 29 28  2  0
M  END
$$$$
