FVR.pdb
     RDKit          3D

 30 30  0  0  1  0  0  0  0  0999 V2000
   28.7702  -19.8786  -15.2060 N   0  0  0  0  0  0  0  0  0  0  0  0
   27.7110  -19.1640  -14.5225 C   0  0  1  0  0  0  0  0  0  0  0  0
   26.8419  -18.5018  -15.5643 C   0  0  0  0  0  0  0  0  0  0  0  0
   27.5605  -17.2841  -16.0778 C   0  0  0  0  0  0  0  0  0  0  0  0
   27.5797  -16.1642  -15.2866 C   0  0  0  0  0  0  0  0  0  0  0  0
   28.2322  -15.0308  -15.7299 C   0  0  0  0  0  0  0  0  0  0  0  0
   28.8750  -14.9698  -16.9483 C   0  0  0  0  0  0  0  0  0  0  0  0
   28.8288  -16.1212  -17.7099 C   0  0  0  0  0  0  0  0  0  0  0  0
   28.1881  -17.2679  -17.2999 C   0  0  0  0  0  0  0  0  0  0  0  0
   26.9841  -20.1117  -13.6804 C   0  0  0  0  0  0  0  0  0  0  0  0
   26.8062  -21.2898  -14.0717 O   0  0  0  0  0  0  0  0  0  0  0  0
   27.0517  -20.5318   -9.5776 C   0  0  0  0  0  0  0  0  0  0  0  0
   25.6820  -20.4621  -10.2024 C   0  0  2  0  0  0  0  0  0  0  0  0
   24.6927  -21.2334   -9.3551 C   0  0  0  0  0  0  0  0  0  0  0  0
   25.6308  -20.7747  -11.6561 C   0  0  2  0  0  0  0  0  0  0  0  0
   26.4411  -19.7863  -12.4015 N   0  0  0  0  0  0  0  0  0  0  0  0
   24.2781  -20.8128  -12.2286 C   0  0  0  0  0  0  0  0  0  0  0  0
   23.6309  -19.7458  -12.5135 O   0  0  0  0  0  0  0  0  0  0  0  0
   21.4317  -27.5267  -15.1073 N   0  0  0  0  0  0  0  0  0  0  0  0
   20.7375  -27.1609  -13.9298 C   0  0  0  0  0  0  0  0  0  0  0  0
   20.5362  -27.9325  -12.9432 N   0  0  0  0  0  0  0  0  0  0  0  0
   20.2396  -25.8250  -13.8749 N   0  0  0  0  0  0  0  0  0  0  0  0
   20.4019  -24.8886  -14.9930 C   0  0  0  0  0  0  0  0  0  0  0  0
   20.7141  -23.5352  -14.4409 C   0  0  0  0  0  0  0  0  0  0  0  0
   22.0374  -23.3553  -13.8073 C   0  0  0  0  0  0  0  0  0  0  0  0
   22.3397  -22.0340  -13.1777 C   0  0  2  0  0  0  0  0  0  0  0  0
   23.6242  -22.0328  -12.5004 N   0  0  0  0  0  0  0  0  0  0  0  0
   21.2324  -21.7907  -12.1911 C   0  0  0  0  0  0  0  0  0  0  0  0
   21.4261  -22.2238  -11.0268 O   0  0  0  0  0  0  0  0  0  0  0  0
   20.0610  -21.1467  -12.4714 O   0  0  0  0  0  0  0  0  0  0  0  0
  2 10  1  0
  2  1  1  6
  3  2  1  0
  4  3  1  0
  4  5  2  0
  6  5  1  0
  7  6  2  0
  8  9  2  0
  8  7  1  0
  9  4  1  0
 10 11  2  0
 13 12  1  1
 13 15  1  0
 14 13  1  0
 15 16  1  6
 16 10  1  0
 17 18  2  0
 17 15  1  0
 20 19  1  0
 21 20  2  0
 22 20  1  0
 22 23  1  0
 23 24  1  0
 24 25  1  0
 26 25  1  1
 26 28  1  0
 26 27  1  0
 27 17  1  0
 28 30  1  0
 29 28  2  0
M  END
$$$$
