FVR.pdb
     RDKit          3D

 30 30  0  0  1  0  0  0  0  0999 V2000
   27.5981  -18.2117   -7.7159 N   0  0  0  0  0  0  0  0  0  0  0  0
   27.5208  -19.6392   -7.9526 C   0  0  1  0  0  0  0  0  0  0  0  0
   26.8074  -20.2721   -6.7822 C   0  0  0  0  0  0  0  0  0  0  0  0
   27.6879  -20.1525   -5.5684 C   0  0  0  0  0  0  0  0  0  0  0  0
   28.9884  -19.7572   -5.7505 C   0  0  0  0  0  0  0  0  0  0  0  0
   29.8212  -19.6371   -4.6555 C   0  0  0  0  0  0  0  0  0  0  0  0
   29.4019  -19.8996   -3.3684 C   0  0  0  0  0  0  0  0  0  0  0  0
   28.0850  -20.2944   -3.2346 C   0  0  0  0  0  0  0  0  0  0  0  0
   27.2276  -20.4246   -4.3028 C   0  0  0  0  0  0  0  0  0  0  0  0
   26.8449  -19.8590   -9.2295 C   0  0  0  0  0  0  0  0  0  0  0  0
   25.9120  -19.0997   -9.5840 O   0  0  0  0  0  0  0  0  0  0  0  0
   29.3752  -21.0275  -12.0813 C   0  0  0  0  0  0  0  0  0  0  0  0
   27.9633  -21.4779  -12.3554 C   0  0  2  0  0  0  0  0  0  0  0  0
   27.7240  -21.5325  -13.8493 C   0  0  0  0  0  0  0  0  0  0  0  0
   26.9090  -20.7668  -11.5833 C   0  0  2  0  0  0  0  0  0  0  0  0
   27.1773  -20.9103  -10.1354 N   0  0  0  0  0  0  0  0  0  0  0  0
   25.5372  -21.2139  -11.8617 C   0  0  0  0  0  0  0  0  0  0  0  0
   25.0723  -22.3109  -11.3940 O   0  0  0  0  0  0  0  0  0  0  0  0
   17.6476  -20.0337  -15.4622 N   0  0  0  0  0  0  0  0  0  0  0  0
   17.7770  -19.2929  -14.2636 C   0  0  0  0  0  0  0  0  0  0  0  0
   16.8036  -18.8950  -13.5542 N   0  0  0  0  0  0  0  0  0  0  0  0
   19.1065  -18.9856  -13.8471 N   0  0  0  0  0  0  0  0  0  0  0  0
   20.2713  -19.2707  -14.6928 C   0  0  0  0  0  0  0  0  0  0  0  0
   21.1050  -20.3138  -14.0213 C   0  0  0  0  0  0  0  0  0  0  0  0
   22.4636  -19.9179  -13.5943 C   0  0  0  0  0  0  0  0  0  0  0  0
   23.3372  -20.9622  -12.9781 C   0  0  2  0  0  0  0  0  0  0  0  0
   24.6574  -20.4498  -12.6568 N   0  0  0  0  0  0  0  0  0  0  0  0
   23.4408  -22.0602  -13.9991 C   0  0  0  0  0  0  0  0  0  0  0  0
   22.5447  -22.9409  -13.9548 O   0  0  0  0  0  0  0  0  0  0  0  0
   24.4201  -22.1595  -14.9459 O   0  0  0  0  0  0  0  0  0  0  0  0
  2 10  1  0
  2  1  1  1
  3  2  1  0
  4  3  1  0
  4  5  2  0
  6  5  1  0
  7  6  2  0
  8  9  2  0
  8  7  1  0
  9  4  1  0
 10 11  2  0
 13 12  1  6
 13 15  1  0
 14 13  1  0
 15 16  1  1
 16 10  1  0
 17 18  2  0
 17 15  1  0
 20 19  1  0
 21 20  2  0
 22 20  1  0
 22 23  1  0
 23 24  1  0
 24 25  1  0
 26 25  1  6
 26 28  1  0
 26 27  1  0
 27 17  1  0
 28 30  1  0
 29 28  2  0
M  END
$$$$
