YVH.pdb
     RDKit          3D

 30 31  0  0  1  0  0  0  0  0999 V2000
   20.3531  -19.9979  -14.5601 O   0  0  0  0  0  0  0  0  0  0  0  0
   20.4591  -18.6668  -14.9612 C   0  0  0  0  0  0  0  0  0  0  0  0
   21.6232  -18.2183  -15.5151 C   0  0  0  0  0  0  0  0  0  0  0  0
   21.8298  -16.9297  -15.9446 C   0  0  0  0  0  0  0  0  0  0  0  0
   20.7819  -16.0343  -15.8033 C   0  0  0  0  0  0  0  0  0  0  0  0
   21.0253  -14.6354  -16.2852 C   0  0  0  0  0  0  0  0  0  0  0  0
   20.4288  -14.5252  -17.6452 C   0  0  2  0  0  0  0  0  0  0  0  0
   20.9567  -15.3561  -18.6713 N   0  0  0  0  0  0  0  0  0  0  0  0
   20.3902  -13.0846  -18.1003 C   0  0  0  0  0  0  0  0  0  0  0  0
   21.2414  -12.6241  -18.9154 O   0  0  0  0  0  0  0  0  0  0  0  0
   19.6035  -16.4520  -15.2531 C   0  0  0  0  0  0  0  0  0  0  0  0
   19.4253  -17.7611  -14.8265 C   0  0  0  0  0  0  0  0  0  0  0  0
   18.0532   -9.1721  -19.5099 C   0  0  0  0  0  0  0  0  0  0  0  0
   18.1696  -10.6339  -19.0709 C   0  0  2  0  0  0  0  0  0  0  0  0
   16.8467  -11.1056  -18.4711 C   0  0  0  0  0  0  0  0  0  0  0  0
   19.2897  -10.8423  -18.1255 C   0  0  2  0  0  0  0  0  0  0  0  0
   19.3905  -12.1946  -17.6127 N   0  0  0  0  0  0  0  0  0  0  0  0
   19.3155   -9.8250  -17.0157 C   0  0  0  0  0  0  0  0  0  0  0  0
   18.6177   -9.9448  -15.9767 O   0  0  0  0  0  0  0  0  0  0  0  0
   20.1703   -8.7085  -17.1834 N   0  0  0  0  0  0  0  0  0  0  0  0
   20.3391   -7.6764  -16.1381 C   0  0  1  0  0  0  0  0  0  0  0  0
   21.4783   -6.7748  -16.5496 C   0  0  0  0  0  0  0  0  0  0  0  0
   21.6939   -5.6597  -15.6201 C   0  0  0  0  0  0  0  0  0  0  0  0
   22.2482   -5.7548  -14.3723 C   0  0  0  0  0  0  0  0  0  0  0  0
   22.2413   -4.5006  -13.8431 N   0  0  0  0  0  0  0  0  0  0  0  0
   21.7045   -3.6369  -14.7209 C   0  0  0  0  0  0  0  0  0  0  0  0
   21.3735   -4.3818  -15.8145 N   0  0  0  0  0  0  0  0  0  0  0  0
   19.0926   -6.8328  -16.2449 C   0  0  0  0  0  0  0  0  0  0  0  0
   18.4437   -6.4097  -15.0666 O   0  0  0  0  0  0  0  0  0  0  0  0
   18.5866   -6.4776  -17.3181 O   0  0  0  0  0  0  0  0  0  0  0  0
  2  3  2  0
  2  1  1  0
  4  3  1  0
  5  4  2  0
  6  5  1  0
  7  6  1  0
  7  8  1  6
  9  7  1  0
  9 10  2  0
 11  5  1  0
 11 12  2  0
 12  2  1  0
 14 16  1  0
 14 13  1  1
 15 14  1  0
 16 17  1  1
 17  9  1  0
 18 16  1  0
 19 18  2  0
 20 18  1  0
 21 20  1  0
 21 22  1  6
 23 24  2  0
 23 22  1  0
 25 24  1  0
 26 27  2  0
 26 25  1  0
 27 23  1  0
 28 21  1  0
 28 29  1  0
 30 28  2  0
M  END
$$$$
