YVH.pdb
     RDKit          3D

 30 31  0  0  1  0  0  0  0  0999 V2000
   22.3728  -16.9875  -22.0544 O   0  0  0  0  0  0  0  0  0  0  0  0
   21.9180  -17.7052  -20.9489 C   0  0  0  0  0  0  0  0  0  0  0  0
   21.9102  -19.0696  -20.9852 C   0  0  0  0  0  0  0  0  0  0  0  0
   21.4855  -19.8690  -19.9516 C   0  0  0  0  0  0  0  0  0  0  0  0
   21.0389  -19.2400  -18.8006 C   0  0  0  0  0  0  0  0  0  0  0  0
   20.5872  -20.1303  -17.6818 C   0  0  0  0  0  0  0  0  0  0  0  0
   21.7026  -20.2061  -16.6981 C   0  0  2  0  0  0  0  0  0  0  0  0
   22.9268  -20.7895  -17.1258 N   0  0  0  0  0  0  0  0  0  0  0  0
   21.2385  -20.8399  -15.4070 C   0  0  0  0  0  0  0  0  0  0  0  0
   21.3694  -22.0801  -15.1931 O   0  0  0  0  0  0  0  0  0  0  0  0
   21.0346  -17.8757  -18.7324 C   0  0  0  0  0  0  0  0  0  0  0  0
   21.4684  -17.0944  -19.7948 C   0  0  0  0  0  0  0  0  0  0  0  0
   20.1669  -20.4295  -10.6247 C   0  0  0  0  0  0  0  0  0  0  0  0
   20.4767  -19.7367  -11.9540 C   0  0  2  0  0  0  0  0  0  0  0  0
   19.6348  -18.4698  -12.0910 C   0  0  0  0  0  0  0  0  0  0  0  0
   20.2768  -20.6391  -13.1104 C   0  0  2  0  0  0  0  0  0  0  0  0
   20.6273  -20.0527  -14.3892 N   0  0  0  0  0  0  0  0  0  0  0  0
   18.9033  -21.2554  -13.1408 C   0  0  0  0  0  0  0  0  0  0  0  0
   17.9127  -20.6670  -13.6441 O   0  0  0  0  0  0  0  0  0  0  0  0
   18.7623  -22.5459  -12.5750 N   0  0  0  0  0  0  0  0  0  0  0  0
   17.4682  -23.2606  -12.5458 C   0  0  1  0  0  0  0  0  0  0  0  0
   17.6962  -24.6169  -11.9226 C   0  0  0  0  0  0  0  0  0  0  0  0
   16.4919  -25.4557  -11.9140 C   0  0  0  0  0  0  0  0  0  0  0  0
   15.2539  -25.0817  -12.3620 C   0  0  0  0  0  0  0  0  0  0  0  0
   14.4242  -26.1403  -12.1520 N   0  0  0  0  0  0  0  0  0  0  0  0
   15.1073  -27.1528  -11.5925 C   0  0  0  0  0  0  0  0  0  0  0  0
   16.3872  -26.7018  -11.4557 N   0  0  0  0  0  0  0  0  0  0  0  0
   16.6399  -22.4879  -11.5489 C   0  0  0  0  0  0  0  0  0  0  0  0
   17.2504  -22.0044  -10.3734 O   0  0  0  0  0  0  0  0  0  0  0  0
   15.4344  -22.2429  -11.6923 O   0  0  0  0  0  0  0  0  0  0  0  0
  2  3  2  0
  2  1  1  0
  4  3  1  0
  5  4  2  0
  6  5  1  0
  7  6  1  0
  7  8  1  6
  9  7  1  0
  9 10  2  0
 11  5  1  0
 11 12  2  0
 12  2  1  0
 14 16  1  0
 14 13  1  1
 15 14  1  0
 16 17  1  6
 17  9  1  0
 18 16  1  0
 19 18  2  0
 20 18  1  0
 21 20  1  0
 21 22  1  1
 23 24  2  0
 23 22  1  0
 25 24  1  0
 26 27  2  0
 26 25  1  0
 27 23  1  0
 28 21  1  0
 28 29  1  0
 30 28  2  0
M  END
$$$$
