YVH.pdb
     RDKit          3D

 30 31  0  0  1  0  0  0  0  0999 V2000
   29.5941  -19.8295   -3.8136 O   0  0  0  0  0  0  0  0  0  0  0  0
   28.7263  -19.8800   -4.9038 C   0  0  0  0  0  0  0  0  0  0  0  0
   28.9202  -19.0395   -5.9617 C   0  0  0  0  0  0  0  0  0  0  0  0
   28.1264  -19.0105   -7.0827 C   0  0  0  0  0  0  0  0  0  0  0  0
   27.0627  -19.8969   -7.1343 C   0  0  0  0  0  0  0  0  0  0  0  0
   26.2135  -19.8544   -8.3695 C   0  0  0  0  0  0  0  0  0  0  0  0
   26.8733  -20.7143   -9.3906 C   0  0  2  0  0  0  0  0  0  0  0  0
   28.2947  -20.7381   -9.4207 N   0  0  0  0  0  0  0  0  0  0  0  0
   26.3208  -20.4327  -10.7688 C   0  0  0  0  0  0  0  0  0  0  0  0
   26.6615  -19.4040  -11.4218 O   0  0  0  0  0  0  0  0  0  0  0  0
   26.8419  -20.7516   -6.0920 C   0  0  0  0  0  0  0  0  0  0  0  0
   27.6609  -20.7562   -4.9710 C   0  0  0  0  0  0  0  0  0  0  0  0
   24.6866  -23.3351  -13.5109 C   0  0  0  0  0  0  0  0  0  0  0  0
   25.1517  -21.8970  -13.7532 C   0  0  2  0  0  0  0  0  0  0  0  0
   26.6601  -21.8694  -13.9910 C   0  0  0  0  0  0  0  0  0  0  0  0
   24.7688  -20.9950  -12.6435 C   0  0  2  0  0  0  0  0  0  0  0  0
   25.3856  -21.3215  -11.3727 N   0  0  0  0  0  0  0  0  0  0  0  0
   23.2779  -20.8315  -12.5105 C   0  0  0  0  0  0  0  0  0  0  0  0
   22.5879  -21.5498  -11.7432 O   0  0  0  0  0  0  0  0  0  0  0  0
   22.6672  -19.8205  -13.2918 N   0  0  0  0  0  0  0  0  0  0  0  0
   21.2255  -19.5069  -13.1945 C   0  0  1  0  0  0  0  0  0  0  0  0
   20.9790  -18.2061  -13.9206 C   0  0  0  0  0  0  0  0  0  0  0  0
   19.5699  -17.7963  -13.9041 C   0  0  0  0  0  0  0  0  0  0  0  0
   18.6444  -18.1534  -12.9611 C   0  0  0  0  0  0  0  0  0  0  0  0
   17.4656  -17.5822  -13.3319 N   0  0  0  0  0  0  0  0  0  0  0  0
   17.6329  -16.8851  -14.4681 C   0  0  0  0  0  0  0  0  0  0  0  0
   18.9469  -17.0345  -14.8015 N   0  0  0  0  0  0  0  0  0  0  0  0
   20.5570  -20.5722  -14.0282 C   0  0  0  0  0  0  0  0  0  0  0  0
   19.3425  -21.1341  -13.5836 O   0  0  0  0  0  0  0  0  0  0  0  0
   21.0093  -20.9986  -15.0994 O   0  0  0  0  0  0  0  0  0  0  0  0
  2  3  2  0
  2  1  1  0
  4  3  1  0
  5  4  2  0
  6  5  1  0
  7  6  1  0
  7  8  1  6
  9  7  1  0
  9 10  2  0
 11  5  1  0
 11 12  2  0
 12  2  1  0
 14 16  1  0
 14 13  1  1
 15 14  1  0
 16 17  1  1
 17  9  1  0
 18 16  1  0
 19 18  2  0
 20 18  1  0
 21 20  1  0
 21 22  1  6
 23 24  2  0
 23 22  1  0
 25 24  1  0
 26 27  2  0
 26 25  1  0
 27 23  1  0
 28 21  1  0
 28 29  1  0
 30 28  2  0
M  END
$$$$
