YVH.pdb
     RDKit          3D

 30 31  0  0  1  0  0  0  0  0999 V2000
   20.1291  -13.1272  -18.8067 O   0  0  0  0  0  0  0  0  0  0  0  0
   20.4778  -14.2783  -18.1015 C   0  0  0  0  0  0  0  0  0  0  0  0
   21.7670  -14.4538  -17.6888 C   0  0  0  0  0  0  0  0  0  0  0  0
   22.2130  -15.5479  -16.9875 C   0  0  0  0  0  0  0  0  0  0  0  0
   21.2861  -16.5315  -16.6827 C   0  0  0  0  0  0  0  0  0  0  0  0
   21.7915  -17.7132  -15.9102 C   0  0  0  0  0  0  0  0  0  0  0  0
   22.6242  -18.5265  -16.8391 C   0  0  2  0  0  0  0  0  0  0  0  0
   21.9611  -19.2331  -17.8797 N   0  0  0  0  0  0  0  0  0  0  0  0
   23.5377  -19.4533  -16.0706 C   0  0  0  0  0  0  0  0  0  0  0  0
   23.1496  -20.5924  -15.6800 O   0  0  0  0  0  0  0  0  0  0  0  0
   19.9876  -16.3856  -17.0809 C   0  0  0  0  0  0  0  0  0  0  0  0
   19.5671  -15.2688  -17.7904 C   0  0  0  0  0  0  0  0  0  0  0  0
   27.9351  -20.6749  -14.1607 C   0  0  0  0  0  0  0  0  0  0  0  0
   27.1333  -19.7878  -15.1164 C   0  0  2  0  0  0  0  0  0  0  0  0
   27.6411  -18.3493  -15.0430 C   0  0  0  0  0  0  0  0  0  0  0  0
   25.6789  -19.8557  -14.8488 C   0  0  2  0  0  0  0  0  0  0  0  0
   24.8706  -19.0627  -15.7542 N   0  0  0  0  0  0  0  0  0  0  0  0
   25.3352  -19.5767  -13.4096 C   0  0  0  0  0  0  0  0  0  0  0  0
   25.2668  -18.4090  -12.9483 O   0  0  0  0  0  0  0  0  0  0  0  0
   25.0844  -20.6947  -12.5775 N   0  0  0  0  0  0  0  0  0  0  0  0
   24.7462  -20.5554  -11.1448 C   0  0  1  0  0  0  0  0  0  0  0  0
   23.3808  -21.1614  -10.9247 C   0  0  0  0  0  0  0  0  0  0  0  0
   22.2903  -20.3232  -11.4365 C   0  0  0  0  0  0  0  0  0  0  0  0
   21.6301  -19.3526  -10.7327 C   0  0  0  0  0  0  0  0  0  0  0  0
   20.6839  -18.8386  -11.5656 N   0  0  0  0  0  0  0  0  0  0  0  0
   20.7392  -19.4567  -12.7572 C   0  0  0  0  0  0  0  0  0  0  0  0
   21.7440  -20.3729  -12.6501 N   0  0  0  0  0  0  0  0  0  0  0  0
   25.7172  -21.4730  -10.4434 C   0  0  0  0  0  0  0  0  0  0  0  0
   25.8416  -21.4024   -9.0406 O   0  0  0  0  0  0  0  0  0  0  0  0
   26.4297  -22.3024  -11.0251 O   0  0  0  0  0  0  0  0  0  0  0  0
  2  3  2  0
  2  1  1  0
  4  3  1  0
  5  4  2  0
  6  5  1  0
  7  6  1  0
  7  8  1  6
  9  7  1  0
  9 10  2  0
 11  5  1  0
 11 12  2  0
 12  2  1  0
 14 16  1  0
 14 13  1  1
 15 14  1  0
 16 17  1  6
 17  9  1  0
 18 16  1  0
 19 18  2  0
 20 18  1  0
 21 20  1  0
 21 22  1  6
 23 24  2  0
 23 22  1  0
 25 24  1  0
 26 27  2  0
 26 25  1  0
 27 23  1  0
 28 21  1  0
 28 29  1  0
 30 28  2  0
M  END
$$$$
