YVH.pdb
     RDKit          3D

 30 31  0  0  1  0  0  0  0  0999 V2000
   28.6028  -12.5987  -17.1161 O   0  0  0  0  0  0  0  0  0  0  0  0
   27.8914  -13.7656  -16.8397 C   0  0  0  0  0  0  0  0  0  0  0  0
   27.6600  -14.1252  -15.5435 C   0  0  0  0  0  0  0  0  0  0  0  0
   26.9696  -15.2510  -15.1642 C   0  0  0  0  0  0  0  0  0  0  0  0
   26.4790  -16.0677  -16.1701 C   0  0  0  0  0  0  0  0  0  0  0  0
   25.7221  -17.2868  -15.7350 C   0  0  0  0  0  0  0  0  0  0  0  0
   26.7140  -18.3822  -15.5513 C   0  0  2  0  0  0  0  0  0  0  0  0
   27.4689  -18.7915  -16.6846 N   0  0  0  0  0  0  0  0  0  0  0  0
   26.0769  -19.5778  -14.8817 C   0  0  0  0  0  0  0  0  0  0  0  0
   25.5100  -20.4888  -15.5522 O   0  0  0  0  0  0  0  0  0  0  0  0
   26.6932  -15.7353  -17.4776 C   0  0  0  0  0  0  0  0  0  0  0  0
   27.3966  -14.5914  -17.8299 C   0  0  0  0  0  0  0  0  0  0  0  0
   24.9397  -22.2364  -10.8519 C   0  0  0  0  0  0  0  0  0  0  0  0
   25.7923  -21.1291  -11.4764 C   0  0  2  0  0  0  0  0  0  0  0  0
   25.8731  -19.9349  -10.5278 C   0  0  0  0  0  0  0  0  0  0  0  0
   25.2863  -20.7220  -12.8067 C   0  0  2  0  0  0  0  0  0  0  0  0
   26.0893  -19.7090  -13.4632 N   0  0  0  0  0  0  0  0  0  0  0  0
   23.8279  -20.3477  -12.7884 C   0  0  0  0  0  0  0  0  0  0  0  0
   23.4160  -19.2699  -12.2888 O   0  0  0  0  0  0  0  0  0  0  0  0
   22.9185  -21.2667  -13.3660 N   0  0  0  0  0  0  0  0  0  0  0  0
   21.4668  -20.9982  -13.4488 C   0  0  1  0  0  0  0  0  0  0  0  0
   20.9820  -21.4570  -14.8032 C   0  0  0  0  0  0  0  0  0  0  0  0
   21.2845  -20.5024  -15.8761 C   0  0  0  0  0  0  0  0  0  0  0  0
   21.8471  -19.2658  -15.7107 C   0  0  0  0  0  0  0  0  0  0  0  0
   21.9318  -18.7044  -16.9481 N   0  0  0  0  0  0  0  0  0  0  0  0
   21.4433  -19.5518  -17.8690 C   0  0  0  0  0  0  0  0  0  0  0  0
   21.0486  -20.6592  -17.1774 N   0  0  0  0  0  0  0  0  0  0  0  0
   20.8555  -21.9522  -12.4523 C   0  0  0  0  0  0  0  0  0  0  0  0
   19.5835  -21.6661  -11.9152 O   0  0  0  0  0  0  0  0  0  0  0  0
   21.4038  -22.9922  -12.0631 O   0  0  0  0  0  0  0  0  0  0  0  0
  2  3  2  0
  2  1  1  0
  4  3  1  0
  5  4  2  0
  6  5  1  0
  7  6  1  0
  7  8  1  6
  9  7  1  0
  9 10  2  0
 11  5  1  0
 11 12  2  0
 12  2  1  0
 14 16  1  0
 14 13  1  1
 15 14  1  0
 16 17  1  1
 17  9  1  0
 18 16  1  0
 19 18  2  0
 20 18  1  0
 21 20  1  0
 21 22  1  6
 23 24  2  0
 23 22  1  0
 25 24  1  0
 26 27  2  0
 26 25  1  0
 27 23  1  0
 28 21  1  0
 28 29  1  0
 30 28  2  0
M  END
$$$$
