YVH.pdb
     RDKit          3D

 30 31  0  0  1  0  0  0  0  0999 V2000
   23.0269   -0.2968  -20.4535 O   0  0  0  0  0  0  0  0  0  0  0  0
   22.9493   -1.6608  -20.1749 C   0  0  0  0  0  0  0  0  0  0  0  0
   22.0876   -2.1066  -19.2148 C   0  0  0  0  0  0  0  0  0  0  0  0
   21.9332   -3.4266  -18.8662 C   0  0  0  0  0  0  0  0  0  0  0  0
   22.7059   -4.3590  -19.5396 C   0  0  0  0  0  0  0  0  0  0  0  0
   22.5166   -5.7944  -19.1496 C   0  0  0  0  0  0  0  0  0  0  0  0
   23.4893   -6.0899  -18.0615 C   0  0  2  0  0  0  0  0  0  0  0  0
   24.8747   -5.9707  -18.3587 N   0  0  0  0  0  0  0  0  0  0  0  0
   23.1985   -7.4319  -17.4301 C   0  0  0  0  0  0  0  0  0  0  0  0
   23.6152   -8.5103  -17.9442 O   0  0  0  0  0  0  0  0  0  0  0  0
   23.5775   -3.9450  -20.5064 C   0  0  0  0  0  0  0  0  0  0  0  0
   23.7128   -2.6031  -20.8354 C   0  0  0  0  0  0  0  0  0  0  0  0
   22.3284  -10.4161  -13.7547 C   0  0  0  0  0  0  0  0  0  0  0  0
   22.7291   -9.0568  -14.3333 C   0  0  2  0  0  0  0  0  0  0  0  0
   22.3797   -7.9456  -13.3454 C   0  0  0  0  0  0  0  0  0  0  0  0
   22.1094   -8.8113  -15.6551 C   0  0  2  0  0  0  0  0  0  0  0  0
   22.4325   -7.5212  -16.2324 N   0  0  0  0  0  0  0  0  0  0  0  0
   20.6253   -9.0658  -15.6618 C   0  0  0  0  0  0  0  0  0  0  0  0
   19.7878   -8.1707  -15.3818 O   0  0  0  0  0  0  0  0  0  0  0  0
   20.1959  -10.3714  -16.0029 N   0  0  0  0  0  0  0  0  0  0  0  0
   18.7668  -10.7230  -16.1454 C   0  0  1  0  0  0  0  0  0  0  0  0
   18.6823  -12.1138  -16.7272 C   0  0  0  0  0  0  0  0  0  0  0  0
   18.7330  -12.1278  -18.1938 C   0  0  0  0  0  0  0  0  0  0  0  0
   18.7088  -11.0258  -19.0052 C   0  0  0  0  0  0  0  0  0  0  0  0
   18.7497  -11.4814  -20.2874 N   0  0  0  0  0  0  0  0  0  0  0  0
   18.8001  -12.8239  -20.2942 C   0  0  0  0  0  0  0  0  0  0  0  0
   18.7884  -13.1992  -18.9830 N   0  0  0  0  0  0  0  0  0  0  0  0
   18.2711  -10.8443  -14.7254 C   0  0  0  0  0  0  0  0  0  0  0  0
   17.1353  -10.1098  -14.3268 O   0  0  0  0  0  0  0  0  0  0  0  0
   18.8030  -11.5588  -13.8649 O   0  0  0  0  0  0  0  0  0  0  0  0
  2  3  2  0
  2  1  1  0
  4  3  1  0
  5  4  2  0
  6  5  1  0
  7  6  1  0
  7  8  1  6
  9  7  1  0
  9 10  2  0
 11  5  1  0
 11 12  2  0
 12  2  1  0
 14 16  1  0
 14 13  1  1
 15 14  1  0
 16 17  1  1
 17  9  1  0
 18 16  1  0
 19 18  2  0
 20 18  1  0
 21 20  1  0
 21 22  1  1
 23 24  2  0
 23 22  1  0
 25 24  1  0
 26 27  2  0
 26 25  1  0
 27 23  1  0
 28 21  1  0
 28 29  1  0
 30 28  2  0
M  END
$$$$
