YVH.pdb
     RDKit          3D

 30 31  0  0  1  0  0  0  0  0999 V2000
   15.5688  -16.4174  -18.2867 O   0  0  0  0  0  0  0  0  0  0  0  0
   16.5985  -15.6933  -17.6871 C   0  0  0  0  0  0  0  0  0  0  0  0
   16.3029  -14.7535  -16.7424 C   0  0  0  0  0  0  0  0  0  0  0  0
   17.2407  -13.9893  -16.0910 C   0  0  0  0  0  0  0  0  0  0  0  0
   18.5709  -14.1939  -16.4203 C   0  0  0  0  0  0  0  0  0  0  0  0
   19.5787  -13.3554  -15.6925 C   0  0  0  0  0  0  0  0  0  0  0  0
   19.6540  -12.0443  -16.3945 C   0  0  2  0  0  0  0  0  0  0  0  0
   20.1040  -12.0379  -17.7433 N   0  0  0  0  0  0  0  0  0  0  0  0
   20.4295  -11.0392  -15.5745 C   0  0  0  0  0  0  0  0  0  0  0  0
   20.1712  -10.8409  -14.3519 O   0  0  0  0  0  0  0  0  0  0  0  0
   18.8999  -15.1276  -17.3614 C   0  0  0  0  0  0  0  0  0  0  0  0
   17.9290  -15.8837  -18.0043 C   0  0  0  0  0  0  0  0  0  0  0  0
   24.4021   -9.6141  -16.5818 C   0  0  0  0  0  0  0  0  0  0  0  0
   23.6728   -9.6638  -15.2369 C   0  0  2  0  0  0  0  0  0  0  0  0
   23.8601  -11.0356  -14.5921 C   0  0  0  0  0  0  0  0  0  0  0  0
   22.2373   -9.3275  -15.3707 C   0  0  2  0  0  0  0  0  0  0  0  0
   21.4768  -10.2738  -16.1633 N   0  0  0  0  0  0  0  0  0  0  0  0
   22.0085   -7.9112  -15.8277 C   0  0  0  0  0  0  0  0  0  0  0  0
   22.0499   -7.5802  -17.0401 O   0  0  0  0  0  0  0  0  0  0  0  0
   21.7374   -6.9461  -14.8275 N   0  0  0  0  0  0  0  0  0  0  0  0
   21.4689   -5.5277  -15.1478 C   0  0  1  0  0  0  0  0  0  0  0  0
   20.0279   -5.2347  -14.8046 C   0  0  0  0  0  0  0  0  0  0  0  0
   19.0796   -5.8069  -15.7675 C   0  0  0  0  0  0  0  0  0  0  0  0
   19.2014   -5.7665  -17.1301 C   0  0  0  0  0  0  0  0  0  0  0  0
   18.1031   -6.3877  -17.6410 N   0  0  0  0  0  0  0  0  0  0  0  0
   17.3108   -6.8106  -16.6419 C   0  0  0  0  0  0  0  0  0  0  0  0
   17.9397   -6.4375  -15.4906 N   0  0  0  0  0  0  0  0  0  0  0  0
   22.2916   -4.7584  -14.1437 C   0  0  0  0  0  0  0  0  0  0  0  0
   22.3831   -3.3559  -14.2576 O   0  0  0  0  0  0  0  0  0  0  0  0
   22.9068   -5.2827  -13.2054 O   0  0  0  0  0  0  0  0  0  0  0  0
  2  3  2  0
  2  1  1  0
  4  3  1  0
  5  4  2  0
  6  5  1  0
  7  6  1  0
  7  8  1  6
  9  7  1  0
  9 10  2  0
 11  5  1  0
 11 12  2  0
 12  2  1  0
 14 16  1  0
 14 13  1  6
 15 14  1  0
 16 17  1  6
 17  9  1  0
 18 16  1  0
 19 18  2  0
 20 18  1  0
 21 20  1  0
 21 22  1  1
 23 24  2  0
 23 22  1  0
 25 24  1  0
 26 27  2  0
 26 25  1  0
 27 23  1  0
 28 21  1  0
 28 29  1  0
 30 28  2  0
M  END
$$$$
