YVH.pdb
     RDKit          3D

 30 31  0  0  1  0  0  0  0  0999 V2000
   19.2790  -13.7819  -16.3226 O   0  0  0  0  0  0  0  0  0  0  0  0
   18.7632  -12.6498  -15.6930 C   0  0  0  0  0  0  0  0  0  0  0  0
   18.0737  -11.7254  -16.4232 C   0  0  0  0  0  0  0  0  0  0  0  0
   17.5242  -10.5797  -15.9004 C   0  0  0  0  0  0  0  0  0  0  0  0
   17.6845  -10.3574  -14.5423 C   0  0  0  0  0  0  0  0  0  0  0  0
   17.0707   -9.1055  -13.9905 C   0  0  0  0  0  0  0  0  0  0  0  0
   15.8159   -9.4981  -13.2913 C   0  0  2  0  0  0  0  0  0  0  0  0
   14.8263  -10.1905  -14.0417 N   0  0  0  0  0  0  0  0  0  0  0  0
   15.2050   -8.3142  -12.5778 C   0  0  0  0  0  0  0  0  0  0  0  0
   14.3444   -7.5749  -13.1379 O   0  0  0  0  0  0  0  0  0  0  0  0
   18.3689  -11.2639  -13.7835 C   0  0  0  0  0  0  0  0  0  0  0  0
   18.9148  -12.4122  -14.3411 C   0  0  0  0  0  0  0  0  0  0  0  0
   14.2829   -5.7657   -8.4399 C   0  0  0  0  0  0  0  0  0  0  0  0
   14.8418   -7.0228   -9.1111 C   0  0  2  0  0  0  0  0  0  0  0  0
   16.1511   -7.4341   -8.4408 C   0  0  0  0  0  0  0  0  0  0  0  0
   15.0218   -6.8406  -10.5691 C   0  0  2  0  0  0  0  0  0  0  0  0
   15.5912   -7.9897  -11.2456 N   0  0  0  0  0  0  0  0  0  0  0  0
   15.7580   -5.5732  -10.9138 C   0  0  0  0  0  0  0  0  0  0  0  0
   17.0135   -5.5083  -10.9333 O   0  0  0  0  0  0  0  0  0  0  0  0
   14.9740   -4.4354  -11.2237 N   0  0  0  0  0  0  0  0  0  0  0  0
   15.5715   -3.1633  -11.6832 C   0  0  1  0  0  0  0  0  0  0  0  0
   14.8359   -2.7221  -12.9259 C   0  0  0  0  0  0  0  0  0  0  0  0
   15.2807   -1.4154  -13.4242 C   0  0  0  0  0  0  0  0  0  0  0  0
   14.6709   -0.2154  -13.1763 C   0  0  0  0  0  0  0  0  0  0  0  0
   15.3869    0.7333  -13.8400 N   0  0  0  0  0  0  0  0  0  0  0  0
   16.4164    0.1607  -14.4858 C   0  0  0  0  0  0  0  0  0  0  0  0
   16.3273   -1.1724  -14.2112 N   0  0  0  0  0  0  0  0  0  0  0  0
   15.1959   -2.1687  -10.6125 C   0  0  0  0  0  0  0  0  0  0  0  0
   16.0003   -1.0267  -10.4200 O   0  0  0  0  0  0  0  0  0  0  0  0
   14.2093   -2.2867   -9.8732 O   0  0  0  0  0  0  0  0  0  0  0  0
  2  3  2  0
  2  1  1  0
  4  3  1  0
  5  4  2  0
  6  5  1  0
  7  6  1  0
  7  8  1  6
  9  7  1  0
  9 10  2  0
 11  5  1  0
 11 12  2  0
 12  2  1  0
 14 16  1  0
 14 13  1  1
 15 14  1  0
 16 17  1  1
 17  9  1  0
 18 16  1  0
 19 18  2  0
 20 18  1  0
 21 20  1  0
 21 22  1  6
 23 24  2  0
 23 22  1  0
 25 24  1  0
 26 27  2  0
 26 25  1  0
 27 23  1  0
 28 21  1  0
 28 29  1  0
 30 28  2  0
M  END
$$$$
