YVH.pdb
     RDKit          3D

 30 31  0  0  1  0  0  0  0  0999 V2000
   18.6839  -23.6333  -10.2511 O   0  0  0  0  0  0  0  0  0  0  0  0
   19.7052  -22.7478  -10.5931 C   0  0  0  0  0  0  0  0  0  0  0  0
   20.6017  -23.0921  -11.5631 C   0  0  0  0  0  0  0  0  0  0  0  0
   21.6407  -22.2931  -11.9754 C   0  0  0  0  0  0  0  0  0  0  0  0
   21.7786  -21.0586  -11.3616 C   0  0  0  0  0  0  0  0  0  0  0  0
   22.9139  -20.1990  -11.8314 C   0  0  0  0  0  0  0  0  0  0  0  0
   24.1670  -20.7730  -11.2676 C   0  0  2  0  0  0  0  0  0  0  0  0
   24.3018  -20.8118   -9.8526 N   0  0  0  0  0  0  0  0  0  0  0  0
   25.3825  -20.1316  -11.8962 C   0  0  0  0  0  0  0  0  0  0  0  0
   25.8149  -19.0081  -11.5068 O   0  0  0  0  0  0  0  0  0  0  0  0
   20.8972  -20.6840  -10.3876 C   0  0  0  0  0  0  0  0  0  0  0  0
   19.8578  -21.5145   -9.9908 C   0  0  0  0  0  0  0  0  0  0  0  0
   29.1757  -19.3863  -14.6895 C   0  0  0  0  0  0  0  0  0  0  0  0
   28.3523  -20.2549  -13.7353 C   0  0  2  0  0  0  0  0  0  0  0  0
   28.6887  -21.7291  -13.9498 C   0  0  0  0  0  0  0  0  0  0  0  0
   26.8989  -20.0120  -13.8776 C   0  0  2  0  0  0  0  0  0  0  0  0
   26.0763  -20.7762  -12.9603 N   0  0  0  0  0  0  0  0  0  0  0  0
   26.4192  -20.1489  -15.2983 C   0  0  0  0  0  0  0  0  0  0  0  0
   25.9999  -21.2385  -15.7650 O   0  0  0  0  0  0  0  0  0  0  0  0
   26.4544  -18.9864  -16.1062 N   0  0  0  0  0  0  0  0  0  0  0  0
   25.9856  -18.9822  -17.5085 C   0  0  1  0  0  0  0  0  0  0  0  0
   25.2264  -17.6985  -17.7448 C   0  0  0  0  0  0  0  0  0  0  0  0
   23.8246  -17.7723  -17.3166 C   0  0  0  0  0  0  0  0  0  0  0  0
   23.1938  -18.8867  -16.8335 C   0  0  0  0  0  0  0  0  0  0  0  0
   21.9049  -18.5293  -16.5800 N   0  0  0  0  0  0  0  0  0  0  0  0
   21.7203  -17.2347  -16.8879 C   0  0  0  0  0  0  0  0  0  0  0  0
   22.9266  -16.7891  -17.3425 N   0  0  0  0  0  0  0  0  0  0  0  0
   27.2506  -18.8632  -18.3224 C   0  0  0  0  0  0  0  0  0  0  0  0
   27.5442  -19.8483  -19.2877 O   0  0  0  0  0  0  0  0  0  0  0  0
   28.0687  -17.9415  -18.2000 O   0  0  0  0  0  0  0  0  0  0  0  0
  2  3  2  0
  2  1  1  0
  4  3  1  0
  5  4  2  0
  6  5  1  0
  7  6  1  0
  7  8  1  1
  9  7  1  0
  9 10  2  0
 11  5  1  0
 11 12  2  0
 12  2  1  0
 14 16  1  0
 14 13  1  6
 15 14  1  0
 16 17  1  1
 17  9  1  0
 18 16  1  0
 19 18  2  0
 20 18  1  0
 21 20  1  0
 21 22  1  1
 23 24  2  0
 23 22  1  0
 25 24  1  0
 26 27  2  0
 26 25  1  0
 27 23  1  0
 28 21  1  0
 28 29  1  0
 30 28  2  0
M  END
$$$$
