YVH.pdb
     RDKit          3D

 30 31  0  0  1  0  0  0  0  0999 V2000
   17.5783  -17.6019  -15.6848 O   0  0  0  0  0  0  0  0  0  0  0  0
   17.7274  -16.2239  -15.8371 C   0  0  0  0  0  0  0  0  0  0  0  0
   18.7489  -15.7347  -16.5989 C   0  0  0  0  0  0  0  0  0  0  0  0
   18.9821  -14.3979  -16.8143 C   0  0  0  0  0  0  0  0  0  0  0  0
   18.1179  -13.4950  -16.2162 C   0  0  0  0  0  0  0  0  0  0  0  0
   18.3851  -12.0415  -16.4702 C   0  0  0  0  0  0  0  0  0  0  0  0
   17.3346  -11.5549  -17.4067 C   0  0  2  0  0  0  0  0  0  0  0  0
   17.1863  -12.2321  -18.6482 N   0  0  0  0  0  0  0  0  0  0  0  0
   17.4612  -10.0656  -17.6297 C   0  0  0  0  0  0  0  0  0  0  0  0
   18.2070   -9.5922  -18.5356 O   0  0  0  0  0  0  0  0  0  0  0  0
   17.0851  -13.9527  -15.4481 C   0  0  0  0  0  0  0  0  0  0  0  0
   16.8761  -15.3104  -15.2472 C   0  0  0  0  0  0  0  0  0  0  0  0
   14.9923   -7.4398  -18.6064 C   0  0  0  0  0  0  0  0  0  0  0  0
   15.6179   -7.0075  -17.2780 C   0  0  2  0  0  0  0  0  0  0  0  0
   15.8152   -5.4931  -17.2623 C   0  0  0  0  0  0  0  0  0  0  0  0
   16.8896   -7.7151  -17.0066 C   0  0  2  0  0  0  0  0  0  0  0  0
   16.7445   -9.1446  -16.8128 N   0  0  0  0  0  0  0  0  0  0  0  0
   17.6853   -7.0828  -15.8956 C   0  0  0  0  0  0  0  0  0  0  0  0
   17.3412   -7.1670  -14.6892 O   0  0  0  0  0  0  0  0  0  0  0  0
   18.8582   -6.3788  -16.2617 N   0  0  0  0  0  0  0  0  0  0  0  0
   19.7956   -5.8270  -15.2601 C   0  0  1  0  0  0  0  0  0  0  0  0
   21.1820   -6.3254  -15.5915 C   0  0  0  0  0  0  0  0  0  0  0  0
   21.3304   -7.7744  -15.4123 C   0  0  0  0  0  0  0  0  0  0  0  0
   20.9889   -8.4804  -14.2906 C   0  0  0  0  0  0  0  0  0  0  0  0
   21.3096   -9.7811  -14.5327 N   0  0  0  0  0  0  0  0  0  0  0  0
   21.8343   -9.9012  -15.7636 C   0  0  0  0  0  0  0  0  0  0  0  0
   21.8358   -8.6418  -16.2874 N   0  0  0  0  0  0  0  0  0  0  0  0
   19.8156   -4.3457  -15.5469 C   0  0  0  0  0  0  0  0  0  0  0  0
   20.4644   -3.4778  -14.6446 O   0  0  0  0  0  0  0  0  0  0  0  0
   19.2903   -3.8257  -16.5406 O   0  0  0  0  0  0  0  0  0  0  0  0
  2  3  2  0
  2  1  1  0
  4  3  1  0
  5  4  2  0
  6  5  1  0
  7  6  1  0
  7  8  1  6
  9  7  1  0
  9 10  2  0
 11  5  1  0
 11 12  2  0
 12  2  1  0
 14 16  1  0
 14 13  1  6
 15 14  1  0
 16 17  1  1
 17  9  1  0
 18 16  1  0
 19 18  2  0
 20 18  1  0
 21 20  1  0
 21 22  1  6
 23 24  2  0
 23 22  1  0
 25 24  1  0
 26 27  2  0
 26 25  1  0
 27 23  1  0
 28 21  1  0
 28 29  1  0
 30 28  2  0
M  END
$$$$
