HVP.pdb
     RDKit          3D

 25 26  0  0  1  0  0  0  0  0999 V2000
    9.5017  -16.1555   19.5402 N   0  0  0  0  0  0  0  0  0  0  0  0
   10.0762  -15.6012   20.7330 C   0  0  1  0  0  0  0  0  0  0  0  0
   10.7570  -14.2922   20.4366 C   0  0  0  0  0  0  0  0  0  0  0  0
   12.0381  -14.6044   19.7483 C   0  0  0  0  0  0  0  0  0  0  0  0
   13.2517  -14.7599   20.4102 C   0  0  0  0  0  0  0  0  0  0  0  0
   14.1728  -15.0297   19.4891 N   0  0  0  0  0  0  0  0  0  0  0  0
   13.5896  -15.0499   18.2816 C   0  0  0  0  0  0  0  0  0  0  0  0
   12.2775  -14.7886   18.4396 N   0  0  0  0  0  0  0  0  0  0  0  0
    9.0414  -15.4755   21.7918 C   0  0  0  0  0  0  0  0  0  0  0  0
    8.0631  -14.7108   21.6288 O   0  0  0  0  0  0  0  0  0  0  0  0
    6.5833  -17.1777   25.5300 C   0  0  0  0  0  0  0  0  0  0  0  0
    7.5023  -17.3880   24.3171 C   0  0  1  0  0  0  0  0  0  0  0  0
    6.6691  -17.8673   23.1558 C   0  0  0  0  0  0  0  0  0  0  0  0
    8.1088  -16.0217   24.0454 C   0  0  2  0  0  0  0  0  0  0  0  0
    9.1390  -16.2099   22.9943 N   0  0  0  0  0  0  0  0  0  0  0  0
    8.7287  -15.4032   25.2378 C   0  0  0  0  0  0  0  0  0  0  0  0
    9.8228  -15.9504   25.6426 O   0  0  0  0  0  0  0  0  0  0  0  0
    8.2780  -14.3081   25.9696 N   0  0  0  0  0  0  0  0  0  0  0  0
    7.0183  -13.6071   25.6457 C   0  0  0  0  0  0  0  0  0  0  0  0
    6.6000  -13.1371   27.0191 C   0  0  0  0  0  0  0  0  0  0  0  0
    7.9245  -12.4852   27.4472 C   0  0  0  0  0  0  0  0  0  0  0  0
    8.8626  -13.6729   27.1209 C   0  0  1  0  0  0  0  0  0  0  0  0
    8.8371  -14.5444   28.3331 C   0  0  0  0  0  0  0  0  0  0  0  0
    8.1269  -15.5640   28.4177 O   0  0  0  0  0  0  0  0  0  0  0  0
    9.6260  -14.2374   29.4348 O   0  0  0  0  0  0  0  0  0  0  0  0
  2  9  1  0
  2  1  1  6
  3  2  1  0
  4  3  1  0
  5  4  2  0
  6  7  1  0
  6  5  1  0
  7  8  2  0
  8  4  1  0
  9 10  2  0
 12 11  1  1
 12 14  1  0
 12 13  1  0
 14 15  1  6
 15  9  1  0
 16 14  1  0
 16 17  2  0
 18 16  1  0
 19 18  1  0
 20 19  1  0
 21 20  1  0
 22 21  1  0
 22 18  1  0
 22 23  1  1
 24 23  2  0
 25 23  1  0
M  END
$$$$
