HVP.pdb
     RDKit          3D

 25 26  0  0  1  0  0  0  0  0999 V2000
    9.7822  -15.7077   20.4198 N   0  0  0  0  0  0  0  0  0  0  0  0
    9.2289  -16.3119   21.5984 C   0  0  1  0  0  0  0  0  0  0  0  0
    9.9037  -17.6252   21.8894 C   0  0  0  0  0  0  0  0  0  0  0  0
    9.1486  -18.6821   21.1646 C   0  0  0  0  0  0  0  0  0  0  0  0
    8.0729  -18.4216   20.3220 C   0  0  0  0  0  0  0  0  0  0  0  0
    7.6469  -19.5908   19.8515 N   0  0  0  0  0  0  0  0  0  0  0  0
    8.4078  -20.5700   20.3621 C   0  0  0  0  0  0  0  0  0  0  0  0
    9.3312  -20.0127   21.1694 N   0  0  0  0  0  0  0  0  0  0  0  0
    9.3052  -15.3689   22.7439 C   0  0  0  0  0  0  0  0  0  0  0  0
   10.3288  -14.6680   22.9157 O   0  0  0  0  0  0  0  0  0  0  0  0
    6.1656  -15.0220   25.5459 C   0  0  0  0  0  0  0  0  0  0  0  0
    6.9995  -13.7978   25.1391 C   0  0  1  0  0  0  0  0  0  0  0  0
    7.0334  -12.8296   26.2941 C   0  0  0  0  0  0  0  0  0  0  0  0
    8.3806  -14.3511   24.8311 C   0  0  2  0  0  0  0  0  0  0  0  0
    8.2335  -15.2444   23.6555 N   0  0  0  0  0  0  0  0  0  0  0  0
    8.9772  -15.1080   25.9535 C   0  0  0  0  0  0  0  0  0  0  0  0
    8.8326  -16.3873   25.9004 O   0  0  0  0  0  0  0  0  0  0  0  0
    9.6728  -14.6098   27.0516 N   0  0  0  0  0  0  0  0  0  0  0  0
    9.5689  -13.1988   27.4775 C   0  0  0  0  0  0  0  0  0  0  0  0
    9.7754  -13.3416   28.9672 C   0  0  0  0  0  0  0  0  0  0  0  0
   11.0533  -14.1952   28.9367 C   0  0  0  0  0  0  0  0  0  0  0  0
   10.5557  -15.2901   27.9617 C   0  0  1  0  0  0  0  0  0  0  0  0
    9.8443  -16.2884   28.8144 C   0  0  0  0  0  0  0  0  0  0  0  0
   10.4401  -17.0739   29.5754 O   0  0  0  0  0  0  0  0  0  0  0  0
    8.4580  -16.3751   28.7851 O   0  0  0  0  0  0  0  0  0  0  0  0
  2  9  1  0
  2  1  1  6
  3  2  1  0
  4  3  1  0
  5  4  2  0
  6  7  1  0
  6  5  1  0
  7  8  2  0
  8  4  1  0
  9 10  2  0
 12 11  1  1
 12 14  1  0
 12 13  1  0
 14 15  1  6
 15  9  1  0
 16 14  1  0
 16 17  2  0
 18 16  1  0
 19 18  1  0
 20 19  1  0
 21 20  1  0
 22 21  1  0
 22 18  1  0
 22 23  1  1
 24 23  2  0
 25 23  1  0
M  END
$$$$
