HVP.pdb
     RDKit          3D

 25 26  0  0  1  0  0  0  0  0999 V2000
   12.1061  -18.2538   18.6564 N   0  0  0  0  0  0  0  0  0  0  0  0
   10.8711  -18.4566   19.3592 C   0  0  1  0  0  0  0  0  0  0  0  0
   10.9365  -19.7029   20.2001 C   0  0  0  0  0  0  0  0  0  0  0  0
   10.8787  -20.8660   19.2748 C   0  0  0  0  0  0  0  0  0  0  0  0
   10.0863  -20.9043   18.1321 C   0  0  0  0  0  0  0  0  0  0  0  0
   10.2840  -22.0855   17.5530 N   0  0  0  0  0  0  0  0  0  0  0  0
   11.1640  -22.7871   18.2823 C   0  0  0  0  0  0  0  0  0  0  0  0
   11.5303  -22.0386   19.3408 N   0  0  0  0  0  0  0  0  0  0  0  0
   10.5297  -17.2509   20.1574 C   0  0  0  0  0  0  0  0  0  0  0  0
   11.3993  -16.7014   20.8718 O   0  0  0  0  0  0  0  0  0  0  0  0
    6.5836  -15.6804   20.3037 C   0  0  0  0  0  0  0  0  0  0  0  0
    7.8145  -14.7628   20.3531 C   0  0  1  0  0  0  0  0  0  0  0  0
    7.4666  -13.5282   21.1451 C   0  0  0  0  0  0  0  0  0  0  0  0
    8.8883  -15.5870   21.0431 C   0  0  2  0  0  0  0  0  0  0  0  0
    9.2278  -16.7041   20.1274 N   0  0  0  0  0  0  0  0  0  0  0  0
    8.4640  -16.1335   22.3507 C   0  0  0  0  0  0  0  0  0  0  0  0
    7.9309  -17.3060   22.3168 O   0  0  0  0  0  0  0  0  0  0  0  0
    8.5717  -15.5398   23.6053 N   0  0  0  0  0  0  0  0  0  0  0  0
    8.9783  -14.1299   23.7788 C   0  0  0  0  0  0  0  0  0  0  0  0
    8.2219  -13.7748   25.0374 C   0  0  0  0  0  0  0  0  0  0  0  0
    8.6586  -14.9652   25.9061 C   0  0  0  0  0  0  0  0  0  0  0  0
    8.3141  -16.0967   24.9069 C   0  0  1  0  0  0  0  0  0  0  0  0
    6.8680  -16.3960   25.1282 C   0  0  0  0  0  0  0  0  0  0  0  0
    5.9695  -15.9886   24.3681 O   0  0  0  0  0  0  0  0  0  0  0  0
    6.4682  -17.1590   26.2182 O   0  0  0  0  0  0  0  0  0  0  0  0
  2  9  1  0
  2  1  1  1
  3  2  1  0
  4  3  1  0
  5  4  2  0
  6  7  1  0
  6  5  1  0
  7  8  2  0
  8  4  1  0
  9 10  2  0
 12 11  1  1
 12 14  1  0
 12 13  1  0
 14 15  1  6
 15  9  1  0
 16 14  1  0
 16 17  2  0
 18 16  1  0
 19 18  1  0
 20 19  1  0
 21 20  1  0
 22 21  1  0
 22 18  1  0
 22 23  1  6
 24 23  2  0
 25 23  1  0
M  END
$$$$
