HVP.pdb
     RDKit          3D

 25 26  0  0  1  0  0  0  0  0999 V2000
    9.9734  -15.7157   20.4010 N   0  0  0  0  0  0  0  0  0  0  0  0
    9.5526  -16.4223   21.5774 C   0  0  1  0  0  0  0  0  0  0  0  0
   10.3865  -17.6583   21.7818 C   0  0  0  0  0  0  0  0  0  0  0  0
    9.8759  -18.6973   20.8479 C   0  0  0  0  0  0  0  0  0  0  0  0
    8.9949  -19.7063   21.2232 C   0  0  0  0  0  0  0  0  0  0  0  0
    8.7567  -20.4454   20.1431 N   0  0  0  0  0  0  0  0  0  0  0  0
    9.4490  -19.9437   19.1098 C   0  0  0  0  0  0  0  0  0  0  0  0
   10.1373  -18.8693   19.5418 N   0  0  0  0  0  0  0  0  0  0  0  0
    9.5787  -15.5190   22.7567 C   0  0  0  0  0  0  0  0  0  0  0  0
   10.5749  -14.7907   22.9704 O   0  0  0  0  0  0  0  0  0  0  0  0
    6.3514  -15.3163   25.4685 C   0  0  0  0  0  0  0  0  0  0  0  0
    7.1314  -14.0560   25.0653 C   0  0  1  0  0  0  0  0  0  0  0  0
    7.0748  -13.0673   26.2019 C   0  0  0  0  0  0  0  0  0  0  0  0
    8.5497  -14.5388   24.8128 C   0  0  2  0  0  0  0  0  0  0  0  0
    8.4893  -15.4634   23.6539 N   0  0  0  0  0  0  0  0  0  0  0  0
    9.1502  -15.2379   25.9701 C   0  0  0  0  0  0  0  0  0  0  0  0
    9.0633  -16.5233   25.9495 O   0  0  0  0  0  0  0  0  0  0  0  0
    9.7953  -14.6799   27.0703 N   0  0  0  0  0  0  0  0  0  0  0  0
    9.6736  -13.2479   27.4136 C   0  0  0  0  0  0  0  0  0  0  0  0
    9.8113  -13.3092   28.9168 C   0  0  0  0  0  0  0  0  0  0  0  0
   11.0882  -14.1615   28.9915 C   0  0  0  0  0  0  0  0  0  0  0  0
   10.6346  -15.3085   28.0556 C   0  0  1  0  0  0  0  0  0  0  0  0
    9.8836  -16.2599   28.9277 C   0  0  0  0  0  0  0  0  0  0  0  0
    8.6451  -16.3833   28.8838 O   0  0  0  0  0  0  0  0  0  0  0  0
   10.5608  -17.0591   29.8404 O   0  0  0  0  0  0  0  0  0  0  0  0
  2  9  1  0
  2  1  1  6
  3  2  1  0
  4  3  1  0
  5  4  2  0
  6  7  1  0
  6  5  1  0
  7  8  2  0
  8  4  1  0
  9 10  2  0
 12 11  1  1
 12 14  1  0
 12 13  1  0
 14 15  1  6
 15  9  1  0
 16 14  1  0
 16 17  2  0
 18 16  1  0
 19 18  1  0
 20 19  1  0
 21 20  1  0
 22 21  1  0
 22 18  1  0
 22 23  1  1
 24 23  2  0
 25 23  1  0
M  END
$$$$
