HVP.pdb
     RDKit          3D

 25 26  0  0  1  0  0  0  0  0999 V2000
    8.9958  -15.5937   20.5544 N   0  0  0  0  0  0  0  0  0  0  0  0
    8.4974  -16.1515   21.7795 C   0  0  1  0  0  0  0  0  0  0  0  0
    8.9890  -17.5623   21.9600 C   0  0  0  0  0  0  0  0  0  0  0  0
    8.3240  -18.3995   20.9260 C   0  0  0  0  0  0  0  0  0  0  0  0
    7.1044  -19.0402   21.1190 C   0  0  0  0  0  0  0  0  0  0  0  0
    6.8176  -19.6916   19.9952 N   0  0  0  0  0  0  0  0  0  0  0  0
    7.8028  -19.4869   19.1086 C   0  0  0  0  0  0  0  0  0  0  0  0
    8.7293  -18.6929   19.6795 N   0  0  0  0  0  0  0  0  0  0  0  0
    8.8535  -15.2756   22.9256 C   0  0  0  0  0  0  0  0  0  0  0  0
    9.9973  -14.7711   23.0013 O   0  0  0  0  0  0  0  0  0  0  0  0
    6.6792  -12.5540   24.5967 C   0  0  0  0  0  0  0  0  0  0  0  0
    7.1105  -13.5413   25.6916 C   0  0  1  0  0  0  0  0  0  0  0  0
    5.9918  -14.5244   25.9251 C   0  0  0  0  0  0  0  0  0  0  0  0
    8.3492  -14.2236   25.1360 C   0  0  2  0  0  0  0  0  0  0  0  0
    7.9169  -14.9962   23.9452 N   0  0  0  0  0  0  0  0  0  0  0  0
    9.0057  -15.1325   26.1012 C   0  0  0  0  0  0  0  0  0  0  0  0
    8.7747  -16.3882   25.9282 O   0  0  0  0  0  0  0  0  0  0  0  0
    9.8388  -14.7984   27.1654 N   0  0  0  0  0  0  0  0  0  0  0  0
   10.0592  -13.3992   27.5858 C   0  0  0  0  0  0  0  0  0  0  0  0
   10.2941  -13.5868   29.0662 C   0  0  0  0  0  0  0  0  0  0  0  0
   11.3560  -14.6953   28.9872 C   0  0  0  0  0  0  0  0  0  0  0  0
   10.5930  -15.6551   28.0417 C   0  0  1  0  0  0  0  0  0  0  0  0
    9.7209  -16.4791   28.9306 C   0  0  0  0  0  0  0  0  0  0  0  0
    8.4859  -16.3310   28.9915 O   0  0  0  0  0  0  0  0  0  0  0  0
   10.2745  -17.4635   29.7398 O   0  0  0  0  0  0  0  0  0  0  0  0
  2  9  1  0
  2  1  1  6
  3  2  1  0
  4  3  1  0
  5  4  2  0
  6  7  1  0
  6  5  1  0
  7  8  2  0
  8  4  1  0
  9 10  2  0
 12 11  1  6
 12 14  1  0
 12 13  1  0
 14 15  1  6
 15  9  1  0
 16 14  1  0
 16 17  2  0
 18 16  1  0
 19 18  1  0
 20 19  1  0
 21 20  1  0
 22 21  1  0
 22 18  1  0
 22 23  1  1
 24 23  2  0
 25 23  1  0
M  END
$$$$
