HVP.pdb
     RDKit          3D

 25 26  0  0  1  0  0  0  0  0999 V2000
   10.4883  -18.1258   21.5402 N   0  0  0  0  0  0  0  0  0  0  0  0
   10.1776  -16.7457   21.2971 C   0  0  1  0  0  0  0  0  0  0  0  0
    9.4438  -16.5877   19.9928 C   0  0  0  0  0  0  0  0  0  0  0  0
   10.3477  -17.0693   18.9142 C   0  0  0  0  0  0  0  0  0  0  0  0
   11.6685  -16.6565   18.7727 C   0  0  0  0  0  0  0  0  0  0  0  0
   12.1677  -17.2846   17.7116 N   0  0  0  0  0  0  0  0  0  0  0  0
   11.2185  -18.0713   17.1836 C   0  0  0  0  0  0  0  0  0  0  0  0
   10.0994  -17.9398   17.9219 N   0  0  0  0  0  0  0  0  0  0  0  0
    9.4233  -16.1786   22.4447 C   0  0  0  0  0  0  0  0  0  0  0  0
    8.9808  -15.0082   22.3910 O   0  0  0  0  0  0  0  0  0  0  0  0
    6.4576  -17.1639   24.0701 C   0  0  0  0  0  0  0  0  0  0  0  0
    7.4386  -17.1634   25.2521 C   0  0  1  0  0  0  0  0  0  0  0  0
    7.8844  -18.5799   25.5117 C   0  0  0  0  0  0  0  0  0  0  0  0
    8.5940  -16.2864   24.8001 C   0  0  2  0  0  0  0  0  0  0  0  0
    9.1915  -16.9416   23.6105 N   0  0  0  0  0  0  0  0  0  0  0  0
    9.6346  -16.1010   25.8352 C   0  0  0  0  0  0  0  0  0  0  0  0
   10.4965  -17.0537   25.9340 O   0  0  0  0  0  0  0  0  0  0  0  0
    9.7961  -15.0287   26.7082 N   0  0  0  0  0  0  0  0  0  0  0  0
    8.9454  -13.8224   26.6421 C   0  0  0  0  0  0  0  0  0  0  0  0
    8.9326  -13.4106   28.0955 C   0  0  0  0  0  0  0  0  0  0  0  0
   10.4474  -13.4474   28.3534 C   0  0  0  0  0  0  0  0  0  0  0  0
   10.7249  -14.8646   27.7949 C   0  0  1  0  0  0  0  0  0  0  0  0
   10.4545  -15.7986   28.9282 C   0  0  0  0  0  0  0  0  0  0  0  0
   11.2300  -15.9325   29.8934 O   0  0  0  0  0  0  0  0  0  0  0  0
    9.2980  -16.5685   28.9422 O   0  0  0  0  0  0  0  0  0  0  0  0
  2  9  1  0
  2  1  1  1
  3  2  1  0
  4  3  1  0
  5  4  2  0
  6  7  1  0
  6  5  1  0
  7  8  2  0
  8  4  1  0
  9 10  2  0
 12 11  1  6
 12 14  1  0
 12 13  1  0
 14 15  1  6
 15  9  1  0
 16 14  1  0
 16 17  2  0
 18 16  1  0
 19 18  1  0
 20 19  1  0
 21 20  1  0
 22 21  1  0
 22 18  1  0
 22 23  1  1
 24 23  2  0
 25 23  1  0
M  END
$$$$
