HVP.pdb
     RDKit          3D

 25 26  0  0  1  0  0  0  0  0999 V2000
    9.6004  -15.3194   20.4180 N   0  0  0  0  0  0  0  0  0  0  0  0
    9.2425  -16.0816   21.5804 C   0  0  1  0  0  0  0  0  0  0  0  0
   10.0955  -17.3165   21.6899 C   0  0  0  0  0  0  0  0  0  0  0  0
    9.2557  -18.4736   21.2798 C   0  0  0  0  0  0  0  0  0  0  0  0
    7.8663  -18.4367   21.2225 C   0  0  0  0  0  0  0  0  0  0  0  0
    7.4549  -19.6361   20.8203 N   0  0  0  0  0  0  0  0  0  0  0  0
    8.5246  -20.4209   20.6236 C   0  0  0  0  0  0  0  0  0  0  0  0
    9.6319  -19.7075   20.9058 N   0  0  0  0  0  0  0  0  0  0  0  0
    9.3173  -15.2308   22.7962 C   0  0  0  0  0  0  0  0  0  0  0  0
   10.3543  -14.5730   23.0418 O   0  0  0  0  0  0  0  0  0  0  0  0
    6.1492  -15.0543   25.5746 C   0  0  0  0  0  0  0  0  0  0  0  0
    6.9504  -13.7915   25.2237 C   0  0  1  0  0  0  0  0  0  0  0  0
    6.9524  -12.8720   26.4183 C   0  0  0  0  0  0  0  0  0  0  0  0
    8.3477  -14.2931   24.9004 C   0  0  2  0  0  0  0  0  0  0  0  0
    8.2292  -15.1472   23.6929 N   0  0  0  0  0  0  0  0  0  0  0  0
    8.9636  -15.0724   25.9966 C   0  0  0  0  0  0  0  0  0  0  0  0
    8.8332  -16.3514   25.9110 O   0  0  0  0  0  0  0  0  0  0  0  0
    9.6641  -14.5954   27.1011 N   0  0  0  0  0  0  0  0  0  0  0  0
    9.6108  -13.1787   27.5175 C   0  0  0  0  0  0  0  0  0  0  0  0
    9.7919  -13.3202   29.0106 C   0  0  0  0  0  0  0  0  0  0  0  0
   11.0351  -14.2240   29.0021 C   0  0  0  0  0  0  0  0  0  0  0  0
   10.5072  -15.3045   28.0268 C   0  0  1  0  0  0  0  0  0  0  0  0
    9.7455  -16.2684   28.8756 C   0  0  0  0  0  0  0  0  0  0  0  0
    8.5031  -16.3514   28.8554 O   0  0  0  0  0  0  0  0  0  0  0  0
   10.4167  -17.1262   29.7381 O   0  0  0  0  0  0  0  0  0  0  0  0
  2  9  1  0
  2  1  1  6
  3  2  1  0
  4  3  1  0
  5  4  2  0
  6  7  1  0
  6  5  1  0
  7  8  2  0
  8  4  1  0
  9 10  2  0
 12 11  1  1
 12 14  1  0
 12 13  1  0
 14 15  1  6
 15  9  1  0
 16 14  1  0
 16 17  2  0
 18 16  1  0
 19 18  1  0
 20 19  1  0
 21 20  1  0
 22 21  1  0
 22 18  1  0
 22 23  1  1
 24 23  2  0
 25 23  1  0
M  END
$$$$
