QHN.pdb
     RDKit          3D

 28 28  0  0  1  0  0  0  0  0999 V2000
   27.7293  -19.9817  -21.7527 N   0  0  0  0  0  0  0  0  0  0  0  0
   26.7269  -19.8349  -20.7474 C   0  0  0  0  0  0  0  0  0  0  0  0
   25.5833  -20.3135  -20.9347 O   0  0  0  0  0  0  0  0  0  0  0  0
   27.0203  -19.1283  -19.4885 C   0  0  0  0  0  0  0  0  0  0  0  0
   26.2700  -19.7269  -18.3547 C   0  0  0  0  0  0  0  0  0  0  0  0
   27.2188  -20.3255  -17.3572 C   0  0  2  0  0  0  0  0  0  0  0  0
   27.7680  -21.5345  -17.9775 N   0  0  0  0  0  0  0  0  0  0  0  0
   26.4827  -20.7589  -16.1313 C   0  0  0  0  0  0  0  0  0  0  0  0
   25.7533  -21.7950  -16.2805 O   0  0  0  0  0  0  0  0  0  0  0  0
   26.5899  -20.0726  -14.9090 N   0  0  0  0  0  0  0  0  0  0  0  0
   25.7992  -20.6317  -13.7593 C   0  0  1  0  0  0  0  0  0  0  0  0
   26.5018  -20.0624  -12.5715 C   0  0  0  0  0  0  0  0  0  0  0  0
   25.8752  -20.3473  -11.2841 C   0  0  0  0  0  0  0  0  0  0  0  0
   24.6668  -21.0850  -11.1895 C   0  0  0  0  0  0  0  0  0  0  0  0
   24.2994  -21.2119   -9.9090 N   0  0  0  0  0  0  0  0  0  0  0  0
   25.2314  -20.5807   -9.1818 C   0  0  0  0  0  0  0  0  0  0  0  0
   26.1532  -20.0767  -10.0105 N   0  0  0  0  0  0  0  0  0  0  0  0
   24.4110  -20.2132  -13.9356 C   0  0  0  0  0  0  0  0  0  0  0  0
   24.2123  -19.0329  -14.3851 O   0  0  0  0  0  0  0  0  0  0  0  0
   20.8282  -19.3104  -16.2270 N   0  0  0  0  0  0  0  0  0  0  0  0
   20.7436  -20.6981  -15.9561 C   0  0  0  0  0  0  0  0  0  0  0  0
   20.1684  -21.4516  -16.8193 O   0  0  0  0  0  0  0  0  0  0  0  0
   21.2542  -21.3859  -14.7704 C   0  0  0  0  0  0  0  0  0  0  0  0
   21.9171  -20.5457  -13.7466 C   0  0  2  0  0  0  0  0  0  0  0  0
   23.3075  -21.0128  -13.6546 N   0  0  0  0  0  0  0  0  0  0  0  0
   21.3131  -20.5867  -12.3992 C   0  0  0  0  0  0  0  0  0  0  0  0
   20.4246  -19.6537  -11.8931 O   0  0  0  0  0  0  0  0  0  0  0  0
   21.6162  -21.5360  -11.6329 O   0  0  0  0  0  0  0  0  0  0  0  0
  2  3  2  0
  2  1  1  0
  4  2  1  0
  5  4  1  0
  5  6  1  0
  6  7  1  6
  6  8  1  0
  8  9  2  0
 10  8  1  0
 10 11  1  0
 11 12  1  1
 13 12  1  0
 14 13  2  0
 15 16  1  0
 15 14  1  0
 16 17  2  0
 17 13  1  0
 18 11  1  0
 18 19  2  0
 20 21  1  0
 21 23  1  0
 21 22  2  0
 24 23  1  6
 24 25  1  0
 24 26  1  0
 25 18  1  0
 26 27  1  0
 28 26  2  0
M  END
$$$$
