QHN.pdb
     RDKit          3D

 28 28  0  0  1  0  0  0  0  0999 V2000
   16.8637  -15.8986  -18.5395 N   0  0  0  0  0  0  0  0  0  0  0  0
   16.7753  -15.1124  -17.3515 C   0  0  0  0  0  0  0  0  0  0  0  0
   15.7047  -15.0885  -16.6996 O   0  0  0  0  0  0  0  0  0  0  0  0
   17.9299  -14.3286  -16.8794 C   0  0  0  0  0  0  0  0  0  0  0  0
   19.0052  -14.2950  -17.9038 C   0  0  0  0  0  0  0  0  0  0  0  0
   20.2844  -14.8396  -17.3375 C   0  0  2  0  0  0  0  0  0  0  0  0
   19.9056  -15.7641  -16.2651 N   0  0  0  0  0  0  0  0  0  0  0  0
   21.0848  -13.7455  -16.7090 C   0  0  0  0  0  0  0  0  0  0  0  0
   20.7855  -13.4898  -15.4954 O   0  0  0  0  0  0  0  0  0  0  0  0
   22.0900  -13.0541  -17.4074 N   0  0  0  0  0  0  0  0  0  0  0  0
   22.8568  -12.0243  -16.6256 C   0  0  1  0  0  0  0  0  0  0  0  0
   24.2206  -12.1052  -17.2276 C   0  0  0  0  0  0  0  0  0  0  0  0
   25.1886  -11.1468  -16.7028 C   0  0  0  0  0  0  0  0  0  0  0  0
   25.8689  -11.3685  -15.4774 C   0  0  0  0  0  0  0  0  0  0  0  0
   26.6987  -10.3515  -15.2166 N   0  0  0  0  0  0  0  0  0  0  0  0
   26.5723   -9.4875  -16.2331 C   0  0  0  0  0  0  0  0  0  0  0  0
   25.6768   -9.9736  -17.1003 N   0  0  0  0  0  0  0  0  0  0  0  0
   22.1674  -10.7467  -16.7868 C   0  0  0  0  0  0  0  0  0  0  0  0
   21.5186  -10.5695  -17.8741 O   0  0  0  0  0  0  0  0  0  0  0  0
   19.9112   -5.9311  -15.7495 N   0  0  0  0  0  0  0  0  0  0  0  0
   19.7918   -7.0267  -14.8596 C   0  0  0  0  0  0  0  0  0  0  0  0
   18.9869   -6.9186  -13.8675 O   0  0  0  0  0  0  0  0  0  0  0  0
   20.5022   -8.3022  -14.9495 C   0  0  0  0  0  0  0  0  0  0  0  0
   21.5032   -8.4322  -16.0334 C   0  0  2  0  0  0  0  0  0  0  0  0
   22.1683   -9.7283  -15.8388 N   0  0  0  0  0  0  0  0  0  0  0  0
   22.5325   -7.3737  -16.0815 C   0  0  0  0  0  0  0  0  0  0  0  0
   22.3463   -6.1008  -16.5922 O   0  0  0  0  0  0  0  0  0  0  0  0
   23.6772   -7.6270  -15.6278 O   0  0  0  0  0  0  0  0  0  0  0  0
  2  3  2  0
  2  1  1  0
  4  2  1  0
  5  4  1  0
  5  6  1  0
  6  7  1  1
  6  8  1  0
  8  9  2  0
 10  8  1  0
 10 11  1  0
 11 12  1  6
 13 12  1  0
 14 13  2  0
 15 16  1  0
 15 14  1  0
 16 17  2  0
 17 13  1  0
 18 11  1  0
 18 19  2  0
 20 21  1  0
 21 23  1  0
 21 22  2  0
 24 23  1  1
 24 25  1  0
 24 26  1  0
 25 18  1  0
 26 27  1  0
 28 26  2  0
M  END
$$$$
