QHN.pdb
     RDKit          3D

 28 28  0  0  1  0  0  0  0  0999 V2000
   29.4342  -20.2969   -8.6256 N   0  0  0  0  0  0  0  0  0  0  0  0
   28.6360  -19.6568   -7.6305 C   0  0  0  0  0  0  0  0  0  0  0  0
   29.1710  -18.8663   -6.8176 O   0  0  0  0  0  0  0  0  0  0  0  0
   27.1875  -19.9123   -7.5477 C   0  0  0  0  0  0  0  0  0  0  0  0
   26.7484  -20.8405   -8.6212 C   0  0  0  0  0  0  0  0  0  0  0  0
   25.6196  -20.2369   -9.4054 C   0  0  2  0  0  0  0  0  0  0  0  0
   24.3823  -20.7954   -8.8528 N   0  0  0  0  0  0  0  0  0  0  0  0
   25.6909  -20.6633  -10.8357 C   0  0  0  0  0  0  0  0  0  0  0  0
   26.7208  -20.2539  -11.4679 O   0  0  0  0  0  0  0  0  0  0  0  0
   24.6954  -21.4557  -11.4337 N   0  0  0  0  0  0  0  0  0  0  0  0
   24.8710  -21.7550  -12.8963 C   0  0  1  0  0  0  0  0  0  0  0  0
   24.4228  -23.1755  -12.9957 C   0  0  0  0  0  0  0  0  0  0  0  0
   24.3722  -23.7171  -14.3504 C   0  0  0  0  0  0  0  0  0  0  0  0
   24.7106  -22.9301  -15.4816 C   0  0  0  0  0  0  0  0  0  0  0  0
   24.5861  -23.6507  -16.6024 N   0  0  0  0  0  0  0  0  0  0  0  0
   24.1797  -24.8711  -16.2265 C   0  0  0  0  0  0  0  0  0  0  0  0
   24.0589  -24.8913  -14.8941 N   0  0  0  0  0  0  0  0  0  0  0  0
   24.0738  -20.7848  -13.6424 C   0  0  0  0  0  0  0  0  0  0  0  0
   23.0134  -20.3470  -13.0780 O   0  0  0  0  0  0  0  0  0  0  0  0
   22.7148  -17.2080  -17.5536 N   0  0  0  0  0  0  0  0  0  0  0  0
   24.0834  -17.4714  -17.3005 C   0  0  0  0  0  0  0  0  0  0  0  0
   24.9615  -16.7999  -17.9499 O   0  0  0  0  0  0  0  0  0  0  0  0
   24.6209  -18.4491  -16.3545 C   0  0  0  0  0  0  0  0  0  0  0  0
   23.6358  -19.2658  -15.6087 C   0  0  2  0  0  0  0  0  0  0  0  0
   24.3980  -20.3098  -14.9094 N   0  0  0  0  0  0  0  0  0  0  0  0
   22.5906  -19.9111  -16.4292 C   0  0  0  0  0  0  0  0  0  0  0  0
   22.5619  -21.2504  -16.7777 O   0  0  0  0  0  0  0  0  0  0  0  0
   21.6411  -19.2067  -16.8565 O   0  0  0  0  0  0  0  0  0  0  0  0
  2  3  2  0
  2  1  1  0
  4  2  1  0
  5  4  1  0
  5  6  1  0
  6  7  1  1
  6  8  1  0
  8  9  2  0
 10  8  1  0
 10 11  1  0
 11 12  1  1
 13 12  1  0
 14 13  2  0
 15 16  1  0
 15 14  1  0
 16 17  2  0
 17 13  1  0
 18 11  1  0
 18 19  2  0
 20 21  1  0
 21 23  1  0
 21 22  2  0
 24 23  1  6
 24 25  1  0
 24 26  1  0
 25 18  1  0
 26 27  1  0
 28 26  2  0
M  END
$$$$
