QHN.pdb
     RDKit          3D

 28 28  0  0  1  0  0  0  0  0999 V2000
   27.2315  -34.1390    5.0537 N   0  0  0  0  0  0  0  0  0  0  0  0
   27.6343  -34.0365    3.6883 C   0  0  0  0  0  0  0  0  0  0  0  0
   28.0593  -35.0514    3.0873 O   0  0  0  0  0  0  0  0  0  0  0  0
   27.5547  -32.7505    2.9739 C   0  0  0  0  0  0  0  0  0  0  0  0
   27.0234  -31.6821    3.8588 C   0  0  0  0  0  0  0  0  0  0  0  0
   25.5448  -31.8521    4.0546 C   0  0  2  0  0  0  0  0  0  0  0  0
   24.9014  -31.3339    2.8439 N   0  0  0  0  0  0  0  0  0  0  0  0
   25.0693  -31.0125    5.1956 C   0  0  0  0  0  0  0  0  0  0  0  0
   25.8333  -30.0372    5.5002 O   0  0  0  0  0  0  0  0  0  0  0  0
   23.8700  -31.2823    5.8777 N   0  0  0  0  0  0  0  0  0  0  0  0
   23.5431  -30.3787    7.0338 C   0  0  1  0  0  0  0  0  0  0  0  0
   22.0544  -30.4650    7.1057 C   0  0  0  0  0  0  0  0  0  0  0  0
   21.3369  -29.6038    6.1704 C   0  0  0  0  0  0  0  0  0  0  0  0
   20.8163  -30.1008    4.9476 C   0  0  0  0  0  0  0  0  0  0  0  0
   20.2045  -29.1215    4.2713 N   0  0  0  0  0  0  0  0  0  0  0  0
   20.3160  -28.0156    5.0198 C   0  0  0  0  0  0  0  0  0  0  0  0
   20.9873  -28.3195    6.1367 N   0  0  0  0  0  0  0  0  0  0  0  0
   24.2644  -30.8796    8.2009 C   0  0  0  0  0  0  0  0  0  0  0  0
   24.3113  -32.1480    8.3551 O   0  0  0  0  0  0  0  0  0  0  0  0
   26.2691  -33.4503    9.8075 N   0  0  0  0  0  0  0  0  0  0  0  0
   27.2101  -32.4033    9.6509 C   0  0  0  0  0  0  0  0  0  0  0  0
   28.4030  -32.7071    9.2922 O   0  0  0  0  0  0  0  0  0  0  0  0
   26.9659  -30.9758    9.8568 C   0  0  0  0  0  0  0  0  0  0  0  0
   25.6111  -30.5910   10.3149 C   0  0  2  0  0  0  0  0  0  0  0  0
   24.9006  -30.0714    9.1379 N   0  0  0  0  0  0  0  0  0  0  0  0
   25.5645  -29.5730   11.3843 C   0  0  0  0  0  0  0  0  0  0  0  0
   25.1503  -28.2623   11.2222 O   0  0  0  0  0  0  0  0  0  0  0  0
   25.9256  -29.9010   12.5430 O   0  0  0  0  0  0  0  0  0  0  0  0
  2  3  2  0
  2  1  1  0
  4  2  1  0
  5  4  1  0
  5  6  1  0
  6  7  1  6
  6  8  1  0
  8  9  2  0
 10  8  1  0
 10 11  1  0
 11 12  1  1
 13 12  1  0
 14 13  2  0
 15 16  1  0
 15 14  1  0
 16 17  2  0
 17 13  1  0
 18 11  1  0
 18 19  2  0
 20 21  1  0
 21 23  1  0
 21 22  2  0
 24 23  1  6
 24 25  1  0
 24 26  1  0
 25 18  1  0
 26 27  1  0
 28 26  2  0
M  END
$$$$
