QHN.pdb
     RDKit          3D

 28 28  0  0  1  0  0  0  0  0999 V2000
   17.6406  -14.3808  -19.7811 N   0  0  0  0  0  0  0  0  0  0  0  0
   17.5478  -13.0118  -19.3885 C   0  0  0  0  0  0  0  0  0  0  0  0
   16.4606  -12.5608  -18.9564 O   0  0  0  0  0  0  0  0  0  0  0  0
   18.7168  -12.1202  -19.4825 C   0  0  0  0  0  0  0  0  0  0  0  0
   18.7547  -11.1700  -18.3413 C   0  0  0  0  0  0  0  0  0  0  0  0
   19.9216  -10.2354  -18.4772 C   0  0  2  0  0  0  0  0  0  0  0  0
   21.1265  -11.0699  -18.4777 N   0  0  0  0  0  0  0  0  0  0  0  0
   20.0125   -9.3371  -17.2865 C   0  0  0  0  0  0  0  0  0  0  0  0
   19.1203   -9.5333  -16.3959 O   0  0  0  0  0  0  0  0  0  0  0  0
   21.0082   -8.3524  -17.1631 N   0  0  0  0  0  0  0  0  0  0  0  0
   20.9104   -7.4526  -15.9629 C   0  0  1  0  0  0  0  0  0  0  0  0
   22.3000   -7.4821  -15.4179 C   0  0  0  0  0  0  0  0  0  0  0  0
   22.6591   -8.7009  -14.6991 C   0  0  0  0  0  0  0  0  0  0  0  0
   21.7423   -9.7725  -14.5428 C   0  0  0  0  0  0  0  0  0  0  0  0
   22.3071  -10.7695  -13.8516 N   0  0  0  0  0  0  0  0  0  0  0  0
   23.5533  -10.3721  -13.5607 C   0  0  0  0  0  0  0  0  0  0  0  0
   23.7430   -9.1489  -14.0689 N   0  0  0  0  0  0  0  0  0  0  0  0
   20.4388   -6.1504  -16.4268 C   0  0  0  0  0  0  0  0  0  0  0  0
   20.7753   -5.7976  -17.6087 O   0  0  0  0  0  0  0  0  0  0  0  0
   17.6435   -1.8569  -17.6016 N   0  0  0  0  0  0  0  0  0  0  0  0
   17.6765   -3.1994  -18.0523 C   0  0  0  0  0  0  0  0  0  0  0  0
   17.0363   -3.4969  -19.1225 O   0  0  0  0  0  0  0  0  0  0  0  0
   18.3795   -4.3136  -17.4167 C   0  0  0  0  0  0  0  0  0  0  0  0
   19.1309   -4.0073  -16.1777 C   0  0  2  0  0  0  0  0  0  0  0  0
   19.6505   -5.2862  -15.6734 N   0  0  0  0  0  0  0  0  0  0  0  0
   18.3528   -3.3555  -15.1044 C   0  0  0  0  0  0  0  0  0  0  0  0
   18.0314   -3.9318  -13.8877 O   0  0  0  0  0  0  0  0  0  0  0  0
   17.9386   -2.1830  -15.2889 O   0  0  0  0  0  0  0  0  0  0  0  0
  2  3  2  0
  2  1  1  0
  4  2  1  0
  5  4  1  0
  5  6  1  0
  6  7  1  1
  6  8  1  0
  8  9  2  0
 10  8  1  0
 10 11  1  0
 11 12  1  6
 13 12  1  0
 14 13  2  0
 15 16  1  0
 15 14  1  0
 16 17  2  0
 17 13  1  0
 18 11  1  0
 18 19  2  0
 20 21  1  0
 21 23  1  0
 21 22  2  0
 24 23  1  6
 24 25  1  0
 24 26  1  0
 25 18  1  0
 26 27  1  0
 28 26  2  0
M  END
$$$$
