QHN.pdb
     RDKit          3D

 28 28  0  0  1  0  0  0  0  0999 V2000
   17.6897  -14.3504  -16.0001 N   0  0  0  0  0  0  0  0  0  0  0  0
   18.4789  -15.2040  -16.8282 C   0  0  0  0  0  0  0  0  0  0  0  0
   17.9740  -16.2475  -17.3059 O   0  0  0  0  0  0  0  0  0  0  0  0
   19.8819  -14.8724  -17.1312 C   0  0  0  0  0  0  0  0  0  0  0  0
   20.2939  -13.6219  -16.4430 C   0  0  0  0  0  0  0  0  0  0  0  0
   21.2026  -12.8148  -17.3242 C   0  0  2  0  0  0  0  0  0  0  0  0
   22.4028  -13.6275  -17.5415 N   0  0  0  0  0  0  0  0  0  0  0  0
   21.6390  -11.5696  -16.6230 C   0  0  0  0  0  0  0  0  0  0  0  0
   21.3541  -11.5246  -15.3802 O   0  0  0  0  0  0  0  0  0  0  0  0
   22.3123  -10.5300  -17.2881 N   0  0  0  0  0  0  0  0  0  0  0  0
   22.6816   -9.3348  -16.4545 C   0  0  1  0  0  0  0  0  0  0  0  0
   24.0590   -9.0150  -16.9334 C   0  0  0  0  0  0  0  0  0  0  0  0
   25.1196   -9.8476  -16.3737 C   0  0  0  0  0  0  0  0  0  0  0  0
   24.8401  -10.9019  -15.4662 C   0  0  0  0  0  0  0  0  0  0  0  0
   25.9734  -11.5125  -15.1007 N   0  0  0  0  0  0  0  0  0  0  0  0
   26.9677  -10.8848  -15.7434 C   0  0  0  0  0  0  0  0  0  0  0  0
   26.4447   -9.9052  -16.4898 N   0  0  0  0  0  0  0  0  0  0  0  0
   21.6731   -8.3051  -16.6911 C   0  0  0  0  0  0  0  0  0  0  0  0
   21.3984   -8.0294  -17.9090 O   0  0  0  0  0  0  0  0  0  0  0  0
   17.2494   -5.5579  -16.5108 N   0  0  0  0  0  0  0  0  0  0  0  0
   17.5828   -6.2452  -15.3180 C   0  0  0  0  0  0  0  0  0  0  0  0
   16.6731   -6.3914  -14.4264 O   0  0  0  0  0  0  0  0  0  0  0  0
   18.8836   -6.8236  -14.9815 C   0  0  0  0  0  0  0  0  0  0  0  0
   19.9868   -6.5850  -15.9404 C   0  0  2  0  0  0  0  0  0  0  0  0
   20.9977   -7.6209  -15.6853 N   0  0  0  0  0  0  0  0  0  0  0  0
   20.6335   -5.2598  -15.8519 C   0  0  0  0  0  0  0  0  0  0  0  0
   20.2385   -4.1300  -16.5472 O   0  0  0  0  0  0  0  0  0  0  0  0
   21.6243   -5.1237  -15.0902 O   0  0  0  0  0  0  0  0  0  0  0  0
  2  3  2  0
  2  1  1  0
  4  2  1  0
  5  4  1  0
  5  6  1  0
  6  7  1  1
  6  8  1  0
  8  9  2  0
 10  8  1  0
 10 11  1  0
 11 12  1  6
 13 12  1  0
 14 13  2  0
 15 16  1  0
 15 14  1  0
 16 17  2  0
 17 13  1  0
 18 11  1  0
 18 19  2  0
 20 21  1  0
 21 23  1  0
 21 22  2  0
 24 23  1  1
 24 25  1  0
 24 26  1  0
 25 18  1  0
 26 27  1  0
 28 26  2  0
M  END
$$$$
