QHN.pdb
     RDKit          3D

 28 28  0  0  1  0  0  0  0  0999 V2000
   27.9490  -27.0541  -17.5761 N   0  0  0  0  0  0  0  0  0  0  0  0
   26.6351  -27.0896  -18.1323 C   0  0  0  0  0  0  0  0  0  0  0  0
   26.4063  -27.7953  -19.1431 O   0  0  0  0  0  0  0  0  0  0  0  0
   25.5411  -26.3073  -17.5310 C   0  0  0  0  0  0  0  0  0  0  0  0
   26.0128  -25.5662  -16.3330 C   0  0  0  0  0  0  0  0  0  0  0  0
   26.4788  -24.1920  -16.7178 C   0  0  2  0  0  0  0  0  0  0  0  0
   27.9142  -24.1414  -16.4262 N   0  0  0  0  0  0  0  0  0  0  0  0
   25.8220  -23.1590  -15.8609 C   0  0  0  0  0  0  0  0  0  0  0  0
   24.8658  -23.5913  -15.1354 O   0  0  0  0  0  0  0  0  0  0  0  0
   26.2316  -21.8141  -15.8589 N   0  0  0  0  0  0  0  0  0  0  0  0
   25.5493  -20.9112  -14.8695 C   0  0  1  0  0  0  0  0  0  0  0  0
   26.5110  -19.7762  -14.7450 C   0  0  0  0  0  0  0  0  0  0  0  0
   27.4866  -19.6678  -15.8256 C   0  0  0  0  0  0  0  0  0  0  0  0
   27.5528  -20.6263  -16.8698 C   0  0  0  0  0  0  0  0  0  0  0  0
   28.5236  -20.3057  -17.7333 N   0  0  0  0  0  0  0  0  0  0  0  0
   29.0801  -19.1753  -17.2770 C   0  0  0  0  0  0  0  0  0  0  0  0
   28.4551  -18.8140  -16.1504 N   0  0  0  0  0  0  0  0  0  0  0  0
   24.2370  -20.5734  -15.4146 C   0  0  0  0  0  0  0  0  0  0  0  0
   24.1211  -20.5650  -16.6878 O   0  0  0  0  0  0  0  0  0  0  0  0
   19.1335  -20.0068  -16.5327 N   0  0  0  0  0  0  0  0  0  0  0  0
   20.0419  -21.0925  -16.5831 C   0  0  0  0  0  0  0  0  0  0  0  0
   19.6805  -22.1590  -17.1961 O   0  0  0  0  0  0  0  0  0  0  0  0
   21.3826  -21.1331  -15.9996 C   0  0  0  0  0  0  0  0  0  0  0  0
   21.8000  -19.9539  -15.2067 C   0  0  2  0  0  0  0  0  0  0  0  0
   23.1195  -20.2716  -14.6426 N   0  0  0  0  0  0  0  0  0  0  0  0
   20.8929  -19.5724  -14.1050 C   0  0  0  0  0  0  0  0  0  0  0  0
   19.7868  -18.7496  -14.2293 O   0  0  0  0  0  0  0  0  0  0  0  0
   21.1249  -20.0189  -12.9529 O   0  0  0  0  0  0  0  0  0  0  0  0
  2  3  2  0
  2  1  1  0
  4  2  1  0
  5  4  1  0
  5  6  1  0
  6  7  1  1
  6  8  1  0
  8  9  2  0
 10  8  1  0
 10 11  1  0
 11 12  1  6
 13 12  1  0
 14 13  2  0
 15 16  1  0
 15 14  1  0
 16 17  2  0
 17 13  1  0
 18 11  1  0
 18 19  2  0
 20 21  1  0
 21 23  1  0
 21 22  2  0
 24 23  1  1
 24 25  1  0
 24 26  1  0
 25 18  1  0
 26 27  1  0
 28 26  2  0
M  END
$$$$
