QHN.pdb
     RDKit          3D

 28 28  0  0  1  0  0  0  0  0999 V2000
   16.9717  -12.1174  -18.4573 N   0  0  0  0  0  0  0  0  0  0  0  0
   18.1375  -12.0730  -19.2795 C   0  0  0  0  0  0  0  0  0  0  0  0
   18.2713  -12.8979  -20.2141 O   0  0  0  0  0  0  0  0  0  0  0  0
   19.1870  -11.0662  -19.0446 C   0  0  0  0  0  0  0  0  0  0  0  0
   18.8120  -10.1561  -17.9320 C   0  0  0  0  0  0  0  0  0  0  0  0
   19.6710  -10.4187  -16.7291 C   0  0  2  0  0  0  0  0  0  0  0  0
   19.1498  -11.6367  -16.1023 N   0  0  0  0  0  0  0  0  0  0  0  0
   19.5234   -9.3162  -15.7315 C   0  0  0  0  0  0  0  0  0  0  0  0
   18.3261   -9.0905  -15.3530 O   0  0  0  0  0  0  0  0  0  0  0  0
   20.6246   -8.5867  -15.2501 N   0  0  0  0  0  0  0  0  0  0  0  0
   20.3279   -7.5376  -14.2152 C   0  0  1  0  0  0  0  0  0  0  0  0
   20.4855   -8.2879  -12.9342 C   0  0  0  0  0  0  0  0  0  0  0  0
   19.2536   -8.8494  -12.3881 C   0  0  0  0  0  0  0  0  0  0  0  0
   17.9970   -8.6401  -13.0131 C   0  0  0  0  0  0  0  0  0  0  0  0
   17.0279   -9.2544  -12.3244 N   0  0  0  0  0  0  0  0  0  0  0  0
   17.6218   -9.8492  -11.2807 C   0  0  0  0  0  0  0  0  0  0  0  0
   18.9351   -9.5991  -11.3349 N   0  0  0  0  0  0  0  0  0  0  0  0
   21.2644   -6.4364  -14.4243 C   0  0  0  0  0  0  0  0  0  0  0  0
   22.4401   -6.7411  -14.8236 O   0  0  0  0  0  0  0  0  0  0  0  0
   23.7890   -3.0877  -17.7324 N   0  0  0  0  0  0  0  0  0  0  0  0
   23.3167   -3.1931  -16.4012 C   0  0  0  0  0  0  0  0  0  0  0  0
   23.7390   -2.3446  -15.5377 O   0  0  0  0  0  0  0  0  0  0  0  0
   22.3745   -4.1876  -15.8884 C   0  0  0  0  0  0  0  0  0  0  0  0
   21.8894   -3.9932  -14.5026 C   0  0  2  0  0  0  0  0  0  0  0  0
   20.9563   -5.0943  -14.2249 N   0  0  0  0  0  0  0  0  0  0  0  0
   21.2020   -2.7121  -14.2411 C   0  0  0  0  0  0  0  0  0  0  0  0
   21.8156   -1.5506  -13.8048 O   0  0  0  0  0  0  0  0  0  0  0  0
   19.9597   -2.6482  -14.4225 O   0  0  0  0  0  0  0  0  0  0  0  0
  2  3  2  0
  2  1  1  0
  4  2  1  0
  5  4  1  0
  5  6  1  0
  6  7  1  1
  6  8  1  0
  8  9  2  0
 10  8  1  0
 10 11  1  0
 11 12  1  1
 13 12  1  0
 14 13  2  0
 15 16  1  0
 15 14  1  0
 16 17  2  0
 17 13  1  0
 18 11  1  0
 18 19  2  0
 20 21  1  0
 21 23  1  0
 21 22  2  0
 24 23  1  6
 24 25  1  0
 24 26  1  0
 25 18  1  0
 26 27  1  0
 28 26  2  0
M  END
$$$$
