MKD.pdb
     RDKit          3D

 26 25  0  0  1  0  0  0  0  0999 V2000
   29.0276  -18.6882   -4.9619 C   0  0  0  0  0  0  0  0  0  0  0  0
   28.1643  -20.0078   -5.8141 S   0  0  0  0  0  0  0  0  0  0  0  0
   27.4655  -19.5288   -7.3830 C   0  0  0  0  0  0  0  0  0  0  0  0
   26.7622  -20.6159   -8.1050 C   0  0  0  0  0  0  0  0  0  0  0  0
   26.2599  -20.2518   -9.4641 C   0  0  2  0  0  0  0  0  0  0  0  0
   25.9672  -18.8282   -9.5756 N   0  0  0  0  0  0  0  0  0  0  0  0
   24.9981  -20.9944   -9.6801 C   0  0  0  0  0  0  0  0  0  0  0  0
   25.0003  -22.2376   -9.6655 O   0  0  0  0  0  0  0  0  0  0  0  0
   23.7969  -20.2942   -9.9018 N   0  0  0  0  0  0  0  0  0  0  0  0
   22.7444  -20.9582  -10.6746 C   0  0  1  0  0  0  0  0  0  0  0  0
   21.5206  -20.9549   -9.8199 C   0  0  0  0  0  0  0  0  0  0  0  0
   20.9705  -22.3108   -9.5686 C   0  0  0  0  0  0  0  0  0  0  0  0
   19.6740  -22.2323   -8.7683 C   0  0  0  0  0  0  0  0  0  0  0  0
   19.2735  -23.6823   -8.4805 C   0  0  0  0  0  0  0  0  0  0  0  0
   18.0977  -23.7310   -7.6323 N   0  0  0  0  0  0  0  0  0  0  0  0
   22.5178  -20.2604  -11.9437 C   0  0  0  0  0  0  0  0  0  0  0  0
   22.6852  -19.0241  -12.0097 O   0  0  0  0  0  0  0  0  0  0  0  0
   22.1124  -20.9707  -13.0931 N   0  0  0  0  0  0  0  0  0  0  0  0
   21.9537  -20.3300  -14.3713 C   0  0  1  0  0  0  0  0  0  0  0  0
   22.9068  -20.9107  -15.3917 C   0  0  0  0  0  0  0  0  0  0  0  0
   22.5898  -20.3338  -16.7233 C   0  0  0  0  0  0  0  0  0  0  0  0
   21.4292  -20.3923  -17.2012 O   0  0  0  0  0  0  0  0  0  0  0  0
   20.5399  -20.4465  -14.8163 C   0  0  0  0  0  0  0  0  0  0  0  0
   19.8796  -19.4125  -15.4446 O   0  0  0  0  0  0  0  0  0  0  0  0
   23.6231  -19.7270  -17.4214 O   0  0  0  0  0  0  0  0  0  0  0  0
   19.9190  -21.5132  -14.6195 O   0  0  0  0  0  0  0  0  0  0  0  0
  2  1  1  0
  3  4  1  0
  3  2  1  0
  4  5  1  0
  5  6  1  1
  7  5  1  0
  7  8  2  0
  9  7  1  0
 10  9  1  0
 10 11  1  1
 11 12  1  0
 12 13  1  0
 13 14  1  0
 14 15  1  0
 16 10  1  0
 17 16  2  0
 18 16  1  0
 19 20  1  6
 19 18  1  0
 20 21  1  0
 21 25  1  0
 21 22  2  0
 23 19  1  0
 24 23  1  0
 26 23  2  0
M  END
$$$$
