MKD.pdb
     RDKit          3D

 26 25  0  0  1  0  0  0  0  0999 V2000
   17.0487  -18.0009  -15.5209 C   0  0  0  0  0  0  0  0  0  0  0  0
   16.3036  -16.4164  -15.1376 S   0  0  0  0  0  0  0  0  0  0  0  0
   16.5741  -15.1637  -16.3774 C   0  0  0  0  0  0  0  0  0  0  0  0
   15.9081  -13.8679  -16.1036 C   0  0  0  0  0  0  0  0  0  0  0  0
   16.7622  -12.8484  -15.4231 C   0  0  2  0  0  0  0  0  0  0  0  0
   17.4532  -13.3995  -14.2640 N   0  0  0  0  0  0  0  0  0  0  0  0
   15.8664  -11.7700  -14.9490 C   0  0  0  0  0  0  0  0  0  0  0  0
   15.1305  -11.1758  -15.7560 O   0  0  0  0  0  0  0  0  0  0  0  0
   15.8473  -11.4173  -13.5861 N   0  0  0  0  0  0  0  0  0  0  0  0
   15.0129  -10.2844  -13.1786 C   0  0  1  0  0  0  0  0  0  0  0  0
   14.4944  -10.6043  -11.8160 C   0  0  0  0  0  0  0  0  0  0  0  0
   13.5614   -9.5802  -11.2822 C   0  0  0  0  0  0  0  0  0  0  0  0
   13.1481   -9.9134   -9.8518 C   0  0  0  0  0  0  0  0  0  0  0  0
   12.3036   -8.7279   -9.3753 C   0  0  0  0  0  0  0  0  0  0  0  0
   11.8416   -8.9405   -8.0167 N   0  0  0  0  0  0  0  0  0  0  0  0
   15.7917   -9.0425  -13.1816 C   0  0  0  0  0  0  0  0  0  0  0  0
   17.0136   -9.0765  -12.9229 O   0  0  0  0  0  0  0  0  0  0  0  0
   15.1759   -7.8075  -13.4740 N   0  0  0  0  0  0  0  0  0  0  0  0
   15.9323   -6.5938  -13.6290 C   0  0  1  0  0  0  0  0  0  0  0  0
   16.9775   -6.7403  -14.7122 C   0  0  0  0  0  0  0  0  0  0  0  0
   17.6507   -5.4304  -14.9059 C   0  0  0  0  0  0  0  0  0  0  0  0
   17.7395   -4.5966  -13.9701 O   0  0  0  0  0  0  0  0  0  0  0  0
   15.0096   -5.4624  -13.9101 C   0  0  0  0  0  0  0  0  0  0  0  0
   15.1428   -4.2354  -13.2964 O   0  0  0  0  0  0  0  0  0  0  0  0
   18.1787   -5.1603  -16.1596 O   0  0  0  0  0  0  0  0  0  0  0  0
   14.0779   -5.6174  -14.7285 O   0  0  0  0  0  0  0  0  0  0  0  0
  2  1  1  0
  3  4  1  0
  3  2  1  0
  4  5  1  0
  5  6  1  1
  7  5  1  0
  7  8  2  0
  9  7  1  0
 10  9  1  0
 10 11  1  1
 11 12  1  0
 12 13  1  0
 13 14  1  0
 14 15  1  0
 16 10  1  0
 17 16  2  0
 18 16  1  0
 19 20  1  6
 19 18  1  0
 20 21  1  0
 21 25  1  0
 21 22  2  0
 23 19  1  0
 24 23  1  0
 26 23  2  0
M  END
$$$$
