MKD.pdb
     RDKit          3D

 26 25  0  0  1  0  0  0  0  0999 V2000
   13.2352  -29.1551  -17.2851 C   0  0  0  0  0  0  0  0  0  0  0  0
   13.3708  -30.9422  -17.2616 S   0  0  0  0  0  0  0  0  0  0  0  0
   14.8008  -31.5541  -16.3897 C   0  0  0  0  0  0  0  0  0  0  0  0
   15.5635  -30.5206  -15.6497 C   0  0  0  0  0  0  0  0  0  0  0  0
   16.8570  -30.9859  -15.0646 C   0  0  2  0  0  0  0  0  0  0  0  0
   16.6701  -31.6398  -13.7754 N   0  0  0  0  0  0  0  0  0  0  0  0
   17.6987  -29.7877  -14.8496 C   0  0  0  0  0  0  0  0  0  0  0  0
   17.6506  -29.1829  -13.7644 O   0  0  0  0  0  0  0  0  0  0  0  0
   18.5527  -29.3331  -15.8726 N   0  0  0  0  0  0  0  0  0  0  0  0
   19.3448  -28.1262  -15.6239 C   0  0  1  0  0  0  0  0  0  0  0  0
   20.5563  -28.2247  -16.4904 C   0  0  0  0  0  0  0  0  0  0  0  0
   21.4601  -27.0521  -16.3795 C   0  0  0  0  0  0  0  0  0  0  0  0
   22.6853  -27.2230  -17.2726 C   0  0  0  0  0  0  0  0  0  0  0  0
   23.5222  -25.9551  -17.0788 C   0  0  0  0  0  0  0  0  0  0  0  0
   24.6465  -25.9376  -17.9954 N   0  0  0  0  0  0  0  0  0  0  0  0
   18.5621  -26.9241  -15.9257 C   0  0  0  0  0  0  0  0  0  0  0  0
   17.9612  -26.8334  -17.0173 O   0  0  0  0  0  0  0  0  0  0  0  0
   18.4795  -25.8668  -14.9954 N   0  0  0  0  0  0  0  0  0  0  0  0
   17.7675  -24.6502  -15.2821 C   0  0  1  0  0  0  0  0  0  0  0  0
   16.3936  -24.6635  -14.6502 C   0  0  0  0  0  0  0  0  0  0  0  0
   15.7129  -23.3804  -14.9614 C   0  0  0  0  0  0  0  0  0  0  0  0
   15.1812  -23.1777  -16.0817 O   0  0  0  0  0  0  0  0  0  0  0  0
   18.5676  -23.4835  -14.8247 C   0  0  0  0  0  0  0  0  0  0  0  0
   18.3346  -22.2059  -15.2867 O   0  0  0  0  0  0  0  0  0  0  0  0
   15.6852  -22.4122  -13.9688 O   0  0  0  0  0  0  0  0  0  0  0  0
   19.4850  -23.6547  -13.9934 O   0  0  0  0  0  0  0  0  0  0  0  0
  2  1  1  0
  3  4  1  0
  3  2  1  0
  4  5  1  0
  5  6  1  1
  7  5  1  0
  7  8  2  0
  9  7  1  0
 10  9  1  0
 10 11  1  6
 11 12  1  0
 12 13  1  0
 13 14  1  0
 14 15  1  0
 16 10  1  0
 17 16  2  0
 18 16  1  0
 19 20  1  1
 19 18  1  0
 20 21  1  0
 21 25  1  0
 21 22  2  0
 23 19  1  0
 24 23  1  0
 26 23  2  0
M  END
$$$$
