MKD.pdb
     RDKit          3D

 26 25  0  0  1  0  0  0  0  0999 V2000
   25.2158  -14.3954  -14.3514 C   0  0  0  0  0  0  0  0  0  0  0  0
   24.5206  -15.3908  -15.6699 S   0  0  0  0  0  0  0  0  0  0  0  0
   25.0273  -14.8926  -17.3053 C   0  0  0  0  0  0  0  0  0  0  0  0
   24.6476  -13.5084  -17.6760 C   0  0  0  0  0  0  0  0  0  0  0  0
   23.2771  -13.0925  -17.2511 C   0  0  2  0  0  0  0  0  0  0  0  0
   22.2395  -13.8835  -17.9010 N   0  0  0  0  0  0  0  0  0  0  0  0
   23.0985  -11.6819  -17.6617 C   0  0  0  0  0  0  0  0  0  0  0  0
   23.8904  -10.8133  -17.2562 O   0  0  0  0  0  0  0  0  0  0  0  0
   22.0336  -11.3238  -18.5101 N   0  0  0  0  0  0  0  0  0  0  0  0
   21.8457   -9.9043  -18.8193 C   0  0  1  0  0  0  0  0  0  0  0  0
   20.8344   -9.8362  -19.9151 C   0  0  0  0  0  0  0  0  0  0  0  0
   20.6278   -8.4650  -20.4455 C   0  0  0  0  0  0  0  0  0  0  0  0
   19.6115   -8.4691  -21.5834 C   0  0  0  0  0  0  0  0  0  0  0  0
   19.5444   -7.0244  -22.0873 C   0  0  0  0  0  0  0  0  0  0  0  0
   18.6657   -6.9225  -23.2371 N   0  0  0  0  0  0  0  0  0  0  0  0
   21.4021   -9.1714  -17.6297 C   0  0  0  0  0  0  0  0  0  0  0  0
   20.5419   -9.6749  -16.8764 O   0  0  0  0  0  0  0  0  0  0  0  0
   21.9370   -7.9020  -17.3255 N   0  0  0  0  0  0  0  0  0  0  0  0
   21.5125   -7.1492  -16.1755 C   0  0  1  0  0  0  0  0  0  0  0  0
   22.5547   -7.1966  -15.0808 C   0  0  0  0  0  0  0  0  0  0  0  0
   22.0448   -6.4475  -13.9038 C   0  0  0  0  0  0  0  0  0  0  0  0
   21.1168   -6.9043  -13.1904 O   0  0  0  0  0  0  0  0  0  0  0  0
   21.2071   -5.7511  -16.5786 C   0  0  0  0  0  0  0  0  0  0  0  0
   20.2103   -5.0136  -15.9765 O   0  0  0  0  0  0  0  0  0  0  0  0
   22.6311   -5.2231  -13.6201 O   0  0  0  0  0  0  0  0  0  0  0  0
   21.8700   -5.2158  -17.4929 O   0  0  0  0  0  0  0  0  0  0  0  0
  2  1  1  0
  3  4  1  0
  3  2  1  0
  4  5  1  0
  5  6  1  6
  7  5  1  0
  7  8  2  0
  9  7  1  0
 10  9  1  0
 10 11  1  6
 11 12  1  0
 12 13  1  0
 13 14  1  0
 14 15  1  0
 16 10  1  0
 17 16  2  0
 18 16  1  0
 19 20  1  1
 19 18  1  0
 20 21  1  0
 21 25  1  0
 21 22  2  0
 23 19  1  0
 24 23  1  0
 26 23  2  0
M  END
$$$$
