MKD.pdb
     RDKit          3D

 26 25  0  0  1  0  0  0  0  0999 V2000
   28.0573  -19.2475   -5.6458 C   0  0  0  0  0  0  0  0  0  0  0  0
   26.9369  -19.6934   -6.9720 S   0  0  0  0  0  0  0  0  0  0  0  0
   27.7268  -19.8949   -8.5579 C   0  0  0  0  0  0  0  0  0  0  0  0
   26.8282  -19.7187   -9.7237 C   0  0  0  0  0  0  0  0  0  0  0  0
   25.8237  -20.8072   -9.9191 C   0  0  2  0  0  0  0  0  0  0  0  0
   26.4537  -22.1143  -10.0570 N   0  0  0  0  0  0  0  0  0  0  0  0
   25.0989  -20.5161  -11.1762 C   0  0  0  0  0  0  0  0  0  0  0  0
   24.5231  -19.4237  -11.3210 O   0  0  0  0  0  0  0  0  0  0  0  0
   25.0612  -21.4748  -12.2066 N   0  0  0  0  0  0  0  0  0  0  0  0
   24.3459  -21.1348  -13.4389 C   0  0  1  0  0  0  0  0  0  0  0  0
   24.9792  -21.9284  -14.5330 C   0  0  0  0  0  0  0  0  0  0  0  0
   26.3571  -21.4857  -14.8640 C   0  0  0  0  0  0  0  0  0  0  0  0
   26.8748  -22.2019  -16.1077 C   0  0  0  0  0  0  0  0  0  0  0  0
   28.2643  -21.6169  -16.3773 C   0  0  0  0  0  0  0  0  0  0  0  0
   28.9274  -22.3412  -17.4451 N   0  0  0  0  0  0  0  0  0  0  0  0
   22.9182  -21.4403  -13.3078 C   0  0  0  0  0  0  0  0  0  0  0  0
   22.5595  -22.4983  -12.7484 O   0  0  0  0  0  0  0  0  0  0  0  0
   21.9432  -20.5513  -13.8069 N   0  0  0  0  0  0  0  0  0  0  0  0
   20.5348  -20.7811  -13.6255 C   0  0  1  0  0  0  0  0  0  0  0  0
   19.8342  -19.5223  -13.1654 C   0  0  0  0  0  0  0  0  0  0  0  0
   19.9312  -18.5021  -14.2407 C   0  0  0  0  0  0  0  0  0  0  0  0
   18.9034  -18.0268  -14.7851 O   0  0  0  0  0  0  0  0  0  0  0  0
   19.9470  -21.3028  -14.8876 C   0  0  0  0  0  0  0  0  0  0  0  0
   18.6705  -21.8197  -14.9453 O   0  0  0  0  0  0  0  0  0  0  0  0
   21.1998  -18.0922  -14.6229 O   0  0  0  0  0  0  0  0  0  0  0  0
   20.6238  -21.2771  -15.9379 O   0  0  0  0  0  0  0  0  0  0  0  0
  2  1  1  0
  3  4  1  0
  3  2  1  0
  4  5  1  0
  5  6  1  6
  7  5  1  0
  7  8  2  0
  9  7  1  0
 10  9  1  0
 10 11  1  6
 11 12  1  0
 12 13  1  0
 13 14  1  0
 14 15  1  0
 16 10  1  0
 17 16  2  0
 18 16  1  0
 19 20  1  6
 19 18  1  0
 20 21  1  0
 21 25  1  0
 21 22  2  0
 23 19  1  0
 24 23  1  0
 26 23  2  0
M  END
$$$$
