PAQ.pdb
     RDKit          3D

 22 22  0  0  1  0  0  0  0  0999 V2000
   30.0034  -24.8589  -16.5871 N   0  0  0  0  0  0  0  0  0  0  0  0
   29.8360  -26.2161  -17.1452 C   0  0  0  0  0  0  0  0  0  0  0  0
   28.3127  -26.3318  -17.0077 C   0  0  0  0  0  0  0  0  0  0  0  0
   27.8824  -25.0244  -17.6306 C   0  0  0  0  0  0  0  0  0  0  0  0
   29.0148  -24.0800  -17.2596 C   0  0  1  0  0  0  0  0  0  0  0  0
   28.4605  -22.9652  -16.4857 C   0  0  0  0  0  0  0  0  0  0  0  0
   28.3356  -23.0499  -15.2155 O   0  0  0  0  0  0  0  0  0  0  0  0
   27.3275  -19.3703  -17.0325 C   0  0  0  0  0  0  0  0  0  0  0  0
   27.5404  -20.6291  -16.2227 C   0  0  2  0  0  0  0  0  0  0  0  0
   28.0196  -21.7241  -17.0277 N   0  0  0  0  0  0  0  0  0  0  0  0
   26.2872  -20.9373  -15.5145 C   0  0  0  0  0  0  0  0  0  0  0  0
   25.4671  -21.7175  -16.0632 O   0  0  0  0  0  0  0  0  0  0  0  0
   25.1707  -20.7589   -9.3228 N   0  0  0  0  0  0  0  0  0  0  0  0
   23.8293  -20.9080   -9.8008 C   0  0  0  0  0  0  0  0  0  0  0  0
   22.8825  -21.0029   -9.0018 O   0  0  0  0  0  0  0  0  0  0  0  0
   23.6313  -20.9438  -11.2630 C   0  0  0  0  0  0  0  0  0  0  0  0
   24.8602  -20.7181  -12.0669 C   0  0  0  0  0  0  0  0  0  0  0  0
   24.6981  -20.8225  -13.5523 C   0  0  2  0  0  0  0  0  0  0  0  0
   25.9306  -20.4130  -14.2419 N   0  0  0  0  0  0  0  0  0  0  0  0
   23.5935  -19.9907  -14.0708 C   0  0  0  0  0  0  0  0  0  0  0  0
   22.4288  -20.4412  -14.0593 O   0  0  0  0  0  0  0  0  0  0  0  0
   23.8041  -18.7200  -14.5725 O   0  0  0  0  0  0  0  0  0  0  0  0
  2  1  1  0
  3  2  1  0
  4  3  1  0
  4  5  1  0
  5  1  1  0
  5  6  1  1
  6 10  1  0
  7  6  2  0
  9  8  1  6
  9 10  1  0
  9 11  1  0
 11 19  1  0
 12 11  2  0
 14 13  1  0
 14 16  1  0
 15 14  2  0
 17 16  1  0
 18 20  1  0
 18 17  1  1
 19 18  1  0
 20 22  1  0
 21 20  2  0
M  END
$$$$
