PAQ.pdb
     RDKit          3D

 22 22  0  0  1  0  0  0  0  0999 V2000
   30.1358  -23.1111  -17.5868 N   0  0  0  0  0  0  0  0  0  0  0  0
   30.0108  -24.3983  -18.3004 C   0  0  0  0  0  0  0  0  0  0  0  0
   28.6551  -24.8404  -17.7352 C   0  0  0  0  0  0  0  0  0  0  0  0
   27.8441  -23.5854  -17.9584 C   0  0  0  0  0  0  0  0  0  0  0  0
   28.8718  -22.4787  -17.7827 C   0  0  1  0  0  0  0  0  0  0  0  0
   28.4334  -21.6010  -16.6935 C   0  0  0  0  0  0  0  0  0  0  0  0
   28.7362  -21.8654  -15.4792 O   0  0  0  0  0  0  0  0  0  0  0  0
   26.7240  -18.2427  -16.1999 C   0  0  0  0  0  0  0  0  0  0  0  0
   27.2282  -19.5944  -15.7478 C   0  0  2  0  0  0  0  0  0  0  0  0
   27.6605  -20.4151  -16.8506 N   0  0  0  0  0  0  0  0  0  0  0  0
   26.1782  -20.2274  -14.9329 C   0  0  0  0  0  0  0  0  0  0  0  0
   25.4852  -21.1387  -15.4543 O   0  0  0  0  0  0  0  0  0  0  0  0
   25.4316  -19.9320   -8.6229 N   0  0  0  0  0  0  0  0  0  0  0  0
   24.2631  -20.6725   -8.9920 C   0  0  0  0  0  0  0  0  0  0  0  0
   23.4498  -21.0387   -8.1270 O   0  0  0  0  0  0  0  0  0  0  0  0
   24.0771  -20.9745  -10.4247 C   0  0  0  0  0  0  0  0  0  0  0  0
   25.0975  -20.3815  -11.3272 C   0  0  0  0  0  0  0  0  0  0  0  0
   24.8961  -20.6253  -12.7913 C   0  0  2  0  0  0  0  0  0  0  0  0
   25.8856  -19.8817  -13.5852 N   0  0  0  0  0  0  0  0  0  0  0  0
   23.5527  -20.2312  -13.2612 C   0  0  0  0  0  0  0  0  0  0  0  0
   23.3423  -19.0459  -13.5933 O   0  0  0  0  0  0  0  0  0  0  0  0
   22.5105  -21.1352  -13.3476 O   0  0  0  0  0  0  0  0  0  0  0  0
  2  1  1  0
  3  2  1  0
  4  3  1  0
  4  5  1  0
  5  1  1  0
  5  6  1  1
  6 10  1  0
  7  6  2  0
  9  8  1  6
  9 10  1  0
  9 11  1  0
 11 19  1  0
 12 11  2  0
 14 13  1  0
 14 16  1  0
 15 14  2  0
 17 16  1  0
 18 20  1  0
 18 17  1  1
 19 18  1  0
 20 22  1  0
 21 20  2  0
M  END
$$$$
