PAQ.pdb
     RDKit          3D

 22 22  0  0  1  0  0  0  0  0999 V2000
   16.2305  -15.1385    3.9796 N   0  0  0  0  0  0  0  0  0  0  0  0
   15.6518  -15.9148    2.8643 C   0  0  0  0  0  0  0  0  0  0  0  0
   16.9467  -16.2095    2.0968 C   0  0  0  0  0  0  0  0  0  0  0  0
   17.8175  -16.7251    3.2185 C   0  0  0  0  0  0  0  0  0  0  0  0
   17.3338  -15.9289    4.4202 C   0  0  1  0  0  0  0  0  0  0  0  0
   18.4654  -15.1765    4.9698 C   0  0  0  0  0  0  0  0  0  0  0  0
   19.4566  -15.7841    5.5032 O   0  0  0  0  0  0  0  0  0  0  0  0
   19.6706  -11.5786    5.2901 C   0  0  0  0  0  0  0  0  0  0  0  0
   19.6646  -13.0532    5.6235 C   0  0  2  0  0  0  0  0  0  0  0  0
   18.5877  -13.7575    4.9747 N   0  0  0  0  0  0  0  0  0  0  0  0
   19.6466  -13.1929    7.0888 C   0  0  0  0  0  0  0  0  0  0  0  0
   18.5500  -13.4438    7.6518 O   0  0  0  0  0  0  0  0  0  0  0  0
   21.5615  -18.7301   10.3747 N   0  0  0  0  0  0  0  0  0  0  0  0
   21.5863  -17.7223    9.3580 C   0  0  0  0  0  0  0  0  0  0  0  0
   21.7512  -18.0332    8.1664 O   0  0  0  0  0  0  0  0  0  0  0  0
   21.4105  -16.3215    9.7884 C   0  0  0  0  0  0  0  0  0  0  0  0
   21.1549  -15.3559    8.6886 C   0  0  0  0  0  0  0  0  0  0  0  0
   20.9917  -13.9248    9.0998 C   0  0  2  0  0  0  0  0  0  0  0  0
   20.7894  -13.0640    7.9249 N   0  0  0  0  0  0  0  0  0  0  0  0
   22.1548  -13.4038    9.8458 C   0  0  0  0  0  0  0  0  0  0  0  0
   22.3805  -13.8225   11.0004 O   0  0  0  0  0  0  0  0  0  0  0  0
   23.0105  -12.4613    9.3069 O   0  0  0  0  0  0  0  0  0  0  0  0
  2  1  1  0
  3  2  1  0
  4  3  1  0
  4  5  1  0
  5  1  1  0
  5  6  1  6
  6 10  1  0
  7  6  2  0
  9  8  1  1
  9 10  1  0
  9 11  1  0
 11 19  1  0
 12 11  2  0
 14 13  1  0
 14 16  1  0
 15 14  2  0
 17 16  1  0
 18 20  1  0
 18 17  1  6
 19 18  1  0
 20 22  1  0
 21 20  2  0
M  END
$$$$
