PAQ.pdb
     RDKit          3D

 22 22  0  0  1  0  0  0  0  0999 V2000
   19.8368  -12.9906  -16.9604 N   0  0  0  0  0  0  0  0  0  0  0  0
   19.3769  -14.1989  -17.6747 C   0  0  0  0  0  0  0  0  0  0  0  0
   18.6484  -13.5122  -18.8367 C   0  0  0  0  0  0  0  0  0  0  0  0
   19.7079  -12.5313  -19.2815 C   0  0  0  0  0  0  0  0  0  0  0  0
   20.4147  -12.1793  -17.9822 C   0  0  1  0  0  0  0  0  0  0  0  0
   20.3107  -10.7327  -17.7693 C   0  0  0  0  0  0  0  0  0  0  0  0
   20.9699   -9.9157  -18.5001 O   0  0  0  0  0  0  0  0  0  0  0  0
   17.9826   -8.2788  -16.1650 C   0  0  0  0  0  0  0  0  0  0  0  0
   19.3525   -8.6723  -16.6692 C   0  0  2  0  0  0  0  0  0  0  0  0
   19.5072  -10.1010  -16.7774 N   0  0  0  0  0  0  0  0  0  0  0  0
   20.3602   -8.0461  -15.7978 C   0  0  0  0  0  0  0  0  0  0  0  0
   20.7320   -8.6695  -14.7703 O   0  0  0  0  0  0  0  0  0  0  0  0
   24.9198   -4.2629  -17.6937 N   0  0  0  0  0  0  0  0  0  0  0  0
   25.2621   -4.3811  -16.3085 C   0  0  0  0  0  0  0  0  0  0  0  0
   26.3346   -3.9202  -15.8829 O   0  0  0  0  0  0  0  0  0  0  0  0
   24.2957   -5.0660  -15.4280 C   0  0  0  0  0  0  0  0  0  0  0  0
   23.1053   -5.6246  -16.1195 C   0  0  0  0  0  0  0  0  0  0  0  0
   22.0916   -6.2909  -15.2409 C   0  0  2  0  0  0  0  0  0  0  0  0
   20.9514   -6.7747  -16.0335 N   0  0  0  0  0  0  0  0  0  0  0  0
   21.5637   -5.3970  -14.1905 C   0  0  0  0  0  0  0  0  0  0  0  0
   22.1343   -5.3509  -13.0807 O   0  0  0  0  0  0  0  0  0  0  0  0
   20.4511   -4.6023  -14.3936 O   0  0  0  0  0  0  0  0  0  0  0  0
  2  1  1  0
  3  2  1  0
  4  3  1  0
  4  5  1  0
  5  1  1  0
  5  6  1  1
  6 10  1  0
  7  6  2  0
  9  8  1  1
  9 10  1  0
  9 11  1  0
 11 19  1  0
 12 11  2  0
 14 13  1  0
 14 16  1  0
 15 14  2  0
 17 16  1  0
 18 20  1  0
 18 17  1  6
 19 18  1  0
 20 22  1  0
 21 20  2  0
M  END
$$$$
