SEL.pdb
     RDKit          3D

 24 23  0  0  1  0  0  0  0  0999 V2000
   17.4507  -13.2468  -13.8293 O   0  0  0  0  0  0  0  0  0  0  0  0
   17.8148  -11.9259  -14.0829 C   0  0  0  0  0  0  0  0  0  0  0  0
   16.5606  -11.0797  -14.0316 C   0  0  2  0  0  0  0  0  0  0  0  0
   15.7627  -11.3398  -15.2034 N   0  0  0  0  0  0  0  0  0  0  0  0
   16.9798   -9.6541  -14.0491 C   0  0  0  0  0  0  0  0  0  0  0  0
   17.2544   -9.1260  -15.1799 O   0  0  0  0  0  0  0  0  0  0  0  0
   17.0657   -8.9245  -12.8461 N   0  0  0  0  0  0  0  0  0  0  0  0
   17.4319   -7.5376  -12.7497 C   0  0  1  0  0  0  0  0  0  0  0  0
   16.8195   -6.7822  -11.6297 C   0  0  0  0  0  0  0  0  0  0  0  0
   17.2928   -7.2298  -10.2664 C   0  0  0  0  0  0  0  0  0  0  0  0
   16.7810   -6.3056   -9.2080 C   0  0  0  0  0  0  0  0  0  0  0  0
   15.5417   -6.2208   -9.0091 O   0  0  0  0  0  0  0  0  0  0  0  0
   18.9077   -7.3036  -12.9033 C   0  0  0  0  0  0  0  0  0  0  0  0
   19.7370   -7.9735  -12.2493 O   0  0  0  0  0  0  0  0  0  0  0  0
   17.6588   -5.5478   -8.4519 O   0  0  0  0  0  0  0  0  0  0  0  0
   22.4569   -5.5722  -17.4481 C   0  0  0  0  0  0  0  0  0  0  0  0
   22.4412   -5.9074  -15.9872 C   0  0  2  0  0  0  0  0  0  0  0  0
   23.4355   -6.9510  -15.5902 C   0  0  0  0  0  0  0  0  0  0  0  0
   21.0919   -6.1148  -15.4211 C   0  0  0  0  0  0  0  0  0  0  0  0
   20.8962   -6.1563  -13.9620 C   0  0  2  0  0  0  0  0  0  0  0  0
   19.4242   -6.3307  -13.7803 N   0  0  0  0  0  0  0  0  0  0  0  0
   21.3347   -4.9513  -13.2724 C   0  0  0  0  0  0  0  0  0  0  0  0
   20.5014   -3.9859  -13.1982 O   0  0  0  0  0  0  0  0  0  0  0  0
   22.5459   -4.7239  -12.6792 O   0  0  0  0  0  0  0  0  0  0  0  0
  2  3  1  0
  2  1  1  0
  3  4  1  6
  5  3  1  0
  5  6  2  0
  7  5  1  0
  8  7  1  0
  8 13  1  0
  8  9  1  1
 10  9  1  0
 10 11  1  0
 11 12  2  0
 13 21  1  0
 14 13  2  0
 15 11  1  0
 17 18  1  6
 17 16  1  0
 19 17  1  0
 20 19  1  6
 21 20  1  0
 22 24  1  0
 22 20  1  0
 23 22  2  0
M  END
$$$$
