SEL.pdb
     RDKit          3D

 24 23  0  0  1  0  0  0  0  0999 V2000
   28.0219  -19.5972  -15.8443 O   0  0  0  0  0  0  0  0  0  0  0  0
   27.9873  -20.8199  -15.1768 C   0  0  0  0  0  0  0  0  0  0  0  0
   27.3998  -21.8482  -16.1198 C   0  0  2  0  0  0  0  0  0  0  0  0
   28.1227  -21.8187  -17.3664 N   0  0  0  0  0  0  0  0  0  0  0  0
   25.9881  -21.4639  -16.3800 C   0  0  0  0  0  0  0  0  0  0  0  0
   25.7295  -20.8363  -17.4626 O   0  0  0  0  0  0  0  0  0  0  0  0
   24.9804  -21.7906  -15.4499 N   0  0  0  0  0  0  0  0  0  0  0  0
   23.5963  -21.4225  -15.5739 C   0  0  1  0  0  0  0  0  0  0  0  0
   22.6153  -22.4054  -15.0526 C   0  0  0  0  0  0  0  0  0  0  0  0
   21.1769  -22.0212  -15.3103 C   0  0  0  0  0  0  0  0  0  0  0  0
   20.2537  -23.0628  -14.7636 C   0  0  0  0  0  0  0  0  0  0  0  0
   20.0209  -24.0978  -15.4400 O   0  0  0  0  0  0  0  0  0  0  0  0
   23.3204  -20.0079  -15.1505 C   0  0  0  0  0  0  0  0  0  0  0  0
   23.8889  -19.5122  -14.1529 O   0  0  0  0  0  0  0  0  0  0  0  0
   19.6577  -22.8942  -13.5256 O   0  0  0  0  0  0  0  0  0  0  0  0
   23.7761  -15.1353  -14.6057 C   0  0  0  0  0  0  0  0  0  0  0  0
   24.0922  -15.8118  -15.9054 C   0  0  2  0  0  0  0  0  0  0  0  0
   23.6494  -15.0496  -17.1130 C   0  0  0  0  0  0  0  0  0  0  0  0
   23.7559  -17.2504  -15.9444 C   0  0  0  0  0  0  0  0  0  0  0  0
   22.3924  -17.7041  -15.6221 C   0  0  2  0  0  0  0  0  0  0  0  0
   22.4193  -19.1801  -15.8471 N   0  0  0  0  0  0  0  0  0  0  0  0
   21.3578  -17.1018  -16.4509 C   0  0  0  0  0  0  0  0  0  0  0  0
   20.6772  -16.1516  -15.9352 O   0  0  0  0  0  0  0  0  0  0  0  0
   21.0236  -17.4285  -17.7363 O   0  0  0  0  0  0  0  0  0  0  0  0
  2  3  1  0
  2  1  1  0
  3  4  1  6
  5  3  1  0
  5  6  2  0
  7  5  1  0
  8  7  1  0
  8 13  1  0
  8  9  1  1
 10  9  1  0
 10 11  1  0
 11 12  2  0
 13 21  1  0
 14 13  2  0
 15 11  1  0
 17 18  1  6
 17 16  1  0
 19 17  1  0
 20 19  1  6
 21 20  1  0
 22 24  1  0
 22 20  1  0
 23 22  2  0
M  END
$$$$
