SEL.pdb
     RDKit          3D

 24 23  0  0  1  0  0  0  0  0999 V2000
   21.0988  -19.8365  -11.5255 O   0  0  0  0  0  0  0  0  0  0  0  0
   22.4606  -19.8389  -11.2297 C   0  0  0  0  0  0  0  0  0  0  0  0
   23.2194  -19.9729  -12.5328 C   0  0  2  0  0  0  0  0  0  0  0  0
   22.3646  -20.5818  -13.5208 N   0  0  0  0  0  0  0  0  0  0  0  0
   24.3773  -20.8715  -12.2876 C   0  0  0  0  0  0  0  0  0  0  0  0
   24.2067  -22.1262  -12.4593 O   0  0  0  0  0  0  0  0  0  0  0  0
   25.6163  -20.3376  -11.8793 N   0  0  0  0  0  0  0  0  0  0  0  0
   26.7881  -21.1147  -11.5799 C   0  0  1  0  0  0  0  0  0  0  0  0
   28.0168  -20.7476  -12.3253 C   0  0  0  0  0  0  0  0  0  0  0  0
   27.9272  -21.0132  -13.8101 C   0  0  0  0  0  0  0  0  0  0  0  0
   27.6148  -19.7502  -14.5472 C   0  0  0  0  0  0  0  0  0  0  0  0
   27.7768  -18.6433  -13.9717 O   0  0  0  0  0  0  0  0  0  0  0  0
   27.0083  -21.3092  -10.1068 C   0  0  0  0  0  0  0  0  0  0  0  0
   28.1339  -21.6217   -9.6600 O   0  0  0  0  0  0  0  0  0  0  0  0
   27.1509  -19.7933  -15.8508 O   0  0  0  0  0  0  0  0  0  0  0  0
   27.7340  -21.1137   -5.2500 C   0  0  0  0  0  0  0  0  0  0  0  0
   28.1245  -20.1340   -6.3151 C   0  0  2  0  0  0  0  0  0  0  0  0
   28.5085  -18.7866   -5.7932 C   0  0  0  0  0  0  0  0  0  0  0  0
   27.2084  -20.0923   -7.4741 C   0  0  0  0  0  0  0  0  0  0  0  0
   26.2452  -21.1832   -7.6999 C   0  0  2  0  0  0  0  0  0  0  0  0
   25.9713  -21.1513   -9.1676 N   0  0  0  0  0  0  0  0  0  0  0  0
   24.9969  -21.0308   -6.9660 C   0  0  0  0  0  0  0  0  0  0  0  0
   24.0342  -20.4454   -7.5680 O   0  0  0  0  0  0  0  0  0  0  0  0
   24.7213  -21.4494   -5.6934 O   0  0  0  0  0  0  0  0  0  0  0  0
  2  3  1  0
  2  1  1  0
  3  4  1  6
  5  3  1  0
  5  6  2  0
  7  5  1  0
  8  7  1  0
  8 13  1  0
  8  9  1  1
 10  9  1  0
 10 11  1  0
 11 12  2  0
 13 21  1  0
 14 13  2  0
 15 11  1  0
 17 18  1  1
 17 16  1  0
 19 17  1  0
 20 19  1  6
 21 20  1  0
 22 24  1  0
 22 20  1  0
 23 22  2  0
M  END
$$$$
