SEL.pdb
     RDKit          3D

 24 23  0  0  1  0  0  0  0  0999 V2000
   29.1992  -22.3569  -16.0170 O   0  0  0  0  0  0  0  0  0  0  0  0
   28.6791  -21.6685  -14.9228 C   0  0  0  0  0  0  0  0  0  0  0  0
   27.5014  -20.8489  -15.4058 C   0  0  2  0  0  0  0  0  0  0  0  0
   27.9830  -19.7422  -16.1937 N   0  0  0  0  0  0  0  0  0  0  0  0
   26.8065  -20.3119  -14.2070 C   0  0  0  0  0  0  0  0  0  0  0  0
   27.1964  -19.1863  -13.7446 O   0  0  0  0  0  0  0  0  0  0  0  0
   25.7528  -21.0361  -13.6134 N   0  0  0  0  0  0  0  0  0  0  0  0
   25.0132  -20.6118  -12.4559 C   0  0  1  0  0  0  0  0  0  0  0  0
   23.5422  -20.7882  -12.5267 C   0  0  0  0  0  0  0  0  0  0  0  0
   22.8776  -19.9237  -13.5726 C   0  0  0  0  0  0  0  0  0  0  0  0
   21.3950  -20.1155  -13.5416 C   0  0  0  0  0  0  0  0  0  0  0  0
   20.7032  -19.4501  -12.7283 O   0  0  0  0  0  0  0  0  0  0  0  0
   25.6183  -21.0800  -11.1632 C   0  0  0  0  0  0  0  0  0  0  0  0
   25.8118  -22.2964  -10.9464 O   0  0  0  0  0  0  0  0  0  0  0  0
   20.7845  -21.0162  -14.3975 O   0  0  0  0  0  0  0  0  0  0  0  0
   28.0005  -18.3799   -6.1965 C   0  0  0  0  0  0  0  0  0  0  0  0
   27.7448  -19.7038   -6.8512 C   0  0  2  0  0  0  0  0  0  0  0  0
   28.8443  -20.6994   -6.6633 C   0  0  0  0  0  0  0  0  0  0  0  0
   27.2442  -19.6140   -8.2388 C   0  0  0  0  0  0  0  0  0  0  0  0
   26.3798  -20.6728   -8.7872 C   0  0  2  0  0  0  0  0  0  0  0  0
   25.9931  -20.1836  -10.1441 N   0  0  0  0  0  0  0  0  0  0  0  0
   25.1821  -20.9254   -7.9986 C   0  0  0  0  0  0  0  0  0  0  0  0
   25.3076  -21.6739   -6.9711 O   0  0  0  0  0  0  0  0  0  0  0  0
   23.9203  -20.4474   -8.2221 O   0  0  0  0  0  0  0  0  0  0  0  0
  2  3  1  0
  2  1  1  0
  3  4  1  6
  5  3  1  0
  5  6  2  0
  7  5  1  0
  8  7  1  0
  8 13  1  0
  8  9  1  6
 10  9  1  0
 10 11  1  0
 11 12  2  0
 13 21  1  0
 14 13  2  0
 15 11  1  0
 17 18  1  6
 17 16  1  0
 19 17  1  0
 20 19  1  1
 21 20  1  0
 22 24  1  0
 22 20  1  0
 23 22  2  0
M  END
$$$$
