SEL.pdb
     RDKit          3D

 24 23  0  0  1  0  0  0  0  0999 V2000
   24.1229  -23.5566  -16.0554 O   0  0  0  0  0  0  0  0  0  0  0  0
   23.2233  -24.5804  -16.3458 C   0  0  0  0  0  0  0  0  0  0  0  0
   21.9000  -23.9456  -16.7168 C   0  0  2  0  0  0  0  0  0  0  0  0
   21.7150  -24.0305  -18.1438 N   0  0  0  0  0  0  0  0  0  0  0  0
   21.9659  -22.5122  -16.3306 C   0  0  0  0  0  0  0  0  0  0  0  0
   22.1619  -21.6526  -17.2556 O   0  0  0  0  0  0  0  0  0  0  0  0
   21.8143  -22.1327  -14.9815 N   0  0  0  0  0  0  0  0  0  0  0  0
   21.7666  -20.7757  -14.5093 C   0  0  1  0  0  0  0  0  0  0  0  0
   20.7273  -20.4795  -13.4933 C   0  0  0  0  0  0  0  0  0  0  0  0
   20.2692  -21.6957  -12.7225 C   0  0  0  0  0  0  0  0  0  0  0  0
   18.7789  -21.8097  -12.7669 C   0  0  0  0  0  0  0  0  0  0  0  0
   18.2518  -22.7873  -13.3577 O   0  0  0  0  0  0  0  0  0  0  0  0
   23.1203  -20.2191  -14.1717 C   0  0  0  0  0  0  0  0  0  0  0  0
   23.2683  -19.0075  -13.8989 O   0  0  0  0  0  0  0  0  0  0  0  0
   17.9822  -20.8505  -12.1655 O   0  0  0  0  0  0  0  0  0  0  0  0
   25.3292  -19.6284  -10.9483 C   0  0  0  0  0  0  0  0  0  0  0  0
   25.5182  -21.0500  -11.3843 C   0  0  2  0  0  0  0  0  0  0  0  0
   26.1091  -21.9362  -10.3349 C   0  0  0  0  0  0  0  0  0  0  0  0
   26.1334  -21.2045  -12.7191 C   0  0  0  0  0  0  0  0  0  0  0  0
   25.6205  -20.4378  -13.8671 C   0  0  2  0  0  0  0  0  0  0  0  0
   24.2754  -21.0237  -14.1458 N   0  0  0  0  0  0  0  0  0  0  0  0
   26.4513  -20.5316  -15.0592 C   0  0  0  0  0  0  0  0  0  0  0  0
   25.9208  -21.0473  -16.1006 O   0  0  0  0  0  0  0  0  0  0  0  0
   27.7484  -20.1235  -15.2059 O   0  0  0  0  0  0  0  0  0  0  0  0
  2  3  1  0
  2  1  1  0
  3  4  1  6
  5  3  1  0
  5  6  2  0
  7  5  1  0
  8  7  1  0
  8 13  1  0
  8  9  1  1
 10  9  1  0
 10 11  1  0
 11 12  2  0
 13 21  1  0
 14 13  2  0
 15 11  1  0
 17 18  1  1
 17 16  1  0
 19 17  1  0
 20 19  1  1
 21 20  1  0
 22 24  1  0
 22 20  1  0
 23 22  2  0
M  END
$$$$
