SEL.pdb
     RDKit          3D

 24 23  0  0  1  0  0  0  0  0999 V2000
   16.2136  -29.4854    4.8224 O   0  0  0  0  0  0  0  0  0  0  0  0
   15.6548  -30.1964    3.7622 C   0  0  0  0  0  0  0  0  0  0  0  0
   16.6770  -30.2480    2.6467 C   0  0  2  0  0  0  0  0  0  0  0  0
   17.9167  -30.7734    3.1612 N   0  0  0  0  0  0  0  0  0  0  0  0
   16.9070  -28.8548    2.1838 C   0  0  0  0  0  0  0  0  0  0  0  0
   17.9971  -28.2834    2.5274 O   0  0  0  0  0  0  0  0  0  0  0  0
   15.9414  -28.2014    1.3914 N   0  0  0  0  0  0  0  0  0  0  0  0
   16.1228  -26.9212    0.7631 C   0  0  1  0  0  0  0  0  0  0  0  0
   15.9596  -26.8941   -0.7110 C   0  0  0  0  0  0  0  0  0  0  0  0
   16.1756  -25.5281   -1.3197 C   0  0  0  0  0  0  0  0  0  0  0  0
   15.9062  -25.5646   -2.7901 C   0  0  0  0  0  0  0  0  0  0  0  0
   16.0080  -24.5065   -3.4629 O   0  0  0  0  0  0  0  0  0  0  0  0
   15.4071  -25.8074    1.4727 C   0  0  0  0  0  0  0  0  0  0  0  0
   14.4029  -26.0368    2.1822 O   0  0  0  0  0  0  0  0  0  0  0  0
   15.5473  -26.7493   -3.4099 O   0  0  0  0  0  0  0  0  0  0  0  0
   14.9304  -21.4227    4.3582 C   0  0  0  0  0  0  0  0  0  0  0  0
   14.7734  -22.8894    4.6245 C   0  0  2  0  0  0  0  0  0  0  0  0
   15.1775  -23.3056    6.0025 C   0  0  0  0  0  0  0  0  0  0  0  0
   15.2939  -23.7652    3.5539 C   0  0  0  0  0  0  0  0  0  0  0  0
   15.1377  -23.3839    2.1400 C   0  0  2  0  0  0  0  0  0  0  0  0
   15.8258  -24.4667    1.3757 N   0  0  0  0  0  0  0  0  0  0  0  0
   15.7307  -22.0967    1.8060 C   0  0  0  0  0  0  0  0  0  0  0  0
   16.9518  -22.0970    1.4306 O   0  0  0  0  0  0  0  0  0  0  0  0
   15.1304  -20.8683    1.8389 O   0  0  0  0  0  0  0  0  0  0  0  0
  2  3  1  0
  2  1  1  0
  3  4  1  1
  5  3  1  0
  5  6  2  0
  7  5  1  0
  8  7  1  0
  8 13  1  0
  8  9  1  6
 10  9  1  0
 10 11  1  0
 11 12  2  0
 13 21  1  0
 14 13  2  0
 15 11  1  0
 17 18  1  1
 17 16  1  0
 19 17  1  0
 20 19  1  1
 21 20  1  0
 22 24  1  0
 22 20  1  0
 23 22  2  0
M  END
$$$$
