SEL.pdb
     RDKit          3D

 24 23  0  0  1  0  0  0  0  0999 V2000
   36.5216   -9.6921  -16.9661 O   0  0  0  0  0  0  0  0  0  0  0  0
   35.7174  -10.4247  -16.0952 C   0  0  0  0  0  0  0  0  0  0  0  0
   34.6395  -11.1010  -16.9153 C   0  0  2  0  0  0  0  0  0  0  0  0
   35.2450  -11.7652  -18.0421 N   0  0  0  0  0  0  0  0  0  0  0  0
   33.7291  -10.0411  -17.4214 C   0  0  0  0  0  0  0  0  0  0  0  0
   33.2310  -10.1888  -18.5888 O   0  0  0  0  0  0  0  0  0  0  0  0
   33.4365   -8.9162  -16.6239 N   0  0  0  0  0  0  0  0  0  0  0  0
   32.3897   -7.9680  -16.8919 C   0  0  1  0  0  0  0  0  0  0  0  0
   31.0613   -8.5436  -17.2144 C   0  0  0  0  0  0  0  0  0  0  0  0
   30.4597   -8.0022  -18.4904 C   0  0  0  0  0  0  0  0  0  0  0  0
   29.1300   -8.6355  -18.7489 C   0  0  0  0  0  0  0  0  0  0  0  0
   28.4455   -8.2543  -19.7332 O   0  0  0  0  0  0  0  0  0  0  0  0
   32.3383   -6.8462  -15.8942 C   0  0  0  0  0  0  0  0  0  0  0  0
   32.4605   -7.0681  -14.6694 O   0  0  0  0  0  0  0  0  0  0  0  0
   28.6518   -9.6320  -17.9153 O   0  0  0  0  0  0  0  0  0  0  0  0
   35.2910   -3.5726  -13.9309 C   0  0  0  0  0  0  0  0  0  0  0  0
   35.3206   -4.8152  -14.7686 C   0  0  2  0  0  0  0  0  0  0  0  0
   36.6966   -5.2702  -15.1362 C   0  0  0  0  0  0  0  0  0  0  0  0
   34.3646   -4.8168  -15.8957 C   0  0  0  0  0  0  0  0  0  0  0  0
   32.9661   -4.4063  -15.6847 C   0  0  2  0  0  0  0  0  0  0  0  0
   32.1523   -5.5060  -16.2835 N   0  0  0  0  0  0  0  0  0  0  0  0
   32.6196   -3.1413  -16.3171 C   0  0  0  0  0  0  0  0  0  0  0  0
   32.4188   -3.1557  -17.5786 O   0  0  0  0  0  0  0  0  0  0  0  0
   32.4739   -1.9212  -15.7167 O   0  0  0  0  0  0  0  0  0  0  0  0
  2  3  1  0
  2  1  1  0
  3  4  1  6
  5  3  1  0
  5  6  2  0
  7  5  1  0
  8  7  1  0
  8 13  1  0
  8  9  1  1
 10  9  1  0
 10 11  1  0
 11 12  2  0
 13 21  1  0
 14 13  2  0
 15 11  1  0
 17 18  1  6
 17 16  1  0
 19 17  1  0
 20 19  1  6
 21 20  1  0
 22 24  1  0
 22 20  1  0
 23 22  2  0
M  END
$$$$
