SEL.pdb
     RDKit          3D

 24 23  0  0  1  0  0  0  0  0999 V2000
   16.5484  -14.3283  -14.9829 O   0  0  0  0  0  0  0  0  0  0  0  0
   17.3375  -13.1892  -15.1291 C   0  0  0  0  0  0  0  0  0  0  0  0
   17.0558  -12.6003  -16.4950 C   0  0  2  0  0  0  0  0  0  0  0  0
   17.6532  -13.4362  -17.5060 N   0  0  0  0  0  0  0  0  0  0  0  0
   17.6963  -11.2604  -16.5470 C   0  0  0  0  0  0  0  0  0  0  0  0
   18.9156  -11.1952  -16.9236 O   0  0  0  0  0  0  0  0  0  0  0  0
   16.9652  -10.1097  -16.1884 N   0  0  0  0  0  0  0  0  0  0  0  0
   17.5059   -8.7793  -16.1225 C   0  0  1  0  0  0  0  0  0  0  0  0
   16.5135   -7.6800  -16.0398 C   0  0  0  0  0  0  0  0  0  0  0  0
   17.1289   -6.3016  -16.1067 C   0  0  0  0  0  0  0  0  0  0  0  0
   16.0734   -5.2525  -15.9606 C   0  0  0  0  0  0  0  0  0  0  0  0
   15.8878   -4.4293  -16.8938 O   0  0  0  0  0  0  0  0  0  0  0  0
   18.6378   -8.6489  -15.1435 C   0  0  0  0  0  0  0  0  0  0  0  0
   18.7067   -9.3883  -14.1372 O   0  0  0  0  0  0  0  0  0  0  0  0
   15.3055   -5.1830  -14.8109 O   0  0  0  0  0  0  0  0  0  0  0  0
   23.6323  -10.3890  -15.3152 C   0  0  0  0  0  0  0  0  0  0  0  0
   22.8678   -9.4600  -14.4212 C   0  0  2  0  0  0  0  0  0  0  0  0
   22.8613   -9.8662  -12.9823 C   0  0  0  0  0  0  0  0  0  0  0  0
   21.5427   -9.0625  -14.9408 C   0  0  0  0  0  0  0  0  0  0  0  0
   20.9329   -7.7880  -14.5251 C   0  0  2  0  0  0  0  0  0  0  0  0
   19.6645   -7.6996  -15.3082 N   0  0  0  0  0  0  0  0  0  0  0  0
   21.7590   -6.6206  -14.7986 C   0  0  0  0  0  0  0  0  0  0  0  0
   22.6600   -6.3299  -13.9408 O   0  0  0  0  0  0  0  0  0  0  0  0
   21.6928   -5.7872  -15.8809 O   0  0  0  0  0  0  0  0  0  0  0  0
  2  3  1  0
  2  1  1  0
  3  4  1  6
  5  3  1  0
  5  6  2  0
  7  5  1  0
  8  7  1  0
  8 13  1  0
  8  9  1  1
 10  9  1  0
 10 11  1  0
 11 12  2  0
 13 21  1  0
 14 13  2  0
 15 11  1  0
 17 18  1  1
 17 16  1  0
 19 17  1  0
 20 19  1  6
 21 20  1  0
 22 24  1  0
 22 20  1  0
 23 22  2  0
M  END
$$$$
