SEL.pdb
     RDKit          3D

 24 23  0  0  1  0  0  0  0  0999 V2000
   26.7929  -11.3353  -15.4471 O   0  0  0  0  0  0  0  0  0  0  0  0
   25.6500  -10.5404  -15.5071 C   0  0  0  0  0  0  0  0  0  0  0  0
   24.9652  -10.8093  -16.8301 C   0  0  2  0  0  0  0  0  0  0  0  0
   25.7826  -10.2984  -17.9017 N   0  0  0  0  0  0  0  0  0  0  0  0
   23.6741  -10.0735  -16.8250 C   0  0  0  0  0  0  0  0  0  0  0  0
   23.6606   -8.8873  -17.2998 O   0  0  0  0  0  0  0  0  0  0  0  0
   22.5121  -10.6821  -16.3087 N   0  0  0  0  0  0  0  0  0  0  0  0
   21.2140  -10.0663  -16.2591 C   0  0  1  0  0  0  0  0  0  0  0  0
   20.0617  -10.9927  -16.1407 C   0  0  0  0  0  0  0  0  0  0  0  0
   18.7195  -10.3009  -16.1977 C   0  0  0  0  0  0  0  0  0  0  0  0
   17.6139  -11.2953  -16.0398 C   0  0  0  0  0  0  0  0  0  0  0  0
   17.2957  -12.0247  -17.0143 O   0  0  0  0  0  0  0  0  0  0  0  0
   21.1502   -8.8963  -15.3192 C   0  0  0  0  0  0  0  0  0  0  0  0
   21.5457   -8.9980  -14.1371 O   0  0  0  0  0  0  0  0  0  0  0  0
   16.9433  -11.4156  -14.8347 O   0  0  0  0  0  0  0  0  0  0  0  0
   22.7044   -3.2859  -15.6041 C   0  0  0  0  0  0  0  0  0  0  0  0
   21.8654   -4.2113  -14.7755 C   0  0  2  0  0  0  0  0  0  0  0  0
   22.2463   -4.2503  -13.3302 C   0  0  0  0  0  0  0  0  0  0  0  0
   21.6469   -5.5435  -15.3769 C   0  0  0  0  0  0  0  0  0  0  0  0
   20.6658   -6.4720  -14.7904 C   0  0  2  0  0  0  0  0  0  0  0  0
   20.6481   -7.6426  -15.7175 N   0  0  0  0  0  0  0  0  0  0  0  0
   19.3238   -5.9188  -14.6755 C   0  0  0  0  0  0  0  0  0  0  0  0
   18.5739   -5.9889  -15.7073 O   0  0  0  0  0  0  0  0  0  0  0  0
   18.7556   -5.3297  -13.5798 O   0  0  0  0  0  0  0  0  0  0  0  0
  2  3  1  0
  2  1  1  0
  3  4  1  6
  5  3  1  0
  5  6  2  0
  7  5  1  0
  8  7  1  0
  8 13  1  0
  8  9  1  1
 10  9  1  0
 10 11  1  0
 11 12  2  0
 13 21  1  0
 14 13  2  0
 15 11  1  0
 17 18  1  1
 17 16  1  0
 19 17  1  0
 20 19  1  6
 21 20  1  0
 22 24  1  0
 22 20  1  0
 23 22  2  0
M  END
$$$$
