WYW.pdb
     RDKit          3D

 41 45  0  0  1  0  0  0  0  0999 V2000
   25.5830  -24.5160  -15.4683 N   0  0  0  0  0  0  0  0  0  0  0  0
   26.0287  -23.1943  -15.0532 C   0  0  1  0  0  0  0  0  0  0  0  0
   25.2677  -22.1842  -15.8767 C   0  0  0  0  0  0  0  0  0  0  0  0
   25.6946  -22.1380  -17.2884 C   0  0  0  0  0  0  0  0  0  0  0  0
   24.8622  -22.2348  -18.3819 C   0  0  0  0  0  0  0  0  0  0  0  0
   25.6110  -22.1515  -19.5135 N   0  0  0  0  0  0  0  0  0  0  0  0
   26.9054  -22.0042  -19.1934 C   0  0  0  0  0  0  0  0  0  0  0  0
   28.0410  -21.8726  -19.9598 C   0  0  0  0  0  0  0  0  0  0  0  0
   29.2611  -21.7287  -19.3359 C   0  0  0  0  0  0  0  0  0  0  0  0
   29.3097  -21.7206  -17.9525 C   0  0  0  0  0  0  0  0  0  0  0  0
   28.1708  -21.8528  -17.1730 C   0  0  0  0  0  0  0  0  0  0  0  0
   26.9657  -21.9945  -17.8032 C   0  0  0  0  0  0  0  0  0  0  0  0
   25.7474  -23.0640  -13.6080 C   0  0  0  0  0  0  0  0  0  0  0  0
   24.7716  -23.6904  -13.1041 O   0  0  0  0  0  0  0  0  0  0  0  0
   25.4275  -19.1891   -5.6154 O   0  0  0  0  0  0  0  0  0  0  0  0
   25.8491  -19.6449   -6.8483 C   0  0  0  0  0  0  0  0  0  0  0  0
   26.8085  -18.9858   -7.5865 C   0  0  0  0  0  0  0  0  0  0  0  0
   27.2049  -19.4618   -8.8053 C   0  0  0  0  0  0  0  0  0  0  0  0
   26.6936  -20.6073   -9.3794 C   0  0  0  0  0  0  0  0  0  0  0  0
   27.0880  -21.0724  -10.7080 C   0  0  0  0  0  0  0  0  0  0  0  0
   26.0011  -21.7962  -11.4116 C   0  0  2  0  0  0  0  0  0  0  0  0
   26.5040  -22.2752  -12.7241 N   0  0  0  0  0  0  0  0  0  0  0  0
   24.7674  -21.0480  -11.7020 C   0  0  0  0  0  0  0  0  0  0  0  0
   23.8292  -21.0551  -10.8122 O   0  0  0  0  0  0  0  0  0  0  0  0
   25.7244  -21.2640   -8.6218 C   0  0  0  0  0  0  0  0  0  0  0  0
   25.3193  -20.7943   -7.3996 C   0  0  0  0  0  0  0  0  0  0  0  0
   24.4528  -20.2909  -12.8551 N   0  0  0  0  0  0  0  0  0  0  0  0
   23.2525  -19.5181  -12.9955 C   0  0  1  0  0  0  0  0  0  0  0  0
   23.4887  -18.1144  -13.4830 C   0  0  0  0  0  0  0  0  0  0  0  0
   24.0628  -18.1925  -14.8491 C   0  0  0  0  0  0  0  0  0  0  0  0
   23.3813  -18.4150  -16.0411 C   0  0  0  0  0  0  0  0  0  0  0  0
   24.2416  -18.4296  -17.0733 N   0  0  0  0  0  0  0  0  0  0  0  0
   25.4847  -18.2234  -16.6107 C   0  0  0  0  0  0  0  0  0  0  0  0
   26.7059  -18.1468  -17.2496 C   0  0  0  0  0  0  0  0  0  0  0  0
   27.8744  -17.9218  -16.5412 C   0  0  0  0  0  0  0  0  0  0  0  0
   27.7710  -17.7769  -15.1802 C   0  0  0  0  0  0  0  0  0  0  0  0
   26.5543  -17.8523  -14.5473 C   0  0  0  0  0  0  0  0  0  0  0  0
   25.3853  -18.0764  -15.2413 C   0  0  0  0  0  0  0  0  0  0  0  0
   22.2260  -20.2445  -13.7379 C   0  0  0  0  0  0  0  0  0  0  0  0
   21.0273  -19.8840  -13.8232 O   0  0  0  0  0  0  0  0  0  0  0  0
   22.5260  -21.4358  -14.4313 O   0  0  0  0  0  0  0  0  0  0  0  0
  2  3  1  0
  2  1  1  6
  4  5  2  0
  4  3  1  0
  6  5  1  0
  7 12  2  0
  7  6  1  0
  8  7  1  0
  9 10  1  0
  9  8  2  0
 10 11  2  0
 11 12  1  0
 12  4  1  0
 13  2  1  0
 14 13  2  0
 16 15  1  0
 16 17  2  0
 18 17  1  0
 19 18  2  0
 20 19  1  0
 21 20  1  6
 21 22  1  0
 22 13  1  0
 23 21  1  0
 23 27  1  0
 24 23  2  0
 25 26  2  0
 25 19  1  0
 26 16  1  0
 28 27  1  0
 28 39  1  0
 28 29  1  6
 30 31  2  0
 30 29  1  0
 32 31  1  0
 33 38  2  0
 33 32  1  0
 34 33  1  0
 35 36  1  0
 35 34  2  0
 36 37  2  0
 37 38  1  0
 38 30  1  0
 39 41  1  0
 40 39  2  0
M  END
$$$$
