WYW.pdb
     RDKit          3D

 41 45  0  0  1  0  0  0  0  0999 V2000
   26.8834  -22.0193  -12.9629 N   0  0  0  0  0  0  0  0  0  0  0  0
   26.0295  -21.0246  -12.3311 C   0  0  1  0  0  0  0  0  0  0  0  0
   26.9152  -19.8821  -11.8975 C   0  0  0  0  0  0  0  0  0  0  0  0
   27.8740  -20.2530  -10.8391 C   0  0  0  0  0  0  0  0  0  0  0  0
   29.1198  -20.8051  -11.0426 C   0  0  0  0  0  0  0  0  0  0  0  0
   29.7125  -21.0098   -9.8364 N   0  0  0  0  0  0  0  0  0  0  0  0
   28.8931  -20.6099   -8.8524 C   0  0  0  0  0  0  0  0  0  0  0  0
   29.0240  -20.6022   -7.4823 C   0  0  0  0  0  0  0  0  0  0  0  0
   27.9923  -20.1140   -6.7103 C   0  0  0  0  0  0  0  0  0  0  0  0
   26.8507  -19.6441   -7.3368 C   0  0  0  0  0  0  0  0  0  0  0  0
   26.7106  -19.6485   -8.7161 C   0  0  0  0  0  0  0  0  0  0  0  0
   27.7412  -20.1348   -9.4717 C   0  0  0  0  0  0  0  0  0  0  0  0
   25.0229  -20.6047  -13.3287 C   0  0  0  0  0  0  0  0  0  0  0  0
   25.1969  -19.5331  -13.9765 O   0  0  0  0  0  0  0  0  0  0  0  0
   26.9468  -16.5472  -16.9604 O   0  0  0  0  0  0  0  0  0  0  0  0
   26.1895  -17.6824  -16.7524 C   0  0  0  0  0  0  0  0  0  0  0  0
   24.8148  -17.6770  -16.8526 C   0  0  0  0  0  0  0  0  0  0  0  0
   24.0919  -18.8179  -16.6400 C   0  0  0  0  0  0  0  0  0  0  0  0
   24.6616  -20.0325  -16.3183 C   0  0  0  0  0  0  0  0  0  0  0  0
   23.8708  -21.2301  -16.0398 C   0  0  0  0  0  0  0  0  0  0  0  0
   23.0224  -21.0923  -14.8308 C   0  0  2  0  0  0  0  0  0  0  0  0
   23.8532  -21.3268  -13.6226 N   0  0  0  0  0  0  0  0  0  0  0  0
   21.8682  -21.9971  -14.7074 C   0  0  0  0  0  0  0  0  0  0  0  0
   22.0862  -23.2092  -14.3133 O   0  0  0  0  0  0  0  0  0  0  0  0
   26.0526  -20.0235  -16.2206 C   0  0  0  0  0  0  0  0  0  0  0  0
   26.7861  -18.8850  -16.4305 C   0  0  0  0  0  0  0  0  0  0  0  0
   20.5049  -21.7179  -14.9629 N   0  0  0  0  0  0  0  0  0  0  0  0
   19.4199  -22.4443  -14.3689 C   0  0  1  0  0  0  0  0  0  0  0  0
   19.5101  -22.5513  -12.8708 C   0  0  0  0  0  0  0  0  0  0  0  0
   19.4583  -21.1794  -12.3078 C   0  0  0  0  0  0  0  0  0  0  0  0
   18.8074  -20.0713  -12.8398 C   0  0  0  0  0  0  0  0  0  0  0  0
   18.9949  -18.9988  -12.0521 N   0  0  0  0  0  0  0  0  0  0  0  0
   19.7546  -19.3526  -11.0034 C   0  0  0  0  0  0  0  0  0  0  0  0
   20.2265  -18.6357   -9.9225 C   0  0  0  0  0  0  0  0  0  0  0  0
   21.0094  -19.2345   -8.9497 C   0  0  0  0  0  0  0  0  0  0  0  0
   21.2968  -20.5680   -9.1016 C   0  0  0  0  0  0  0  0  0  0  0  0
   20.8247  -21.2794  -10.1776 C   0  0  0  0  0  0  0  0  0  0  0  0
   20.0456  -20.6943  -11.1518 C   0  0  0  0  0  0  0  0  0  0  0  0
   18.1255  -21.9782  -14.8586 C   0  0  0  0  0  0  0  0  0  0  0  0
   17.9282  -20.8497  -15.3702 O   0  0  0  0  0  0  0  0  0  0  0  0
   16.9768  -22.7939  -14.7879 O   0  0  0  0  0  0  0  0  0  0  0  0
  2  3  1  0
  2  1  1  6
  4  5  2  0
  4  3  1  0
  6  5  1  0
  7 12  2  0
  7  6  1  0
  8  7  1  0
  9 10  1  0
  9  8  2  0
 10 11  2  0
 11 12  1  0
 12  4  1  0
 13  2  1  0
 14 13  2  0
 16 15  1  0
 16 17  2  0
 18 17  1  0
 19 18  2  0
 20 19  1  0
 21 20  1  6
 21 22  1  0
 22 13  1  0
 23 21  1  0
 23 27  1  0
 24 23  2  0
 25 26  2  0
 25 19  1  0
 26 16  1  0
 28 27  1  0
 28 39  1  0
 28 29  1  1
 30 31  2  0
 30 29  1  0
 32 31  1  0
 33 38  2  0
 33 32  1  0
 34 33  1  0
 35 36  1  0
 35 34  2  0
 36 37  2  0
 37 38  1  0
 38 30  1  0
 39 41  1  0
 40 39  2  0
M  END
$$$$
