WYW.pdb
     RDKit          3D

 41 45  0  0  1  0  0  0  0  0999 V2000
   23.8167  -17.7247  -17.6759 N   0  0  0  0  0  0  0  0  0  0  0  0
   24.1149  -17.9426  -16.2683 C   0  0  1  0  0  0  0  0  0  0  0  0
   22.8548  -18.4571  -15.6164 C   0  0  0  0  0  0  0  0  0  0  0  0
   21.7569  -17.4714  -15.6041 C   0  0  0  0  0  0  0  0  0  0  0  0
   20.4483  -17.7236  -15.9533 C   0  0  0  0  0  0  0  0  0  0  0  0
   19.7283  -16.5783  -15.8180 N   0  0  0  0  0  0  0  0  0  0  0  0
   20.5255  -15.5868  -15.3925 C   0  0  0  0  0  0  0  0  0  0  0  0
   20.2849  -14.2628  -15.1036 C   0  0  0  0  0  0  0  0  0  0  0  0
   21.3244  -13.4686  -14.6708 C   0  0  0  0  0  0  0  0  0  0  0  0
   22.5843  -14.0268  -14.5387 C   0  0  0  0  0  0  0  0  0  0  0  0
   22.8353  -15.3594  -14.8278 C   0  0  0  0  0  0  0  0  0  0  0  0
   21.7959  -16.1377  -15.2560 C   0  0  0  0  0  0  0  0  0  0  0  0
   25.2220  -18.9192  -16.1944 C   0  0  0  0  0  0  0  0  0  0  0  0
   25.3108  -19.8277  -17.0691 O   0  0  0  0  0  0  0  0  0  0  0  0
   29.7751  -16.1483  -19.8017 O   0  0  0  0  0  0  0  0  0  0  0  0
   29.5124  -16.8597  -18.6482 C   0  0  0  0  0  0  0  0  0  0  0  0
   29.7353  -18.2168  -18.5552 C   0  0  0  0  0  0  0  0  0  0  0  0
   29.4643  -18.8940  -17.3988 C   0  0  0  0  0  0  0  0  0  0  0  0
   28.9616  -18.2931  -16.2633 C   0  0  0  0  0  0  0  0  0  0  0  0
   28.6252  -19.0411  -15.0531 C   0  0  0  0  0  0  0  0  0  0  0  0
   27.3797  -19.8344  -15.1934 C   0  0  2  0  0  0  0  0  0  0  0  0
   26.2137  -18.9150  -15.1983 N   0  0  0  0  0  0  0  0  0  0  0  0
   27.0964  -20.8383  -14.1551 C   0  0  0  0  0  0  0  0  0  0  0  0
   28.0130  -21.7100  -13.8870 O   0  0  0  0  0  0  0  0  0  0  0  0
   28.7413  -16.9204  -16.3714 C   0  0  0  0  0  0  0  0  0  0  0  0
   29.0084  -16.2327  -17.5264 C   0  0  0  0  0  0  0  0  0  0  0  0
   25.9239  -20.9874  -13.3773 N   0  0  0  0  0  0  0  0  0  0  0  0
   25.7445  -22.0221  -12.4002 C   0  0  1  0  0  0  0  0  0  0  0  0
   26.9012  -22.1645  -11.4485 C   0  0  0  0  0  0  0  0  0  0  0  0
   26.6691  -21.2509  -10.3025 C   0  0  0  0  0  0  0  0  0  0  0  0
   25.5691  -20.4272  -10.0873 C   0  0  0  0  0  0  0  0  0  0  0  0
   25.7207  -19.7374   -8.9442 N   0  0  0  0  0  0  0  0  0  0  0  0
   26.8928  -20.0727   -8.3821 C   0  0  0  0  0  0  0  0  0  0  0  0
   27.5106  -19.6579   -7.2196 C   0  0  0  0  0  0  0  0  0  0  0  0
   28.7459  -20.1590   -6.8442 C   0  0  0  0  0  0  0  0  0  0  0  0
   29.3310  -21.0845   -7.6720 C   0  0  0  0  0  0  0  0  0  0  0  0
   28.7132  -21.4965   -8.8276 C   0  0  0  0  0  0  0  0  0  0  0  0
   27.4849  -21.0045   -9.2116 C   0  0  0  0  0  0  0  0  0  0  0  0
   24.4412  -21.9293  -11.7481 C   0  0  0  0  0  0  0  0  0  0  0  0
   23.9410  -22.8336  -11.0365 O   0  0  0  0  0  0  0  0  0  0  0  0
   23.6353  -20.7789  -11.8785 O   0  0  0  0  0  0  0  0  0  0  0  0
  2  3  1  0
  2  1  1  6
  4  5  2  0
  4  3  1  0
  6  5  1  0
  7 12  2  0
  7  6  1  0
  8  7  1  0
  9 10  1  0
  9  8  2  0
 10 11  2  0
 11 12  1  0
 12  4  1  0
 13  2  1  0
 14 13  2  0
 16 15  1  0
 16 17  2  0
 18 17  1  0
 19 18  2  0
 20 19  1  0
 21 20  1  1
 21 22  1  0
 22 13  1  0
 23 21  1  0
 23 27  1  0
 24 23  2  0
 25 26  2  0
 25 19  1  0
 26 16  1  0
 28 27  1  0
 28 39  1  0
 28 29  1  1
 30 31  2  0
 30 29  1  0
 32 31  1  0
 33 38  2  0
 33 32  1  0
 34 33  1  0
 35 36  1  0
 35 34  2  0
 36 37  2  0
 37 38  1  0
 38 30  1  0
 39 41  1  0
 40 39  2  0
M  END
$$$$
