WYW.pdb
     RDKit          3D

 41 45  0  0  1  0  0  0  0  0999 V2000
   21.2321  -28.1006  -13.6520 N   0  0  0  0  0  0  0  0  0  0  0  0
   21.0953  -27.9982  -12.2069 C   0  0  1  0  0  0  0  0  0  0  0  0
   19.6294  -27.8015  -11.9070 C   0  0  0  0  0  0  0  0  0  0  0  0
   19.1999  -26.3919  -11.9828 C   0  0  0  0  0  0  0  0  0  0  0  0
   18.8329  -25.6063  -10.9122 C   0  0  0  0  0  0  0  0  0  0  0  0
   18.5005  -24.3693  -11.3678 N   0  0  0  0  0  0  0  0  0  0  0  0
   18.6381  -24.3228  -12.7015 C   0  0  0  0  0  0  0  0  0  0  0  0
   18.4349  -23.3185  -13.6202 C   0  0  0  0  0  0  0  0  0  0  0  0
   18.6698  -23.5692  -14.9546 C   0  0  0  0  0  0  0  0  0  0  0  0
   19.1046  -24.8276  -15.3337 C   0  0  0  0  0  0  0  0  0  0  0  0
   19.3116  -25.8450  -14.4148 C   0  0  0  0  0  0  0  0  0  0  0  0
   19.0757  -25.5842  -13.0935 C   0  0  0  0  0  0  0  0  0  0  0  0
   21.6235  -29.2482  -11.6208 C   0  0  0  0  0  0  0  0  0  0  0  0
   21.4480  -30.3436  -12.2273 O   0  0  0  0  0  0  0  0  0  0  0  0
   26.7775  -35.0243   -7.4796 O   0  0  0  0  0  0  0  0  0  0  0  0
   26.1556  -33.8593   -7.8815 C   0  0  0  0  0  0  0  0  0  0  0  0
   25.3993  -33.0950   -7.0192 C   0  0  0  0  0  0  0  0  0  0  0  0
   24.7947  -31.9459   -7.4474 C   0  0  0  0  0  0  0  0  0  0  0  0
   24.8897  -31.4701   -8.7389 C   0  0  0  0  0  0  0  0  0  0  0  0
   24.1917  -30.2692   -9.1947 C   0  0  0  0  0  0  0  0  0  0  0  0
   22.8964  -30.5700   -9.8520 C   0  0  2  0  0  0  0  0  0  0  0  0
   22.3276  -29.3151  -10.4060 N   0  0  0  0  0  0  0  0  0  0  0  0
   21.8357  -31.1593   -9.0191 C   0  0  0  0  0  0  0  0  0  0  0  0
   21.8798  -30.9524   -7.7434 O   0  0  0  0  0  0  0  0  0  0  0  0
   25.6579  -32.2528   -9.6002 C   0  0  0  0  0  0  0  0  0  0  0  0
   26.2668  -33.4068   -9.1810 C   0  0  0  0  0  0  0  0  0  0  0  0
   20.7325  -31.9437   -9.4309 N   0  0  0  0  0  0  0  0  0  0  0  0
   19.8741  -32.6473   -8.5221 C   0  0  1  0  0  0  0  0  0  0  0  0
   18.8916  -31.7605   -7.8065 C   0  0  0  0  0  0  0  0  0  0  0  0
   17.8074  -31.4135   -8.7582 C   0  0  0  0  0  0  0  0  0  0  0  0
   17.6871  -31.8133  -10.0850 C   0  0  0  0  0  0  0  0  0  0  0  0
   16.5761  -31.2895  -10.6300 N   0  0  0  0  0  0  0  0  0  0  0  0
   15.9434  -30.5472   -9.7077 C   0  0  0  0  0  0  0  0  0  0  0  0
   14.7771  -29.8108   -9.7577 C   0  0  0  0  0  0  0  0  0  0  0  0
   14.3189  -29.1147   -8.6516 C   0  0  0  0  0  0  0  0  0  0  0  0
   15.0687  -29.1863   -7.5041 C   0  0  0  0  0  0  0  0  0  0  0  0
   16.2284  -29.9210   -7.4569 C   0  0  0  0  0  0  0  0  0  0  0  0
   16.6943  -30.6170   -8.5509 C   0  0  0  0  0  0  0  0  0  0  0  0
   19.2743  -33.8233   -9.1464 C   0  0  0  0  0  0  0  0  0  0  0  0
   19.3921  -34.1163  -10.3607 O   0  0  0  0  0  0  0  0  0  0  0  0
   18.5006  -34.7366   -8.3999 O   0  0  0  0  0  0  0  0  0  0  0  0
  2  3  1  0
  2  1  1  6
  4  5  2  0
  4  3  1  0
  6  5  1  0
  7 12  2  0
  7  6  1  0
  8  7  1  0
  9 10  1  0
  9  8  2  0
 10 11  2  0
 11 12  1  0
 12  4  1  0
 13  2  1  0
 14 13  2  0
 16 15  1  0
 16 17  2  0
 18 17  1  0
 19 18  2  0
 20 19  1  0
 21 20  1  1
 21 22  1  0
 22 13  1  0
 23 21  1  0
 23 27  1  0
 24 23  2  0
 25 26  2  0
 25 19  1  0
 26 16  1  0
 28 27  1  0
 28 39  1  0
 28 29  1  6
 30 31  2  0
 30 29  1  0
 32 31  1  0
 33 38  2  0
 33 32  1  0
 34 33  1  0
 35 36  1  0
 35 34  2  0
 36 37  2  0
 37 38  1  0
 38 30  1  0
 39 41  1  0
 40 39  2  0
M  END
$$$$
