WYW.pdb
     RDKit          3D

 41 45  0  0  1  0  0  0  0  0999 V2000
   22.9596  -18.2857  -18.5001 N   0  0  0  0  0  0  0  0  0  0  0  0
   24.3009  -18.0290  -17.9973 C   0  0  1  0  0  0  0  0  0  0  0  0
   24.6871  -16.6380  -18.4370 C   0  0  0  0  0  0  0  0  0  0  0  0
   24.7827  -16.4919  -19.9022 C   0  0  0  0  0  0  0  0  0  0  0  0
   24.0419  -15.6218  -20.6717 C   0  0  0  0  0  0  0  0  0  0  0  0
   24.4033  -15.7694  -21.9740 N   0  0  0  0  0  0  0  0  0  0  0  0
   25.3556  -16.7084  -22.0788 C   0  0  0  0  0  0  0  0  0  0  0  0
   26.0434  -17.2152  -23.1579 C   0  0  0  0  0  0  0  0  0  0  0  0
   26.9910  -18.1942  -22.9526 C   0  0  0  0  0  0  0  0  0  0  0  0
   27.2246  -18.6412  -21.6635 C   0  0  0  0  0  0  0  0  0  0  0  0
   26.5361  -18.1363  -20.5710 C   0  0  0  0  0  0  0  0  0  0  0  0
   25.5986  -17.1648  -20.7870 C   0  0  0  0  0  0  0  0  0  0  0  0
   24.2563  -18.1585  -16.5256 C   0  0  0  0  0  0  0  0  0  0  0  0
   24.2138  -17.1174  -15.8095 O   0  0  0  0  0  0  0  0  0  0  0  0
   18.2277  -17.2798  -15.2816 O   0  0  0  0  0  0  0  0  0  0  0  0
   19.3589  -18.0037  -14.9624 C   0  0  0  0  0  0  0  0  0  0  0  0
   20.2668  -17.5705  -14.0201 C   0  0  0  0  0  0  0  0  0  0  0  0
   21.3787  -18.3097  -13.7261 C   0  0  0  0  0  0  0  0  0  0  0  0
   21.6745  -19.5147  -14.3292 C   0  0  0  0  0  0  0  0  0  0  0  0
   22.8959  -20.2655  -14.0436 C   0  0  0  0  0  0  0  0  0  0  0  0
   24.1284  -19.5056  -14.3657 C   0  0  2  0  0  0  0  0  0  0  0  0
   24.2562  -19.3858  -15.8403 N   0  0  0  0  0  0  0  0  0  0  0  0
   25.4077  -20.0599  -13.8945 C   0  0  0  0  0  0  0  0  0  0  0  0
   26.2056  -20.5762  -14.7714 O   0  0  0  0  0  0  0  0  0  0  0  0
   20.7477  -19.9410  -15.2799 C   0  0  0  0  0  0  0  0  0  0  0  0
   19.6308  -19.2067  -15.5826 C   0  0  0  0  0  0  0  0  0  0  0  0
   25.9089  -20.1053  -12.5722 N   0  0  0  0  0  0  0  0  0  0  0  0
   26.9416  -21.0041  -12.1440 C   0  0  1  0  0  0  0  0  0  0  0  0
   27.7008  -20.5243  -10.9367 C   0  0  0  0  0  0  0  0  0  0  0  0
   26.8326  -20.7031   -9.7467 C   0  0  0  0  0  0  0  0  0  0  0  0
   25.6836  -21.4806   -9.6475 C   0  0  0  0  0  0  0  0  0  0  0  0
   25.1613  -21.3840   -8.4132 N   0  0  0  0  0  0  0  0  0  0  0  0
   25.9261  -20.5625   -7.6767 C   0  0  0  0  0  0  0  0  0  0  0  0
   25.8281  -20.1379   -6.3670 C   0  0  0  0  0  0  0  0  0  0  0  0
   26.7593  -19.2700   -5.8216 C   0  0  0  0  0  0  0  0  0  0  0  0
   27.7833  -18.8495   -6.6331 C   0  0  0  0  0  0  0  0  0  0  0  0
   27.8791  -19.2748   -7.9357 C   0  0  0  0  0  0  0  0  0  0  0  0
   26.9584  -20.1375   -8.4894 C   0  0  0  0  0  0  0  0  0  0  0  0
   26.4536  -22.3763  -12.0375 C   0  0  0  0  0  0  0  0  0  0  0  0
   27.1740  -23.3621  -11.7489 O   0  0  0  0  0  0  0  0  0  0  0  0
   25.0964  -22.6919  -12.2572 O   0  0  0  0  0  0  0  0  0  0  0  0
  2  3  1  0
  2  1  1  6
  4  5  2  0
  4  3  1  0
  6  5  1  0
  7 12  2  0
  7  6  1  0
  8  7  1  0
  9 10  1  0
  9  8  2  0
 10 11  2  0
 11 12  1  0
 12  4  1  0
 13  2  1  0
 14 13  2  0
 16 15  1  0
 16 17  2  0
 18 17  1  0
 19 18  2  0
 20 19  1  0
 21 20  1  6
 21 22  1  0
 22 13  1  0
 23 21  1  0
 23 27  1  0
 24 23  2  0
 25 26  2  0
 25 19  1  0
 26 16  1  0
 28 27  1  0
 28 39  1  0
 28 29  1  1
 30 31  2  0
 30 29  1  0
 32 31  1  0
 33 38  2  0
 33 32  1  0
 34 33  1  0
 35 36  1  0
 35 34  2  0
 36 37  2  0
 37 38  1  0
 38 30  1  0
 39 41  1  0
 40 39  2  0
M  END
$$$$
