WYW.pdb
     RDKit          3D

 41 45  0  0  1  0  0  0  0  0999 V2000
   26.9960  -21.7556  -17.7736 N   0  0  0  0  0  0  0  0  0  0  0  0
   26.3027  -20.8989  -16.8233 C   0  0  1  0  0  0  0  0  0  0  0  0
   24.8223  -21.0681  -17.0625 C   0  0  0  0  0  0  0  0  0  0  0  0
   24.3851  -20.5934  -18.3894 C   0  0  0  0  0  0  0  0  0  0  0  0
   23.5612  -21.2786  -19.2552 C   0  0  0  0  0  0  0  0  0  0  0  0
   23.3804  -20.5300  -20.3756 N   0  0  0  0  0  0  0  0  0  0  0  0
   24.0606  -19.3787  -20.2688 C   0  0  0  0  0  0  0  0  0  0  0  0
   24.1977  -18.3009  -21.1136 C   0  0  0  0  0  0  0  0  0  0  0  0
   24.9759  -17.2333  -20.7219 C   0  0  0  0  0  0  0  0  0  0  0  0
   25.5990  -17.2757  -19.4865 C   0  0  0  0  0  0  0  0  0  0  0  0
   25.4664  -18.3575  -18.6295 C   0  0  0  0  0  0  0  0  0  0  0  0
   24.6913  -19.4108  -19.0289 C   0  0  0  0  0  0  0  0  0  0  0  0
   26.7026  -21.3260  -15.4659 C   0  0  0  0  0  0  0  0  0  0  0  0
   26.8613  -22.5562  -15.2211 O   0  0  0  0  0  0  0  0  0  0  0  0
   27.3235  -21.0201   -6.6175 O   0  0  0  0  0  0  0  0  0  0  0  0
   27.3986  -20.7161   -7.9619 C   0  0  0  0  0  0  0  0  0  0  0  0
   26.4656  -19.9176   -8.5878 C   0  0  0  0  0  0  0  0  0  0  0  0
   26.5667  -19.6350   -9.9217 C   0  0  0  0  0  0  0  0  0  0  0  0
   27.5810  -20.1104  -10.7270 C   0  0  0  0  0  0  0  0  0  0  0  0
   27.6438  -19.8443  -12.1631 C   0  0  0  0  0  0  0  0  0  0  0  0
   26.9271  -20.8620  -12.9698 C   0  0  2  0  0  0  0  0  0  0  0  0
   26.9279  -20.4440  -14.3947 N   0  0  0  0  0  0  0  0  0  0  0  0
   25.5202  -21.1275  -12.6291 C   0  0  0  0  0  0  0  0  0  0  0  0
   25.2746  -21.9244  -11.6408 O   0  0  0  0  0  0  0  0  0  0  0  0
   28.5177  -20.9164  -10.0808 C   0  0  0  0  0  0  0  0  0  0  0  0
   28.4245  -21.2066   -8.7446 C   0  0  0  0  0  0  0  0  0  0  0  0
   24.3566  -20.6124  -13.2478 N   0  0  0  0  0  0  0  0  0  0  0  0
   23.0314  -20.8044  -12.7334 C   0  0  1  0  0  0  0  0  0  0  0  0
   22.2070  -19.5463  -12.6967 C   0  0  0  0  0  0  0  0  0  0  0  0
   21.6476  -19.3234  -14.0529 C   0  0  0  0  0  0  0  0  0  0  0  0
   20.4489  -19.8104  -14.5635 C   0  0  0  0  0  0  0  0  0  0  0  0
   20.2861  -19.4061  -15.8346 N   0  0  0  0  0  0  0  0  0  0  0  0
   21.3420  -18.6600  -16.1959 C   0  0  0  0  0  0  0  0  0  0  0  0
   21.6564  -18.0166  -17.3759 C   0  0  0  0  0  0  0  0  0  0  0  0
   22.8298  -17.2932  -17.5092 C   0  0  0  0  0  0  0  0  0  0  0  0
   23.6668  -17.2400  -16.4226 C   0  0  0  0  0  0  0  0  0  0  0  0
   23.3507  -17.8802  -15.2492 C   0  0  0  0  0  0  0  0  0  0  0  0
   22.1867  -18.6033  -15.1051 C   0  0  0  0  0  0  0  0  0  0  0  0
   22.3648  -21.9384  -13.3676 C   0  0  0  0  0  0  0  0  0  0  0  0
   22.8161  -22.5583  -14.3607 O   0  0  0  0  0  0  0  0  0  0  0  0
   21.1316  -22.4272  -12.8878 O   0  0  0  0  0  0  0  0  0  0  0  0
  2  3  1  0
  2  1  1  6
  4  5  2  0
  4  3  1  0
  6  5  1  0
  7 12  2  0
  7  6  1  0
  8  7  1  0
  9 10  1  0
  9  8  2  0
 10 11  2  0
 11 12  1  0
 12  4  1  0
 13  2  1  0
 14 13  2  0
 16 15  1  0
 16 17  2  0
 18 17  1  0
 19 18  2  0
 20 19  1  0
 21 20  1  1
 21 22  1  0
 22 13  1  0
 23 21  1  0
 23 27  1  0
 24 23  2  0
 25 26  2  0
 25 19  1  0
 26 16  1  0
 28 27  1  0
 28 39  1  0
 28 29  1  6
 30 31  2  0
 30 29  1  0
 32 31  1  0
 33 38  2  0
 33 32  1  0
 34 33  1  0
 35 36  1  0
 35 34  2  0
 36 37  2  0
 37 38  1  0
 38 30  1  0
 39 41  1  0
 40 39  2  0
M  END
$$$$
