WYW.pdb
     RDKit          3D

 41 45  0  0  1  0  0  0  0  0999 V2000
   27.2518  -21.3841  -19.2612 N   0  0  0  0  0  0  0  0  0  0  0  0
   26.9131  -20.2775  -18.3789 C   0  0  1  0  0  0  0  0  0  0  0  0
   25.6847  -19.6097  -18.9469 C   0  0  0  0  0  0  0  0  0  0  0  0
   25.9185  -18.9675  -20.2546 C   0  0  0  0  0  0  0  0  0  0  0  0
   25.5199  -19.4656  -21.4757 C   0  0  0  0  0  0  0  0  0  0  0  0
   25.9100  -18.6027  -22.4512 N   0  0  0  0  0  0  0  0  0  0  0  0
   26.5510  -17.5581  -21.9058 C   0  0  0  0  0  0  0  0  0  0  0  0
   27.1255  -16.4338  -22.4536 C   0  0  0  0  0  0  0  0  0  0  0  0
   27.7213  -15.5096  -21.6231 C   0  0  0  0  0  0  0  0  0  0  0  0
   27.7247  -15.7392  -20.2580 C   0  0  0  0  0  0  0  0  0  0  0  0
   27.1485  -16.8691  -19.6980 C   0  0  0  0  0  0  0  0  0  0  0  0
   26.5600  -17.7788  -20.5319 C   0  0  0  0  0  0  0  0  0  0  0  0
   26.6728  -20.8395  -17.0331 C   0  0  0  0  0  0  0  0  0  0  0  0
   25.9552  -21.8729  -16.9084 O   0  0  0  0  0  0  0  0  0  0  0  0
   25.5277  -20.7491   -8.2318 O   0  0  0  0  0  0  0  0  0  0  0  0
   26.0521  -20.5973   -9.4997 C   0  0  0  0  0  0  0  0  0  0  0  0
   26.1213  -19.3703  -10.1240 C   0  0  0  0  0  0  0  0  0  0  0  0
   26.6457  -19.2521  -11.3811 C   0  0  0  0  0  0  0  0  0  0  0  0
   27.1353  -20.3186  -12.1064 C   0  0  0  0  0  0  0  0  0  0  0  0
   27.6417  -20.1836  -13.4711 C   0  0  0  0  0  0  0  0  0  0  0  0
   26.6503  -20.5906  -14.4967 C   0  0  2  0  0  0  0  0  0  0  0  0
   27.1968  -20.2986  -15.8462 N   0  0  0  0  0  0  0  0  0  0  0  0
   25.3268  -19.9486  -14.4508 C   0  0  0  0  0  0  0  0  0  0  0  0
   25.2513  -18.6912  -14.7430 O   0  0  0  0  0  0  0  0  0  0  0  0
   27.0593  -21.5533  -11.4628 C   0  0  0  0  0  0  0  0  0  0  0  0
   26.5343  -21.6826  -10.2034 C   0  0  0  0  0  0  0  0  0  0  0  0
   24.0801  -20.5335  -14.1258 N   0  0  0  0  0  0  0  0  0  0  0  0
   22.9634  -19.7921  -13.6149 C   0  0  1  0  0  0  0  0  0  0  0  0
   22.4896  -18.6992  -14.5340 C   0  0  0  0  0  0  0  0  0  0  0  0
   22.0656  -19.3241  -15.8114 C   0  0  0  0  0  0  0  0  0  0  0  0
   21.4162  -20.5422  -15.9820 C   0  0  0  0  0  0  0  0  0  0  0  0
   21.2057  -20.7785  -17.2879 N   0  0  0  0  0  0  0  0  0  0  0  0
   21.6953  -19.7535  -18.0033 C   0  0  0  0  0  0  0  0  0  0  0  0
   21.7311  -19.5104  -19.3615 C   0  0  0  0  0  0  0  0  0  0  0  0
   22.3029  -18.3561  -19.8699 C   0  0  0  0  0  0  0  0  0  0  0  0
   22.8313  -17.4633  -18.9712 C   0  0  0  0  0  0  0  0  0  0  0  0
   22.7931  -17.7073  -17.6200 C   0  0  0  0  0  0  0  0  0  0  0  0
   22.2275  -18.8522  -17.1027 C   0  0  0  0  0  0  0  0  0  0  0  0
   21.9022  -20.6744  -13.1375 C   0  0  0  0  0  0  0  0  0  0  0  0
   20.8523  -20.2777  -12.5767 O   0  0  0  0  0  0  0  0  0  0  0  0
   21.9908  -22.0747  -13.2827 O   0  0  0  0  0  0  0  0  0  0  0  0
  2  3  1  0
  2  1  1  6
  4  5  2  0
  4  3  1  0
  6  5  1  0
  7 12  2  0
  7  6  1  0
  8  7  1  0
  9 10  1  0
  9  8  2  0
 10 11  2  0
 11 12  1  0
 12  4  1  0
 13  2  1  0
 14 13  2  0
 16 15  1  0
 16 17  2  0
 18 17  1  0
 19 18  2  0
 20 19  1  0
 21 20  1  1
 21 22  1  0
 22 13  1  0
 23 21  1  0
 23 27  1  0
 24 23  2  0
 25 26  2  0
 25 19  1  0
 26 16  1  0
 28 27  1  0
 28 39  1  0
 28 29  1  6
 30 31  2  0
 30 29  1  0
 32 31  1  0
 33 38  2  0
 33 32  1  0
 34 33  1  0
 35 36  1  0
 35 34  2  0
 36 37  2  0
 37 38  1  0
 38 30  1  0
 39 41  1  0
 40 39  2  0
M  END
$$$$
