NHN.pdb
     RDKit          3D

 27 27  0  0  1  0  0  0  0  0999 V2000
    8.8331  -17.0711   14.2255 N   0  0  0  0  0  0  0  0  0  0  0  0
   10.1351  -16.6510   14.5809 C   0  0  0  0  0  0  0  0  0  0  0  0
   11.0537  -16.8702   13.7564 O   0  0  0  0  0  0  0  0  0  0  0  0
   10.3019  -15.9931   15.8862 C   0  0  0  0  0  0  0  0  0  0  0  0
   11.2999  -16.6377   16.8005 C   0  0  2  0  0  0  0  0  0  0  0  0
   11.1700  -18.0759   16.8083 N   0  0  0  0  0  0  0  0  0  0  0  0
   11.2098  -16.0785   18.1819 C   0  0  0  0  0  0  0  0  0  0  0  0
   12.1126  -15.2428   18.5045 O   0  0  0  0  0  0  0  0  0  0  0  0
   10.2287  -16.3950   19.1314 N   0  0  0  0  0  0  0  0  0  0  0  0
   10.1718  -15.7274   20.4597 C   0  0  1  0  0  0  0  0  0  0  0  0
    8.7882  -15.2389   20.6123 C   0  0  0  0  0  0  0  0  0  0  0  0
    8.3030  -14.2272   19.6800 C   0  0  0  0  0  0  0  0  0  0  0  0
    8.4383  -12.8603   19.7871 C   0  0  0  0  0  0  0  0  0  0  0  0
    7.8327  -12.2616   18.7511 N   0  0  0  0  0  0  0  0  0  0  0  0
    7.3101  -13.2321   17.9801 C   0  0  0  0  0  0  0  0  0  0  0  0
    7.5976  -14.4189   18.5468 N   0  0  0  0  0  0  0  0  0  0  0  0
   10.7528  -16.5619   21.4878 C   0  0  0  0  0  0  0  0  0  0  0  0
   10.5864  -17.8269   21.4224 O   0  0  0  0  0  0  0  0  0  0  0  0
   14.4777  -15.1805   22.8501 N   0  0  0  0  0  0  0  0  0  0  0  0
   14.5828  -16.5113   22.3712 C   0  0  0  0  0  0  0  0  0  0  0  0
   15.6168  -16.8074   21.7488 O   0  0  0  0  0  0  0  0  0  0  0  0
   13.5316  -17.5278   22.5832 C   0  0  0  0  0  0  0  0  0  0  0  0
   12.3479  -17.0218   23.3745 C   0  0  2  0  0  0  0  0  0  0  0  0
   11.5143  -16.1061   22.5897 N   0  0  0  0  0  0  0  0  0  0  0  0
   12.8059  -16.4626   24.6377 C   0  0  0  0  0  0  0  0  0  0  0  0
   12.6839  -15.2248   24.8178 O   0  0  0  0  0  0  0  0  0  0  0  0
   13.3583  -17.2180   25.6289 O   0  0  0  0  0  0  0  0  0  0  0  0
  2  3  2  0
  2  1  1  0
  4  2  1  0
  5  7  1  0
  5  4  1  0
  5  6  1  1
  7  8  2  0
  9 10  1  0
  9  7  1  0
 10 11  1  1
 11 12  1  0
 12 16  1  0
 13 12  2  0
 13 14  1  0
 14 15  1  0
 16 15  2  0
 17 24  1  0
 17 10  1  0
 18 17  2  0
 20 19  1  0
 21 20  2  0
 22 20  1  0
 23 24  1  0
 23 22  1  6
 25 27  1  0
 25 23  1  0
 26 25  2  0
M  END
$$$$
