NHN.pdb
     RDKit          3D

 27 27  0  0  1  0  0  0  0  0999 V2000
    7.7810  -14.4962   11.1681 N   0  0  0  0  0  0  0  0  0  0  0  0
    8.1484  -15.6819   11.8444 C   0  0  0  0  0  0  0  0  0  0  0  0
    8.0149  -16.7621   11.2225 O   0  0  0  0  0  0  0  0  0  0  0  0
    8.6555  -15.5480   13.2190 C   0  0  0  0  0  0  0  0  0  0  0  0
    9.1107  -16.8263   13.8563 C   0  0  2  0  0  0  0  0  0  0  0  0
    8.0532  -17.8087   13.9037 N   0  0  0  0  0  0  0  0  0  0  0  0
    9.6833  -16.5816   15.2133 C   0  0  0  0  0  0  0  0  0  0  0  0
   10.7683  -15.9190   15.2487 O   0  0  0  0  0  0  0  0  0  0  0  0
    9.1306  -17.0151   16.4261 N   0  0  0  0  0  0  0  0  0  0  0  0
    9.7894  -16.7490   17.7332 C   0  0  1  0  0  0  0  0  0  0  0  0
    8.7001  -16.5014   18.6967 C   0  0  0  0  0  0  0  0  0  0  0  0
    8.1861  -15.1425   18.8284 C   0  0  0  0  0  0  0  0  0  0  0  0
    8.6673  -14.0054   18.2171 C   0  0  0  0  0  0  0  0  0  0  0  0
    7.9521  -12.9413   18.6104 N   0  0  0  0  0  0  0  0  0  0  0  0
    7.0163  -13.3854   19.4686 C   0  0  0  0  0  0  0  0  0  0  0  0
    7.1625  -14.7176   19.5966 N   0  0  0  0  0  0  0  0  0  0  0  0
   10.7892  -17.7518   18.0266 C   0  0  0  0  0  0  0  0  0  0  0  0
   10.6941  -18.8984   17.4714 O   0  0  0  0  0  0  0  0  0  0  0  0
   15.4694  -20.4090   18.3067 N   0  0  0  0  0  0  0  0  0  0  0  0
   15.2756  -19.2938   19.1613 C   0  0  0  0  0  0  0  0  0  0  0  0
   15.9904  -19.2290   20.1757 O   0  0  0  0  0  0  0  0  0  0  0  0
   14.2789  -18.2370   18.8910 C   0  0  0  0  0  0  0  0  0  0  0  0
   12.8517  -18.6730   19.1280 C   0  0  2  0  0  0  0  0  0  0  0  0
   11.8986  -17.5850   18.8887 N   0  0  0  0  0  0  0  0  0  0  0  0
   12.7361  -19.2755   20.4477 C   0  0  0  0  0  0  0  0  0  0  0  0
   13.3797  -20.3303   20.6770 O   0  0  0  0  0  0  0  0  0  0  0  0
   11.9650  -18.7491   21.4408 O   0  0  0  0  0  0  0  0  0  0  0  0
  2  3  2  0
  2  1  1  0
  4  2  1  0
  5  7  1  0
  5  4  1  0
  5  6  1  1
  7  8  2  0
  9 10  1  0
  9  7  1  0
 10 11  1  1
 11 12  1  0
 12 16  1  0
 13 12  2  0
 13 14  1  0
 14 15  1  0
 16 15  2  0
 17 24  1  0
 17 10  1  0
 18 17  2  0
 20 19  1  0
 21 20  2  0
 22 20  1  0
 23 24  1  0
 23 22  1  1
 25 27  1  0
 25 23  1  0
 26 25  2  0
M  END
$$$$
