NHN.pdb
     RDKit          3D

 27 27  0  0  1  0  0  0  0  0999 V2000
   10.3795  -18.2825   13.8986 N   0  0  0  0  0  0  0  0  0  0  0  0
   10.7805  -16.9492   13.6542 C   0  0  0  0  0  0  0  0  0  0  0  0
   11.0300  -16.6336   12.4669 O   0  0  0  0  0  0  0  0  0  0  0  0
   10.8711  -16.0462   14.8122 C   0  0  0  0  0  0  0  0  0  0  0  0
   10.6129  -16.6889   16.1418 C   0  0  2  0  0  0  0  0  0  0  0  0
    9.2141  -16.9973   16.3262 N   0  0  0  0  0  0  0  0  0  0  0  0
   11.1340  -15.8486   17.2605 C   0  0  0  0  0  0  0  0  0  0  0  0
   12.3943  -15.8663   17.4299 O   0  0  0  0  0  0  0  0  0  0  0  0
   10.3598  -15.0577   18.1203 N   0  0  0  0  0  0  0  0  0  0  0  0
   10.9512  -14.3500   19.2877 C   0  0  1  0  0  0  0  0  0  0  0  0
    9.9134  -13.4186   19.7692 C   0  0  0  0  0  0  0  0  0  0  0  0
    8.7176  -13.9748   20.3929 C   0  0  0  0  0  0  0  0  0  0  0  0
    7.4903  -14.1862   19.8034 C   0  0  0  0  0  0  0  0  0  0  0  0
    6.6324  -14.6826   20.7067 N   0  0  0  0  0  0  0  0  0  0  0  0
    7.2981  -14.7917   21.8705 C   0  0  0  0  0  0  0  0  0  0  0  0
    8.5589  -14.3622   21.6747 N   0  0  0  0  0  0  0  0  0  0  0  0
   11.5579  -15.2834   20.2105 C   0  0  0  0  0  0  0  0  0  0  0  0
   11.0491  -16.4489   20.3325 O   0  0  0  0  0  0  0  0  0  0  0  0
   15.1285  -13.9485   21.4832 N   0  0  0  0  0  0  0  0  0  0  0  0
   15.5501  -15.2968   21.3568 C   0  0  0  0  0  0  0  0  0  0  0  0
   16.7418  -15.4904   21.0624 O   0  0  0  0  0  0  0  0  0  0  0  0
   14.6429  -16.4455   21.5584 C   0  0  0  0  0  0  0  0  0  0  0  0
   13.2312  -16.0482   21.9225 C   0  0  2  0  0  0  0  0  0  0  0  0
   12.6956  -15.0308   21.0129 N   0  0  0  0  0  0  0  0  0  0  0  0
   13.1756  -15.6688   23.3264 C   0  0  0  0  0  0  0  0  0  0  0  0
   12.8284  -14.4948   23.6105 O   0  0  0  0  0  0  0  0  0  0  0  0
   13.4817  -16.5257   24.3413 O   0  0  0  0  0  0  0  0  0  0  0  0
  2  3  2  0
  2  1  1  0
  4  2  1  0
  5  7  1  0
  5  4  1  0
  5  6  1  1
  7  8  2  0
  9 10  1  0
  9  7  1  0
 10 11  1  1
 11 12  1  0
 12 16  1  0
 13 12  2  0
 13 14  1  0
 14 15  1  0
 16 15  2  0
 17 24  1  0
 17 10  1  0
 18 17  2  0
 20 19  1  0
 21 20  2  0
 22 20  1  0
 23 24  1  0
 23 22  1  6
 25 27  1  0
 25 23  1  0
 26 25  2  0
M  END
$$$$
