NHN.pdb
     RDKit          3D

 27 27  0  0  1  0  0  0  0  0999 V2000
   12.3742  -17.0252   15.1635 N   0  0  0  0  0  0  0  0  0  0  0  0
   12.2196  -15.6219   15.0923 C   0  0  0  0  0  0  0  0  0  0  0  0
   12.0119  -15.1242   13.9606 O   0  0  0  0  0  0  0  0  0  0  0  0
   12.3155  -14.8653   16.3504 C   0  0  0  0  0  0  0  0  0  0  0  0
   12.4474  -15.7021   17.5874 C   0  0  2  0  0  0  0  0  0  0  0  0
   11.8129  -16.9903   17.4340 N   0  0  0  0  0  0  0  0  0  0  0  0
   11.9270  -14.9818   18.7872 C   0  0  0  0  0  0  0  0  0  0  0  0
   12.5487  -13.9212   19.1131 O   0  0  0  0  0  0  0  0  0  0  0  0
   10.8298  -15.3738   19.5661 N   0  0  0  0  0  0  0  0  0  0  0  0
   10.4414  -14.6467   20.8045 C   0  0  1  0  0  0  0  0  0  0  0  0
    9.0020  -14.3528   20.6711 C   0  0  0  0  0  0  0  0  0  0  0  0
    8.5041  -13.8963   19.3780 C   0  0  0  0  0  0  0  0  0  0  0  0
    8.3015  -12.5948   18.9739 C   0  0  0  0  0  0  0  0  0  0  0  0
    7.8040  -12.5784   17.7286 N   0  0  0  0  0  0  0  0  0  0  0  0
    7.6856  -13.8577   17.3301 C   0  0  0  0  0  0  0  0  0  0  0  0
    8.1105  -14.6504   18.3317 N   0  0  0  0  0  0  0  0  0  0  0  0
   10.9253  -15.3299   21.9836 C   0  0  0  0  0  0  0  0  0  0  0  0
   10.3142  -15.1555   23.0918 O   0  0  0  0  0  0  0  0  0  0  0  0
   10.3545  -18.8093   22.5897 N   0  0  0  0  0  0  0  0  0  0  0  0
   11.7386  -19.0607   22.4093 C   0  0  0  0  0  0  0  0  0  0  0  0
   12.0492  -19.9728   21.6245 O   0  0  0  0  0  0  0  0  0  0  0  0
   12.7928  -18.2941   23.1052 C   0  0  0  0  0  0  0  0  0  0  0  0
   12.4591  -16.8320   23.2900 C   0  0  2  0  0  0  0  0  0  0  0  0
   12.0380  -16.2024   22.0348 N   0  0  0  0  0  0  0  0  0  0  0  0
   13.5694  -16.1548   23.9432 C   0  0  0  0  0  0  0  0  0  0  0  0
   14.1953  -15.2794   23.2940 O   0  0  0  0  0  0  0  0  0  0  0  0
   13.9584  -16.4265   25.2211 O   0  0  0  0  0  0  0  0  0  0  0  0
  2  3  2  0
  2  1  1  0
  4  2  1  0
  5  7  1  0
  5  4  1  0
  5  6  1  6
  7  8  2  0
  9 10  1  0
  9  7  1  0
 10 11  1  1
 11 12  1  0
 12 16  1  0
 13 12  2  0
 13 14  1  0
 14 15  1  0
 16 15  2  0
 17 24  1  0
 17 10  1  0
 18 17  2  0
 20 19  1  0
 21 20  2  0
 22 20  1  0
 23 24  1  0
 23 22  1  6
 25 27  1  0
 25 23  1  0
 26 25  2  0
M  END
$$$$
