NHN.pdb
     RDKit          3D

 27 27  0  0  1  0  0  0  0  0999 V2000
   11.6356  -17.7267   12.9932 N   0  0  0  0  0  0  0  0  0  0  0  0
   11.8665  -18.4733   14.1711 C   0  0  0  0  0  0  0  0  0  0  0  0
   12.2892  -19.6455   14.0339 O   0  0  0  0  0  0  0  0  0  0  0  0
   11.5915  -17.8125   15.4565 C   0  0  0  0  0  0  0  0  0  0  0  0
   11.0482  -16.4192   15.3521 C   0  0  2  0  0  0  0  0  0  0  0  0
   11.5514  -15.7330   14.1852 N   0  0  0  0  0  0  0  0  0  0  0  0
   11.3154  -15.6384   16.5964 C   0  0  0  0  0  0  0  0  0  0  0  0
   12.2594  -14.7889   16.5288 O   0  0  0  0  0  0  0  0  0  0  0  0
   10.6219  -15.7650   17.8077 N   0  0  0  0  0  0  0  0  0  0  0  0
   11.0295  -15.0235   19.0313 C   0  0  1  0  0  0  0  0  0  0  0  0
    9.8074  -14.8735   19.8439 C   0  0  0  0  0  0  0  0  0  0  0  0
    8.7473  -14.0026   19.3481 C   0  0  0  0  0  0  0  0  0  0  0  0
    8.7351  -13.2911   18.1683 C   0  0  0  0  0  0  0  0  0  0  0  0
    7.6014  -12.5804   18.0784 N   0  0  0  0  0  0  0  0  0  0  0  0
    6.8859  -12.8296   19.1899 C   0  0  0  0  0  0  0  0  0  0  0  0
    7.5839  -13.6904   19.9543 N   0  0  0  0  0  0  0  0  0  0  0  0
   12.2143  -15.6045   19.6225 C   0  0  0  0  0  0  0  0  0  0  0  0
   12.3709  -16.8715   19.5720 O   0  0  0  0  0  0  0  0  0  0  0  0
   16.9474  -15.1451   18.5041 N   0  0  0  0  0  0  0  0  0  0  0  0
   16.0728  -14.3373   19.2748 C   0  0  0  0  0  0  0  0  0  0  0  0
   15.6335  -13.3074   18.7356 O   0  0  0  0  0  0  0  0  0  0  0  0
   15.6787  -14.6722   20.6589 C   0  0  0  0  0  0  0  0  0  0  0  0
   14.4623  -15.5645   20.7452 C   0  0  2  0  0  0  0  0  0  0  0  0
   13.2519  -14.8900   20.2666 N   0  0  0  0  0  0  0  0  0  0  0  0
   14.3423  -16.1001   22.0931 C   0  0  0  0  0  0  0  0  0  0  0  0
   13.3008  -15.8373   22.7456 O   0  0  0  0  0  0  0  0  0  0  0  0
   15.3043  -16.8702   22.6760 O   0  0  0  0  0  0  0  0  0  0  0  0
  2  3  2  0
  2  1  1  0
  4  2  1  0
  5  7  1  0
  5  4  1  0
  5  6  1  6
  7  8  2  0
  9 10  1  0
  9  7  1  0
 10 11  1  1
 11 12  1  0
 12 16  1  0
 13 12  2  0
 13 14  1  0
 14 15  1  0
 16 15  2  0
 17 24  1  0
 17 10  1  0
 18 17  2  0
 20 19  1  0
 21 20  2  0
 22 20  1  0
 23 24  1  0
 23 22  1  1
 25 27  1  0
 25 23  1  0
 26 25  2  0
M  END
$$$$
