IRR.pdb
     RDKit          3D

 31 30  0  0  1  0  0  0  0  0999 V2000
    6.7276  -10.4099   27.7132 C   0  0  0  0  0  0  0  0  0  0  0  0
    5.9003  -11.4497   26.9859 C   0  0  0  0  0  0  0  0  0  0  0  0
    6.7383  -12.4704   26.2871 C   0  0  2  0  0  0  0  0  0  0  0  0
    7.7078  -11.7360   25.3874 C   0  0  0  0  0  0  0  0  0  0  0  0
    5.9576  -13.5191   25.5580 C   0  0  2  0  0  0  0  0  0  0  0  0
    5.2045  -14.2649   26.5731 N   0  0  0  0  0  0  0  0  0  0  0  0
    6.7561  -14.4452   24.7665 C   0  0  0  0  0  0  0  0  0  0  0  0
    7.2733  -15.4532   25.2945 O   0  0  0  0  0  0  0  0  0  0  0  0
    9.6102  -15.0107   15.9180 N   0  0  0  0  0  0  0  0  0  0  0  0
    8.6441  -14.9405   16.9635 C   0  0  0  0  0  0  0  0  0  0  0  0
    7.9767  -13.8440   17.1149 N   0  0  0  0  0  0  0  0  0  0  0  0
    8.4598  -16.0809   17.7928 N   0  0  0  0  0  0  0  0  0  0  0  0
    7.6830  -15.9271   18.9950 C   0  0  0  0  0  0  0  0  0  0  0  0
    8.5578  -15.5075   20.1707 C   0  0  0  0  0  0  0  0  0  0  0  0
    7.7293  -14.6908   21.1094 C   0  0  0  0  0  0  0  0  0  0  0  0
    7.8062  -15.0946   22.5470 C   0  0  2  0  0  0  0  0  0  0  0  0
    6.9676  -14.2303   23.3846 N   0  0  0  0  0  0  0  0  0  0  0  0
    9.1961  -15.1282   23.0853 C   0  0  0  0  0  0  0  0  0  0  0  0
    9.8241  -14.0578   23.3358 O   0  0  0  0  0  0  0  0  0  0  0  0
    7.2507  -13.7747   17.8605 N   0  0  0  0  0  0  0  0  0  0  0  0
   10.6323  -19.0012   30.6851 C   0  0  0  0  0  0  0  0  0  0  0  0
   10.9358  -19.4924   29.3882 N   0  0  0  0  0  0  0  0  0  0  0  0
   11.6445  -20.5632   29.2946 N   0  0  0  0  0  0  0  0  0  0  0  0
   10.4934  -18.8587   28.1989 C   0  0  0  0  0  0  0  0  0  0  0  0
   11.2932  -18.7355   26.9917 C   0  0  0  0  0  0  0  0  0  0  0  0
   10.6096  -18.0161   25.9107 C   0  0  0  0  0  0  0  0  0  0  0  0
   11.2146  -17.7393   24.6254 C   0  0  2  0  0  0  0  0  0  0  0  0
   11.2031  -16.4267   23.9623 N   0  0  0  0  0  0  0  0  0  0  0  0
    9.8410  -16.3630   23.3267 C   0  0  0  0  0  0  0  0  0  0  0  0
   12.1070  -16.2792   22.7765 O   0  0  0  0  0  0  0  0  0  0  0  0
   11.8168  -16.8376   21.5301 O   0  0  0  0  0  0  0  0  0  0  0  0
  2  3  1  0
  2  1  1  0
  3  4  1  6
  5  6  1  1
  5  3  1  0
  7  8  2  0
  7  5  1  0
  9 10  1  0
 10 12  1  0
 11 10  2  0
 12 13  1  0
 13 14  1  0
 14 15  1  0
 16 15  1  6
 16 18  1  0
 16 17  1  0
 17  7  1  0
 18 19  2  0
 20 21  1  0
 21 23  1  0
 21 22  2  0
 23 24  1  0
 24 25  1  0
 26 25  1  0
 27 26  1  1
 28 27  1  0
 28 18  1  0
 29 27  1  0
 30 29  1  0
 31 29  2  0
M  END
$$$$
