IRR.pdb
     RDKit          3D

 31 30  0  0  1  0  0  0  0  0999 V2000
    6.3065  -11.6609   28.1405 C   0  0  0  0  0  0  0  0  0  0  0  0
    5.8061  -12.1137   26.7843 C   0  0  0  0  0  0  0  0  0  0  0  0
    6.8135  -12.9264   26.0378 C   0  0  2  0  0  0  0  0  0  0  0  0
    7.6944  -11.9724   25.2614 C   0  0  0  0  0  0  0  0  0  0  0  0
    6.2270  -14.0001   25.1752 C   0  0  2  0  0  0  0  0  0  0  0  0
    5.4351  -14.8639   26.0585 N   0  0  0  0  0  0  0  0  0  0  0  0
    7.1974  -14.8069   24.4476 C   0  0  0  0  0  0  0  0  0  0  0  0
    7.6966  -15.8274   24.9688 O   0  0  0  0  0  0  0  0  0  0  0  0
    8.1689  -12.9396   16.3525 N   0  0  0  0  0  0  0  0  0  0  0  0
    7.8662  -13.5345   17.6118 C   0  0  0  0  0  0  0  0  0  0  0  0
    7.0026  -12.9529   18.3777 N   0  0  0  0  0  0  0  0  0  0  0  0
    8.5296  -14.7409   17.9678 N   0  0  0  0  0  0  0  0  0  0  0  0
    9.7348  -14.6471   18.7495 C   0  0  0  0  0  0  0  0  0  0  0  0
    9.6110  -15.4245   20.0549 C   0  0  0  0  0  0  0  0  0  0  0  0
    8.7922  -14.6177   21.0105 C   0  0  0  0  0  0  0  0  0  0  0  0
    8.5013  -15.2785   22.3198 C   0  0  2  0  0  0  0  0  0  0  0  0
    7.5997  -14.4594   23.1370 N   0  0  0  0  0  0  0  0  0  0  0  0
    9.7238  -15.6208   23.1017 C   0  0  0  0  0  0  0  0  0  0  0  0
   10.4888  -14.7148   23.5452 O   0  0  0  0  0  0  0  0  0  0  0  0
    6.7682  -13.3658   19.3064 N   0  0  0  0  0  0  0  0  0  0  0  0
    8.3498  -21.5731   28.6679 C   0  0  0  0  0  0  0  0  0  0  0  0
    7.9590  -20.4482   27.8950 N   0  0  0  0  0  0  0  0  0  0  0  0
    6.7009  -20.2423   27.7149 N   0  0  0  0  0  0  0  0  0  0  0  0
    8.8893  -19.5467   27.3175 C   0  0  0  0  0  0  0  0  0  0  0  0
   10.3326  -19.6955   27.4016 C   0  0  0  0  0  0  0  0  0  0  0  0
   11.0611  -18.8679   26.4333 C   0  0  0  0  0  0  0  0  0  0  0  0
   10.4416  -18.2543   25.2782 C   0  0  2  0  0  0  0  0  0  0  0  0
   11.1255  -17.3415   24.3498 N   0  0  0  0  0  0  0  0  0  0  0  0
   10.0523  -16.9709   23.3627 C   0  0  0  0  0  0  0  0  0  0  0  0
   12.1638  -17.9588   23.4634 O   0  0  0  0  0  0  0  0  0  0  0  0
   11.8905  -18.3867   22.1627 O   0  0  0  0  0  0  0  0  0  0  0  0
  2  3  1  0
  2  1  1  0
  3  4  1  6
  5  6  1  1
  5  3  1  0
  7  8  2  0
  7  5  1  0
  9 10  1  0
 10 12  1  0
 11 10  2  0
 12 13  1  0
 13 14  1  0
 14 15  1  0
 16 15  1  6
 16 18  1  0
 16 17  1  0
 17  7  1  0
 18 19  2  0
 20 21  1  0
 21 23  1  0
 21 22  2  0
 23 24  1  0
 24 25  1  0
 26 25  1  0
 27 26  1  1
 28 27  1  0
 28 18  1  0
 29 27  1  0
 30 29  1  0
 31 29  2  0
M  END
$$$$
