IRR.pdb
     RDKit          3D

 31 30  0  0  1  0  0  0  0  0999 V2000
    6.2094  -10.5047   27.4390 C   0  0  0  0  0  0  0  0  0  0  0  0
    7.0745  -11.7263   27.2064 C   0  0  0  0  0  0  0  0  0  0  0  0
    6.6683  -12.5006   25.9948 C   0  0  2  0  0  0  0  0  0  0  0  0
    5.2137  -12.8838   26.1565 C   0  0  0  0  0  0  0  0  0  0  0  0
    7.5430  -13.6763   25.6889 C   0  0  2  0  0  0  0  0  0  0  0  0
    8.9295  -13.2213   25.8453 N   0  0  0  0  0  0  0  0  0  0  0  0
    7.3657  -14.2495   24.3615 C   0  0  0  0  0  0  0  0  0  0  0  0
    6.6731  -15.2772   24.1983 O   0  0  0  0  0  0  0  0  0  0  0  0
    8.2557  -14.7133   15.0797 N   0  0  0  0  0  0  0  0  0  0  0  0
    8.7812  -14.1930   16.2981 C   0  0  0  0  0  0  0  0  0  0  0  0
   10.0375  -14.3616   16.5505 N   0  0  0  0  0  0  0  0  0  0  0  0
    7.8977  -13.5125   17.1805 N   0  0  0  0  0  0  0  0  0  0  0  0
    8.4358  -12.9895   18.4091 C   0  0  0  0  0  0  0  0  0  0  0  0
    8.5172  -14.0687   19.4827 C   0  0  0  0  0  0  0  0  0  0  0  0
    8.1680  -13.4536   20.7996 C   0  0  0  0  0  0  0  0  0  0  0  0
    8.2132  -14.3816   21.9710 C   0  0  2  0  0  0  0  0  0  0  0  0
    7.9697  -13.6617   23.2257 N   0  0  0  0  0  0  0  0  0  0  0  0
    9.4821  -15.1582   22.0702 C   0  0  0  0  0  0  0  0  0  0  0  0
   10.5192  -14.6490   22.5878 O   0  0  0  0  0  0  0  0  0  0  0  0
   10.4242  -14.0849   17.4788 N   0  0  0  0  0  0  0  0  0  0  0  0
   11.3149  -18.4990   28.4474 C   0  0  0  0  0  0  0  0  0  0  0  0
   11.5691  -19.6630   27.6754 N   0  0  0  0  0  0  0  0  0  0  0  0
   11.5694  -20.8020   28.2758 N   0  0  0  0  0  0  0  0  0  0  0  0
   11.8197  -19.6251   26.2800 C   0  0  0  0  0  0  0  0  0  0  0  0
   11.6376  -18.4474   25.4481 C   0  0  0  0  0  0  0  0  0  0  0  0
   10.4744  -18.5369   24.5579 C   0  0  0  0  0  0  0  0  0  0  0  0
   10.1063  -17.5026   23.6149 C   0  0  1  0  0  0  0  0  0  0  0  0
   10.4819  -17.4967   22.1931 N   0  0  0  0  0  0  0  0  0  0  0  0
    9.5499  -16.4843   21.5849 C   0  0  0  0  0  0  0  0  0  0  0  0
   10.1464  -18.7339   21.4174 O   0  0  0  0  0  0  0  0  0  0  0  0
    8.9672  -18.8691   20.6820 O   0  0  0  0  0  0  0  0  0  0  0  0
  2  3  1  0
  2  1  1  0
  3  4  1  1
  5  6  1  6
  5  3  1  0
  7  8  2  0
  7  5  1  0
  9 10  1  0
 10 12  1  0
 11 10  2  0
 12 13  1  0
 13 14  1  0
 14 15  1  0
 16 15  1  6
 16 18  1  0
 16 17  1  0
 17  7  1  0
 18 19  2  0
 20 21  1  0
 21 23  1  0
 21 22  2  0
 23 24  1  0
 24 25  1  0
 26 25  1  0
 27 26  1  1
 28 27  1  0
 28 18  1  0
 29 27  1  0
 30 29  1  0
 31 29  2  0
M  END
$$$$
