IYR.pdb
     RDKit          3D

 32 32  0  0  1  0  0  0  0  0999 V2000
    6.2825  -18.0907   20.2333 C   0  0  0  0  0  0  0  0  0  0  0  0
    6.4183  -16.7124   20.8600 C   0  0  0  0  0  0  0  0  0  0  0  0
    7.1784  -15.7741   19.9815 C   0  0  2  0  0  0  0  0  0  0  0  0
    8.3815  -16.4270   19.3310 C   0  0  0  0  0  0  0  0  0  0  0  0
    7.4797  -14.4750   20.6144 C   0  0  2  0  0  0  0  0  0  0  0  0
    7.9804  -13.4856   19.6526 N   0  0  0  0  0  0  0  0  0  0  0  0
    8.3372  -14.4973   21.8195 C   0  0  0  0  0  0  0  0  0  0  0  0
    9.5714  -14.4642   21.7799 O   0  0  0  0  0  0  0  0  0  0  0  0
   10.7838  -15.2628   30.3690 O   0  0  0  0  0  0  0  0  0  0  0  0
   10.0365  -15.0490   29.1854 C   0  0  0  0  0  0  0  0  0  0  0  0
   10.0016  -13.8121   28.5952 C   0  0  0  0  0  0  0  0  0  0  0  0
    9.2693  -13.6043   27.4352 C   0  0  0  0  0  0  0  0  0  0  0  0
    8.5567  -14.6165   26.8354 C   0  0  0  0  0  0  0  0  0  0  0  0
    7.7923  -14.3680   25.5979 C   0  0  0  0  0  0  0  0  0  0  0  0
    8.4978  -14.7415   24.3300 C   0  0  2  0  0  0  0  0  0  0  0  0
    7.7585  -14.5624   23.1355 N   0  0  0  0  0  0  0  0  0  0  0  0
    9.1324  -16.0980   24.4192 C   0  0  0  0  0  0  0  0  0  0  0  0
    8.4972  -17.1576   24.1941 O   0  0  0  0  0  0  0  0  0  0  0  0
    8.6124  -15.8464   27.4530 C   0  0  0  0  0  0  0  0  0  0  0  0
    9.3328  -16.0744   28.6046 C   0  0  0  0  0  0  0  0  0  0  0  0
   11.8441  -18.7456   19.4696 N   0  0  0  0  0  0  0  0  0  0  0  0
   12.8006  -19.7401   19.8001 C   0  0  0  0  0  0  0  0  0  0  0  0
   12.8473  -20.8397   19.1296 N   0  0  0  0  0  0  0  0  0  0  0  0
   13.6906  -19.4990   20.8719 N   0  0  0  0  0  0  0  0  0  0  0  0
   13.5698  -18.3051   21.6776 C   0  0  0  0  0  0  0  0  0  0  0  0
   12.5694  -18.5056   22.7434 C   0  0  0  0  0  0  0  0  0  0  0  0
   12.2056  -17.4327   23.6652 C   0  0  0  0  0  0  0  0  0  0  0  0
   11.1613  -17.6045   24.6888 C   0  0  2  0  0  0  0  0  0  0  0  0
   10.4949  -16.2329   24.7675 N   0  0  0  0  0  0  0  0  0  0  0  0
   11.6003  -17.8255   26.0849 C   0  0  0  0  0  0  0  0  0  0  0  0
   12.0401  -18.9734   26.4707 O   0  0  0  0  0  0  0  0  0  0  0  0
   11.5695  -16.8402   27.0201 O   0  0  0  0  0  0  0  0  0  0  0  0
  2  1  1  0
  3  5  1  0
  3  2  1  0
  3  4  1  1
  5  6  1  6
  7  5  1  0
  8  7  2  0
  9 10  1  0
 10 11  2  0
 11 12  1  0
 13 12  2  0
 13 14  1  0
 15 14  1  1
 15 16  1  0
 16  7  1  0
 17 15  1  0
 18 17  2  0
 19 13  1  0
 20 10  1  0
 20 19  2  0
 21 22  1  0
 22 23  2  0
 22 24  1  0
 24 25  1  0
 26 25  1  0
 28 27  1  6
 27 26  1  0
 28 29  1  0
 29 17  1  0
 30 28  1  0
 31 30  2  0
 32 30  1  0
M  END
$$$$
