IYR.pdb
     RDKit          3D

 32 32  0  0  1  0  0  0  0  0999 V2000
    6.1102  -12.1102   18.7233 C   0  0  0  0  0  0  0  0  0  0  0  0
    6.4032  -13.5166   19.2205 C   0  0  0  0  0  0  0  0  0  0  0  0
    7.4984  -13.5310   20.2355 C   0  0  2  0  0  0  0  0  0  0  0  0
    8.7336  -12.7840   19.7738 C   0  0  0  0  0  0  0  0  0  0  0  0
    7.7872  -14.8710   20.7837 C   0  0  2  0  0  0  0  0  0  0  0  0
    6.5717  -15.6702   20.9798 N   0  0  0  0  0  0  0  0  0  0  0  0
    8.6418  -14.9339   21.9894 C   0  0  0  0  0  0  0  0  0  0  0  0
    9.8583  -14.7198   21.9757 O   0  0  0  0  0  0  0  0  0  0  0  0
   11.0519  -14.9480   30.5553 O   0  0  0  0  0  0  0  0  0  0  0  0
   10.2925  -15.0057   29.3615 C   0  0  0  0  0  0  0  0  0  0  0  0
    9.9667  -13.8587   28.6848 C   0  0  0  0  0  0  0  0  0  0  0  0
    9.2230  -13.9169   27.5149 C   0  0  0  0  0  0  0  0  0  0  0  0
    8.7867  -15.1114   26.9907 C   0  0  0  0  0  0  0  0  0  0  0  0
    8.0031  -15.1434   25.7407 C   0  0  0  0  0  0  0  0  0  0  0  0
    8.8124  -15.2793   24.4873 C   0  0  2  0  0  0  0  0  0  0  0  0
    8.0817  -15.2592   23.2744 N   0  0  0  0  0  0  0  0  0  0  0  0
    9.7759  -16.4269   24.5627 C   0  0  0  0  0  0  0  0  0  0  0  0
    9.4051  -17.6254   24.5096 O   0  0  0  0  0  0  0  0  0  0  0  0
    9.1306  -16.2445   27.6942 C   0  0  0  0  0  0  0  0  0  0  0  0
    9.8678  -16.2095   28.8571 C   0  0  0  0  0  0  0  0  0  0  0  0
   18.1140  -16.4332   23.4646 N   0  0  0  0  0  0  0  0  0  0  0  0
   17.8954  -17.7592   23.0097 C   0  0  0  0  0  0  0  0  0  0  0  0
   18.8733  -18.5975   22.9683 N   0  0  0  0  0  0  0  0  0  0  0  0
   16.5933  -18.1343   22.6059 N   0  0  0  0  0  0  0  0  0  0  0  0
   15.5062  -17.1824   22.6423 C   0  0  0  0  0  0  0  0  0  0  0  0
   14.4484  -17.6481   23.5595 C   0  0  0  0  0  0  0  0  0  0  0  0
   13.2281  -16.8758   23.7777 C   0  0  0  0  0  0  0  0  0  0  0  0
   12.1353  -17.3689   24.6323 C   0  0  2  0  0  0  0  0  0  0  0  0
   11.1626  -16.1937   24.6995 N   0  0  0  0  0  0  0  0  0  0  0  0
   12.4390  -17.6125   26.0602 C   0  0  0  0  0  0  0  0  0  0  0  0
   12.5412  -16.6367   26.8951 O   0  0  0  0  0  0  0  0  0  0  0  0
   12.6173  -18.8630   26.5612 O   0  0  0  0  0  0  0  0  0  0  0  0
  2  1  1  0
  3  5  1  0
  3  2  1  0
  3  4  1  6
  5  6  1  1
  7  5  1  0
  8  7  2  0
  9 10  1  0
 10 11  2  0
 11 12  1  0
 13 12  2  0
 13 14  1  0
 15 14  1  1
 15 16  1  0
 16  7  1  0
 17 15  1  0
 18 17  2  0
 19 13  1  0
 20 10  1  0
 20 19  2  0
 21 22  1  0
 22 23  2  0
 22 24  1  0
 24 25  1  0
 26 25  1  0
 28 27  1  6
 27 26  1  0
 28 29  1  0
 29 17  1  0
 30 28  1  0
 31 30  2  0
 32 30  1  0
M  END
$$$$
