IYR.pdb
     RDKit          3D

 32 32  0  0  1  0  0  0  0  0999 V2000
    6.5317  -12.4336   17.9820 C   0  0  0  0  0  0  0  0  0  0  0  0
    7.2426  -13.6714   18.5050 C   0  0  0  0  0  0  0  0  0  0  0  0
    7.6808  -13.5041   19.9227 C   0  0  2  0  0  0  0  0  0  0  0  0
    8.5038  -12.2496   20.1363 C   0  0  0  0  0  0  0  0  0  0  0  0
    8.2866  -14.7165   20.5078 C   0  0  2  0  0  0  0  0  0  0  0  0
    7.3939  -15.8795   20.4363 N   0  0  0  0  0  0  0  0  0  0  0  0
    8.8596  -14.5931   21.8659 C   0  0  0  0  0  0  0  0  0  0  0  0
    9.9730  -14.1100   22.0958 O   0  0  0  0  0  0  0  0  0  0  0  0
    9.4867  -14.1626   30.7227 O   0  0  0  0  0  0  0  0  0  0  0  0
    9.0013  -14.2863   29.3983 C   0  0  0  0  0  0  0  0  0  0  0  0
    8.8313  -13.1773   28.6104 C   0  0  0  0  0  0  0  0  0  0  0  0
    8.3560  -13.3001   27.3126 C   0  0  0  0  0  0  0  0  0  0  0  0
    8.0396  -14.5228   26.7680 C   0  0  0  0  0  0  0  0  0  0  0  0
    7.5426  -14.6238   25.3822 C   0  0  0  0  0  0  0  0  0  0  0  0
    8.5865  -14.9386   24.3547 C   0  0  2  0  0  0  0  0  0  0  0  0
    8.1272  -15.0450   23.0193 N   0  0  0  0  0  0  0  0  0  0  0  0
    9.4460  -16.0981   24.7644 C   0  0  0  0  0  0  0  0  0  0  0  0
    9.9553  -16.1911   25.9084 O   0  0  0  0  0  0  0  0  0  0  0  0
    8.2216  -15.6165   27.5852 C   0  0  0  0  0  0  0  0  0  0  0  0
    8.6919  -15.5173   28.8760 C   0  0  0  0  0  0  0  0  0  0  0  0
    9.9401  -21.1855   18.2581 N   0  0  0  0  0  0  0  0  0  0  0  0
   10.3273  -19.8212   18.2149 C   0  0  0  0  0  0  0  0  0  0  0  0
   10.3956  -19.2045   17.0853 N   0  0  0  0  0  0  0  0  0  0  0  0
   10.6342  -19.1621   19.4274 N   0  0  0  0  0  0  0  0  0  0  0  0
   10.4950  -19.8440   20.6942 C   0  0  0  0  0  0  0  0  0  0  0  0
   10.6850  -18.8966   21.8093 C   0  0  0  0  0  0  0  0  0  0  0  0
   10.4589  -19.2909   23.1973 C   0  0  0  0  0  0  0  0  0  0  0  0
   10.5698  -18.3315   24.3086 C   0  0  2  0  0  0  0  0  0  0  0  0
    9.7182  -17.1470   23.8578 N   0  0  0  0  0  0  0  0  0  0  0  0
   11.8895  -17.7038   24.5426 C   0  0  0  0  0  0  0  0  0  0  0  0
   12.2646  -16.6715   23.8692 O   0  0  0  0  0  0  0  0  0  0  0  0
   12.7618  -18.1729   25.4730 O   0  0  0  0  0  0  0  0  0  0  0  0
  2  1  1  0
  3  5  1  0
  3  2  1  0
  3  4  1  6
  5  6  1  1
  7  5  1  0
  8  7  2  0
  9 10  1  0
 10 11  2  0
 11 12  1  0
 13 12  2  0
 13 14  1  0
 15 14  1  1
 15 16  1  0
 16  7  1  0
 17 15  1  0
 18 17  2  0
 19 13  1  0
 20 10  1  0
 20 19  2  0
 21 22  1  0
 22 23  2  0
 22 24  1  0
 24 25  1  0
 26 25  1  0
 28 27  1  6
 27 26  1  0
 28 29  1  0
 29 17  1  0
 30 28  1  0
 31 30  2  0
 32 30  1  0
M  END
$$$$
