IYR.pdb
     RDKit          3D

 32 32  0  0  1  0  0  0  0  0999 V2000
    7.2051  -10.9294   25.9983 C   0  0  0  0  0  0  0  0  0  0  0  0
    7.7010  -12.3573   25.8364 C   0  0  0  0  0  0  0  0  0  0  0  0
    6.5748  -13.3190   25.6446 C   0  0  2  0  0  0  0  0  0  0  0  0
    5.4675  -13.1335   26.6626 C   0  0  0  0  0  0  0  0  0  0  0  0
    7.0072  -14.7218   25.4891 C   0  0  2  0  0  0  0  0  0  0  0  0
    8.0272  -15.1063   26.4722 N   0  0  0  0  0  0  0  0  0  0  0  0
    7.4135  -15.1536   24.1339 C   0  0  0  0  0  0  0  0  0  0  0  0
    6.6198  -15.3075   23.1999 O   0  0  0  0  0  0  0  0  0  0  0  0
    6.2477  -12.4610   17.8625 O   0  0  0  0  0  0  0  0  0  0  0  0
    7.1392  -12.9840   18.8303 C   0  0  0  0  0  0  0  0  0  0  0  0
    7.2394  -14.3368   19.0288 C   0  0  0  0  0  0  0  0  0  0  0  0
    8.1138  -14.8478   19.9772 C   0  0  0  0  0  0  0  0  0  0  0  0
    8.9072  -14.0306   20.7483 C   0  0  0  0  0  0  0  0  0  0  0  0
    9.8332  -14.6026   21.7446 C   0  0  0  0  0  0  0  0  0  0  0  0
    9.2827  -15.7470   22.5395 C   0  0  2  0  0  0  0  0  0  0  0  0
    8.7934  -15.4252   23.8289 N   0  0  0  0  0  0  0  0  0  0  0  0
   10.2153  -16.9221   22.5519 C   0  0  0  0  0  0  0  0  0  0  0  0
    9.9804  -17.9783   21.9146 O   0  0  0  0  0  0  0  0  0  0  0  0
    8.7827  -12.6772   20.5244 C   0  0  0  0  0  0  0  0  0  0  0  0
    7.9212  -12.1488   19.5885 C   0  0  0  0  0  0  0  0  0  0  0  0
   12.9004  -14.6897   19.2703 N   0  0  0  0  0  0  0  0  0  0  0  0
   14.2870  -14.9356   19.0973 C   0  0  0  0  0  0  0  0  0  0  0  0
   15.0816  -13.9680   18.7920 N   0  0  0  0  0  0  0  0  0  0  0  0
   14.7706  -16.2536   19.2648 N   0  0  0  0  0  0  0  0  0  0  0  0
   13.8838  -17.3190   19.6742 C   0  0  0  0  0  0  0  0  0  0  0  0
   13.5701  -17.2004   21.1111 C   0  0  0  0  0  0  0  0  0  0  0  0
   12.7046  -18.1620   21.7889 C   0  0  0  0  0  0  0  0  0  0  0  0
   12.3902  -18.0528   23.2231 C   0  0  2  0  0  0  0  0  0  0  0  0
   11.4149  -16.8802   23.2971 N   0  0  0  0  0  0  0  0  0  0  0  0
   13.4761  -17.6213   24.1315 C   0  0  0  0  0  0  0  0  0  0  0  0
   13.5122  -16.4234   24.6041 O   0  0  0  0  0  0  0  0  0  0  0  0
   14.4761  -18.4573   24.5157 O   0  0  0  0  0  0  0  0  0  0  0  0
  2  1  1  0
  3  5  1  0
  3  2  1  0
  3  4  1  1
  5  6  1  1
  7  5  1  0
  8  7  2  0
  9 10  1  0
 10 11  2  0
 11 12  1  0
 13 12  2  0
 13 14  1  0
 15 14  1  1
 15 16  1  0
 16  7  1  0
 17 15  1  0
 18 17  2  0
 19 13  1  0
 20 10  1  0
 20 19  2  0
 21 22  1  0
 22 23  2  0
 22 24  1  0
 24 25  1  0
 26 25  1  0
 28 27  1  6
 27 26  1  0
 28 29  1  0
 29 17  1  0
 30 28  1  0
 31 30  2  0
 32 30  1  0
M  END
$$$$
