IYR.pdb
     RDKit          3D

 32 32  0  0  1  0  0  0  0  0999 V2000
    5.9116  -17.3981   18.3130 C   0  0  0  0  0  0  0  0  0  0  0  0
    5.5847  -17.1945   19.7837 C   0  0  0  0  0  0  0  0  0  0  0  0
    6.6863  -16.4917   20.5064 C   0  0  2  0  0  0  0  0  0  0  0  0
    8.0469  -17.1013   20.2340 C   0  0  0  0  0  0  0  0  0  0  0  0
    6.4135  -16.2690   21.9400 C   0  0  2  0  0  0  0  0  0  0  0  0
    5.1054  -15.6444   22.1713 N   0  0  0  0  0  0  0  0  0  0  0  0
    7.4586  -15.5743   22.7231 C   0  0  0  0  0  0  0  0  0  0  0  0
    7.6556  -14.3560   22.6687 O   0  0  0  0  0  0  0  0  0  0  0  0
    5.4213  -11.5807   27.1937 O   0  0  0  0  0  0  0  0  0  0  0  0
    6.3717  -12.5670   26.8346 C   0  0  0  0  0  0  0  0  0  0  0  0
    7.6664  -12.2181   26.5486 C   0  0  0  0  0  0  0  0  0  0  0  0
    8.5966  -13.1857   26.1973 C   0  0  0  0  0  0  0  0  0  0  0  0
    8.2648  -14.5184   26.1221 C   0  0  0  0  0  0  0  0  0  0  0  0
    9.2771  -15.5265   25.7525 C   0  0  0  0  0  0  0  0  0  0  0  0
    9.4414  -15.7510   24.2804 C   0  0  2  0  0  0  0  0  0  0  0  0
    8.3234  -16.3055   23.6110 N   0  0  0  0  0  0  0  0  0  0  0  0
   10.7202  -16.4677   23.9610 C   0  0  0  0  0  0  0  0  0  0  0  0
   10.7675  -17.7048   23.7511 O   0  0  0  0  0  0  0  0  0  0  0  0
    6.9569  -14.8356   26.4152 C   0  0  0  0  0  0  0  0  0  0  0  0
    6.0176  -13.8913   26.7659 C   0  0  0  0  0  0  0  0  0  0  0  0
   10.0564  -14.8740   17.2281 N   0  0  0  0  0  0  0  0  0  0  0  0
   10.2113  -13.7612   18.0945 C   0  0  0  0  0  0  0  0  0  0  0  0
    9.8182  -12.5920   17.7210 N   0  0  0  0  0  0  0  0  0  0  0  0
   10.8018  -13.9632   19.3631 N   0  0  0  0  0  0  0  0  0  0  0  0
   11.4010  -15.2335   19.7047 C   0  0  0  0  0  0  0  0  0  0  0  0
   11.9204  -15.1999   21.0853 C   0  0  0  0  0  0  0  0  0  0  0  0
   12.5716  -16.3600   21.6879 C   0  0  0  0  0  0  0  0  0  0  0  0
   13.0943  -16.3337   23.0641 C   0  0  2  0  0  0  0  0  0  0  0  0
   11.9409  -15.7606   23.8843 N   0  0  0  0  0  0  0  0  0  0  0  0
   14.1953  -15.3901   23.3607 C   0  0  0  0  0  0  0  0  0  0  0  0
   14.0397  -14.4296   24.2051 O   0  0  0  0  0  0  0  0  0  0  0  0
   15.4153  -15.4897   22.7706 O   0  0  0  0  0  0  0  0  0  0  0  0
  2  1  1  0
  3  5  1  0
  3  2  1  0
  3  4  1  1
  5  6  1  6
  7  5  1  0
  8  7  2  0
  9 10  1  0
 10 11  2  0
 11 12  1  0
 13 12  2  0
 13 14  1  0
 15 14  1  1
 15 16  1  0
 16  7  1  0
 17 15  1  0
 18 17  2  0
 19 13  1  0
 20 10  1  0
 20 19  2  0
 21 22  1  0
 22 23  2  0
 22 24  1  0
 24 25  1  0
 26 25  1  0
 28 27  1  6
 27 26  1  0
 28 29  1  0
 29 17  1  0
 30 28  1  0
 31 30  2  0
 32 30  1  0
M  END
$$$$
