DDN.pdb
     RDKit          3D

 25 24  0  0  1  0  0  0  0  0999 V2000
   17.1030  -11.9609  -16.9482 N   0  0  0  0  0  0  0  0  0  0  0  0
   16.8696  -11.5048  -15.6026 C   0  0  1  0  0  0  0  0  0  0  0  0
   17.0055  -12.7437  -14.7062 C   0  0  0  0  0  0  0  0  0  0  0  0
   15.8607  -13.6156  -15.0091 C   0  0  0  0  0  0  0  0  0  0  0  0
   14.7422  -13.4355  -14.4756 O   0  0  0  0  0  0  0  0  0  0  0  0
   17.8935  -10.5057  -15.1676 C   0  0  0  0  0  0  0  0  0  0  0  0
   17.8110  -10.0045  -14.0169 O   0  0  0  0  0  0  0  0  0  0  0  0
   16.0087  -14.6597  -15.9000 O   0  0  0  0  0  0  0  0  0  0  0  0
   18.9591  -10.0900  -15.9876 N   0  0  0  0  0  0  0  0  0  0  0  0
   19.8348   -8.9712  -15.5781 C   0  0  1  0  0  0  0  0  0  0  0  0
   21.2586   -9.4445  -15.6518 C   0  0  0  0  0  0  0  0  0  0  0  0
   22.2524   -8.4074  -15.3520 C   0  0  0  0  0  0  0  0  0  0  0  0
   22.0380   -7.6549  -14.3614 O   0  0  0  0  0  0  0  0  0  0  0  0
   19.5167   -7.7876  -16.3891 C   0  0  0  0  0  0  0  0  0  0  0  0
   18.7344   -7.9853  -17.3939 O   0  0  0  0  0  0  0  0  0  0  0  0
   23.3744   -8.2839  -16.1453 O   0  0  0  0  0  0  0  0  0  0  0  0
   16.5431   -3.3367  -17.1510 N   0  0  0  0  0  0  0  0  0  0  0  0
   17.4354   -4.2465  -17.7552 C   0  0  0  0  0  0  0  0  0  0  0  0
   17.7530   -4.1514  -18.9749 O   0  0  0  0  0  0  0  0  0  0  0  0
   18.0136   -5.3348  -16.9497 C   0  0  0  0  0  0  0  0  0  0  0  0
   19.5301   -5.3503  -16.9455 C   0  0  2  0  0  0  0  0  0  0  0  0
   19.9889   -6.4728  -16.1571 N   0  0  0  0  0  0  0  0  0  0  0  0
   20.1312   -4.0662  -16.5348 C   0  0  0  0  0  0  0  0  0  0  0  0
   20.8941   -3.9383  -15.3885 O   0  0  0  0  0  0  0  0  0  0  0  0
   19.9625   -3.0351  -17.2282 O   0  0  0  0  0  0  0  0  0  0  0  0
  2  1  1  6
  2  6  1  0
  3  2  1  0
  4  3  1  0
  4  8  1  0
  5  4  2  0
  6  7  2  0
  9  6  1  0
  9 10  1  0
 10 14  1  0
 10 11  1  6
 12 16  1  0
 12 11  1  0
 13 12  2  0
 14 15  2  0
 14 22  1  0
 18 19  2  0
 18 17  1  0
 21 20  1  1
 20 18  1  0
 21 23  1  0
 22 21  1  0
 23 24  1  0
 25 23  2  0
M  END
$$$$
