DDN.pdb
     RDKit          3D

 25 24  0  0  1  0  0  0  0  0999 V2000
   13.8996  -10.3898  -13.2538 N   0  0  0  0  0  0  0  0  0  0  0  0
   15.1377  -10.3951  -12.5187 C   0  0  1  0  0  0  0  0  0  0  0  0
   16.1772  -11.0420  -13.4450 C   0  0  0  0  0  0  0  0  0  0  0  0
   15.8618  -12.4772  -13.5016 C   0  0  0  0  0  0  0  0  0  0  0  0
   15.0420  -12.9984  -12.7113 O   0  0  0  0  0  0  0  0  0  0  0  0
   15.6020   -9.0101  -12.1998 C   0  0  0  0  0  0  0  0  0  0  0  0
   15.3142   -8.0707  -12.9852 O   0  0  0  0  0  0  0  0  0  0  0  0
   16.4761  -13.2793  -14.4423 O   0  0  0  0  0  0  0  0  0  0  0  0
   16.3543   -8.6964  -11.0524 N   0  0  0  0  0  0  0  0  0  0  0  0
   16.9017   -7.3369  -10.8570 C   0  0  1  0  0  0  0  0  0  0  0  0
   16.6943   -6.9548   -9.4191 C   0  0  0  0  0  0  0  0  0  0  0  0
   17.2800   -5.6606   -9.0512 C   0  0  0  0  0  0  0  0  0  0  0  0
   18.4864   -5.6444   -8.6798 O   0  0  0  0  0  0  0  0  0  0  0  0
   18.2935   -7.3046  -11.3279 C   0  0  0  0  0  0  0  0  0  0  0  0
   19.1094   -8.1055  -10.7332 O   0  0  0  0  0  0  0  0  0  0  0  0
   16.5119   -4.5166   -9.1196 O   0  0  0  0  0  0  0  0  0  0  0  0
   22.1092   -6.9629  -15.7890 N   0  0  0  0  0  0  0  0  0  0  0  0
   21.7689   -7.3491  -14.4760 C   0  0  0  0  0  0  0  0  0  0  0  0
   22.6377   -7.7843  -13.6676 O   0  0  0  0  0  0  0  0  0  0  0  0
   20.3692   -7.2444  -14.0315 C   0  0  0  0  0  0  0  0  0  0  0  0
   20.1990   -6.4907  -12.7265 C   0  0  2  0  0  0  0  0  0  0  0  0
   18.7987   -6.4828  -12.3647 N   0  0  0  0  0  0  0  0  0  0  0  0
   20.8041   -5.1444  -12.7407 C   0  0  0  0  0  0  0  0  0  0  0  0
   22.1640   -4.9416  -12.5924 O   0  0  0  0  0  0  0  0  0  0  0  0
   20.0866   -4.1268  -12.8901 O   0  0  0  0  0  0  0  0  0  0  0  0
  2  1  1  6
  2  6  1  0
  3  2  1  0
  4  3  1  0
  4  8  1  0
  5  4  2  0
  6  7  2  0
  9  6  1  0
  9 10  1  0
 10 14  1  0
 10 11  1  1
 12 16  1  0
 12 11  1  0
 13 12  2  0
 14 15  2  0
 14 22  1  0
 18 19  2  0
 18 17  1  0
 21 20  1  6
 20 18  1  0
 21 23  1  0
 22 21  1  0
 23 24  1  0
 25 23  2  0
M  END
$$$$
