DDN.pdb
     RDKit          3D

 25 24  0  0  1  0  0  0  0  0999 V2000
   19.8753  -10.5757  -17.2481 N   0  0  0  0  0  0  0  0  0  0  0  0
   19.3880  -10.2504  -15.9329 C   0  0  1  0  0  0  0  0  0  0  0  0
   19.7863  -11.4273  -15.0309 C   0  0  0  0  0  0  0  0  0  0  0  0
   18.9703  -12.5775  -15.4474 C   0  0  0  0  0  0  0  0  0  0  0  0
   18.1100  -12.4760  -16.3517 O   0  0  0  0  0  0  0  0  0  0  0  0
   20.0315   -9.0146  -15.3903 C   0  0  0  0  0  0  0  0  0  0  0  0
   19.6999   -8.6007  -14.2498 O   0  0  0  0  0  0  0  0  0  0  0  0
   19.1463  -13.8025  -14.8358 O   0  0  0  0  0  0  0  0  0  0  0  0
   21.0014   -8.2792  -16.0968 N   0  0  0  0  0  0  0  0  0  0  0  0
   21.6098   -7.0685  -15.5051 C   0  0  1  0  0  0  0  0  0  0  0  0
   23.0321   -6.9831  -15.9810 C   0  0  0  0  0  0  0  0  0  0  0  0
   23.7561   -5.8005  -15.5007 C   0  0  0  0  0  0  0  0  0  0  0  0
   24.3339   -5.0755  -16.3575 O   0  0  0  0  0  0  0  0  0  0  0  0
   20.7666   -5.9048  -15.8130 C   0  0  0  0  0  0  0  0  0  0  0  0
   20.5342   -5.6908  -17.0624 O   0  0  0  0  0  0  0  0  0  0  0  0
   23.7858   -5.5167  -14.1509 O   0  0  0  0  0  0  0  0  0  0  0  0
   17.5630   -5.2631  -16.5968 N   0  0  0  0  0  0  0  0  0  0  0  0
   17.1525   -4.5974  -15.4233 C   0  0  0  0  0  0  0  0  0  0  0  0
   15.9639   -4.6738  -15.0001 O   0  0  0  0  0  0  0  0  0  0  0  0
   18.1283   -3.7930  -14.6695 C   0  0  0  0  0  0  0  0  0  0  0  0
   19.5215   -3.8065  -15.2686 C   0  0  2  0  0  0  0  0  0  0  0  0
   20.1975   -5.0198  -14.8652 N   0  0  0  0  0  0  0  0  0  0  0  0
   20.2981   -2.5845  -14.9814 C   0  0  0  0  0  0  0  0  0  0  0  0
   20.1981   -1.4437  -15.7568 O   0  0  0  0  0  0  0  0  0  0  0  0
   21.0863   -2.5469  -14.0068 O   0  0  0  0  0  0  0  0  0  0  0  0
  2  1  1  6
  2  6  1  0
  3  2  1  0
  4  3  1  0
  4  8  1  0
  5  4  2  0
  6  7  2  0
  9  6  1  0
  9 10  1  0
 10 14  1  0
 10 11  1  6
 12 16  1  0
 12 11  1  0
 13 12  2  0
 14 15  2  0
 14 22  1  0
 18 19  2  0
 18 17  1  0
 21 20  1  1
 20 18  1  0
 21 23  1  0
 22 21  1  0
 23 24  1  0
 25 23  2  0
M  END
$$$$
