DDN.pdb
     RDKit          3D

 25 24  0  0  1  0  0  0  0  0999 V2000
   16.4760  -15.4741  -15.9606 N   0  0  0  0  0  0  0  0  0  0  0  0
   16.2112  -14.0701  -16.1385 C   0  0  1  0  0  0  0  0  0  0  0  0
   15.5866  -13.5871  -14.8218 C   0  0  0  0  0  0  0  0  0  0  0  0
   14.2665  -14.2265  -14.7175 C   0  0  0  0  0  0  0  0  0  0  0  0
   13.2616  -13.7501  -15.2932 O   0  0  0  0  0  0  0  0  0  0  0  0
   17.4668  -13.2910  -16.3669 C   0  0  0  0  0  0  0  0  0  0  0  0
   18.4675  -13.8716  -16.8604 O   0  0  0  0  0  0  0  0  0  0  0  0
   14.1178  -15.3784  -13.9713 O   0  0  0  0  0  0  0  0  0  0  0  0
   17.5911  -11.9242  -16.0550 N   0  0  0  0  0  0  0  0  0  0  0  0
   18.7591  -11.1467  -16.5212 C   0  0  1  0  0  0  0  0  0  0  0  0
   18.8074  -11.2343  -18.0201 C   0  0  0  0  0  0  0  0  0  0  0  0
   19.8840  -10.4480  -18.6332 C   0  0  0  0  0  0  0  0  0  0  0  0
   19.5575   -9.4819  -19.3772 O   0  0  0  0  0  0  0  0  0  0  0  0
   18.6865   -9.7875  -15.9669 C   0  0  0  0  0  0  0  0  0  0  0  0
   17.5685   -9.1687  -16.1337 O   0  0  0  0  0  0  0  0  0  0  0  0
   21.2004  -10.7784  -18.3854 O   0  0  0  0  0  0  0  0  0  0  0  0
   22.2966   -8.1808  -14.7571 N   0  0  0  0  0  0  0  0  0  0  0  0
   21.7056   -8.0230  -13.4864 C   0  0  0  0  0  0  0  0  0  0  0  0
   22.3792   -8.1421  -12.4235 O   0  0  0  0  0  0  0  0  0  0  0  0
   20.2698   -7.7119  -13.3906 C   0  0  0  0  0  0  0  0  0  0  0  0
   19.5380   -7.7974  -14.7162 C   0  0  2  0  0  0  0  0  0  0  0  0
   19.7252   -9.1183  -15.2749 N   0  0  0  0  0  0  0  0  0  0  0  0
   19.8899   -6.7135  -15.6543 C   0  0  0  0  0  0  0  0  0  0  0  0
   20.4620   -6.9591  -16.8892 O   0  0  0  0  0  0  0  0  0  0  0  0
   19.6758   -5.5158  -15.3506 O   0  0  0  0  0  0  0  0  0  0  0  0
  2  1  1  1
  2  6  1  0
  3  2  1  0
  4  3  1  0
  4  8  1  0
  5  4  2  0
  6  7  2  0
  9  6  1  0
  9 10  1  0
 10 14  1  0
 10 11  1  6
 12 16  1  0
 12 11  1  0
 13 12  2  0
 14 15  2  0
 14 22  1  0
 18 19  2  0
 18 17  1  0
 21 20  1  1
 20 18  1  0
 21 23  1  0
 22 21  1  0
 23 24  1  0
 25 23  2  0
M  END
$$$$
