DDN.pdb
     RDKit          3D

 25 24  0  0  1  0  0  0  0  0999 V2000
   14.9371  -12.5138  -14.7183 N   0  0  0  0  0  0  0  0  0  0  0  0
   15.1809  -11.1308  -15.0360 C   0  0  1  0  0  0  0  0  0  0  0  0
   14.6819  -10.3247  -13.8284 C   0  0  0  0  0  0  0  0  0  0  0  0
   13.2206  -10.2239  -13.9589 C   0  0  0  0  0  0  0  0  0  0  0  0
   12.6050  -10.8023  -14.8834 O   0  0  0  0  0  0  0  0  0  0  0  0
   16.6388  -10.8478  -15.2093 C   0  0  0  0  0  0  0  0  0  0  0  0
   17.4696  -11.4345  -14.4693 O   0  0  0  0  0  0  0  0  0  0  0  0
   12.4992   -9.4779  -13.0486 O   0  0  0  0  0  0  0  0  0  0  0  0
   17.1386   -9.9478  -16.1690 N   0  0  0  0  0  0  0  0  0  0  0  0
   18.5932   -9.8254  -16.4038 C   0  0  1  0  0  0  0  0  0  0  0  0
   18.8431  -10.0031  -17.8744 C   0  0  0  0  0  0  0  0  0  0  0  0
   20.2452   -9.8289  -18.2706 C   0  0  0  0  0  0  0  0  0  0  0  0
   21.1340  -10.3292  -17.5266 O   0  0  0  0  0  0  0  0  0  0  0  0
   19.0705   -8.5606  -15.8272 C   0  0  0  0  0  0  0  0  0  0  0  0
   18.2307   -7.5832  -15.8371 O   0  0  0  0  0  0  0  0  0  0  0  0
   20.5503   -9.1364  -19.4242 O   0  0  0  0  0  0  0  0  0  0  0  0
   21.7849   -4.6750  -13.7438 N   0  0  0  0  0  0  0  0  0  0  0  0
   22.0369   -5.8593  -13.0207 C   0  0  0  0  0  0  0  0  0  0  0  0
   22.7147   -5.8521  -11.9539 O   0  0  0  0  0  0  0  0  0  0  0  0
   21.4993   -7.1371  -13.5164 C   0  0  0  0  0  0  0  0  0  0  0  0
   20.7764   -7.0199  -14.8445 C   0  0  2  0  0  0  0  0  0  0  0  0
   20.3527   -8.3358  -15.2695 N   0  0  0  0  0  0  0  0  0  0  0  0
   21.5487   -6.2965  -15.8736 C   0  0  0  0  0  0  0  0  0  0  0  0
   21.7870   -4.9362  -15.8013 O   0  0  0  0  0  0  0  0  0  0  0  0
   22.0189   -6.9082  -16.8622 O   0  0  0  0  0  0  0  0  0  0  0  0
  2  1  1  1
  2  6  1  0
  3  2  1  0
  4  3  1  0
  4  8  1  0
  5  4  2  0
  6  7  2  0
  9  6  1  0
  9 10  1  0
 10 14  1  0
 10 11  1  6
 12 16  1  0
 12 11  1  0
 13 12  2  0
 14 15  2  0
 14 22  1  0
 18 19  2  0
 18 17  1  0
 21 20  1  1
 20 18  1  0
 21 23  1  0
 22 21  1  0
 23 24  1  0
 25 23  2  0
M  END
$$$$
