DDN.pdb
     RDKit          3D

 25 24  0  0  1  0  0  0  0  0999 V2000
   18.8069  -10.5853  -14.8627 N   0  0  0  0  0  0  0  0  0  0  0  0
   17.5318   -9.9428  -14.6774 C   0  0  1  0  0  0  0  0  0  0  0  0
   16.5641  -11.0454  -14.2247 C   0  0  0  0  0  0  0  0  0  0  0  0
   16.2804  -11.8737  -15.4062 C   0  0  0  0  0  0  0  0  0  0  0  0
   16.9949  -11.8151  -16.4329 O   0  0  0  0  0  0  0  0  0  0  0  0
   17.5824   -8.9037  -13.6035 C   0  0  0  0  0  0  0  0  0  0  0  0
   18.2752   -9.1173  -12.5756 O   0  0  0  0  0  0  0  0  0  0  0  0
   15.2052  -12.7395  -15.3965 O   0  0  0  0  0  0  0  0  0  0  0  0
   16.8871   -7.6826  -13.6817 N   0  0  0  0  0  0  0  0  0  0  0  0
   17.0081   -6.6747  -12.6067 C   0  0  1  0  0  0  0  0  0  0  0  0
   17.0802   -5.3180  -13.2476 C   0  0  0  0  0  0  0  0  0  0  0  0
   17.1363   -4.2051  -12.2929 C   0  0  0  0  0  0  0  0  0  0  0  0
   17.0819   -3.0309  -12.7533 O   0  0  0  0  0  0  0  0  0  0  0  0
   15.9151   -6.8638  -11.6425 C   0  0  0  0  0  0  0  0  0  0  0  0
   14.7209   -6.7826  -12.1198 O   0  0  0  0  0  0  0  0  0  0  0  0
   17.2447   -4.4655  -10.9424 O   0  0  0  0  0  0  0  0  0  0  0  0
   12.5044   -7.5970   -8.0940 N   0  0  0  0  0  0  0  0  0  0  0  0
   13.4208   -8.6687   -8.1173 C   0  0  0  0  0  0  0  0  0  0  0  0
   13.1782   -9.7603   -7.5280 O   0  0  0  0  0  0  0  0  0  0  0  0
   14.6920   -8.5172   -8.8444 C   0  0  0  0  0  0  0  0  0  0  0  0
   14.9382   -7.1103   -9.3545 C   0  0  2  0  0  0  0  0  0  0  0  0
   16.0666   -7.1266  -10.2592 N   0  0  0  0  0  0  0  0  0  0  0  0
   15.0691   -6.1081   -8.2788 C   0  0  0  0  0  0  0  0  0  0  0  0
   13.9804   -5.6395   -7.5663 O   0  0  0  0  0  0  0  0  0  0  0  0
   16.1941   -5.6444   -7.9758 O   0  0  0  0  0  0  0  0  0  0  0  0
  2  1  1  1
  2  6  1  0
  3  2  1  0
  4  3  1  0
  4  8  1  0
  5  4  2  0
  6  7  2  0
  9  6  1  0
  9 10  1  0
 10 14  1  0
 10 11  1  6
 12 16  1  0
 12 11  1  0
 13 12  2  0
 14 15  2  0
 14 22  1  0
 18 19  2  0
 18 17  1  0
 21 20  1  1
 20 18  1  0
 21 23  1  0
 22 21  1  0
 23 24  1  0
 25 23  2  0
M  END
$$$$
