DDN.pdb
     RDKit          3D

 25 24  0  0  1  0  0  0  0  0999 V2000
   17.6387  -10.7756  -17.0312 N   0  0  0  0  0  0  0  0  0  0  0  0
   18.0139  -10.6564  -15.6463 C   0  0  1  0  0  0  0  0  0  0  0  0
   18.2022  -12.0913  -15.1337 C   0  0  0  0  0  0  0  0  0  0  0  0
   16.8600  -12.6804  -15.0160 C   0  0  0  0  0  0  0  0  0  0  0  0
   15.8277  -11.9746  -15.0832 O   0  0  0  0  0  0  0  0  0  0  0  0
   19.3121   -9.9332  -15.4812 C   0  0  0  0  0  0  0  0  0  0  0  0
   19.7682   -9.7482  -14.3236 O   0  0  0  0  0  0  0  0  0  0  0  0
   16.7206  -14.0407  -14.8268 O   0  0  0  0  0  0  0  0  0  0  0  0
   20.0616   -9.4412  -16.5661 N   0  0  0  0  0  0  0  0  0  0  0  0
   21.3087   -8.6801  -16.3388 C   0  0  1  0  0  0  0  0  0  0  0  0
   22.2261   -8.9334  -17.5010 C   0  0  0  0  0  0  0  0  0  0  0  0
   23.4905   -8.1911  -17.4410 C   0  0  0  0  0  0  0  0  0  0  0  0
   23.6894   -7.4466  -16.4410 O   0  0  0  0  0  0  0  0  0  0  0  0
   20.9753   -7.2708  -16.0888 C   0  0  0  0  0  0  0  0  0  0  0  0
   20.4540   -6.6300  -17.0778 O   0  0  0  0  0  0  0  0  0  0  0  0
   24.4118   -8.3235  -18.4593 O   0  0  0  0  0  0  0  0  0  0  0  0
   20.0972   -2.5168  -14.4744 N   0  0  0  0  0  0  0  0  0  0  0  0
   19.1188   -3.5069  -14.2480 C   0  0  0  0  0  0  0  0  0  0  0  0
   17.9455   -3.2076  -13.8854 O   0  0  0  0  0  0  0  0  0  0  0  0
   19.4676   -4.9246  -14.4373 C   0  0  0  0  0  0  0  0  0  0  0  0
   20.9318   -5.1541  -14.7592 C   0  0  2  0  0  0  0  0  0  0  0  0
   21.1739   -6.5757  -14.8710 N   0  0  0  0  0  0  0  0  0  0  0  0
   21.8533   -4.4785  -13.8247 C   0  0  0  0  0  0  0  0  0  0  0  0
   22.8136   -5.1655  -13.1047 O   0  0  0  0  0  0  0  0  0  0  0  0
   21.7887   -3.2378  -13.6544 O   0  0  0  0  0  0  0  0  0  0  0  0
  2  1  1  6
  2  6  1  0
  3  2  1  0
  4  3  1  0
  4  8  1  0
  5  4  2  0
  6  7  2  0
  9  6  1  0
  9 10  1  0
 10 14  1  0
 10 11  1  6
 12 16  1  0
 12 11  1  0
 13 12  2  0
 14 15  2  0
 14 22  1  0
 18 19  2  0
 18 17  1  0
 21 20  1  1
 20 18  1  0
 21 23  1  0
 22 21  1  0
 23 24  1  0
 25 23  2  0
M  END
$$$$
