DDN.pdb
     RDKit          3D

 25 24  0  0  1  0  0  0  0  0999 V2000
   22.9665  -18.0310  -17.6067 N   0  0  0  0  0  0  0  0  0  0  0  0
   22.6878  -17.4710  -16.3098 C   0  0  1  0  0  0  0  0  0  0  0  0
   22.4959  -15.9641  -16.5317 C   0  0  0  0  0  0  0  0  0  0  0  0
   23.8181  -15.4109  -16.8607 C   0  0  0  0  0  0  0  0  0  0  0  0
   24.8252  -16.1466  -16.9741 O   0  0  0  0  0  0  0  0  0  0  0  0
   21.4232  -18.0166  -15.7276 C   0  0  0  0  0  0  0  0  0  0  0  0
   20.5087  -18.4022  -16.5005 O   0  0  0  0  0  0  0  0  0  0  0  0
   23.9665  -14.0517  -17.0512 O   0  0  0  0  0  0  0  0  0  0  0  0
   21.1977  -18.1232  -14.3426 N   0  0  0  0  0  0  0  0  0  0  0  0
   19.9194  -18.6560  -13.8246 C   0  0  1  0  0  0  0  0  0  0  0  0
   20.2052  -19.3851  -12.5427 C   0  0  0  0  0  0  0  0  0  0  0  0
   20.4061  -20.8296  -12.7053 C   0  0  0  0  0  0  0  0  0  0  0  0
   20.2380  -21.3218  -13.8556 O   0  0  0  0  0  0  0  0  0  0  0  0
   18.9438  -17.5612  -13.7282 C   0  0  0  0  0  0  0  0  0  0  0  0
   19.3174  -16.5301  -13.0514 O   0  0  0  0  0  0  0  0  0  0  0  0
   20.7669  -21.5979  -11.6177 O   0  0  0  0  0  0  0  0  0  0  0  0
   15.2120  -14.1083  -16.8082 N   0  0  0  0  0  0  0  0  0  0  0  0
   15.6255  -14.6653  -15.5803 C   0  0  0  0  0  0  0  0  0  0  0  0
   15.2784  -14.1613  -14.4744 O   0  0  0  0  0  0  0  0  0  0  0  0
   16.4818  -15.8629  -15.5817 C   0  0  0  0  0  0  0  0  0  0  0  0
   16.7792  -16.4009  -14.1952 C   0  0  2  0  0  0  0  0  0  0  0  0
   17.6531  -17.5476  -14.3108 N   0  0  0  0  0  0  0  0  0  0  0  0
   15.5680  -16.6705  -13.3957 C   0  0  0  0  0  0  0  0  0  0  0  0
   15.0120  -15.7264  -12.5518 O   0  0  0  0  0  0  0  0  0  0  0  0
   14.9989  -17.7860  -13.4608 O   0  0  0  0  0  0  0  0  0  0  0  0
  2  1  1  6
  2  6  1  0
  3  2  1  0
  4  3  1  0
  4  8  1  0
  5  4  2  0
  6  7  2  0
  9  6  1  0
  9 10  1  0
 10 14  1  0
 10 11  1  1
 12 16  1  0
 12 11  1  0
 13 12  2  0
 14 15  2  0
 14 22  1  0
 18 19  2  0
 18 17  1  0
 21 20  1  6
 20 18  1  0
 21 23  1  0
 22 21  1  0
 23 24  1  0
 25 23  2  0
M  END
$$$$
