QWQ.pdb
     RDKit          3D

 33 34  0  0  1  0  0  0  0  0999 V2000
    8.4525  -12.4676   17.7039 N   0  0  0  0  0  0  0  0  0  0  0  0
    7.3754  -13.4102   17.5686 C   0  0  0  0  0  0  0  0  0  0  0  0
    6.6582  -13.3719   16.5415 O   0  0  0  0  0  0  0  0  0  0  0  0
    7.1622  -14.3869   18.6460 C   0  0  0  0  0  0  0  0  0  0  0  0
    8.0996  -14.3390   19.7952 C   0  0  0  0  0  0  0  0  0  0  0  0
    8.5374  -15.6412   20.3675 C   0  0  2  0  0  0  0  0  0  0  0  0
    7.5012  -16.5982   20.5691 N   0  0  0  0  0  0  0  0  0  0  0  0
    9.2432  -15.4250   21.6693 C   0  0  0  0  0  0  0  0  0  0  0  0
   10.1546  -14.5610   21.7858 O   0  0  0  0  0  0  0  0  0  0  0  0
    8.9103  -16.1780   22.8030 N   0  0  0  0  0  0  0  0  0  0  0  0
    9.6437  -16.0760   24.0815 C   0  0  1  0  0  0  0  0  0  0  0  0
    8.7204  -16.2209   25.2275 C   0  0  0  0  0  0  0  0  0  0  0  0
    7.6069  -15.2640   25.1883 C   0  0  0  0  0  0  0  0  0  0  0  0
    6.3501  -15.4365   24.5893 C   0  0  0  0  0  0  0  0  0  0  0  0
    5.5993  -14.3555   24.7074 N   0  0  0  0  0  0  0  0  0  0  0  0
    6.3077  -13.4287   25.3794 C   0  0  0  0  0  0  0  0  0  0  0  0
    6.0213  -12.1531   25.7941 C   0  0  0  0  0  0  0  0  0  0  0  0
    6.9338  -11.3936   26.5090 C   0  0  0  0  0  0  0  0  0  0  0  0
    8.1727  -11.9118   26.8258 C   0  0  0  0  0  0  0  0  0  0  0  0
    8.4399  -13.1887   26.4012 C   0  0  0  0  0  0  0  0  0  0  0  0
    7.5472  -13.9736   25.6829 C   0  0  0  0  0  0  0  0  0  0  0  0
   10.8126  -16.9540   24.1030 C   0  0  0  0  0  0  0  0  0  0  0  0
   10.7353  -18.2166   23.9815 O   0  0  0  0  0  0  0  0  0  0  0  0
   14.4533  -14.6857   20.4942 N   0  0  0  0  0  0  0  0  0  0  0  0
   15.1984  -15.0483   21.6836 C   0  0  0  0  0  0  0  0  0  0  0  0
   16.4304  -14.9208   21.6300 O   0  0  0  0  0  0  0  0  0  0  0  0
   14.4985  -15.5353   22.8529 C   0  0  0  0  0  0  0  0  0  0  0  0
   14.0352  -16.9396   22.8912 C   0  0  0  0  0  0  0  0  0  0  0  0
   13.3171  -17.3896   24.1210 C   0  0  2  0  0  0  0  0  0  0  0  0
   12.1510  -16.4747   24.2623 N   0  0  0  0  0  0  0  0  0  0  0  0
   14.0447  -17.2751   25.3810 C   0  0  0  0  0  0  0  0  0  0  0  0
   13.6087  -16.4922   26.4238 O   0  0  0  0  0  0  0  0  0  0  0  0
   15.1301  -17.9216   25.5342 O   0  0  0  0  0  0  0  0  0  0  0  0
  1  2  1  0
  2  4  1  0
  2  3  2  0
  4  5  1  0
  5  6  1  0
  6  7  1  1
  6  8  1  0
  8 10  1  0
  8  9  2  0
 10 11  1  0
 11 22  1  0
 11 12  1  1
 12 13  1  0
 13 14  2  0
 13 21  1  0
 14 15  1  0
 15 16  1  0
 16 17  2  0
 17 18  1  0
 19 18  2  0
 20 19  1  0
 21 20  2  0
 21 16  1  0
 22 23  2  0
 24 25  1  0
 25 27  1  0
 26 25  2  0
 27 28  1  0
 29 31  1  0
 29 28  1  6
 30 22  1  0
 30 29  1  0
 31 32  1  0
 33 31  2  0
M  END
$$$$
