QWQ.pdb
     RDKit          3D

 33 34  0  0  1  0  0  0  0  0999 V2000
   12.7376  -19.2606   18.2828 N   0  0  0  0  0  0  0  0  0  0  0  0
   11.4020  -19.1267   17.7680 C   0  0  0  0  0  0  0  0  0  0  0  0
   11.2353  -19.0048   16.5318 O   0  0  0  0  0  0  0  0  0  0  0  0
   10.2818  -19.1418   18.7193 C   0  0  0  0  0  0  0  0  0  0  0  0
   10.6180  -19.3080   20.1549 C   0  0  0  0  0  0  0  0  0  0  0  0
    9.4845  -19.3231   21.1192 C   0  0  2  0  0  0  0  0  0  0  0  0
    8.1890  -19.1943   20.5399 N   0  0  0  0  0  0  0  0  0  0  0  0
    9.6570  -18.2425   22.1401 C   0  0  0  0  0  0  0  0  0  0  0  0
   10.7489  -18.0863   22.7517 O   0  0  0  0  0  0  0  0  0  0  0  0
    8.6069  -17.3673   22.4472 N   0  0  0  0  0  0  0  0  0  0  0  0
    8.7270  -16.2839   23.4446 C   0  0  1  0  0  0  0  0  0  0  0  0
    7.7083  -15.2387   23.2072 C   0  0  0  0  0  0  0  0  0  0  0  0
    7.8567  -14.0831   24.1015 C   0  0  0  0  0  0  0  0  0  0  0  0
    8.8696  -13.1127   24.0861 C   0  0  0  0  0  0  0  0  0  0  0  0
    8.7190  -12.2327   25.0604 N   0  0  0  0  0  0  0  0  0  0  0  0
    7.6178  -12.5692   25.7580 C   0  0  0  0  0  0  0  0  0  0  0  0
    6.9890  -12.0075   26.8398 C   0  0  0  0  0  0  0  0  0  0  0  0
    5.8263  -12.5434   27.3702 C   0  0  0  0  0  0  0  0  0  0  0  0
    5.2644  -13.6736   26.8128 C   0  0  0  0  0  0  0  0  0  0  0  0
    5.9089  -14.2206   25.7323 C   0  0  0  0  0  0  0  0  0  0  0  0
    7.0750  -13.7075   25.1791 C   0  0  0  0  0  0  0  0  0  0  0  0
    8.7795  -16.8105   24.8076 C   0  0  0  0  0  0  0  0  0  0  0  0
    7.9192  -17.6223   25.2721 O   0  0  0  0  0  0  0  0  0  0  0  0
   12.8858  -20.4516   25.6625 N   0  0  0  0  0  0  0  0  0  0  0  0
   12.4393  -20.3841   27.0399 C   0  0  0  0  0  0  0  0  0  0  0  0
   12.8629  -21.2611   27.8068 O   0  0  0  0  0  0  0  0  0  0  0  0
   11.5390  -19.3302   27.4557 C   0  0  0  0  0  0  0  0  0  0  0  0
   11.0410  -18.3615   26.4547 C   0  0  0  0  0  0  0  0  0  0  0  0
   10.0837  -17.3181   26.9297 C   0  0  2  0  0  0  0  0  0  0  0  0
    9.8027  -16.4619   25.7445 N   0  0  0  0  0  0  0  0  0  0  0  0
   10.5731  -16.4004   27.9537 C   0  0  0  0  0  0  0  0  0  0  0  0
   10.4031  -16.6272   29.2991 O   0  0  0  0  0  0  0  0  0  0  0  0
   11.1844  -15.3417   27.6003 O   0  0  0  0  0  0  0  0  0  0  0  0
  1  2  1  0
  2  4  1  0
  2  3  2  0
  4  5  1  0
  5  6  1  0
  6  7  1  6
  6  8  1  0
  8 10  1  0
  8  9  2  0
 10 11  1  0
 11 22  1  0
 11 12  1  1
 12 13  1  0
 13 14  2  0
 13 21  1  0
 14 15  1  0
 15 16  1  0
 16 17  2  0
 17 18  1  0
 19 18  2  0
 20 19  1  0
 21 20  2  0
 21 16  1  0
 22 23  2  0
 24 25  1  0
 25 27  1  0
 26 25  2  0
 27 28  1  0
 29 31  1  0
 29 28  1  6
 30 22  1  0
 30 29  1  0
 31 32  1  0
 33 31  2  0
M  END
$$$$
