QWQ.pdb
     RDKit          3D

 33 34  0  0  1  0  0  0  0  0999 V2000
    8.5909  -12.7280   18.1696 N   0  0  0  0  0  0  0  0  0  0  0  0
    7.5097  -13.6182   17.8449 C   0  0  0  0  0  0  0  0  0  0  0  0
    7.0238  -13.5901   16.6900 O   0  0  0  0  0  0  0  0  0  0  0  0
    7.0197  -14.5315   18.8870 C   0  0  0  0  0  0  0  0  0  0  0  0
    7.7298  -14.5119   20.1897 C   0  0  0  0  0  0  0  0  0  0  0  0
    8.2386  -15.8124   20.7040 C   0  0  2  0  0  0  0  0  0  0  0  0
    7.2534  -16.8270   20.8782 N   0  0  0  0  0  0  0  0  0  0  0  0
    8.9497  -15.6134   22.0057 C   0  0  0  0  0  0  0  0  0  0  0  0
    9.8609  -14.7503   22.1301 O   0  0  0  0  0  0  0  0  0  0  0  0
    8.6222  -16.3821   23.1304 N   0  0  0  0  0  0  0  0  0  0  0  0
    9.3637  -16.3001   24.4057 C   0  0  1  0  0  0  0  0  0  0  0  0
    8.4388  -16.3927   25.5558 C   0  0  0  0  0  0  0  0  0  0  0  0
    7.4128  -15.3418   25.5494 C   0  0  0  0  0  0  0  0  0  0  0  0
    6.0579  -15.4697   25.2088 C   0  0  0  0  0  0  0  0  0  0  0  0
    5.4257  -14.3111   25.2734 N   0  0  0  0  0  0  0  0  0  0  0  0
    6.3137  -13.3736   25.6541 C   0  0  0  0  0  0  0  0  0  0  0  0
    6.2058  -12.0278   25.8962 C   0  0  0  0  0  0  0  0  0  0  0  0
    7.2891  -11.2698   26.3114 C   0  0  0  0  0  0  0  0  0  0  0  0
    8.5222  -11.8611   26.4942 C   0  0  0  0  0  0  0  0  0  0  0  0
    8.6094  -13.2076   26.2459 C   0  0  0  0  0  0  0  0  0  0  0  0
    7.5430  -13.9933   25.8283 C   0  0  0  0  0  0  0  0  0  0  0  0
   10.4926  -17.2289   24.4325 C   0  0  0  0  0  0  0  0  0  0  0  0
   10.4190  -18.4241   24.0072 O   0  0  0  0  0  0  0  0  0  0  0  0
   16.4784  -15.6780   23.5516 N   0  0  0  0  0  0  0  0  0  0  0  0
   16.5799  -17.0594   23.9787 C   0  0  0  0  0  0  0  0  0  0  0  0
   17.6956  -17.5915   23.8841 O   0  0  0  0  0  0  0  0  0  0  0  0
   15.4098  -17.7474   24.4803 C   0  0  0  0  0  0  0  0  0  0  0  0
   14.0867  -17.0918   24.3922 C   0  0  0  0  0  0  0  0  0  0  0  0
   12.9103  -17.8529   24.9095 C   0  0  2  0  0  0  0  0  0  0  0  0
   11.7841  -16.8796   24.9390 N   0  0  0  0  0  0  0  0  0  0  0  0
   13.0096  -18.3605   26.2742 C   0  0  0  0  0  0  0  0  0  0  0  0
   13.7359  -19.4814   26.6005 O   0  0  0  0  0  0  0  0  0  0  0  0
   12.4030  -17.7496   27.2114 O   0  0  0  0  0  0  0  0  0  0  0  0
  1  2  1  0
  2  4  1  0
  2  3  2  0
  4  5  1  0
  5  6  1  0
  6  7  1  1
  6  8  1  0
  8 10  1  0
  8  9  2  0
 10 11  1  0
 11 22  1  0
 11 12  1  1
 12 13  1  0
 13 14  2  0
 13 21  1  0
 14 15  1  0
 15 16  1  0
 16 17  2  0
 17 18  1  0
 19 18  2  0
 20 19  1  0
 21 20  2  0
 21 16  1  0
 22 23  2  0
 24 25  1  0
 25 27  1  0
 26 25  2  0
 27 28  1  0
 29 31  1  0
 29 28  1  1
 30 22  1  0
 30 29  1  0
 31 32  1  0
 33 31  2  0
M  END
$$$$
