QWQ.pdb
     RDKit          3D

 33 34  0  0  1  0  0  0  0  0999 V2000
   12.0706  -19.4265   17.8920 N   0  0  0  0  0  0  0  0  0  0  0  0
   10.9789  -19.0190   17.0500 C   0  0  0  0  0  0  0  0  0  0  0  0
   10.9124  -19.4652   15.8807 O   0  0  0  0  0  0  0  0  0  0  0  0
    9.9792  -18.0932   17.6012 C   0  0  0  0  0  0  0  0  0  0  0  0
   10.1570  -17.6703   19.0123 C   0  0  0  0  0  0  0  0  0  0  0  0
    8.9518  -17.6970   19.8849 C   0  0  2  0  0  0  0  0  0  0  0  0
    7.8331  -16.9579   19.4028 N   0  0  0  0  0  0  0  0  0  0  0  0
    9.2923  -17.2019   21.2555 C   0  0  0  0  0  0  0  0  0  0  0  0
   10.2435  -17.7017   21.9160 O   0  0  0  0  0  0  0  0  0  0  0  0
    8.5626  -16.1629   21.8481 N   0  0  0  0  0  0  0  0  0  0  0  0
    8.8669  -15.6295   23.1918 C   0  0  1  0  0  0  0  0  0  0  0  0
    8.2353  -14.3064   23.3851 C   0  0  0  0  0  0  0  0  0  0  0  0
    8.4206  -13.7781   24.7430 C   0  0  0  0  0  0  0  0  0  0  0  0
    9.5578  -13.8882   25.5570 C   0  0  0  0  0  0  0  0  0  0  0  0
    9.3686  -13.3305   26.7400 N   0  0  0  0  0  0  0  0  0  0  0  0
    8.1188  -12.8309   26.7689 C   0  0  0  0  0  0  0  0  0  0  0  0
    7.4093  -12.1429   27.7200 C   0  0  0  0  0  0  0  0  0  0  0  0
    6.1139  -11.7060   27.4930 C   0  0  0  0  0  0  0  0  0  0  0  0
    5.4972  -11.9572   26.2845 C   0  0  0  0  0  0  0  0  0  0  0  0
    6.2233  -12.6473   25.3472 C   0  0  0  0  0  0  0  0  0  0  0  0
    7.5218  -13.0986   25.5453 C   0  0  0  0  0  0  0  0  0  0  0  0
    8.5918  -16.6144   24.2369 C   0  0  0  0  0  0  0  0  0  0  0  0
    7.5217  -17.2983   24.2824 O   0  0  0  0  0  0  0  0  0  0  0  0
   11.5397  -20.4569   22.3485 N   0  0  0  0  0  0  0  0  0  0  0  0
   11.3067  -21.1294   23.6113 C   0  0  0  0  0  0  0  0  0  0  0  0
   11.5340  -22.3476   23.6444 O   0  0  0  0  0  0  0  0  0  0  0  0
   10.8273  -20.3778   24.7513 C   0  0  0  0  0  0  0  0  0  0  0  0
   10.3717  -18.9830   24.5638 C   0  0  0  0  0  0  0  0  0  0  0  0
    9.7568  -18.3002   25.7412 C   0  0  2  0  0  0  0  0  0  0  0  0
    9.5002  -16.9002   25.3044 N   0  0  0  0  0  0  0  0  0  0  0  0
   10.5888  -18.1794   26.9342 C   0  0  0  0  0  0  0  0  0  0  0  0
   11.5238  -17.1837   27.0920 O   0  0  0  0  0  0  0  0  0  0  0  0
   10.4538  -19.0248   27.8758 O   0  0  0  0  0  0  0  0  0  0  0  0
  1  2  1  0
  2  4  1  0
  2  3  2  0
  4  5  1  0
  5  6  1  0
  6  7  1  6
  6  8  1  0
  8 10  1  0
  8  9  2  0
 10 11  1  0
 11 22  1  0
 11 12  1  1
 12 13  1  0
 13 14  2  0
 13 21  1  0
 14 15  1  0
 15 16  1  0
 16 17  2  0
 17 18  1  0
 19 18  2  0
 20 19  1  0
 21 20  2  0
 21 16  1  0
 22 23  2  0
 24 25  1  0
 25 27  1  0
 26 25  2  0
 27 28  1  0
 29 31  1  0
 29 28  1  6
 30 22  1  0
 30 29  1  0
 31 32  1  0
 33 31  2  0
M  END
$$$$
