QWQ.pdb
     RDKit          3D

 33 34  0  0  1  0  0  0  0  0999 V2000
    8.9220  -12.3396   18.5535 N   0  0  0  0  0  0  0  0  0  0  0  0
    8.1291  -13.4647   18.1385 C   0  0  0  0  0  0  0  0  0  0  0  0
    7.2546  -13.3008   17.2558 O   0  0  0  0  0  0  0  0  0  0  0  0
    8.3819  -14.7681   18.7689 C   0  0  0  0  0  0  0  0  0  0  0  0
    9.4065  -14.8115   19.8413 C   0  0  0  0  0  0  0  0  0  0  0  0
    9.6461  -16.1258   20.4970 C   0  0  2  0  0  0  0  0  0  0  0  0
    8.6364  -17.1080   20.2819 N   0  0  0  0  0  0  0  0  0  0  0  0
    9.8253  -15.9451   21.9718 C   0  0  0  0  0  0  0  0  0  0  0  0
   10.7161  -15.1821   22.4357 O   0  0  0  0  0  0  0  0  0  0  0  0
    9.0045  -16.6196   22.8852 N   0  0  0  0  0  0  0  0  0  0  0  0
    9.2103  -16.5631   24.3472 C   0  0  1  0  0  0  0  0  0  0  0  0
    7.9140  -16.5070   25.0565 C   0  0  0  0  0  0  0  0  0  0  0  0
    7.2312  -15.2164   24.8970 C   0  0  0  0  0  0  0  0  0  0  0  0
    6.3348  -14.8409   23.8853 C   0  0  0  0  0  0  0  0  0  0  0  0
    5.9379  -13.5881   24.0234 N   0  0  0  0  0  0  0  0  0  0  0  0
    6.5401  -13.0792   25.1148 C   0  0  0  0  0  0  0  0  0  0  0  0
    6.4805  -11.8544   25.7293 C   0  0  0  0  0  0  0  0  0  0  0  0
    7.1954  -11.5795   26.8842 C   0  0  0  0  0  0  0  0  0  0  0  0
    7.9972  -12.5479   27.4526 C   0  0  0  0  0  0  0  0  0  0  0  0
    8.0438  -13.7656   26.8223 C   0  0  0  0  0  0  0  0  0  0  0  0
    7.3403  -14.0707   25.6643 C   0  0  0  0  0  0  0  0  0  0  0  0
   10.1294  -17.6053   24.8020 C   0  0  0  0  0  0  0  0  0  0  0  0
   10.0205  -18.8246   24.4608 O   0  0  0  0  0  0  0  0  0  0  0  0
   16.8314  -19.3916   24.8304 N   0  0  0  0  0  0  0  0  0  0  0  0
   15.9926  -18.4984   25.6048 C   0  0  0  0  0  0  0  0  0  0  0  0
   16.4873  -17.4082   25.9267 O   0  0  0  0  0  0  0  0  0  0  0  0
   14.6508  -18.9016   25.9669 C   0  0  0  0  0  0  0  0  0  0  0  0
   13.5057  -18.0478   25.5821 C   0  0  0  0  0  0  0  0  0  0  0  0
   12.1567  -18.4450   26.0854 C   0  0  2  0  0  0  0  0  0  0  0  0
   11.2359  -17.3505   25.6721 N   0  0  0  0  0  0  0  0  0  0  0  0
   12.0029  -18.5444   27.5334 C   0  0  0  0  0  0  0  0  0  0  0  0
   12.3903  -19.6528   28.2487 O   0  0  0  0  0  0  0  0  0  0  0  0
   11.4899  -17.5713   28.1732 O   0  0  0  0  0  0  0  0  0  0  0  0
  1  2  1  0
  2  4  1  0
  2  3  2  0
  4  5  1  0
  5  6  1  0
  6  7  1  1
  6  8  1  0
  8 10  1  0
  8  9  2  0
 10 11  1  0
 11 22  1  0
 11 12  1  1
 12 13  1  0
 13 14  2  0
 13 21  1  0
 14 15  1  0
 15 16  1  0
 16 17  2  0
 17 18  1  0
 19 18  2  0
 20 19  1  0
 21 20  2  0
 21 16  1  0
 22 23  2  0
 24 25  1  0
 25 27  1  0
 26 25  2  0
 27 28  1  0
 29 31  1  0
 29 28  1  1
 30 22  1  0
 30 29  1  0
 31 32  1  0
 33 31  2  0
M  END
$$$$
