QWQ.pdb
     RDKit          3D

 33 34  0  0  1  0  0  0  0  0999 V2000
   10.7348  -14.6153   16.1876 N   0  0  0  0  0  0  0  0  0  0  0  0
   10.4817  -16.0027   15.9085 C   0  0  0  0  0  0  0  0  0  0  0  0
   10.7334  -16.4496   14.7650 O   0  0  0  0  0  0  0  0  0  0  0  0
    9.9383  -16.8439   16.9844 C   0  0  0  0  0  0  0  0  0  0  0  0
    9.7573  -16.2074   18.3124 C   0  0  0  0  0  0  0  0  0  0  0  0
   10.0081  -17.0546   19.5100 C   0  0  2  0  0  0  0  0  0  0  0  0
    9.1555  -18.1882   19.6447 N   0  0  0  0  0  0  0  0  0  0  0  0
    9.9061  -16.2336   20.7571 C   0  0  0  0  0  0  0  0  0  0  0  0
   10.7748  -15.3652   21.0437 O   0  0  0  0  0  0  0  0  0  0  0  0
    8.8373  -16.4046   21.6467 N   0  0  0  0  0  0  0  0  0  0  0  0
    8.6032  -15.5170   22.8044 C   0  0  1  0  0  0  0  0  0  0  0  0
    7.1657  -15.4740   23.1487 C   0  0  0  0  0  0  0  0  0  0  0  0
    6.9154  -14.9250   24.4878 C   0  0  0  0  0  0  0  0  0  0  0  0
    6.4770  -15.6146   25.6280 C   0  0  0  0  0  0  0  0  0  0  0  0
    6.3163  -14.8036   26.6588 N   0  0  0  0  0  0  0  0  0  0  0  0
    6.6352  -13.5576   26.2610 C   0  0  0  0  0  0  0  0  0  0  0  0
    6.6693  -12.3496   26.9097 C   0  0  0  0  0  0  0  0  0  0  0  0
    7.0658  -11.1861   26.2698 C   0  0  0  0  0  0  0  0  0  0  0  0
    7.4420  -11.2163   24.9426 C   0  0  0  0  0  0  0  0  0  0  0  0
    7.4000  -12.4338   24.3117 C   0  0  0  0  0  0  0  0  0  0  0  0
    7.0067  -13.6160   24.9253 C   0  0  0  0  0  0  0  0  0  0  0  0
    9.5044  -15.8290   23.9127 C   0  0  0  0  0  0  0  0  0  0  0  0
    9.4825  -15.2085   25.0215 O   0  0  0  0  0  0  0  0  0  0  0  0
    8.7126  -19.1280   27.9904 N   0  0  0  0  0  0  0  0  0  0  0  0
   10.1261  -18.9617   28.2649 C   0  0  0  0  0  0  0  0  0  0  0  0
   10.5297  -19.3557   29.3689 O   0  0  0  0  0  0  0  0  0  0  0  0
   10.9875  -18.3559   27.2723 C   0  0  0  0  0  0  0  0  0  0  0  0
   10.4049  -17.8708   26.0020 C   0  0  0  0  0  0  0  0  0  0  0  0
   11.3271  -17.1960   25.0402 C   0  0  2  0  0  0  0  0  0  0  0  0
   10.4935  -16.8608   23.8531 N   0  0  0  0  0  0  0  0  0  0  0  0
   12.4274  -17.9997   24.5171 C   0  0  0  0  0  0  0  0  0  0  0  0
   13.6467  -18.0912   25.1456 O   0  0  0  0  0  0  0  0  0  0  0  0
   12.2649  -18.6480   23.4341 O   0  0  0  0  0  0  0  0  0  0  0  0
  1  2  1  0
  2  4  1  0
  2  3  2  0
  4  5  1  0
  5  6  1  0
  6  7  1  1
  6  8  1  0
  8 10  1  0
  8  9  2  0
 10 11  1  0
 11 22  1  0
 11 12  1  1
 12 13  1  0
 13 14  2  0
 13 21  1  0
 14 15  1  0
 15 16  1  0
 16 17  2  0
 17 18  1  0
 19 18  2  0
 20 19  1  0
 21 20  2  0
 21 16  1  0
 22 23  2  0
 24 25  1  0
 25 27  1  0
 26 25  2  0
 27 28  1  0
 29 31  1  0
 29 28  1  1
 30 22  1  0
 30 29  1  0
 31 32  1  0
 33 31  2  0
M  END
$$$$
