QWQ.pdb
     RDKit          3D

 33 34  0  0  1  0  0  0  0  0999 V2000
   11.7366  -21.0347   21.1634 N   0  0  0  0  0  0  0  0  0  0  0  0
   12.5569  -20.0648   20.4902 C   0  0  0  0  0  0  0  0  0  0  0  0
   13.7554  -20.3421   20.2506 O   0  0  0  0  0  0  0  0  0  0  0  0
   11.9500  -18.7823   20.1064 C   0  0  0  0  0  0  0  0  0  0  0  0
   10.4767  -18.6667   20.2390 C   0  0  0  0  0  0  0  0  0  0  0  0
    9.8561  -17.3838   19.8101 C   0  0  2  0  0  0  0  0  0  0  0  0
   10.5291  -16.7036   18.7543 N   0  0  0  0  0  0  0  0  0  0  0  0
    9.7353  -16.4510   20.9740 C   0  0  0  0  0  0  0  0  0  0  0  0
   10.5411  -15.4940   21.1341 O   0  0  0  0  0  0  0  0  0  0  0  0
    8.7182  -16.6124   21.9241 N   0  0  0  0  0  0  0  0  0  0  0  0
    8.4985  -15.6663   23.0374 C   0  0  1  0  0  0  0  0  0  0  0  0
    7.1005  -15.7349   23.5144 C   0  0  0  0  0  0  0  0  0  0  0  0
    6.8898  -15.0057   24.7718 C   0  0  0  0  0  0  0  0  0  0  0  0
    6.6010  -15.5427   26.0353 C   0  0  0  0  0  0  0  0  0  0  0  0
    6.4321  -14.5965   26.9421 N   0  0  0  0  0  0  0  0  0  0  0  0
    6.5982  -13.4058   26.3364 C   0  0  0  0  0  0  0  0  0  0  0  0
    6.5573  -12.1123   26.7909 C   0  0  0  0  0  0  0  0  0  0  0  0
    6.7919  -11.0341   25.9526 C   0  0  0  0  0  0  0  0  0  0  0  0
    7.0771  -11.2401   24.6184 C   0  0  0  0  0  0  0  0  0  0  0  0
    7.1125  -12.5408   24.1834 C   0  0  0  0  0  0  0  0  0  0  0  0
    6.8810  -13.6412   24.9985 C   0  0  0  0  0  0  0  0  0  0  0  0
    9.5218  -15.8061   24.0723 C   0  0  0  0  0  0  0  0  0  0  0  0
    9.6490  -14.9900   25.0381 O   0  0  0  0  0  0  0  0  0  0  0  0
   10.4737  -17.8553   29.2362 N   0  0  0  0  0  0  0  0  0  0  0  0
   10.0893  -18.8032   28.2091 C   0  0  0  0  0  0  0  0  0  0  0  0
    9.6334  -19.8894   28.5956 O   0  0  0  0  0  0  0  0  0  0  0  0
   10.2511  -18.4593   26.8128 C   0  0  0  0  0  0  0  0  0  0  0  0
   10.7221  -17.1057   26.4467 C   0  0  0  0  0  0  0  0  0  0  0  0
   11.4940  -16.9706   25.1753 C   0  0  2  0  0  0  0  0  0  0  0  0
   10.4742  -16.8733   24.0950 N   0  0  0  0  0  0  0  0  0  0  0  0
   12.3379  -18.1008   24.8003 C   0  0  0  0  0  0  0  0  0  0  0  0
   12.0265  -18.9514   23.7660 O   0  0  0  0  0  0  0  0  0  0  0  0
   13.4101  -18.3199   25.4499 O   0  0  0  0  0  0  0  0  0  0  0  0
  1  2  1  0
  2  4  1  0
  2  3  2  0
  4  5  1  0
  5  6  1  0
  6  7  1  6
  6  8  1  0
  8 10  1  0
  8  9  2  0
 10 11  1  0
 11 22  1  0
 11 12  1  1
 12 13  1  0
 13 14  2  0
 13 21  1  0
 14 15  1  0
 15 16  1  0
 16 17  2  0
 17 18  1  0
 19 18  2  0
 20 19  1  0
 21 20  2  0
 21 16  1  0
 22 23  2  0
 24 25  1  0
 25 27  1  0
 26 25  2  0
 27 28  1  0
 29 31  1  0
 29 28  1  1
 30 22  1  0
 30 29  1  0
 31 32  1  0
 33 31  2  0
M  END
$$$$
