REL.pdb
     RDKit          3D

 29 28  0  0  1  0  0  0  0  0999 V2000
    8.7535  -12.8047   15.4272 N   0  0  0  0  0  0  0  0  0  0  0  0
    7.8195  -13.7710   14.9800 C   0  0  0  0  0  0  0  0  0  0  0  0
    6.8451  -13.4251   14.1962 N   0  0  0  0  0  0  0  0  0  0  0  0
    7.9246  -15.1494   15.3787 N   0  0  0  0  0  0  0  0  0  0  0  0
    8.1039  -15.5230   16.7581 C   0  0  0  0  0  0  0  0  0  0  0  0
    7.0183  -14.9342   17.6270 C   0  0  0  0  0  0  0  0  0  0  0  0
    7.1531  -15.4647   19.0153 C   0  0  0  0  0  0  0  0  0  0  0  0
    8.4288  -15.0029   19.6930 C   0  0  2  0  0  0  0  0  0  0  0  0
    9.5977  -15.3932   18.9687 N   0  0  0  0  0  0  0  0  0  0  0  0
    8.4222  -15.5405   21.0902 C   0  0  0  0  0  0  0  0  0  0  0  0
    7.4546  -15.2729   21.8470 O   0  0  0  0  0  0  0  0  0  0  0  0
    6.1612  -14.1320   13.8537 N   0  0  0  0  0  0  0  0  0  0  0  0
    9.4624  -16.3459   21.6129 C   0  0  1  0  0  0  0  0  0  0  0  0
    9.4460  -16.8744   22.9683 C   0  0  0  0  0  0  0  0  0  0  0  0
   10.5832  -17.8872   23.1507 C   0  0  0  0  0  0  0  0  0  0  0  0
   10.5947  -18.4014   24.5645 C   0  0  0  0  0  0  0  0  0  0  0  0
   11.7061  -19.3636   24.7138 O   0  0  0  0  0  0  0  0  0  0  0  0
   12.8734  -18.9296   24.8660 C   0  0  0  0  0  0  0  0  0  0  0  0
    9.6427  -15.7651   23.9335 O   0  0  0  0  0  0  0  0  0  0  0  0
   10.5978  -14.9767   23.7985 O   0  0  0  0  0  0  0  0  0  0  0  0
   11.4351  -20.7161   24.6825 C   0  0  0  0  0  0  0  0  0  0  0  0
    6.3011  -11.5938   25.8962 C   0  0  2  0  0  0  0  0  0  0  0  0
    7.4714  -12.3985   26.5497 C   0  0  0  0  0  0  0  0  0  0  0  0
    6.9441  -12.7252   27.9303 C   0  0  0  0  0  0  0  0  0  0  0  0
    7.6661  -13.5490   25.6394 C   0  0  1  0  0  0  0  0  0  0  0  0
    8.7864  -14.4514   25.9216 N   0  0  0  0  0  0  0  0  0  0  0  0
    8.7376  -15.6131   25.0044 C   0  0  0  0  0  0  0  0  0  0  0  0
    8.9370  -14.9839   27.2508 O   0  0  0  0  0  0  0  0  0  0  0  0
    9.5000  -14.3968   28.2094 O   0  0  0  0  0  0  0  0  0  0  0  0
  2  1  1  0
  2  3  2  0
  4  2  1  0
  5  4  1  0
  6  5  1  0
  7  6  1  0
  8  7  1  0
  8  9  1  6
 10  8  1  0
 10 12  1  0
 11 10  2  0
 13 12  1  0
 13 14  1  1
 15 14  1  0
 16 15  1  0
 17 16  2  0
 18 19  2  0
 18 13  1  0
 20 16  1  0
 22 21  1  1
 22 24  1  0
 23 22  1  0
 25 24  1  6
 25 26  1  0
 25 27  1  0
 26 18  1  0
 27 29  1  0
 28 27  2  0
M  END
$$$$
