REL.pdb
     RDKit          3D

 29 28  0  0  1  0  0  0  0  0999 V2000
    7.6898  -13.1542   15.5856 N   0  0  0  0  0  0  0  0  0  0  0  0
    8.2336  -14.0196   16.5663 C   0  0  0  0  0  0  0  0  0  0  0  0
    9.2571  -14.7657   16.2850 N   0  0  0  0  0  0  0  0  0  0  0  0
    7.6713  -14.0943   17.8885 N   0  0  0  0  0  0  0  0  0  0  0  0
    8.4563  -13.7966   19.0588 C   0  0  0  0  0  0  0  0  0  0  0  0
    7.6755  -14.0700   20.3220 C   0  0  0  0  0  0  0  0  0  0  0  0
    6.6859  -15.1575   20.0667 C   0  0  0  0  0  0  0  0  0  0  0  0
    7.2810  -16.5403   20.2509 C   0  0  2  0  0  0  0  0  0  0  0  0
    6.3464  -17.5767   19.9417 N   0  0  0  0  0  0  0  0  0  0  0  0
    7.7870  -16.6344   21.6567 C   0  0  0  0  0  0  0  0  0  0  0  0
    6.9684  -16.5800   22.6094 O   0  0  0  0  0  0  0  0  0  0  0  0
    9.4212  -15.0993   15.3121 N   0  0  0  0  0  0  0  0  0  0  0  0
    9.1580  -16.7835   21.9759 C   0  0  2  0  0  0  0  0  0  0  0  0
    9.6291  -17.0552   23.3253 C   0  0  0  0  0  0  0  0  0  0  0  0
   11.1013  -17.4839   23.2910 C   0  0  0  0  0  0  0  0  0  0  0  0
   11.6112  -17.6914   24.6912 C   0  0  0  0  0  0  0  0  0  0  0  0
   13.0394  -18.0652   24.6289 O   0  0  0  0  0  0  0  0  0  0  0  0
   13.7063  -18.1086   25.6906 C   0  0  0  0  0  0  0  0  0  0  0  0
    9.5151  -15.8242   24.1455 O   0  0  0  0  0  0  0  0  0  0  0  0
    9.6644  -14.7038   23.6215 O   0  0  0  0  0  0  0  0  0  0  0  0
   13.6065  -18.3577   23.4055 C   0  0  0  0  0  0  0  0  0  0  0  0
    7.6224  -11.9578   26.5797 C   0  0  2  0  0  0  0  0  0  0  0  0
    7.1965  -13.2841   27.2895 C   0  0  0  0  0  0  0  0  0  0  0  0
    5.7028  -13.1206   27.4708 C   0  0  0  0  0  0  0  0  0  0  0  0
    7.6250  -14.3452   26.3511 C   0  0  1  0  0  0  0  0  0  0  0  0
    9.0333  -14.7508   26.3876 N   0  0  0  0  0  0  0  0  0  0  0  0
    9.2361  -15.9362   25.5235 C   0  0  0  0  0  0  0  0  0  0  0  0
    9.6388  -15.0597   27.6569 O   0  0  0  0  0  0  0  0  0  0  0  0
   10.1965  -14.2283   28.4176 O   0  0  0  0  0  0  0  0  0  0  0  0
  2  1  1  0
  2  3  2  0
  4  2  1  0
  5  4  1  0
  6  5  1  0
  7  6  1  0
  8  7  1  0
  8  9  1  1
 10  8  1  0
 10 12  1  0
 11 10  2  0
 13 12  1  0
 13 14  1  6
 15 14  1  0
 16 15  1  0
 17 16  2  0
 18 19  2  0
 18 13  1  0
 20 16  1  0
 22 21  1  1
 22 24  1  0
 23 22  1  0
 25 24  1  6
 25 26  1  0
 25 27  1  0
 26 18  1  0
 27 29  1  0
 28 27  2  0
M  END
$$$$
