REL.pdb
     RDKit          3D

 29 28  0  0  1  0  0  0  0  0999 V2000
    7.3340  -12.8990   16.7439 N   0  0  0  0  0  0  0  0  0  0  0  0
    8.0490  -14.0538   17.1451 C   0  0  0  0  0  0  0  0  0  0  0  0
    8.1073  -15.0903   16.3668 N   0  0  0  0  0  0  0  0  0  0  0  0
    8.7239  -14.1089   18.4146 N   0  0  0  0  0  0  0  0  0  0  0  0
    8.3018  -13.2983   19.5279 C   0  0  0  0  0  0  0  0  0  0  0  0
    7.2071  -13.9801   20.3134 C   0  0  0  0  0  0  0  0  0  0  0  0
    7.7995  -14.6538   21.5060 C   0  0  0  0  0  0  0  0  0  0  0  0
    8.0415  -16.1334   21.2777 C   0  0  2  0  0  0  0  0  0  0  0  0
    6.8240  -16.8570   21.0851 N   0  0  0  0  0  0  0  0  0  0  0  0
    8.8300  -16.6503   22.4406 C   0  0  0  0  0  0  0  0  0  0  0  0
    8.2219  -17.1305   23.4307 O   0  0  0  0  0  0  0  0  0  0  0  0
    8.6433  -15.9378   16.6485 N   0  0  0  0  0  0  0  0  0  0  0  0
   10.2447  -16.6271   22.4861 C   0  0  1  0  0  0  0  0  0  0  0  0
   11.0083  -17.1982   23.5848 C   0  0  0  0  0  0  0  0  0  0  0  0
   12.4878  -17.3065   23.1955 C   0  0  0  0  0  0  0  0  0  0  0  0
   12.6527  -18.2779   22.0585 C   0  0  0  0  0  0  0  0  0  0  0  0
   14.0276  -18.1649   21.5293 O   0  0  0  0  0  0  0  0  0  0  0  0
   14.2047  -17.6720   20.3892 C   0  0  0  0  0  0  0  0  0  0  0  0
   10.8965  -16.3184   24.7741 O   0  0  0  0  0  0  0  0  0  0  0  0
   10.9188  -15.0795   24.6435 O   0  0  0  0  0  0  0  0  0  0  0  0
   15.0845  -18.6035   22.3002 C   0  0  0  0  0  0  0  0  0  0  0  0
    7.8205  -13.3930   26.9325 C   0  0  1  0  0  0  0  0  0  0  0  0
    9.3087  -13.8713   26.9631 C   0  0  0  0  0  0  0  0  0  0  0  0
    9.8747  -13.1778   28.1835 C   0  0  0  0  0  0  0  0  0  0  0  0
    9.2087  -15.3458   27.0414 C   0  0  2  0  0  0  0  0  0  0  0  0
   10.4494  -16.0963   27.2565 N   0  0  0  0  0  0  0  0  0  0  0  0
   10.7648  -16.8990   26.0526 C   0  0  0  0  0  0  0  0  0  0  0  0
   10.5389  -16.9908   28.3812 O   0  0  0  0  0  0  0  0  0  0  0  0
   10.7009  -16.6400   29.5777 O   0  0  0  0  0  0  0  0  0  0  0  0
  2  1  1  0
  2  3  2  0
  4  2  1  0
  5  4  1  0
  6  5  1  0
  7  6  1  0
  8  7  1  0
  8  9  1  1
 10  8  1  0
 10 12  1  0
 11 10  2  0
 13 12  1  0
 13 14  1  6
 15 14  1  0
 16 15  1  0
 17 16  2  0
 18 19  2  0
 18 13  1  0
 20 16  1  0
 22 21  1  6
 22 24  1  0
 23 22  1  0
 25 24  1  6
 25 26  1  0
 25 27  1  0
 26 18  1  0
 27 29  1  0
 28 27  2  0
M  END
$$$$
