REL.pdb
     RDKit          3D

 29 28  0  0  1  0  0  0  0  0999 V2000
    7.9551  -12.7477   16.6994 N   0  0  0  0  0  0  0  0  0  0  0  0
    8.4624  -12.8665   18.0165 C   0  0  0  0  0  0  0  0  0  0  0  0
    8.6171  -11.8113   18.7554 N   0  0  0  0  0  0  0  0  0  0  0  0
    8.8166  -14.1482   18.5659 N   0  0  0  0  0  0  0  0  0  0  0  0
    7.8129  -15.1149   18.9302 C   0  0  0  0  0  0  0  0  0  0  0  0
    7.1607  -14.7540   20.2434 C   0  0  0  0  0  0  0  0  0  0  0  0
    6.7450  -16.0015   20.9490 C   0  0  0  0  0  0  0  0  0  0  0  0
    7.8660  -17.0187   21.0412 C   0  0  2  0  0  0  0  0  0  0  0  0
    7.5487  -18.2361   20.3628 N   0  0  0  0  0  0  0  0  0  0  0  0
    8.1623  -17.2392   22.4921 C   0  0  0  0  0  0  0  0  0  0  0  0
    7.2177  -17.5019   23.2791 O   0  0  0  0  0  0  0  0  0  0  0  0
    9.0451  -11.8828   19.7023 N   0  0  0  0  0  0  0  0  0  0  0  0
    9.4682  -17.1667   23.0335 C   0  0  2  0  0  0  0  0  0  0  0  0
    9.7481  -17.3623   24.4477 C   0  0  0  0  0  0  0  0  0  0  0  0
   11.0221  -18.1987   24.6199 C   0  0  0  0  0  0  0  0  0  0  0  0
   10.8541  -19.5380   23.9554 C   0  0  0  0  0  0  0  0  0  0  0  0
   12.1149  -20.2974   24.0856 O   0  0  0  0  0  0  0  0  0  0  0  0
   12.8492  -20.4394   23.0783 C   0  0  0  0  0  0  0  0  0  0  0  0
    9.9573  -16.0447   25.0968 O   0  0  0  0  0  0  0  0  0  0  0  0
   10.8201  -15.2591   24.6602 O   0  0  0  0  0  0  0  0  0  0  0  0
   12.4557  -20.8324   25.3109 C   0  0  0  0  0  0  0  0  0  0  0  0
    6.2571  -12.4742   26.5132 C   0  0  2  0  0  0  0  0  0  0  0  0
    7.5453  -13.1774   25.9744 C   0  0  0  0  0  0  0  0  0  0  0  0
    8.2836  -12.0618   25.2666 C   0  0  0  0  0  0  0  0  0  0  0  0
    8.1936  -13.7165   27.1906 C   0  0  2  0  0  0  0  0  0  0  0  0
    9.4353  -14.4754   27.0141 N   0  0  0  0  0  0  0  0  0  0  0  0
    9.1697  -15.6918   26.2122 C   0  0  0  0  0  0  0  0  0  0  0  0
   10.1645  -14.9033   28.1796 O   0  0  0  0  0  0  0  0  0  0  0  0
   10.2327  -16.0861   28.6004 O   0  0  0  0  0  0  0  0  0  0  0  0
  2  1  1  0
  2  3  2  0
  4  2  1  0
  5  4  1  0
  6  5  1  0
  7  6  1  0
  8  7  1  0
  8  9  1  1
 10  8  1  0
 10 12  1  0
 11 10  2  0
 13 12  1  0
 13 14  1  6
 15 14  1  0
 16 15  1  0
 17 16  2  0
 18 19  2  0
 18 13  1  0
 20 16  1  0
 22 21  1  6
 22 24  1  0
 23 22  1  0
 25 24  1  6
 25 26  1  0
 25 27  1  0
 26 18  1  0
 27 29  1  0
 28 27  2  0
M  END
$$$$
