REL.pdb
     RDKit          3D

 29 28  0  0  1  0  0  0  0  0999 V2000
    7.1353  -15.1388   15.5405 N   0  0  0  0  0  0  0  0  0  0  0  0
    8.2077  -14.2143   15.5054 C   0  0  0  0  0  0  0  0  0  0  0  0
    9.1399  -14.3276   14.6101 N   0  0  0  0  0  0  0  0  0  0  0  0
    8.2920  -13.1344   16.4524 N   0  0  0  0  0  0  0  0  0  0  0  0
    8.4851  -13.3791   17.8586 C   0  0  0  0  0  0  0  0  0  0  0  0
    7.2828  -14.0653   18.4618 C   0  0  0  0  0  0  0  0  0  0  0  0
    7.6175  -14.5293   19.8402 C   0  0  0  0  0  0  0  0  0  0  0  0
    7.8874  -16.0204   19.9023 C   0  0  2  0  0  0  0  0  0  0  0  0
    6.7853  -16.7901   19.4166 N   0  0  0  0  0  0  0  0  0  0  0  0
    8.2365  -16.3610   21.3177 C   0  0  0  0  0  0  0  0  0  0  0  0
    7.3349  -16.3456   22.1938 O   0  0  0  0  0  0  0  0  0  0  0  0
    9.9399  -13.6609   14.5875 N   0  0  0  0  0  0  0  0  0  0  0  0
    9.5467  -16.7047   21.7289 C   0  0  2  0  0  0  0  0  0  0  0  0
    9.8837  -17.0194   23.1087 C   0  0  0  0  0  0  0  0  0  0  0  0
   11.3245  -17.5385   23.1921 C   0  0  0  0  0  0  0  0  0  0  0  0
   11.6051  -18.0632   24.5739 C   0  0  0  0  0  0  0  0  0  0  0  0
   13.0086  -18.5212   24.6351 O   0  0  0  0  0  0  0  0  0  0  0  0
   13.4966  -18.8483   25.7436 C   0  0  0  0  0  0  0  0  0  0  0  0
    9.7755  -15.7925   23.9359 O   0  0  0  0  0  0  0  0  0  0  0  0
   10.0853  -14.6840   23.4591 O   0  0  0  0  0  0  0  0  0  0  0  0
   13.7497  -18.5787   23.4727 C   0  0  0  0  0  0  0  0  0  0  0  0
    6.0545  -12.5738   26.0157 C   0  0  2  0  0  0  0  0  0  0  0  0
    7.5644  -12.7342   26.3882 C   0  0  0  0  0  0  0  0  0  0  0  0
    7.5362  -12.9323   27.8885 C   0  0  0  0  0  0  0  0  0  0  0  0
    8.0087  -13.8968   25.5874 C   0  0  1  0  0  0  0  0  0  0  0  0
    9.1077  -14.7055   26.1231 N   0  0  0  0  0  0  0  0  0  0  0  0
    9.3188  -15.8949   25.2663 C   0  0  0  0  0  0  0  0  0  0  0  0
    9.0263  -15.1852   27.4782 O   0  0  0  0  0  0  0  0  0  0  0  0
    9.5049  -14.6037   28.4850 O   0  0  0  0  0  0  0  0  0  0  0  0
  2  1  1  0
  2  3  2  0
  4  2  1  0
  5  4  1  0
  6  5  1  0
  7  6  1  0
  8  7  1  0
  8  9  1  1
 10  8  1  0
 10 12  1  0
 11 10  2  0
 13 12  1  0
 13 14  1  6
 15 14  1  0
 16 15  1  0
 17 16  2  0
 18 19  2  0
 18 13  1  0
 20 16  1  0
 22 21  1  1
 22 24  1  0
 23 22  1  0
 25 24  1  6
 25 26  1  0
 25 27  1  0
 26 18  1  0
 27 29  1  0
 28 27  2  0
M  END
$$$$
