PDG.pdb
     RDKit          3D

 20 20  0  0  1  0  0  0  0  0999 V2000
    9.0896  -14.6609   18.8354 N   0  0  0  0  0  0  0  0  0  0  0  0
    8.7892  -13.7554   17.7329 C   0  0  0  0  0  0  0  0  0  0  0  0
    7.7852  -12.7538   18.2354 C   0  0  0  0  0  0  0  0  0  0  0  0
    7.3957  -13.3401   19.5853 C   0  0  0  0  0  0  0  0  0  0  0  0
    8.7669  -13.8870   20.0249 C   0  0  1  0  0  0  0  0  0  0  0  0
    8.6808  -14.7027   21.2303 C   0  0  0  0  0  0  0  0  0  0  0  0
    8.1963  -14.2266   22.2802 O   0  0  0  0  0  0  0  0  0  0  0  0
    9.1426  -16.0347   21.2217 N   0  0  0  0  0  0  0  0  0  0  0  0
    8.9298  -16.8586   22.4698 C   0  0  1  0  0  0  0  0  0  0  0  0
    8.5749  -18.2431   21.9699 C   0  0  0  0  0  0  0  0  0  0  0  0
    7.3692  -18.3304   21.1854 C   0  0  0  0  0  0  0  0  0  0  0  0
    6.3641  -17.6238   21.3389 O   0  0  0  0  0  0  0  0  0  0  0  0
   10.2618  -16.8618   23.0924 C   0  0  0  0  0  0  0  0  0  0  0  0
   10.3853  -17.4348   24.2275 O   0  0  0  0  0  0  0  0  0  0  0  0
    7.3103  -19.2917   20.1540 O   0  0  0  0  0  0  0  0  0  0  0  0
   11.4484  -16.2964   22.5669 N   0  0  0  0  0  0  0  0  0  0  0  0
   12.6957  -16.4175   23.3469 C   0  0  0  0  0  0  0  0  0  0  0  0
   13.8212  -15.7602   22.6772 C   0  0  0  0  0  0  0  0  0  0  0  0
   13.6435  -15.2076   21.5673 O   0  0  0  0  0  0  0  0  0  0  0  0
   15.0689  -15.7427   23.2518 O   0  0  0  0  0  0  0  0  0  0  0  0
  1  5  1  0
  2  1  1  0
  2  3  1  0
  3  4  1  0
  5  4  1  0
  6  7  2  0
  5  6  1  1
  8  6  1  0
  9  8  1  0
  9 10  1  6
 10 11  1  0
 11 12  2  0
 11 15  1  0
 13  9  1  0
 14 13  2  0
 16 13  1  0
 17 16  1  0
 18 20  1  0
 18 17  1  0
 19 18  2  0
M  END
$$$$
