PDG.pdb
     RDKit          3D

 20 20  0  0  1  0  0  0  0  0999 V2000
    8.0473  -14.4490   18.4285 N   0  0  0  0  0  0  0  0  0  0  0  0
    7.3805  -13.1880   18.1270 C   0  0  0  0  0  0  0  0  0  0  0  0
    7.8613  -12.1748   19.1301 C   0  0  0  0  0  0  0  0  0  0  0  0
    8.6256  -13.0423   20.1205 C   0  0  0  0  0  0  0  0  0  0  0  0
    9.2533  -14.0490   19.1381 C   0  0  1  0  0  0  0  0  0  0  0  0
    9.9085  -15.1585   19.8204 C   0  0  0  0  0  0  0  0  0  0  0  0
    9.2282  -16.0799   20.3220 O   0  0  0  0  0  0  0  0  0  0  0  0
   11.3141  -15.2015   19.9195 N   0  0  0  0  0  0  0  0  0  0  0  0
   11.9384  -16.4500   20.4970 C   0  0  1  0  0  0  0  0  0  0  0  0
   13.3598  -16.4549   19.9755 C   0  0  0  0  0  0  0  0  0  0  0  0
   14.1662  -17.5789   20.3796 C   0  0  0  0  0  0  0  0  0  0  0  0
   13.7290  -18.6861   20.7207 O   0  0  0  0  0  0  0  0  0  0  0  0
   11.9217  -16.1867   21.9435 C   0  0  0  0  0  0  0  0  0  0  0  0
   12.1315  -14.9877   22.3313 O   0  0  0  0  0  0  0  0  0  0  0  0
   15.5689  -17.4255   20.3934 O   0  0  0  0  0  0  0  0  0  0  0  0
   11.6904  -17.1259   22.9771 N   0  0  0  0  0  0  0  0  0  0  0  0
   11.6096  -16.6410   24.3689 C   0  0  0  0  0  0  0  0  0  0  0  0
   11.2033  -17.7040   25.2920 C   0  0  0  0  0  0  0  0  0  0  0  0
   11.1384  -17.4657   26.5199 O   0  0  0  0  0  0  0  0  0  0  0  0
   10.8927  -18.9588   24.8271 O   0  0  0  0  0  0  0  0  0  0  0  0
  1  5  1  0
  2  1  1  0
  2  3  1  0
  3  4  1  0
  5  4  1  0
  6  7  2  0
  5  6  1  1
  8  6  1  0
  9  8  1  0
  9 10  1  6
 10 11  1  0
 11 12  2  0
 11 15  1  0
 13  9  1  0
 14 13  2  0
 16 13  1  0
 17 16  1  0
 18 20  1  0
 18 17  1  0
 19 18  2  0
M  END
$$$$
