PDG.pdb
     RDKit          3D

 20 20  0  0  1  0  0  0  0  0999 V2000
    7.8747  -13.9696   20.0139 N   0  0  0  0  0  0  0  0  0  0  0  0
    7.1455  -12.9766   19.2342 C   0  0  0  0  0  0  0  0  0  0  0  0
    7.9183  -12.7474   17.9637 C   0  0  0  0  0  0  0  0  0  0  0  0
    9.2166  -13.4930   18.2396 C   0  0  0  0  0  0  0  0  0  0  0  0
    8.6532  -14.6949   19.0209 C   0  0  1  0  0  0  0  0  0  0  0  0
    9.7028  -15.5184   19.6090 C   0  0  0  0  0  0  0  0  0  0  0  0
   10.3990  -16.2636   18.8855 O   0  0  0  0  0  0  0  0  0  0  0  0
    9.9414  -15.4808   20.9980 N   0  0  0  0  0  0  0  0  0  0  0  0
   11.1307  -16.2480   21.5262 C   0  0  1  0  0  0  0  0  0  0  0  0
   11.0589  -17.5991   20.8466 C   0  0  0  0  0  0  0  0  0  0  0  0
   11.4012  -18.7292   21.6728 C   0  0  0  0  0  0  0  0  0  0  0  0
   11.8651  -18.6621   22.8189 O   0  0  0  0  0  0  0  0  0  0  0  0
   12.2730  -15.4753   21.0162 C   0  0  0  0  0  0  0  0  0  0  0  0
   13.2831  -15.3315   21.7849 O   0  0  0  0  0  0  0  0  0  0  0  0
   11.1978  -20.0248   21.1519 O   0  0  0  0  0  0  0  0  0  0  0  0
   12.3875  -14.8641   19.7445 N   0  0  0  0  0  0  0  0  0  0  0  0
   13.6039  -14.0850   19.4408 C   0  0  0  0  0  0  0  0  0  0  0  0
   14.6886  -14.9399   18.9515 C   0  0  0  0  0  0  0  0  0  0  0  0
   14.5790  -16.1851   19.0316 O   0  0  0  0  0  0  0  0  0  0  0  0
   15.8244  -14.3927   18.4060 O   0  0  0  0  0  0  0  0  0  0  0  0
  1  5  1  0
  2  1  1  0
  2  3  1  0
  3  4  1  0
  5  4  1  0
  6  7  2  0
  5  6  1  1
  8  6  1  0
  9  8  1  0
  9 10  1  6
 10 11  1  0
 11 12  2  0
 11 15  1  0
 13  9  1  0
 14 13  2  0
 16 13  1  0
 17 16  1  0
 18 20  1  0
 18 17  1  0
 19 18  2  0
M  END
$$$$
