PDG.pdb
     RDKit          3D

 20 20  0  0  1  0  0  0  0  0999 V2000
    8.9211  -14.4152   19.3900 N   0  0  0  0  0  0  0  0  0  0  0  0
    8.7895  -13.5119   18.2532 C   0  0  0  0  0  0  0  0  0  0  0  0
    7.8373  -12.4188   18.6563 C   0  0  0  0  0  0  0  0  0  0  0  0
    7.2913  -12.9409   19.9780 C   0  0  0  0  0  0  0  0  0  0  0  0
    8.5706  -13.5913   20.5373 C   0  0  1  0  0  0  0  0  0  0  0  0
    8.3178  -14.3704   21.7434 C   0  0  0  0  0  0  0  0  0  0  0  0
    7.7546  -13.8434   22.7276 O   0  0  0  0  0  0  0  0  0  0  0  0
    8.7060  -15.7241   21.8096 N   0  0  0  0  0  0  0  0  0  0  0  0
    8.2626  -16.5227   23.0127 C   0  0  1  0  0  0  0  0  0  0  0  0
    7.9756  -17.9100   22.4784 C   0  0  0  0  0  0  0  0  0  0  0  0
    6.7895  -18.0310   21.6688 C   0  0  0  0  0  0  0  0  0  0  0  0
    5.6439  -17.7312   22.0303 O   0  0  0  0  0  0  0  0  0  0  0  0
    9.4646  -16.5357   23.8595 C   0  0  0  0  0  0  0  0  0  0  0  0
   10.5986  -16.4216   23.2826 O   0  0  0  0  0  0  0  0  0  0  0  0
    6.9241  -18.5284   20.3551 O   0  0  0  0  0  0  0  0  0  0  0  0
    9.5115  -16.6574   25.2691 N   0  0  0  0  0  0  0  0  0  0  0  0
   10.8262  -16.6200   25.9392 C   0  0  0  0  0  0  0  0  0  0  0  0
   11.0800  -17.8425   26.7062 C   0  0  0  0  0  0  0  0  0  0  0  0
   10.4895  -18.9022   26.3943 O   0  0  0  0  0  0  0  0  0  0  0  0
   11.9577  -17.8407   27.7629 O   0  0  0  0  0  0  0  0  0  0  0  0
  1  5  1  0
  2  1  1  0
  2  3  1  0
  3  4  1  0
  5  4  1  0
  6  7  2  0
  5  6  1  1
  8  6  1  0
  9  8  1  0
  9 10  1  6
 10 11  1  0
 11 12  2  0
 11 15  1  0
 13  9  1  0
 14 13  2  0
 16 13  1  0
 17 16  1  0
 18 20  1  0
 18 17  1  0
 19 18  2  0
M  END
$$$$
