PDG.pdb
     RDKit          3D

 20 20  0  0  1  0  0  0  0  0999 V2000
    8.6761  -14.0002   21.1277 N   0  0  0  0  0  0  0  0  0  0  0  0
    7.8042  -13.0789   20.4088 C   0  0  0  0  0  0  0  0  0  0  0  0
    7.1037  -13.8684   19.3364 C   0  0  0  0  0  0  0  0  0  0  0  0
    7.8460  -15.1967   19.3799 C   0  0  0  0  0  0  0  0  0  0  0  0
    8.0746  -15.3055   20.8992 C   0  0  1  0  0  0  0  0  0  0  0  0
    8.9579  -16.4105   21.2519 C   0  0  0  0  0  0  0  0  0  0  0  0
    8.5686  -17.5924   21.1294 O   0  0  0  0  0  0  0  0  0  0  0  0
   10.2581  -16.1552   21.7333 N   0  0  0  0  0  0  0  0  0  0  0  0
   11.1140  -17.3432   22.1051 C   0  0  1  0  0  0  0  0  0  0  0  0
   12.4432  -17.0978   21.4229 C   0  0  0  0  0  0  0  0  0  0  0  0
   12.5035  -17.4626   20.0300 C   0  0  0  0  0  0  0  0  0  0  0  0
   12.0504  -18.5079   19.5448 O   0  0  0  0  0  0  0  0  0  0  0  0
   11.2505  -17.2064   23.5627 C   0  0  0  0  0  0  0  0  0  0  0  0
   12.1302  -17.9253   24.1468 O   0  0  0  0  0  0  0  0  0  0  0  0
   13.1240  -16.5696   19.1307 O   0  0  0  0  0  0  0  0  0  0  0  0
   10.5083  -16.3494   24.4105 N   0  0  0  0  0  0  0  0  0  0  0  0
   10.8599  -16.2930   25.8430 C   0  0  0  0  0  0  0  0  0  0  0  0
   10.2883  -17.4183   26.5874 C   0  0  0  0  0  0  0  0  0  0  0  0
    9.6149  -18.2830   25.9810 O   0  0  0  0  0  0  0  0  0  0  0  0
   10.4820  -17.5366   27.9423 O   0  0  0  0  0  0  0  0  0  0  0  0
  1  5  1  0
  2  1  1  0
  2  3  1  0
  3  4  1  0
  5  4  1  0
  6  7  2  0
  5  6  1  6
  8  6  1  0
  9  8  1  0
  9 10  1  6
 10 11  1  0
 11 12  2  0
 11 15  1  0
 13  9  1  0
 14 13  2  0
 16 13  1  0
 17 16  1  0
 18 20  1  0
 18 17  1  0
 19 18  2  0
M  END
$$$$
