ICD.pdb
     RDKit          3D

 23 22  0  0  1  0  0  0  0  0999 V2000
    7.4016  -12.1962   18.6564 C   0  0  0  0  0  0  0  0  0  0  0  0
    7.4415  -13.5431   19.3099 C   0  0  0  0  0  0  0  0  0  0  0  0
    7.8678  -13.5055   20.7573 C   0  0  2  0  0  0  0  0  0  0  0  0
    9.2326  -12.8632   20.8922 C   0  0  0  0  0  0  0  0  0  0  0  0
    7.9711  -14.8956   21.3482 C   0  0  2  0  0  0  0  0  0  0  0  0
    6.6749  -15.5130   21.2196 N   0  0  0  0  0  0  0  0  0  0  0  0
    8.4333  -14.8651   22.7593 C   0  0  0  0  0  0  0  0  0  0  0  0
    9.6218  -14.5035   22.9538 O   0  0  0  0  0  0  0  0  0  0  0  0
    7.6504  -15.2045   23.8583 N   0  0  0  0  0  0  0  0  0  0  0  0
    8.0846  -15.1506   25.2605 C   0  0  1  0  0  0  0  0  0  0  0  0
    6.9183  -14.7811   26.1391 C   0  0  0  0  0  0  0  0  0  0  0  0
    6.2777  -13.1698   25.6644 S   0  0  0  0  0  0  0  0  0  0  0  0
    8.6709  -16.4714   25.5329 C   0  0  0  0  0  0  0  0  0  0  0  0
    7.9432  -17.4958   25.6594 O   0  0  0  0  0  0  0  0  0  0  0  0
   10.0516  -16.6374   25.6577 N   0  0  0  0  0  0  0  0  0  0  0  0
   10.6802  -17.9031   26.0182 C   0  0  1  0  0  0  0  0  0  0  0  0
   12.1022  -17.8563   25.5174 C   0  0  0  0  0  0  0  0  0  0  0  0
   12.2157  -17.4747   24.0902 C   0  0  0  0  0  0  0  0  0  0  0  0
   12.6651  -16.3301   23.7880 O   0  0  0  0  0  0  0  0  0  0  0  0
   10.5999  -18.1758   27.4504 C   0  0  0  0  0  0  0  0  0  0  0  0
   10.9201  -19.2942   27.9081 O   0  0  0  0  0  0  0  0  0  0  0  0
   11.8620  -18.2830   23.0248 O   0  0  0  0  0  0  0  0  0  0  0  0
   10.1661  -17.1948   28.3228 O   0  0  0  0  0  0  0  0  0  0  0  0
  2  1  1  0
  2  3  1  0
  3  4  1  6
  5  3  1  0
  5  6  1  1
  7  5  1  0
  7  8  2  0
  9 10  1  0
  9  7  1  0
 11 12  1  0
 10 11  1  1
 13 10  1  0
 13 14  2  0
 15 13  1  0
 16 15  1  0
 16 20  1  0
 16 17  1  1
 18 17  1  0
 18 22  1  0
 19 18  2  0
 20 21  2  0
 20 23  1  0
M  END
$$$$
