ICD.pdb
     RDKit          3D

 23 22  0  0  1  0  0  0  0  0999 V2000
    8.7036  -12.3692   27.5068 C   0  0  0  0  0  0  0  0  0  0  0  0
    7.8595  -13.5381   27.1021 C   0  0  0  0  0  0  0  0  0  0  0  0
    6.9927  -13.2746   25.8948 C   0  0  2  0  0  0  0  0  0  0  0  0
    5.9674  -12.2031   26.2011 C   0  0  0  0  0  0  0  0  0  0  0  0
    6.2293  -14.5115   25.4714 C   0  0  2  0  0  0  0  0  0  0  0  0
    5.6919  -15.1131   26.6660 N   0  0  0  0  0  0  0  0  0  0  0  0
    7.0849  -15.4576   24.7107 C   0  0  0  0  0  0  0  0  0  0  0  0
    7.3459  -16.5534   25.2695 O   0  0  0  0  0  0  0  0  0  0  0  0
    7.6058  -15.2136   23.4437 N   0  0  0  0  0  0  0  0  0  0  0  0
    8.3244  -16.1923   22.6171 C   0  0  1  0  0  0  0  0  0  0  0  0
    7.9705  -15.9892   21.1671 C   0  0  0  0  0  0  0  0  0  0  0  0
    8.2476  -14.2751   20.7014 S   0  0  0  0  0  0  0  0  0  0  0  0
    9.7459  -15.9994   22.9403 C   0  0  0  0  0  0  0  0  0  0  0  0
   10.1930  -14.8649   23.2690 O   0  0  0  0  0  0  0  0  0  0  0  0
   10.6478  -17.0643   22.8974 N   0  0  0  0  0  0  0  0  0  0  0  0
   12.0532  -16.9434   23.2681 C   0  0  1  0  0  0  0  0  0  0  0  0
   12.5195  -18.3083   23.7095 C   0  0  0  0  0  0  0  0  0  0  0  0
   12.0751  -18.6736   25.0750 C   0  0  0  0  0  0  0  0  0  0  0  0
   11.7150  -17.7607   25.8752 O   0  0  0  0  0  0  0  0  0  0  0  0
   12.8683  -16.3960   22.1874 C   0  0  0  0  0  0  0  0  0  0  0  0
   12.4346  -16.3559   21.0156 O   0  0  0  0  0  0  0  0  0  0  0  0
   12.0179  -19.9643   25.5693 O   0  0  0  0  0  0  0  0  0  0  0  0
   14.1371  -15.9126   22.4485 O   0  0  0  0  0  0  0  0  0  0  0  0
  2  1  1  0
  2  3  1  0
  3  4  1  1
  5  3  1  0
  5  6  1  1
  7  5  1  0
  7  8  2  0
  9 10  1  0
  9  7  1  0
 11 12  1  0
 10 11  1  6
 13 10  1  0
 13 14  2  0
 15 13  1  0
 16 15  1  0
 16 20  1  0
 16 17  1  6
 18 17  1  0
 18 22  1  0
 19 18  2  0
 20 21  2  0
 20 23  1  0
M  END
$$$$
