ICD.pdb
     RDKit          3D

 23 22  0  0  1  0  0  0  0  0999 V2000
    6.9487  -11.9495   18.2245 C   0  0  0  0  0  0  0  0  0  0  0  0
    7.6087  -13.2265   18.6444 C   0  0  0  0  0  0  0  0  0  0  0  0
    7.5586  -13.4776   20.1319 C   0  0  2  0  0  0  0  0  0  0  0  0
    8.4207  -12.4743   20.8690 C   0  0  0  0  0  0  0  0  0  0  0  0
    8.0783  -14.8547   20.4863 C   0  0  2  0  0  0  0  0  0  0  0  0
    7.3112  -15.8105   19.7275 N   0  0  0  0  0  0  0  0  0  0  0  0
    8.0028  -15.1168   21.9463 C   0  0  0  0  0  0  0  0  0  0  0  0
    7.0961  -14.5179   22.5788 O   0  0  0  0  0  0  0  0  0  0  0  0
    8.8548  -15.9665   22.6451 N   0  0  0  0  0  0  0  0  0  0  0  0
    8.7487  -16.2898   24.0739 C   0  0  1  0  0  0  0  0  0  0  0  0
    7.3337  -16.6903   24.3999 C   0  0  0  0  0  0  0  0  0  0  0  0
    7.2129  -17.1663   26.1293 S   0  0  0  0  0  0  0  0  0  0  0  0
    9.7572  -17.3339   24.3083 C   0  0  0  0  0  0  0  0  0  0  0  0
    9.4508  -18.4250   24.8658 O   0  0  0  0  0  0  0  0  0  0  0  0
   11.0863  -17.1552   23.9198 N   0  0  0  0  0  0  0  0  0  0  0  0
   12.2220  -17.4016   24.8011 C   0  0  1  0  0  0  0  0  0  0  0  0
   13.1275  -16.1986   24.7127 C   0  0  0  0  0  0  0  0  0  0  0  0
   13.8535  -16.0965   23.4251 C   0  0  0  0  0  0  0  0  0  0  0  0
   13.1967  -15.9485   22.3527 O   0  0  0  0  0  0  0  0  0  0  0  0
   11.8097  -17.6923   26.1713 C   0  0  0  0  0  0  0  0  0  0  0  0
   10.9231  -17.0117   26.7312 O   0  0  0  0  0  0  0  0  0  0  0  0
   15.2287  -16.1515   23.2860 O   0  0  0  0  0  0  0  0  0  0  0  0
   12.3984  -18.7299   26.8703 O   0  0  0  0  0  0  0  0  0  0  0  0
  2  1  1  0
  2  3  1  0
  3  4  1  1
  5  3  1  0
  5  6  1  6
  7  5  1  0
  7  8  2  0
  9 10  1  0
  9  7  1  0
 11 12  1  0
 10 11  1  6
 13 10  1  0
 13 14  2  0
 15 13  1  0
 16 15  1  0
 16 20  1  0
 16 17  1  1
 18 17  1  0
 18 22  1  0
 19 18  2  0
 20 21  2  0
 20 23  1  0
M  END
$$$$
