ICD.pdb
     RDKit          3D

 23 22  0  0  1  0  0  0  0  0999 V2000
    7.2032  -11.8620   19.5512 C   0  0  0  0  0  0  0  0  0  0  0  0
    7.4154  -13.2028   20.1836 C   0  0  0  0  0  0  0  0  0  0  0  0
    8.3864  -14.0827   19.4347 C   0  0  2  0  0  0  0  0  0  0  0  0
    7.8236  -14.4626   18.0811 C   0  0  0  0  0  0  0  0  0  0  0  0
    8.6634  -15.3723   20.1780 C   0  0  2  0  0  0  0  0  0  0  0  0
    7.4317  -16.1204   20.2116 N   0  0  0  0  0  0  0  0  0  0  0  0
    9.1980  -15.1226   21.5410 C   0  0  0  0  0  0  0  0  0  0  0  0
   10.3477  -14.6182   21.6101 O   0  0  0  0  0  0  0  0  0  0  0  0
    8.5209  -15.4056   22.7231 N   0  0  0  0  0  0  0  0  0  0  0  0
    9.0530  -15.2024   24.0770 C   0  0  1  0  0  0  0  0  0  0  0  0
    7.9150  -15.0588   25.0533 C   0  0  0  0  0  0  0  0  0  0  0  0
    6.8850  -16.5318   25.0173 S   0  0  0  0  0  0  0  0  0  0  0  0
    9.9359  -16.3529   24.3203 C   0  0  0  0  0  0  0  0  0  0  0  0
    9.6442  -17.5032   23.8883 O   0  0  0  0  0  0  0  0  0  0  0  0
   11.1274  -16.2113   25.0344 N   0  0  0  0  0  0  0  0  0  0  0  0
   11.9692  -17.3362   25.4254 C   0  0  1  0  0  0  0  0  0  0  0  0
   13.4011  -16.8654   25.3698 C   0  0  0  0  0  0  0  0  0  0  0  0
   13.9946  -16.9317   24.0137 C   0  0  0  0  0  0  0  0  0  0  0  0
   13.7882  -17.9539   23.2955 O   0  0  0  0  0  0  0  0  0  0  0  0
   11.6071  -17.8732   26.7341 C   0  0  0  0  0  0  0  0  0  0  0  0
   10.8414  -17.2430   27.4951 O   0  0  0  0  0  0  0  0  0  0  0  0
   14.7800  -15.9451   23.4451 O   0  0  0  0  0  0  0  0  0  0  0  0
   12.1098  -19.0923   27.1498 O   0  0  0  0  0  0  0  0  0  0  0  0
  2  1  1  0
  2  3  1  0
  3  4  1  6
  5  3  1  0
  5  6  1  1
  7  5  1  0
  7  8  2  0
  9 10  1  0
  9  7  1  0
 11 12  1  0
 10 11  1  1
 13 10  1  0
 13 14  2  0
 15 13  1  0
 16 15  1  0
 16 20  1  0
 16 17  1  1
 18 17  1  0
 18 22  1  0
 19 18  2  0
 20 21  2  0
 20 23  1  0
M  END
$$$$
