ICD.pdb
     RDKit          3D

 23 22  0  0  1  0  0  0  0  0999 V2000
    7.6228  -12.0391   20.1275 C   0  0  0  0  0  0  0  0  0  0  0  0
    7.6293  -13.2005   21.0730 C   0  0  0  0  0  0  0  0  0  0  0  0
    8.4384  -14.3779   20.5860 C   0  0  2  0  0  0  0  0  0  0  0  0
    7.8219  -14.9639   19.3331 C   0  0  0  0  0  0  0  0  0  0  0  0
    8.4910  -15.4868   21.6154 C   0  0  2  0  0  0  0  0  0  0  0  0
    7.1488  -15.9883   21.7738 N   0  0  0  0  0  0  0  0  0  0  0  0
    9.0644  -15.0206   22.9036 C   0  0  0  0  0  0  0  0  0  0  0  0
   10.2565  -14.6215   22.8766 O   0  0  0  0  0  0  0  0  0  0  0  0
    8.3800  -14.9975   24.1149 N   0  0  0  0  0  0  0  0  0  0  0  0
    8.9543  -14.6045   25.4084 C   0  0  1  0  0  0  0  0  0  0  0  0
    7.9383  -13.8212   26.1978 C   0  0  0  0  0  0  0  0  0  0  0  0
    8.6371  -13.3263   27.7785 S   0  0  0  0  0  0  0  0  0  0  0  0
    9.3892  -15.8619   26.0346 C   0  0  0  0  0  0  0  0  0  0  0  0
    8.5801  -16.8139   26.2191 O   0  0  0  0  0  0  0  0  0  0  0  0
   10.7115  -16.0464   26.4432 N   0  0  0  0  0  0  0  0  0  0  0  0
   11.1698  -17.2194   27.1787 C   0  0  1  0  0  0  0  0  0  0  0  0
   12.6414  -17.3824   26.8910 C   0  0  0  0  0  0  0  0  0  0  0  0
   12.9562  -17.4749   25.4460 C   0  0  0  0  0  0  0  0  0  0  0  0
   14.0328  -16.9688   25.0121 O   0  0  0  0  0  0  0  0  0  0  0  0
   10.8860  -17.1255   28.6079 C   0  0  0  0  0  0  0  0  0  0  0  0
   10.4362  -16.0696   29.1033 O   0  0  0  0  0  0  0  0  0  0  0  0
   12.1524  -18.0833   24.4988 O   0  0  0  0  0  0  0  0  0  0  0  0
   11.1129  -18.2096   29.4355 O   0  0  0  0  0  0  0  0  0  0  0  0
  2  1  1  0
  2  3  1  0
  3  4  1  6
  5  3  1  0
  5  6  1  1
  7  5  1  0
  7  8  2  0
  9 10  1  0
  9  7  1  0
 11 12  1  0
 10 11  1  1
 13 10  1  0
 13 14  2  0
 15 13  1  0
 16 15  1  0
 16 20  1  0
 16 17  1  1
 18 17  1  0
 18 22  1  0
 19 18  2  0
 20 21  2  0
 20 23  1  0
M  END
$$$$
