ICD.pdb
     RDKit          3D

 23 22  0  0  1  0  0  0  0  0999 V2000
    6.3280  -11.6209   27.5202 C   0  0  0  0  0  0  0  0  0  0  0  0
    5.8403  -12.8155   26.7600 C   0  0  0  0  0  0  0  0  0  0  0  0
    6.9462  -13.6463   26.1559 C   0  0  2  0  0  0  0  0  0  0  0  0
    7.7859  -12.8085   25.2146 C   0  0  0  0  0  0  0  0  0  0  0  0
    6.4005  -14.8065   25.3507 C   0  0  2  0  0  0  0  0  0  0  0  0
    5.6801  -15.6595   26.2625 N   0  0  0  0  0  0  0  0  0  0  0  0
    7.4766  -15.5407   24.6373 C   0  0  0  0  0  0  0  0  0  0  0  0
    8.0838  -16.4251   25.2932 O   0  0  0  0  0  0  0  0  0  0  0  0
    7.8482  -15.3168   23.3152 N   0  0  0  0  0  0  0  0  0  0  0  0
    8.7669  -16.1576   22.5364 C   0  0  1  0  0  0  0  0  0  0  0  0
    8.6024  -15.8639   21.0682 C   0  0  0  0  0  0  0  0  0  0  0  0
    6.9081  -16.1892   20.5627 S   0  0  0  0  0  0  0  0  0  0  0  0
   10.1035  -15.8721   23.0789 C   0  0  0  0  0  0  0  0  0  0  0  0
   10.4741  -14.6878   23.3136 O   0  0  0  0  0  0  0  0  0  0  0  0
   11.0062  -16.9008   23.3554 N   0  0  0  0  0  0  0  0  0  0  0  0
   12.3554  -16.6728   23.8602 C   0  0  1  0  0  0  0  0  0  0  0  0
   12.8104  -17.9519   24.5175 C   0  0  0  0  0  0  0  0  0  0  0  0
   12.0684  -18.2772   25.7581 C   0  0  0  0  0  0  0  0  0  0  0  0
   11.6841  -19.4672   25.9571 O   0  0  0  0  0  0  0  0  0  0  0  0
   13.2715  -16.2239   22.8155 C   0  0  0  0  0  0  0  0  0  0  0  0
   12.9993  -16.3966   21.6077 O   0  0  0  0  0  0  0  0  0  0  0  0
   11.7470  -17.3673   26.7491 O   0  0  0  0  0  0  0  0  0  0  0  0
   14.4581  -15.5987   23.1516 O   0  0  0  0  0  0  0  0  0  0  0  0
  2  1  1  0
  2  3  1  0
  3  4  1  6
  5  3  1  0
  5  6  1  1
  7  5  1  0
  7  8  2  0
  9 10  1  0
  9  7  1  0
 11 12  1  0
 10 11  1  6
 13 10  1  0
 13 14  2  0
 15 13  1  0
 16 15  1  0
 16 20  1  0
 16 17  1  6
 18 17  1  0
 18 22  1  0
 19 18  2  0
 20 21  2  0
 20 23  1  0
M  END
$$$$
