ICD.pdb
     RDKit          3D

 23 22  0  0  1  0  0  0  0  0999 V2000
    7.5126  -11.6972   20.0080 C   0  0  0  0  0  0  0  0  0  0  0  0
    7.5290  -13.0606   20.6272 C   0  0  0  0  0  0  0  0  0  0  0  0
    8.5335  -14.0000   20.0054 C   0  0  2  0  0  0  0  0  0  0  0  0
    8.1444  -14.3244   18.5783 C   0  0  0  0  0  0  0  0  0  0  0  0
    8.6114  -15.3138   20.7538 C   0  0  2  0  0  0  0  0  0  0  0  0
    7.3113  -15.9310   20.6722 N   0  0  0  0  0  0  0  0  0  0  0  0
    9.0484  -15.1252   22.1607 C   0  0  0  0  0  0  0  0  0  0  0  0
   10.2088  -14.6726   22.3329 O   0  0  0  0  0  0  0  0  0  0  0  0
    8.2708  -15.4116   23.2784 N   0  0  0  0  0  0  0  0  0  0  0  0
    8.7074  -15.2785   24.6745 C   0  0  1  0  0  0  0  0  0  0  0  0
    7.5145  -15.0193   25.5569 C   0  0  0  0  0  0  0  0  0  0  0  0
    6.7950  -13.4196   25.1630 S   0  0  0  0  0  0  0  0  0  0  0  0
    9.4376  -16.5203   24.9696 C   0  0  0  0  0  0  0  0  0  0  0  0
    8.8653  -17.6446   24.9101 O   0  0  0  0  0  0  0  0  0  0  0  0
   10.7884  -16.4982   25.3223 N   0  0  0  0  0  0  0  0  0  0  0  0
   11.5372  -17.6871   25.7128 C   0  0  1  0  0  0  0  0  0  0  0  0
   12.9921  -17.4169   25.4208 C   0  0  0  0  0  0  0  0  0  0  0  0
   13.2681  -17.1384   23.9919 C   0  0  0  0  0  0  0  0  0  0  0  0
   12.6099  -17.7531   23.1017 O   0  0  0  0  0  0  0  0  0  0  0  0
   11.3055  -18.0575   27.1061 C   0  0  0  0  0  0  0  0  0  0  0  0
   11.8468  -19.0715   27.5975 O   0  0  0  0  0  0  0  0  0  0  0  0
   14.2117  -16.2390   23.5292 O   0  0  0  0  0  0  0  0  0  0  0  0
   10.4797  -17.2867   27.9033 O   0  0  0  0  0  0  0  0  0  0  0  0
  2  1  1  0
  2  3  1  0
  3  4  1  6
  5  3  1  0
  5  6  1  1
  7  5  1  0
  7  8  2  0
  9 10  1  0
  9  7  1  0
 11 12  1  0
 10 11  1  1
 13 10  1  0
 13 14  2  0
 15 13  1  0
 16 15  1  0
 16 20  1  0
 16 17  1  1
 18 17  1  0
 18 22  1  0
 19 18  2  0
 20 21  2  0
 20 23  1  0
M  END
$$$$
