LIG.pdb
     RDKit          3D

 21 20  0  0  1  0  0  0  0  0999 V2000
   16.6442  -10.4114  -19.6151 C   0  0  0  0  0  0  0  0  0  0  0  0
   15.7776  -10.6336  -18.3636 C   0  0  2  0  0  0  0  0  0  0  0  0
   14.5011   -9.8322  -18.4900 C   0  0  0  0  0  0  0  0  0  0  0  0
   16.5453  -10.2488  -17.1302 C   0  0  0  0  0  0  0  0  0  0  0  0
   17.8283  -10.9837  -17.0459 C   0  0  2  0  0  0  0  0  0  0  0  0
   17.6724  -12.4088  -16.9034 N   0  0  0  0  0  0  0  0  0  0  0  0
   18.6880  -10.5257  -15.9213 C   0  0  0  0  0  0  0  0  0  0  0  0
   18.4660  -10.9270  -14.7618 O   0  0  0  0  0  0  0  0  0  0  0  0
   23.1824  -10.4862  -13.4668 C   0  0  0  0  0  0  0  0  0  0  0  0
   23.1300   -9.4989  -14.6149 C   0  0  0  0  0  0  0  0  0  0  0  0
   21.9929   -9.7918  -15.5343 C   0  0  2  0  0  0  0  0  0  0  0  0
   22.3533   -9.5610  -16.9674 C   0  0  0  0  0  0  0  0  0  0  0  0
   20.6744   -9.1716  -15.1493 C   0  0  2  0  0  0  0  0  0  0  0  0
   19.7399   -9.6444  -16.1896 N   0  0  0  0  0  0  0  0  0  0  0  0
   20.6708   -7.6907  -15.2021 C   0  0  0  0  0  0  0  0  0  0  0  0
   20.7755   -7.0928  -16.3045 O   0  0  0  0  0  0  0  0  0  0  0  0
   20.5526   -6.8455  -14.0632 N   0  0  0  0  0  0  0  0  0  0  0  0
   20.5724   -5.3993  -14.1825 C   0  0  0  0  0  0  0  0  0  0  0  0
   21.9361   -4.8539  -13.9933 C   0  0  0  0  0  0  0  0  0  0  0  0
   22.2481   -3.5184  -14.1698 O   0  0  0  0  0  0  0  0  0  0  0  0
   22.8460   -5.6531  -13.6559 O   0  0  0  0  0  0  0  0  0  0  0  0
  2  1  1  6
  3  2  1  0
  4  5  1  0
  4  2  1  0
  5  7  1  0
  5  6  1  1
  7 14  1  0
  7  8  2  0
  9 10  1  0
 10 11  1  0
 11 12  1  6
 13 15  1  0
 13 11  1  0
 13 14  1  6
 15 16  2  0
 17 18  1  0
 17 15  1  0
 19 18  1  0
 20 19  1  0
 21 19  2  0
M  END
$$$$
