LIG.pdb
     RDKit          3D

 21 20  0  0  1  0  0  0  0  0999 V2000
  -39.9044   -9.3033  -34.4633 C   0  0  0  0  0  0  0  0  0  0  0  0
  -40.8244  -10.2421  -35.2626 C   0  0  2  0  0  0  0  0  0  0  0  0
  -42.2449   -9.7267  -35.1964 C   0  0  0  0  0  0  0  0  0  0  0  0
  -40.7247  -11.6420  -34.7251 C   0  0  0  0  0  0  0  0  0  0  0  0
  -40.8671  -11.6620  -33.2511 C   0  0  2  0  0  0  0  0  0  0  0  0
  -39.6331  -11.4273  -32.5457 N   0  0  0  0  0  0  0  0  0  0  0  0
  -41.4245  -12.9425  -32.7381 C   0  0  0  0  0  0  0  0  0  0  0  0
  -42.5100  -12.9499  -32.1243 O   0  0  0  0  0  0  0  0  0  0  0  0
  -40.5920  -18.2011  -34.1566 C   0  0  0  0  0  0  0  0  0  0  0  0
  -39.7973  -17.3881  -33.1550 C   0  0  0  0  0  0  0  0  0  0  0  0
  -40.6658  -16.4166  -32.4297 C   0  0  2  0  0  0  0  0  0  0  0  0
  -41.5821  -17.0940  -31.4610 C   0  0  0  0  0  0  0  0  0  0  0  0
  -41.3675  -15.4040  -33.2978 C   0  0  2  0  0  0  0  0  0  0  0  0
  -40.7125  -14.1258  -32.9565 N   0  0  0  0  0  0  0  0  0  0  0  0
  -42.8090  -15.2491  -32.9918 C   0  0  0  0  0  0  0  0  0  0  0  0
  -43.2623  -15.5938  -31.8695 O   0  0  0  0  0  0  0  0  0  0  0  0
  -43.7710  -14.7190  -33.8968 N   0  0  0  0  0  0  0  0  0  0  0  0
  -44.9669  -15.4582  -34.2566 C   0  0  0  0  0  0  0  0  0  0  0  0
  -45.1587  -16.6431  -33.3894 C   0  0  0  0  0  0  0  0  0  0  0  0
  -44.6650  -17.8966  -33.7008 O   0  0  0  0  0  0  0  0  0  0  0  0
  -45.8031  -16.4898  -32.3209 O   0  0  0  0  0  0  0  0  0  0  0  0
  2  1  1  1
  3  2  1  0
  4  5  1  0
  4  2  1  0
  5  7  1  0
  5  6  1  1
  7 14  1  0
  7  8  2  0
  9 10  1  0
 10 11  1  0
 11 12  1  6
 13 15  1  0
 13 11  1  0
 13 14  1  1
 15 16  2  0
 17 18  1  0
 17 15  1  0
 19 18  1  0
 20 19  1  0
 21 19  2  0
M  END
$$$$
