LIG.pdb
     RDKit          3D

 21 20  0  0  1  0  0  0  0  0999 V2000
   20.6478  -14.1634  -21.7105 C   0  0  0  0  0  0  0  0  0  0  0  0
   22.0384  -14.0066  -21.0716 C   0  0  2  0  0  0  0  0  0  0  0  0
   22.8214  -15.2875  -21.2564 C   0  0  0  0  0  0  0  0  0  0  0  0
   21.9007  -13.6546  -19.6171 C   0  0  0  0  0  0  0  0  0  0  0  0
   23.2178  -13.3523  -19.0114 C   0  0  2  0  0  0  0  0  0  0  0  0
   23.9863  -14.5246  -18.6784 N   0  0  0  0  0  0  0  0  0  0  0  0
   23.1144  -12.5341  -17.7730 C   0  0  0  0  0  0  0  0  0  0  0  0
   22.5958  -13.0168  -16.7469 O   0  0  0  0  0  0  0  0  0  0  0  0
   27.2323  -10.7745  -15.6637 C   0  0  0  0  0  0  0  0  0  0  0  0
   25.7904  -11.1787  -15.8942 C   0  0  0  0  0  0  0  0  0  0  0  0
   24.9529  -10.0095  -16.2888 C   0  0  2  0  0  0  0  0  0  0  0  0
   25.0988   -8.8651  -15.3371 C   0  0  0  0  0  0  0  0  0  0  0  0
   23.5163  -10.3254  -16.6173 C   0  0  2  0  0  0  0  0  0  0  0  0
   23.6061  -11.2252  -17.7841 N   0  0  0  0  0  0  0  0  0  0  0  0
   22.7247   -9.1455  -17.0381 C   0  0  0  0  0  0  0  0  0  0  0  0
   23.0676   -8.4757  -18.0468 O   0  0  0  0  0  0  0  0  0  0  0  0
   21.5555   -8.6821  -16.3720 N   0  0  0  0  0  0  0  0  0  0  0  0
   20.8956   -7.4492  -16.7602 C   0  0  0  0  0  0  0  0  0  0  0  0
   21.1080   -6.3775  -15.7606 C   0  0  0  0  0  0  0  0  0  0  0  0
   20.6123   -5.0952  -15.9092 O   0  0  0  0  0  0  0  0  0  0  0  0
   21.7726   -6.6587  -14.7312 O   0  0  0  0  0  0  0  0  0  0  0  0
  2  1  1  1
  3  2  1  0
  4  5  1  0
  4  2  1  0
  5  7  1  0
  5  6  1  1
  7 14  1  0
  7  8  2  0
  9 10  1  0
 10 11  1  0
 11 12  1  1
 13 15  1  0
 13 11  1  0
 13 14  1  6
 15 16  2  0
 17 18  1  0
 17 15  1  0
 19 18  1  0
 20 19  1  0
 21 19  2  0
M  END
$$$$
