LIG.pdb
     RDKit          3D

 21 20  0  0  1  0  0  0  0  0999 V2000
   24.7501  -32.8126  -18.4206 C   0  0  0  0  0  0  0  0  0  0  0  0
   24.3941  -32.3031  -17.0134 C   0  0  2  0  0  0  0  0  0  0  0  0
   23.1671  -31.4224  -17.0955 C   0  0  0  0  0  0  0  0  0  0  0  0
   25.5608  -31.5622  -16.4232 C   0  0  0  0  0  0  0  0  0  0  0  0
   26.7654  -32.4213  -16.3602 C   0  0  2  0  0  0  0  0  0  0  0  0
   26.6980  -33.4418  -15.3455 N   0  0  0  0  0  0  0  0  0  0  0  0
   28.0164  -31.6522  -16.1209 C   0  0  0  0  0  0  0  0  0  0  0  0
   28.4118  -31.4495  -14.9558 O   0  0  0  0  0  0  0  0  0  0  0  0
   32.3041  -32.3489  -16.8420 C   0  0  0  0  0  0  0  0  0  0  0  0
   31.3679  -32.2463  -18.0289 C   0  0  0  0  0  0  0  0  0  0  0  0
   30.8488  -30.8582  -18.1954 C   0  0  2  0  0  0  0  0  0  0  0  0
   31.9309  -29.8917  -18.5586 C   0  0  0  0  0  0  0  0  0  0  0  0
   29.9624  -30.3619  -17.0821 C   0  0  2  0  0  0  0  0  0  0  0  0
   28.7322  -31.1663  -17.2194 N   0  0  0  0  0  0  0  0  0  0  0  0
   29.5693  -28.9397  -17.2181 C   0  0  0  0  0  0  0  0  0  0  0  0
   30.4170  -28.0257  -17.0455 O   0  0  0  0  0  0  0  0  0  0  0  0
   28.2570  -28.4954  -17.5430 N   0  0  0  0  0  0  0  0  0  0  0  0
   27.9653  -27.0947  -17.7866 C   0  0  0  0  0  0  0  0  0  0  0  0
   27.4312  -26.4292  -16.5764 C   0  0  0  0  0  0  0  0  0  0  0  0
   27.0320  -25.1055  -16.5547 O   0  0  0  0  0  0  0  0  0  0  0  0
   27.3411  -27.1104  -15.5237 O   0  0  0  0  0  0  0  0  0  0  0  0
  2  1  1  6
  3  2  1  0
  4  5  1  0
  4  2  1  0
  5  7  1  0
  5  6  1  1
  7 14  1  0
  7  8  2  0
  9 10  1  0
 10 11  1  0
 11 12  1  1
 13 15  1  0
 13 11  1  0
 13 14  1  6
 15 16  2  0
 17 18  1  0
 17 15  1  0
 19 18  1  0
 20 19  1  0
 21 19  2  0
M  END
$$$$
