LIG.pdb
     RDKit          3D

 21 20  0  0  1  0  0  0  0  0999 V2000
   25.0170  -21.0197   -7.7407 C   0  0  0  0  0  0  0  0  0  0  0  0
   26.4323  -20.5302   -8.0924 C   0  0  2  0  0  0  0  0  0  0  0  0
   26.9359  -19.6227   -6.9920 C   0  0  0  0  0  0  0  0  0  0  0  0
   26.4190  -19.8254   -9.4196 C   0  0  0  0  0  0  0  0  0  0  0  0
   26.0197  -20.7438  -10.5106 C   0  0  2  0  0  0  0  0  0  0  0  0
   26.9209  -21.8527  -10.6946 N   0  0  0  0  0  0  0  0  0  0  0  0
   25.8940  -20.0626  -11.8274 C   0  0  0  0  0  0  0  0  0  0  0  0
   26.3444  -18.9099  -11.9799 O   0  0  0  0  0  0  0  0  0  0  0  0
   27.7160  -22.5261  -15.1833 C   0  0  0  0  0  0  0  0  0  0  0  0
   27.1390  -21.1283  -15.2767 C   0  0  0  0  0  0  0  0  0  0  0  0
   25.6521  -21.1435  -15.1630 C   0  0  2  0  0  0  0  0  0  0  0  0
   24.9846  -21.1453  -16.5014 C   0  0  0  0  0  0  0  0  0  0  0  0
   25.0665  -20.1315  -14.2119 C   0  0  2  0  0  0  0  0  0  0  0  0
   25.2662  -20.7358  -12.8799 N   0  0  0  0  0  0  0  0  0  0  0  0
   23.6091  -19.9239  -14.3810 C   0  0  0  0  0  0  0  0  0  0  0  0
   23.1755  -19.1533  -15.2765 O   0  0  0  0  0  0  0  0  0  0  0  0
   22.6096  -20.5492  -13.5838 N   0  0  0  0  0  0  0  0  0  0  0  0
   21.1971  -20.2876  -13.7895 C   0  0  0  0  0  0  0  0  0  0  0  0
   20.5789  -21.2949  -14.6818 C   0  0  0  0  0  0  0  0  0  0  0  0
   19.2662  -21.2224  -15.1100 O   0  0  0  0  0  0  0  0  0  0  0  0
   21.2919  -22.2580  -15.0620 O   0  0  0  0  0  0  0  0  0  0  0  0
  2  1  1  1
  3  2  1  0
  4  5  1  0
  4  2  1  0
  5  7  1  0
  5  6  1  6
  7 14  1  0
  7  8  2  0
  9 10  1  0
 10 11  1  0
 11 12  1  6
 13 15  1  0
 13 11  1  0
 13 14  1  1
 15 16  2  0
 17 18  1  0
 17 15  1  0
 19 18  1  0
 20 19  1  0
 21 19  2  0
M  END
$$$$
