LIG.pdb
     RDKit          3D

 21 20  0  0  1  0  0  0  0  0999 V2000
   23.2606  -17.0116  -16.2862 C   0  0  0  0  0  0  0  0  0  0  0  0
   22.5704  -18.2162  -16.9488 C   0  0  2  0  0  0  0  0  0  0  0  0
   21.2831  -17.7602  -17.5991 C   0  0  0  0  0  0  0  0  0  0  0  0
   22.3174  -19.2905  -15.9288 C   0  0  0  0  0  0  0  0  0  0  0  0
   23.5768  -19.7207  -15.2792 C   0  0  2  0  0  0  0  0  0  0  0  0
   24.5396  -20.2803  -16.1933 N   0  0  0  0  0  0  0  0  0  0  0  0
   23.3625  -20.7264  -14.2039 C   0  0  0  0  0  0  0  0  0  0  0  0
   23.3235  -21.9410  -14.4835 O   0  0  0  0  0  0  0  0  0  0  0  0
   26.1024  -20.4460   -9.7848 C   0  0  0  0  0  0  0  0  0  0  0  0
   25.2519  -20.9844  -10.9172 C   0  0  0  0  0  0  0  0  0  0  0  0
   23.7995  -20.7622  -10.6616 C   0  0  2  0  0  0  0  0  0  0  0  0
   23.3799  -21.2685   -9.3183 C   0  0  0  0  0  0  0  0  0  0  0  0
   22.8748  -21.1932  -11.7709 C   0  0  2  0  0  0  0  0  0  0  0  0
   23.2074  -20.2852  -12.8863 N   0  0  0  0  0  0  0  0  0  0  0  0
   21.4385  -20.9968  -11.4638 C   0  0  0  0  0  0  0  0  0  0  0  0
   20.9579  -19.8366  -11.3817 O   0  0  0  0  0  0  0  0  0  0  0  0
   20.5110  -22.0537  -11.2445 N   0  0  0  0  0  0  0  0  0  0  0  0
   19.1207  -21.7923  -10.9209 C   0  0  0  0  0  0  0  0  0  0  0  0
   18.2138  -22.2447  -12.0007 C   0  0  0  0  0  0  0  0  0  0  0  0
   16.8404  -22.3139  -11.8559 O   0  0  0  0  0  0  0  0  0  0  0  0
   18.7288  -22.5795  -13.0975 O   0  0  0  0  0  0  0  0  0  0  0  0
  2  1  1  1
  3  2  1  0
  4  5  1  0
  4  2  1  0
  5  7  1  0
  5  6  1  6
  7 14  1  0
  7  8  2  0
  9 10  1  0
 10 11  1  0
 11 12  1  1
 13 15  1  0
 13 11  1  0
 13 14  1  6
 15 16  2  0
 17 18  1  0
 17 15  1  0
 19 18  1  0
 20 19  1  0
 21 19  2  0
M  END
$$$$
