LIG.pdb
     RDKit          3D

 21 20  0  0  1  0  0  0  0  0999 V2000
   28.5018  -17.6581  -15.3856 C   0  0  0  0  0  0  0  0  0  0  0  0
   27.9302  -18.6061  -16.4538 C   0  0  2  0  0  0  0  0  0  0  0  0
   27.3120  -17.7906  -17.5676 C   0  0  0  0  0  0  0  0  0  0  0  0
   26.9252  -19.5354  -15.8334 C   0  0  0  0  0  0  0  0  0  0  0  0
   27.5232  -20.3051  -14.7185 C   0  0  2  0  0  0  0  0  0  0  0  0
   28.5134  -21.2630  -15.1400 N   0  0  0  0  0  0  0  0  0  0  0  0
   26.5133  -21.0478  -13.9171 C   0  0  0  0  0  0  0  0  0  0  0  0
   26.2376  -22.2304  -14.2008 O   0  0  0  0  0  0  0  0  0  0  0  0
   26.7373  -20.6068   -8.7432 C   0  0  0  0  0  0  0  0  0  0  0  0
   26.4349  -21.1497  -10.1251 C   0  0  0  0  0  0  0  0  0  0  0  0
   25.1296  -20.6414  -10.6369 C   0  0  2  0  0  0  0  0  0  0  0  0
   24.0073  -20.9131   -9.6865 C   0  0  0  0  0  0  0  0  0  0  0  0
   24.8032  -21.0167  -12.0596 C   0  0  2  0  0  0  0  0  0  0  0  0
   25.8860  -20.3981  -12.8497 N   0  0  0  0  0  0  0  0  0  0  0  0
   23.5265  -20.4475  -12.5514 C   0  0  0  0  0  0  0  0  0  0  0  0
   23.3447  -19.2023  -12.5566 O   0  0  0  0  0  0  0  0  0  0  0  0
   22.4374  -21.2208  -13.0426 N   0  0  0  0  0  0  0  0  0  0  0  0
   21.2317  -20.5980  -13.5571 C   0  0  0  0  0  0  0  0  0  0  0  0
   20.0622  -20.8733  -12.6914 C   0  0  0  0  0  0  0  0  0  0  0  0
   18.8203  -20.2994  -12.8923 O   0  0  0  0  0  0  0  0  0  0  0  0
   20.2179  -21.6688  -11.7305 O   0  0  0  0  0  0  0  0  0  0  0  0
  2  1  1  1
  3  2  1  0
  4  5  1  0
  4  2  1  0
  5  7  1  0
  5  6  1  6
  7 14  1  0
  7  8  2  0
  9 10  1  0
 10 11  1  0
 11 12  1  1
 13 15  1  0
 13 11  1  0
 13 14  1  6
 15 16  2  0
 17 18  1  0
 17 15  1  0
 19 18  1  0
 20 19  1  0
 21 19  2  0
M  END
$$$$
