LIG.pdb
     RDKit          3D

 21 20  0  0  1  0  0  0  0  0999 V2000
   21.2156  -20.2499  -18.1696 C   0  0  0  0  0  0  0  0  0  0  0  0
   20.4152  -20.4221  -16.8672 C   0  0  2  0  0  0  0  0  0  0  0  0
   18.9372  -20.4463  -17.1874 C   0  0  0  0  0  0  0  0  0  0  0  0
   20.7489  -19.3152  -15.9070 C   0  0  0  0  0  0  0  0  0  0  0  0
   22.2122  -19.1981  -15.7111 C   0  0  2  0  0  0  0  0  0  0  0  0
   22.7855  -20.2841  -14.9577 N   0  0  0  0  0  0  0  0  0  0  0  0
   22.6083  -17.9376  -15.0270 C   0  0  0  0  0  0  0  0  0  0  0  0
   22.4578  -17.8219  -13.7945 O   0  0  0  0  0  0  0  0  0  0  0  0
   26.4069  -17.5288  -15.9658 C   0  0  0  0  0  0  0  0  0  0  0  0
   25.9241  -16.5160  -14.9475 C   0  0  0  0  0  0  0  0  0  0  0  0
   25.0274  -15.5007  -15.5712 C   0  0  2  0  0  0  0  0  0  0  0  0
   25.5657  -14.1123  -15.4321 C   0  0  0  0  0  0  0  0  0  0  0  0
   23.5709  -15.6097  -15.1995 C   0  0  2  0  0  0  0  0  0  0  0  0
   23.1474  -16.8957  -15.7877 N   0  0  0  0  0  0  0  0  0  0  0  0
   22.7191  -14.5558  -15.7992 C   0  0  0  0  0  0  0  0  0  0  0  0
   22.5647  -14.4954  -17.0467 O   0  0  0  0  0  0  0  0  0  0  0  0
   22.0269  -13.5603  -15.0541 N   0  0  0  0  0  0  0  0  0  0  0  0
   21.2287  -12.5384  -15.7059 C   0  0  0  0  0  0  0  0  0  0  0  0
   21.9938  -11.2845  -15.8939 C   0  0  0  0  0  0  0  0  0  0  0  0
   21.3977  -10.0700  -16.1793 O   0  0  0  0  0  0  0  0  0  0  0  0
   23.2452  -11.3392  -15.7866 O   0  0  0  0  0  0  0  0  0  0  0  0
  2  1  1  6
  3  2  1  0
  4  5  1  0
  4  2  1  0
  5  7  1  0
  5  6  1  1
  7 14  1  0
  7  8  2  0
  9 10  1  0
 10 11  1  0
 11 12  1  1
 13 15  1  0
 13 11  1  0
 13 14  1  6
 15 16  2  0
 17 18  1  0
 17 15  1  0
 19 18  1  0
 20 19  1  0
 21 19  2  0
M  END
$$$$
