VIT.pdb
     RDKit          3D

 23 22  0  0  1  0  0  0  0  0999 V2000
    6.4989  -16.5231   19.3281 C   0  0  0  0  0  0  0  0  0  0  0  0
    7.2004  -16.2789   20.6153 C   0  0  2  0  0  0  0  0  0  0  0  0
    6.6852  -17.2648   21.6409 C   0  0  0  0  0  0  0  0  0  0  0  0
    7.1313  -14.8597   21.1265 C   0  0  2  0  0  0  0  0  0  0  0  0
    7.7462  -14.0359   20.0730 N   0  0  0  0  0  0  0  0  0  0  0  0
    7.9124  -14.6290   22.3600 C   0  0  0  0  0  0  0  0  0  0  0  0
    9.1440  -14.4780   22.3210 O   0  0  0  0  0  0  0  0  0  0  0  0
    5.8990  -11.6122   26.4076 C   0  0  0  0  0  0  0  0  0  0  0  0
    6.8202  -12.1936   25.3275 C   0  0  0  0  0  0  0  0  0  0  0  0
    7.2958  -13.5089   25.8311 C   0  0  2  0  0  0  0  0  0  0  0  0
    8.0659  -13.3499   27.1160 C   0  0  0  0  0  0  0  0  0  0  0  0
    8.0471  -14.3307   24.8219 C   0  0  2  0  0  0  0  0  0  0  0  0
    7.2722  -14.5738   23.6163 N   0  0  0  0  0  0  0  0  0  0  0  0
    8.5371  -15.6129   25.4080 C   0  0  0  0  0  0  0  0  0  0  0  0
    7.7236  -16.4553   25.9116 O   0  0  0  0  0  0  0  0  0  0  0  0
   12.0896  -19.0414   25.6510 C   0  0  0  0  0  0  0  0  0  0  0  0
   11.6226  -17.6896   25.1516 C   0  0  1  0  0  0  0  0  0  0  0  0
   11.4350  -17.7359   23.7707 O   0  0  0  0  0  0  0  0  0  0  0  0
   10.3549  -17.3036   25.8749 C   0  0  2  0  0  0  0  0  0  0  0  0
    9.9000  -15.9711   25.4436 N   0  0  0  0  0  0  0  0  0  0  0  0
   10.5313  -17.3570   27.3288 C   0  0  0  0  0  0  0  0  0  0  0  0
   10.3849  -18.5254   28.0823 O   0  0  0  0  0  0  0  0  0  0  0  0
   10.8300  -16.3124   27.9551 O   0  0  0  0  0  0  0  0  0  0  0  0
  2  1  1  6
  2  3  1  0
  4  2  1  0
  4  5  1  6
  6  4  1  0
  6 13  1  0
  7  6  2  0
  9 10  1  0
  9  8  1  0
 10 12  1  0
 10 11  1  1
 12 13  1  6
 14 12  1  0
 15 14  2  0
 17 16  1  1
 17 18  1  0
 17 19  1  0
 19 21  1  0
 19 20  1  6
 20 14  1  0
 21 22  1  0
 23 21  2  0
M  END
$$$$
