VIT.pdb
     RDKit          3D

 23 22  0  0  1  0  0  0  0  0999 V2000
    6.9095  -18.7127   22.4893 C   0  0  0  0  0  0  0  0  0  0  0  0
    5.7266  -17.8142   22.5369 C   0  0  2  0  0  0  0  0  0  0  0  0
    4.6666  -18.3613   21.6061 C   0  0  0  0  0  0  0  0  0  0  0  0
    6.0130  -16.3583   22.2567 C   0  0  2  0  0  0  0  0  0  0  0  0
    6.4991  -16.3172   20.8680 N   0  0  0  0  0  0  0  0  0  0  0  0
    7.0825  -15.7853   23.1010 C   0  0  0  0  0  0  0  0  0  0  0  0
    8.2677  -15.7983   22.7321 O   0  0  0  0  0  0  0  0  0  0  0  0
    5.8388  -11.8111   26.6577 C   0  0  0  0  0  0  0  0  0  0  0  0
    6.6180  -12.5093   25.5359 C   0  0  0  0  0  0  0  0  0  0  0  0
    7.3472  -13.6439   26.1611 C   0  0  2  0  0  0  0  0  0  0  0  0
    8.4443  -13.1486   27.0666 C   0  0  0  0  0  0  0  0  0  0  0  0
    7.8416  -14.6802   25.1916 C   0  0  2  0  0  0  0  0  0  0  0  0
    6.7784  -15.2065   24.3515 N   0  0  0  0  0  0  0  0  0  0  0  0
    8.5684  -15.7839   25.8854 C   0  0  0  0  0  0  0  0  0  0  0  0
    7.9643  -16.5519   26.7041 O   0  0  0  0  0  0  0  0  0  0  0  0
   12.4807  -18.8286   25.9303 C   0  0  0  0  0  0  0  0  0  0  0  0
   11.7959  -17.6091   25.3483 C   0  0  1  0  0  0  0  0  0  0  0  0
   11.4459  -17.8530   24.0208 O   0  0  0  0  0  0  0  0  0  0  0  0
   10.5902  -17.2672   26.1901 C   0  0  2  0  0  0  0  0  0  0  0  0
    9.9393  -16.0458   25.6873 N   0  0  0  0  0  0  0  0  0  0  0  0
   10.9468  -17.1320   27.6051 C   0  0  0  0  0  0  0  0  0  0  0  0
   10.9351  -18.1976   28.5100 O   0  0  0  0  0  0  0  0  0  0  0  0
   11.2844  -16.0108   28.0542 O   0  0  0  0  0  0  0  0  0  0  0  0
  2  1  1  6
  2  3  1  0
  4  2  1  0
  4  5  1  6
  6  4  1  0
  6 13  1  0
  7  6  2  0
  9 10  1  0
  9  8  1  0
 10 12  1  0
 10 11  1  6
 12 13  1  1
 14 12  1  0
 15 14  2  0
 17 16  1  1
 17 18  1  0
 17 19  1  0
 19 21  1  0
 19 20  1  6
 20 14  1  0
 21 22  1  0
 23 21  2  0
M  END
$$$$
