VIT.pdb
     RDKit          3D

 23 22  0  0  1  0  0  0  0  0999 V2000
    6.9521  -13.7904   19.0791 C   0  0  0  0  0  0  0  0  0  0  0  0
    7.5559  -13.4919   20.4038 C   0  0  2  0  0  0  0  0  0  0  0  0
    8.7449  -12.5790   20.1981 C   0  0  0  0  0  0  0  0  0  0  0  0
    7.9215  -14.7009   21.2313 C   0  0  2  0  0  0  0  0  0  0  0  0
    6.6548  -15.4159   21.4570 N   0  0  0  0  0  0  0  0  0  0  0  0
    8.4693  -14.3709   22.5639 C   0  0  0  0  0  0  0  0  0  0  0  0
    9.6023  -13.8790   22.6883 O   0  0  0  0  0  0  0  0  0  0  0  0
    6.0210  -11.6597   26.3267 C   0  0  0  0  0  0  0  0  0  0  0  0
    7.0489  -12.2688   25.3646 C   0  0  0  0  0  0  0  0  0  0  0  0
    7.4614  -13.5733   25.9461 C   0  0  2  0  0  0  0  0  0  0  0  0
    8.0910  -13.3864   27.3018 C   0  0  0  0  0  0  0  0  0  0  0  0
    8.3116  -14.4206   25.0420 C   0  0  2  0  0  0  0  0  0  0  0  0
    7.7122  -14.6076   23.7309 N   0  0  0  0  0  0  0  0  0  0  0  0
    8.6450  -15.7339   25.6677 C   0  0  0  0  0  0  0  0  0  0  0  0
    7.7253  -16.5452   26.0157 O   0  0  0  0  0  0  0  0  0  0  0  0
   11.7585  -19.4806   25.9716 C   0  0  0  0  0  0  0  0  0  0  0  0
   11.4964  -18.0422   25.5750 C   0  0  1  0  0  0  0  0  0  0  0  0
   11.3138  -17.9590   24.1951 O   0  0  0  0  0  0  0  0  0  0  0  0
   10.2932  -17.5301   26.3295 C   0  0  2  0  0  0  0  0  0  0  0  0
    9.9677  -16.1564   25.9108 N   0  0  0  0  0  0  0  0  0  0  0  0
   10.4983  -17.6066   27.7786 C   0  0  0  0  0  0  0  0  0  0  0  0
   10.1440  -18.7162   28.5515 O   0  0  0  0  0  0  0  0  0  0  0  0
   11.0179  -16.6379   28.3823 O   0  0  0  0  0  0  0  0  0  0  0  0
  2  1  1  6
  2  3  1  0
  4  2  1  0
  4  5  1  1
  6  4  1  0
  6 13  1  0
  7  6  2  0
  9 10  1  0
  9  8  1  0
 10 12  1  0
 10 11  1  1
 12 13  1  6
 14 12  1  0
 15 14  2  0
 17 16  1  6
 17 18  1  0
 17 19  1  0
 19 21  1  0
 19 20  1  6
 20 14  1  0
 21 22  1  0
 23 21  2  0
M  END
$$$$
