VIT.pdb
     RDKit          3D

 23 22  0  0  1  0  0  0  0  0999 V2000
    8.8665  -20.1000   18.4760 C   0  0  0  0  0  0  0  0  0  0  0  0
    7.6059  -19.3981   18.1197 C   0  0  2  0  0  0  0  0  0  0  0  0
    6.7885  -20.2997   17.2206 C   0  0  0  0  0  0  0  0  0  0  0  0
    7.7825  -18.0253   17.5161 C   0  0  2  0  0  0  0  0  0  0  0  0
    8.5576  -18.2388   16.2831 N   0  0  0  0  0  0  0  0  0  0  0  0
    8.5662  -17.0973   18.3584 C   0  0  0  0  0  0  0  0  0  0  0  0
    9.7709  -16.8935   18.1393 O   0  0  0  0  0  0  0  0  0  0  0  0
    6.8377  -12.2978   20.2973 C   0  0  0  0  0  0  0  0  0  0  0  0
    7.7161  -13.3941   19.6812 C   0  0  0  0  0  0  0  0  0  0  0  0
    8.0308  -14.3554   20.7706 C   0  0  2  0  0  0  0  0  0  0  0  0
    8.7322  -13.6679   21.9128 C   0  0  0  0  0  0  0  0  0  0  0  0
    8.7599  -15.5910   20.3235 C   0  0  2  0  0  0  0  0  0  0  0  0
    7.9589  -16.4175   19.4355 N   0  0  0  0  0  0  0  0  0  0  0  0
    9.2624  -16.3859   21.4825 C   0  0  0  0  0  0  0  0  0  0  0  0
    8.4542  -16.9927   22.2594 O   0  0  0  0  0  0  0  0  0  0  0  0
   12.9637  -18.9098   23.5503 C   0  0  0  0  0  0  0  0  0  0  0  0
   12.4655  -18.0066   22.4408 C   0  0  1  0  0  0  0  0  0  0  0  0
   12.3947  -18.7219   21.2461 O   0  0  0  0  0  0  0  0  0  0  0  0
   11.1234  -17.4352   22.8302 C   0  0  2  0  0  0  0  0  0  0  0  0
   10.6320  -16.5166   21.7895 N   0  0  0  0  0  0  0  0  0  0  0  0
   11.1830  -16.7719   24.1356 C   0  0  0  0  0  0  0  0  0  0  0  0
   10.8825  -17.4117   25.3418 O   0  0  0  0  0  0  0  0  0  0  0  0
   11.5187  -15.5654   24.2024 O   0  0  0  0  0  0  0  0  0  0  0  0
  2  1  1  6
  2  3  1  0
  4  2  1  0
  4  5  1  6
  6  4  1  0
  6 13  1  0
  7  6  2  0
  9 10  1  0
  9  8  1  0
 10 12  1  0
 10 11  1  1
 12 13  1  1
 14 12  1  0
 15 14  2  0
 17 16  1  1
 17 18  1  0
 17 19  1  0
 19 21  1  0
 19 20  1  6
 20 14  1  0
 21 22  1  0
 23 21  2  0
M  END
$$$$
