VIT.pdb
     RDKit          3D

 23 22  0  0  1  0  0  0  0  0999 V2000
    7.7629  -17.1773   20.9970 C   0  0  0  0  0  0  0  0  0  0  0  0
    6.6519  -16.1902   20.9793 C   0  0  2  0  0  0  0  0  0  0  0  0
    5.8494  -16.3889   19.7122 C   0  0  0  0  0  0  0  0  0  0  0  0
    7.0689  -14.7492   21.1517 C   0  0  2  0  0  0  0  0  0  0  0  0
    7.9478  -14.4585   20.0073 N   0  0  0  0  0  0  0  0  0  0  0  0
    7.8614  -14.4975   22.3739 C   0  0  0  0  0  0  0  0  0  0  0  0
    9.1013  -14.4514   22.3367 O   0  0  0  0  0  0  0  0  0  0  0  0
    5.8166  -11.5100   26.4588 C   0  0  0  0  0  0  0  0  0  0  0  0
    6.8606  -11.9909   25.4428 C   0  0  0  0  0  0  0  0  0  0  0  0
    7.2931  -13.3445   25.8793 C   0  0  2  0  0  0  0  0  0  0  0  0
    8.0735  -13.2744   27.1659 C   0  0  0  0  0  0  0  0  0  0  0  0
    8.0116  -14.1413   24.8272 C   0  0  2  0  0  0  0  0  0  0  0  0
    7.2227  -14.3014   23.6168 N   0  0  0  0  0  0  0  0  0  0  0  0
    8.4625  -15.4652   25.3484 C   0  0  0  0  0  0  0  0  0  0  0  0
    7.6182  -16.3360   25.7407 O   0  0  0  0  0  0  0  0  0  0  0  0
   11.9445  -18.9555   25.5258 C   0  0  0  0  0  0  0  0  0  0  0  0
   11.5155  -17.5689   25.0921 C   0  0  1  0  0  0  0  0  0  0  0  0
   11.3489  -17.5379   23.7080 O   0  0  0  0  0  0  0  0  0  0  0  0
   10.2452  -17.1926   25.8161 C   0  0  2  0  0  0  0  0  0  0  0  0
    9.8201  -15.8338   25.4401 N   0  0  0  0  0  0  0  0  0  0  0  0
   10.4011  -17.3150   27.2682 C   0  0  0  0  0  0  0  0  0  0  0  0
   11.0556  -16.3649   28.0577 O   0  0  0  0  0  0  0  0  0  0  0  0
    9.9312  -18.3164   27.8591 O   0  0  0  0  0  0  0  0  0  0  0  0
  2  1  1  6
  2  3  1  0
  4  2  1  0
  4  5  1  6
  6  4  1  0
  6 13  1  0
  7  6  2  0
  9 10  1  0
  9  8  1  0
 10 12  1  0
 10 11  1  1
 12 13  1  6
 14 12  1  0
 15 14  2  0
 17 16  1  1
 17 18  1  0
 17 19  1  0
 19 21  1  0
 19 20  1  1
 20 14  1  0
 21 22  1  0
 23 21  2  0
M  END
$$$$
