VIT.pdb
     RDKit          3D

 23 22  0  0  1  0  0  0  0  0999 V2000
    6.4120  -16.2430   19.2717 C   0  0  0  0  0  0  0  0  0  0  0  0
    7.1292  -16.1255   20.5681 C   0  0  2  0  0  0  0  0  0  0  0  0
    6.4863  -17.0670   21.5629 C   0  0  0  0  0  0  0  0  0  0  0  0
    7.2355  -14.7239   21.1196 C   0  0  2  0  0  0  0  0  0  0  0  0
    8.0125  -13.9706   20.1220 N   0  0  0  0  0  0  0  0  0  0  0  0
    7.9785  -14.6370   22.3945 C   0  0  0  0  0  0  0  0  0  0  0  0
    9.2177  -14.7065   22.4212 O   0  0  0  0  0  0  0  0  0  0  0  0
    5.8176  -11.6491   26.4620 C   0  0  0  0  0  0  0  0  0  0  0  0
    6.7787  -12.1829   25.3922 C   0  0  0  0  0  0  0  0  0  0  0  0
    7.2690  -13.5009   25.8742 C   0  0  2  0  0  0  0  0  0  0  0  0
    8.0319  -13.3552   27.1650 C   0  0  0  0  0  0  0  0  0  0  0  0
    8.0347  -14.2950   24.8538 C   0  0  2  0  0  0  0  0  0  0  0  0
    7.2924  -14.4710   23.6163 N   0  0  0  0  0  0  0  0  0  0  0  0
    8.4814  -15.6106   25.3989 C   0  0  0  0  0  0  0  0  0  0  0  0
    7.6350  -16.4660   25.8197 O   0  0  0  0  0  0  0  0  0  0  0  0
   11.8787  -19.1609   25.6542 C   0  0  0  0  0  0  0  0  0  0  0  0
   11.4620  -17.7926   25.1552 C   0  0  1  0  0  0  0  0  0  0  0  0
   11.1998  -17.8490   23.7869 O   0  0  0  0  0  0  0  0  0  0  0  0
   10.2576  -17.3246   25.9359 C   0  0  2  0  0  0  0  0  0  0  0  0
    9.8370  -15.9878   25.4837 N   0  0  0  0  0  0  0  0  0  0  0  0
   10.5172  -17.3373   27.3782 C   0  0  0  0  0  0  0  0  0  0  0  0
   10.7073  -16.1801   28.1392 O   0  0  0  0  0  0  0  0  0  0  0  0
   10.5770  -18.4322   27.9869 O   0  0  0  0  0  0  0  0  0  0  0  0
  2  1  1  6
  2  3  1  0
  4  2  1  0
  4  5  1  6
  6  4  1  0
  6 13  1  0
  7  6  2  0
  9 10  1  0
  9  8  1  0
 10 12  1  0
 10 11  1  1
 12 13  1  6
 14 12  1  0
 15 14  2  0
 17 16  1  1
 17 18  1  0
 17 19  1  0
 19 21  1  0
 19 20  1  6
 20 14  1  0
 21 22  1  0
 23 21  2  0
M  END
$$$$
