VIT.pdb
     RDKit          3D

 23 22  0  0  1  0  0  0  0  0999 V2000
    7.7390  -17.4498   21.3381 C   0  0  0  0  0  0  0  0  0  0  0  0
    6.6478  -16.4589   21.1477 C   0  0  2  0  0  0  0  0  0  0  0  0
    5.9406  -16.7635   19.8452 C   0  0  0  0  0  0  0  0  0  0  0  0
    7.0725  -15.0119   21.2231 C   0  0  2  0  0  0  0  0  0  0  0  0
    8.0018  -14.8195   20.0980 N   0  0  0  0  0  0  0  0  0  0  0  0
    7.8154  -14.6694   22.4543 C   0  0  0  0  0  0  0  0  0  0  0  0
    9.0491  -14.5319   22.4423 O   0  0  0  0  0  0  0  0  0  0  0  0
    5.8634  -11.4398   26.3739 C   0  0  0  0  0  0  0  0  0  0  0  0
    6.7768  -12.0985   25.3322 C   0  0  0  0  0  0  0  0  0  0  0  0
    7.1818  -13.4164   25.8881 C   0  0  2  0  0  0  0  0  0  0  0  0
    7.9642  -13.2479   27.1643 C   0  0  0  0  0  0  0  0  0  0  0  0
    7.8833  -14.3183   24.9120 C   0  0  2  0  0  0  0  0  0  0  0  0
    7.1352  -14.4890   23.6774 N   0  0  0  0  0  0  0  0  0  0  0  0
    8.2153  -15.6399   25.5209 C   0  0  0  0  0  0  0  0  0  0  0  0
    7.3138  -16.3489   26.0775 O   0  0  0  0  0  0  0  0  0  0  0  0
   10.1659  -18.4328   23.7856 C   0  0  0  0  0  0  0  0  0  0  0  0
   10.7916  -18.2411   25.1519 C   0  0  1  0  0  0  0  0  0  0  0  0
   11.9895  -17.5383   25.0279 O   0  0  0  0  0  0  0  0  0  0  0  0
    9.8133  -17.5233   26.0501 C   0  0  2  0  0  0  0  0  0  0  0  0
    9.5170  -16.1810   25.5221 N   0  0  0  0  0  0  0  0  0  0  0  0
   10.3057  -17.4523   27.4286 C   0  0  0  0  0  0  0  0  0  0  0  0
   10.6916  -16.2612   28.0507 O   0  0  0  0  0  0  0  0  0  0  0  0
   10.3956  -18.5020   28.1089 O   0  0  0  0  0  0  0  0  0  0  0  0
  2  1  1  6
  2  3  1  0
  4  2  1  0
  4  5  1  6
  6  4  1  0
  6 13  1  0
  7  6  2  0
  9 10  1  0
  9  8  1  0
 10 12  1  0
 10 11  1  1
 12 13  1  6
 14 12  1  0
 15 14  2  0
 17 16  1  6
 17 18  1  0
 17 19  1  0
 19 21  1  0
 19 20  1  6
 20 14  1  0
 21 22  1  0
 23 21  2  0
M  END
$$$$
