EGE.pdb
     RDKit          3D

 23 22  0  0  1  0  0  0  0  0999 V2000
   16.0454  -14.0932  -16.3765 N   0  0  0  0  0  0  0  0  0  0  0  0
   17.2247  -13.8140  -15.5237 C   0  0  1  0  0  0  0  0  0  0  0  0
   18.1051  -15.0321  -15.7049 C   0  0  0  0  0  0  0  0  0  0  0  0
   17.5271  -16.2189  -15.0187 C   0  0  0  0  0  0  0  0  0  0  0  0
   18.4222  -17.4224  -15.1467 C   0  0  0  0  0  0  0  0  0  0  0  0
   18.4428  -18.1545  -16.1437 O   0  0  0  0  0  0  0  0  0  0  0  0
   17.9039  -12.6462  -16.0801 C   0  0  0  0  0  0  0  0  0  0  0  0
   18.2216  -12.6413  -17.3151 O   0  0  0  0  0  0  0  0  0  0  0  0
   19.2510  -17.6869  -14.0664 O   0  0  0  0  0  0  0  0  0  0  0  0
   18.2459  -11.4837  -15.3369 N   0  0  0  0  0  0  0  0  0  0  0  0
   18.9259  -10.4181  -16.0078 C   0  0  0  0  0  0  0  0  0  0  0  0
   19.1763   -9.2508  -15.1235 C   0  0  0  0  0  0  0  0  0  0  0  0
   18.6929   -9.1914  -13.9491 O   0  0  0  0  0  0  0  0  0  0  0  0
   19.9606   -8.1632  -15.5541 N   0  0  0  0  0  0  0  0  0  0  0  0
   20.3528   -7.0512  -14.6951 C   0  0  1  0  0  0  0  0  0  0  0  0
   21.3828   -6.1814  -15.3497 C   0  0  0  0  0  0  0  0  0  0  0  0
   21.8749   -5.0398  -14.5351 C   0  0  0  0  0  0  0  0  0  0  0  0
   22.8081   -4.1403  -15.2052 C   0  0  0  0  0  0  0  0  0  0  0  0
   22.3603   -3.3096  -16.0308 O   0  0  0  0  0  0  0  0  0  0  0  0
   19.1848   -6.2941  -14.2101 C   0  0  0  0  0  0  0  0  0  0  0  0
   18.0649   -6.1861  -15.0444 O   0  0  0  0  0  0  0  0  0  0  0  0
   24.1641   -4.1517  -14.9816 O   0  0  0  0  0  0  0  0  0  0  0  0
   19.1137   -5.7347  -13.1014 O   0  0  0  0  0  0  0  0  0  0  0  0
  2  1  1  6
  2  7  1  0
  2  3  1  0
  4  3  1  0
  4  5  1  0
  5  6  2  0
  7  8  2  0
  9  5  1  0
 10 11  1  0
 10  7  1  0
 11 12  1  0
 12 13  2  0
 12 14  1  0
 14 15  1  0
 15 16  1  6
 17 16  1  0
 17 18  1  0
 18 22  1  0
 18 19  2  0
 20 21  1  0
 20 15  1  0
 23 20  2  0
M  END
$$$$
