EGE.pdb
     RDKit          3D

 23 22  0  0  1  0  0  0  0  0999 V2000
   26.1611  -19.1154  -16.4777 N   0  0  0  0  0  0  0  0  0  0  0  0
   25.9877  -20.5172  -16.0295 C   0  0  1  0  0  0  0  0  0  0  0  0
   27.2556  -20.8150  -15.2578 C   0  0  0  0  0  0  0  0  0  0  0  0
   28.3809  -21.1343  -16.1771 C   0  0  0  0  0  0  0  0  0  0  0  0
   28.1442  -22.4258  -16.9134 C   0  0  0  0  0  0  0  0  0  0  0  0
   27.8447  -22.4826  -18.1123 O   0  0  0  0  0  0  0  0  0  0  0  0
   24.8512  -20.5487  -15.1119 C   0  0  0  0  0  0  0  0  0  0  0  0
   24.5854  -21.6285  -14.4877 O   0  0  0  0  0  0  0  0  0  0  0  0
   28.2797  -23.5887  -16.1695 O   0  0  0  0  0  0  0  0  0  0  0  0
   23.9969  -19.4429  -14.8501 N   0  0  0  0  0  0  0  0  0  0  0  0
   22.8875  -19.6298  -13.9657 C   0  0  0  0  0  0  0  0  0  0  0  0
   21.7460  -20.3236  -14.6162 C   0  0  0  0  0  0  0  0  0  0  0  0
   21.6148  -20.3445  -15.8807 O   0  0  0  0  0  0  0  0  0  0  0  0
   20.7638  -20.9858  -13.8546 N   0  0  0  0  0  0  0  0  0  0  0  0
   19.6290  -21.6984  -14.4315 C   0  0  1  0  0  0  0  0  0  0  0  0
   19.0197  -22.6558  -13.4527 C   0  0  0  0  0  0  0  0  0  0  0  0
   17.9488  -23.5344  -13.9912 C   0  0  0  0  0  0  0  0  0  0  0  0
   17.3230  -24.4330  -13.0268 C   0  0  0  0  0  0  0  0  0  0  0  0
   17.7140  -24.4090  -11.8357 O   0  0  0  0  0  0  0  0  0  0  0  0
   18.6437  -20.7746  -15.0219 C   0  0  0  0  0  0  0  0  0  0  0  0
   18.3462  -19.5887  -14.3385 O   0  0  0  0  0  0  0  0  0  0  0  0
   16.3198  -25.3140  -13.3524 O   0  0  0  0  0  0  0  0  0  0  0  0
   18.0461  -20.9677  -16.0955 O   0  0  0  0  0  0  0  0  0  0  0  0
  2  1  1  1
  2  7  1  0
  2  3  1  0
  4  3  1  0
  4  5  1  0
  5  6  2  0
  7  8  2  0
  9  5  1  0
 10 11  1  0
 10  7  1  0
 11 12  1  0
 12 13  2  0
 12 14  1  0
 14 15  1  0
 15 16  1  1
 17 16  1  0
 17 18  1  0
 18 22  1  0
 18 19  2  0
 20 21  1  0
 20 15  1  0
 23 20  2  0
M  END
$$$$
