EGE.pdb
     RDKit          3D

 23 22  0  0  1  0  0  0  0  0999 V2000
   13.8206  -10.4282  -14.0576 N   0  0  0  0  0  0  0  0  0  0  0  0
   15.2100  -10.9358  -13.9686 C   0  0  1  0  0  0  0  0  0  0  0  0
   15.1860  -12.2143  -14.7791 C   0  0  0  0  0  0  0  0  0  0  0  0
   14.4858  -13.3023  -14.0445 C   0  0  0  0  0  0  0  0  0  0  0  0
   14.4207  -14.5666  -14.8589 C   0  0  0  0  0  0  0  0  0  0  0  0
   13.4394  -14.8902  -15.5391 O   0  0  0  0  0  0  0  0  0  0  0  0
   16.0768   -9.9651  -14.6328 C   0  0  0  0  0  0  0  0  0  0  0  0
   17.3395  -10.1411  -14.6102 O   0  0  0  0  0  0  0  0  0  0  0  0
   15.5420  -15.3819  -14.8149 O   0  0  0  0  0  0  0  0  0  0  0  0
   15.6135   -8.8115  -15.3223 N   0  0  0  0  0  0  0  0  0  0  0  0
   16.5757   -7.9529  -15.9428 C   0  0  0  0  0  0  0  0  0  0  0  0
   16.9971   -6.8329  -15.0622 C   0  0  0  0  0  0  0  0  0  0  0  0
   16.4054   -6.5937  -13.9626 O   0  0  0  0  0  0  0  0  0  0  0  0
   18.0707   -5.9918  -15.4134 N   0  0  0  0  0  0  0  0  0  0  0  0
   18.5191   -4.8629  -14.6054 C   0  0  1  0  0  0  0  0  0  0  0  0
   19.9704   -4.9777  -14.2494 C   0  0  0  0  0  0  0  0  0  0  0  0
   20.3892   -6.2761  -13.6598 C   0  0  0  0  0  0  0  0  0  0  0  0
   21.8202   -6.4296  -13.4195 C   0  0  0  0  0  0  0  0  0  0  0  0
   22.6228   -5.7251  -14.0765 O   0  0  0  0  0  0  0  0  0  0  0  0
   18.1806   -3.5718  -15.2307 C   0  0  0  0  0  0  0  0  0  0  0  0
   17.7680   -3.5653  -16.5692 O   0  0  0  0  0  0  0  0  0  0  0  0
   22.3444   -7.3117  -12.5054 O   0  0  0  0  0  0  0  0  0  0  0  0
   18.2332   -2.4704  -14.6551 O   0  0  0  0  0  0  0  0  0  0  0  0
  2  1  1  6
  2  7  1  0
  2  3  1  0
  4  3  1  0
  4  5  1  0
  5  6  2  0
  7  8  2  0
  9  5  1  0
 10 11  1  0
 10  7  1  0
 11 12  1  0
 12 13  2  0
 12 14  1  0
 14 15  1  0
 15 16  1  6
 17 16  1  0
 17 18  1  0
 18 22  1  0
 18 19  2  0
 20 21  1  0
 20 15  1  0
 23 20  2  0
M  END
$$$$
