EGE.pdb
     RDKit          3D

 23 22  0  0  1  0  0  0  0  0999 V2000
   23.9616  -20.2442  -15.3231 N   0  0  0  0  0  0  0  0  0  0  0  0
   22.5433  -19.8982  -15.0689 C   0  0  1  0  0  0  0  0  0  0  0  0
   21.7733  -20.7761  -16.0323 C   0  0  0  0  0  0  0  0  0  0  0  0
   22.0403  -20.3873  -17.4433 C   0  0  0  0  0  0  0  0  0  0  0  0
   21.5516  -18.9937  -17.7351 C   0  0  0  0  0  0  0  0  0  0  0  0
   20.4261  -18.5862  -17.4231 O   0  0  0  0  0  0  0  0  0  0  0  0
   22.2303  -20.3017  -13.6999 C   0  0  0  0  0  0  0  0  0  0  0  0
   23.1032  -20.9404  -13.0246 O   0  0  0  0  0  0  0  0  0  0  0  0
   22.4432  -18.1565  -18.3895 O   0  0  0  0  0  0  0  0  0  0  0  0
   20.9996  -20.0301  -13.0421 N   0  0  0  0  0  0  0  0  0  0  0  0
   20.8562  -20.4175  -11.6719 C   0  0  0  0  0  0  0  0  0  0  0  0
   20.0978  -21.6848  -11.5106 C   0  0  0  0  0  0  0  0  0  0  0  0
   19.8627  -22.4487  -12.4993 O   0  0  0  0  0  0  0  0  0  0  0  0
   19.6094  -22.0886  -10.2529 N   0  0  0  0  0  0  0  0  0  0  0  0
   18.9230  -23.3535  -10.0135 C   0  0  1  0  0  0  0  0  0  0  0  0
   18.9899  -23.7564   -8.5715 C   0  0  0  0  0  0  0  0  0  0  0  0
   18.3862  -25.0738   -8.2413 C   0  0  0  0  0  0  0  0  0  0  0  0
   18.5729  -25.5287   -6.8675 C   0  0  0  0  0  0  0  0  0  0  0  0
   18.1899  -24.7910   -5.9288 O   0  0  0  0  0  0  0  0  0  0  0  0
   17.5478  -23.3404  -10.5439 C   0  0  0  0  0  0  0  0  0  0  0  0
   17.0723  -24.4849  -11.1966 O   0  0  0  0  0  0  0  0  0  0  0  0
   19.1512  -26.7316   -6.5398 O   0  0  0  0  0  0  0  0  0  0  0  0
   16.7638  -22.3788  -10.4565 O   0  0  0  0  0  0  0  0  0  0  0  0
  2  1  1  6
  2  7  1  0
  2  3  1  0
  4  3  1  0
  4  5  1  0
  5  6  2  0
  7  8  2  0
  9  5  1  0
 10 11  1  0
 10  7  1  0
 11 12  1  0
 12 13  2  0
 12 14  1  0
 14 15  1  0
 15 16  1  1
 17 16  1  0
 17 18  1  0
 18 22  1  0
 18 19  2  0
 20 21  1  0
 20 15  1  0
 23 20  2  0
M  END
$$$$
