GWY.pdb
     RDKit          3D

 31 33  0  0  1  0  0  0  0  0999 V2000
   26.5261  -19.6538   -7.7072 N   0  0  0  0  0  0  0  0  0  0  0  0
   26.2386  -20.8392   -8.4790 C   0  0  0  0  0  0  0  0  0  0  0  0
   25.8691  -20.5428   -9.8712 C   0  0  0  0  0  0  0  0  0  0  0  0
   25.6274  -19.3490  -10.1744 O   0  0  0  0  0  0  0  0  0  0  0  0
   25.7668  -21.5062  -10.8947 N   0  0  0  0  0  0  0  0  0  0  0  0
   25.4378  -21.1972  -12.2848 C   0  0  1  0  0  0  0  0  0  0  0  0
   26.4280  -21.7791  -13.2212 C   0  0  0  0  0  0  0  0  0  0  0  0
   27.6639  -21.0059  -13.4389 C   0  0  0  0  0  0  0  0  0  0  0  0
   28.8876  -21.2043  -12.8051 C   0  0  0  0  0  0  0  0  0  0  0  0
   29.7700  -20.3406  -13.3046 N   0  0  0  0  0  0  0  0  0  0  0  0
   29.1991  -19.5695  -14.2436 C   0  0  0  0  0  0  0  0  0  0  0  0
   29.6850  -18.5398  -15.0285 C   0  0  0  0  0  0  0  0  0  0  0  0
   28.8504  -17.9090  -15.9119 C   0  0  0  0  0  0  0  0  0  0  0  0
   27.5252  -18.2768  -16.0406 C   0  0  0  0  0  0  0  0  0  0  0  0
   27.0638  -19.3095  -15.2448 C   0  0  0  0  0  0  0  0  0  0  0  0
   27.8711  -19.9892  -14.3274 C   0  0  0  0  0  0  0  0  0  0  0  0
   24.0518  -21.5458  -12.5627 C   0  0  0  0  0  0  0  0  0  0  0  0
   23.4673  -22.5450  -12.0231 O   0  0  0  0  0  0  0  0  0  0  0  0
   15.5580  -20.3072  -11.8316 O   0  0  0  0  0  0  0  0  0  0  0  0
   16.9434  -20.2340  -11.9713 C   0  0  0  0  0  0  0  0  0  0  0  0
   17.5217  -19.3633  -12.8588 C   0  0  0  0  0  0  0  0  0  0  0  0
   18.9030  -19.2801  -13.0082 C   0  0  0  0  0  0  0  0  0  0  0  0
   19.7511  -20.0807  -12.2595 C   0  0  0  0  0  0  0  0  0  0  0  0
   21.2169  -20.0490  -12.3703 C   0  0  0  0  0  0  0  0  0  0  0  0
   21.7468  -21.0157  -13.4536 C   0  0  2  0  0  0  0  0  0  0  0  0
   23.1943  -20.8022  -13.4613 N   0  0  0  0  0  0  0  0  0  0  0  0
   21.1561  -20.6490  -14.7433 C   0  0  0  0  0  0  0  0  0  0  0  0
   19.9902  -21.1904  -15.2399 O   0  0  0  0  0  0  0  0  0  0  0  0
   19.1539  -20.9523  -11.3694 C   0  0  0  0  0  0  0  0  0  0  0  0
   17.7801  -21.0407  -11.2152 C   0  0  0  0  0  0  0  0  0  0  0  0
   21.7364  -19.7893  -15.4562 O   0  0  0  0  0  0  0  0  0  0  0  0
  2  1  1  0
  3  4  2  0
  3  2  1  0
  5  3  1  0
  6  5  1  0
  6  7  1  6
  8 16  1  0
  8  7  1  0
  9  8  2  0
 10  9  1  0
 10 11  1  0
 11 16  2  0
 12 11  1  0
 12 13  2  0
 13 14  1  0
 14 15  2  0
 16 15  1  0
 17 26  1  0
 17  6  1  0
 18 17  2  0
 19 20  1  0
 20 21  2  0
 21 22  1  0
 23 22  2  0
 23 24  1  0
 25 24  1  1
 25 27  1  0
 25 26  1  0
 27 28  1  0
 29 23  1  0
 30 20  1  0
 30 29  2  0
 31 27  2  0
M  END
$$$$
