GWY.pdb
     RDKit          3D

 31 33  0  0  1  0  0  0  0  0999 V2000
   27.4207  -23.6440  -16.5925 N   0  0  0  0  0  0  0  0  0  0  0  0
   27.7171  -22.5581  -15.6890 C   0  0  0  0  0  0  0  0  0  0  0  0
   26.8197  -22.5181  -14.5247 C   0  0  0  0  0  0  0  0  0  0  0  0
   26.2968  -23.5952  -14.1476 O   0  0  0  0  0  0  0  0  0  0  0  0
   26.5029  -21.3530  -13.7977 N   0  0  0  0  0  0  0  0  0  0  0  0
   25.6832  -21.3362  -12.5878 C   0  0  1  0  0  0  0  0  0  0  0  0
   26.2102  -20.3798  -11.5861 C   0  0  0  0  0  0  0  0  0  0  0  0
   27.3022  -20.8639  -10.7224 C   0  0  0  0  0  0  0  0  0  0  0  0
   28.4820  -21.4728  -11.1416 C   0  0  0  0  0  0  0  0  0  0  0  0
   29.2358  -21.7208  -10.0719 N   0  0  0  0  0  0  0  0  0  0  0  0
   28.6199  -21.3090   -8.9524 C   0  0  0  0  0  0  0  0  0  0  0  0
   28.9802  -21.3536   -7.6180 C   0  0  0  0  0  0  0  0  0  0  0  0
   28.1261  -20.8600   -6.6683 C   0  0  0  0  0  0  0  0  0  0  0  0
   26.9042  -20.3145   -7.0108 C   0  0  0  0  0  0  0  0  0  0  0  0
   26.5675  -20.2811   -8.3518 C   0  0  0  0  0  0  0  0  0  0  0  0
   27.4006  -20.7693   -9.3633 C   0  0  0  0  0  0  0  0  0  0  0  0
   24.2809  -21.1524  -12.9334 C   0  0  0  0  0  0  0  0  0  0  0  0
   23.8892  -20.3204  -13.8198 O   0  0  0  0  0  0  0  0  0  0  0  0
   15.3559  -21.8707  -12.3969 O   0  0  0  0  0  0  0  0  0  0  0  0
   16.7333  -22.0665  -12.3045 C   0  0  0  0  0  0  0  0  0  0  0  0
   17.4980  -22.2667  -13.4250 C   0  0  0  0  0  0  0  0  0  0  0  0
   18.8736  -22.4634  -13.3469 C   0  0  0  0  0  0  0  0  0  0  0  0
   19.5260  -22.4642  -12.1242 C   0  0  0  0  0  0  0  0  0  0  0  0
   20.9733  -22.6712  -11.9684 C   0  0  0  0  0  0  0  0  0  0  0  0
   21.8034  -21.5427  -12.6213 C   0  0  2  0  0  0  0  0  0  0  0  0
   23.1936  -21.8896  -12.3250 N   0  0  0  0  0  0  0  0  0  0  0  0
   21.4375  -20.2673  -11.9995 C   0  0  0  0  0  0  0  0  0  0  0  0
   20.5596  -19.3619  -12.5549 O   0  0  0  0  0  0  0  0  0  0  0  0
   18.7426  -22.2606  -11.0046 C   0  0  0  0  0  0  0  0  0  0  0  0
   17.3730  -22.0642  -11.0744 C   0  0  0  0  0  0  0  0  0  0  0  0
   21.9481  -19.9623  -10.8903 O   0  0  0  0  0  0  0  0  0  0  0  0
  2  1  1  0
  3  4  2  0
  3  2  1  0
  5  3  1  0
  6  5  1  0
  6  7  1  1
  8 16  1  0
  8  7  1  0
  9  8  2  0
 10  9  1  0
 10 11  1  0
 11 16  2  0
 12 11  1  0
 12 13  2  0
 13 14  1  0
 14 15  2  0
 16 15  1  0
 17 26  1  0
 17  6  1  0
 18 17  2  0
 19 20  1  0
 20 21  2  0
 21 22  1  0
 23 22  2  0
 23 24  1  0
 25 24  1  1
 25 27  1  0
 25 26  1  0
 27 28  1  0
 29 23  1  0
 30 20  1  0
 30 29  2  0
 31 27  2  0
M  END
$$$$
