GWY.pdb
     RDKit          3D

 31 33  0  0  1  0  0  0  0  0999 V2000
   21.7046  -16.9263  -17.9251 N   0  0  0  0  0  0  0  0  0  0  0  0
   21.5945  -15.7956  -18.8155 C   0  0  0  0  0  0  0  0  0  0  0  0
   22.2953  -14.6023  -18.3184 C   0  0  0  0  0  0  0  0  0  0  0  0
   22.5625  -14.5446  -17.0933 O   0  0  0  0  0  0  0  0  0  0  0  0
   22.6912  -13.5137  -19.1213 N   0  0  0  0  0  0  0  0  0  0  0  0
   23.3529  -12.3142  -18.6121 C   0  0  1  0  0  0  0  0  0  0  0  0
   24.7244  -12.1763  -19.1559 C   0  0  0  0  0  0  0  0  0  0  0  0
   25.7094  -13.1850  -18.7255 C   0  0  0  0  0  0  0  0  0  0  0  0
   26.1028  -14.3150  -19.4372 C   0  0  0  0  0  0  0  0  0  0  0  0
   27.0443  -14.9496  -18.7409 N   0  0  0  0  0  0  0  0  0  0  0  0
   27.3031  -14.3017  -17.5939 C   0  0  0  0  0  0  0  0  0  0  0  0
   28.1716  -14.5622  -16.5497 C   0  0  0  0  0  0  0  0  0  0  0  0
   28.2128  -13.7149  -15.4749 C   0  0  0  0  0  0  0  0  0  0  0  0
   27.4031  -12.5980  -15.4054 C   0  0  0  0  0  0  0  0  0  0  0  0
   26.5437  -12.3593  -16.4624 C   0  0  0  0  0  0  0  0  0  0  0  0
   26.4607  -13.1895  -17.5847 C   0  0  0  0  0  0  0  0  0  0  0  0
   22.4983  -11.1506  -18.8001 C   0  0  0  0  0  0  0  0  0  0  0  0
   21.9181  -10.8889  -19.9074 O   0  0  0  0  0  0  0  0  0  0  0  0
   21.0296   -8.7794  -11.5986 O   0  0  0  0  0  0  0  0  0  0  0  0
   20.7919   -8.9370  -12.9635 C   0  0  0  0  0  0  0  0  0  0  0  0
   21.0165  -10.1366  -13.5886 C   0  0  0  0  0  0  0  0  0  0  0  0
   20.7836  -10.3075  -14.9501 C   0  0  0  0  0  0  0  0  0  0  0  0
   20.3124   -9.2632  -15.7300 C   0  0  0  0  0  0  0  0  0  0  0  0
   20.0503   -9.3722  -17.1726 C   0  0  0  0  0  0  0  0  0  0  0  0
   21.3028   -9.0635  -18.0238 C   0  0  2  0  0  0  0  0  0  0  0  0
   22.2096  -10.1819  -17.7637 N   0  0  0  0  0  0  0  0  0  0  0  0
   21.8850   -7.7993  -17.5658 C   0  0  0  0  0  0  0  0  0  0  0  0
   23.0676   -7.7034  -16.8649 O   0  0  0  0  0  0  0  0  0  0  0  0
   20.0903   -8.0613  -15.0861 C   0  0  0  0  0  0  0  0  0  0  0  0
   20.3198   -7.8836  -13.7315 C   0  0  0  0  0  0  0  0  0  0  0  0
   21.2806   -6.7243  -17.8174 O   0  0  0  0  0  0  0  0  0  0  0  0
  2  1  1  0
  3  4  2  0
  3  2  1  0
  5  3  1  0
  6  5  1  0
  6  7  1  6
  8 16  1  0
  8  7  1  0
  9  8  2  0
 10  9  1  0
 10 11  1  0
 11 16  2  0
 12 11  1  0
 12 13  2  0
 13 14  1  0
 14 15  2  0
 16 15  1  0
 17 26  1  0
 17  6  1  0
 18 17  2  0
 19 20  1  0
 20 21  2  0
 21 22  1  0
 23 22  2  0
 23 24  1  0
 25 24  1  1
 25 27  1  0
 25 26  1  0
 27 28  1  0
 29 23  1  0
 30 20  1  0
 30 29  2  0
 31 27  2  0
M  END
$$$$
