GWY.pdb
     RDKit          3D

 31 33  0  0  1  0  0  0  0  0999 V2000
   27.6244  -24.2941  -16.7270 N   0  0  0  0  0  0  0  0  0  0  0  0
   27.3644  -22.8984  -16.4662 C   0  0  0  0  0  0  0  0  0  0  0  0
   26.7361  -22.6658  -15.1572 C   0  0  0  0  0  0  0  0  0  0  0  0
   26.2543  -23.6542  -14.5519 O   0  0  0  0  0  0  0  0  0  0  0  0
   26.6354  -21.4078  -14.5298 N   0  0  0  0  0  0  0  0  0  0  0  0
   25.9211  -21.1685  -13.2773 C   0  0  1  0  0  0  0  0  0  0  0  0
   26.5642  -20.0982  -12.4794 C   0  0  0  0  0  0  0  0  0  0  0  0
   27.6077  -20.5210  -11.5280 C   0  0  0  0  0  0  0  0  0  0  0  0
   28.9011  -20.9278  -11.8439 C   0  0  0  0  0  0  0  0  0  0  0  0
   29.5553  -21.1818  -10.7119 N   0  0  0  0  0  0  0  0  0  0  0  0
   28.7643  -20.9665   -9.6488 C   0  0  0  0  0  0  0  0  0  0  0  0
   28.9728  -21.0970   -8.2880 C   0  0  0  0  0  0  0  0  0  0  0  0
   27.9554  -20.8149   -7.4161 C   0  0  0  0  0  0  0  0  0  0  0  0
   26.7162  -20.4001   -7.8637 C   0  0  0  0  0  0  0  0  0  0  0  0
   26.5332  -20.2770   -9.2290 C   0  0  0  0  0  0  0  0  0  0  0  0
   27.5363  -20.5504  -10.1642 C   0  0  0  0  0  0  0  0  0  0  0  0
   24.5023  -20.9715  -13.5377 C   0  0  0  0  0  0  0  0  0  0  0  0
   24.0659  -20.1439  -14.4073 O   0  0  0  0  0  0  0  0  0  0  0  0
   15.7011  -22.5399  -13.6470 O   0  0  0  0  0  0  0  0  0  0  0  0
   17.0709  -22.5665  -13.3881 C   0  0  0  0  0  0  0  0  0  0  0  0
   17.9528  -23.1039  -14.2902 C   0  0  0  0  0  0  0  0  0  0  0  0
   19.3224  -23.1370  -14.0443 C   0  0  0  0  0  0  0  0  0  0  0  0
   19.8489  -22.6241  -12.8694 C   0  0  0  0  0  0  0  0  0  0  0  0
   21.2825  -22.6315  -12.5428 C   0  0  0  0  0  0  0  0  0  0  0  0
   22.0451  -21.4655  -13.2120 C   0  0  2  0  0  0  0  0  0  0  0  0
   23.4464  -21.6893  -12.8554 N   0  0  0  0  0  0  0  0  0  0  0  0
   21.5579  -20.2011  -12.6545 C   0  0  0  0  0  0  0  0  0  0  0  0
   20.6042  -19.4090  -13.2562 O   0  0  0  0  0  0  0  0  0  0  0  0
   18.9483  -22.0857  -11.9707 C   0  0  0  0  0  0  0  0  0  0  0  0
   17.5840  -22.0492  -12.2085 C   0  0  0  0  0  0  0  0  0  0  0  0
   22.0294  -19.7967  -11.5599 O   0  0  0  0  0  0  0  0  0  0  0  0
  2  1  1  0
  3  4  2  0
  3  2  1  0
  5  3  1  0
  6  5  1  0
  6  7  1  6
  8 16  1  0
  8  7  1  0
  9  8  2  0
 10  9  1  0
 10 11  1  0
 11 16  2  0
 12 11  1  0
 12 13  2  0
 13 14  1  0
 14 15  2  0
 16 15  1  0
 17 26  1  0
 17  6  1  0
 18 17  2  0
 19 20  1  0
 20 21  2  0
 21 22  1  0
 23 22  2  0
 23 24  1  0
 25 24  1  1
 25 27  1  0
 25 26  1  0
 27 28  1  0
 29 23  1  0
 30 20  1  0
 30 29  2  0
 31 27  2  0
M  END
$$$$
