GWY.pdb
     RDKit          3D

 31 33  0  0  1  0  0  0  0  0999 V2000
   34.2105  -35.2768   -7.5213 N   0  0  0  0  0  0  0  0  0  0  0  0
   32.8775  -35.7575   -7.7960 C   0  0  0  0  0  0  0  0  0  0  0  0
   31.9033  -35.3708   -6.7645 C   0  0  0  0  0  0  0  0  0  0  0  0
   32.3157  -34.6980   -5.7884 O   0  0  0  0  0  0  0  0  0  0  0  0
   30.5336  -35.7018   -6.7927 N   0  0  0  0  0  0  0  0  0  0  0  0
   29.5723  -35.3128   -5.7628 C   0  0  1  0  0  0  0  0  0  0  0  0
   28.1824  -35.3429   -6.2758 C   0  0  0  0  0  0  0  0  0  0  0  0
   27.8580  -34.3965   -7.3582 C   0  0  0  0  0  0  0  0  0  0  0  0
   28.3303  -34.4415   -8.6672 C   0  0  0  0  0  0  0  0  0  0  0  0
   27.7732  -33.4460   -9.3546 N   0  0  0  0  0  0  0  0  0  0  0  0
   26.9491  -32.7322   -8.5714 C   0  0  0  0  0  0  0  0  0  0  0  0
   26.1645  -31.6188   -8.8109 C   0  0  0  0  0  0  0  0  0  0  0  0
   25.4199  -31.0828   -7.7944 C   0  0  0  0  0  0  0  0  0  0  0  0
   25.4320  -31.6291   -6.5259 C   0  0  0  0  0  0  0  0  0  0  0  0
   26.2242  -32.7425   -6.3121 C   0  0  0  0  0  0  0  0  0  0  0  0
   27.0034  -33.3318   -7.3126 C   0  0  0  0  0  0  0  0  0  0  0  0
   29.7956  -36.0857   -4.5494 C   0  0  0  0  0  0  0  0  0  0  0  0
   29.5409  -37.3345   -4.4668 O   0  0  0  0  0  0  0  0  0  0  0  0
   33.4373  -39.2112    2.8445 O   0  0  0  0  0  0  0  0  0  0  0  0
   33.0823  -38.4584    1.7257 C   0  0  0  0  0  0  0  0  0  0  0  0
   32.5596  -37.1975    1.8562 C   0  0  0  0  0  0  0  0  0  0  0  0
   32.2009  -36.4355    0.7480 C   0  0  0  0  0  0  0  0  0  0  0  0
   32.3602  -36.9273   -0.5378 C   0  0  0  0  0  0  0  0  0  0  0  0
   31.9977  -36.1799   -1.7510 C   0  0  0  0  0  0  0  0  0  0  0  0
   30.5164  -36.3785   -2.1447 C   0  0  2  0  0  0  0  0  0  0  0  0
   30.3321  -35.5322   -3.3239 N   0  0  0  0  0  0  0  0  0  0  0  0
   29.6692  -35.9268   -1.0378 C   0  0  0  0  0  0  0  0  0  0  0  0
   29.1168  -36.7675   -0.0960 O   0  0  0  0  0  0  0  0  0  0  0  0
   32.8884  -38.1986   -0.6532 C   0  0  0  0  0  0  0  0  0  0  0  0
   33.2477  -38.9629    0.4449 C   0  0  0  0  0  0  0  0  0  0  0  0
   29.4182  -34.6986   -0.9255 O   0  0  0  0  0  0  0  0  0  0  0  0
  2  1  1  0
  3  4  2  0
  3  2  1  0
  5  3  1  0
  6  5  1  0
  6  7  1  6
  8 16  1  0
  8  7  1  0
  9  8  2  0
 10  9  1  0
 10 11  1  0
 11 16  2  0
 12 11  1  0
 12 13  2  0
 13 14  1  0
 14 15  2  0
 16 15  1  0
 17 26  1  0
 17  6  1  0
 18 17  2  0
 19 20  1  0
 20 21  2  0
 21 22  1  0
 23 22  2  0
 23 24  1  0
 25 24  1  1
 25 27  1  0
 25 26  1  0
 27 28  1  0
 29 23  1  0
 30 20  1  0
 30 29  2  0
 31 27  2  0
M  END
$$$$
