GWY.pdb
     RDKit          3D

 31 33  0  0  1  0  0  0  0  0999 V2000
   28.5968  -21.4949  -14.4031 N   0  0  0  0  0  0  0  0  0  0  0  0
   28.4414  -20.5287  -13.3421 C   0  0  0  0  0  0  0  0  0  0  0  0
   27.4717  -20.9490  -12.3197 C   0  0  0  0  0  0  0  0  0  0  0  0
   26.7579  -21.9524  -12.5630 O   0  0  0  0  0  0  0  0  0  0  0  0
   27.2850  -20.3044  -11.0804 N   0  0  0  0  0  0  0  0  0  0  0  0
   26.1793  -20.5841  -10.1664 C   0  0  1  0  0  0  0  0  0  0  0  0
   26.4602  -20.0803   -8.8015 C   0  0  0  0  0  0  0  0  0  0  0  0
   27.7068  -20.5480   -8.1691 C   0  0  0  0  0  0  0  0  0  0  0  0
   28.6361  -21.4264   -8.7198 C   0  0  0  0  0  0  0  0  0  0  0  0
   29.6486  -21.5647   -7.8656 N   0  0  0  0  0  0  0  0  0  0  0  0
   29.4454  -20.8224   -6.7657 C   0  0  0  0  0  0  0  0  0  0  0  0
   30.1858  -20.6406   -5.6118 C   0  0  0  0  0  0  0  0  0  0  0  0
   29.7138  -19.8151   -4.6266 C   0  0  0  0  0  0  0  0  0  0  0  0
   28.5079  -19.1540   -4.7557 C   0  0  0  0  0  0  0  0  0  0  0  0
   27.7867  -19.3521   -5.9191 C   0  0  0  0  0  0  0  0  0  0  0  0
   28.2207  -20.1820   -6.9575 C   0  0  0  0  0  0  0  0  0  0  0  0
   24.9229  -20.1271  -10.7428 C   0  0  0  0  0  0  0  0  0  0  0  0
   24.8360  -19.0861  -11.4777 O   0  0  0  0  0  0  0  0  0  0  0  0
   19.1464  -21.4400  -16.9068 O   0  0  0  0  0  0  0  0  0  0  0  0
   20.0785  -21.4913  -15.8711 C   0  0  0  0  0  0  0  0  0  0  0  0
   20.1859  -22.5975  -15.0679 C   0  0  0  0  0  0  0  0  0  0  0  0
   21.1118  -22.6618  -14.0306 C   0  0  0  0  0  0  0  0  0  0  0  0
   21.9656  -21.6019  -13.7695 C   0  0  0  0  0  0  0  0  0  0  0  0
   22.9618  -21.6002  -12.6883 C   0  0  0  0  0  0  0  0  0  0  0  0
   22.5795  -20.6432  -11.5364 C   0  0  2  0  0  0  0  0  0  0  0  0
   23.6543  -20.7991  -10.5560 N   0  0  0  0  0  0  0  0  0  0  0  0
   21.2938  -21.0682  -10.9767 C   0  0  0  0  0  0  0  0  0  0  0  0
   20.0841  -20.4914  -11.2974 O   0  0  0  0  0  0  0  0  0  0  0  0
   21.8459  -20.4949  -14.5873 C   0  0  0  0  0  0  0  0  0  0  0  0
   20.9270  -20.4236  -15.6216 C   0  0  0  0  0  0  0  0  0  0  0  0
   21.2738  -22.0161  -10.1490 O   0  0  0  0  0  0  0  0  0  0  0  0
  2  1  1  0
  3  4  2  0
  3  2  1  0
  5  3  1  0
  6  5  1  0
  6  7  1  1
  8 16  1  0
  8  7  1  0
  9  8  2  0
 10  9  1  0
 10 11  1  0
 11 16  2  0
 12 11  1  0
 12 13  2  0
 13 14  1  0
 14 15  2  0
 16 15  1  0
 17 26  1  0
 17  6  1  0
 18 17  2  0
 19 20  1  0
 20 21  2  0
 21 22  1  0
 23 22  2  0
 23 24  1  0
 25 24  1  6
 25 27  1  0
 25 26  1  0
 27 28  1  0
 29 23  1  0
 30 20  1  0
 30 29  2  0
 31 27  2  0
M  END
$$$$
