GWY.pdb
     RDKit          3D

 31 33  0  0  1  0  0  0  0  0999 V2000
   30.2522  -24.2082  -17.0605 N   0  0  0  0  0  0  0  0  0  0  0  0
   28.9472  -23.6841  -17.3857 C   0  0  0  0  0  0  0  0  0  0  0  0
   28.5000  -22.6374  -16.4547 C   0  0  0  0  0  0  0  0  0  0  0  0
   28.6580  -22.8365  -15.2255 O   0  0  0  0  0  0  0  0  0  0  0  0
   27.9045  -21.4208  -16.8441 N   0  0  0  0  0  0  0  0  0  0  0  0
   27.4021  -20.4152  -15.9100 C   0  0  1  0  0  0  0  0  0  0  0  0
   27.2347  -19.0973  -16.5666 C   0  0  0  0  0  0  0  0  0  0  0  0
   26.6593  -18.0184  -15.7434 C   0  0  0  0  0  0  0  0  0  0  0  0
   27.2029  -17.4866  -14.5772 C   0  0  0  0  0  0  0  0  0  0  0  0
   26.4168  -16.4983  -14.1539 N   0  0  0  0  0  0  0  0  0  0  0  0
   25.3694  -16.3395  -14.9785 C   0  0  0  0  0  0  0  0  0  0  0  0
   24.2918  -15.4729  -14.9633 C   0  0  0  0  0  0  0  0  0  0  0  0
   23.3455  -15.5505  -15.9499 C   0  0  0  0  0  0  0  0  0  0  0  0
   23.4396  -16.4791  -16.9681 C   0  0  0  0  0  0  0  0  0  0  0  0
   24.5268  -17.3340  -16.9612 C   0  0  0  0  0  0  0  0  0  0  0  0
   25.5228  -17.2986  -15.9802 C   0  0  0  0  0  0  0  0  0  0  0  0
   26.2189  -20.9136  -15.2236 C   0  0  0  0  0  0  0  0  0  0  0  0
   25.2677  -21.5133  -15.8293 O   0  0  0  0  0  0  0  0  0  0  0  0
   27.4639  -19.4853   -7.6394 O   0  0  0  0  0  0  0  0  0  0  0  0
   26.9264  -20.1652   -8.7317 C   0  0  0  0  0  0  0  0  0  0  0  0
   27.7306  -20.6510   -9.7304 C   0  0  0  0  0  0  0  0  0  0  0  0
   27.2072  -21.3312  -10.8261 C   0  0  0  0  0  0  0  0  0  0  0  0
   25.8433  -21.5441  -10.9487 C   0  0  0  0  0  0  0  0  0  0  0  0
   25.2230  -22.2484  -12.0804 C   0  0  0  0  0  0  0  0  0  0  0  0
   24.7591  -21.2814  -13.1934 C   0  0  2  0  0  0  0  0  0  0  0  0
   25.9992  -20.7937  -13.7976 N   0  0  0  0  0  0  0  0  0  0  0  0
   24.0071  -20.1831  -12.5811 C   0  0  0  0  0  0  0  0  0  0  0  0
   22.6794  -20.2636  -12.2207 O   0  0  0  0  0  0  0  0  0  0  0  0
   25.0460  -21.0495   -9.9346 C   0  0  0  0  0  0  0  0  0  0  0  0
   25.5597  -20.3715   -8.8411 C   0  0  0  0  0  0  0  0  0  0  0  0
   24.5930  -19.0903  -12.3651 O   0  0  0  0  0  0  0  0  0  0  0  0
  2  1  1  0
  3  4  2  0
  3  2  1  0
  5  3  1  0
  6  5  1  0
  6  7  1  6
  8 16  1  0
  8  7  1  0
  9  8  2  0
 10  9  1  0
 10 11  1  0
 11 16  2  0
 12 11  1  0
 12 13  2  0
 13 14  1  0
 14 15  2  0
 16 15  1  0
 17 26  1  0
 17  6  1  0
 18 17  2  0
 19 20  1  0
 20 21  2  0
 21 22  1  0
 23 22  2  0
 23 24  1  0
 25 24  1  1
 25 27  1  0
 25 26  1  0
 27 28  1  0
 29 23  1  0
 30 20  1  0
 30 29  2  0
 31 27  2  0
M  END
$$$$
