GWY.pdb
     RDKit          3D

 31 33  0  0  1  0  0  0  0  0999 V2000
   28.0190  -22.2708  -15.4082 N   0  0  0  0  0  0  0  0  0  0  0  0
   28.2578  -21.2010  -14.4690 C   0  0  0  0  0  0  0  0  0  0  0  0
   27.5730  -21.4017  -13.1832 C   0  0  0  0  0  0  0  0  0  0  0  0
   26.5558  -22.1370  -13.1668 O   0  0  0  0  0  0  0  0  0  0  0  0
   27.9779  -20.8261  -11.9621 N   0  0  0  0  0  0  0  0  0  0  0  0
   27.2051  -20.8965  -10.7236 C   0  0  1  0  0  0  0  0  0  0  0  0
   28.0262  -20.5250   -9.5474 C   0  0  0  0  0  0  0  0  0  0  0  0
   27.3576  -20.5721   -8.2346 C   0  0  0  0  0  0  0  0  0  0  0  0
   26.0870  -21.0760   -7.9697 C   0  0  0  0  0  0  0  0  0  0  0  0
   25.8590  -20.9874   -6.6605 N   0  0  0  0  0  0  0  0  0  0  0  0
   26.9145  -20.4472   -6.0310 C   0  0  0  0  0  0  0  0  0  0  0  0
   27.1552  -20.1436   -4.7035 C   0  0  0  0  0  0  0  0  0  0  0  0
   28.3456  -19.5702   -4.3443 C   0  0  0  0  0  0  0  0  0  0  0  0
   29.3202  -19.2845   -5.2805 C   0  0  0  0  0  0  0  0  0  0  0  0
   29.0555  -19.5981   -6.6013 C   0  0  0  0  0  0  0  0  0  0  0  0
   27.8589  -20.1852   -7.0242 C   0  0  0  0  0  0  0  0  0  0  0  0
   25.9619  -20.1520  -10.8640 C   0  0  0  0  0  0  0  0  0  0  0  0
   25.9284  -18.9042  -11.1347 O   0  0  0  0  0  0  0  0  0  0  0  0
   22.7228  -25.4141  -14.5632 O   0  0  0  0  0  0  0  0  0  0  0  0
   22.9244  -24.1104  -14.1116 C   0  0  0  0  0  0  0  0  0  0  0  0
   24.1761  -23.5506  -14.0963 C   0  0  0  0  0  0  0  0  0  0  0  0
   24.3912  -22.2507  -13.6480 C   0  0  0  0  0  0  0  0  0  0  0  0
   23.3400  -21.4683  -13.1969 C   0  0  0  0  0  0  0  0  0  0  0  0
   23.4962  -20.0917  -12.7049 C   0  0  0  0  0  0  0  0  0  0  0  0
   23.4561  -20.0093  -11.1621 C   0  0  2  0  0  0  0  0  0  0  0  0
   24.6460  -20.7391  -10.7234 N   0  0  0  0  0  0  0  0  0  0  0  0
   22.2348  -20.6639  -10.6860 C   0  0  0  0  0  0  0  0  0  0  0  0
   20.9624  -20.1930  -10.9279 O   0  0  0  0  0  0  0  0  0  0  0  0
   22.0850  -22.0457  -13.2188 C   0  0  0  0  0  0  0  0  0  0  0  0
   21.8632  -23.3388  -13.6636 C   0  0  0  0  0  0  0  0  0  0  0  0
   22.3344  -21.7217  -10.0113 O   0  0  0  0  0  0  0  0  0  0  0  0
  2  1  1  0
  3  4  2  0
  3  2  1  0
  5  3  1  0
  6  5  1  0
  6  7  1  1
  8 16  1  0
  8  7  1  0
  9  8  2  0
 10  9  1  0
 10 11  1  0
 11 16  2  0
 12 11  1  0
 12 13  2  0
 13 14  1  0
 14 15  2  0
 16 15  1  0
 17 26  1  0
 17  6  1  0
 18 17  2  0
 19 20  1  0
 20 21  2  0
 21 22  1  0
 23 22  2  0
 23 24  1  0
 25 24  1  6
 25 27  1  0
 25 26  1  0
 27 28  1  0
 29 23  1  0
 30 20  1  0
 30 29  2  0
 31 27  2  0
M  END
$$$$
