GWY.pdb
     RDKit          3D

 31 33  0  0  1  0  0  0  0  0999 V2000
   20.7886  -20.8487  -11.0399 N   0  0  0  0  0  0  0  0  0  0  0  0
   21.7316  -21.3755  -11.9974 C   0  0  0  0  0  0  0  0  0  0  0  0
   23.0418  -20.7104  -11.9392 C   0  0  0  0  0  0  0  0  0  0  0  0
   23.0670  -19.4559  -11.9756 O   0  0  0  0  0  0  0  0  0  0  0  0
   24.2771  -21.3822  -11.8446 N   0  0  0  0  0  0  0  0  0  0  0  0
   25.5783  -20.7166  -11.8591 C   0  0  1  0  0  0  0  0  0  0  0  0
   26.5135  -21.3276  -10.8856 C   0  0  0  0  0  0  0  0  0  0  0  0
   26.5746  -20.7065   -9.5502 C   0  0  0  0  0  0  0  0  0  0  0  0
   25.4982  -20.2220   -8.8120 C   0  0  0  0  0  0  0  0  0  0  0  0
   25.9507  -19.7828   -7.6387 N   0  0  0  0  0  0  0  0  0  0  0  0
   27.2801  -19.9475   -7.5518 C   0  0  0  0  0  0  0  0  0  0  0  0
   28.1957  -19.6452   -6.5604 C   0  0  0  0  0  0  0  0  0  0  0  0
   29.5229  -19.9184   -6.7572 C   0  0  0  0  0  0  0  0  0  0  0  0
   29.9751  -20.4923   -7.9294 C   0  0  0  0  0  0  0  0  0  0  0  0
   29.0397  -20.7854   -8.9051 C   0  0  0  0  0  0  0  0  0  0  0  0
   27.6729  -20.5295   -8.7575 C   0  0  0  0  0  0  0  0  0  0  0  0
   26.0824  -20.6283  -13.2221 C   0  0  0  0  0  0  0  0  0  0  0  0
   25.8555  -21.5239  -14.1040 O   0  0  0  0  0  0  0  0  0  0  0  0
   30.2362  -17.3662  -20.4637 O   0  0  0  0  0  0  0  0  0  0  0  0
   29.6956  -17.5601  -19.1931 C   0  0  0  0  0  0  0  0  0  0  0  0
   28.3484  -17.4362  -18.9692 C   0  0  0  0  0  0  0  0  0  0  0  0
   27.7958  -17.6269  -17.7060 C   0  0  0  0  0  0  0  0  0  0  0  0
   28.5931  -17.9514  -16.6200 C   0  0  0  0  0  0  0  0  0  0  0  0
   28.0774  -18.1610  -15.2592 C   0  0  0  0  0  0  0  0  0  0  0  0
   27.2894  -19.4839  -15.1251 C   0  0  2  0  0  0  0  0  0  0  0  0
   26.8768  -19.5261  -13.7219 N   0  0  0  0  0  0  0  0  0  0  0  0
   28.1839  -20.6003  -15.4421 C   0  0  0  0  0  0  0  0  0  0  0  0
   28.2427  -21.2164  -16.6733 O   0  0  0  0  0  0  0  0  0  0  0  0
   29.9479  -18.0732  -16.8613 C   0  0  0  0  0  0  0  0  0  0  0  0
   30.5052  -17.8850  -18.1155 C   0  0  0  0  0  0  0  0  0  0  0  0
   28.9521  -21.0381  -14.5464 O   0  0  0  0  0  0  0  0  0  0  0  0
  2  1  1  0
  3  4  2  0
  3  2  1  0
  5  3  1  0
  6  5  1  0
  6  7  1  1
  8 16  1  0
  8  7  1  0
  9  8  2  0
 10  9  1  0
 10 11  1  0
 11 16  2  0
 12 11  1  0
 12 13  2  0
 13 14  1  0
 14 15  2  0
 16 15  1  0
 17 26  1  0
 17  6  1  0
 18 17  2  0
 19 20  1  0
 20 21  2  0
 21 22  1  0
 23 22  2  0
 23 24  1  0
 25 24  1  1
 25 27  1  0
 25 26  1  0
 27 28  1  0
 29 23  1  0
 30 20  1  0
 30 29  2  0
 31 27  2  0
M  END
$$$$
