GWY.pdb
     RDKit          3D

 31 33  0  0  1  0  0  0  0  0999 V2000
   30.9985  -21.3273  -11.3983 N   0  0  0  0  0  0  0  0  0  0  0  0
   29.9948  -20.3196  -11.1523 C   0  0  0  0  0  0  0  0  0  0  0  0
   28.7124  -20.8830  -10.7046 C   0  0  0  0  0  0  0  0  0  0  0  0
   28.4893  -22.0961  -10.9377 O   0  0  0  0  0  0  0  0  0  0  0  0
   27.7112  -20.1567  -10.0291 N   0  0  0  0  0  0  0  0  0  0  0  0
   26.3884  -20.6868   -9.7044 C   0  0  1  0  0  0  0  0  0  0  0  0
   25.8795  -20.1359   -8.4264 C   0  0  0  0  0  0  0  0  0  0  0  0
   26.8885  -19.6367   -7.4749 C   0  0  0  0  0  0  0  0  0  0  0  0
   27.4003  -18.3434   -7.4129 C   0  0  0  0  0  0  0  0  0  0  0  0
   28.2511  -18.2713   -6.3907 N   0  0  0  0  0  0  0  0  0  0  0  0
   28.3375  -19.4542   -5.7617 C   0  0  0  0  0  0  0  0  0  0  0  0
   29.0775  -19.8819   -4.6746 C   0  0  0  0  0  0  0  0  0  0  0  0
   28.9732  -21.1802   -4.2522 C   0  0  0  0  0  0  0  0  0  0  0  0
   28.1419  -22.0812   -4.8885 C   0  0  0  0  0  0  0  0  0  0  0  0
   27.4121  -21.6288   -5.9727 C   0  0  0  0  0  0  0  0  0  0  0  0
   27.4785  -20.3147   -6.4462 C   0  0  0  0  0  0  0  0  0  0  0  0
   25.4915  -20.5302  -10.8406 C   0  0  0  0  0  0  0  0  0  0  0  0
   25.5164  -19.5088  -11.6071 O   0  0  0  0  0  0  0  0  0  0  0  0
   19.4233  -22.4212  -17.1167 O   0  0  0  0  0  0  0  0  0  0  0  0
   20.3886  -22.4634  -16.1114 C   0  0  0  0  0  0  0  0  0  0  0  0
   21.7048  -22.1881  -16.3800 C   0  0  0  0  0  0  0  0  0  0  0  0
   22.6784  -22.2267  -15.3861 C   0  0  0  0  0  0  0  0  0  0  0  0
   22.3506  -22.5474  -14.0783 C   0  0  0  0  0  0  0  0  0  0  0  0
   23.3277  -22.6122  -12.9817 C   0  0  0  0  0  0  0  0  0  0  0  0
   23.5742  -21.2326  -12.3299 C   0  0  2  0  0  0  0  0  0  0  0  0
   24.4940  -21.5062  -11.2254 N   0  0  0  0  0  0  0  0  0  0  0  0
   22.2985  -20.7109  -11.8326 C   0  0  0  0  0  0  0  0  0  0  0  0
   21.4679  -19.8839  -12.5573 O   0  0  0  0  0  0  0  0  0  0  0  0
   21.0209  -22.8217  -13.8231 C   0  0  0  0  0  0  0  0  0  0  0  0
   20.0463  -22.7853  -14.8070 C   0  0  0  0  0  0  0  0  0  0  0  0
   21.9227  -21.0254  -10.6734 O   0  0  0  0  0  0  0  0  0  0  0  0
  2  1  1  0
  3  4  2  0
  3  2  1  0
  5  3  1  0
  6  5  1  0
  6  7  1  1
  8 16  1  0
  8  7  1  0
  9  8  2  0
 10  9  1  0
 10 11  1  0
 11 16  2  0
 12 11  1  0
 12 13  2  0
 13 14  1  0
 14 15  2  0
 16 15  1  0
 17 26  1  0
 17  6  1  0
 18 17  2  0
 19 20  1  0
 20 21  2  0
 21 22  1  0
 23 22  2  0
 23 24  1  0
 25 24  1  1
 25 27  1  0
 25 26  1  0
 27 28  1  0
 29 23  1  0
 30 20  1  0
 30 29  2  0
 31 27  2  0
M  END
$$$$
