DCV.pdb
     RDKit          3D

 22 21  0  0  1  0  0  0  0  0999 V2000
   16.6244  -12.5206  -14.6807 N   0  0  0  0  0  0  0  0  0  0  0  0
   16.9829  -11.7372  -15.8350 C   0  0  1  0  0  0  0  0  0  0  0  0
   15.7616  -11.3976  -16.6838 C   0  0  0  0  0  0  0  0  0  0  0  0
   15.1684  -12.6382  -17.2481 C   0  0  0  0  0  0  0  0  0  0  0  0
   15.8933  -13.6395  -17.3913 O   0  0  0  0  0  0  0  0  0  0  0  0
   17.6482  -10.4767  -15.4813 C   0  0  0  0  0  0  0  0  0  0  0  0
   17.0803   -9.7243  -14.6474 O   0  0  0  0  0  0  0  0  0  0  0  0
   13.8318  -12.6490  -17.5984 O   0  0  0  0  0  0  0  0  0  0  0  0
   18.8928  -10.0443  -16.0161 N   0  0  0  0  0  0  0  0  0  0  0  0
   19.5368   -8.8377  -15.5515 C   0  0  1  0  0  0  0  0  0  0  0  0
   20.8673   -9.1500  -14.8865 C   0  0  0  0  0  0  0  0  0  0  0  0
   21.7100   -7.6320  -14.3738 S   0  0  0  0  0  0  0  0  0  0  0  0
   19.7201   -7.8518  -16.6521 C   0  0  0  0  0  0  0  0  0  0  0  0
   20.2769   -8.1635  -17.7322 O   0  0  0  0  0  0  0  0  0  0  0  0
   17.4365   -6.3633  -18.7953 C   0  0  0  0  0  0  0  0  0  0  0  0
   18.0547   -5.1975  -18.0777 C   0  0  1  0  0  0  0  0  0  0  0  0
   17.1402   -4.6223  -17.0248 C   0  0  0  0  0  0  0  0  0  0  0  0
   19.4241   -5.5114  -17.5396 C   0  0  2  0  0  0  0  0  0  0  0  0
   19.2561   -6.5200  -16.4858 N   0  0  0  0  0  0  0  0  0  0  0  0
   20.1090   -4.3073  -17.0045 C   0  0  0  0  0  0  0  0  0  0  0  0
   20.5429   -3.4573  -17.8232 O   0  0  0  0  0  0  0  0  0  0  0  0
   20.2986   -4.0637  -15.6631 O   0  0  0  0  0  0  0  0  0  0  0  0
  2  1  1  1
  2  3  1  0
  4  3  1  0
  4  8  1  0
  5  4  2  0
  6  2  1  0
  6  9  1  0
  7  6  2  0
 10  9  1  0
 10 13  1  0
 10 11  1  6
 11 12  1  0
 13 19  1  0
 14 13  2  0
 16 15  1  1
 16 17  1  0
 18 20  1  0
 18 16  1  0
 18 19  1  1
 20 22  1  0
 21 20  2  0
M  END
$$$$
