DCV.pdb
     RDKit          3D

 22 21  0  0  1  0  0  0  0  0999 V2000
   14.2289   -9.2470  -14.2055 N   0  0  0  0  0  0  0  0  0  0  0  0
   15.3158   -9.5490  -13.3098 C   0  0  1  0  0  0  0  0  0  0  0  0
   16.3157  -10.5101  -13.9451 C   0  0  0  0  0  0  0  0  0  0  0  0
   15.7402  -11.8790  -14.0112 C   0  0  0  0  0  0  0  0  0  0  0  0
   15.1572  -12.3346  -13.0105 O   0  0  0  0  0  0  0  0  0  0  0  0
   16.0519   -8.3510  -12.8862 C   0  0  0  0  0  0  0  0  0  0  0  0
   16.1333   -7.3918  -13.6969 O   0  0  0  0  0  0  0  0  0  0  0  0
   15.8660  -12.6091  -15.1775 O   0  0  0  0  0  0  0  0  0  0  0  0
   16.6815   -8.1972  -11.6205 N   0  0  0  0  0  0  0  0  0  0  0  0
   17.2940   -6.9494  -11.2276 C   0  0  1  0  0  0  0  0  0  0  0  0
   16.8581   -6.5434   -9.8293 C   0  0  0  0  0  0  0  0  0  0  0  0
   18.0032   -5.3361   -9.1162 S   0  0  0  0  0  0  0  0  0  0  0  0
   18.7789   -7.0124  -11.3156 C   0  0  0  0  0  0  0  0  0  0  0  0
   19.4553   -7.7450  -10.5542 O   0  0  0  0  0  0  0  0  0  0  0  0
   20.8834   -8.4206  -13.5167 C   0  0  0  0  0  0  0  0  0  0  0  0
   21.3177   -6.9843  -13.5857 C   0  0  1  0  0  0  0  0  0  0  0  0
   20.8774   -6.3132  -14.8630 C   0  0  0  0  0  0  0  0  0  0  0  0
   20.9245   -6.2032  -12.3616 C   0  0  2  0  0  0  0  0  0  0  0  0
   19.4586   -6.2264  -12.2837 N   0  0  0  0  0  0  0  0  0  0  0  0
   21.4225   -4.8047  -12.4016 C   0  0  0  0  0  0  0  0  0  0  0  0
   20.6199   -3.8973  -12.7381 O   0  0  0  0  0  0  0  0  0  0  0  0
   22.7131   -4.4396  -12.0918 O   0  0  0  0  0  0  0  0  0  0  0  0
  2  1  1  6
  2  3  1  0
  4  3  1  0
  4  8  1  0
  5  4  2  0
  6  2  1  0
  6  9  1  0
  7  6  2  0
 10  9  1  0
 10 13  1  0
 10 11  1  1
 11 12  1  0
 13 19  1  0
 14 13  2  0
 16 15  1  1
 16 17  1  0
 18 20  1  0
 18 16  1  0
 18 19  1  6
 20 22  1  0
 21 20  2  0
M  END
$$$$
