DCV.pdb
     RDKit          3D

 22 21  0  0  1  0  0  0  0  0999 V2000
   15.7698  -14.9837  -17.1003 N   0  0  0  0  0  0  0  0  0  0  0  0
   16.8762  -14.6496  -16.2406 C   0  0  1  0  0  0  0  0  0  0  0  0
   17.8732  -15.7995  -16.1372 C   0  0  0  0  0  0  0  0  0  0  0  0
   17.3306  -16.8715  -15.2619 C   0  0  0  0  0  0  0  0  0  0  0  0
   16.2333  -16.6924  -14.7027 O   0  0  0  0  0  0  0  0  0  0  0  0
   17.6085  -13.4602  -16.6941 C   0  0  0  0  0  0  0  0  0  0  0  0
   17.7054  -13.2647  -17.9337 O   0  0  0  0  0  0  0  0  0  0  0  0
   18.0549  -18.0357  -15.0914 O   0  0  0  0  0  0  0  0  0  0  0  0
   18.2180  -12.5104  -15.8291 N   0  0  0  0  0  0  0  0  0  0  0  0
   18.8327  -11.3074  -16.3407 C   0  0  1  0  0  0  0  0  0  0  0  0
   17.8405  -10.4888  -17.1503 C   0  0  0  0  0  0  0  0  0  0  0  0
   16.2930  -10.2570  -16.2400 S   0  0  0  0  0  0  0  0  0  0  0  0
   19.4244  -10.4842  -15.2504 C   0  0  0  0  0  0  0  0  0  0  0  0
   18.8553  -10.3507  -14.1403 O   0  0  0  0  0  0  0  0  0  0  0  0
   23.0162  -10.9350  -14.1379 C   0  0  0  0  0  0  0  0  0  0  0  0
   22.7946   -9.4775  -14.4258 C   0  0  1  0  0  0  0  0  0  0  0  0
   23.4676   -9.0367  -15.7019 C   0  0  0  0  0  0  0  0  0  0  0  0
   21.3402   -9.0954  -14.3820 C   0  0  2  0  0  0  0  0  0  0  0  0
   20.6659   -9.8277  -15.4613 N   0  0  0  0  0  0  0  0  0  0  0  0
   21.1369   -7.6326  -14.5381 C   0  0  0  0  0  0  0  0  0  0  0  0
   20.8695   -7.1885  -15.6836 O   0  0  0  0  0  0  0  0  0  0  0  0
   21.2236   -6.7301  -13.5023 O   0  0  0  0  0  0  0  0  0  0  0  0
  2  1  1  6
  2  3  1  0
  4  3  1  0
  4  8  1  0
  5  4  2  0
  6  2  1  0
  6  9  1  0
  7  6  2  0
 10  9  1  0
 10 13  1  0
 10 11  1  1
 11 12  1  0
 13 19  1  0
 14 13  2  0
 16 15  1  6
 16 17  1  0
 18 20  1  0
 18 16  1  0
 18 19  1  6
 20 22  1  0
 21 20  2  0
M  END
$$$$
