DCV.pdb
     RDKit          3D

 22 21  0  0  1  0  0  0  0  0999 V2000
   18.7672  -11.8932  -18.6268 N   0  0  0  0  0  0  0  0  0  0  0  0
   19.9399  -11.1061  -18.3439 C   0  0  1  0  0  0  0  0  0  0  0  0
   20.4616  -10.4070  -19.5954 C   0  0  0  0  0  0  0  0  0  0  0  0
   20.9840  -11.4083  -20.5618 C   0  0  0  0  0  0  0  0  0  0  0  0
   21.6084  -12.3935  -20.1277 O   0  0  0  0  0  0  0  0  0  0  0  0
   19.7009  -10.0784  -17.3225 C   0  0  0  0  0  0  0  0  0  0  0  0
   18.6261   -9.4264  -17.3825 O   0  0  0  0  0  0  0  0  0  0  0  0
   20.7645  -11.2214  -21.9132 O   0  0  0  0  0  0  0  0  0  0  0  0
   20.6010   -9.7665  -16.2667 N   0  0  0  0  0  0  0  0  0  0  0  0
   20.2752   -8.7809  -15.2622 C   0  0  1  0  0  0  0  0  0  0  0  0
   20.3604   -9.3753  -13.8659 C   0  0  0  0  0  0  0  0  0  0  0  0
   20.0801   -8.1096  -12.6023 S   0  0  0  0  0  0  0  0  0  0  0  0
   21.1415   -7.5750  -15.3717 C   0  0  0  0  0  0  0  0  0  0  0  0
   22.3880   -7.6649  -15.4823 O   0  0  0  0  0  0  0  0  0  0  0  0
   21.3363   -2.7524  -16.3485 C   0  0  0  0  0  0  0  0  0  0  0  0
   20.6953   -4.1108  -16.3451 C   0  0  1  0  0  0  0  0  0  0  0  0
   20.5542   -4.6814  -17.7344 C   0  0  0  0  0  0  0  0  0  0  0  0
   21.3706   -5.0651  -15.3983 C   0  0  2  0  0  0  0  0  0  0  0  0
   20.5521   -6.2831  -15.3517 N   0  0  0  0  0  0  0  0  0  0  0  0
   21.5294   -4.4912  -14.0378 C   0  0  0  0  0  0  0  0  0  0  0  0
   22.5319   -3.7667  -13.8116 O   0  0  0  0  0  0  0  0  0  0  0  0
   20.6437   -4.7044  -13.0058 O   0  0  0  0  0  0  0  0  0  0  0  0
  2  1  1  6
  2  3  1  0
  4  3  1  0
  4  8  1  0
  5  4  2  0
  6  2  1  0
  6  9  1  0
  7  6  2  0
 10  9  1  0
 10 13  1  0
 10 11  1  1
 11 12  1  0
 13 19  1  0
 14 13  2  0
 16 15  1  6
 16 17  1  0
 18 20  1  0
 18 16  1  0
 18 19  1  1
 20 22  1  0
 21 20  2  0
M  END
$$$$
