DCV.pdb
     RDKit          3D

 22 21  0  0  1  0  0  0  0  0999 V2000
   21.4314   -4.7593  -15.2451 N   0  0  0  0  0  0  0  0  0  0  0  0
   22.4619   -5.3816  -16.0359 C   0  0  1  0  0  0  0  0  0  0  0  0
   23.7974   -4.6598  -15.8852 C   0  0  0  0  0  0  0  0  0  0  0  0
   23.7101   -3.2936  -16.4646 C   0  0  0  0  0  0  0  0  0  0  0  0
   24.4274   -2.3934  -15.9914 O   0  0  0  0  0  0  0  0  0  0  0  0
   22.6723   -6.7922  -15.6858 C   0  0  0  0  0  0  0  0  0  0  0  0
   22.1068   -7.2335  -14.6517 O   0  0  0  0  0  0  0  0  0  0  0  0
   22.8380   -3.0578  -17.5101 O   0  0  0  0  0  0  0  0  0  0  0  0
   23.4724   -7.6980  -16.4350 N   0  0  0  0  0  0  0  0  0  0  0  0
   23.4000   -9.1249  -16.2217 C   0  0  1  0  0  0  0  0  0  0  0  0
   21.9781   -9.6320  -16.3980 C   0  0  0  0  0  0  0  0  0  0  0  0
   21.8948  -11.4260  -16.1702 S   0  0  0  0  0  0  0  0  0  0  0  0
   24.3341   -9.8639  -17.1150 C   0  0  0  0  0  0  0  0  0  0  0  0
   24.3087   -9.7206  -18.3611 O   0  0  0  0  0  0  0  0  0  0  0  0
   28.0880  -10.0220  -16.2241 C   0  0  0  0  0  0  0  0  0  0  0  0
   27.5884  -11.4012  -16.5471 C   0  0  1  0  0  0  0  0  0  0  0  0
   27.4568  -12.2655  -15.3176 C   0  0  0  0  0  0  0  0  0  0  0  0
   26.3305  -11.3808  -17.3719 C   0  0  2  0  0  0  0  0  0  0  0  0
   25.2836  -10.7576  -16.5525 N   0  0  0  0  0  0  0  0  0  0  0  0
   25.9162  -12.7407  -17.8014 C   0  0  0  0  0  0  0  0  0  0  0  0
   25.0701  -13.3531  -17.1014 O   0  0  0  0  0  0  0  0  0  0  0  0
   26.4031  -13.3740  -18.9224 O   0  0  0  0  0  0  0  0  0  0  0  0
  2  1  1  1
  2  3  1  0
  4  3  1  0
  4  8  1  0
  5  4  2  0
  6  2  1  0
  6  9  1  0
  7  6  2  0
 10  9  1  0
 10 13  1  0
 10 11  1  6
 11 12  1  0
 13 19  1  0
 14 13  2  0
 16 15  1  1
 16 17  1  0
 18 20  1  0
 18 16  1  0
 18 19  1  1
 20 22  1  0
 21 20  2  0
M  END
$$$$
