DCV.pdb
     RDKit          3D

 22 21  0  0  1  0  0  0  0  0999 V2000
   24.1457  -19.0131  -17.9978 N   0  0  0  0  0  0  0  0  0  0  0  0
   24.5519  -18.2461  -16.8483 C   0  0  1  0  0  0  0  0  0  0  0  0
   23.3533  -17.6327  -16.1312 C   0  0  0  0  0  0  0  0  0  0  0  0
   22.7430  -16.5686  -16.9707 C   0  0  0  0  0  0  0  0  0  0  0  0
   23.4902  -15.7942  -17.5960 O   0  0  0  0  0  0  0  0  0  0  0  0
   25.3005  -19.0442  -15.8689 C   0  0  0  0  0  0  0  0  0  0  0  0
   24.7624  -20.0933  -15.4287 O   0  0  0  0  0  0  0  0  0  0  0  0
   21.3667  -16.4657  -17.0359 O   0  0  0  0  0  0  0  0  0  0  0  0
   26.5949  -18.7147  -15.3810 N   0  0  0  0  0  0  0  0  0  0  0  0
   27.2249  -19.4818  -14.3316 C   0  0  1  0  0  0  0  0  0  0  0  0
   28.7113  -19.1757  -14.2484 C   0  0  0  0  0  0  0  0  0  0  0  0
   29.4511  -19.9384  -12.7827 S   0  0  0  0  0  0  0  0  0  0  0  0
   26.5692  -19.2560  -13.0141 C   0  0  0  0  0  0  0  0  0  0  0  0
   26.3528  -18.1016  -12.5731 O   0  0  0  0  0  0  0  0  0  0  0  0
   23.3262  -20.3526  -11.8399 C   0  0  0  0  0  0  0  0  0  0  0  0
   24.2998  -20.9050  -10.8383 C   0  0  1  0  0  0  0  0  0  0  0  0
   24.4412  -22.4033  -10.9426 C   0  0  0  0  0  0  0  0  0  0  0  0
   25.6278  -20.1990  -10.8747 C   0  0  2  0  0  0  0  0  0  0  0  0
   26.1738  -20.3699  -12.2269 N   0  0  0  0  0  0  0  0  0  0  0  0
   26.5745  -20.7268   -9.8595 C   0  0  0  0  0  0  0  0  0  0  0  0
   27.4523  -21.5453  -10.2341 O   0  0  0  0  0  0  0  0  0  0  0  0
   26.5500  -20.3737   -8.5292 O   0  0  0  0  0  0  0  0  0  0  0  0
  2  1  1  6
  2  3  1  0
  4  3  1  0
  4  8  1  0
  5  4  2  0
  6  2  1  0
  6  9  1  0
  7  6  2  0
 10  9  1  0
 10 13  1  0
 10 11  1  1
 11 12  1  0
 13 19  1  0
 14 13  2  0
 16 15  1  6
 16 17  1  0
 18 20  1  0
 18 16  1  0
 18 19  1  6
 20 22  1  0
 21 20  2  0
M  END
$$$$
