FTN.pdb
     RDKit          3D

 27 27  0  0  1  0  0  0  0  0999 V2000
   18.3907  -12.5171  -17.2604 N   0  0  0  0  0  0  0  0  0  0  0  0
   19.5113  -11.6124  -17.0896 C   0  0  1  0  0  0  0  0  0  0  0  0
   20.1266  -11.4773  -18.4666 C   0  0  0  0  0  0  0  0  0  0  0  0
   20.6090  -12.7265  -19.0514 C   0  0  0  0  0  0  0  0  0  0  0  0
   19.9097  -13.4205  -19.9938 C   0  0  0  0  0  0  0  0  0  0  0  0
   20.3857  -14.6105  -20.5527 C   0  0  0  0  0  0  0  0  0  0  0  0
   21.5929  -15.1247  -20.1623 C   0  0  0  0  0  0  0  0  0  0  0  0
   22.2980  -14.4126  -19.2042 C   0  0  0  0  0  0  0  0  0  0  0  0
   21.8301  -13.2365  -18.6509 C   0  0  0  0  0  0  0  0  0  0  0  0
   19.1175  -10.2876  -16.6134 C   0  0  0  0  0  0  0  0  0  0  0  0
   18.2036   -9.6631  -17.2067 O   0  0  0  0  0  0  0  0  0  0  0  0
   17.4832   -9.4734  -13.6426 C   0  0  0  0  0  0  0  0  0  0  0  0
   18.7754   -8.7320  -13.5452 C   0  0  1  0  0  0  0  0  0  0  0  0
   19.7452   -9.4805  -12.8825 O   0  0  0  0  0  0  0  0  0  0  0  0
   19.3413   -8.4170  -14.9368 C   0  0  2  0  0  0  0  0  0  0  0  0
   19.7478   -9.6968  -15.4957 N   0  0  0  0  0  0  0  0  0  0  0  0
   20.5577   -7.5952  -14.7986 C   0  0  0  0  0  0  0  0  0  0  0  0
   21.7057   -7.9848  -15.2108 O   0  0  0  0  0  0  0  0  0  0  0  0
   23.7052   -3.5480  -14.6509 N   0  0  0  0  0  0  0  0  0  0  0  0
   23.1395   -4.2809  -15.7303 C   0  0  0  0  0  0  0  0  0  0  0  0
   23.5800   -4.0683  -16.9250 O   0  0  0  0  0  0  0  0  0  0  0  0
   22.0732   -5.2877  -15.6221 C   0  0  0  0  0  0  0  0  0  0  0  0
   21.6139   -5.4515  -14.1708 C   0  0  2  0  0  0  0  0  0  0  0  0
   20.4613   -6.3236  -14.1882 N   0  0  0  0  0  0  0  0  0  0  0  0
   21.1753   -4.1387  -13.6059 C   0  0  0  0  0  0  0  0  0  0  0  0
   20.0106   -3.7302  -13.8165 O   0  0  0  0  0  0  0  0  0  0  0  0
   22.0467   -3.3667  -12.8495 O   0  0  0  0  0  0  0  0  0  0  0  0
  2  1  1  6
  2 10  1  0
  3  2  1  0
  4  3  1  0
  4  5  2  0
  6  5  1  0
  7  6  2  0
  8  9  2  0
  8  7  1  0
  9  4  1  0
 10 16  1  0
 10 11  2  0
 13 12  1  6
 14 13  1  0
 15 17  1  0
 15 13  1  0
 15 16  1  1
 17 18  2  0
 19 20  1  0
 20 22  1  0
 21 20  2  0
 23 22  1  6
 24 23  1  0
 24 17  1  0
 25 23  1  0
 25 27  1  0
 26 25  2  0
M  END
$$$$
