FTN.pdb
     RDKit          3D

 27 27  0  0  1  0  0  0  0  0999 V2000
   18.4908  -10.4983  -15.1932 N   0  0  0  0  0  0  0  0  0  0  0  0
   19.0180   -9.1538  -15.0590 C   0  0  1  0  0  0  0  0  0  0  0  0
   20.5192   -9.3003  -15.1922 C   0  0  0  0  0  0  0  0  0  0  0  0
   21.3021   -8.5100  -14.2447 C   0  0  0  0  0  0  0  0  0  0  0  0
   21.5898   -8.9401  -12.9833 C   0  0  0  0  0  0  0  0  0  0  0  0
   22.3475   -8.1786  -12.0882 C   0  0  0  0  0  0  0  0  0  0  0  0
   22.8331   -6.9536  -12.4594 C   0  0  0  0  0  0  0  0  0  0  0  0
   22.5368   -6.5242  -13.7440 C   0  0  0  0  0  0  0  0  0  0  0  0
   21.7888   -7.2748  -14.6302 C   0  0  0  0  0  0  0  0  0  0  0  0
   18.5366   -8.2383  -16.0919 C   0  0  0  0  0  0  0  0  0  0  0  0
   18.2765   -8.6803  -17.2382 O   0  0  0  0  0  0  0  0  0  0  0  0
   15.5372   -6.2363  -16.2038 C   0  0  0  0  0  0  0  0  0  0  0  0
   16.6591   -5.2536  -16.2725 C   0  0  1  0  0  0  0  0  0  0  0  0
   16.9839   -4.7600  -15.0113 O   0  0  0  0  0  0  0  0  0  0  0  0
   17.9333   -5.9033  -16.8294 C   0  0  2  0  0  0  0  0  0  0  0  0
   18.3585   -6.8630  -15.8227 N   0  0  0  0  0  0  0  0  0  0  0  0
   18.9958   -4.8869  -16.9395 C   0  0  0  0  0  0  0  0  0  0  0  0
   19.9812   -4.8257  -16.1240 O   0  0  0  0  0  0  0  0  0  0  0  0
   23.5270   -2.6714  -17.9942 N   0  0  0  0  0  0  0  0  0  0  0  0
   22.4098   -2.9706  -18.8215 C   0  0  0  0  0  0  0  0  0  0  0  0
   22.3555   -2.4552  -20.0038 O   0  0  0  0  0  0  0  0  0  0  0  0
   21.2762   -3.8341  -18.4582 C   0  0  0  0  0  0  0  0  0  0  0  0
   20.0214   -3.0056  -18.1700 C   0  0  2  0  0  0  0  0  0  0  0  0
   18.9325   -3.9382  -17.9858 N   0  0  0  0  0  0  0  0  0  0  0  0
   19.6799   -2.1422  -19.3417 C   0  0  0  0  0  0  0  0  0  0  0  0
   18.9697   -2.6012  -20.2651 O   0  0  0  0  0  0  0  0  0  0  0  0
   20.1425   -0.8354  -19.4170 O   0  0  0  0  0  0  0  0  0  0  0  0
  2  1  1  6
  2 10  1  0
  3  2  1  0
  4  3  1  0
  4  5  2  0
  6  5  1  0
  7  6  2  0
  8  9  2  0
  8  7  1  0
  9  4  1  0
 10 16  1  0
 10 11  2  0
 13 12  1  1
 14 13  1  0
 15 17  1  0
 15 13  1  0
 15 16  1  1
 17 18  2  0
 19 20  1  0
 20 22  1  0
 21 20  2  0
 23 22  1  6
 24 23  1  0
 24 17  1  0
 25 23  1  0
 25 27  1  0
 26 25  2  0
M  END
$$$$
