FTN.pdb
     RDKit          3D

 27 27  0  0  1  0  0  0  0  0999 V2000
   25.2239  -20.8396   -6.9345 N   0  0  0  0  0  0  0  0  0  0  0  0
   25.9465  -20.3181   -8.0788 C   0  0  1  0  0  0  0  0  0  0  0  0
   27.4067  -20.5908   -7.7849 C   0  0  0  0  0  0  0  0  0  0  0  0
   27.8983  -20.0275   -6.5294 C   0  0  0  0  0  0  0  0  0  0  0  0
   27.8894  -18.6900   -6.2653 C   0  0  0  0  0  0  0  0  0  0  0  0
   28.3546  -18.1633   -5.0564 C   0  0  0  0  0  0  0  0  0  0  0  0
   28.8426  -18.9919   -4.0821 C   0  0  0  0  0  0  0  0  0  0  0  0
   28.8473  -20.3506   -4.3582 C   0  0  0  0  0  0  0  0  0  0  0  0
   28.3880  -20.8734   -5.5515 C   0  0  0  0  0  0  0  0  0  0  0  0
   25.5855  -20.9696   -9.3366 C   0  0  0  0  0  0  0  0  0  0  0  0
   24.9189  -22.0337   -9.3133 O   0  0  0  0  0  0  0  0  0  0  0  0
   23.2626  -21.3118  -10.8030 C   0  0  0  0  0  0  0  0  0  0  0  0
   23.9954  -20.6068  -11.8961 C   0  0  1  0  0  0  0  0  0  0  0  0
   23.8829  -19.2237  -11.7773 O   0  0  0  0  0  0  0  0  0  0  0  0
   25.4956  -20.9286  -11.8566 C   0  0  2  0  0  0  0  0  0  0  0  0
   25.9736  -20.4223  -10.5796 N   0  0  0  0  0  0  0  0  0  0  0  0
   26.1893  -20.1703  -12.9139 C   0  0  0  0  0  0  0  0  0  0  0  0
   27.0773  -19.2835  -12.6594 O   0  0  0  0  0  0  0  0  0  0  0  0
   29.1751  -23.4333  -16.0933 N   0  0  0  0  0  0  0  0  0  0  0  0
   28.8447  -22.1092  -15.6934 C   0  0  0  0  0  0  0  0  0  0  0  0
   29.4807  -21.1211  -16.2279 O   0  0  0  0  0  0  0  0  0  0  0  0
   27.8212  -21.7385  -14.7048 C   0  0  0  0  0  0  0  0  0  0  0  0
   26.9298  -20.6099  -15.2299 C   0  0  2  0  0  0  0  0  0  0  0  0
   25.8678  -20.4273  -14.2664 N   0  0  0  0  0  0  0  0  0  0  0  0
   26.2971  -20.9988  -16.5274 C   0  0  0  0  0  0  0  0  0  0  0  0
   26.6928  -20.4739  -17.5930 O   0  0  0  0  0  0  0  0  0  0  0  0
   25.2743  -21.9368  -16.5632 O   0  0  0  0  0  0  0  0  0  0  0  0
  2  1  1  1
  2 10  1  0
  3  2  1  0
  4  3  1  0
  4  5  2  0
  6  5  1  0
  7  6  2  0
  8  9  2  0
  8  7  1  0
  9  4  1  0
 10 16  1  0
 10 11  2  0
 13 12  1  1
 14 13  1  0
 15 17  1  0
 15 13  1  0
 15 16  1  1
 17 18  2  0
 19 20  1  0
 20 22  1  0
 21 20  2  0
 23 22  1  1
 24 23  1  0
 24 17  1  0
 25 23  1  0
 25 27  1  0
 26 25  2  0
M  END
$$$$
