FTN.pdb
     RDKit          3D

 27 27  0  0  1  0  0  0  0  0999 V2000
   20.3616  -17.2368  -18.8110 N   0  0  0  0  0  0  0  0  0  0  0  0
   20.5645  -15.8418  -18.4700 C   0  0  1  0  0  0  0  0  0  0  0  0
   20.9446  -15.1659  -19.7706 C   0  0  0  0  0  0  0  0  0  0  0  0
   22.1779  -15.6557  -20.3824 C   0  0  0  0  0  0  0  0  0  0  0  0
   23.4068  -15.4655  -19.8235 C   0  0  0  0  0  0  0  0  0  0  0  0
   24.5795  -15.9467  -20.4139 C   0  0  0  0  0  0  0  0  0  0  0  0
   24.5274  -16.6373  -21.5947 C   0  0  0  0  0  0  0  0  0  0  0  0
   23.2739  -16.8271  -22.1560 C   0  0  0  0  0  0  0  0  0  0  0  0
   22.1140  -16.3531  -21.5745 C   0  0  0  0  0  0  0  0  0  0  0  0
   19.3673  -15.1980  -17.9324 C   0  0  0  0  0  0  0  0  0  0  0  0
   18.2569  -15.7764  -18.0298 O   0  0  0  0  0  0  0  0  0  0  0  0
   17.3388  -15.4777  -16.0371 C   0  0  0  0  0  0  0  0  0  0  0  0
   17.8348  -14.1551  -15.5539 C   0  0  1  0  0  0  0  0  0  0  0  0
   18.9404  -14.2980  -14.7190 O   0  0  0  0  0  0  0  0  0  0  0  0
   18.2823  -13.2684  -16.7242 C   0  0  2  0  0  0  0  0  0  0  0  0
   19.4378  -13.9348  -17.3039 N   0  0  0  0  0  0  0  0  0  0  0  0
   18.7433  -11.9669  -16.2069 C   0  0  0  0  0  0  0  0  0  0  0  0
   19.9264  -11.5215  -16.4111 O   0  0  0  0  0  0  0  0  0  0  0  0
   17.9657   -6.4829  -16.4971 N   0  0  0  0  0  0  0  0  0  0  0  0
   18.7149   -7.6232  -16.0961 C   0  0  0  0  0  0  0  0  0  0  0  0
   19.8027   -7.4476  -15.4237 O   0  0  0  0  0  0  0  0  0  0  0  0
   18.3665   -9.0242  -16.3759 C   0  0  0  0  0  0  0  0  0  0  0  0
   18.2306   -9.8284  -15.0802 C   0  0  2  0  0  0  0  0  0  0  0  0
   17.8488  -11.1714  -15.4546 N   0  0  0  0  0  0  0  0  0  0  0  0
   17.1362   -9.2718  -14.2273 C   0  0  0  0  0  0  0  0  0  0  0  0
   15.9684   -9.7049  -14.3548 O   0  0  0  0  0  0  0  0  0  0  0  0
   17.4013   -8.2785  -13.2944 O   0  0  0  0  0  0  0  0  0  0  0  0
  2  1  1  6
  2 10  1  0
  3  2  1  0
  4  3  1  0
  4  5  2  0
  6  5  1  0
  7  6  2  0
  8  9  2  0
  8  7  1  0
  9  4  1  0
 10 16  1  0
 10 11  2  0
 13 12  1  6
 14 13  1  0
 15 17  1  0
 15 13  1  0
 15 16  1  1
 17 18  2  0
 19 20  1  0
 20 22  1  0
 21 20  2  0
 23 22  1  6
 24 23  1  0
 24 17  1  0
 25 23  1  0
 25 27  1  0
 26 25  2  0
M  END
$$$$
