FTN.pdb
     RDKit          3D

 27 27  0  0  1  0  0  0  0  0999 V2000
   22.7550   -6.4289  -17.5760 N   0  0  0  0  0  0  0  0  0  0  0  0
   22.4573   -7.3745  -16.5173 C   0  0  1  0  0  0  0  0  0  0  0  0
   21.3200   -6.7513  -15.7357 C   0  0  0  0  0  0  0  0  0  0  0  0
   21.6398   -5.4798  -15.0903 C   0  0  0  0  0  0  0  0  0  0  0  0
   21.3371   -4.2720  -15.6455 C   0  0  0  0  0  0  0  0  0  0  0  0
   21.6402   -3.0617  -15.0143 C   0  0  0  0  0  0  0  0  0  0  0  0
   22.2626   -3.0534  -13.7950 C   0  0  0  0  0  0  0  0  0  0  0  0
   22.5661   -4.2857  -13.2369 C   0  0  0  0  0  0  0  0  0  0  0  0
   22.2673   -5.4828  -13.8584 C   0  0  0  0  0  0  0  0  0  0  0  0
   22.0322   -8.6824  -17.0130 C   0  0  0  0  0  0  0  0  0  0  0  0
   21.5557   -8.7804  -18.1707 O   0  0  0  0  0  0  0  0  0  0  0  0
   22.4888  -13.5459  -16.3718 C   0  0  0  0  0  0  0  0  0  0  0  0
   22.8188  -12.1223  -16.0661 C   0  0  1  0  0  0  0  0  0  0  0  0
   24.0527  -11.7579  -16.5995 O   0  0  0  0  0  0  0  0  0  0  0  0
   21.7808  -11.1687  -16.6737 C   0  0  2  0  0  0  0  0  0  0  0  0
   22.1485   -9.8397  -16.2113 N   0  0  0  0  0  0  0  0  0  0  0  0
   20.4495  -11.4715  -16.1170 C   0  0  0  0  0  0  0  0  0  0  0  0
   20.1372  -11.2267  -14.8995 O   0  0  0  0  0  0  0  0  0  0  0  0
   15.4097  -12.9466  -15.8760 N   0  0  0  0  0  0  0  0  0  0  0  0
   15.7728  -11.8990  -16.7664 C   0  0  0  0  0  0  0  0  0  0  0  0
   14.8407  -11.1693  -17.2813 O   0  0  0  0  0  0  0  0  0  0  0  0
   17.1425  -11.5499  -17.1722 C   0  0  0  0  0  0  0  0  0  0  0  0
   18.1739  -12.3881  -16.4121 C   0  0  2  0  0  0  0  0  0  0  0  0
   19.4716  -12.0551  -16.9549 N   0  0  0  0  0  0  0  0  0  0  0  0
   17.9474  -13.8462  -16.6521 C   0  0  0  0  0  0  0  0  0  0  0  0
   18.3711  -14.3753  -17.7049 O   0  0  0  0  0  0  0  0  0  0  0  0
   17.2715  -14.6207  -15.7191 O   0  0  0  0  0  0  0  0  0  0  0  0
  2  1  1  6
  2 10  1  0
  3  2  1  0
  4  3  1  0
  4  5  2  0
  6  5  1  0
  7  6  2  0
  8  9  2  0
  8  7  1  0
  9  4  1  0
 10 16  1  0
 10 11  2  0
 13 12  1  6
 14 13  1  0
 15 17  1  0
 15 13  1  0
 15 16  1  1
 17 18  2  0
 19 20  1  0
 20 22  1  0
 21 20  2  0
 23 22  1  6
 24 23  1  0
 24 17  1  0
 25 23  1  0
 25 27  1  0
 26 25  2  0
M  END
$$$$
