FTN.pdb
     RDKit          3D

 27 27  0  0  1  0  0  0  0  0999 V2000
   16.2461  -12.6664    6.9255 N   0  0  0  0  0  0  0  0  0  0  0  0
   16.5845  -14.0411    6.6104 C   0  0  1  0  0  0  0  0  0  0  0  0
   18.0754  -14.0329    6.3458 C   0  0  0  0  0  0  0  0  0  0  0  0
   18.4605  -13.6072    5.0020 C   0  0  0  0  0  0  0  0  0  0  0  0
   18.3484  -14.4152    3.9097 C   0  0  0  0  0  0  0  0  0  0  0  0
   18.7121  -13.9936    2.6270 C   0  0  0  0  0  0  0  0  0  0  0  0
   19.2014  -12.7310    2.4258 C   0  0  0  0  0  0  0  0  0  0  0  0
   19.3113  -11.9154    3.5416 C   0  0  0  0  0  0  0  0  0  0  0  0
   18.9524  -12.3294    4.8097 C   0  0  0  0  0  0  0  0  0  0  0  0
   16.3010  -14.9712    7.7019 C   0  0  0  0  0  0  0  0  0  0  0  0
   16.4819  -14.6052    8.8895 O   0  0  0  0  0  0  0  0  0  0  0  0
   13.3936  -15.9992    9.1373 C   0  0  0  0  0  0  0  0  0  0  0  0
   13.9435  -17.2495    8.5345 C   0  0  1  0  0  0  0  0  0  0  0  0
   13.5159  -17.4135    7.2192 O   0  0  0  0  0  0  0  0  0  0  0  0
   15.4776  -17.2190    8.4951 C   0  0  2  0  0  0  0  0  0  0  0  0
   15.8261  -16.2763    7.4439 N   0  0  0  0  0  0  0  0  0  0  0  0
   15.9853  -18.5403    8.0821 C   0  0  0  0  0  0  0  0  0  0  0  0
   16.3804  -18.7872    6.8893 O   0  0  0  0  0  0  0  0  0  0  0  0
   17.6338  -23.5152    8.3359 N   0  0  0  0  0  0  0  0  0  0  0  0
   17.8193  -22.7967    9.5490 C   0  0  0  0  0  0  0  0  0  0  0  0
   18.4972  -23.3465   10.5001 O   0  0  0  0  0  0  0  0  0  0  0  0
   17.3041  -21.4504    9.8396 C   0  0  0  0  0  0  0  0  0  0  0  0
   16.5367  -20.8828    8.6426 C   0  0  2  0  0  0  0  0  0  0  0  0
   16.0424  -19.5825    9.0357 N   0  0  0  0  0  0  0  0  0  0  0  0
   15.3513  -21.7364    8.3243 C   0  0  0  0  0  0  0  0  0  0  0  0
   14.2911  -21.5941    8.9750 O   0  0  0  0  0  0  0  0  0  0  0  0
   15.4138  -22.6863    7.3139 O   0  0  0  0  0  0  0  0  0  0  0  0
  2  1  1  1
  2 10  1  0
  3  2  1  0
  4  3  1  0
  4  5  2  0
  6  5  1  0
  7  6  2  0
  8  9  2  0
  8  7  1  0
  9  4  1  0
 10 16  1  0
 10 11  2  0
 13 12  1  6
 14 13  1  0
 15 17  1  0
 15 13  1  0
 15 16  1  6
 17 18  2  0
 19 20  1  0
 20 22  1  0
 21 20  2  0
 23 22  1  1
 24 23  1  0
 24 17  1  0
 25 23  1  0
 25 27  1  0
 26 25  2  0
M  END
$$$$
