FTN.pdb
     RDKit          3D

 27 27  0  0  1  0  0  0  0  0999 V2000
   28.5633  -21.4886   -9.1936 N   0  0  0  0  0  0  0  0  0  0  0  0
   27.1992  -20.9960   -9.1958 C   0  0  1  0  0  0  0  0  0  0  0  0
   27.2370  -19.7172   -8.3858 C   0  0  0  0  0  0  0  0  0  0  0  0
   27.7282  -19.8684   -7.0179 C   0  0  0  0  0  0  0  0  0  0  0  0
   28.9368  -19.3880   -6.6088 C   0  0  0  0  0  0  0  0  0  0  0  0
   29.3925  -19.5311   -5.2946 C   0  0  0  0  0  0  0  0  0  0  0  0
   28.6229  -20.1708   -4.3605 C   0  0  0  0  0  0  0  0  0  0  0  0
   27.3950  -20.6555   -4.7844 C   0  0  0  0  0  0  0  0  0  0  0  0
   26.9424  -20.5150   -6.0820 C   0  0  0  0  0  0  0  0  0  0  0  0
   26.6952  -20.6953  -10.5347 C   0  0  0  0  0  0  0  0  0  0  0  0
   27.5032  -20.5841  -11.4896 O   0  0  0  0  0  0  0  0  0  0  0  0
   26.5597  -21.7328  -13.0898 C   0  0  0  0  0  0  0  0  0  0  0  0
   25.0865  -21.5866  -12.8967 C   0  0  1  0  0  0  0  0  0  0  0  0
   24.5566  -22.6563  -12.1792 O   0  0  0  0  0  0  0  0  0  0  0  0
   24.7540  -20.3178  -12.0997 C   0  0  2  0  0  0  0  0  0  0  0  0
   25.3130  -20.5278  -10.7735 N   0  0  0  0  0  0  0  0  0  0  0  0
   23.2922  -20.2038  -11.9439 C   0  0  0  0  0  0  0  0  0  0  0  0
   22.6828  -20.5437  -10.8702 O   0  0  0  0  0  0  0  0  0  0  0  0
   20.2041  -20.1410  -16.0149 N   0  0  0  0  0  0  0  0  0  0  0  0
   21.0430  -19.2623  -15.2757 C   0  0  0  0  0  0  0  0  0  0  0  0
   22.2381  -19.0338  -15.7072 O   0  0  0  0  0  0  0  0  0  0  0  0
   20.6777  -18.5650  -14.0337 C   0  0  0  0  0  0  0  0  0  0  0  0
   21.1381  -19.3513  -12.8033 C   0  0  2  0  0  0  0  0  0  0  0  0
   22.5246  -19.6987  -13.0184 N   0  0  0  0  0  0  0  0  0  0  0  0
   20.3699  -20.6274  -12.6760 C   0  0  0  0  0  0  0  0  0  0  0  0
   20.8415  -21.6859  -13.1502 O   0  0  0  0  0  0  0  0  0  0  0  0
   19.1376  -20.6512  -12.0372 O   0  0  0  0  0  0  0  0  0  0  0  0
  2  1  1  6
  2 10  1  0
  3  2  1  0
  4  3  1  0
  4  5  2  0
  6  5  1  0
  7  6  2  0
  8  9  2  0
  8  7  1  0
  9  4  1  0
 10 16  1  0
 10 11  2  0
 13 12  1  1
 14 13  1  0
 15 17  1  0
 15 13  1  0
 15 16  1  1
 17 18  2  0
 19 20  1  0
 20 22  1  0
 21 20  2  0
 23 22  1  6
 24 23  1  0
 24 17  1  0
 25 23  1  0
 25 27  1  0
 26 25  2  0
M  END
$$$$
