PIV.pdb
     RDKit          3D

 23 23  0  0  1  0  0  0  0  0999 V2000
   28.9132  -20.6357  -14.7214 N   0  0  0  0  0  0  0  0  0  0  0  0
   28.7153  -20.2009  -16.0681 C   0  0  0  0  0  0  0  0  0  0  0  0
   28.4974  -18.7125  -15.9826 C   0  0  0  0  0  0  0  0  0  0  0  0
   27.7112  -18.6120  -14.6679 C   0  0  0  0  0  0  0  0  0  0  0  0
   28.1949  -19.7318  -13.8452 C   0  0  1  0  0  0  0  0  0  0  0  0
   27.1855  -20.4214  -13.0269 C   0  0  0  0  0  0  0  0  0  0  0  0
   26.8345  -21.5742  -13.4203 O   0  0  0  0  0  0  0  0  0  0  0  0
   27.3343  -20.8845   -8.2325 C   0  0  0  0  0  0  0  0  0  0  0  0
   26.6263  -19.8572   -8.9940 C   0  0  0  0  0  0  0  0  0  0  0  0
   25.4183  -20.0908   -9.7633 C   0  0  2  0  0  0  0  0  0  0  0  0
   24.3040  -20.7881   -8.9726 C   0  0  0  0  0  0  0  0  0  0  0  0
   25.4577  -20.6032  -11.1648 C   0  0  2  0  0  0  0  0  0  0  0  0
   26.5856  -19.9348  -11.8747 N   0  0  0  0  0  0  0  0  0  0  0  0
   24.2244  -20.3988  -11.9051 C   0  0  0  0  0  0  0  0  0  0  0  0
   23.8036  -19.2535  -12.1557 O   0  0  0  0  0  0  0  0  0  0  0  0
   20.9984  -21.8698  -15.2874 C   0  0  0  0  0  0  0  0  0  0  0  0
   22.1594  -22.1511  -14.3958 C   0  0  1  0  0  0  0  0  0  0  0  0
   23.4292  -22.0782  -15.2162 C   0  0  0  0  0  0  0  0  0  0  0  0
   22.3137  -21.1878  -13.2503 C   0  0  2  0  0  0  0  0  0  0  0  0
   23.4157  -21.4910  -12.3929 N   0  0  0  0  0  0  0  0  0  0  0  0
   21.0510  -21.1872  -12.4247 C   0  0  0  0  0  0  0  0  0  0  0  0
   20.0691  -20.4712  -12.7358 O   0  0  0  0  0  0  0  0  0  0  0  0
   20.9415  -21.9838  -11.2921 O   0  0  0  0  0  0  0  0  0  0  0  0
  1  5  1  0
  2  3  1  0
  2  1  1  0
  3  4  1  0
  4  5  1  0
  5  6  1  6
  6  7  2  0
  8  9  1  0
  9 10  1  0
 10 12  1  0
 10 11  1  1
 12 14  1  0
 12 13  1  6
 13  6  1  0
 14 15  2  0
 14 20  1  0
 17 19  1  0
 17 16  1  6
 18 17  1  0
 19 21  1  0
 19 20  1  1
 21 22  2  0
 21 23  1  0
M  END
$$$$
