PIV.pdb
     RDKit          3D

 23 23  0  0  1  0  0  0  0  0999 V2000
   26.9044  -20.4071  -13.9788 N   0  0  0  0  0  0  0  0  0  0  0  0
   28.0112  -19.9711  -14.7704 C   0  0  0  0  0  0  0  0  0  0  0  0
   29.1219  -20.9475  -14.4818 C   0  0  0  0  0  0  0  0  0  0  0  0
   28.8783  -21.2282  -12.9924 C   0  0  0  0  0  0  0  0  0  0  0  0
   27.4259  -21.0827  -12.8072 C   0  0  1  0  0  0  0  0  0  0  0  0
   26.9900  -20.4530  -11.5513 C   0  0  0  0  0  0  0  0  0  0  0  0
   26.8856  -19.1897  -11.5622 O   0  0  0  0  0  0  0  0  0  0  0  0
   22.3314  -20.7957  -10.1312 C   0  0  0  0  0  0  0  0  0  0  0  0
   23.7408  -20.4088  -10.1144 C   0  0  0  0  0  0  0  0  0  0  0  0
   24.6769  -20.7603   -9.0628 C   0  0  2  0  0  0  0  0  0  0  0  0
   24.1557  -20.4784   -7.6479 C   0  0  0  0  0  0  0  0  0  0  0  0
   26.1307  -20.4339   -9.1540 C   0  0  2  0  0  0  0  0  0  0  0  0
   26.6846  -21.1042  -10.3651 N   0  0  0  0  0  0  0  0  0  0  0  0
   26.8998  -20.8239   -7.9847 C   0  0  0  0  0  0  0  0  0  0  0  0
   27.1397  -22.0212   -7.7390 O   0  0  0  0  0  0  0  0  0  0  0  0
   30.3339  -19.1104   -6.7390 C   0  0  0  0  0  0  0  0  0  0  0  0
   29.3808  -19.3964   -5.6292 C   0  0  1  0  0  0  0  0  0  0  0  0
   28.7376  -18.0967   -5.1958 C   0  0  0  0  0  0  0  0  0  0  0  0
   28.2693  -20.3442   -5.9904 C   0  0  2  0  0  0  0  0  0  0  0  0
   27.4298  -19.8661   -7.0430 N   0  0  0  0  0  0  0  0  0  0  0  0
   27.4140  -20.5976   -4.7737 C   0  0  0  0  0  0  0  0  0  0  0  0
   26.2475  -20.1438   -4.6908 O   0  0  0  0  0  0  0  0  0  0  0  0
   27.8981  -21.3443   -3.7072 O   0  0  0  0  0  0  0  0  0  0  0  0
  1  5  1  0
  2  3  1  0
  2  1  1  0
  3  4  1  0
  4  5  1  0
  5  6  1  1
  6  7  2  0
  8  9  1  0
  9 10  1  0
 10 12  1  0
 10 11  1  1
 12 14  1  0
 12 13  1  6
 13  6  1  0
 14 15  2  0
 14 20  1  0
 17 19  1  0
 17 16  1  6
 18 17  1  0
 19 21  1  0
 19 20  1  6
 21 22  2  0
 21 23  1  0
M  END
$$$$
