PIV.pdb
     RDKit          3D

 23 23  0  0  1  0  0  0  0  0999 V2000
   23.6621  -20.7765  -13.3746 N   0  0  0  0  0  0  0  0  0  0  0  0
   22.3809  -21.3183  -13.7016 C   0  0  0  0  0  0  0  0  0  0  0  0
   21.3817  -20.4551  -12.9758 C   0  0  0  0  0  0  0  0  0  0  0  0
   22.1497  -20.1522  -11.6816 C   0  0  0  0  0  0  0  0  0  0  0  0
   23.5693  -20.1554  -12.0684 C   0  0  1  0  0  0  0  0  0  0  0  0
   24.5070  -20.7398  -11.0972 C   0  0  0  0  0  0  0  0  0  0  0  0
   24.2100  -21.8879  -10.6495 O   0  0  0  0  0  0  0  0  0  0  0  0
   30.2527  -22.1084  -10.9921 C   0  0  0  0  0  0  0  0  0  0  0  0
   29.0082  -21.9353  -10.2454 C   0  0  0  0  0  0  0  0  0  0  0  0
   27.9074  -21.0893  -10.6676 C   0  0  2  0  0  0  0  0  0  0  0  0
   28.3506  -19.7691  -11.3109 C   0  0  0  0  0  0  0  0  0  0  0  0
   26.7027  -20.8708   -9.8137 C   0  0  2  0  0  0  0  0  0  0  0  0
   25.6762  -20.1593  -10.6279 N   0  0  0  0  0  0  0  0  0  0  0  0
   26.9670  -20.1218   -8.5971 C   0  0  0  0  0  0  0  0  0  0  0  0
   26.7127  -18.9049   -8.5195 O   0  0  0  0  0  0  0  0  0  0  0  0
   28.1867  -19.8641   -3.7835 C   0  0  0  0  0  0  0  0  0  0  0  0
   27.8863  -20.6929   -4.9855 C   0  0  1  0  0  0  0  0  0  0  0  0
   26.5910  -21.4389   -4.7484 C   0  0  0  0  0  0  0  0  0  0  0  0
   27.7212  -19.9081   -6.2587 C   0  0  2  0  0  0  0  0  0  0  0  0
   27.5330  -20.7267   -7.4145 N   0  0  0  0  0  0  0  0  0  0  0  0
   28.9405  -19.0465   -6.4759 C   0  0  0  0  0  0  0  0  0  0  0  0
   29.8885  -19.4297   -7.2025 O   0  0  0  0  0  0  0  0  0  0  0  0
   29.0463  -17.7993   -5.8737 O   0  0  0  0  0  0  0  0  0  0  0  0
  1  5  1  0
  2  3  1  0
  2  1  1  0
  3  4  1  0
  4  5  1  0
  5  6  1  1
  6  7  2  0
  8  9  1  0
  9 10  1  0
 10 12  1  0
 10 11  1  1
 12 14  1  0
 12 13  1  6
 13  6  1  0
 14 15  2  0
 14 20  1  0
 17 19  1  0
 17 16  1  1
 18 17  1  0
 19 21  1  0
 19 20  1  6
 21 22  2  0
 21 23  1  0
M  END
$$$$
