PIV.pdb
     RDKit          3D

 23 23  0  0  1  0  0  0  0  0999 V2000
   29.2955  -21.4236  -14.4846 N   0  0  0  0  0  0  0  0  0  0  0  0
   29.0863  -21.2351  -15.8855 C   0  0  0  0  0  0  0  0  0  0  0  0
   28.8754  -19.7541  -16.0653 C   0  0  0  0  0  0  0  0  0  0  0  0
   28.1023  -19.4160  -14.7829 C   0  0  0  0  0  0  0  0  0  0  0  0
   28.5894  -20.3737  -13.7776 C   0  0  1  0  0  0  0  0  0  0  0  0
   27.5853  -20.9002  -12.8404 C   0  0  0  0  0  0  0  0  0  0  0  0
   26.9862  -21.9597  -13.1948 O   0  0  0  0  0  0  0  0  0  0  0  0
   27.7856  -19.7688   -7.3994 C   0  0  0  0  0  0  0  0  0  0  0  0
   27.5044  -20.3982   -8.6882 C   0  0  0  0  0  0  0  0  0  0  0  0
   26.2507  -20.2724   -9.4080 C   0  0  2  0  0  0  0  0  0  0  0  0
   25.0127  -20.5836   -8.5574 C   0  0  0  0  0  0  0  0  0  0  0  0
   26.0748  -20.8025  -10.7923 C   0  0  2  0  0  0  0  0  0  0  0  0
   27.2338  -20.3527  -11.6153 N   0  0  0  0  0  0  0  0  0  0  0  0
   24.8347  -20.3941  -11.4299 C   0  0  0  0  0  0  0  0  0  0  0  0
   24.5537  -19.1905  -11.5846 O   0  0  0  0  0  0  0  0  0  0  0  0
   21.1665  -21.1588  -14.5802 C   0  0  0  0  0  0  0  0  0  0  0  0
   22.3667  -21.6475  -13.8437 C   0  0  1  0  0  0  0  0  0  0  0  0
   23.5580  -21.6052  -14.7763 C   0  0  0  0  0  0  0  0  0  0  0  0
   22.7247  -20.8373  -12.6274 C   0  0  2  0  0  0  0  0  0  0  0  0
   23.8596  -21.3397  -11.9196 N   0  0  0  0  0  0  0  0  0  0  0  0
   21.5477  -20.8059  -11.6841 C   0  0  0  0  0  0  0  0  0  0  0  0
   21.4393  -21.6351  -10.7491 O   0  0  0  0  0  0  0  0  0  0  0  0
   20.5473  -19.8529  -11.8268 O   0  0  0  0  0  0  0  0  0  0  0  0
  1  5  1  0
  2  3  1  0
  2  1  1  0
  3  4  1  0
  4  5  1  0
  5  6  1  6
  6  7  2  0
  8  9  1  0
  9 10  1  0
 10 12  1  0
 10 11  1  1
 12 14  1  0
 12 13  1  6
 13  6  1  0
 14 15  2  0
 14 20  1  0
 17 19  1  0
 17 16  1  6
 18 17  1  0
 19 21  1  0
 19 20  1  1
 21 22  2  0
 21 23  1  0
M  END
$$$$
