PIV.pdb
     RDKit          3D

 23 23  0  0  1  0  0  0  0  0999 V2000
   28.6682  -20.9263  -14.9669 N   0  0  0  0  0  0  0  0  0  0  0  0
   28.4216  -20.5938  -16.3345 C   0  0  0  0  0  0  0  0  0  0  0  0
   28.2202  -19.1007  -16.3558 C   0  0  0  0  0  0  0  0  0  0  0  0
   27.4870  -18.8904  -15.0236 C   0  0  0  0  0  0  0  0  0  0  0  0
   27.9927  -19.9494  -14.1361 C   0  0  1  0  0  0  0  0  0  0  0  0
   27.0102  -20.5622  -13.2289 C   0  0  0  0  0  0  0  0  0  0  0  0
   26.4836  -21.6470  -13.6201 O   0  0  0  0  0  0  0  0  0  0  0  0
   25.6991  -21.5219   -7.4795 C   0  0  0  0  0  0  0  0  0  0  0  0
   25.0725  -20.8377   -8.6090 C   0  0  0  0  0  0  0  0  0  0  0  0
   25.7981  -20.2614   -9.7257 C   0  0  2  0  0  0  0  0  0  0  0  0
   25.9221  -18.7337   -9.6634 C   0  0  0  0  0  0  0  0  0  0  0  0
   25.5712  -20.7057  -11.1326 C   0  0  2  0  0  0  0  0  0  0  0  0
   26.6078  -20.0706  -11.9958 N   0  0  0  0  0  0  0  0  0  0  0  0
   24.2486  -20.3931  -11.6465 C   0  0  0  0  0  0  0  0  0  0  0  0
   23.9299  -19.2261  -11.9428 O   0  0  0  0  0  0  0  0  0  0  0  0
   20.4213  -21.3741  -14.3901 C   0  0  0  0  0  0  0  0  0  0  0  0
   21.7026  -21.7588  -13.7327 C   0  0  1  0  0  0  0  0  0  0  0  0
   22.8402  -21.4913  -14.6944 C   0  0  0  0  0  0  0  0  0  0  0  0
   22.0043  -21.0052  -12.4658 C   0  0  2  0  0  0  0  0  0  0  0  0
   23.2303  -21.3972  -11.8455 N   0  0  0  0  0  0  0  0  0  0  0  0
   20.8811  -21.2146  -11.4805 C   0  0  0  0  0  0  0  0  0  0  0  0
   20.9988  -22.0090  -10.5169 O   0  0  0  0  0  0  0  0  0  0  0  0
   19.6802  -20.5297  -11.6151 O   0  0  0  0  0  0  0  0  0  0  0  0
  1  5  1  0
  2  3  1  0
  2  1  1  0
  3  4  1  0
  4  5  1  0
  5  6  1  6
  6  7  2  0
  8  9  1  0
  9 10  1  0
 10 12  1  0
 10 11  1  6
 12 14  1  0
 12 13  1  6
 13  6  1  0
 14 15  2  0
 14 20  1  0
 17 19  1  0
 17 16  1  6
 18 17  1  0
 19 21  1  0
 19 20  1  1
 21 22  2  0
 21 23  1  0
M  END
$$$$
