PIV.pdb
     RDKit          3D

 23 23  0  0  1  0  0  0  0  0999 V2000
   21.0207  -17.2586  -16.8177 N   0  0  0  0  0  0  0  0  0  0  0  0
   22.2273  -17.9172  -16.4277 C   0  0  0  0  0  0  0  0  0  0  0  0
   22.2076  -17.9349  -14.9213 C   0  0  0  0  0  0  0  0  0  0  0  0
   21.5500  -16.5794  -14.6264 C   0  0  0  0  0  0  0  0  0  0  0  0
   20.6512  -16.3334  -15.7650 C   0  0  1  0  0  0  0  0  0  0  0  0
   20.5668  -14.9432  -16.2387 C   0  0  0  0  0  0  0  0  0  0  0  0
   21.3436  -14.6245  -17.1884 O   0  0  0  0  0  0  0  0  0  0  0  0
   16.1524  -13.2071  -17.9997 C   0  0  0  0  0  0  0  0  0  0  0  0
   17.5949  -13.1341  -17.7751 C   0  0  0  0  0  0  0  0  0  0  0  0
   18.2261  -12.3372  -16.7396 C   0  0  2  0  0  0  0  0  0  0  0  0
   17.9525  -10.8327  -16.8609 C   0  0  0  0  0  0  0  0  0  0  0  0
   19.6341  -12.5743  -16.3045 C   0  0  2  0  0  0  0  0  0  0  0  0
   19.7249  -13.9552  -15.7495 N   0  0  0  0  0  0  0  0  0  0  0  0
   20.1193  -11.6199  -15.3224 C   0  0  0  0  0  0  0  0  0  0  0  0
   19.6009  -11.5350  -14.1930 O   0  0  0  0  0  0  0  0  0  0  0  0
   23.7104  -11.4118  -14.0285 C   0  0  0  0  0  0  0  0  0  0  0  0
   23.2157  -10.0387  -14.3313 C   0  0  1  0  0  0  0  0  0  0  0  0
   23.8470   -9.5704  -15.6247 C   0  0  0  0  0  0  0  0  0  0  0  0
   21.7241   -9.9366  -14.5016 C   0  0  2  0  0  0  0  0  0  0  0  0
   21.2174  -10.7196  -15.5840 N   0  0  0  0  0  0  0  0  0  0  0  0
   21.3458   -8.4950  -14.7356 C   0  0  0  0  0  0  0  0  0  0  0  0
   21.0560   -8.0747  -15.8814 O   0  0  0  0  0  0  0  0  0  0  0  0
   21.3081   -7.5898  -13.6826 O   0  0  0  0  0  0  0  0  0  0  0  0
  1  5  1  0
  2  3  1  0
  2  1  1  0
  3  4  1  0
  4  5  1  0
  5  6  1  6
  6  7  2  0
  8  9  1  0
  9 10  1  0
 10 12  1  0
 10 11  1  6
 12 14  1  0
 12 13  1  1
 13  6  1  0
 14 15  2  0
 14 20  1  0
 17 19  1  0
 17 16  1  6
 18 17  1  0
 19 21  1  0
 19 20  1  6
 21 22  2  0
 21 23  1  0
M  END
$$$$
