PIV.pdb
     RDKit          3D

 23 23  0  0  1  0  0  0  0  0999 V2000
   28.3002  -19.2181  -17.1789 N   0  0  0  0  0  0  0  0  0  0  0  0
   27.7184  -18.4311  -18.2200 C   0  0  0  0  0  0  0  0  0  0  0  0
   27.5849  -17.0433  -17.6489 C   0  0  0  0  0  0  0  0  0  0  0  0
   27.2369  -17.3654  -16.1889 C   0  0  0  0  0  0  0  0  0  0  0  0
   27.9103  -18.6429  -15.9069 C   0  0  1  0  0  0  0  0  0  0  0  0
   27.1740  -19.5933  -15.0592 C   0  0  0  0  0  0  0  0  0  0  0  0
   26.4774  -20.4631  -15.6634 O   0  0  0  0  0  0  0  0  0  0  0  0
   29.3513  -21.1019  -10.3309 C   0  0  0  0  0  0  0  0  0  0  0  0
   28.5210  -21.1574  -11.5325 C   0  0  0  0  0  0  0  0  0  0  0  0
   27.1092  -20.8240  -11.5719 C   0  0  2  0  0  0  0  0  0  0  0  0
   26.2480  -21.6556  -10.6129 C   0  0  0  0  0  0  0  0  0  0  0  0
   26.3836  -20.5985  -12.8568 C   0  0  2  0  0  0  0  0  0  0  0  0
   27.1689  -19.6285  -13.6725 N   0  0  0  0  0  0  0  0  0  0  0  0
   25.0248  -20.1112  -12.6920 C   0  0  0  0  0  0  0  0  0  0  0  0
   24.7901  -19.0376  -12.1057 O   0  0  0  0  0  0  0  0  0  0  0  0
   20.5923  -19.3864  -14.4258 C   0  0  0  0  0  0  0  0  0  0  0  0
   21.9158  -20.0711  -14.4636 C   0  0  1  0  0  0  0  0  0  0  0  0
   22.8394  -19.2907  -15.3737 C   0  0  0  0  0  0  0  0  0  0  0  0
   22.5983  -20.1833  -13.1272 C   0  0  2  0  0  0  0  0  0  0  0  0
   23.8727  -20.8262  -13.1883 N   0  0  0  0  0  0  0  0  0  0  0  0
   21.7163  -20.9581  -12.1796 C   0  0  0  0  0  0  0  0  0  0  0  0
   20.7532  -20.4111  -11.5909 O   0  0  0  0  0  0  0  0  0  0  0  0
   21.9486  -22.3051  -11.9326 O   0  0  0  0  0  0  0  0  0  0  0  0
  1  5  1  0
  2  3  1  0
  2  1  1  0
  3  4  1  0
  4  5  1  0
  5  6  1  6
  6  7  2  0
  8  9  1  0
  9 10  1  0
 10 12  1  0
 10 11  1  6
 12 14  1  0
 12 13  1  6
 13  6  1  0
 14 15  2  0
 14 20  1  0
 17 19  1  0
 17 16  1  1
 18 17  1  0
 19 21  1  0
 19 20  1  6
 21 22  2  0
 21 23  1  0
M  END
$$$$
