PIV.pdb
     RDKit          3D

 23 23  0  0  1  0  0  0  0  0999 V2000
   28.6409  -21.2611  -16.1903 N   0  0  0  0  0  0  0  0  0  0  0  0
   28.4456  -20.8616  -17.5483 C   0  0  0  0  0  0  0  0  0  0  0  0
   28.3491  -19.3584  -17.5158 C   0  0  0  0  0  0  0  0  0  0  0  0
   27.6055  -19.1465  -16.1896 C   0  0  0  0  0  0  0  0  0  0  0  0
   28.0184  -20.2706  -15.3347 C   0  0  1  0  0  0  0  0  0  0  0  0
   26.9775  -20.8461  -14.4690 C   0  0  0  0  0  0  0  0  0  0  0  0
   26.4657  -21.9395  -14.8555 O   0  0  0  0  0  0  0  0  0  0  0  0
   25.3389  -21.0354   -8.4830 C   0  0  0  0  0  0  0  0  0  0  0  0
   25.0565  -21.2686   -9.8980 C   0  0  0  0  0  0  0  0  0  0  0  0
   25.8414  -20.7285  -10.9925 C   0  0  2  0  0  0  0  0  0  0  0  0
   26.2895  -19.2772  -10.7780 C   0  0  0  0  0  0  0  0  0  0  0  0
   25.4676  -20.9496  -12.4207 C   0  0  2  0  0  0  0  0  0  0  0  0
   26.5059  -20.3110  -13.2792 N   0  0  0  0  0  0  0  0  0  0  0  0
   24.1559  -20.4359  -12.7760 C   0  0  0  0  0  0  0  0  0  0  0  0
   23.9526  -19.2132  -12.8995 O   0  0  0  0  0  0  0  0  0  0  0  0
   22.3017  -20.9218  -15.9343 C   0  0  0  0  0  0  0  0  0  0  0  0
   21.3605  -21.2153  -14.8163 C   0  0  1  0  0  0  0  0  0  0  0  0
   21.2101  -22.7160  -14.6907 C   0  0  0  0  0  0  0  0  0  0  0  0
   21.8053  -20.6988  -13.4748 C   0  0  2  0  0  0  0  0  0  0  0  0
   23.0172  -21.2932  -13.0065 N   0  0  0  0  0  0  0  0  0  0  0  0
   20.7218  -20.9552  -12.4567 C   0  0  0  0  0  0  0  0  0  0  0  0
   20.8345  -21.8643  -11.5997 O   0  0  0  0  0  0  0  0  0  0  0  0
   19.5644  -20.1874  -12.4413 O   0  0  0  0  0  0  0  0  0  0  0  0
  1  5  1  0
  2  3  1  0
  2  1  1  0
  3  4  1  0
  4  5  1  0
  5  6  1  6
  6  7  2  0
  8  9  1  0
  9 10  1  0
 10 12  1  0
 10 11  1  1
 12 14  1  0
 12 13  1  6
 13  6  1  0
 14 15  2  0
 14 20  1  0
 17 19  1  0
 17 16  1  6
 18 17  1  0
 19 21  1  0
 19 20  1  1
 21 22  2  0
 21 23  1  0
M  END
$$$$
