PIV.pdb
     RDKit          3D

 23 23  0  0  1  0  0  0  0  0999 V2000
   19.9975  -20.5138  -13.7736 N   0  0  0  0  0  0  0  0  0  0  0  0
   19.4664  -20.6327  -15.0948 C   0  0  0  0  0  0  0  0  0  0  0  0
   19.8028  -22.0325  -15.5394 C   0  0  0  0  0  0  0  0  0  0  0  0
   21.1799  -22.2183  -14.8870 C   0  0  0  0  0  0  0  0  0  0  0  0
   21.1386  -21.4007  -13.6644 C   0  0  1  0  0  0  0  0  0  0  0  0
   22.3772  -20.6873  -13.3166 C   0  0  0  0  0  0  0  0  0  0  0  0
   22.4455  -19.4726  -13.6726 O   0  0  0  0  0  0  0  0  0  0  0  0
   26.0160  -19.9617   -8.7534 C   0  0  0  0  0  0  0  0  0  0  0  0
   26.1710  -20.2313  -10.1815 C   0  0  0  0  0  0  0  0  0  0  0  0
   25.2153  -20.9685  -10.9871 C   0  0  2  0  0  0  0  0  0  0  0  0
   25.5365  -22.4626  -11.1189 C   0  0  0  0  0  0  0  0  0  0  0  0
   24.6891  -20.4357  -12.2784 C   0  0  2  0  0  0  0  0  0  0  0  0
   23.4693  -21.2125  -12.6414 N   0  0  0  0  0  0  0  0  0  0  0  0
   25.6437  -20.4852  -13.3726 C   0  0  0  0  0  0  0  0  0  0  0  0
   25.8479  -21.5389  -14.0046 O   0  0  0  0  0  0  0  0  0  0  0  0
   28.5867  -18.2197  -16.6889 C   0  0  0  0  0  0  0  0  0  0  0  0
   27.7493  -18.1280  -15.4591 C   0  0  1  0  0  0  0  0  0  0  0  0
   26.5738  -17.2172  -15.7402 C   0  0  0  0  0  0  0  0  0  0  0  0
   27.1906  -19.4425  -14.9857 C   0  0  2  0  0  0  0  0  0  0  0  0
   26.4082  -19.3355  -13.7951 N   0  0  0  0  0  0  0  0  0  0  0  0
   28.3248  -20.4035  -14.7284 C   0  0  0  0  0  0  0  0  0  0  0  0
   28.9223  -20.4264  -13.6257 O   0  0  0  0  0  0  0  0  0  0  0  0
   28.7398  -21.2932  -15.7110 O   0  0  0  0  0  0  0  0  0  0  0  0
  1  5  1  0
  2  3  1  0
  2  1  1  0
  3  4  1  0
  4  5  1  0
  5  6  1  6
  6  7  2  0
  8  9  1  0
  9 10  1  0
 10 12  1  0
 10 11  1  6
 12 14  1  0
 12 13  1  6
 13  6  1  0
 14 15  2  0
 14 20  1  0
 17 19  1  0
 17 16  1  6
 18 17  1  0
 19 21  1  0
 19 20  1  1
 21 22  2  0
 21 23  1  0
M  END
$$$$
