PIV.pdb
     RDKit          3D

 23 23  0  0  1  0  0  0  0  0999 V2000
   26.8280  -20.4691  -14.3641 N   0  0  0  0  0  0  0  0  0  0  0  0
   27.9209  -20.0677  -15.1925 C   0  0  0  0  0  0  0  0  0  0  0  0
   29.0399  -21.0253  -14.8746 C   0  0  0  0  0  0  0  0  0  0  0  0
   28.8199  -21.2353  -13.3699 C   0  0  0  0  0  0  0  0  0  0  0  0
   27.3699  -21.0860  -13.1698 C   0  0  1  0  0  0  0  0  0  0  0  0
   26.9503  -20.3984  -11.9388 C   0  0  0  0  0  0  0  0  0  0  0  0
   26.8309  -19.1385  -12.0112 O   0  0  0  0  0  0  0  0  0  0  0  0
   22.2775  -20.5384  -10.4936 C   0  0  0  0  0  0  0  0  0  0  0  0
   23.7013  -20.2081  -10.4965 C   0  0  0  0  0  0  0  0  0  0  0  0
   24.6405  -20.6112   -9.4664 C   0  0  2  0  0  0  0  0  0  0  0  0
   24.1218  -20.4037   -8.0378 C   0  0  0  0  0  0  0  0  0  0  0  0
   26.0933  -20.2773   -9.5437 C   0  0  2  0  0  0  0  0  0  0  0  0
   26.6749  -20.9921  -10.7157 N   0  0  0  0  0  0  0  0  0  0  0  0
   26.8429  -20.6130   -8.3452 C   0  0  0  0  0  0  0  0  0  0  0  0
   27.0494  -21.7984   -8.0232 O   0  0  0  0  0  0  0  0  0  0  0  0
   28.6546  -17.7629   -5.4020 C   0  0  0  0  0  0  0  0  0  0  0  0
   29.2211  -19.0369   -5.9292 C   0  0  1  0  0  0  0  0  0  0  0  0
   30.0545  -19.6826   -4.8434 C   0  0  0  0  0  0  0  0  0  0  0  0
   28.1916  -20.0463   -6.3596 C   0  0  2  0  0  0  0  0  0  0  0  0
   27.3905  -19.6122   -7.4601 N   0  0  0  0  0  0  0  0  0  0  0  0
   27.2808  -20.3571   -5.1977 C   0  0  0  0  0  0  0  0  0  0  0  0
   26.0945  -19.9502   -5.1724 O   0  0  0  0  0  0  0  0  0  0  0  0
   27.7341  -21.1060   -4.1193 O   0  0  0  0  0  0  0  0  0  0  0  0
  1  5  1  0
  2  3  1  0
  2  1  1  0
  3  4  1  0
  4  5  1  0
  5  6  1  1
  6  7  2  0
  8  9  1  0
  9 10  1  0
 10 12  1  0
 10 11  1  1
 12 14  1  0
 12 13  1  6
 13  6  1  0
 14 15  2  0
 14 20  1  0
 17 19  1  0
 17 16  1  1
 18 17  1  0
 19 21  1  0
 19 20  1  6
 21 22  2  0
 21 23  1  0
M  END
$$$$
