PIV.pdb
     RDKit          3D

 23 23  0  0  1  0  0  0  0  0999 V2000
   21.1451  -13.9662  -19.3690 N   0  0  0  0  0  0  0  0  0  0  0  0
   20.1435  -14.9220  -19.7228 C   0  0  0  0  0  0  0  0  0  0  0  0
   19.1796  -14.1835  -20.6148 C   0  0  0  0  0  0  0  0  0  0  0  0
   19.1918  -12.7936  -19.9631 C   0  0  0  0  0  0  0  0  0  0  0  0
   20.5405  -12.6492  -19.3930 C   0  0  1  0  0  0  0  0  0  0  0  0
   20.6279  -11.9637  -18.0944 C   0  0  0  0  0  0  0  0  0  0  0  0
   19.6918  -12.1958  -17.2718 O   0  0  0  0  0  0  0  0  0  0  0  0
   24.7987  -12.2647  -14.9742 C   0  0  0  0  0  0  0  0  0  0  0  0
   23.4785  -11.9634  -15.5243 C   0  0  0  0  0  0  0  0  0  0  0  0
   22.9566  -10.6239  -15.7218 C   0  0  2  0  0  0  0  0  0  0  0  0
   23.1240   -9.7067  -14.5037 C   0  0  0  0  0  0  0  0  0  0  0  0
   21.6406  -10.3749  -16.3809 C   0  0  2  0  0  0  0  0  0  0  0  0
   21.6290  -11.0942  -17.6868 N   0  0  0  0  0  0  0  0  0  0  0  0
   21.3415   -8.9692  -16.5944 C   0  0  0  0  0  0  0  0  0  0  0  0
   22.0160   -8.2774  -17.3804 O   0  0  0  0  0  0  0  0  0  0  0  0
   18.4218   -5.1273  -16.9144 C   0  0  0  0  0  0  0  0  0  0  0  0
   18.6594   -6.5731  -16.6406 C   0  0  1  0  0  0  0  0  0  0  0  0
   18.3996   -7.3557  -17.9098 C   0  0  0  0  0  0  0  0  0  0  0  0
   20.0582   -6.9016  -16.1938 C   0  0  2  0  0  0  0  0  0  0  0  0
   20.2602   -8.2895  -15.9211 N   0  0  0  0  0  0  0  0  0  0  0  0
   20.3812   -6.1168  -14.9464 C   0  0  0  0  0  0  0  0  0  0  0  0
   20.0954   -6.5569  -13.8070 O   0  0  0  0  0  0  0  0  0  0  0  0
   21.0069   -4.8793  -15.0269 O   0  0  0  0  0  0  0  0  0  0  0  0
  1  5  1  0
  2  3  1  0
  2  1  1  0
  3  4  1  0
  4  5  1  0
  5  6  1  1
  6  7  2  0
  8  9  1  0
  9 10  1  0
 10 12  1  0
 10 11  1  1
 12 14  1  0
 12 13  1  6
 13  6  1  0
 14 15  2  0
 14 20  1  0
 17 19  1  0
 17 16  1  6
 18 17  1  0
 19 21  1  0
 19 20  1  1
 21 22  2  0
 21 23  1  0
M  END
$$$$
