PIV.pdb
     RDKit          3D

 23 23  0  0  1  0  0  0  0  0999 V2000
   28.7965  -20.7334  -15.2566 N   0  0  0  0  0  0  0  0  0  0  0  0
   28.6501  -20.2181  -16.5813 C   0  0  0  0  0  0  0  0  0  0  0  0
   28.5003  -18.7276  -16.4192 C   0  0  0  0  0  0  0  0  0  0  0  0
   27.6898  -18.6600  -15.1173 C   0  0  0  0  0  0  0  0  0  0  0  0
   28.1015  -19.8442  -14.3472 C   0  0  1  0  0  0  0  0  0  0  0  0
   27.0424  -20.5274  -13.5884 C   0  0  0  0  0  0  0  0  0  0  0  0
   26.5438  -21.5618  -14.1254 O   0  0  0  0  0  0  0  0  0  0  0  0
   26.9765  -20.2765   -8.1249 C   0  0  0  0  0  0  0  0  0  0  0  0
   26.6996  -20.7993   -9.4615 C   0  0  0  0  0  0  0  0  0  0  0  0
   25.4849  -20.5374  -10.2109 C   0  0  2  0  0  0  0  0  0  0  0  0
   24.2052  -20.9912   -9.4972 C   0  0  0  0  0  0  0  0  0  0  0  0
   25.3839  -20.8055  -11.6759 C   0  0  2  0  0  0  0  0  0  0  0  0
   26.5410  -20.1510  -12.3511 N   0  0  0  0  0  0  0  0  0  0  0  0
   24.1435  -20.3472  -12.2778 C   0  0  0  0  0  0  0  0  0  0  0  0
   23.9006  -19.1329  -12.4120 O   0  0  0  0  0  0  0  0  0  0  0  0
   22.7919  -20.9306  -15.7345 C   0  0  0  0  0  0  0  0  0  0  0  0
   21.7054  -21.2217  -14.7563 C   0  0  1  0  0  0  0  0  0  0  0  0
   21.5412  -22.7222  -14.6468 C   0  0  0  0  0  0  0  0  0  0  0  0
   21.9596  -20.6994  -13.3683 C   0  0  2  0  0  0  0  0  0  0  0  0
   23.1246  -21.2528  -12.7536 N   0  0  0  0  0  0  0  0  0  0  0  0
   20.7676  -21.0026  -12.4946 C   0  0  0  0  0  0  0  0  0  0  0  0
   20.8052  -21.9147  -11.6342 O   0  0  0  0  0  0  0  0  0  0  0  0
   19.5906  -20.2760  -12.6204 O   0  0  0  0  0  0  0  0  0  0  0  0
  1  5  1  0
  2  3  1  0
  2  1  1  0
  3  4  1  0
  4  5  1  0
  5  6  1  6
  6  7  2  0
  8  9  1  0
  9 10  1  0
 10 12  1  0
 10 11  1  1
 12 14  1  0
 12 13  1  6
 13  6  1  0
 14 15  2  0
 14 20  1  0
 17 19  1  0
 17 16  1  6
 18 17  1  0
 19 21  1  0
 19 20  1  1
 21 22  2  0
 21 23  1  0
M  END
$$$$
