LYG.pdb
     RDKit          3D

 25 25  0  0  1  0  0  0  0  0999 V2000
    8.4254  -15.2685   16.4757 C   0  0  0  0  0  0  0  0  0  0  0  0
    8.0895  -14.4061   17.6432 C   0  0  2  0  0  0  0  0  0  0  0  0
    7.7085  -13.0143   17.1376 C   0  0  0  0  0  0  0  0  0  0  0  0
    9.2316  -14.2194   18.6122 C   0  0  0  0  0  0  0  0  0  0  0  0
    9.4046  -15.3778   19.5472 C   0  0  2  0  0  0  0  0  0  0  0  0
    8.3589  -16.3532   19.4532 N   0  0  0  0  0  0  0  0  0  0  0  0
    9.4227  -14.8400   20.9329 C   0  0  0  0  0  0  0  0  0  0  0  0
   10.2243  -13.9033   21.2673 O   0  0  0  0  0  0  0  0  0  0  0  0
    6.5596  -11.6364   28.5886 O   0  0  0  0  0  0  0  0  0  0  0  0
    6.7045  -12.3096   27.3820 C   0  0  0  0  0  0  0  0  0  0  0  0
    7.3629  -11.7316   26.3254 C   0  0  0  0  0  0  0  0  0  0  0  0
    7.5143  -12.4008   25.1063 C   0  0  0  0  0  0  0  0  0  0  0  0
    7.0068  -13.6648   24.9236 C   0  0  0  0  0  0  0  0  0  0  0  0
    7.1391  -14.4087   23.6489 C   0  0  0  0  0  0  0  0  0  0  0  0
    8.5615  -14.7115   23.2686 C   0  0  2  0  0  0  0  0  0  0  0  0
    8.5711  -15.3200   21.9521 N   0  0  0  0  0  0  0  0  0  0  0  0
    9.2489  -15.5741   24.2560 C   0  0  0  0  0  0  0  0  0  0  0  0
    9.3214  -15.2850   25.4709 O   0  0  0  0  0  0  0  0  0  0  0  0
    6.3417  -14.2404   26.0012 C   0  0  0  0  0  0  0  0  0  0  0  0
    6.1928  -13.5814   27.2016 C   0  0  0  0  0  0  0  0  0  0  0  0
    9.8572  -16.7889   23.8095 N   0  0  0  0  0  0  0  0  0  0  0  0
   10.3753  -17.7696   24.7182 C   0  0  0  0  0  0  0  0  0  0  0  0
   11.8351  -17.7217   24.8232 C   0  0  0  0  0  0  0  0  0  0  0  0
   12.5535  -16.7686   24.1213 O   0  0  0  0  0  0  0  0  0  0  0  0
   12.4520  -18.5357   25.5438 O   0  0  0  0  0  0  0  0  0  0  0  0
  2  1  1  6
  2  3  1  0
  4  5  1  0
  4  2  1  0
  5  7  1  0
  5  6  1  1
  7  8  2  0
  9 10  1  0
 10 11  2  0
 10 20  1  0
 11 12  1  0
 12 13  2  0
 13 14  1  0
 15 14  1  1
 16  7  1  0
 16 15  1  0
 17 15  1  0
 17 18  2  0
 19 13  1  0
 20 19  2  0
 21 22  1  0
 21 17  1  0
 23 22  1  0
 24 23  1  0
 25 23  2  0
M  END
$$$$
