LYG.pdb
     RDKit          3D

 25 25  0  0  1  0  0  0  0  0999 V2000
    7.9909  -18.1222   15.5206 C   0  0  0  0  0  0  0  0  0  0  0  0
    8.8688  -18.6577   16.5986 C   0  0  2  0  0  0  0  0  0  0  0  0
    8.0540  -19.6119   17.4726 C   0  0  0  0  0  0  0  0  0  0  0  0
    9.4254  -17.5959   17.5157 C   0  0  0  0  0  0  0  0  0  0  0  0
   10.3819  -18.1402   18.5329 C   0  0  2  0  0  0  0  0  0  0  0  0
    9.7411  -18.8352   19.6100 N   0  0  0  0  0  0  0  0  0  0  0  0
   11.1398  -16.9933   19.0983 C   0  0  0  0  0  0  0  0  0  0  0  0
   11.8941  -16.2725   18.3613 O   0  0  0  0  0  0  0  0  0  0  0  0
    6.6647  -12.7384   17.8680 O   0  0  0  0  0  0  0  0  0  0  0  0
    7.6180  -13.1865   18.7739 C   0  0  0  0  0  0  0  0  0  0  0  0
    7.2583  -13.9431   19.8612 C   0  0  0  0  0  0  0  0  0  0  0  0
    8.2102  -14.3992   20.7792 C   0  0  0  0  0  0  0  0  0  0  0  0
    9.5433  -14.1043   20.6237 C   0  0  0  0  0  0  0  0  0  0  0  0
   10.5849  -14.5618   21.5733 C   0  0  0  0  0  0  0  0  0  0  0  0
   11.6636  -15.3923   20.9359 C   0  0  2  0  0  0  0  0  0  0  0  0
   11.0772  -16.6313   20.4619 N   0  0  0  0  0  0  0  0  0  0  0  0
   12.7985  -15.6582   21.8483 C   0  0  0  0  0  0  0  0  0  0  0  0
   13.4900  -14.7447   22.3505 O   0  0  0  0  0  0  0  0  0  0  0  0
    9.8960  -13.3371   19.5184 C   0  0  0  0  0  0  0  0  0  0  0  0
    8.9585  -12.8881   18.6144 C   0  0  0  0  0  0  0  0  0  0  0  0
   13.1232  -17.0126   22.1732 N   0  0  0  0  0  0  0  0  0  0  0  0
   14.1416  -17.3532   23.1235 C   0  0  0  0  0  0  0  0  0  0  0  0
   14.2053  -18.7925   23.3861 C   0  0  0  0  0  0  0  0  0  0  0  0
   15.0499  -19.2854   24.3663 O   0  0  0  0  0  0  0  0  0  0  0  0
   13.5023  -19.5938   22.7334 O   0  0  0  0  0  0  0  0  0  0  0  0
  2  1  1  6
  2  3  1  0
  4  5  1  0
  4  2  1  0
  5  7  1  0
  5  6  1  1
  7  8  2  0
  9 10  1  0
 10 11  2  0
 10 20  1  0
 11 12  1  0
 12 13  2  0
 13 14  1  0
 15 14  1  1
 16  7  1  0
 16 15  1  0
 17 15  1  0
 17 18  2  0
 19 13  1  0
 20 19  2  0
 21 22  1  0
 21 17  1  0
 23 22  1  0
 24 23  1  0
 25 23  2  0
M  END
$$$$
