LYG.pdb
     RDKit          3D

 25 25  0  0  1  0  0  0  0  0999 V2000
    8.4872  -14.1463   18.5865 C   0  0  0  0  0  0  0  0  0  0  0  0
    7.6798  -13.7048   19.7582 C   0  0  2  0  0  0  0  0  0  0  0  0
    7.3328  -12.2250   19.5913 C   0  0  0  0  0  0  0  0  0  0  0  0
    8.3987  -13.8368   21.0788 C   0  0  0  0  0  0  0  0  0  0  0  0
    8.7769  -15.2502   21.4036 C   0  0  2  0  0  0  0  0  0  0  0  0
    7.6699  -16.1601   21.3843 N   0  0  0  0  0  0  0  0  0  0  0  0
    9.3673  -15.2569   22.7677 C   0  0  0  0  0  0  0  0  0  0  0  0
   10.3380  -14.4839   23.0710 O   0  0  0  0  0  0  0  0  0  0  0  0
    6.0295  -10.7591   26.6111 O   0  0  0  0  0  0  0  0  0  0  0  0
    6.5809  -12.0285   26.4886 C   0  0  0  0  0  0  0  0  0  0  0  0
    5.8091  -13.1007   26.1159 C   0  0  0  0  0  0  0  0  0  0  0  0
    6.3543  -14.3827   25.9896 C   0  0  0  0  0  0  0  0  0  0  0  0
    7.6864  -14.6140   26.2354 C   0  0  0  0  0  0  0  0  0  0  0  0
    8.3053  -15.9554   26.1191 C   0  0  0  0  0  0  0  0  0  0  0  0
    9.4456  -16.0141   25.1414 C   0  0  2  0  0  0  0  0  0  0  0  0
    8.9030  -16.1023   23.7993 N   0  0  0  0  0  0  0  0  0  0  0  0
   10.3765  -17.1330   25.4111 C   0  0  0  0  0  0  0  0  0  0  0  0
   10.8999  -17.3213   26.5316 O   0  0  0  0  0  0  0  0  0  0  0  0
    8.4586  -13.5201   26.6123 C   0  0  0  0  0  0  0  0  0  0  0  0
    7.9216  -12.2576   26.7365 C   0  0  0  0  0  0  0  0  0  0  0  0
   10.6948  -18.0396   24.3519 N   0  0  0  0  0  0  0  0  0  0  0  0
   11.5654  -19.1639   24.5367 C   0  0  0  0  0  0  0  0  0  0  0  0
   11.7840  -19.9140   23.2981 C   0  0  0  0  0  0  0  0  0  0  0  0
   12.5351  -21.0770   23.3108 O   0  0  0  0  0  0  0  0  0  0  0  0
   11.2987  -19.5184   22.2163 O   0  0  0  0  0  0  0  0  0  0  0  0
  2  1  1  6
  2  3  1  0
  4  5  1  0
  4  2  1  0
  5  7  1  0
  5  6  1  1
  7  8  2  0
  9 10  1  0
 10 11  2  0
 10 20  1  0
 11 12  1  0
 12 13  2  0
 13 14  1  0
 15 14  1  1
 16  7  1  0
 16 15  1  0
 17 15  1  0
 17 18  2  0
 19 13  1  0
 20 19  2  0
 21 22  1  0
 21 17  1  0
 23 22  1  0
 24 23  1  0
 25 23  2  0
M  END
$$$$
