LYG.pdb
     RDKit          3D

 25 25  0  0  1  0  0  0  0  0999 V2000
    8.5819  -14.5127   18.4928 C   0  0  0  0  0  0  0  0  0  0  0  0
    7.8596  -13.8639   19.6228 C   0  0  2  0  0  0  0  0  0  0  0  0
    7.7222  -12.3694   19.3299 C   0  0  0  0  0  0  0  0  0  0  0  0
    8.5694  -13.9837   20.9495 C   0  0  0  0  0  0  0  0  0  0  0  0
    8.7107  -15.4013   21.4147 C   0  0  2  0  0  0  0  0  0  0  0  0
    7.4692  -16.1154   21.4666 N   0  0  0  0  0  0  0  0  0  0  0  0
    9.2933  -15.3714   22.7818 C   0  0  0  0  0  0  0  0  0  0  0  0
   10.3462  -14.6943   23.0363 O   0  0  0  0  0  0  0  0  0  0  0  0
    5.7144  -10.7703   26.3360 O   0  0  0  0  0  0  0  0  0  0  0  0
    6.3277  -12.0166   26.3070 C   0  0  0  0  0  0  0  0  0  0  0  0
    7.6204  -12.1779   26.7395 C   0  0  0  0  0  0  0  0  0  0  0  0
    8.2471  -13.4282   26.7145 C   0  0  0  0  0  0  0  0  0  0  0  0
    7.5878  -14.5426   26.2542 C   0  0  0  0  0  0  0  0  0  0  0  0
    8.2135  -15.8850   26.2050 C   0  0  0  0  0  0  0  0  0  0  0  0
    9.3193  -16.0016   25.1935 C   0  0  2  0  0  0  0  0  0  0  0  0
    8.7321  -16.0760   23.8694 N   0  0  0  0  0  0  0  0  0  0  0  0
   10.2080  -17.1585   25.4448 C   0  0  0  0  0  0  0  0  0  0  0  0
   10.7120  -17.3924   26.5655 O   0  0  0  0  0  0  0  0  0  0  0  0
    6.2785  -14.3672   25.8186 C   0  0  0  0  0  0  0  0  0  0  0  0
    5.6614  -13.1358   25.8433 C   0  0  0  0  0  0  0  0  0  0  0  0
   10.5068  -18.0493   24.3666 N   0  0  0  0  0  0  0  0  0  0  0  0
   11.3341  -19.2086   24.5327 C   0  0  0  0  0  0  0  0  0  0  0  0
   12.7234  -18.9681   24.1372 C   0  0  0  0  0  0  0  0  0  0  0  0
   13.5863  -20.0327   23.9401 O   0  0  0  0  0  0  0  0  0  0  0  0
   13.1495  -17.8046   23.9724 O   0  0  0  0  0  0  0  0  0  0  0  0
  2  1  1  6
  2  3  1  0
  4  5  1  0
  4  2  1  0
  5  7  1  0
  5  6  1  1
  7  8  2  0
  9 10  1  0
 10 11  2  0
 10 20  1  0
 11 12  1  0
 12 13  2  0
 13 14  1  0
 15 14  1  1
 16  7  1  0
 16 15  1  0
 17 15  1  0
 17 18  2  0
 19 13  1  0
 20 19  2  0
 21 22  1  0
 21 17  1  0
 23 22  1  0
 24 23  1  0
 25 23  2  0
M  END
$$$$
