LYG.pdb
     RDKit          3D

 25 25  0  0  1  0  0  0  0  0999 V2000
    8.3199  -15.2613   16.6480 C   0  0  0  0  0  0  0  0  0  0  0  0
    8.0887  -14.2163   17.6844 C   0  0  2  0  0  0  0  0  0  0  0  0
    7.9730  -12.8549   16.9977 C   0  0  0  0  0  0  0  0  0  0  0  0
    9.2050  -14.1008   18.6938 C   0  0  0  0  0  0  0  0  0  0  0  0
    9.3147  -15.2981   19.5884 C   0  0  2  0  0  0  0  0  0  0  0  0
    8.2177  -16.2117   19.4628 N   0  0  0  0  0  0  0  0  0  0  0  0
    9.3615  -14.8098   20.9916 C   0  0  0  0  0  0  0  0  0  0  0  0
   10.2825  -14.0166   21.3844 O   0  0  0  0  0  0  0  0  0  0  0  0
    6.5101  -11.6122   28.6767 O   0  0  0  0  0  0  0  0  0  0  0  0
    6.6247  -12.2923   27.4706 C   0  0  0  0  0  0  0  0  0  0  0  0
    6.5544  -13.6623   27.4229 C   0  0  0  0  0  0  0  0  0  0  0  0
    6.6686  -14.3567   26.2139 C   0  0  0  0  0  0  0  0  0  0  0  0
    6.8560  -13.6887   25.0277 C   0  0  0  0  0  0  0  0  0  0  0  0
    6.9870  -14.3829   23.7251 C   0  0  0  0  0  0  0  0  0  0  0  0
    8.4104  -14.5813   23.2845 C   0  0  2  0  0  0  0  0  0  0  0  0
    8.4089  -15.1832   21.9649 N   0  0  0  0  0  0  0  0  0  0  0  0
    9.1985  -15.3952   24.2372 C   0  0  0  0  0  0  0  0  0  0  0  0
    9.3037  -15.1035   25.4491 O   0  0  0  0  0  0  0  0  0  0  0  0
    6.9256  -12.3008   25.0883 C   0  0  0  0  0  0  0  0  0  0  0  0
    6.8130  -11.6171   26.2789 C   0  0  0  0  0  0  0  0  0  0  0  0
    9.8697  -16.5641   23.7593 N   0  0  0  0  0  0  0  0  0  0  0  0
   10.5838  -17.4517   24.6301 C   0  0  0  0  0  0  0  0  0  0  0  0
   12.0357  -17.3475   24.4697 C   0  0  0  0  0  0  0  0  0  0  0  0
   12.5738  -16.4615   23.5518 O   0  0  0  0  0  0  0  0  0  0  0  0
   12.8075  -18.0526   25.1550 O   0  0  0  0  0  0  0  0  0  0  0  0
  2  1  1  6
  2  3  1  0
  4  5  1  0
  4  2  1  0
  5  7  1  0
  5  6  1  1
  7  8  2  0
  9 10  1  0
 10 11  2  0
 10 20  1  0
 11 12  1  0
 12 13  2  0
 13 14  1  0
 15 14  1  1
 16  7  1  0
 16 15  1  0
 17 15  1  0
 17 18  2  0
 19 13  1  0
 20 19  2  0
 21 22  1  0
 21 17  1  0
 23 22  1  0
 24 23  1  0
 25 23  2  0
M  END
$$$$
