LYG.pdb
     RDKit          3D

 25 25  0  0  1  0  0  0  0  0999 V2000
    7.8301  -14.3898   18.3896 C   0  0  0  0  0  0  0  0  0  0  0  0
    7.7097  -13.6408   19.6718 C   0  0  2  0  0  0  0  0  0  0  0  0
    7.6328  -12.1445   19.3660 C   0  0  0  0  0  0  0  0  0  0  0  0
    8.8812  -13.8347   20.6037 C   0  0  0  0  0  0  0  0  0  0  0  0
    9.0221  -15.2470   21.0847 C   0  0  2  0  0  0  0  0  0  0  0  0
    7.8750  -16.0628   20.8160 N   0  0  0  0  0  0  0  0  0  0  0  0
    9.2340  -15.2035   22.5554 C   0  0  0  0  0  0  0  0  0  0  0  0
   10.0502  -14.3731   23.0807 O   0  0  0  0  0  0  0  0  0  0  0  0
    6.3258  -10.4469   27.4253 O   0  0  0  0  0  0  0  0  0  0  0  0
    6.5782  -11.7289   26.9531 C   0  0  0  0  0  0  0  0  0  0  0  0
    7.8286  -12.0865   26.5141 C   0  0  0  0  0  0  0  0  0  0  0  0
    8.0932  -13.3744   26.0368 C   0  0  0  0  0  0  0  0  0  0  0  0
    7.1066  -14.3299   25.9905 C   0  0  0  0  0  0  0  0  0  0  0  0
    7.3402  -15.7044   25.4884 C   0  0  0  0  0  0  0  0  0  0  0  0
    8.7030  -15.9067   24.8872 C   0  0  2  0  0  0  0  0  0  0  0  0
    8.5597  -16.0610   23.4522 N   0  0  0  0  0  0  0  0  0  0  0  0
    9.4248  -17.0580   25.4745 C   0  0  0  0  0  0  0  0  0  0  0  0
    9.7280  -17.1183   26.6865 O   0  0  0  0  0  0  0  0  0  0  0  0
    5.8437  -13.9563   26.4379 C   0  0  0  0  0  0  0  0  0  0  0  0
    5.5832  -12.6879   26.9081 C   0  0  0  0  0  0  0  0  0  0  0  0
    9.7936  -18.1493   24.6270 N   0  0  0  0  0  0  0  0  0  0  0  0
   10.9674  -18.1220   23.8038 C   0  0  0  0  0  0  0  0  0  0  0  0
   12.1641  -18.5726   24.5176 C   0  0  0  0  0  0  0  0  0  0  0  0
   13.3891  -18.6050   23.8732 O   0  0  0  0  0  0  0  0  0  0  0  0
   12.0987  -18.9328   25.7127 O   0  0  0  0  0  0  0  0  0  0  0  0
  2  1  1  6
  2  3  1  0
  4  5  1  0
  4  2  1  0
  5  7  1  0
  5  6  1  1
  7  8  2  0
  9 10  1  0
 10 11  2  0
 10 20  1  0
 11 12  1  0
 12 13  2  0
 13 14  1  0
 15 14  1  1
 16  7  1  0
 16 15  1  0
 17 15  1  0
 17 18  2  0
 19 13  1  0
 20 19  2  0
 21 22  1  0
 21 17  1  0
 23 22  1  0
 24 23  1  0
 25 23  2  0
M  END
$$$$
