IYK.pdb
     RDKit          3D

 30 30  0  0  1  0  0  0  0  0999 V2000
   22.1502  -15.3558  -18.4703 C   0  0  0  0  0  0  0  0  0  0  0  0
   21.6231  -14.0126  -18.8709 C   0  0  0  0  0  0  0  0  0  0  0  0
   21.9110  -12.9654  -17.8169 C   0  0  2  0  0  0  0  0  0  0  0  0
   21.3316  -13.3536  -16.4753 C   0  0  0  0  0  0  0  0  0  0  0  0
   21.3247  -11.6408  -18.2585 C   0  0  2  0  0  0  0  0  0  0  0  0
   21.7940  -11.2694  -19.5570 N   0  0  0  0  0  0  0  0  0  0  0  0
   21.6649  -10.6488  -17.2130 C   0  0  0  0  0  0  0  0  0  0  0  0
   21.3607  -10.8437  -16.0108 O   0  0  0  0  0  0  0  0  0  0  0  0
   27.9722  -12.0214  -16.1105 O   0  0  0  0  0  0  0  0  0  0  0  0
   27.0191  -11.0183  -16.2704 C   0  0  0  0  0  0  0  0  0  0  0  0
   26.4896  -10.3305  -15.2070 C   0  0  0  0  0  0  0  0  0  0  0  0
   25.5481   -9.3417  -15.3809 C   0  0  0  0  0  0  0  0  0  0  0  0
   25.0841   -8.9885  -16.6491 C   0  0  0  0  0  0  0  0  0  0  0  0
   24.0498   -7.9693  -16.7677 C   0  0  0  0  0  0  0  0  0  0  0  0
   22.6609   -8.4713  -16.5232 C   0  0  2  0  0  0  0  0  0  0  0  0
   22.3370   -9.4735  -17.5692 N   0  0  0  0  0  0  0  0  0  0  0  0
   21.6627   -7.4108  -16.6824 C   0  0  0  0  0  0  0  0  0  0  0  0
   20.9581   -7.4106  -17.7516 O   0  0  0  0  0  0  0  0  0  0  0  0
   25.6298   -9.6917  -17.6993 C   0  0  0  0  0  0  0  0  0  0  0  0
   26.5731  -10.6832  -17.5299 C   0  0  0  0  0  0  0  0  0  0  0  0
   21.3817   -6.3707  -15.7606 N   0  0  0  0  0  0  0  0  0  0  0  0
   20.2199   -5.5206  -16.0305 C   0  0  1  0  0  0  0  0  0  0  0  0
   18.9876   -6.4475  -16.1276 C   0  0  0  0  0  0  0  0  0  0  0  0
   18.3177   -6.1987  -17.4310 C   0  0  0  0  0  0  0  0  0  0  0  0
   17.0841   -6.9754  -17.7226 C   0  0  0  0  0  0  0  0  0  0  0  0
   16.4879   -6.6540  -19.0380 C   0  0  0  0  0  0  0  0  0  0  0  0
   15.2567   -7.3330  -19.2730 N   0  0  0  0  0  0  0  0  0  0  0  0
   20.0674   -4.4968  -15.0013 C   0  0  0  0  0  0  0  0  0  0  0  0
   20.5410   -4.7095  -13.8315 O   0  0  0  0  0  0  0  0  0  0  0  0
   19.4459   -3.2666  -15.1549 O   0  0  0  0  0  0  0  0  0  0  0  0
  2  3  1  0
  2  1  1  0
  3  4  1  1
  5  3  1  0
  5  6  1  6
  7  5  1  0
  8  7  2  0
  9 10  1  0
 10 20  2  0
 10 11  1  0
 11 12  2  0
 12 13  1  0
 13 14  1  0
 15 14  1  6
 15 16  1  0
 16  7  1  0
 17 15  1  0
 17 18  2  0
 19 13  2  0
 20 19  1  0
 21 17  1  0
 22 21  1  0
 22 28  1  0
 22 23  1  1
 24 23  1  0
 25 24  1  0
 26 25  1  0
 26 27  1  0
 28 29  2  0
 28 30  1  0
M  END
$$$$
