IYK.pdb
     RDKit          3D

 30 30  0  0  1  0  0  0  0  0999 V2000
   27.4828  -20.7606  -20.4871 C   0  0  0  0  0  0  0  0  0  0  0  0
   28.3876  -21.1601  -19.3628 C   0  0  0  0  0  0  0  0  0  0  0  0
   27.6131  -21.4041  -18.0856 C   0  0  2  0  0  0  0  0  0  0  0  0
   26.8316  -20.1792  -17.6673 C   0  0  0  0  0  0  0  0  0  0  0  0
   28.5784  -21.7904  -16.9845 C   0  0  2  0  0  0  0  0  0  0  0  0
   29.3164  -22.9663  -17.3264 N   0  0  0  0  0  0  0  0  0  0  0  0
   27.7806  -21.9456  -15.7467 C   0  0  0  0  0  0  0  0  0  0  0  0
   26.9961  -22.9143  -15.5982 O   0  0  0  0  0  0  0  0  0  0  0  0
   25.2929  -20.3715   -7.3137 O   0  0  0  0  0  0  0  0  0  0  0  0
   25.9160  -20.3962   -8.5592 C   0  0  0  0  0  0  0  0  0  0  0  0
   26.7985  -21.3835   -8.9207 C   0  0  0  0  0  0  0  0  0  0  0  0
   27.4066  -21.3943  -10.1554 C   0  0  0  0  0  0  0  0  0  0  0  0
   27.1559  -20.4005  -11.1029 C   0  0  0  0  0  0  0  0  0  0  0  0
   27.8672  -20.4363  -12.3739 C   0  0  0  0  0  0  0  0  0  0  0  0
   27.1592  -21.1937  -13.4536 C   0  0  2  0  0  0  0  0  0  0  0  0
   27.9018  -20.9974  -14.7239 N   0  0  0  0  0  0  0  0  0  0  0  0
   25.8182  -20.6596  -13.7039 C   0  0  0  0  0  0  0  0  0  0  0  0
   25.7231  -19.5876  -14.3979 O   0  0  0  0  0  0  0  0  0  0  0  0
   26.2676  -19.4219  -10.7176 C   0  0  0  0  0  0  0  0  0  0  0  0
   25.6560  -19.4068   -9.4817 C   0  0  0  0  0  0  0  0  0  0  0  0
   24.5917  -21.2154  -13.2599 N   0  0  0  0  0  0  0  0  0  0  0  0
   23.3622  -20.4836  -13.5734 C   0  0  1  0  0  0  0  0  0  0  0  0
   22.9486  -20.8781  -15.0088 C   0  0  0  0  0  0  0  0  0  0  0  0
   22.5988  -22.3228  -15.0135 C   0  0  0  0  0  0  0  0  0  0  0  0
   22.2052  -22.9246  -16.3147 C   0  0  0  0  0  0  0  0  0  0  0  0
   21.9131  -24.3723  -16.2249 C   0  0  0  0  0  0  0  0  0  0  0  0
   21.5320  -24.9426  -17.4745 N   0  0  0  0  0  0  0  0  0  0  0  0
   22.3174  -20.7677  -12.5944 C   0  0  0  0  0  0  0  0  0  0  0  0
   21.1788  -20.1950  -12.7097 O   0  0  0  0  0  0  0  0  0  0  0  0
   22.4213  -21.6273  -11.5111 O   0  0  0  0  0  0  0  0  0  0  0  0
  2  3  1  0
  2  1  1  0
  3  4  1  1
  5  3  1  0
  5  6  1  6
  7  5  1  0
  8  7  2  0
  9 10  1  0
 10 20  2  0
 10 11  1  0
 11 12  2  0
 12 13  1  0
 13 14  1  0
 15 14  1  1
 15 16  1  0
 16  7  1  0
 17 15  1  0
 17 18  2  0
 19 13  2  0
 20 19  1  0
 21 17  1  0
 22 21  1  0
 22 28  1  0
 22 23  1  6
 24 23  1  0
 25 24  1  0
 26 25  1  0
 26 27  1  0
 28 29  2  0
 28 30  1  0
M  END
$$$$
