IYK.pdb
     RDKit          3D

 30 30  0  0  1  0  0  0  0  0999 V2000
   21.4478  -10.7040    7.4259 C   0  0  0  0  0  0  0  0  0  0  0  0
   20.5009  -10.8692    6.2776 C   0  0  0  0  0  0  0  0  0  0  0  0
   19.6902  -12.1409    6.4039 C   0  0  2  0  0  0  0  0  0  0  0  0
   20.5801  -13.3578    6.5193 C   0  0  0  0  0  0  0  0  0  0  0  0
   18.7932  -12.2815    5.1919 C   0  0  2  0  0  0  0  0  0  0  0  0
   17.8852  -11.1823    5.0845 N   0  0  0  0  0  0  0  0  0  0  0  0
   18.1092  -13.5895    5.3112 C   0  0  0  0  0  0  0  0  0  0  0  0
   17.2087  -13.7746    6.1660 O   0  0  0  0  0  0  0  0  0  0  0  0
   14.9131  -21.4038    2.5339 O   0  0  0  0  0  0  0  0  0  0  0  0
   15.5721  -20.1859    2.6844 C   0  0  0  0  0  0  0  0  0  0  0  0
   14.9051  -18.9864    2.7056 C   0  0  0  0  0  0  0  0  0  0  0  0
   15.5703  -17.7907    2.8550 C   0  0  0  0  0  0  0  0  0  0  0  0
   16.9583  -17.7383    2.9925 C   0  0  0  0  0  0  0  0  0  0  0  0
   17.6125  -16.4406    3.0966 C   0  0  0  0  0  0  0  0  0  0  0  0
   17.7027  -15.9076    4.4925 C   0  0  2  0  0  0  0  0  0  0  0  0
   18.4714  -14.6382    4.4576 N   0  0  0  0  0  0  0  0  0  0  0  0
   18.4686  -16.7989    5.3672 C   0  0  0  0  0  0  0  0  0  0  0  0
   19.7463  -16.7522    5.2949 O   0  0  0  0  0  0  0  0  0  0  0  0
   17.6048  -18.9535    2.9685 C   0  0  0  0  0  0  0  0  0  0  0  0
   16.9426  -20.1538    2.8190 C   0  0  0  0  0  0  0  0  0  0  0  0
   17.9392  -17.7183    6.3079 N   0  0  0  0  0  0  0  0  0  0  0  0
   18.8897  -18.5223    7.0796 C   0  0  1  0  0  0  0  0  0  0  0  0
   19.1116  -17.7998    8.4271 C   0  0  0  0  0  0  0  0  0  0  0  0
   20.0010  -18.6431    9.2681 C   0  0  0  0  0  0  0  0  0  0  0  0
   20.3178  -18.1484   10.6338 C   0  0  0  0  0  0  0  0  0  0  0  0
   21.2036  -19.0575   11.3942 C   0  0  0  0  0  0  0  0  0  0  0  0
   21.4078  -18.6390   12.7416 N   0  0  0  0  0  0  0  0  0  0  0  0
   18.4038  -19.8878    7.2528 C   0  0  0  0  0  0  0  0  0  0  0  0
   17.1435  -20.1101    7.2419 O   0  0  0  0  0  0  0  0  0  0  0  0
   19.1856  -21.0195    7.4305 O   0  0  0  0  0  0  0  0  0  0  0  0
  2  3  1  0
  2  1  1  0
  3  4  1  6
  5  3  1  0
  5  6  1  1
  7  5  1  0
  8  7  2  0
  9 10  1  0
 10 20  2  0
 10 11  1  0
 11 12  2  0
 12 13  1  0
 13 14  1  0
 15 14  1  6
 15 16  1  0
 16  7  1  0
 17 15  1  0
 17 18  2  0
 19 13  2  0
 20 19  1  0
 21 17  1  0
 22 21  1  0
 22 28  1  0
 22 23  1  1
 24 23  1  0
 25 24  1  0
 26 25  1  0
 26 27  1  0
 28 29  2  0
 28 30  1  0
M  END
$$$$
