IYK.pdb
     RDKit          3D

 30 30  0  0  1  0  0  0  0  0999 V2000
   15.9602  -22.3675    0.3817 C   0  0  0  0  0  0  0  0  0  0  0  0
   15.3251  -21.5046    1.4279 C   0  0  0  0  0  0  0  0  0  0  0  0
   16.3465  -20.6298    2.1221 C   0  0  2  0  0  0  0  0  0  0  0  0
   17.3730  -21.4559    2.8638 C   0  0  0  0  0  0  0  0  0  0  0  0
   15.6361  -19.7113    3.0943 C   0  0  2  0  0  0  0  0  0  0  0  0
   14.5118  -19.0736    2.4830 N   0  0  0  0  0  0  0  0  0  0  0  0
   16.6456  -18.7511    3.5962 C   0  0  0  0  0  0  0  0  0  0  0  0
   17.7433  -19.1471    4.0588 O   0  0  0  0  0  0  0  0  0  0  0  0
   20.3347  -10.9784    5.7221 O   0  0  0  0  0  0  0  0  0  0  0  0
   19.5340  -11.9745    5.1682 C   0  0  0  0  0  0  0  0  0  0  0  0
   18.3150  -12.3177    5.6980 C   0  0  0  0  0  0  0  0  0  0  0  0
   17.5349  -13.3046    5.1394 C   0  0  0  0  0  0  0  0  0  0  0  0
   17.9451  -14.0066    4.0048 C   0  0  0  0  0  0  0  0  0  0  0  0
   17.1005  -15.0752    3.4879 C   0  0  0  0  0  0  0  0  0  0  0  0
   17.3716  -16.4189    4.0895 C   0  0  2  0  0  0  0  0  0  0  0  0
   16.3730  -17.3785    3.5550 N   0  0  0  0  0  0  0  0  0  0  0  0
   17.1673  -16.4172    5.5402 C   0  0  0  0  0  0  0  0  0  0  0  0
   15.9626  -16.3808    5.9728 O   0  0  0  0  0  0  0  0  0  0  0  0
   19.1703  -13.6445    3.4919 C   0  0  0  0  0  0  0  0  0  0  0  0
   19.9552  -12.6566    4.0481 C   0  0  0  0  0  0  0  0  0  0  0  0
   18.1769  -16.4604    6.5349 N   0  0  0  0  0  0  0  0  0  0  0  0
   17.7638  -16.2830    7.9289 C   0  0  1  0  0  0  0  0  0  0  0  0
   18.0013  -17.6281    8.6509 C   0  0  0  0  0  0  0  0  0  0  0  0
   16.6952  -18.3262    8.7793 C   0  0  0  0  0  0  0  0  0  0  0  0
   16.6826  -19.6196    9.5121 C   0  0  0  0  0  0  0  0  0  0  0  0
   15.3771  -20.3133    9.4517 C   0  0  0  0  0  0  0  0  0  0  0  0
   15.3569  -21.5292   10.1956 N   0  0  0  0  0  0  0  0  0  0  0  0
   18.4860  -15.1796    8.5546 C   0  0  0  0  0  0  0  0  0  0  0  0
   18.2088  -14.8538    9.7608 O   0  0  0  0  0  0  0  0  0  0  0  0
   19.4833  -14.4154    7.9675 O   0  0  0  0  0  0  0  0  0  0  0  0
  2  3  1  0
  2  1  1  0
  3  4  1  1
  5  3  1  0
  5  6  1  6
  7  5  1  0
  8  7  2  0
  9 10  1  0
 10 20  2  0
 10 11  1  0
 11 12  2  0
 12 13  1  0
 13 14  1  0
 15 14  1  6
 15 16  1  0
 16  7  1  0
 17 15  1  0
 17 18  2  0
 19 13  2  0
 20 19  1  0
 21 17  1  0
 22 21  1  0
 22 28  1  0
 22 23  1  1
 24 23  1  0
 25 24  1  0
 26 25  1  0
 26 27  1  0
 28 29  2  0
 28 30  1  0
M  END
$$$$
