IYK.pdb
     RDKit          3D

 30 30  0  0  1  0  0  0  0  0999 V2000
   26.0519  -14.1867  -17.3340 C   0  0  0  0  0  0  0  0  0  0  0  0
   24.7532  -13.5230  -17.6734 C   0  0  0  0  0  0  0  0  0  0  0  0
   24.4080  -12.4354  -16.6793 C   0  0  2  0  0  0  0  0  0  0  0  0
   24.2167  -12.9951  -15.2878 C   0  0  0  0  0  0  0  0  0  0  0  0
   23.1393  -11.7387  -17.1246 C   0  0  2  0  0  0  0  0  0  0  0  0
   23.2502  -11.2613  -18.4679 N   0  0  0  0  0  0  0  0  0  0  0  0
   22.8735  -10.6598  -16.1457 C   0  0  0  0  0  0  0  0  0  0  0  0
   22.6377  -10.9214  -14.9407 O   0  0  0  0  0  0  0  0  0  0  0  0
   21.7869   -2.0978  -13.8796 O   0  0  0  0  0  0  0  0  0  0  0  0
   22.2320   -3.3480  -14.3027 C   0  0  0  0  0  0  0  0  0  0  0  0
   22.8722   -3.5334  -15.5027 C   0  0  0  0  0  0  0  0  0  0  0  0
   23.3062   -4.7753  -15.9074 C   0  0  0  0  0  0  0  0  0  0  0  0
   23.1166   -5.9098  -15.1165 C   0  0  0  0  0  0  0  0  0  0  0  0
   23.5521   -7.2060  -15.6193 C   0  0  0  0  0  0  0  0  0  0  0  0
   22.4841   -8.2550  -15.6219 C   0  0  2  0  0  0  0  0  0  0  0  0
   22.8850   -9.3255  -16.5689 N   0  0  0  0  0  0  0  0  0  0  0  0
   21.2144   -7.7380  -16.1387 C   0  0  0  0  0  0  0  0  0  0  0  0
   21.1306   -7.5106  -17.3961 O   0  0  0  0  0  0  0  0  0  0  0  0
   22.4728   -5.6987  -13.9181 C   0  0  0  0  0  0  0  0  0  0  0  0
   22.0362   -4.4564  -13.5086 C   0  0  0  0  0  0  0  0  0  0  0  0
   20.0448   -7.4650  -15.3851 N   0  0  0  0  0  0  0  0  0  0  0  0
   18.8670   -6.9839  -16.1109 C   0  0  1  0  0  0  0  0  0  0  0  0
   17.6626   -7.8291  -15.6396 C   0  0  0  0  0  0  0  0  0  0  0  0
   17.7655   -9.1756  -16.2608 C   0  0  0  0  0  0  0  0  0  0  0  0
   16.6677  -10.1393  -15.9848 C   0  0  0  0  0  0  0  0  0  0  0  0
   16.9586  -11.5095  -16.4615 C   0  0  0  0  0  0  0  0  0  0  0  0
   15.9443  -12.4483  -16.1124 N   0  0  0  0  0  0  0  0  0  0  0  0
   18.6638   -5.5547  -15.8943 C   0  0  0  0  0  0  0  0  0  0  0  0
   18.4321   -4.7959  -16.8984 O   0  0  0  0  0  0  0  0  0  0  0  0
   18.6895   -4.8994  -14.6724 O   0  0  0  0  0  0  0  0  0  0  0  0
  2  3  1  0
  2  1  1  0
  3  4  1  1
  5  3  1  0
  5  6  1  6
  7  5  1  0
  8  7  2  0
  9 10  1  0
 10 20  2  0
 10 11  1  0
 11 12  2  0
 12 13  1  0
 13 14  1  0
 15 14  1  6
 15 16  1  0
 16  7  1  0
 17 15  1  0
 17 18  2  0
 19 13  2  0
 20 19  1  0
 21 17  1  0
 22 21  1  0
 22 28  1  0
 22 23  1  1
 24 23  1  0
 25 24  1  0
 26 25  1  0
 26 27  1  0
 28 29  2  0
 28 30  1  0
M  END
$$$$
