IYK.pdb
     RDKit          3D

 30 30  0  0  1  0  0  0  0  0999 V2000
   27.0225  -20.9715  -21.0404 C   0  0  0  0  0  0  0  0  0  0  0  0
   27.8752  -21.4424  -19.9031 C   0  0  0  0  0  0  0  0  0  0  0  0
   27.0686  -21.6027  -18.6326 C   0  0  2  0  0  0  0  0  0  0  0  0
   26.4320  -20.2978  -18.2105 C   0  0  0  0  0  0  0  0  0  0  0  0
   27.9746  -22.1057  -17.5283 C   0  0  2  0  0  0  0  0  0  0  0  0
   28.5702  -23.3592  -17.8724 N   0  0  0  0  0  0  0  0  0  0  0  0
   27.1564  -22.1711  -16.2957 C   0  0  0  0  0  0  0  0  0  0  0  0
   26.2201  -22.9996  -16.1822 O   0  0  0  0  0  0  0  0  0  0  0  0
   24.5530  -20.3219   -7.9953 O   0  0  0  0  0  0  0  0  0  0  0  0
   25.2586  -20.4053   -9.1934 C   0  0  0  0  0  0  0  0  0  0  0  0
   25.6875  -19.2927   -9.8734 C   0  0  0  0  0  0  0  0  0  0  0  0
   26.3837  -19.3911  -11.0566 C   0  0  0  0  0  0  0  0  0  0  0  0
   26.6886  -20.6291  -11.6250 C   0  0  0  0  0  0  0  0  0  0  0  0
   27.3838  -20.6703  -12.9047 C   0  0  0  0  0  0  0  0  0  0  0  0
   26.6421  -21.3951  -13.9843 C   0  0  2  0  0  0  0  0  0  0  0  0
   27.4300  -21.2953  -15.2384 N   0  0  0  0  0  0  0  0  0  0  0  0
   25.3572  -20.7584  -14.2839 C   0  0  0  0  0  0  0  0  0  0  0  0
   25.3782  -19.5882  -14.8036 O   0  0  0  0  0  0  0  0  0  0  0  0
   26.2485  -21.7297  -10.9248 C   0  0  0  0  0  0  0  0  0  0  0  0
   25.5506  -21.6359   -9.7392 C   0  0  0  0  0  0  0  0  0  0  0  0
   24.0698  -21.3106  -14.0645 N   0  0  0  0  0  0  0  0  0  0  0  0
   22.9149  -20.4242  -14.2252 C   0  0  1  0  0  0  0  0  0  0  0  0
   22.0466  -21.0060  -15.3630 C   0  0  0  0  0  0  0  0  0  0  0  0
   20.8610  -20.1273  -15.5416 C   0  0  0  0  0  0  0  0  0  0  0  0
   19.8247  -20.5696  -16.5114 C   0  0  0  0  0  0  0  0  0  0  0  0
   18.7527  -19.5709  -16.7178 C   0  0  0  0  0  0  0  0  0  0  0  0
   17.7686  -19.9955  -17.6577 N   0  0  0  0  0  0  0  0  0  0  0  0
   22.1765  -20.2910  -12.9731 C   0  0  0  0  0  0  0  0  0  0  0  0
   21.2857  -19.3784  -12.8654 O   0  0  0  0  0  0  0  0  0  0  0  0
   22.3338  -21.0770  -11.8414 O   0  0  0  0  0  0  0  0  0  0  0  0
  2  3  1  0
  2  1  1  0
  3  4  1  1
  5  3  1  0
  5  6  1  6
  7  5  1  0
  8  7  2  0
  9 10  1  0
 10 20  2  0
 10 11  1  0
 11 12  2  0
 12 13  1  0
 13 14  1  0
 15 14  1  1
 15 16  1  0
 16  7  1  0
 17 15  1  0
 17 18  2  0
 19 13  2  0
 20 19  1  0
 21 17  1  0
 22 21  1  0
 22 28  1  0
 22 23  1  6
 24 23  1  0
 25 24  1  0
 26 25  1  0
 26 27  1  0
 28 29  2  0
 28 30  1  0
M  END
$$$$
