IYK.pdb
     RDKit          3D

 30 30  0  0  1  0  0  0  0  0999 V2000
   21.6024  -11.8065  -23.0116 C   0  0  0  0  0  0  0  0  0  0  0  0
   22.3340  -10.8532  -22.1181 C   0  0  0  0  0  0  0  0  0  0  0  0
   21.5101  -10.4866  -20.9027 C   0  0  2  0  0  0  0  0  0  0  0  0
   20.1795   -9.8849  -21.2945 C   0  0  0  0  0  0  0  0  0  0  0  0
   22.2844   -9.4977  -20.0566 C   0  0  2  0  0  0  0  0  0  0  0  0
   23.5370  -10.0418  -19.6331 N   0  0  0  0  0  0  0  0  0  0  0  0
   21.4061   -9.1162  -18.9270 C   0  0  0  0  0  0  0  0  0  0  0  0
   20.2326   -8.7163  -19.1247 O   0  0  0  0  0  0  0  0  0  0  0  0
   18.0506  -14.6157  -16.7381 O   0  0  0  0  0  0  0  0  0  0  0  0
   18.7879  -13.4715  -16.4425 C   0  0  0  0  0  0  0  0  0  0  0  0
   20.1576  -13.4370  -16.5264 C   0  0  0  0  0  0  0  0  0  0  0  0
   20.8725  -12.2986  -16.2308 C   0  0  0  0  0  0  0  0  0  0  0  0
   20.2394  -11.1207  -15.8304 C   0  0  0  0  0  0  0  0  0  0  0  0
   21.0511   -9.9622  -15.4818 C   0  0  0  0  0  0  0  0  0  0  0  0
   20.9984   -8.8507  -16.4831 C   0  0  2  0  0  0  0  0  0  0  0  0
   21.8905   -9.2022  -17.6164 N   0  0  0  0  0  0  0  0  0  0  0  0
   21.5385   -7.6021  -15.9396 C   0  0  0  0  0  0  0  0  0  0  0  0
   22.8100   -7.5015  -15.8266 O   0  0  0  0  0  0  0  0  0  0  0  0
   18.8661  -11.1799  -15.7540 C   0  0  0  0  0  0  0  0  0  0  0  0
   18.1457  -12.3181  -16.0491 C   0  0  0  0  0  0  0  0  0  0  0  0
   20.7928   -6.4695  -15.5252 N   0  0  0  0  0  0  0  0  0  0  0  0
   21.5377   -5.3178  -15.0111 C   0  0  1  0  0  0  0  0  0  0  0  0
   20.6526   -4.0693  -15.2227 C   0  0  0  0  0  0  0  0  0  0  0  0
   21.5336   -2.9287  -15.5868 C   0  0  0  0  0  0  0  0  0  0  0  0
   20.8838   -1.6112  -15.8150 C   0  0  0  0  0  0  0  0  0  0  0  0
   19.4058   -1.6766  -15.7938 C   0  0  0  0  0  0  0  0  0  0  0  0
   18.7894   -0.3964  -15.9084 N   0  0  0  0  0  0  0  0  0  0  0  0
   21.9035   -5.5110  -13.6112 C   0  0  0  0  0  0  0  0  0  0  0  0
   21.2255   -6.3252  -12.8935 O   0  0  0  0  0  0  0  0  0  0  0  0
   22.9487   -4.8898  -12.9442 O   0  0  0  0  0  0  0  0  0  0  0  0
  2  3  1  0
  2  1  1  0
  3  4  1  6
  5  3  1  0
  5  6  1  1
  7  5  1  0
  8  7  2  0
  9 10  1  0
 10 20  2  0
 10 11  1  0
 11 12  2  0
 12 13  1  0
 13 14  1  0
 15 14  1  1
 15 16  1  0
 16  7  1  0
 17 15  1  0
 17 18  2  0
 19 13  2  0
 20 19  1  0
 21 17  1  0
 22 21  1  0
 22 28  1  0
 22 23  1  1
 24 23  1  0
 25 24  1  0
 26 25  1  0
 26 27  1  0
 28 29  2  0
 28 30  1  0
M  END
$$$$
