IYK.pdb
     RDKit          3D

 30 30  0  0  1  0  0  0  0  0999 V2000
   28.6778  -21.7263  -17.1393 C   0  0  0  0  0  0  0  0  0  0  0  0
   27.6572  -21.1246  -18.0551 C   0  0  0  0  0  0  0  0  0  0  0  0
   26.5145  -20.5024  -17.2821 C   0  0  2  0  0  0  0  0  0  0  0  0
   25.7936  -21.5271  -16.4357 C   0  0  0  0  0  0  0  0  0  0  0  0
   25.5403  -19.8724  -18.2553 C   0  0  2  0  0  0  0  0  0  0  0  0
   26.1693  -18.8543  -19.0378 N   0  0  0  0  0  0  0  0  0  0  0  0
   24.3989  -19.3688  -17.4575 C   0  0  0  0  0  0  0  0  0  0  0  0
   24.4645  -18.2701  -16.8538 O   0  0  0  0  0  0  0  0  0  0  0  0
   20.7590  -14.9680  -20.8141 O   0  0  0  0  0  0  0  0  0  0  0  0
   20.7758  -16.1012  -20.0043 C   0  0  0  0  0  0  0  0  0  0  0  0
   20.2371  -16.1110  -18.7417 C   0  0  0  0  0  0  0  0  0  0  0  0
   20.2614  -17.2387  -17.9531 C   0  0  0  0  0  0  0  0  0  0  0  0
   20.8358  -18.4304  -18.3984 C   0  0  0  0  0  0  0  0  0  0  0  0
   20.8773  -19.5770  -17.5005 C   0  0  0  0  0  0  0  0  0  0  0  0
   22.0720  -19.6091  -16.5990 C   0  0  2  0  0  0  0  0  0  0  0  0
   23.2264  -20.1291  -17.3739 N   0  0  0  0  0  0  0  0  0  0  0  0
   21.8937  -20.5522  -15.4922 C   0  0  0  0  0  0  0  0  0  0  0  0
   21.8480  -21.8005  -15.7739 O   0  0  0  0  0  0  0  0  0  0  0  0
   21.3689  -18.3960  -19.6672 C   0  0  0  0  0  0  0  0  0  0  0  0
   21.3470  -17.2685  -20.4609 C   0  0  0  0  0  0  0  0  0  0  0  0
   21.7722  -20.2272  -14.1174 N   0  0  0  0  0  0  0  0  0  0  0  0
   21.7388  -21.3342  -13.1589 C   0  0  1  0  0  0  0  0  0  0  0  0
   22.4395  -20.8458  -11.8715 C   0  0  0  0  0  0  0  0  0  0  0  0
   23.8540  -21.3013  -11.9082 C   0  0  0  0  0  0  0  0  0  0  0  0
   24.7299  -20.8970  -10.7771 C   0  0  0  0  0  0  0  0  0  0  0  0
   26.1352  -21.3295  -10.9421 C   0  0  0  0  0  0  0  0  0  0  0  0
   26.9896  -20.8567   -9.9035 N   0  0  0  0  0  0  0  0  0  0  0  0
   20.3693  -21.7765  -12.9145 C   0  0  0  0  0  0  0  0  0  0  0  0
   19.4271  -20.9109  -12.8876 O   0  0  0  0  0  0  0  0  0  0  0  0
   19.9555  -23.0833  -12.7042 O   0  0  0  0  0  0  0  0  0  0  0  0
  2  3  1  0
  2  1  1  0
  3  4  1  6
  5  3  1  0
  5  6  1  1
  7  5  1  0
  8  7  2  0
  9 10  1  0
 10 20  2  0
 10 11  1  0
 11 12  2  0
 12 13  1  0
 13 14  1  0
 15 14  1  6
 15 16  1  0
 16  7  1  0
 17 15  1  0
 17 18  2  0
 19 13  2  0
 20 19  1  0
 21 17  1  0
 22 21  1  0
 22 28  1  0
 22 23  1  1
 24 23  1  0
 25 24  1  0
 26 25  1  0
 26 27  1  0
 28 29  2  0
 28 30  1  0
M  END
$$$$
