IYK.pdb
     RDKit          3D

 30 30  0  0  1  0  0  0  0  0999 V2000
   26.7740  -20.0407  -21.5010 C   0  0  0  0  0  0  0  0  0  0  0  0
   25.9096  -19.2656  -20.5554 C   0  0  0  0  0  0  0  0  0  0  0  0
   25.5792  -20.0704  -19.3171 C   0  0  2  0  0  0  0  0  0  0  0  0
   24.8782  -21.3639  -19.6660 C   0  0  0  0  0  0  0  0  0  0  0  0
   24.6947  -19.2435  -18.4076 C   0  0  2  0  0  0  0  0  0  0  0  0
   25.2540  -17.9489  -18.1720 N   0  0  0  0  0  0  0  0  0  0  0  0
   24.5014  -20.0267  -17.1657 C   0  0  0  0  0  0  0  0  0  0  0  0
   24.0205  -21.1858  -17.1985 O   0  0  0  0  0  0  0  0  0  0  0  0
   24.0593  -21.5775   -8.4507 O   0  0  0  0  0  0  0  0  0  0  0  0
   24.4135  -21.0992   -9.7101 C   0  0  0  0  0  0  0  0  0  0  0  0
   23.7370  -20.0751  -10.3249 C   0  0  0  0  0  0  0  0  0  0  0  0
   24.0988  -19.6134  -11.5701 C   0  0  0  0  0  0  0  0  0  0  0  0
   25.1730  -20.1642  -12.2707 C   0  0  0  0  0  0  0  0  0  0  0  0
   25.4779  -19.6687  -13.6064 C   0  0  0  0  0  0  0  0  0  0  0  0
   24.5986  -20.2232  -14.6835 C   0  0  2  0  0  0  0  0  0  0  0  0
   24.8604  -19.4670  -15.9338 N   0  0  0  0  0  0  0  0  0  0  0  0
   23.1791  -20.0080  -14.3922 C   0  0  0  0  0  0  0  0  0  0  0  0
   22.7171  -18.8208  -14.5213 O   0  0  0  0  0  0  0  0  0  0  0  0
   25.8357  -21.1892  -11.6338 C   0  0  0  0  0  0  0  0  0  0  0  0
   25.4768  -21.6552  -10.3866 C   0  0  0  0  0  0  0  0  0  0  0  0
   22.2427  -20.9912  -13.9835 N   0  0  0  0  0  0  0  0  0  0  0  0
   20.8802  -20.5464  -13.6815 C   0  0  1  0  0  0  0  0  0  0  0  0
   20.0327  -20.7730  -14.9533 C   0  0  0  0  0  0  0  0  0  0  0  0
   18.6446  -20.3192  -14.6764 C   0  0  0  0  0  0  0  0  0  0  0  0
   17.6468  -20.4727  -15.7676 C   0  0  0  0  0  0  0  0  0  0  0  0
   16.3653  -19.7876  -15.4889 C   0  0  0  0  0  0  0  0  0  0  0  0
   15.4474  -19.8576  -16.5774 N   0  0  0  0  0  0  0  0  0  0  0  0
   20.3428  -21.2501  -12.5210 C   0  0  0  0  0  0  0  0  0  0  0  0
   20.5626  -22.5043  -12.3921 O   0  0  0  0  0  0  0  0  0  0  0  0
   19.5939  -20.6895  -11.4972 O   0  0  0  0  0  0  0  0  0  0  0  0
  2  3  1  0
  2  1  1  0
  3  4  1  6
  5  3  1  0
  5  6  1  1
  7  5  1  0
  8  7  2  0
  9 10  1  0
 10 20  2  0
 10 11  1  0
 11 12  2  0
 12 13  1  0
 13 14  1  0
 15 14  1  1
 15 16  1  0
 16  7  1  0
 17 15  1  0
 17 18  2  0
 19 13  2  0
 20 19  1  0
 21 17  1  0
 22 21  1  0
 22 28  1  0
 22 23  1  6
 24 23  1  0
 25 24  1  0
 26 25  1  0
 26 27  1  0
 28 29  2  0
 28 30  1  0
M  END
$$$$
