HQY.pdb
     RDKit          3D

 32 33  0  0  1  0  0  0  0  0999 V2000
    9.0690  -17.2344   17.0498 N   0  0  0  0  0  0  0  0  0  0  0  0
    9.0397  -16.2505   18.1039 C   0  0  1  0  0  0  0  0  0  0  0  0
    7.7565  -15.4498   18.0443 C   0  0  0  0  0  0  0  0  0  0  0  0
    7.7210  -14.6778   16.7618 C   0  0  0  0  0  0  0  0  0  0  0  0
    8.4151  -13.5160   16.4731 C   0  0  0  0  0  0  0  0  0  0  0  0
    8.1238  -13.1240   15.2205 N   0  0  0  0  0  0  0  0  0  0  0  0
    7.2594  -14.0264   14.7295 C   0  0  0  0  0  0  0  0  0  0  0  0
    7.0103  -14.9690   15.6544 N   0  0  0  0  0  0  0  0  0  0  0  0
    9.2295  -16.9061   19.4068 C   0  0  0  0  0  0  0  0  0  0  0  0
    8.3697  -17.7382   19.8427 O   0  0  0  0  0  0  0  0  0  0  0  0
   14.5236  -19.3983   20.1707 N   0  0  0  0  0  0  0  0  0  0  0  0
   13.6466  -19.5238   21.2731 C   0  0  0  0  0  0  0  0  0  0  0  0
   14.0731  -19.9926   22.3493 O   0  0  0  0  0  0  0  0  0  0  0  0
   12.2393  -19.1091   21.1642 C   0  0  0  0  0  0  0  0  0  0  0  0
   11.9638  -17.7290   21.6641 C   0  0  0  0  0  0  0  0  0  0  0  0
   10.5350  -17.2798   21.5532 C   0  0  2  0  0  0  0  0  0  0  0  0
   10.3648  -16.6381   20.2163 N   0  0  0  0  0  0  0  0  0  0  0  0
   10.1244  -16.2574   22.5286 C   0  0  0  0  0  0  0  0  0  0  0  0
   10.7487  -15.1374   22.5334 O   0  0  0  0  0  0  0  0  0  0  0  0
    6.0392  -10.6367   27.8531 O   0  0  0  0  0  0  0  0  0  0  0  0
    6.3946  -11.6252   26.9220 C   0  0  0  0  0  0  0  0  0  0  0  0
    7.2910  -11.3627   25.9050 C   0  0  0  0  0  0  0  0  0  0  0  0
    7.6628  -12.3078   24.9743 C   0  0  0  0  0  0  0  0  0  0  0  0
    7.1261  -13.5980   25.0362 C   0  0  0  0  0  0  0  0  0  0  0  0
    7.4796  -14.6309   24.0439 C   0  0  0  0  0  0  0  0  0  0  0  0
    8.7716  -15.2795   24.4147 C   0  0  2  0  0  0  0  0  0  0  0  0
    9.0853  -16.3791   23.4849 N   0  0  0  0  0  0  0  0  0  0  0  0
    8.7187  -15.8199   25.7754 C   0  0  0  0  0  0  0  0  0  0  0  0
    8.3659  -16.9699   26.0731 O   0  0  0  0  0  0  0  0  0  0  0  0
    6.2195  -13.8465   26.0725 C   0  0  0  0  0  0  0  0  0  0  0  0
    5.8618  -12.8928   26.9896 C   0  0  0  0  0  0  0  0  0  0  0  0
    9.0901  -14.9964   26.8428 O   0  0  0  0  0  0  0  0  0  0  0  0
  2  3  1  0
  2  1  1  6
  3  4  1  0
  4  5  2  0
  6  5  1  0
  7  6  1  0
  8  7  2  0
  8  4  1  0
  9  2  1  0
  9 10  2  0
 11 12  1  0
 12 14  1  0
 13 12  2  0
 14 15  1  0
 16 15  1  1
 16 17  1  0
 17  9  1  0
 18 16  1  0
 18 27  1  0
 19 18  2  0
 20 21  1  0
 21 22  2  0
 21 31  1  0
 22 23  1  0
 23 24  2  0
 24 25  1  0
 26 25  1  6
 26 27  1  0
 26 28  1  0
 28 29  2  0
 28 32  1  0
 30 24  1  0
 31 30  2  0
M  END
$$$$
