HQY.pdb
     RDKit          3D

 32 33  0  0  1  0  0  0  0  0999 V2000
    9.0420  -17.6417   18.6226 N   0  0  0  0  0  0  0  0  0  0  0  0
   10.1185  -16.6986   18.8003 C   0  0  1  0  0  0  0  0  0  0  0  0
    9.6865  -15.5682   19.7098 C   0  0  0  0  0  0  0  0  0  0  0  0
    8.7007  -14.7061   18.9837 C   0  0  0  0  0  0  0  0  0  0  0  0
    8.2462  -14.8760   17.6877 C   0  0  0  0  0  0  0  0  0  0  0  0
    7.3685  -13.9012   17.3934 N   0  0  0  0  0  0  0  0  0  0  0  0
    7.2730  -13.1301   18.4884 C   0  0  0  0  0  0  0  0  0  0  0  0
    8.0749  -13.6093   19.4545 N   0  0  0  0  0  0  0  0  0  0  0  0
   11.3150  -17.3923   19.3007 C   0  0  0  0  0  0  0  0  0  0  0  0
   11.2119  -18.5206   19.8822 O   0  0  0  0  0  0  0  0  0  0  0  0
   16.6633  -17.7077   16.3147 N   0  0  0  0  0  0  0  0  0  0  0  0
   17.0644  -18.1684   17.5902 C   0  0  0  0  0  0  0  0  0  0  0  0
   18.2575  -18.4827   17.7844 O   0  0  0  0  0  0  0  0  0  0  0  0
   16.0916  -18.2814   18.6880 C   0  0  0  0  0  0  0  0  0  0  0  0
   14.7893  -17.5976   18.4293 C   0  0  0  0  0  0  0  0  0  0  0  0
   13.8317  -17.5825   19.5862 C   0  0  2  0  0  0  0  0  0  0  0  0
   12.6132  -16.8357   19.1554 N   0  0  0  0  0  0  0  0  0  0  0  0
   14.3128  -16.8796   20.7860 C   0  0  0  0  0  0  0  0  0  0  0  0
   14.4502  -15.6059   20.7292 O   0  0  0  0  0  0  0  0  0  0  0  0
    8.8093  -16.2118   24.3277 O   0  0  0  0  0  0  0  0  0  0  0  0
   10.1952  -16.4332   24.3481 C   0  0  0  0  0  0  0  0  0  0  0  0
   10.7166  -17.7118   24.3628 C   0  0  0  0  0  0  0  0  0  0  0  0
   12.0702  -17.9666   24.3828 C   0  0  0  0  0  0  0  0  0  0  0  0
   12.9808  -16.9048   24.3890 C   0  0  0  0  0  0  0  0  0  0  0  0
   14.4372  -17.1354   24.4355 C   0  0  0  0  0  0  0  0  0  0  0  0
   15.0749  -16.6520   23.1757 C   0  0  2  0  0  0  0  0  0  0  0  0
   14.6460  -17.4729   22.0294 N   0  0  0  0  0  0  0  0  0  0  0  0
   16.5359  -16.7084   23.2692 C   0  0  0  0  0  0  0  0  0  0  0  0
   17.2688  -17.4199   22.5675 O   0  0  0  0  0  0  0  0  0  0  0  0
   12.4354  -15.6164   24.3743 C   0  0  0  0  0  0  0  0  0  0  0  0
   11.0851  -15.3828   24.3543 C   0  0  0  0  0  0  0  0  0  0  0  0
   17.1824  -15.9073   24.2156 O   0  0  0  0  0  0  0  0  0  0  0  0
  2  3  1  0
  2  1  1  1
  3  4  1  0
  4  5  2  0
  6  5  1  0
  7  6  1  0
  8  7  2  0
  8  4  1  0
  9  2  1  0
  9 10  2  0
 11 12  1  0
 12 14  1  0
 13 12  2  0
 14 15  1  0
 16 15  1  6
 16 17  1  0
 17  9  1  0
 18 16  1  0
 18 27  1  0
 19 18  2  0
 20 21  1  0
 21 22  2  0
 21 31  1  0
 22 23  1  0
 23 24  2  0
 24 25  1  0
 26 25  1  1
 26 27  1  0
 26 28  1  0
 28 29  2  0
 28 32  1  0
 30 24  1  0
 31 30  2  0
M  END
$$$$
