HQY.pdb
     RDKit          3D

 32 33  0  0  1  0  0  0  0  0999 V2000
    8.5460  -18.6991   18.8823 N   0  0  0  0  0  0  0  0  0  0  0  0
    7.8596  -18.0112   19.9479 C   0  0  1  0  0  0  0  0  0  0  0  0
    7.6080  -18.9507   21.1079 C   0  0  0  0  0  0  0  0  0  0  0  0
    6.6437  -20.0122   20.6770 C   0  0  0  0  0  0  0  0  0  0  0  0
    6.0585  -20.1450   19.4301 C   0  0  0  0  0  0  0  0  0  0  0  0
    5.2520  -21.2205   19.4300 N   0  0  0  0  0  0  0  0  0  0  0  0
    5.3294  -21.7557   20.6590 C   0  0  0  0  0  0  0  0  0  0  0  0
    6.1683  -21.0317   21.4192 N   0  0  0  0  0  0  0  0  0  0  0  0
    8.6233  -16.8200   20.3491 C   0  0  0  0  0  0  0  0  0  0  0  0
    9.8887  -16.7868   20.2103 O   0  0  0  0  0  0  0  0  0  0  0  0
    8.4274  -13.8783   17.5616 N   0  0  0  0  0  0  0  0  0  0  0  0
    8.5491  -13.0877   18.7280 C   0  0  0  0  0  0  0  0  0  0  0  0
    9.5886  -12.4209   18.9145 O   0  0  0  0  0  0  0  0  0  0  0  0
    7.4653  -13.0437   19.7219 C   0  0  0  0  0  0  0  0  0  0  0  0
    7.9108  -13.2721   21.1289 C   0  0  0  0  0  0  0  0  0  0  0  0
    8.7688  -14.4863   21.3412 C   0  0  2  0  0  0  0  0  0  0  0  0
    7.9849  -15.6773   20.8994 N   0  0  0  0  0  0  0  0  0  0  0  0
    9.1305  -14.7583   22.7413 C   0  0  0  0  0  0  0  0  0  0  0  0
    9.9119  -13.9348   23.3375 O   0  0  0  0  0  0  0  0  0  0  0  0
    5.9973  -10.5958   26.5432 O   0  0  0  0  0  0  0  0  0  0  0  0
    6.4528  -11.9101   26.3552 C   0  0  0  0  0  0  0  0  0  0  0  0
    5.5887  -12.9223   25.9868 C   0  0  0  0  0  0  0  0  0  0  0  0
    6.0003  -14.2226   25.7934 C   0  0  0  0  0  0  0  0  0  0  0  0
    7.3454  -14.5632   25.9704 C   0  0  0  0  0  0  0  0  0  0  0  0
    7.8214  -15.9488   25.7973 C   0  0  0  0  0  0  0  0  0  0  0  0
    9.0489  -15.9687   24.9486 C   0  0  2  0  0  0  0  0  0  0  0  0
    8.6949  -15.8581   23.5223 N   0  0  0  0  0  0  0  0  0  0  0  0
    9.8066  -17.2069   25.1465 C   0  0  0  0  0  0  0  0  0  0  0  0
   10.2676  -17.5959   26.2290 O   0  0  0  0  0  0  0  0  0  0  0  0
    8.2067  -13.5257   26.3438 C   0  0  0  0  0  0  0  0  0  0  0  0
    7.7784  -12.2374   26.5314 C   0  0  0  0  0  0  0  0  0  0  0  0
   10.0439  -18.0354   24.0453 O   0  0  0  0  0  0  0  0  0  0  0  0
  2  3  1  0
  2  1  1  6
  3  4  1  0
  4  5  2  0
  6  5  1  0
  7  6  1  0
  8  7  2  0
  8  4  1  0
  9  2  1  0
  9 10  2  0
 11 12  1  0
 12 14  1  0
 13 12  2  0
 14 15  1  0
 16 15  1  1
 16 17  1  0
 17  9  1  0
 18 16  1  0
 18 27  1  0
 19 18  2  0
 20 21  1  0
 21 22  2  0
 21 31  1  0
 22 23  1  0
 23 24  2  0
 24 25  1  0
 26 25  1  1
 26 27  1  0
 26 28  1  0
 28 29  2  0
 28 32  1  0
 30 24  1  0
 31 30  2  0
M  END
$$$$
