HQY.pdb
     RDKit          3D

 32 33  0  0  1  0  0  0  0  0999 V2000
   11.3093  -17.0423   19.3219 N   0  0  0  0  0  0  0  0  0  0  0  0
   11.4699  -16.1598   20.4512 C   0  0  1  0  0  0  0  0  0  0  0  0
   11.4875  -14.7162   19.9960 C   0  0  0  0  0  0  0  0  0  0  0  0
   12.8893  -14.3353   19.6327 C   0  0  0  0  0  0  0  0  0  0  0  0
   14.0126  -15.1405   19.7025 C   0  0  0  0  0  0  0  0  0  0  0  0
   15.0857  -14.4426   19.2919 N   0  0  0  0  0  0  0  0  0  0  0  0
   14.6431  -13.2169   18.9687 C   0  0  0  0  0  0  0  0  0  0  0  0
   13.3167  -13.1433   19.1716 N   0  0  0  0  0  0  0  0  0  0  0  0
   10.4164  -16.4199   21.4442 C   0  0  0  0  0  0  0  0  0  0  0  0
    9.1956  -16.1862   21.1673 O   0  0  0  0  0  0  0  0  0  0  0  0
    9.4735  -21.6578   23.8508 N   0  0  0  0  0  0  0  0  0  0  0  0
   10.7256  -21.0245   24.0277 C   0  0  0  0  0  0  0  0  0  0  0  0
   11.7336  -21.7145   24.2881 O   0  0  0  0  0  0  0  0  0  0  0  0
   10.8517  -19.5636   23.9089 C   0  0  0  0  0  0  0  0  0  0  0  0
    9.5649  -18.8543   23.6415 C   0  0  0  0  0  0  0  0  0  0  0  0
    9.6399  -17.3547   23.6746 C   0  0  2  0  0  0  0  0  0  0  0  0
   10.7189  -16.9348   22.7325 N   0  0  0  0  0  0  0  0  0  0  0  0
   10.0145  -16.7767   24.9749 C   0  0  0  0  0  0  0  0  0  0  0  0
   11.2433  -16.4661   25.1698 O   0  0  0  0  0  0  0  0  0  0  0  0
    6.1918  -11.2257   24.8442 O   0  0  0  0  0  0  0  0  0  0  0  0
    6.7620  -12.2286   25.6437 C   0  0  0  0  0  0  0  0  0  0  0  0
    7.8686  -11.9757   26.4301 C   0  0  0  0  0  0  0  0  0  0  0  0
    8.4542  -12.9349   27.2267 C   0  0  0  0  0  0  0  0  0  0  0  0
    7.9278  -14.2304   27.2616 C   0  0  0  0  0  0  0  0  0  0  0  0
    8.5407  -15.2922   28.0822 C   0  0  0  0  0  0  0  0  0  0  0  0
    9.6445  -15.9538   27.3263 C   0  0  2  0  0  0  0  0  0  0  0  0
    9.1414  -16.5168   26.0607 N   0  0  0  0  0  0  0  0  0  0  0  0
   10.2468  -17.0346   28.1110 C   0  0  0  0  0  0  0  0  0  0  0  0
   10.2018  -18.2382   27.8197 O   0  0  0  0  0  0  0  0  0  0  0  0
    6.8071  -14.4692   26.4587 C   0  0  0  0  0  0  0  0  0  0  0  0
    6.2382  -13.5014   25.6725 C   0  0  0  0  0  0  0  0  0  0  0  0
   10.9330  -16.7129   29.2862 O   0  0  0  0  0  0  0  0  0  0  0  0
  2  3  1  0
  2  1  1  6
  3  4  1  0
  4  5  2  0
  6  5  1  0
  7  6  1  0
  8  7  2  0
  8  4  1  0
  9  2  1  0
  9 10  2  0
 11 12  1  0
 12 14  1  0
 13 12  2  0
 14 15  1  0
 16 15  1  1
 16 17  1  0
 17  9  1  0
 18 16  1  0
 18 27  1  0
 19 18  2  0
 20 21  1  0
 21 22  2  0
 21 31  1  0
 22 23  1  0
 23 24  2  0
 24 25  1  0
 26 25  1  1
 26 27  1  0
 26 28  1  0
 28 29  2  0
 28 32  1  0
 30 24  1  0
 31 30  2  0
M  END
$$$$
