HQY.pdb
     RDKit          3D

 32 33  0  0  1  0  0  0  0  0999 V2000
    8.0568  -16.6663   18.7544 N   0  0  0  0  0  0  0  0  0  0  0  0
    9.3968  -16.6373   19.2869 C   0  0  1  0  0  0  0  0  0  0  0  0
    9.9113  -15.2149   19.3466 C   0  0  0  0  0  0  0  0  0  0  0  0
    8.7837  -14.2743   19.0535 C   0  0  0  0  0  0  0  0  0  0  0  0
    7.4840  -14.6148   18.7220 C   0  0  0  0  0  0  0  0  0  0  0  0
    6.7655  -13.4943   18.5333 N   0  0  0  0  0  0  0  0  0  0  0  0
    7.6016  -12.4649   18.7433 C   0  0  0  0  0  0  0  0  0  0  0  0
    8.8235  -12.9273   19.0582 N   0  0  0  0  0  0  0  0  0  0  0  0
    9.4286  -17.2987   20.6002 C   0  0  0  0  0  0  0  0  0  0  0  0
    8.3467  -17.6464   21.1749 O   0  0  0  0  0  0  0  0  0  0  0  0
   14.0317  -21.0084   22.4215 N   0  0  0  0  0  0  0  0  0  0  0  0
   13.0724  -21.0639   21.3839 C   0  0  0  0  0  0  0  0  0  0  0  0
   13.2105  -21.8941   20.4611 O   0  0  0  0  0  0  0  0  0  0  0  0
   11.9159  -20.1546   21.3809 C   0  0  0  0  0  0  0  0  0  0  0  0
   11.8599  -19.2260   22.5492 C   0  0  0  0  0  0  0  0  0  0  0  0
   10.6823  -18.2942   22.5722 C   0  0  2  0  0  0  0  0  0  0  0  0
   10.6524  -17.5703   21.2671 N   0  0  0  0  0  0  0  0  0  0  0  0
   10.7395  -17.2408   23.5981 C   0  0  0  0  0  0  0  0  0  0  0  0
   11.3270  -16.1393   23.3051 O   0  0  0  0  0  0  0  0  0  0  0  0
    6.0626  -11.0722   27.2106 O   0  0  0  0  0  0  0  0  0  0  0  0
    6.6642  -12.1828   26.5982 C   0  0  0  0  0  0  0  0  0  0  0  0
    7.7846  -12.0433   25.8032 C   0  0  0  0  0  0  0  0  0  0  0  0
    8.4010  -13.1101   25.1870 C   0  0  0  0  0  0  0  0  0  0  0  0
    7.8932  -14.4026   25.3549 C   0  0  0  0  0  0  0  0  0  0  0  0
    8.5094  -15.5676   24.6920 C   0  0  0  0  0  0  0  0  0  0  0  0
    9.5937  -16.1324   25.5480 C   0  0  2  0  0  0  0  0  0  0  0  0
   10.1989  -17.3131   24.9063 N   0  0  0  0  0  0  0  0  0  0  0  0
    9.0770  -16.5283   26.8605 C   0  0  0  0  0  0  0  0  0  0  0  0
    9.1628  -15.8512   27.8949 O   0  0  0  0  0  0  0  0  0  0  0  0
    6.7577  -14.5255   26.1630 C   0  0  0  0  0  0  0  0  0  0  0  0
    6.1582  -13.4518   26.7682 C   0  0  0  0  0  0  0  0  0  0  0  0
    8.4311  -17.7621   26.9866 O   0  0  0  0  0  0  0  0  0  0  0  0
  2  3  1  0
  2  1  1  1
  3  4  1  0
  4  5  2  0
  6  5  1  0
  7  6  1  0
  8  7  2  0
  8  4  1  0
  9  2  1  0
  9 10  2  0
 11 12  1  0
 12 14  1  0
 13 12  2  0
 14 15  1  0
 16 15  1  6
 16 17  1  0
 17  9  1  0
 18 16  1  0
 18 27  1  0
 19 18  2  0
 20 21  1  0
 21 22  2  0
 21 31  1  0
 22 23  1  0
 23 24  2  0
 24 25  1  0
 26 25  1  6
 26 27  1  0
 26 28  1  0
 28 29  2  0
 28 32  1  0
 30 24  1  0
 31 30  2  0
M  END
$$$$
