HQY.pdb
     RDKit          3D

 32 33  0  0  1  0  0  0  0  0999 V2000
    9.0964  -16.8688   17.1744 N   0  0  0  0  0  0  0  0  0  0  0  0
   10.1306  -16.6384   18.1529 C   0  0  1  0  0  0  0  0  0  0  0  0
   10.5217  -15.1762   18.1746 C   0  0  0  0  0  0  0  0  0  0  0  0
    9.3175  -14.3529   18.5125 C   0  0  0  0  0  0  0  0  0  0  0  0
    8.0161  -14.8032   18.6485 C   0  0  0  0  0  0  0  0  0  0  0  0
    7.2173  -13.7667   18.9569 N   0  0  0  0  0  0  0  0  0  0  0  0
    8.0055  -12.6812   19.0138 C   0  0  0  0  0  0  0  0  0  0  0  0
    9.2764  -13.0264   18.7465 N   0  0  0  0  0  0  0  0  0  0  0  0
    9.6891  -17.1184   19.4712 C   0  0  0  0  0  0  0  0  0  0  0  0
    8.4542  -17.3254   19.7031 O   0  0  0  0  0  0  0  0  0  0  0  0
   13.3887  -20.6539   22.9526 N   0  0  0  0  0  0  0  0  0  0  0  0
   12.1810  -21.2229   22.4859 C   0  0  0  0  0  0  0  0  0  0  0  0
   12.0771  -22.4648   22.4023 O   0  0  0  0  0  0  0  0  0  0  0  0
   11.0485  -20.3678   22.0981 C   0  0  0  0  0  0  0  0  0  0  0  0
   11.3008  -18.9040   22.2537 C   0  0  0  0  0  0  0  0  0  0  0  0
   10.1846  -18.0086   21.7979 C   0  0  2  0  0  0  0  0  0  0  0  0
   10.6130  -17.3655   20.5208 N   0  0  0  0  0  0  0  0  0  0  0  0
    9.8676  -16.8944   22.7053 C   0  0  0  0  0  0  0  0  0  0  0  0
   10.7496  -15.9790   22.8738 O   0  0  0  0  0  0  0  0  0  0  0  0
    6.2418  -10.7673   27.8600 O   0  0  0  0  0  0  0  0  0  0  0  0
    6.4329  -11.8266   26.9592 C   0  0  0  0  0  0  0  0  0  0  0  0
    5.9346  -13.0878   27.2199 C   0  0  0  0  0  0  0  0  0  0  0  0
    6.1027  -14.1503   26.3593 C   0  0  0  0  0  0  0  0  0  0  0  0
    6.8040  -13.9749   25.1618 C   0  0  0  0  0  0  0  0  0  0  0  0
    7.0271  -15.0931   24.2256 C   0  0  0  0  0  0  0  0  0  0  0  0
    8.4508  -15.5367   24.2842 C   0  0  2  0  0  0  0  0  0  0  0  0
    8.6614  -16.7180   23.4285 N   0  0  0  0  0  0  0  0  0  0  0  0
    8.8407  -15.8779   25.6546 C   0  0  0  0  0  0  0  0  0  0  0  0
    9.3420  -15.0914   26.4705 O   0  0  0  0  0  0  0  0  0  0  0  0
    7.3020  -12.6912   24.9138 C   0  0  0  0  0  0  0  0  0  0  0  0
    7.1244  -11.6461   25.7825 C   0  0  0  0  0  0  0  0  0  0  0  0
    8.6433  -17.1868   26.1056 O   0  0  0  0  0  0  0  0  0  0  0  0
  2  3  1  0
  2  1  1  6
  3  4  1  0
  4  5  2  0
  6  5  1  0
  7  6  1  0
  8  7  2  0
  8  4  1  0
  9  2  1  0
  9 10  2  0
 11 12  1  0
 12 14  1  0
 13 12  2  0
 14 15  1  0
 16 15  1  1
 16 17  1  0
 17  9  1  0
 18 16  1  0
 18 27  1  0
 19 18  2  0
 20 21  1  0
 21 22  2  0
 21 31  1  0
 22 23  1  0
 23 24  2  0
 24 25  1  0
 26 25  1  1
 26 27  1  0
 26 28  1  0
 28 29  2  0
 28 32  1  0
 30 24  1  0
 31 30  2  0
M  END
$$$$
