HQY.pdb
     RDKit          3D

 32 33  0  0  1  0  0  0  0  0999 V2000
    7.3606  -17.2124   20.1917 N   0  0  0  0  0  0  0  0  0  0  0  0
    7.5261  -16.0865   21.0777 C   0  0  1  0  0  0  0  0  0  0  0  0
    6.8162  -14.8694   20.5244 C   0  0  0  0  0  0  0  0  0  0  0  0
    7.4944  -14.4403   19.2603 C   0  0  0  0  0  0  0  0  0  0  0  0
    8.3292  -13.3490   19.0957 C   0  0  0  0  0  0  0  0  0  0  0  0
    8.7421  -13.2943   17.8175 N   0  0  0  0  0  0  0  0  0  0  0  0
    8.1751  -14.3361   17.1883 C   0  0  0  0  0  0  0  0  0  0  0  0
    7.4192  -15.0341   18.0528 N   0  0  0  0  0  0  0  0  0  0  0  0
    7.0615  -16.4388   22.4280 C   0  0  0  0  0  0  0  0  0  0  0  0
    5.8782  -16.8720   22.6116 O   0  0  0  0  0  0  0  0  0  0  0  0
    7.2234  -21.1518   24.5752 N   0  0  0  0  0  0  0  0  0  0  0  0
    6.9831  -20.5530   25.8337 C   0  0  0  0  0  0  0  0  0  0  0  0
    6.6997  -21.2728   26.8143 O   0  0  0  0  0  0  0  0  0  0  0  0
    7.0629  -19.0933   25.9984 C   0  0  0  0  0  0  0  0  0  0  0  0
    7.3307  -18.3449   24.7340 C   0  0  0  0  0  0  0  0  0  0  0  0
    7.5104  -16.8622   24.8919 C   0  0  2  0  0  0  0  0  0  0  0  0
    7.9056  -16.3101   23.5626 N   0  0  0  0  0  0  0  0  0  0  0  0
    8.5837  -16.4580   25.8137 C   0  0  0  0  0  0  0  0  0  0  0  0
    9.7985  -16.6644   25.4589 O   0  0  0  0  0  0  0  0  0  0  0  0
    5.8841  -10.6637   25.6147 O   0  0  0  0  0  0  0  0  0  0  0  0
    6.6948  -11.5213   26.3747 C   0  0  0  0  0  0  0  0  0  0  0  0
    7.9109  -11.9680   25.8970 C   0  0  0  0  0  0  0  0  0  0  0  0
    8.7321  -12.8095   26.6148 C   0  0  0  0  0  0  0  0  0  0  0  0
    8.3444  -13.2475   27.8854 C   0  0  0  0  0  0  0  0  0  0  0  0
    9.1837  -14.1685   28.6752 C   0  0  0  0  0  0  0  0  0  0  0  0
    9.5715  -15.3486   27.8477 C   0  0  2  0  0  0  0  0  0  0  0  0
    8.4154  -15.8469   27.0815 N   0  0  0  0  0  0  0  0  0  0  0  0
   10.0791  -16.4369   28.6869 C   0  0  0  0  0  0  0  0  0  0  0  0
    9.5556  -17.5544   28.7999 O   0  0  0  0  0  0  0  0  0  0  0  0
    7.1095  -12.7856   28.3535 C   0  0  0  0  0  0  0  0  0  0  0  0
    6.3061  -11.9481   27.6245 C   0  0  0  0  0  0  0  0  0  0  0  0
   11.2448  -16.2274   29.4304 O   0  0  0  0  0  0  0  0  0  0  0  0
  2  3  1  0
  2  1  1  6
  3  4  1  0
  4  5  2  0
  6  5  1  0
  7  6  1  0
  8  7  2  0
  8  4  1  0
  9  2  1  0
  9 10  2  0
 11 12  1  0
 12 14  1  0
 13 12  2  0
 14 15  1  0
 16 15  1  6
 16 17  1  0
 17  9  1  0
 18 16  1  0
 18 27  1  0
 19 18  2  0
 20 21  1  0
 21 22  2  0
 21 31  1  0
 22 23  1  0
 23 24  2  0
 24 25  1  0
 26 25  1  1
 26 27  1  0
 26 28  1  0
 28 29  2  0
 28 32  1  0
 30 24  1  0
 31 30  2  0
M  END
$$$$
