WSG.pdb
     RDKit          3D

 25 26  0  0  1  0  0  0  0  0999 V2000
   24.4336  -19.6370   -9.6196 N   0  0  0  0  0  0  0  0  0  0  0  0
   25.8296  -19.9231   -9.9005 C   0  0  1  0  0  0  0  0  0  0  0  0
   26.2625  -21.1586   -9.1552 C   0  0  0  0  0  0  0  0  0  0  0  0
   26.3138  -20.8303   -7.7101 C   0  0  0  0  0  0  0  0  0  0  0  0
   25.3021  -20.8176   -6.7738 C   0  0  0  0  0  0  0  0  0  0  0  0
   25.8538  -20.4553   -5.6134 N   0  0  0  0  0  0  0  0  0  0  0  0
   27.1650  -20.2306   -5.7356 C   0  0  0  0  0  0  0  0  0  0  0  0
   28.1684  -19.8420   -4.8484 C   0  0  0  0  0  0  0  0  0  0  0  0
   29.4778  -19.6774   -5.2411 C   0  0  0  0  0  0  0  0  0  0  0  0
   29.7862  -19.9106   -6.5645 C   0  0  0  0  0  0  0  0  0  0  0  0
   28.7937  -20.2940   -7.4368 C   0  0  0  0  0  0  0  0  0  0  0  0
   27.4783  -20.4617   -7.0532 C   0  0  0  0  0  0  0  0  0  0  0  0
   25.9930  -20.1093  -11.3670 C   0  0  0  0  0  0  0  0  0  0  0  0
   24.9900  -20.1182  -12.1501 O   0  0  0  0  0  0  0  0  0  0  0  0
   29.5390  -21.4934  -13.4919 O   0  0  0  0  0  0  0  0  0  0  0  0
   28.9579  -20.2588  -13.7165 C   0  0  0  0  0  0  0  0  0  0  0  0
   27.4632  -20.2438  -13.4169 C   0  0  2  0  0  0  0  0  0  0  0  0
   27.2625  -20.2840  -11.9554 N   0  0  0  0  0  0  0  0  0  0  0  0
   26.7460  -21.3351  -14.0733 C   0  0  0  0  0  0  0  0  0  0  0  0
   26.4231  -22.3621  -13.3902 O   0  0  0  0  0  0  0  0  0  0  0  0
   26.3905  -21.3029  -15.4417 N   0  0  0  0  0  0  0  0  0  0  0  0
   25.3112  -22.1187  -15.9804 C   0  0  0  0  0  0  0  0  0  0  0  0
   25.9521  -23.3307  -16.5801 C   0  0  0  0  0  0  0  0  0  0  0  0
   25.1352  -24.1857  -17.3025 O   0  0  0  0  0  0  0  0  0  0  0  0
   27.1830  -23.5834  -16.4461 O   0  0  0  0  0  0  0  0  0  0  0  0
  2  1  1  6
  2  3  1  0
  2 13  1  0
  3  4  1  0
  4  5  2  0
  6  5  1  0
  7  6  1  0
  8  7  2  0
  9  8  1  0
 10  9  2  0
 10 11  1  0
 11 12  2  0
 12  7  1  0
 12  4  1  0
 13 14  2  0
 16 15  1  0
 17 16  1  1
 18 13  1  0
 18 17  1  0
 19 17  1  0
 19 20  2  0
 21 19  1  0
 22 21  1  0
 22 23  1  0
 23 24  1  0
 25 23  2  0
M  END
$$$$
