WSG.pdb
     RDKit          3D

 25 26  0  0  1  0  0  0  0  0999 V2000
   25.0180  -20.1621   -9.5770 N   0  0  0  0  0  0  0  0  0  0  0  0
   26.4701  -20.1924   -9.5640 C   0  0  1  0  0  0  0  0  0  0  0  0
   26.9549  -21.2408   -8.5969 C   0  0  0  0  0  0  0  0  0  0  0  0
   26.5779  -20.8141   -7.2278 C   0  0  0  0  0  0  0  0  0  0  0  0
   25.3565  -20.8755   -6.5916 C   0  0  0  0  0  0  0  0  0  0  0  0
   25.5309  -20.3666   -5.3698 N   0  0  0  0  0  0  0  0  0  0  0  0
   26.7929  -19.9766   -5.1698 C   0  0  0  0  0  0  0  0  0  0  0  0
   27.4701  -19.3991   -4.0961 C   0  0  0  0  0  0  0  0  0  0  0  0
   28.8099  -19.0866   -4.1506 C   0  0  0  0  0  0  0  0  0  0  0  0
   29.4876  -19.3632   -5.3190 C   0  0  0  0  0  0  0  0  0  0  0  0
   28.8162  -19.9329   -6.3761 C   0  0  0  0  0  0  0  0  0  0  0  0
   27.4734  -20.2499   -6.3317 C   0  0  0  0  0  0  0  0  0  0  0  0
   26.9539  -20.4824  -10.9401 C   0  0  0  0  0  0  0  0  0  0  0  0
   28.1458  -20.8728  -11.1555 O   0  0  0  0  0  0  0  0  0  0  0  0
   24.4212  -21.1065  -14.2462 O   0  0  0  0  0  0  0  0  0  0  0  0
   25.7499  -21.4864  -14.1930 C   0  0  0  0  0  0  0  0  0  0  0  0
   26.6231  -20.4855  -13.4446 C   0  0  2  0  0  0  0  0  0  0  0  0
   26.1172  -20.3386  -12.0660 N   0  0  0  0  0  0  0  0  0  0  0  0
   26.6963  -19.1892  -14.1156 C   0  0  0  0  0  0  0  0  0  0  0  0
   25.7724  -18.3345  -13.9122 O   0  0  0  0  0  0  0  0  0  0  0  0
   27.7538  -18.8371  -14.9860 N   0  0  0  0  0  0  0  0  0  0  0  0
   27.8347  -17.5261  -15.6150 C   0  0  0  0  0  0  0  0  0  0  0  0
   27.1646  -17.6510  -16.9472 C   0  0  0  0  0  0  0  0  0  0  0  0
   26.2765  -16.6490  -17.3044 O   0  0  0  0  0  0  0  0  0  0  0  0
   27.3839  -18.6196  -17.7285 O   0  0  0  0  0  0  0  0  0  0  0  0
  2  1  1  6
  2  3  1  0
  2 13  1  0
  3  4  1  0
  4  5  2  0
  6  5  1  0
  7  6  1  0
  8  7  2  0
  9  8  1  0
 10  9  2  0
 10 11  1  0
 11 12  2  0
 12  7  1  0
 12  4  1  0
 13 14  2  0
 16 15  1  0
 17 16  1  6
 18 13  1  0
 18 17  1  0
 19 17  1  0
 19 20  2  0
 21 19  1  0
 22 21  1  0
 22 23  1  0
 23 24  1  0
 25 23  2  0
M  END
$$$$
