WSG.pdb
     RDKit          3D

 25 26  0  0  1  0  0  0  0  0999 V2000
   24.5125  -31.7345   -9.5667 N   0  0  0  0  0  0  0  0  0  0  0  0
   25.3203  -32.8940   -9.2312 C   0  0  1  0  0  0  0  0  0  0  0  0
   24.6414  -33.7013   -8.1556 C   0  0  0  0  0  0  0  0  0  0  0  0
   24.9916  -33.1065   -6.8432 C   0  0  0  0  0  0  0  0  0  0  0  0
   24.1968  -32.4285   -5.9438 C   0  0  0  0  0  0  0  0  0  0  0  0
   24.9776  -32.0929   -4.9143 N   0  0  0  0  0  0  0  0  0  0  0  0
   26.2345  -32.5110   -5.0873 C   0  0  0  0  0  0  0  0  0  0  0  0
   27.4003  -32.4170   -4.3277 C   0  0  0  0  0  0  0  0  0  0  0  0
   28.5992  -32.9486   -4.7468 C   0  0  0  0  0  0  0  0  0  0  0  0
   28.6258  -33.5934   -5.9652 C   0  0  0  0  0  0  0  0  0  0  0  0
   27.4737  -33.6843   -6.7118 C   0  0  0  0  0  0  0  0  0  0  0  0
   26.2670  -33.1547   -6.3007 C   0  0  0  0  0  0  0  0  0  0  0  0
   25.5149  -33.7114  -10.4584 C   0  0  0  0  0  0  0  0  0  0  0  0
   24.8063  -33.5246  -11.4988 O   0  0  0  0  0  0  0  0  0  0  0  0
   28.1571  -36.8242  -10.2943 O   0  0  0  0  0  0  0  0  0  0  0  0
   27.9722  -36.3589  -11.5834 C   0  0  0  0  0  0  0  0  0  0  0  0
   26.6961  -35.5397  -11.7406 C   0  0  2  0  0  0  0  0  0  0  0  0
   26.4901  -34.7277  -10.5256 N   0  0  0  0  0  0  0  0  0  0  0  0
   25.5253  -36.3685  -12.0203 C   0  0  0  0  0  0  0  0  0  0  0  0
   24.7081  -36.6236  -11.0754 O   0  0  0  0  0  0  0  0  0  0  0  0
   25.2552  -36.9035  -13.3012 N   0  0  0  0  0  0  0  0  0  0  0  0
   24.0352  -37.6450  -13.5888 C   0  0  0  0  0  0  0  0  0  0  0  0
   24.1419  -38.9427  -12.8514 C   0  0  0  0  0  0  0  0  0  0  0  0
   22.9841  -39.4380  -12.2730 O   0  0  0  0  0  0  0  0  0  0  0  0
   25.2302  -39.5764  -12.7478 O   0  0  0  0  0  0  0  0  0  0  0  0
  2  1  1  6
  2  3  1  0
  2 13  1  0
  3  4  1  0
  4  5  2  0
  6  5  1  0
  7  6  1  0
  8  7  2  0
  9  8  1  0
 10  9  2  0
 10 11  1  0
 11 12  2  0
 12  7  1  0
 12  4  1  0
 13 14  2  0
 16 15  1  0
 17 16  1  1
 18 13  1  0
 18 17  1  0
 19 17  1  0
 19 20  2  0
 21 19  1  0
 22 21  1  0
 22 23  1  0
 23 24  1  0
 25 23  2  0
M  END
$$$$
