WSG.pdb
     RDKit          3D

 25 26  0  0  1  0  0  0  0  0999 V2000
   27.4963  -22.0893  -14.0447 N   0  0  0  0  0  0  0  0  0  0  0  0
   26.3272  -21.7466  -13.2538 C   0  0  1  0  0  0  0  0  0  0  0  0
   26.5215  -20.4019  -12.6031 C   0  0  0  0  0  0  0  0  0  0  0  0
   26.5664  -20.6030  -11.1347 C   0  0  0  0  0  0  0  0  0  0  0  0
   25.5425  -20.5841  -10.2119 C   0  0  0  0  0  0  0  0  0  0  0  0
   26.0933  -20.8174   -9.0185 N   0  0  0  0  0  0  0  0  0  0  0  0
   27.4154  -20.9877   -9.1064 C   0  0  0  0  0  0  0  0  0  0  0  0
   28.4227  -21.2488   -8.1780 C   0  0  0  0  0  0  0  0  0  0  0  0
   29.7442  -21.3826   -8.5407 C   0  0  0  0  0  0  0  0  0  0  0  0
   30.0610  -21.2498   -9.8759 C   0  0  0  0  0  0  0  0  0  0  0  0
   29.0646  -20.9922  -10.7890 C   0  0  0  0  0  0  0  0  0  0  0  0
   27.7370  -20.8563  -10.4357 C   0  0  0  0  0  0  0  0  0  0  0  0
   25.1359  -21.7329  -14.1441 C   0  0  0  0  0  0  0  0  0  0  0  0
   25.0607  -20.9430  -15.1390 O   0  0  0  0  0  0  0  0  0  0  0  0
   21.7932  -24.2305  -13.3794 O   0  0  0  0  0  0  0  0  0  0  0  0
   22.1678  -23.9710  -14.6850 C   0  0  0  0  0  0  0  0  0  0  0  0
   22.8811  -22.6329  -14.8424 C   0  0  2  0  0  0  0  0  0  0  0  0
   24.0385  -22.5915  -13.9276 N   0  0  0  0  0  0  0  0  0  0  0  0
   21.9955  -21.4923  -14.6170 C   0  0  0  0  0  0  0  0  0  0  0  0
   21.9868  -20.9331  -13.4712 O   0  0  0  0  0  0  0  0  0  0  0  0
   21.1423  -20.9765  -15.6199 N   0  0  0  0  0  0  0  0  0  0  0  0
   20.2102  -19.8885  -15.3587 C   0  0  0  0  0  0  0  0  0  0  0  0
   19.0139  -20.5013  -14.7011 C   0  0  0  0  0  0  0  0  0  0  0  0
   17.7821  -20.2779  -15.2953 O   0  0  0  0  0  0  0  0  0  0  0  0
   19.0998  -21.1959  -13.6490 O   0  0  0  0  0  0  0  0  0  0  0  0
  2  1  1  6
  2  3  1  0
  2 13  1  0
  3  4  1  0
  4  5  2  0
  6  5  1  0
  7  6  1  0
  8  7  2  0
  9  8  1  0
 10  9  2  0
 10 11  1  0
 11 12  2  0
 12  7  1  0
 12  4  1  0
 13 14  2  0
 16 15  1  0
 17 16  1  1
 18 13  1  0
 18 17  1  0
 19 17  1  0
 19 20  2  0
 21 19  1  0
 22 21  1  0
 22 23  1  0
 23 24  1  0
 25 23  2  0
M  END
$$$$
