WSG.pdb
     RDKit          3D

 25 26  0  0  1  0  0  0  0  0999 V2000
   28.2203  -21.6317  -10.8201 N   0  0  0  0  0  0  0  0  0  0  0  0
   27.0290  -21.0746  -10.2037 C   0  0  1  0  0  0  0  0  0  0  0  0
   27.3851  -19.8402   -9.4170 C   0  0  0  0  0  0  0  0  0  0  0  0
   28.3922  -20.2189   -8.3967 C   0  0  0  0  0  0  0  0  0  0  0  0
   29.6562  -20.7443   -8.5600 C   0  0  0  0  0  0  0  0  0  0  0  0
   30.1657  -20.9127   -7.3376 N   0  0  0  0  0  0  0  0  0  0  0  0
   29.3105  -20.5288   -6.3858 C   0  0  0  0  0  0  0  0  0  0  0  0
   29.3596  -20.5020   -4.9923 C   0  0  0  0  0  0  0  0  0  0  0  0
   28.3114  -20.0450   -4.2255 C   0  0  0  0  0  0  0  0  0  0  0  0
   27.1813  -19.6023   -4.8797 C   0  0  0  0  0  0  0  0  0  0  0  0
   27.1365  -19.6302   -6.2545 C   0  0  0  0  0  0  0  0  0  0  0  0
   28.1818  -20.0864   -7.0323 C   0  0  0  0  0  0  0  0  0  0  0  0
   26.0453  -20.7520  -11.2715 C   0  0  0  0  0  0  0  0  0  0  0  0
   26.2943  -19.8752  -12.1596 O   0  0  0  0  0  0  0  0  0  0  0  0
   24.1361  -23.4077  -12.8290 O   0  0  0  0  0  0  0  0  0  0  0  0
   23.6322  -22.2236  -13.3353 C   0  0  0  0  0  0  0  0  0  0  0  0
   23.7918  -21.0519  -12.3731 C   0  0  2  0  0  0  0  0  0  0  0  0
   24.7956  -21.4006  -11.3490 N   0  0  0  0  0  0  0  0  0  0  0  0
   22.5288  -20.6554  -11.7536 C   0  0  0  0  0  0  0  0  0  0  0  0
   22.0877  -21.3274  -10.7639 O   0  0  0  0  0  0  0  0  0  0  0  0
   21.7688  -19.5515  -12.2050 N   0  0  0  0  0  0  0  0  0  0  0  0
   21.1188  -19.5402  -13.5081 C   0  0  0  0  0  0  0  0  0  0  0  0
   19.7048  -19.9751  -13.2824 C   0  0  0  0  0  0  0  0  0  0  0  0
   19.4559  -21.3383  -13.2778 O   0  0  0  0  0  0  0  0  0  0  0  0
   18.7629  -19.1524  -13.1019 O   0  0  0  0  0  0  0  0  0  0  0  0
  2  1  1  6
  2  3  1  0
  2 13  1  0
  3  4  1  0
  4  5  2  0
  6  5  1  0
  7  6  1  0
  8  7  2  0
  9  8  1  0
 10  9  2  0
 10 11  1  0
 11 12  2  0
 12  7  1  0
 12  4  1  0
 13 14  2  0
 16 15  1  0
 17 16  1  6
 18 13  1  0
 18 17  1  0
 19 17  1  0
 19 20  2  0
 21 19  1  0
 22 21  1  0
 22 23  1  0
 23 24  1  0
 25 23  2  0
M  END
$$$$
