CTH.pdb
     RDKit          3D

 24 24  0  0  1  0  0  0  0  0999 V2000
   18.8295  -13.7324  -16.2141 N   0  0  0  0  0  0  0  0  0  0  0  0
   18.2018  -12.4385  -16.1221 C   0  0  1  0  0  0  0  0  0  0  0  0
   17.3991  -12.3030  -14.8219 C   0  0  0  0  0  0  0  0  0  0  0  0
   16.0983  -13.5270  -14.7677 S   0  0  0  0  0  0  0  0  0  0  0  0
   19.2219  -11.3573  -16.1975 C   0  0  0  0  0  0  0  0  0  0  0  0
   20.3667  -11.5263  -15.7049 O   0  0  0  0  0  0  0  0  0  0  0  0
   20.1609   -9.6080  -19.4484 C   0  0  0  0  0  0  0  0  0  0  0  0
   19.8661   -8.5501  -18.4097 C   0  0  1  0  0  0  0  0  0  0  0  0
   18.5909   -8.0253  -18.6130 O   0  0  0  0  0  0  0  0  0  0  0  0
   20.0220   -9.1192  -17.0022 C   0  0  2  0  0  0  0  0  0  0  0  0
   18.9694  -10.0979  -16.8164 N   0  0  0  0  0  0  0  0  0  0  0  0
   20.0261   -8.0786  -15.9800 C   0  0  0  0  0  0  0  0  0  0  0  0
   19.0095   -7.8876  -15.2717 O   0  0  0  0  0  0  0  0  0  0  0  0
   21.1684   -7.2696  -15.7682 N   0  0  0  0  0  0  0  0  0  0  0  0
   21.1073   -6.1789  -14.7604 C   0  0  1  0  0  0  0  0  0  0  0  0
   22.4417   -6.1229  -14.1090 C   0  0  0  0  0  0  0  0  0  0  0  0
   23.6000   -5.9181  -14.9682 C   0  0  0  0  0  0  0  0  0  0  0  0
   24.4514   -6.7287  -15.6514 C   0  0  0  0  0  0  0  0  0  0  0  0
   25.3472   -5.9837  -16.3391 N   0  0  0  0  0  0  0  0  0  0  0  0
   25.0540   -4.6945  -16.0855 C   0  0  0  0  0  0  0  0  0  0  0  0
   24.0129   -4.6374  -15.2685 N   0  0  0  0  0  0  0  0  0  0  0  0
   20.9030   -4.9487  -15.6024 C   0  0  0  0  0  0  0  0  0  0  0  0
   20.9579   -4.9538  -16.8541 O   0  0  0  0  0  0  0  0  0  0  0  0
   20.6421   -3.7525  -14.9744 O   0  0  0  0  0  0  0  0  0  0  0  0
  2  5  1  0
  2  1  1  1
  2  3  1  0
  4  3  1  0
  5  6  2  0
  8  7  1  6
  8 10  1  0
  9  8  1  0
 10 12  1  0
 11  5  1  0
 10 11  1  1
 12 14  1  0
 12 13  2  0
 14 15  1  0
 15 22  1  0
 15 16  1  6
 17 16  1  0
 17 18  2  0
 19 18  1  0
 20 21  2  0
 20 19  1  0
 21 17  1  0
 22 23  2  0
 22 24  1  0
M  END
$$$$
