CTH.pdb
     RDKit          3D

 24 24  0  0  1  0  0  0  0  0999 V2000
   26.6249  -15.9542  -17.1469 N   0  0  0  0  0  0  0  0  0  0  0  0
   25.7598  -15.9192  -15.9949 C   0  0  1  0  0  0  0  0  0  0  0  0
   25.5271  -14.4792  -15.5201 C   0  0  0  0  0  0  0  0  0  0  0  0
   27.0202  -13.8185  -14.7939 S   0  0  0  0  0  0  0  0  0  0  0  0
   24.4541  -16.5635  -16.3034 C   0  0  0  0  0  0  0  0  0  0  0  0
   23.8104  -16.2371  -17.3336 O   0  0  0  0  0  0  0  0  0  0  0  0
   23.9368  -19.9820  -17.0863 C   0  0  0  0  0  0  0  0  0  0  0  0
   22.9660  -19.7282  -15.9557 C   0  0  1  0  0  0  0  0  0  0  0  0
   23.4824  -20.2311  -14.7627 O   0  0  0  0  0  0  0  0  0  0  0  0
   22.6442  -18.2404  -15.8461 C   0  0  2  0  0  0  0  0  0  0  0  0
   23.8696  -17.5631  -15.4716 N   0  0  0  0  0  0  0  0  0  0  0  0
   21.5394  -17.9774  -14.9307 C   0  0  0  0  0  0  0  0  0  0  0  0
   21.7685  -17.7101  -13.7275 O   0  0  0  0  0  0  0  0  0  0  0  0
   20.1969  -18.0182  -15.3781 N   0  0  0  0  0  0  0  0  0  0  0  0
   19.1009  -17.7705  -14.4051 C   0  0  1  0  0  0  0  0  0  0  0  0
   18.2253  -16.7293  -15.0027 C   0  0  0  0  0  0  0  0  0  0  0  0
   18.6420  -15.3406  -14.8631 C   0  0  0  0  0  0  0  0  0  0  0  0
   19.6594  -14.6962  -14.2319 C   0  0  0  0  0  0  0  0  0  0  0  0
   19.5868  -13.3673  -14.4756 N   0  0  0  0  0  0  0  0  0  0  0  0
   18.5147  -13.1773  -15.2675 C   0  0  0  0  0  0  0  0  0  0  0  0
   17.9392  -14.3457  -15.5087 N   0  0  0  0  0  0  0  0  0  0  0  0
   18.3722  -19.0866  -14.3714 C   0  0  0  0  0  0  0  0  0  0  0  0
   18.6393  -20.0416  -15.1371 O   0  0  0  0  0  0  0  0  0  0  0  0
   17.3591  -19.2590  -13.4563 O   0  0  0  0  0  0  0  0  0  0  0  0
  2  5  1  0
  2  1  1  6
  2  3  1  0
  4  3  1  0
  5  6  2  0
  8  7  1  6
  8 10  1  0
  9  8  1  0
 10 12  1  0
 11  5  1  0
 10 11  1  1
 12 14  1  0
 12 13  2  0
 14 15  1  0
 15 22  1  0
 15 16  1  6
 17 16  1  0
 17 18  2  0
 19 18  1  0
 20 21  2  0
 20 19  1  0
 21 17  1  0
 22 23  2  0
 22 24  1  0
M  END
$$$$
