CTH.pdb
     RDKit          3D

 24 24  0  0  1  0  0  0  0  0999 V2000
   21.8323  -12.3263  -18.8326 N   0  0  0  0  0  0  0  0  0  0  0  0
   20.8264  -12.1186  -17.8218 C   0  0  1  0  0  0  0  0  0  0  0  0
   20.3906  -13.4478  -17.1921 C   0  0  0  0  0  0  0  0  0  0  0  0
   20.2588  -14.7129  -18.4472 S   0  0  0  0  0  0  0  0  0  0  0  0
   21.3323  -11.2032  -16.7628 C   0  0  0  0  0  0  0  0  0  0  0  0
   20.6736  -11.0262  -15.7061 O   0  0  0  0  0  0  0  0  0  0  0  0
   24.6411  -11.1935  -14.9901 C   0  0  0  0  0  0  0  0  0  0  0  0
   24.4608   -9.8155  -15.5849 C   0  0  1  0  0  0  0  0  0  0  0  0
   25.2392   -9.6872  -16.7340 O   0  0  0  0  0  0  0  0  0  0  0  0
   22.9869   -9.5410  -15.8706 C   0  0  2  0  0  0  0  0  0  0  0  0
   22.5617  -10.4906  -16.8795 N   0  0  0  0  0  0  0  0  0  0  0  0
   22.7440   -8.1534  -16.2487 C   0  0  0  0  0  0  0  0  0  0  0  0
   22.9148   -7.7846  -17.4347 O   0  0  0  0  0  0  0  0  0  0  0  0
   22.3139   -7.2021  -15.2925 N   0  0  0  0  0  0  0  0  0  0  0  0
   22.0706   -5.8005  -15.7233 C   0  0  1  0  0  0  0  0  0  0  0  0
   20.5986   -5.6413  -15.8502 C   0  0  0  0  0  0  0  0  0  0  0  0
   19.9791   -6.0913  -17.0893 C   0  0  0  0  0  0  0  0  0  0  0  0
   20.4215   -6.3727  -18.3439 C   0  0  0  0  0  0  0  0  0  0  0  0
   19.3933   -6.8024  -19.1111 N   0  0  0  0  0  0  0  0  0  0  0  0
   18.2968   -6.7912  -18.3302 C   0  0  0  0  0  0  0  0  0  0  0  0
   18.6290   -6.3692  -17.1194 N   0  0  0  0  0  0  0  0  0  0  0  0
   22.5680   -4.9941  -14.5543 C   0  0  0  0  0  0  0  0  0  0  0  0
   22.6288   -3.7427  -14.5569 O   0  0  0  0  0  0  0  0  0  0  0  0
   22.9793   -5.6563  -13.4204 O   0  0  0  0  0  0  0  0  0  0  0  0
  2  5  1  0
  2  1  1  6
  2  3  1  0
  4  3  1  0
  5  6  2  0
  8  7  1  6
  8 10  1  0
  9  8  1  0
 10 12  1  0
 11  5  1  0
 10 11  1  6
 12 14  1  0
 12 13  2  0
 14 15  1  0
 15 22  1  0
 15 16  1  1
 17 16  1  0
 17 18  2  0
 19 18  1  0
 20 21  2  0
 20 19  1  0
 21 17  1  0
 22 23  2  0
 22 24  1  0
M  END
$$$$
