CTH.pdb
     RDKit          3D

 24 24  0  0  1  0  0  0  0  0999 V2000
   28.0179  -20.3175  -16.3189 N   0  0  0  0  0  0  0  0  0  0  0  0
   26.5862  -20.3083  -16.4826 C   0  0  1  0  0  0  0  0  0  0  0  0
   25.9656  -21.6285  -16.0079 C   0  0  0  0  0  0  0  0  0  0  0  0
   26.4617  -22.9669  -17.0830 S   0  0  0  0  0  0  0  0  0  0  0  0
   25.9829  -19.1721  -15.7342 C   0  0  0  0  0  0  0  0  0  0  0  0
   26.3298  -18.9343  -14.5488 O   0  0  0  0  0  0  0  0  0  0  0  0
   26.8152  -16.2744  -15.2364 C   0  0  0  0  0  0  0  0  0  0  0  0
   25.4639  -15.9996  -15.8558 C   0  0  1  0  0  0  0  0  0  0  0  0
   25.6056  -15.7624  -17.2220 O   0  0  0  0  0  0  0  0  0  0  0  0
   24.5017  -17.1522  -15.5822 C   0  0  2  0  0  0  0  0  0  0  0  0
   25.0011  -18.3074  -16.3010 N   0  0  0  0  0  0  0  0  0  0  0  0
   23.1231  -16.8166  -15.9205 C   0  0  0  0  0  0  0  0  0  0  0  0
   22.6193  -17.2290  -16.9918 O   0  0  0  0  0  0  0  0  0  0  0  0
   22.3320  -16.0250  -15.0535 N   0  0  0  0  0  0  0  0  0  0  0  0
   20.9217  -15.7346  -15.4221 C   0  0  1  0  0  0  0  0  0  0  0  0
   20.1278  -15.8090  -14.1682 C   0  0  0  0  0  0  0  0  0  0  0  0
   18.7269  -15.4157  -14.2363 C   0  0  0  0  0  0  0  0  0  0  0  0
   17.8975  -14.9614  -15.2133 C   0  0  0  0  0  0  0  0  0  0  0  0
   16.6503  -14.7894  -14.7180 N   0  0  0  0  0  0  0  0  0  0  0  0
   16.6982  -15.1400  -13.4190 C   0  0  0  0  0  0  0  0  0  0  0  0
   17.9311  -15.5168  -13.1150 N   0  0  0  0  0  0  0  0  0  0  0  0
   20.9815  -14.3089  -15.8996 C   0  0  0  0  0  0  0  0  0  0  0  0
   20.0314  -13.7376  -16.4832 O   0  0  0  0  0  0  0  0  0  0  0  0
   22.1345  -13.5881  -15.6889 O   0  0  0  0  0  0  0  0  0  0  0  0
  2  5  1  0
  2  1  1  1
  2  3  1  0
  4  3  1  0
  5  6  2  0
  8  7  1  6
  8 10  1  0
  9  8  1  0
 10 12  1  0
 11  5  1  0
 10 11  1  6
 12 14  1  0
 12 13  2  0
 14 15  1  0
 15 22  1  0
 15 16  1  1
 17 16  1  0
 17 18  2  0
 19 18  1  0
 20 21  2  0
 20 19  1  0
 21 17  1  0
 22 23  2  0
 22 24  1  0
M  END
$$$$
