CTH.pdb
     RDKit          3D

 24 24  0  0  1  0  0  0  0  0999 V2000
   27.5733  -21.4397  -12.4373 N   0  0  0  0  0  0  0  0  0  0  0  0
   26.4087  -21.4627  -11.5889 C   0  0  1  0  0  0  0  0  0  0  0  0
   26.7045  -20.8279  -10.2240 C   0  0  0  0  0  0  0  0  0  0  0  0
   25.2524  -20.8912   -9.1846 S   0  0  0  0  0  0  0  0  0  0  0  0
   25.2754  -20.7500  -12.2392 C   0  0  0  0  0  0  0  0  0  0  0  0
   25.2169  -19.4937  -12.2182 O   0  0  0  0  0  0  0  0  0  0  0  0
   24.6201  -20.1590  -15.4252 C   0  0  0  0  0  0  0  0  0  0  0  0
   23.3011  -20.7786  -15.0234 C   0  0  1  0  0  0  0  0  0  0  0  0
   23.2290  -22.0899  -15.4905 O   0  0  0  0  0  0  0  0  0  0  0  0
   23.1124  -20.7096  -13.5105 C   0  0  2  0  0  0  0  0  0  0  0  0
   24.2156  -21.4304  -12.9075 N   0  0  0  0  0  0  0  0  0  0  0  0
   21.8055  -21.2033  -13.0911 C   0  0  0  0  0  0  0  0  0  0  0  0
   21.7103  -22.2961  -12.4840 O   0  0  0  0  0  0  0  0  0  0  0  0
   20.6274  -20.4653  -13.3586 N   0  0  0  0  0  0  0  0  0  0  0  0
   19.3113  -21.0339  -12.9664 C   0  0  1  0  0  0  0  0  0  0  0  0
   19.0627  -20.6098  -11.5641 C   0  0  0  0  0  0  0  0  0  0  0  0
   19.3440  -21.5758  -10.5108 C   0  0  0  0  0  0  0  0  0  0  0  0
   19.8456  -22.8389  -10.4672 C   0  0  0  0  0  0  0  0  0  0  0  0
   19.9322  -23.2579   -9.1837 N   0  0  0  0  0  0  0  0  0  0  0  0
   19.4817  -22.2480   -8.4158 C   0  0  0  0  0  0  0  0  0  0  0  0
   19.1266  -21.2355   -9.1926 N   0  0  0  0  0  0  0  0  0  0  0  0
   18.3496  -20.3311  -13.8858 C   0  0  0  0  0  0  0  0  0  0  0  0
   17.3370  -20.8828  -14.3757 O   0  0  0  0  0  0  0  0  0  0  0  0
   18.5862  -19.0151  -14.2108 O   0  0  0  0  0  0  0  0  0  0  0  0
  2  5  1  0
  2  1  1  6
  2  3  1  0
  4  3  1  0
  5  6  2  0
  8  7  1  1
  8 10  1  0
  9  8  1  0
 10 12  1  0
 11  5  1  0
 10 11  1  1
 12 14  1  0
 12 13  2  0
 14 15  1  0
 15 22  1  0
 15 16  1  1
 17 16  1  0
 17 18  2  0
 19 18  1  0
 20 21  2  0
 20 19  1  0
 21 17  1  0
 22 23  2  0
 22 24  1  0
M  END
$$$$
