CTH.pdb
     RDKit          3D

 24 24  0  0  1  0  0  0  0  0999 V2000
   25.8612  -15.4545  -15.2965 N   0  0  0  0  0  0  0  0  0  0  0  0
   24.8350  -14.7505  -16.0232 C   0  0  1  0  0  0  0  0  0  0  0  0
   23.5354  -15.5640  -16.0752 C   0  0  0  0  0  0  0  0  0  0  0  0
   23.8800  -17.2501  -16.5563 S   0  0  0  0  0  0  0  0  0  0  0  0
   24.5724  -13.4239  -15.4016 C   0  0  0  0  0  0  0  0  0  0  0  0
   24.2316  -13.3427  -14.1936 O   0  0  0  0  0  0  0  0  0  0  0  0
   26.8283  -10.6318  -14.9253 C   0  0  0  0  0  0  0  0  0  0  0  0
   25.6511  -10.0496  -15.6738 C   0  0  1  0  0  0  0  0  0  0  0  0
   25.9737   -9.8926  -17.0207 O   0  0  0  0  0  0  0  0  0  0  0  0
   24.4119  -10.9212  -15.4904 C   0  0  2  0  0  0  0  0  0  0  0  0
   24.6884  -12.1974  -16.1193 N   0  0  0  0  0  0  0  0  0  0  0  0
   23.2030  -10.2810  -15.9966 C   0  0  0  0  0  0  0  0  0  0  0  0
   22.7064  -10.6469  -17.0880 O   0  0  0  0  0  0  0  0  0  0  0  0
   22.5708   -9.2418  -15.2723 N   0  0  0  0  0  0  0  0  0  0  0  0
   21.2746   -8.7028  -15.7606 C   0  0  1  0  0  0  0  0  0  0  0  0
   20.2734   -9.7898  -15.6053 C   0  0  0  0  0  0  0  0  0  0  0  0
   18.8774   -9.4575  -15.8556 C   0  0  0  0  0  0  0  0  0  0  0  0
   18.2109   -8.3601  -16.3031 C   0  0  0  0  0  0  0  0  0  0  0  0
   16.8866   -8.6249  -16.3845 N   0  0  0  0  0  0  0  0  0  0  0  0
   16.7217   -9.9000  -15.9853 C   0  0  0  0  0  0  0  0  0  0  0  0
   17.9009  -10.4121  -15.6660 N   0  0  0  0  0  0  0  0  0  0  0  0
   20.9767   -7.5970  -14.7846 C   0  0  0  0  0  0  0  0  0  0  0  0
   21.6212   -7.4217  -13.7245 O   0  0  0  0  0  0  0  0  0  0  0  0
   19.9456   -6.7291  -15.0620 O   0  0  0  0  0  0  0  0  0  0  0  0
  2  5  1  0
  2  1  1  1
  2  3  1  0
  4  3  1  0
  5  6  2  0
  8  7  1  1
  8 10  1  0
  9  8  1  0
 10 12  1  0
 11  5  1  0
 10 11  1  6
 12 14  1  0
 12 13  2  0
 14 15  1  0
 15 22  1  0
 15 16  1  1
 17 16  1  0
 17 18  2  0
 19 18  1  0
 20 21  2  0
 20 19  1  0
 21 17  1  0
 22 23  2  0
 22 24  1  0
M  END
$$$$
