CTH.pdb
     RDKit          3D

 24 24  0  0  1  0  0  0  0  0999 V2000
   27.3572  -14.6204  -16.9481 N   0  0  0  0  0  0  0  0  0  0  0  0
   27.2596  -13.6209  -17.9816 C   0  0  1  0  0  0  0  0  0  0  0  0
   25.9158  -13.7123  -18.7160 C   0  0  0  0  0  0  0  0  0  0  0  0
   25.6741  -15.3615  -19.3602 S   0  0  0  0  0  0  0  0  0  0  0  0
   27.4259  -12.2582  -17.4067 C   0  0  0  0  0  0  0  0  0  0  0  0
   27.0162  -12.0025  -16.2453 O   0  0  0  0  0  0  0  0  0  0  0  0
   30.1525   -9.5936  -19.0842 C   0  0  0  0  0  0  0  0  0  0  0  0
   29.7087   -9.5344  -17.6404 C   0  0  1  0  0  0  0  0  0  0  0  0
   29.9859   -8.2763  -17.1082 O   0  0  0  0  0  0  0  0  0  0  0  0
   28.2279   -9.8830  -17.5175 C   0  0  2  0  0  0  0  0  0  0  0  0
   28.0435  -11.1886  -18.1191 N   0  0  0  0  0  0  0  0  0  0  0  0
   27.3665   -8.8573  -18.0949 C   0  0  0  0  0  0  0  0  0  0  0  0
   27.3408   -8.6820  -19.3360 O   0  0  0  0  0  0  0  0  0  0  0  0
   26.5484   -8.0453  -17.2730 N   0  0  0  0  0  0  0  0  0  0  0  0
   25.6445   -7.0504  -17.9073 C   0  0  1  0  0  0  0  0  0  0  0  0
   24.6530   -7.8195  -18.7033 C   0  0  0  0  0  0  0  0  0  0  0  0
   23.5998   -7.0671  -19.3715 C   0  0  0  0  0  0  0  0  0  0  0  0
   23.3314   -5.7490  -19.5702 C   0  0  0  0  0  0  0  0  0  0  0  0
   22.2108   -5.6127  -20.3160 N   0  0  0  0  0  0  0  0  0  0  0  0
   21.7734   -6.8566  -20.5880 C   0  0  0  0  0  0  0  0  0  0  0  0
   22.5917   -7.7371  -20.0315 N   0  0  0  0  0  0  0  0  0  0  0  0
   24.9613   -6.4116  -16.7286 C   0  0  0  0  0  0  0  0  0  0  0  0
   25.1929   -6.7340  -15.5402 O   0  0  0  0  0  0  0  0  0  0  0  0
   24.0332   -5.4219  -16.9579 O   0  0  0  0  0  0  0  0  0  0  0  0
  2  5  1  0
  2  1  1  1
  2  3  1  0
  4  3  1  0
  5  6  2  0
  8  7  1  6
  8 10  1  0
  9  8  1  0
 10 12  1  0
 11  5  1  0
 10 11  1  6
 12 14  1  0
 12 13  2  0
 14 15  1  0
 15 22  1  0
 15 16  1  6
 17 16  1  0
 17 18  2  0
 19 18  1  0
 20 21  2  0
 20 19  1  0
 21 17  1  0
 22 23  2  0
 22 24  1  0
M  END
$$$$
