CTH.pdb
     RDKit          3D

 24 24  0  0  1  0  0  0  0  0999 V2000
   26.7778  -12.0936  -16.6432 N   0  0  0  0  0  0  0  0  0  0  0  0
   26.3917  -10.7513  -16.2887 C   0  0  1  0  0  0  0  0  0  0  0  0
   27.1536   -9.7160  -17.1259 C   0  0  0  0  0  0  0  0  0  0  0  0
   28.8697   -9.6622  -16.6309 S   0  0  0  0  0  0  0  0  0  0  0  0
   24.9264  -10.5646  -16.4712 C   0  0  0  0  0  0  0  0  0  0  0  0
   24.3565  -10.9785  -17.5132 O   0  0  0  0  0  0  0  0  0  0  0  0
   22.0543  -11.8923  -14.7130 C   0  0  0  0  0  0  0  0  0  0  0  0
   21.9323  -10.3898  -14.6002 C   0  0  1  0  0  0  0  0  0  0  0  0
   22.3838   -9.9678  -13.3508 O   0  0  0  0  0  0  0  0  0  0  0  0
   22.6887   -9.7016  -15.7332 C   0  0  2  0  0  0  0  0  0  0  0  0
   24.1022   -9.9223  -15.5012 N   0  0  0  0  0  0  0  0  0  0  0  0
   22.3400   -8.2907  -15.8566 C   0  0  0  0  0  0  0  0  0  0  0  0
   23.0214   -7.4196  -15.2662 O   0  0  0  0  0  0  0  0  0  0  0  0
   21.2343   -7.8790  -16.6390 N   0  0  0  0  0  0  0  0  0  0  0  0
   20.8290   -6.4490  -16.6252 C   0  0  1  0  0  0  0  0  0  0  0  0
   20.0926   -6.2008  -17.8917 C   0  0  0  0  0  0  0  0  0  0  0  0
   19.5955   -4.8518  -18.1259 C   0  0  0  0  0  0  0  0  0  0  0  0
   20.1423   -3.6068  -18.1234 C   0  0  0  0  0  0  0  0  0  0  0  0
   19.2055   -2.6898  -18.4579 N   0  0  0  0  0  0  0  0  0  0  0  0
   18.0614   -3.3662  -18.6729 C   0  0  0  0  0  0  0  0  0  0  0  0
   18.2769   -4.6587  -18.4791 N   0  0  0  0  0  0  0  0  0  0  0  0
   19.8760   -6.3768  -15.4630 C   0  0  0  0  0  0  0  0  0  0  0  0
   19.3299   -7.3843  -14.9564 O   0  0  0  0  0  0  0  0  0  0  0  0
   19.5832   -5.1457  -14.9225 O   0  0  0  0  0  0  0  0  0  0  0  0
  2  5  1  0
  2  1  1  6
  2  3  1  0
  4  3  1  0
  5  6  2  0
  8  7  1  1
  8 10  1  0
  9  8  1  0
 10 12  1  0
 11  5  1  0
 10 11  1  1
 12 14  1  0
 12 13  2  0
 14 15  1  0
 15 22  1  0
 15 16  1  6
 17 16  1  0
 17 18  2  0
 19 18  1  0
 20 21  2  0
 20 19  1  0
 21 17  1  0
 22 23  2  0
 22 24  1  0
M  END
$$$$
