CTH.pdb
     RDKit          3D

 24 24  0  0  1  0  0  0  0  0999 V2000
   21.0231  -15.1075  -19.0887 N   0  0  0  0  0  0  0  0  0  0  0  0
   20.7198  -14.4758  -17.8294 C   0  0  1  0  0  0  0  0  0  0  0  0
   21.6697  -14.9568  -16.7250 C   0  0  0  0  0  0  0  0  0  0  0  0
   21.3771  -16.6827  -16.3661 S   0  0  0  0  0  0  0  0  0  0  0  0
   20.8045  -12.9951  -17.9549 C   0  0  0  0  0  0  0  0  0  0  0  0
   21.8202  -12.4562  -18.4648 O   0  0  0  0  0  0  0  0  0  0  0  0
   18.1869  -10.6997  -19.5431 C   0  0  0  0  0  0  0  0  0  0  0  0
   18.4911  -10.1958  -18.1508 C   0  0  1  0  0  0  0  0  0  0  0  0
   17.4822  -10.5865  -17.2719 O   0  0  0  0  0  0  0  0  0  0  0  0
   19.8605  -10.6855  -17.6882 C   0  0  2  0  0  0  0  0  0  0  0  0
   19.7667  -12.1215  -17.5162 N   0  0  0  0  0  0  0  0  0  0  0  0
   20.3225   -9.9922  -16.4909 C   0  0  0  0  0  0  0  0  0  0  0  0
   20.0667  -10.4578  -15.3553 O   0  0  0  0  0  0  0  0  0  0  0  0
   21.0631   -8.7894  -16.5853 N   0  0  0  0  0  0  0  0  0  0  0  0
   21.4453   -8.0740  -15.3398 C   0  0  1  0  0  0  0  0  0  0  0  0
   22.9295   -8.0011  -15.3265 C   0  0  0  0  0  0  0  0  0  0  0  0
   23.6572   -9.2035  -14.9439 C   0  0  0  0  0  0  0  0  0  0  0  0
   23.3109  -10.4582  -14.5506 C   0  0  0  0  0  0  0  0  0  0  0  0
   24.4222  -11.2047  -14.3554 N   0  0  0  0  0  0  0  0  0  0  0  0
   25.4746  -10.4110  -14.6296 C   0  0  0  0  0  0  0  0  0  0  0  0
   25.0353   -9.2124  -14.9829 N   0  0  0  0  0  0  0  0  0  0  0  0
   20.8729   -6.6981  -15.5484 C   0  0  0  0  0  0  0  0  0  0  0  0
   20.3781   -6.3153  -16.6340 O   0  0  0  0  0  0  0  0  0  0  0  0
   20.8892   -5.8082  -14.4991 O   0  0  0  0  0  0  0  0  0  0  0  0
  2  5  1  0
  2  1  1  6
  2  3  1  0
  4  3  1  0
  5  6  2  0
  8  7  1  6
  8 10  1  0
  9  8  1  0
 10 12  1  0
 11  5  1  0
 10 11  1  1
 12 14  1  0
 12 13  2  0
 14 15  1  0
 15 22  1  0
 15 16  1  6
 17 16  1  0
 17 18  2  0
 19 18  1  0
 20 21  2  0
 20 19  1  0
 21 17  1  0
 22 23  2  0
 22 24  1  0
M  END
$$$$
