PSE.pdb
     RDKit          3D

 23 23  0  0  1  0  0  0  0  0999 V2000
    8.7343  -13.6100   17.3950 N   0  0  0  0  0  0  0  0  0  0  0  0
    7.3928  -14.0634   17.1720 C   0  0  0  0  0  0  0  0  0  0  0  0
    6.7338  -14.1310   18.5547 C   0  0  0  0  0  0  0  0  0  0  0  0
    7.3960  -12.9158   19.2205 C   0  0  0  0  0  0  0  0  0  0  0  0
    8.8450  -13.1773   18.7775 C   0  0  1  0  0  0  0  0  0  0  0  0
    9.3175  -14.2879   19.6542 C   0  0  0  0  0  0  0  0  0  0  0  0
    9.2402  -14.1408   20.8878 O   0  0  0  0  0  0  0  0  0  0  0  0
   11.7299  -17.5260   18.3299 O   0  0  0  0  0  0  0  0  0  0  0  0
   10.6825  -17.7653   19.1911 C   0  0  0  0  0  0  0  0  0  0  0  0
   10.3238  -16.5366   20.0262 C   0  0  2  0  0  0  0  0  0  0  0  0
    9.8544  -15.5104   19.1359 N   0  0  0  0  0  0  0  0  0  0  0  0
   11.5191  -16.1103   20.7973 C   0  0  0  0  0  0  0  0  0  0  0  0
   12.2478  -15.2254   20.2953 O   0  0  0  0  0  0  0  0  0  0  0  0
   11.7848  -16.7063   22.0442 N   0  0  0  0  0  0  0  0  0  0  0  0
   12.8232  -16.4653   22.9683 C   0  0  1  0  0  0  0  0  0  0  0  0
   12.2870  -16.3973   24.3910 C   0  0  0  0  0  0  0  0  0  0  0  0
   11.5835  -17.6724   24.7815 C   0  0  0  0  0  0  0  0  0  0  0  0
   11.1120  -17.6123   26.1848 C   0  0  0  0  0  0  0  0  0  0  0  0
   10.5372  -18.6292   26.6621 O   0  0  0  0  0  0  0  0  0  0  0  0
   14.0630  -17.2001   22.8174 C   0  0  0  0  0  0  0  0  0  0  0  0
   15.0964  -16.7937   23.4058 O   0  0  0  0  0  0  0  0  0  0  0  0
   11.2853  -16.5005   26.9615 O   0  0  0  0  0  0  0  0  0  0  0  0
   14.1836  -18.3484   22.0482 O   0  0  0  0  0  0  0  0  0  0  0  0
  1  2  1  0
  2  3  1  0
  4  3  1  0
  5  1  1  0
  5  4  1  0
  5  6  1  1
  7  6  2  0
  8  9  1  0
 10  9  1  6
 10 11  1  0
 10 12  1  0
 11  6  1  0
 12 14  1  0
 13 12  2  0
 14 15  1  0
 15 16  1  1
 15 20  1  0
 16 17  1  0
 17 18  1  0
 18 22  1  0
 19 18  2  0
 20 21  2  0
 20 23  1  0
M  END
$$$$
