PSE.pdb
     RDKit          3D

 23 23  0  0  1  0  0  0  0  0999 V2000
    6.1395  -18.2880   16.7757 N   0  0  0  0  0  0  0  0  0  0  0  0
    5.8023  -17.4876   15.6352 C   0  0  0  0  0  0  0  0  0  0  0  0
    7.1337  -16.9973   15.0541 C   0  0  0  0  0  0  0  0  0  0  0  0
    8.0072  -18.2316   15.3219 C   0  0  0  0  0  0  0  0  0  0  0  0
    7.5764  -18.5027   16.7728 C   0  0  1  0  0  0  0  0  0  0  0  0
    8.2789  -17.4635   17.5799 C   0  0  0  0  0  0  0  0  0  0  0  0
    9.4971  -17.2917   17.3907 O   0  0  0  0  0  0  0  0  0  0  0  0
    6.4351  -15.6825   20.9488 O   0  0  0  0  0  0  0  0  0  0  0  0
    7.4002  -14.9788   20.2635 C   0  0  0  0  0  0  0  0  0  0  0  0
    8.3666  -15.8957   19.5145 C   0  0  2  0  0  0  0  0  0  0  0  0
    7.6112  -16.6597   18.5597 N   0  0  0  0  0  0  0  0  0  0  0  0
    9.0725  -16.7589   20.4952 C   0  0  0  0  0  0  0  0  0  0  0  0
    8.5708  -17.8765   20.7507 O   0  0  0  0  0  0  0  0  0  0  0  0
   10.2606  -16.2972   21.0916 N   0  0  0  0  0  0  0  0  0  0  0  0
   11.1582  -16.9499   21.9626 C   0  0  1  0  0  0  0  0  0  0  0  0
   12.0386  -17.9344   21.2064 C   0  0  0  0  0  0  0  0  0  0  0  0
   12.8701  -18.7714   22.1453 C   0  0  0  0  0  0  0  0  0  0  0  0
   13.7776  -19.6706   21.3952 C   0  0  0  0  0  0  0  0  0  0  0  0
   14.4771  -20.4905   22.0516 O   0  0  0  0  0  0  0  0  0  0  0  0
   11.8466  -16.1576   22.9617 C   0  0  0  0  0  0  0  0  0  0  0  0
   12.0654  -14.9402   22.7402 O   0  0  0  0  0  0  0  0  0  0  0  0
   13.8705  -19.6350   20.0315 O   0  0  0  0  0  0  0  0  0  0  0  0
   12.2883  -16.6693   24.1733 O   0  0  0  0  0  0  0  0  0  0  0  0
  1  2  1  0
  2  3  1  0
  4  3  1  0
  5  1  1  0
  5  4  1  0
  5  6  1  1
  7  6  2  0
  8  9  1  0
 10  9  1  1
 10 11  1  0
 10 12  1  0
 11  6  1  0
 12 14  1  0
 13 12  2  0
 14 15  1  0
 15 16  1  6
 15 20  1  0
 16 17  1  0
 17 18  1  0
 18 22  1  0
 19 18  2  0
 20 21  2  0
 20 23  1  0
M  END
$$$$
