PSE.pdb
     RDKit          3D

 23 23  0  0  1  0  0  0  0  0999 V2000
    7.4847  -14.9822   19.0278 N   0  0  0  0  0  0  0  0  0  0  0  0
    6.6375  -13.8284   19.1051 C   0  0  0  0  0  0  0  0  0  0  0  0
    7.5610  -12.6462   19.4218 C   0  0  0  0  0  0  0  0  0  0  0  0
    8.8007  -13.0580   18.6144 C   0  0  0  0  0  0  0  0  0  0  0  0
    8.8668  -14.5342   19.0393 C   0  0  1  0  0  0  0  0  0  0  0  0
    9.4139  -14.5078   20.4267 C   0  0  0  0  0  0  0  0  0  0  0  0
   10.5839  -14.1172   20.5933 O   0  0  0  0  0  0  0  0  0  0  0  0
    7.4535  -16.3211   23.7417 O   0  0  0  0  0  0  0  0  0  0  0  0
    8.1541  -15.1475   23.9084 C   0  0  0  0  0  0  0  0  0  0  0  0
    9.2615  -14.9785   22.8687 C   0  0  2  0  0  0  0  0  0  0  0  0
    8.6507  -14.9125   21.5693 N   0  0  0  0  0  0  0  0  0  0  0  0
   10.2131  -16.1123   22.9871 C   0  0  0  0  0  0  0  0  0  0  0  0
    9.9866  -17.1337   22.3004 O   0  0  0  0  0  0  0  0  0  0  0  0
   11.3172  -15.9994   23.8525 N   0  0  0  0  0  0  0  0  0  0  0  0
   12.3382  -16.9247   24.1550 C   0  0  1  0  0  0  0  0  0  0  0  0
   13.6833  -16.4509   23.6236 C   0  0  0  0  0  0  0  0  0  0  0  0
   14.7936  -17.4013   23.9945 C   0  0  0  0  0  0  0  0  0  0  0  0
   16.0980  -16.9231   23.4798 C   0  0  0  0  0  0  0  0  0  0  0  0
   16.2696  -15.6785   23.3618 O   0  0  0  0  0  0  0  0  0  0  0  0
   12.3749  -17.4988   25.4850 C   0  0  0  0  0  0  0  0  0  0  0  0
   13.1308  -18.4761   25.7144 O   0  0  0  0  0  0  0  0  0  0  0  0
   17.1035  -17.7846   23.1388 O   0  0  0  0  0  0  0  0  0  0  0  0
   11.6120  -17.0274   26.5436 O   0  0  0  0  0  0  0  0  0  0  0  0
  1  2  1  0
  2  3  1  0
  4  3  1  0
  5  1  1  0
  5  4  1  0
  5  6  1  1
  7  6  2  0
  8  9  1  0
 10  9  1  1
 10 11  1  0
 10 12  1  0
 11  6  1  0
 12 14  1  0
 13 12  2  0
 14 15  1  0
 15 16  1  1
 15 20  1  0
 16 17  1  0
 17 18  1  0
 18 22  1  0
 19 18  2  0
 20 21  2  0
 20 23  1  0
M  END
$$$$
