PSE.pdb
     RDKit          3D

 23 23  0  0  1  0  0  0  0  0999 V2000
    8.0001  -17.8226   19.6410 N   0  0  0  0  0  0  0  0  0  0  0  0
    7.3530  -16.9119   18.7428 C   0  0  0  0  0  0  0  0  0  0  0  0
    8.4467  -15.9590   18.2460 C   0  0  0  0  0  0  0  0  0  0  0  0
    9.6306  -16.9344   18.1720 C   0  0  0  0  0  0  0  0  0  0  0  0
    9.4358  -17.6295   19.5296 C   0  0  1  0  0  0  0  0  0  0  0  0
    9.9275  -16.6447   20.5363 C   0  0  0  0  0  0  0  0  0  0  0  0
   10.9446  -15.9803   20.2654 O   0  0  0  0  0  0  0  0  0  0  0  0
    8.2118  -16.6094   24.4074 O   0  0  0  0  0  0  0  0  0  0  0  0
    9.0485  -15.5826   24.0311 C   0  0  0  0  0  0  0  0  0  0  0  0
   10.0340  -16.0049   22.9420 C   0  0  2  0  0  0  0  0  0  0  0  0
    9.2797  -16.4346   21.7965 N   0  0  0  0  0  0  0  0  0  0  0  0
   10.9118  -17.0781   23.4738 C   0  0  0  0  0  0  0  0  0  0  0  0
   10.6582  -18.2558   23.1350 O   0  0  0  0  0  0  0  0  0  0  0  0
   11.9796  -16.7380   24.3251 N   0  0  0  0  0  0  0  0  0  0  0  0
   12.9609  -17.5524   24.9285 C   0  0  1  0  0  0  0  0  0  0  0  0
   14.1984  -17.6630   24.0497 C   0  0  0  0  0  0  0  0  0  0  0  0
   15.2807  -16.7104   24.4911 C   0  0  0  0  0  0  0  0  0  0  0  0
   16.2998  -16.5338   23.4303 C   0  0  0  0  0  0  0  0  0  0  0  0
   16.4450  -15.3836   22.9320 O   0  0  0  0  0  0  0  0  0  0  0  0
   13.2290  -17.3747   26.3414 C   0  0  0  0  0  0  0  0  0  0  0  0
   12.7240  -16.3962   26.9468 O   0  0  0  0  0  0  0  0  0  0  0  0
   17.0752  -17.5701   22.9892 O   0  0  0  0  0  0  0  0  0  0  0  0
   14.0248  -18.2353   27.0837 O   0  0  0  0  0  0  0  0  0  0  0  0
  1  2  1  0
  2  3  1  0
  4  3  1  0
  5  1  1  0
  5  4  1  0
  5  6  1  1
  7  6  2  0
  8  9  1  0
 10  9  1  1
 10 11  1  0
 10 12  1  0
 11  6  1  0
 12 14  1  0
 13 12  2  0
 14 15  1  0
 15 16  1  6
 15 20  1  0
 16 17  1  0
 17 18  1  0
 18 22  1  0
 19 18  2  0
 20 21  2  0
 20 23  1  0
M  END
$$$$
