PSE.pdb
     RDKit          3D

 23 23  0  0  1  0  0  0  0  0999 V2000
    7.8671  -15.1600   17.6973 N   0  0  0  0  0  0  0  0  0  0  0  0
    6.9803  -14.0436   17.5482 C   0  0  0  0  0  0  0  0  0  0  0  0
    7.7801  -12.8079   17.9775 C   0  0  0  0  0  0  0  0  0  0  0  0
    9.1686  -13.1978   17.4499 C   0  0  0  0  0  0  0  0  0  0  0  0
    9.2027  -14.6496   17.9551 C   0  0  1  0  0  0  0  0  0  0  0  0
    9.4643  -14.5379   19.4194 C   0  0  0  0  0  0  0  0  0  0  0  0
   10.6177  -14.2576   19.7941 O   0  0  0  0  0  0  0  0  0  0  0  0
    6.8614  -15.9737   22.5781 O   0  0  0  0  0  0  0  0  0  0  0  0
    7.4669  -14.7372   22.6007 C   0  0  0  0  0  0  0  0  0  0  0  0
    8.7724  -14.7143   21.8065 C   0  0  2  0  0  0  0  0  0  0  0  0
    8.4465  -14.7400   20.4068 N   0  0  0  0  0  0  0  0  0  0  0  0
    9.6059  -15.8742   22.2126 C   0  0  0  0  0  0  0  0  0  0  0  0
    9.6518  -16.8552   21.4369 O   0  0  0  0  0  0  0  0  0  0  0  0
   10.3029  -15.8293   23.4343 N   0  0  0  0  0  0  0  0  0  0  0  0
   11.4763  -16.4988   23.8409 C   0  0  1  0  0  0  0  0  0  0  0  0
   12.6903  -15.9925   23.0754 C   0  0  0  0  0  0  0  0  0  0  0  0
   13.9285  -16.7853   23.4095 C   0  0  0  0  0  0  0  0  0  0  0  0
   15.0995  -16.2898   22.6490 C   0  0  0  0  0  0  0  0  0  0  0  0
   14.9256  -15.3272   21.8517 O   0  0  0  0  0  0  0  0  0  0  0  0
   11.6923  -16.7098   25.2582 C   0  0  0  0  0  0  0  0  0  0  0  0
   11.0867  -15.9870   26.0887 O   0  0  0  0  0  0  0  0  0  0  0  0
   16.3430  -16.8402   22.7912 O   0  0  0  0  0  0  0  0  0  0  0  0
   12.5435  -17.6802   25.7666 O   0  0  0  0  0  0  0  0  0  0  0  0
  1  2  1  0
  2  3  1  0
  4  3  1  0
  5  1  1  0
  5  4  1  0
  5  6  1  1
  7  6  2  0
  8  9  1  0
 10  9  1  1
 10 11  1  0
 10 12  1  0
 11  6  1  0
 12 14  1  0
 13 12  2  0
 14 15  1  0
 15 16  1  1
 15 20  1  0
 16 17  1  0
 17 18  1  0
 18 22  1  0
 19 18  2  0
 20 21  2  0
 20 23  1  0
M  END
$$$$
