PSE.pdb
     RDKit          3D

 23 23  0  0  1  0  0  0  0  0999 V2000
    8.1363  -13.6849   17.7802 N   0  0  0  0  0  0  0  0  0  0  0  0
    7.1253  -13.6246   18.7948 C   0  0  0  0  0  0  0  0  0  0  0  0
    7.8422  -13.1984   20.0813 C   0  0  0  0  0  0  0  0  0  0  0  0
    8.8817  -12.2321   19.4946 C   0  0  0  0  0  0  0  0  0  0  0  0
    9.3530  -13.0971   18.3140 C   0  0  1  0  0  0  0  0  0  0  0  0
   10.2297  -14.1359   18.9282 C   0  0  0  0  0  0  0  0  0  0  0  0
    9.7271  -14.9211   19.7529 O   0  0  0  0  0  0  0  0  0  0  0  0
   14.3382  -14.7627   17.8483 O   0  0  0  0  0  0  0  0  0  0  0  0
   13.4423  -15.7631   18.1526 C   0  0  0  0  0  0  0  0  0  0  0  0
   12.4060  -15.3215   19.1855 C   0  0  2  0  0  0  0  0  0  0  0  0
   11.6201  -14.2651   18.6090 N   0  0  0  0  0  0  0  0  0  0  0  0
   13.1079  -14.8916   20.4214 C   0  0  0  0  0  0  0  0  0  0  0  0
   13.4413  -13.6887   20.5105 O   0  0  0  0  0  0  0  0  0  0  0  0
   13.3683  -15.8364   21.4315 N   0  0  0  0  0  0  0  0  0  0  0  0
   14.0007  -15.6835   22.6833 C   0  0  1  0  0  0  0  0  0  0  0  0
   13.1026  -16.1640   23.8141 C   0  0  0  0  0  0  0  0  0  0  0  0
   13.5112  -17.5293   24.3066 C   0  0  0  0  0  0  0  0  0  0  0  0
   12.6585  -17.9648   25.4372 C   0  0  0  0  0  0  0  0  0  0  0  0
   12.8883  -19.0928   25.9541 O   0  0  0  0  0  0  0  0  0  0  0  0
   15.3925  -16.0687   22.8029 C   0  0  0  0  0  0  0  0  0  0  0  0
   15.8485  -16.9726   22.0585 O   0  0  0  0  0  0  0  0  0  0  0  0
   11.6479  -17.1845   25.9266 O   0  0  0  0  0  0  0  0  0  0  0  0
   16.2719  -15.4900   23.7065 O   0  0  0  0  0  0  0  0  0  0  0  0
  1  2  1  0
  2  3  1  0
  4  3  1  0
  5  1  1  0
  5  4  1  0
  5  6  1  1
  7  6  2  0
  8  9  1  0
 10  9  1  6
 10 11  1  0
 10 12  1  0
 11  6  1  0
 12 14  1  0
 13 12  2  0
 14 15  1  0
 15 16  1  1
 15 20  1  0
 16 17  1  0
 17 18  1  0
 18 22  1  0
 19 18  2  0
 20 21  2  0
 20 23  1  0
M  END
$$$$
