PSE.pdb
     RDKit          3D

 23 23  0  0  1  0  0  0  0  0999 V2000
    8.5946  -14.8909   18.3009 N   0  0  0  0  0  0  0  0  0  0  0  0
    7.4181  -14.1909   17.8756 C   0  0  0  0  0  0  0  0  0  0  0  0
    7.3176  -12.9501   18.7708 C   0  0  0  0  0  0  0  0  0  0  0  0
    8.8088  -12.6177   18.9267 C   0  0  0  0  0  0  0  0  0  0  0  0
    9.3269  -14.0355   19.2189 C   0  0  1  0  0  0  0  0  0  0  0  0
    8.9344  -14.3011   20.6333 C   0  0  0  0  0  0  0  0  0  0  0  0
    9.4377  -13.5977   21.5284 O   0  0  0  0  0  0  0  0  0  0  0  0
    6.7652  -17.7482   22.1368 O   0  0  0  0  0  0  0  0  0  0  0  0
    6.4127  -16.4454   22.4099 C   0  0  0  0  0  0  0  0  0  0  0  0
    7.6116  -15.4984   22.3726 C   0  0  2  0  0  0  0  0  0  0  0  0
    8.0067  -15.3287   21.0010 N   0  0  0  0  0  0  0  0  0  0  0  0
    8.7015  -16.0649   23.2069 C   0  0  0  0  0  0  0  0  0  0  0  0
    9.6120  -16.6941   22.6227 O   0  0  0  0  0  0  0  0  0  0  0  0
    8.6723  -15.8768   24.6013 N   0  0  0  0  0  0  0  0  0  0  0  0
    9.5388  -16.3574   25.6056 C   0  0  1  0  0  0  0  0  0  0  0  0
    9.4086  -15.5376   26.8812 C   0  0  0  0  0  0  0  0  0  0  0  0
   10.4142  -15.9636   27.9208 C   0  0  0  0  0  0  0  0  0  0  0  0
   10.1779  -15.2672   29.2070 C   0  0  0  0  0  0  0  0  0  0  0  0
   10.0933  -14.0082   29.1938 O   0  0  0  0  0  0  0  0  0  0  0  0
    9.6320  -17.7894   25.8068 C   0  0  0  0  0  0  0  0  0  0  0  0
   10.7324  -18.2948   26.1424 O   0  0  0  0  0  0  0  0  0  0  0  0
   10.0487  -15.9461   30.3868 O   0  0  0  0  0  0  0  0  0  0  0  0
    8.5600  -18.6559   25.6492 O   0  0  0  0  0  0  0  0  0  0  0  0
  1  2  1  0
  2  3  1  0
  4  3  1  0
  5  1  1  0
  5  4  1  0
  5  6  1  1
  7  6  2  0
  8  9  1  0
 10  9  1  6
 10 11  1  0
 10 12  1  0
 11  6  1  0
 12 14  1  0
 13 12  2  0
 14 15  1  0
 15 16  1  1
 15 20  1  0
 16 17  1  0
 17 18  1  0
 18 22  1  0
 19 18  2  0
 20 21  2  0
 20 23  1  0
M  END
$$$$
