PSE.pdb
     RDKit          3D

 23 23  0  0  1  0  0  0  0  0999 V2000
    9.1271  -14.5079   18.4718 N   0  0  0  0  0  0  0  0  0  0  0  0
    7.7888  -14.2032   18.0583 C   0  0  0  0  0  0  0  0  0  0  0  0
    7.2038  -13.3004   19.1507 C   0  0  0  0  0  0  0  0  0  0  0  0
    8.4573  -12.4965   19.5258 C   0  0  0  0  0  0  0  0  0  0  0  0
    9.4573  -13.6617   19.6057 C   0  0  1  0  0  0  0  0  0  0  0  0
    9.1469  -14.3430   20.8959 C   0  0  0  0  0  0  0  0  0  0  0  0
    9.2194  -13.6800   21.9468 O   0  0  0  0  0  0  0  0  0  0  0  0
    8.7972  -18.5928   21.3196 O   0  0  0  0  0  0  0  0  0  0  0  0
    7.9806  -17.7351   22.0222 C   0  0  0  0  0  0  0  0  0  0  0  0
    8.6290  -16.3699   22.2492 C   0  0  2  0  0  0  0  0  0  0  0  0
    8.7713  -15.7231   20.9736 N   0  0  0  0  0  0  0  0  0  0  0  0
    9.9334  -16.5617   22.9324 C   0  0  0  0  0  0  0  0  0  0  0  0
   10.9683  -16.5145   22.2303 O   0  0  0  0  0  0  0  0  0  0  0  0
    9.9587  -16.7856   24.3216 N   0  0  0  0  0  0  0  0  0  0  0  0
   11.0318  -17.1256   25.1720 C   0  0  1  0  0  0  0  0  0  0  0  0
   10.6433  -16.9696   26.6351 C   0  0  0  0  0  0  0  0  0  0  0  0
   11.8022  -17.2665   27.5528 C   0  0  0  0  0  0  0  0  0  0  0  0
   11.4205  -17.0759   28.9716 C   0  0  0  0  0  0  0  0  0  0  0  0
   10.8456  -15.9993   29.2923 O   0  0  0  0  0  0  0  0  0  0  0  0
   11.8008  -18.3156   24.8677 C   0  0  0  0  0  0  0  0  0  0  0  0
   11.2030  -19.3615   24.5104 O   0  0  0  0  0  0  0  0  0  0  0  0
   11.6699  -18.0247   29.9240 O   0  0  0  0  0  0  0  0  0  0  0  0
   13.1846  -18.3739   24.9476 O   0  0  0  0  0  0  0  0  0  0  0  0
  1  2  1  0
  2  3  1  0
  4  3  1  0
  5  1  1  0
  5  4  1  0
  5  6  1  1
  7  6  2  0
  8  9  1  0
 10  9  1  6
 10 11  1  0
 10 12  1  0
 11  6  1  0
 12 14  1  0
 13 12  2  0
 14 15  1  0
 15 16  1  1
 15 20  1  0
 16 17  1  0
 17 18  1  0
 18 22  1  0
 19 18  2  0
 20 21  2  0
 20 23  1  0
M  END
$$$$
