GMH.pdb
     RDKit          3D

 23 23  0  0  1  0  0  0  0  0999 V2000
   28.2940  -21.7045  -14.7975 N   0  0  0  0  0  0  0  0  0  0  0  0
   28.2368  -20.7552  -13.6959 C   0  0  0  0  0  0  0  0  0  0  0  0
   27.1494  -21.1925  -12.7814 C   0  0  0  0  0  0  0  0  0  0  0  0
   26.2792  -22.0457  -13.1379 O   0  0  0  0  0  0  0  0  0  0  0  0
   27.7112  -18.5027   -7.1615 C   0  0  0  0  0  0  0  0  0  0  0  0
   27.6392  -20.3243   -7.1060 S   0  0  0  0  0  0  0  0  0  0  0  0
   27.3820  -20.9175   -8.7950 C   0  0  0  0  0  0  0  0  0  0  0  0
   26.0132  -20.4262   -9.2379 C   0  0  0  0  0  0  0  0  0  0  0  0
   25.8126  -20.8818  -10.6776 C   0  0  2  0  0  0  0  0  0  0  0  0
   27.0151  -20.6877  -11.4599 N   0  0  0  0  0  0  0  0  0  0  0  0
   24.6815  -20.0847  -11.2116 C   0  0  0  0  0  0  0  0  0  0  0  0
   24.9170  -19.1052  -11.9588 O   0  0  0  0  0  0  0  0  0  0  0  0
   23.3547  -20.4060  -10.8966 N   0  0  0  0  0  0  0  0  0  0  0  0
   22.2515  -20.3952  -11.8438 C   0  0  1  0  0  0  0  0  0  0  0  0
   22.6012  -21.4380  -12.9001 C   0  0  0  0  0  0  0  0  0  0  0  0
   22.6960  -20.8686  -14.2544 C   0  0  0  0  0  0  0  0  0  0  0  0
   22.4706  -19.5534  -14.6164 C   0  0  0  0  0  0  0  0  0  0  0  0
   22.6603  -19.4381  -15.9469 N   0  0  0  0  0  0  0  0  0  0  0  0
   22.9969  -20.6297  -16.4402 C   0  0  0  0  0  0  0  0  0  0  0  0
   23.0187  -21.4978  -15.4131 N   0  0  0  0  0  0  0  0  0  0  0  0
   21.0326  -20.8159  -11.0830 C   0  0  0  0  0  0  0  0  0  0  0  0
   19.7981  -20.2093  -11.2617 O   0  0  0  0  0  0  0  0  0  0  0  0
   21.0848  -21.7612  -10.2303 O   0  0  0  0  0  0  0  0  0  0  0  0
  2  3  1  0
  2  1  1  0
  3 10  1  0
  4  3  2  0
  6  5  1  0
  7  8  1  0
  7  6  1  0
  9  8  1  1
  9 11  1  0
 10  9  1  0
 11 13  1  0
 11 12  2  0
 13 14  1  0
 14 21  1  0
 14 15  1  6
 16 15  1  0
 16 17  2  0
 18 17  1  0
 19 18  1  0
 20 19  2  0
 20 16  1  0
 21 22  1  0
 23 21  2  0
M  END
$$$$
