GMH.pdb
     RDKit          3D

 23 23  0  0  1  0  0  0  0  0999 V2000
   29.6664  -21.5455  -13.7089 N   0  0  0  0  0  0  0  0  0  0  0  0
   28.5216  -20.9161  -14.3501 C   0  0  0  0  0  0  0  0  0  0  0  0
   27.3150  -21.2576  -13.5516 C   0  0  0  0  0  0  0  0  0  0  0  0
   26.4095  -22.0245  -14.0038 O   0  0  0  0  0  0  0  0  0  0  0  0
   25.8960  -19.9815   -7.0800 C   0  0  0  0  0  0  0  0  0  0  0  0
   27.5122  -20.3604   -7.8355 S   0  0  0  0  0  0  0  0  0  0  0  0
   27.2030  -21.2165   -9.3982 C   0  0  0  0  0  0  0  0  0  0  0  0
   26.0135  -20.5339  -10.0543 C   0  0  0  0  0  0  0  0  0  0  0  0
   25.9120  -21.0697  -11.4767 C   0  0  2  0  0  0  0  0  0  0  0  0
   27.0991  -20.7516  -12.2415 N   0  0  0  0  0  0  0  0  0  0  0  0
   24.7012  -20.4501  -12.0683 C   0  0  0  0  0  0  0  0  0  0  0  0
   24.6959  -19.2198  -12.3125 O   0  0  0  0  0  0  0  0  0  0  0  0
   23.5634  -21.2139  -12.3594 N   0  0  0  0  0  0  0  0  0  0  0  0
   22.4107  -20.7339  -13.1046 C   0  0  1  0  0  0  0  0  0  0  0  0
   22.1232  -21.8000  -14.1565 C   0  0  0  0  0  0  0  0  0  0  0  0
   20.9435  -21.4861  -14.9792 C   0  0  0  0  0  0  0  0  0  0  0  0
   20.3999  -20.2345  -15.2024 C   0  0  0  0  0  0  0  0  0  0  0  0
   19.3284  -20.3720  -16.0101 N   0  0  0  0  0  0  0  0  0  0  0  0
   19.1734  -21.6623  -16.3062 C   0  0  0  0  0  0  0  0  0  0  0  0
   20.1535  -22.3384  -15.6808 N   0  0  0  0  0  0  0  0  0  0  0  0
   21.2781  -20.6487  -12.1292 C   0  0  0  0  0  0  0  0  0  0  0  0
   20.2183  -19.7694  -12.2949 O   0  0  0  0  0  0  0  0  0  0  0  0
   21.2452  -21.3921  -11.0949 O   0  0  0  0  0  0  0  0  0  0  0  0
  2  3  1  0
  2  1  1  0
  3 10  1  0
  4  3  2  0
  6  5  1  0
  7  8  1  0
  7  6  1  0
  9  8  1  1
  9 11  1  0
 10  9  1  0
 11 13  1  0
 11 12  2  0
 13 14  1  0
 14 21  1  0
 14 15  1  6
 16 15  1  0
 16 17  2  0
 18 17  1  0
 19 18  1  0
 20 19  2  0
 20 16  1  0
 21 22  1  0
 23 21  2  0
M  END
$$$$
