GMH.pdb
     RDKit          3D

 23 23  0  0  1  0  0  0  0  0999 V2000
   18.6772  -12.7102  -17.0233 N   0  0  0  0  0  0  0  0  0  0  0  0
   18.7666  -11.3094  -17.4076 C   0  0  0  0  0  0  0  0  0  0  0  0
   19.7992  -10.6725  -16.5485 C   0  0  0  0  0  0  0  0  0  0  0  0
   19.5958  -10.4456  -15.3158 O   0  0  0  0  0  0  0  0  0  0  0  0
   26.8533  -10.7249  -14.5320 C   0  0  0  0  0  0  0  0  0  0  0  0
   26.0895  -10.0053  -16.0236 S   0  0  0  0  0  0  0  0  0  0  0  0
   24.4228   -9.4602  -15.5812 C   0  0  0  0  0  0  0  0  0  0  0  0
   23.4713  -10.0519  -16.6087 C   0  0  0  0  0  0  0  0  0  0  0  0
   22.0610   -9.6324  -16.2141 C   0  0  2  0  0  0  0  0  0  0  0  0
   21.0703  -10.2797  -17.0477 N   0  0  0  0  0  0  0  0  0  0  0  0
   22.0116   -8.1568  -16.3563 C   0  0  0  0  0  0  0  0  0  0  0  0
   22.1770   -7.6414  -17.4878 O   0  0  0  0  0  0  0  0  0  0  0  0
   21.7836   -7.3283  -15.2498 N   0  0  0  0  0  0  0  0  0  0  0  0
   21.6957   -5.8779  -15.3040 C   0  0  1  0  0  0  0  0  0  0  0  0
   20.2342   -5.5401  -15.0292 C   0  0  0  0  0  0  0  0  0  0  0  0
   19.4424   -5.3883  -16.2609 C   0  0  0  0  0  0  0  0  0  0  0  0
   19.9009   -5.5114  -17.5595 C   0  0  0  0  0  0  0  0  0  0  0  0
   18.8668   -5.3004  -18.3994 N   0  0  0  0  0  0  0  0  0  0  0  0
   17.7720   -5.0485  -17.6820 C   0  0  0  0  0  0  0  0  0  0  0  0
   18.1212   -5.1019  -16.3843 N   0  0  0  0  0  0  0  0  0  0  0  0
   22.5648   -5.3568  -14.2018 C   0  0  0  0  0  0  0  0  0  0  0  0
   22.9310   -4.0222  -14.1112 O   0  0  0  0  0  0  0  0  0  0  0  0
   23.0068   -6.1320  -13.2923 O   0  0  0  0  0  0  0  0  0  0  0  0
  2  3  1  0
  2  1  1  0
  3 10  1  0
  4  3  2  0
  6  5  1  0
  7  8  1  0
  7  6  1  0
  9  8  1  6
  9 11  1  0
 10  9  1  0
 11 13  1  0
 11 12  2  0
 13 14  1  0
 14 21  1  0
 14 15  1  1
 16 15  1  0
 16 17  2  0
 18 17  1  0
 19 18  1  0
 20 19  2  0
 20 16  1  0
 21 22  1  0
 23 21  2  0
M  END
$$$$
