GMH.pdb
     RDKit          3D

 23 23  0  0  1  0  0  0  0  0999 V2000
   20.7049  -15.5160  -17.7753 N   0  0  0  0  0  0  0  0  0  0  0  0
   19.6957  -14.9159  -16.9155 C   0  0  0  0  0  0  0  0  0  0  0  0
   20.3647  -13.8679  -16.1006 C   0  0  0  0  0  0  0  0  0  0  0  0
   19.8580  -13.4381  -15.0184 O   0  0  0  0  0  0  0  0  0  0  0  0
   26.8466  -14.7742  -14.6730 C   0  0  0  0  0  0  0  0  0  0  0  0
   26.1021  -13.3691  -15.5663 S   0  0  0  0  0  0  0  0  0  0  0  0
   24.3225  -13.3925  -15.2454 C   0  0  0  0  0  0  0  0  0  0  0  0
   23.7265  -12.1800  -15.9423 C   0  0  0  0  0  0  0  0  0  0  0  0
   22.2210  -12.2207  -15.7132 C   0  0  2  0  0  0  0  0  0  0  0  0
   21.6043  -13.2842  -16.4773 N   0  0  0  0  0  0  0  0  0  0  0  0
   21.7036  -10.8903  -16.1164 C   0  0  0  0  0  0  0  0  0  0  0  0
   21.6245  -10.6038  -17.3350 O   0  0  0  0  0  0  0  0  0  0  0  0
   21.3015   -9.9479  -15.1608 N   0  0  0  0  0  0  0  0  0  0  0  0
   20.7870   -8.6232  -15.4681 C   0  0  1  0  0  0  0  0  0  0  0  0
   19.3146   -8.6475  -15.0716 C   0  0  0  0  0  0  0  0  0  0  0  0
   18.4841   -9.4213  -16.0090 C   0  0  0  0  0  0  0  0  0  0  0  0
   18.3317   -9.1904  -17.3637 C   0  0  0  0  0  0  0  0  0  0  0  0
   17.4896  -10.1183  -17.8630 N   0  0  0  0  0  0  0  0  0  0  0  0
   17.1036  -10.9270  -16.8763 C   0  0  0  0  0  0  0  0  0  0  0  0
   17.7071  -10.5042  -15.7512 N   0  0  0  0  0  0  0  0  0  0  0  0
   21.5413   -7.6618  -14.6030 C   0  0  0  0  0  0  0  0  0  0  0  0
   21.3151   -6.2939  -14.6387 O   0  0  0  0  0  0  0  0  0  0  0  0
   22.4326   -8.0709  -13.7896 O   0  0  0  0  0  0  0  0  0  0  0  0
  2  3  1  0
  2  1  1  0
  3 10  1  0
  4  3  2  0
  6  5  1  0
  7  8  1  0
  7  6  1  0
  9  8  1  6
  9 11  1  0
 10  9  1  0
 11 13  1  0
 11 12  2  0
 13 14  1  0
 14 21  1  0
 14 15  1  1
 16 15  1  0
 16 17  2  0
 18 17  1  0
 19 18  1  0
 20 19  2  0
 20 16  1  0
 21 22  1  0
 23 21  2  0
M  END
$$$$
