GMH.pdb
     RDKit          3D

 23 23  0  0  1  0  0  0  0  0999 V2000
   30.3697  -20.3304  -11.4049 N   0  0  0  0  0  0  0  0  0  0  0  0
   29.5677  -21.3156  -12.1149 C   0  0  0  0  0  0  0  0  0  0  0  0
   28.2760  -21.4497  -11.3913 C   0  0  0  0  0  0  0  0  0  0  0  0
   27.4753  -22.4071  -11.6253 O   0  0  0  0  0  0  0  0  0  0  0  0
   26.3861  -19.9678   -5.0519 C   0  0  0  0  0  0  0  0  0  0  0  0
   27.8441  -19.4807   -6.0334 S   0  0  0  0  0  0  0  0  0  0  0  0
   27.8012  -20.4115   -7.5834 C   0  0  0  0  0  0  0  0  0  0  0  0
   26.6141  -19.8965   -8.3814 C   0  0  0  0  0  0  0  0  0  0  0  0
   26.5949  -20.6531   -9.7035 C   0  0  2  0  0  0  0  0  0  0  0  0
   27.8576  -20.5225  -10.3992 N   0  0  0  0  0  0  0  0  0  0  0  0
   25.4770  -20.0812  -10.4930 C   0  0  0  0  0  0  0  0  0  0  0  0
   25.6055  -18.9452  -11.0090 O   0  0  0  0  0  0  0  0  0  0  0  0
   24.2801  -20.7868  -10.6728 N   0  0  0  0  0  0  0  0  0  0  0  0
   23.4497  -20.7210  -11.8646 C   0  0  1  0  0  0  0  0  0  0  0  0
   23.9651  -21.8175  -12.7907 C   0  0  0  0  0  0  0  0  0  0  0  0
   24.9496  -21.3234  -13.7673 C   0  0  0  0  0  0  0  0  0  0  0  0
   25.3273  -20.0086  -13.9682 C   0  0  0  0  0  0  0  0  0  0  0  0
   26.2514  -19.9750  -14.9502 N   0  0  0  0  0  0  0  0  0  0  0  0
   26.4726  -21.2178  -15.3781 C   0  0  0  0  0  0  0  0  0  0  0  0
   25.6827  -22.0362  -14.6602 N   0  0  0  0  0  0  0  0  0  0  0  0
   22.0509  -21.0268  -11.4267 C   0  0  0  0  0  0  0  0  0  0  0  0
   21.7706  -21.9167  -10.4005 O   0  0  0  0  0  0  0  0  0  0  0  0
   21.0511  -20.4724  -11.9892 O   0  0  0  0  0  0  0  0  0  0  0  0
  2  3  1  0
  2  1  1  0
  3 10  1  0
  4  3  2  0
  6  5  1  0
  7  8  1  0
  7  6  1  0
  9  8  1  1
  9 11  1  0
 10  9  1  0
 11 13  1  0
 11 12  2  0
 13 14  1  0
 14 21  1  0
 14 15  1  6
 16 15  1  0
 16 17  2  0
 18 17  1  0
 19 18  1  0
 20 19  2  0
 20 16  1  0
 21 22  1  0
 23 21  2  0
M  END
$$$$
