GMH.pdb
     RDKit          3D

 23 23  0  0  1  0  0  0  0  0999 V2000
   20.7185  -13.3606  -17.6382 N   0  0  0  0  0  0  0  0  0  0  0  0
   21.0292  -12.0080  -18.0764 C   0  0  0  0  0  0  0  0  0  0  0  0
   21.5529  -11.2636  -16.9010 C   0  0  0  0  0  0  0  0  0  0  0  0
   20.9350  -11.2461  -15.7917 O   0  0  0  0  0  0  0  0  0  0  0  0
   27.5977  -12.6208  -14.8983 C   0  0  0  0  0  0  0  0  0  0  0  0
   27.0017  -10.9703  -15.3952 S   0  0  0  0  0  0  0  0  0  0  0  0
   25.1939  -11.0189  -15.4112 C   0  0  0  0  0  0  0  0  0  0  0  0
   24.7120   -9.6193  -15.7575 C   0  0  0  0  0  0  0  0  0  0  0  0
   23.1927   -9.6746  -15.8544 C   0  0  2  0  0  0  0  0  0  0  0  0
   22.7689  -10.5297  -16.9429 N   0  0  0  0  0  0  0  0  0  0  0  0
   22.7381   -8.2766  -16.0519 C   0  0  0  0  0  0  0  0  0  0  0  0
   22.7893   -7.7685  -17.1976 O   0  0  0  0  0  0  0  0  0  0  0  0
   22.2526   -7.5133  -14.9821 N   0  0  0  0  0  0  0  0  0  0  0  0
   21.6507   -6.1958  -15.1094 C   0  0  1  0  0  0  0  0  0  0  0  0
   20.1909   -6.3653  -14.7020 C   0  0  0  0  0  0  0  0  0  0  0  0
   19.3803   -7.0188  -15.7428 C   0  0  0  0  0  0  0  0  0  0  0  0
   19.0804   -8.3654  -15.8337 C   0  0  0  0  0  0  0  0  0  0  0  0
   18.3152   -8.5597  -16.9275 N   0  0  0  0  0  0  0  0  0  0  0  0
   18.1198   -7.3878  -17.5317 C   0  0  0  0  0  0  0  0  0  0  0  0
   18.7661   -6.4527  -16.8128 N   0  0  0  0  0  0  0  0  0  0  0  0
   22.3610   -5.3071  -14.1361 C   0  0  0  0  0  0  0  0  0  0  0  0
   22.2227   -3.9271  -14.1513 O   0  0  0  0  0  0  0  0  0  0  0  0
   23.1305   -5.7929  -13.2444 O   0  0  0  0  0  0  0  0  0  0  0  0
  2  3  1  0
  2  1  1  0
  3 10  1  0
  4  3  2  0
  6  5  1  0
  7  8  1  0
  7  6  1  0
  9  8  1  6
  9 11  1  0
 10  9  1  0
 11 13  1  0
 11 12  2  0
 13 14  1  0
 14 21  1  0
 14 15  1  1
 16 15  1  0
 16 17  2  0
 18 17  1  0
 19 18  1  0
 20 19  2  0
 20 16  1  0
 21 22  1  0
 23 21  2  0
M  END
$$$$
