GMH.pdb
     RDKit          3D

 23 23  0  0  1  0  0  0  0  0999 V2000
   23.4002  -20.5482   -8.2235 N   0  0  0  0  0  0  0  0  0  0  0  0
   24.0113  -21.5276   -9.1097 C   0  0  0  0  0  0  0  0  0  0  0  0
   24.6532  -20.7851  -10.2262 C   0  0  0  0  0  0  0  0  0  0  0  0
   24.3058  -19.6017  -10.5286 O   0  0  0  0  0  0  0  0  0  0  0  0
   30.1348  -20.5521  -13.6966 C   0  0  0  0  0  0  0  0  0  0  0  0
   30.1758  -20.3823  -11.8811 S   0  0  0  0  0  0  0  0  0  0  0  0
   28.5336  -20.8026  -11.2510 C   0  0  0  0  0  0  0  0  0  0  0  0
   27.6678  -21.1455  -12.4527 C   0  0  0  0  0  0  0  0  0  0  0  0
   26.2594  -20.6487  -12.1525 C   0  0  2  0  0  0  0  0  0  0  0  0
   25.6885  -21.3474  -11.0205 N   0  0  0  0  0  0  0  0  0  0  0  0
   25.4679  -20.8740  -13.3866 C   0  0  0  0  0  0  0  0  0  0  0  0
   25.2154  -22.0474  -13.7506 O   0  0  0  0  0  0  0  0  0  0  0  0
   24.9971  -19.7998  -14.1530 N   0  0  0  0  0  0  0  0  0  0  0  0
   24.1132  -19.9247  -15.3008 C   0  0  1  0  0  0  0  0  0  0  0  0
   22.9440  -18.9842  -15.0286 C   0  0  0  0  0  0  0  0  0  0  0  0
   21.9150  -19.5881  -14.1662 C   0  0  0  0  0  0  0  0  0  0  0  0
   21.9135  -20.8730  -13.6557 C   0  0  0  0  0  0  0  0  0  0  0  0
   20.7983  -21.0369  -12.9148 N   0  0  0  0  0  0  0  0  0  0  0  0
   20.0945  -19.9052  -12.9372 C   0  0  0  0  0  0  0  0  0  0  0  0
   20.7721  -19.0259  -13.6965 N   0  0  0  0  0  0  0  0  0  0  0  0
   24.8910  -19.4545  -16.4906 C   0  0  0  0  0  0  0  0  0  0  0  0
   24.6044  -19.8762  -17.7805 O   0  0  0  0  0  0  0  0  0  0  0  0
   25.8597  -18.6371  -16.3604 O   0  0  0  0  0  0  0  0  0  0  0  0
  2  3  1  0
  2  1  1  0
  3 10  1  0
  4  3  2  0
  6  5  1  0
  7  8  1  0
  7  6  1  0
  9  8  1  6
  9 11  1  0
 10  9  1  0
 11 13  1  0
 11 12  2  0
 13 14  1  0
 14 21  1  0
 14 15  1  1
 16 15  1  0
 16 17  2  0
 18 17  1  0
 19 18  1  0
 20 19  2  0
 20 16  1  0
 21 22  1  0
 23 21  2  0
M  END
$$$$
