GMH.pdb
     RDKit          3D

 23 23  0  0  1  0  0  0  0  0999 V2000
   23.0518  -15.4278  -17.9268 N   0  0  0  0  0  0  0  0  0  0  0  0
   22.4176  -14.2383  -18.4754 C   0  0  0  0  0  0  0  0  0  0  0  0
   22.8166  -13.0843  -17.6274 C   0  0  0  0  0  0  0  0  0  0  0  0
   22.3144  -12.8957  -16.4764 O   0  0  0  0  0  0  0  0  0  0  0  0
   27.9544  -12.9897  -15.2617 C   0  0  0  0  0  0  0  0  0  0  0  0
   26.6887  -11.7168  -15.5842 S   0  0  0  0  0  0  0  0  0  0  0  0
   26.5316  -11.5374  -17.3769 C   0  0  0  0  0  0  0  0  0  0  0  0
   25.5089  -10.4410  -17.6286 C   0  0  0  0  0  0  0  0  0  0  0  0
   24.1467  -10.9916  -17.2264 C   0  0  2  0  0  0  0  0  0  0  0  0
   23.7779  -12.1257  -18.0470 N   0  0  0  0  0  0  0  0  0  0  0  0
   23.1848   -9.8730  -17.3802 C   0  0  0  0  0  0  0  0  0  0  0  0
   22.6724   -9.6516  -18.5034 O   0  0  0  0  0  0  0  0  0  0  0  0
   22.8383   -9.0592  -16.2937 N   0  0  0  0  0  0  0  0  0  0  0  0
   21.8807   -7.9664  -16.3484 C   0  0  1  0  0  0  0  0  0  0  0  0
   20.5310   -8.6117  -16.6441 C   0  0  0  0  0  0  0  0  0  0  0  0
   19.4315   -7.6343  -16.7009 C   0  0  0  0  0  0  0  0  0  0  0  0
   19.3604   -6.5154  -17.5100 C   0  0  0  0  0  0  0  0  0  0  0  0
   18.1948   -5.8831  -17.2630 N   0  0  0  0  0  0  0  0  0  0  0  0
   17.5261   -6.5590  -16.3289 C   0  0  0  0  0  0  0  0  0  0  0  0
   18.2765   -7.6217  -15.9877 N   0  0  0  0  0  0  0  0  0  0  0  0
   21.8698   -7.3409  -14.9882 C   0  0  0  0  0  0  0  0  0  0  0  0
   21.1960   -6.1590  -14.7184 O   0  0  0  0  0  0  0  0  0  0  0  0
   22.4886   -7.8792  -14.0132 O   0  0  0  0  0  0  0  0  0  0  0  0
  2  3  1  0
  2  1  1  0
  3 10  1  0
  4  3  2  0
  6  5  1  0
  7  8  1  0
  7  6  1  0
  9  8  1  6
  9 11  1  0
 10  9  1  0
 11 13  1  0
 11 12  2  0
 13 14  1  0
 14 21  1  0
 14 15  1  1
 16 15  1  0
 16 17  2  0
 18 17  1  0
 19 18  1  0
 20 19  2  0
 20 16  1  0
 21 22  1  0
 23 21  2  0
M  END
$$$$
