HED.pdb
     RDKit          3D

 28 28  0  0  1  0  0  0  0  0999 V2000
   25.6933  -20.0931  -15.2738 N   0  0  0  0  0  0  0  0  0  0  0  0
   24.8582  -21.2786  -15.2603 C   0  0  1  0  0  0  0  0  0  0  0  0
   25.7157  -22.4478  -14.8160 C   0  0  0  0  0  0  0  0  0  0  0  0
   26.8127  -22.7131  -15.7616 C   0  0  0  0  0  0  0  0  0  0  0  0
   27.1235  -21.9314  -16.8481 C   0  0  0  0  0  0  0  0  0  0  0  0
   28.1848  -22.4641  -17.5045 N   0  0  0  0  0  0  0  0  0  0  0  0
   28.5280  -23.5794  -16.8175 C   0  0  0  0  0  0  0  0  0  0  0  0
   27.6857  -23.7268  -15.7527 N   0  0  0  0  0  0  0  0  0  0  0  0
   23.7303  -21.0233  -14.3366 C   0  0  0  0  0  0  0  0  0  0  0  0
   23.9978  -20.6552  -13.1670 O   0  0  0  0  0  0  0  0  0  0  0  0
   22.3621  -21.1679  -14.6865 N   0  0  0  0  0  0  0  0  0  0  0  0
   21.2988  -20.9061  -13.7044 C   0  0  1  0  0  0  0  0  0  0  0  0
   20.3258  -19.9094  -14.2928 C   0  0  0  0  0  0  0  0  0  0  0  0
   20.4889  -18.5381  -13.7266 C   0  0  0  0  0  0  0  0  0  0  0  0
   19.3840  -17.6774  -14.1959 C   0  0  0  0  0  0  0  0  0  0  0  0
   18.5233  -18.1430  -14.9731 O   0  0  0  0  0  0  0  0  0  0  0  0
   20.6501  -22.1582  -13.3008 C   0  0  0  0  0  0  0  0  0  0  0  0
   20.6293  -23.1267  -14.0951 O   0  0  0  0  0  0  0  0  0  0  0  0
   19.2782  -16.3615  -13.7942 O   0  0  0  0  0  0  0  0  0  0  0  0
   20.0478  -22.2923  -12.0324 N   0  0  0  0  0  0  0  0  0  0  0  0
   19.3521  -23.5210  -11.6007 C   0  0  1  0  0  0  0  0  0  0  0  0
   19.1439  -23.5273  -10.1323 C   0  0  0  0  0  0  0  0  0  0  0  0
   18.3591  -24.6975   -9.7101 C   0  0  0  0  0  0  0  0  0  0  0  0
   17.9225  -25.5965  -10.4557 O   0  0  0  0  0  0  0  0  0  0  0  0
   18.0965  -23.6397  -12.4011 C   0  0  0  0  0  0  0  0  0  0  0  0
   17.8596  -24.7460  -13.0093 O   0  0  0  0  0  0  0  0  0  0  0  0
   18.0288  -24.8881   -8.3407 O   0  0  0  0  0  0  0  0  0  0  0  0
   17.1355  -22.6788  -12.5699 O   0  0  0  0  0  0  0  0  0  0  0  0
  2  1  1  1
  3  4  1  0
  3  2  1  0
  4  5  2  0
  6  5  1  0
  7  6  1  0
  8  7  2  0
  8  4  1  0
  9  2  1  0
  9 11  1  0
 10  9  2  0
 11 12  1  0
 12 13  1  6
 13 14  1  0
 14 15  1  0
 15 19  1  0
 16 15  2  0
 17 12  1  0
 18 17  2  0
 20 17  1  0
 21 20  1  0
 21 25  1  0
 21 22  1  1
 23 22  1  0
 23 27  1  0
 24 23  2  0
 25 28  1  0
 26 25  2  0
M  END
$$$$
