HED.pdb
     RDKit          3D

 28 28  0  0  1  0  0  0  0  0999 V2000
   14.1035   -8.5845   -7.9573 N   0  0  0  0  0  0  0  0  0  0  0  0
   14.5000   -7.4817   -8.8116 C   0  0  1  0  0  0  0  0  0  0  0  0
   14.9048   -6.3236   -7.9200 C   0  0  0  0  0  0  0  0  0  0  0  0
   13.7370   -5.6735   -7.3024 C   0  0  0  0  0  0  0  0  0  0  0  0
   12.4271   -6.0118   -7.5433 C   0  0  0  0  0  0  0  0  0  0  0  0
   11.6082   -5.2127   -6.8141 N   0  0  0  0  0  0  0  0  0  0  0  0
   12.4195   -4.3787   -6.1212 C   0  0  0  0  0  0  0  0  0  0  0  0
   13.7200   -4.6650   -6.4235 N   0  0  0  0  0  0  0  0  0  0  0  0
   15.6137   -7.9523   -9.6653 C   0  0  0  0  0  0  0  0  0  0  0  0
   16.5494   -8.5848   -9.1180 O   0  0  0  0  0  0  0  0  0  0  0  0
   15.6942   -7.7350  -11.0658 N   0  0  0  0  0  0  0  0  0  0  0  0
   16.7824   -8.3244  -11.8610 C   0  0  1  0  0  0  0  0  0  0  0  0
   16.1801   -9.1654  -12.9640 C   0  0  0  0  0  0  0  0  0  0  0  0
   17.2116   -9.8288  -13.8147 C   0  0  0  0  0  0  0  0  0  0  0  0
   16.5450  -10.6472  -14.8480 C   0  0  0  0  0  0  0  0  0  0  0  0
   16.8601  -10.5053  -16.0489 O   0  0  0  0  0  0  0  0  0  0  0  0
   17.6736   -7.2772  -12.3714 C   0  0  0  0  0  0  0  0  0  0  0  0
   17.1997   -6.1589  -12.6786 O   0  0  0  0  0  0  0  0  0  0  0  0
   15.5753  -11.5714  -14.5172 O   0  0  0  0  0  0  0  0  0  0  0  0
   19.0570   -7.5065  -12.5234 N   0  0  0  0  0  0  0  0  0  0  0  0
   19.9891   -6.4801  -13.0312 C   0  0  1  0  0  0  0  0  0  0  0  0
   21.3289   -6.6239  -12.4117 C   0  0  0  0  0  0  0  0  0  0  0  0
   22.2412   -5.5615  -12.8617 C   0  0  0  0  0  0  0  0  0  0  0  0
   21.9137   -4.4068  -13.1993 O   0  0  0  0  0  0  0  0  0  0  0  0
   19.9886   -6.5611  -14.5227 C   0  0  0  0  0  0  0  0  0  0  0  0
   20.5050   -5.5922  -15.1894 O   0  0  0  0  0  0  0  0  0  0  0  0
   23.6401   -5.8001  -12.9451 O   0  0  0  0  0  0  0  0  0  0  0  0
   19.4870   -7.5782  -15.2904 O   0  0  0  0  0  0  0  0  0  0  0  0
  2  1  1  1
  3  4  1  0
  3  2  1  0
  4  5  2  0
  6  5  1  0
  7  6  1  0
  8  7  2  0
  8  4  1  0
  9  2  1  0
  9 11  1  0
 10  9  2  0
 11 12  1  0
 12 13  1  6
 13 14  1  0
 14 15  1  0
 15 19  1  0
 16 15  2  0
 17 12  1  0
 18 17  2  0
 20 17  1  0
 21 20  1  0
 21 25  1  0
 21 22  1  1
 23 22  1  0
 23 27  1  0
 24 23  2  0
 25 28  1  0
 26 25  2  0
M  END
$$$$
