HED.pdb
     RDKit          3D

 28 28  0  0  1  0  0  0  0  0999 V2000
   21.6712  -12.7242  -17.5739 N   0  0  0  0  0  0  0  0  0  0  0  0
   21.0520  -11.4279  -17.7718 C   0  0  1  0  0  0  0  0  0  0  0  0
   19.6303  -11.5058  -17.2496 C   0  0  0  0  0  0  0  0  0  0  0  0
   18.7874  -12.3784  -18.0838 C   0  0  0  0  0  0  0  0  0  0  0  0
   17.9505  -11.9447  -19.0836 C   0  0  0  0  0  0  0  0  0  0  0  0
   17.3225  -13.0079  -19.6460 N   0  0  0  0  0  0  0  0  0  0  0  0
   17.7762  -14.1011  -18.9880 C   0  0  0  0  0  0  0  0  0  0  0  0
   18.6716  -13.7103  -18.0340 N   0  0  0  0  0  0  0  0  0  0  0  0
   21.8650  -10.4260  -17.0467 C   0  0  0  0  0  0  0  0  0  0  0  0
   21.9901  -10.5555  -15.8046 O   0  0  0  0  0  0  0  0  0  0  0  0
   22.5143   -9.3250  -17.6644 N   0  0  0  0  0  0  0  0  0  0  0  0
   23.3259   -8.3859  -16.8750 C   0  0  1  0  0  0  0  0  0  0  0  0
   24.6196   -8.1207  -17.6116 C   0  0  0  0  0  0  0  0  0  0  0  0
   24.4733   -8.2233  -19.0934 C   0  0  0  0  0  0  0  0  0  0  0  0
   25.7825   -7.9855  -19.7347 C   0  0  0  0  0  0  0  0  0  0  0  0
   26.7232   -8.7839  -19.5370 O   0  0  0  0  0  0  0  0  0  0  0  0
   22.5714   -7.1588  -16.5984 C   0  0  0  0  0  0  0  0  0  0  0  0
   21.9220   -6.6124  -17.5199 O   0  0  0  0  0  0  0  0  0  0  0  0
   25.9938   -6.8946  -20.5529 O   0  0  0  0  0  0  0  0  0  0  0  0
   22.5636   -6.5814  -15.3115 N   0  0  0  0  0  0  0  0  0  0  0  0
   21.7885   -5.3688  -14.9812 C   0  0  1  0  0  0  0  0  0  0  0  0
   20.3528   -5.5493  -15.3060 C   0  0  0  0  0  0  0  0  0  0  0  0
   19.5730   -4.3513  -14.9593 C   0  0  0  0  0  0  0  0  0  0  0  0
   19.9834   -3.1743  -14.9887 O   0  0  0  0  0  0  0  0  0  0  0  0
   22.0585   -5.0300  -13.5516 C   0  0  0  0  0  0  0  0  0  0  0  0
   22.5133   -5.9498  -12.7790 O   0  0  0  0  0  0  0  0  0  0  0  0
   18.2189   -4.4681  -14.5430 O   0  0  0  0  0  0  0  0  0  0  0  0
   21.8733   -3.8159  -12.9456 O   0  0  0  0  0  0  0  0  0  0  0  0
  2  1  1  1
  3  4  1  0
  3  2  1  0
  4  5  2  0
  6  5  1  0
  7  6  1  0
  8  7  2  0
  8  4  1  0
  9  2  1  0
  9 11  1  0
 10  9  2  0
 11 12  1  0
 12 13  1  6
 13 14  1  0
 14 15  1  0
 15 19  1  0
 16 15  2  0
 17 12  1  0
 18 17  2  0
 20 17  1  0
 21 20  1  0
 21 25  1  0
 21 22  1  1
 23 22  1  0
 23 27  1  0
 24 23  2  0
 25 28  1  0
 26 25  2  0
M  END
$$$$
