HED.pdb
     RDKit          3D

 28 28  0  0  1  0  0  0  0  0999 V2000
   28.0314  -20.6836  -16.9778 N   0  0  0  0  0  0  0  0  0  0  0  0
   27.6092  -19.8600  -15.8614 C   0  0  1  0  0  0  0  0  0  0  0  0
   27.0914  -18.5483  -16.4193 C   0  0  0  0  0  0  0  0  0  0  0  0
   28.1762  -17.7249  -16.9791 C   0  0  0  0  0  0  0  0  0  0  0  0
   29.5022  -18.0838  -17.0113 C   0  0  0  0  0  0  0  0  0  0  0  0
   30.2282  -17.0952  -17.5915 N   0  0  0  0  0  0  0  0  0  0  0  0
   29.3433  -16.1234  -17.9175 C   0  0  0  0  0  0  0  0  0  0  0  0
   28.0901  -16.5138  -17.5408 N   0  0  0  0  0  0  0  0  0  0  0  0
   26.5688  -20.6072  -15.1198 C   0  0  0  0  0  0  0  0  0  0  0  0
   25.6258  -21.1130  -15.7756 O   0  0  0  0  0  0  0  0  0  0  0  0
   26.5665  -20.7901  -13.7120 N   0  0  0  0  0  0  0  0  0  0  0  0
   25.4174  -21.4068  -13.0316 C   0  0  1  0  0  0  0  0  0  0  0  0
   25.7848  -21.6612  -11.5871 C   0  0  0  0  0  0  0  0  0  0  0  0
   26.0110  -20.4027  -10.8172 C   0  0  0  0  0  0  0  0  0  0  0  0
   25.5271  -20.5790   -9.4328 C   0  0  0  0  0  0  0  0  0  0  0  0
   25.1689  -21.7104   -9.0413 O   0  0  0  0  0  0  0  0  0  0  0  0
   24.2235  -20.5662  -13.1714 C   0  0  0  0  0  0  0  0  0  0  0  0
   24.3394  -19.3191  -13.1402 O   0  0  0  0  0  0  0  0  0  0  0  0
   25.4603  -19.5168   -8.5546 O   0  0  0  0  0  0  0  0  0  0  0  0
   22.9448  -21.1369  -13.3403 N   0  0  0  0  0  0  0  0  0  0  0  0
   21.7182  -20.3279  -13.4860 C   0  0  1  0  0  0  0  0  0  0  0  0
   21.4991  -19.9429  -14.9014 C   0  0  0  0  0  0  0  0  0  0  0  0
   20.2480  -19.1859  -15.0604 C   0  0  0  0  0  0  0  0  0  0  0  0
   19.5929  -18.6498  -14.1450 O   0  0  0  0  0  0  0  0  0  0  0  0
   20.5910  -21.0940  -12.8747 C   0  0  0  0  0  0  0  0  0  0  0  0
   20.5079  -22.3542  -13.1092 O   0  0  0  0  0  0  0  0  0  0  0  0
   19.6720  -19.0075  -16.3477 O   0  0  0  0  0  0  0  0  0  0  0  0
   19.6025  -20.5977  -12.0672 O   0  0  0  0  0  0  0  0  0  0  0  0
  2  1  1  6
  3  4  1  0
  3  2  1  0
  4  5  2  0
  6  5  1  0
  7  6  1  0
  8  7  2  0
  8  4  1  0
  9  2  1  0
  9 11  1  0
 10  9  2  0
 11 12  1  0
 12 13  1  1
 13 14  1  0
 14 15  1  0
 15 19  1  0
 16 15  2  0
 17 12  1  0
 18 17  2  0
 20 17  1  0
 21 20  1  0
 21 25  1  0
 21 22  1  6
 23 22  1  0
 23 27  1  0
 24 23  2  0
 25 28  1  0
 26 25  2  0
M  END
$$$$
