HED.pdb
     RDKit          3D

 28 28  0  0  1  0  0  0  0  0999 V2000
   15.8896   -9.4172   -9.5308 N   0  0  0  0  0  0  0  0  0  0  0  0
   15.9456   -8.2743  -10.4217 C   0  0  1  0  0  0  0  0  0  0  0  0
   16.0753   -7.0258   -9.5707 C   0  0  0  0  0  0  0  0  0  0  0  0
   14.8416   -6.7456   -8.8175 C   0  0  0  0  0  0  0  0  0  0  0  0
   14.7938   -6.3353   -7.5070 C   0  0  0  0  0  0  0  0  0  0  0  0
   13.5016   -6.1724   -7.1269 N   0  0  0  0  0  0  0  0  0  0  0  0
   12.7511   -6.4845   -8.2100 C   0  0  0  0  0  0  0  0  0  0  0  0
   13.5756   -6.8341   -9.2409 N   0  0  0  0  0  0  0  0  0  0  0  0
   17.1031   -8.4644  -11.3243 C   0  0  0  0  0  0  0  0  0  0  0  0
   18.1825   -8.8629  -10.8230 O   0  0  0  0  0  0  0  0  0  0  0  0
   17.0735   -8.2250  -12.7233 N   0  0  0  0  0  0  0  0  0  0  0  0
   18.2681   -8.4440  -13.5532 C   0  0  1  0  0  0  0  0  0  0  0  0
   17.9226   -9.4160  -14.6587 C   0  0  0  0  0  0  0  0  0  0  0  0
   19.0872   -9.7308  -15.5374 C   0  0  0  0  0  0  0  0  0  0  0  0
   18.6499  -10.6169  -16.6354 C   0  0  0  0  0  0  0  0  0  0  0  0
   18.4367  -11.8268  -16.4073 O   0  0  0  0  0  0  0  0  0  0  0  0
   18.7828   -7.1684  -14.0627 C   0  0  0  0  0  0  0  0  0  0  0  0
   17.9839   -6.2368  -14.3148 O   0  0  0  0  0  0  0  0  0  0  0  0
   18.4699  -10.1374  -17.9167 O   0  0  0  0  0  0  0  0  0  0  0  0
   20.1631   -6.9709  -14.2750 N   0  0  0  0  0  0  0  0  0  0  0  0
   20.7270   -5.6904  -14.7466 C   0  0  1  0  0  0  0  0  0  0  0  0
   22.0529   -5.4342  -14.1335 C   0  0  0  0  0  0  0  0  0  0  0  0
   21.9178   -4.9829  -12.7400 C   0  0  0  0  0  0  0  0  0  0  0  0
   20.8570   -4.6493  -12.1760 O   0  0  0  0  0  0  0  0  0  0  0  0
   20.7341   -5.7174  -16.2401 C   0  0  0  0  0  0  0  0  0  0  0  0
   20.8539   -6.8509  -16.8321 O   0  0  0  0  0  0  0  0  0  0  0  0
   23.0591   -4.8931  -11.8975 O   0  0  0  0  0  0  0  0  0  0  0  0
   20.6245   -4.6428  -17.0820 O   0  0  0  0  0  0  0  0  0  0  0  0
  2  1  1  1
  3  4  1  0
  3  2  1  0
  4  5  2  0
  6  5  1  0
  7  6  1  0
  8  7  2  0
  8  4  1  0
  9  2  1  0
  9 11  1  0
 10  9  2  0
 11 12  1  0
 12 13  1  6
 13 14  1  0
 14 15  1  0
 15 19  1  0
 16 15  2  0
 17 12  1  0
 18 17  2  0
 20 17  1  0
 21 20  1  0
 21 25  1  0
 21 22  1  1
 23 22  1  0
 23 27  1  0
 24 23  2  0
 25 28  1  0
 26 25  2  0
M  END
$$$$
