THD.pdb
     RDKit          3D

 26 26  0  0  1  0  0  0  0  0999 V2000
   28.6954  -10.8810  -16.3319 C   0  0  0  0  0  0  0  0  0  0  0  0
   27.3337  -10.2656  -16.3493 C   0  0  1  0  0  0  0  0  0  0  0  0
   27.3112   -9.2555  -17.3021 O   0  0  0  0  0  0  0  0  0  0  0  0
   26.2337  -11.2537  -16.7333 C   0  0  2  0  0  0  0  0  0  0  0  0
   26.5433  -11.7799  -18.0317 N   0  0  0  0  0  0  0  0  0  0  0  0
   24.8879  -10.5877  -16.6888 C   0  0  0  0  0  0  0  0  0  0  0  0
   24.4904  -10.0819  -17.7432 O   0  0  0  0  0  0  0  0  0  0  0  0
   24.1173  -10.5361  -15.5246 N   0  0  0  0  0  0  0  0  0  0  0  0
   22.8668   -9.9049  -15.3248 C   0  0  1  0  0  0  0  0  0  0  0  0
   21.8474  -10.6684  -14.4930 C   0  0  0  0  0  0  0  0  0  0  0  0
   20.5275  -10.0079  -14.4837 C   0  0  0  0  0  0  0  0  0  0  0  0
   19.6435   -9.8744  -15.5274 C   0  0  0  0  0  0  0  0  0  0  0  0
   18.5655   -9.1484  -15.1080 N   0  0  0  0  0  0  0  0  0  0  0  0
   18.7957   -8.8436  -13.8168 C   0  0  0  0  0  0  0  0  0  0  0  0
   19.9809   -9.3648  -13.4452 N   0  0  0  0  0  0  0  0  0  0  0  0
   22.9116   -8.4643  -15.0472 C   0  0  0  0  0  0  0  0  0  0  0  0
   23.7031   -8.0663  -14.1160 O   0  0  0  0  0  0  0  0  0  0  0  0
   22.1639   -7.4894  -15.7129 N   0  0  0  0  0  0  0  0  0  0  0  0
   22.1765   -6.0532  -15.3755 C   0  0  1  0  0  0  0  0  0  0  0  0
   21.9343   -5.2323  -16.6119 C   0  0  0  0  0  0  0  0  0  0  0  0
   21.8595   -3.7899  -16.3063 C   0  0  0  0  0  0  0  0  0  0  0  0
   22.4658   -3.2035  -15.3751 O   0  0  0  0  0  0  0  0  0  0  0  0
   21.0417   -5.8476  -14.4453 C   0  0  0  0  0  0  0  0  0  0  0  0
   21.1977   -4.9214  -13.4025 O   0  0  0  0  0  0  0  0  0  0  0  0
   21.0567   -2.9273  -17.0849 O   0  0  0  0  0  0  0  0  0  0  0  0
   19.9427   -6.4312  -14.5041 O   0  0  0  0  0  0  0  0  0  0  0  0
  2  1  1  6
  2  4  1  0
  3  2  1  0
  4  6  1  0
  4  5  1  6
  6  7  2  0
  8  9  1  0
  8  6  1  0
  9 10  1  1
 11 10  1  0
 12 11  2  0
 13 14  1  0
 13 12  1  0
 14 15  2  0
 15 11  1  0
 16 17  2  0
 16  9  1  0
 18 16  1  0
 19 18  1  0
 20 21  1  0
 19 20  1  6
 21 22  2  0
 23 19  1  0
 23 24  1  0
 25 21  1  0
 26 23  2  0
M  END
$$$$
