THD.pdb
     RDKit          3D

 26 26  0  0  1  0  0  0  0  0999 V2000
   21.6112   -9.7145  -19.2753 C   0  0  0  0  0  0  0  0  0  0  0  0
   22.5595   -9.9158  -18.1380 C   0  0  1  0  0  0  0  0  0  0  0  0
   23.2934   -8.7510  -17.9557 O   0  0  0  0  0  0  0  0  0  0  0  0
   21.8551  -10.2010  -16.8128 C   0  0  2  0  0  0  0  0  0  0  0  0
   21.2048  -11.4753  -16.9212 N   0  0  0  0  0  0  0  0  0  0  0  0
   20.8973   -9.0936  -16.4760 C   0  0  0  0  0  0  0  0  0  0  0  0
   19.8386   -9.0711  -17.1118 O   0  0  0  0  0  0  0  0  0  0  0  0
   21.1766   -8.1349  -15.4989 N   0  0  0  0  0  0  0  0  0  0  0  0
   20.4008   -7.0141  -15.1193 C   0  0  1  0  0  0  0  0  0  0  0  0
   20.1740   -6.8207  -13.6276 C   0  0  0  0  0  0  0  0  0  0  0  0
   19.3051   -7.8675  -13.0549 C   0  0  0  0  0  0  0  0  0  0  0  0
   18.6634   -8.8866  -13.7170 C   0  0  0  0  0  0  0  0  0  0  0  0
   17.9168   -9.5984  -12.8220 N   0  0  0  0  0  0  0  0  0  0  0  0
   18.1054   -9.0132  -11.6240 C   0  0  0  0  0  0  0  0  0  0  0  0
   18.9440   -7.9693  -11.7704 N   0  0  0  0  0  0  0  0  0  0  0  0
   20.6661   -5.7710  -15.8533 C   0  0  0  0  0  0  0  0  0  0  0  0
   21.8591   -5.2960  -15.7993 O   0  0  0  0  0  0  0  0  0  0  0  0
   19.7273   -5.0614  -16.6067 N   0  0  0  0  0  0  0  0  0  0  0  0
   20.0315   -3.8513  -17.3940 C   0  0  1  0  0  0  0  0  0  0  0  0
   19.0927   -3.7494  -18.5641 C   0  0  0  0  0  0  0  0  0  0  0  0
   19.3956   -4.7572  -19.5995 C   0  0  0  0  0  0  0  0  0  0  0  0
   20.5043   -5.3223  -19.7731 O   0  0  0  0  0  0  0  0  0  0  0  0
   19.7790   -2.7067  -16.4879 C   0  0  0  0  0  0  0  0  0  0  0  0
   20.1070   -1.4185  -16.9383 O   0  0  0  0  0  0  0  0  0  0  0  0
   18.4029   -5.1749  -20.5132 O   0  0  0  0  0  0  0  0  0  0  0  0
   19.2940   -2.7831  -15.3429 O   0  0  0  0  0  0  0  0  0  0  0  0
  2  1  1  6
  2  4  1  0
  3  2  1  0
  4  6  1  0
  4  5  1  6
  6  7  2  0
  8  9  1  0
  8  6  1  0
  9 10  1  1
 11 10  1  0
 12 11  2  0
 13 14  1  0
 13 12  1  0
 14 15  2  0
 15 11  1  0
 16 17  2  0
 16  9  1  0
 18 16  1  0
 19 18  1  0
 20 21  1  0
 19 20  1  6
 21 22  2  0
 23 19  1  0
 23 24  1  0
 25 21  1  0
 26 23  2  0
M  END
$$$$
