THD.pdb
     RDKit          3D

 26 26  0  0  1  0  0  0  0  0999 V2000
   16.0404   -8.5943  -16.6321 C   0  0  0  0  0  0  0  0  0  0  0  0
   16.1668   -9.8482  -15.8289 C   0  0  1  0  0  0  0  0  0  0  0  0
   15.2423  -10.7735  -16.2952 O   0  0  0  0  0  0  0  0  0  0  0  0
   17.5415  -10.5032  -15.9517 C   0  0  2  0  0  0  0  0  0  0  0  0
   17.5312  -11.7062  -15.1699 N   0  0  0  0  0  0  0  0  0  0  0  0
   18.6201   -9.5488  -15.5242 C   0  0  0  0  0  0  0  0  0  0  0  0
   18.7739   -9.4035  -14.3073 O   0  0  0  0  0  0  0  0  0  0  0  0
   19.4134   -8.8569  -16.4427 N   0  0  0  0  0  0  0  0  0  0  0  0
   20.5024   -7.9903  -16.1873 C   0  0  1  0  0  0  0  0  0  0  0  0
   21.8606   -8.4376  -16.7061 C   0  0  0  0  0  0  0  0  0  0  0  0
   22.3197   -9.6853  -16.0651 C   0  0  0  0  0  0  0  0  0  0  0  0
   23.1261   -9.8189  -14.9602 C   0  0  0  0  0  0  0  0  0  0  0  0
   23.3529  -11.1462  -14.7323 N   0  0  0  0  0  0  0  0  0  0  0  0
   22.6872  -11.8129  -15.6943 C   0  0  0  0  0  0  0  0  0  0  0  0
   22.0655  -10.9266  -16.4956 N   0  0  0  0  0  0  0  0  0  0  0  0
   20.2361   -6.5569  -16.3570 C   0  0  0  0  0  0  0  0  0  0  0  0
   19.6904   -6.1837  -17.4592 O   0  0  0  0  0  0  0  0  0  0  0  0
   20.5272   -5.5641  -15.4177 N   0  0  0  0  0  0  0  0  0  0  0  0
   20.1530   -4.1442  -15.5609 C   0  0  1  0  0  0  0  0  0  0  0  0
   19.9347   -3.5307  -14.2056 C   0  0  0  0  0  0  0  0  0  0  0  0
   19.5379   -2.1121  -14.3034 C   0  0  0  0  0  0  0  0  0  0  0  0
   20.3084   -1.1479  -14.5391 O   0  0  0  0  0  0  0  0  0  0  0  0
   21.3173   -3.4823  -16.1943 C   0  0  0  0  0  0  0  0  0  0  0  0
   21.0746   -2.4615  -17.1264 O   0  0  0  0  0  0  0  0  0  0  0  0
   18.1909   -1.7251  -14.1288 O   0  0  0  0  0  0  0  0  0  0  0  0
   22.5130   -3.7528  -15.9724 O   0  0  0  0  0  0  0  0  0  0  0  0
  2  1  1  6
  2  4  1  0
  3  2  1  0
  4  6  1  0
  4  5  1  1
  6  7  2  0
  8  9  1  0
  8  6  1  0
  9 10  1  6
 11 10  1  0
 12 11  2  0
 13 14  1  0
 13 12  1  0
 14 15  2  0
 15 11  1  0
 16 17  2  0
 16  9  1  0
 18 16  1  0
 19 18  1  0
 20 21  1  0
 19 20  1  1
 21 22  2  0
 23 19  1  0
 23 24  1  0
 25 21  1  0
 26 23  2  0
M  END
$$$$
