THD.pdb
     RDKit          3D

 26 26  0  0  1  0  0  0  0  0999 V2000
   28.4497  -11.7790  -17.1147 C   0  0  0  0  0  0  0  0  0  0  0  0
   27.1546  -11.0474  -17.2589 C   0  0  1  0  0  0  0  0  0  0  0  0
   26.2365  -11.8815  -17.8835 O   0  0  0  0  0  0  0  0  0  0  0  0
   26.5401  -10.6458  -15.9192 C   0  0  2  0  0  0  0  0  0  0  0  0
   26.3761  -11.8342  -15.1322 N   0  0  0  0  0  0  0  0  0  0  0  0
   25.2456   -9.9136  -16.1314 C   0  0  0  0  0  0  0  0  0  0  0  0
   25.2701   -8.9770  -16.9362 O   0  0  0  0  0  0  0  0  0  0  0  0
   24.0704  -10.2630  -15.4615 N   0  0  0  0  0  0  0  0  0  0  0  0
   22.7766   -9.7094  -15.6081 C   0  0  1  0  0  0  0  0  0  0  0  0
   21.6074  -10.6722  -15.4666 C   0  0  0  0  0  0  0  0  0  0  0  0
   21.6899  -11.7945  -16.4217 C   0  0  0  0  0  0  0  0  0  0  0  0
   21.2835  -11.8167  -17.7344 C   0  0  0  0  0  0  0  0  0  0  0  0
   21.4883  -13.0675  -18.2429 N   0  0  0  0  0  0  0  0  0  0  0  0
   22.0158  -13.7991  -17.2431 C   0  0  0  0  0  0  0  0  0  0  0  0
   22.1354  -13.0260  -16.1466 N   0  0  0  0  0  0  0  0  0  0  0  0
   22.5607   -8.4039  -14.9729 C   0  0  0  0  0  0  0  0  0  0  0  0
   22.8003   -8.3128  -13.7135 O   0  0  0  0  0  0  0  0  0  0  0  0
   22.1161   -7.2512  -15.6257 N   0  0  0  0  0  0  0  0  0  0  0  0
   22.0310   -5.9179  -14.9999 C   0  0  1  0  0  0  0  0  0  0  0  0
   22.1347   -4.8484  -16.0518 C   0  0  0  0  0  0  0  0  0  0  0  0
   21.9480   -3.4993  -15.4823 C   0  0  0  0  0  0  0  0  0  0  0  0
   22.6499   -2.9791  -14.5792 O   0  0  0  0  0  0  0  0  0  0  0  0
   20.6840   -5.8453  -14.3872 C   0  0  0  0  0  0  0  0  0  0  0  0
   20.4731   -4.9173  -13.3556 O   0  0  0  0  0  0  0  0  0  0  0  0
   20.9101   -2.6586  -15.9415 O   0  0  0  0  0  0  0  0  0  0  0  0
   19.7040   -6.5441  -14.7085 O   0  0  0  0  0  0  0  0  0  0  0  0
  2  1  1  1
  2  4  1  0
  3  2  1  0
  4  6  1  0
  4  5  1  1
  6  7  2  0
  8  9  1  0
  8  6  1  0
  9 10  1  1
 11 10  1  0
 12 11  2  0
 13 14  1  0
 13 12  1  0
 14 15  2  0
 15 11  1  0
 16 17  2  0
 16  9  1  0
 18 16  1  0
 19 18  1  0
 20 21  1  0
 19 20  1  6
 21 22  2  0
 23 19  1  0
 23 24  1  0
 25 21  1  0
 26 23  2  0
M  END
$$$$
