THD.pdb
     RDKit          3D

 26 26  0  0  1  0  0  0  0  0999 V2000
   16.3488  -11.8892  -19.1000 C   0  0  0  0  0  0  0  0  0  0  0  0
   16.9372  -10.8123  -18.2470 C   0  0  1  0  0  0  0  0  0  0  0  0
   16.0960  -10.5887  -17.1649 O   0  0  0  0  0  0  0  0  0  0  0  0
   18.3027  -11.1825  -17.6706 C   0  0  2  0  0  0  0  0  0  0  0  0
   18.1499  -12.3874  -16.9066 N   0  0  0  0  0  0  0  0  0  0  0  0
   18.8544  -10.0494  -16.8530 C   0  0  0  0  0  0  0  0  0  0  0  0
   18.5334  -10.0255  -15.6606 O   0  0  0  0  0  0  0  0  0  0  0  0
   19.6866   -9.0692  -17.3993 N   0  0  0  0  0  0  0  0  0  0  0  0
   20.2094   -7.9117  -16.7756 C   0  0  1  0  0  0  0  0  0  0  0  0
   21.7113   -7.8910  -16.5352 C   0  0  0  0  0  0  0  0  0  0  0  0
   22.1490   -8.9832  -15.6440 C   0  0  0  0  0  0  0  0  0  0  0  0
   22.2022   -8.9814  -14.2707 C   0  0  0  0  0  0  0  0  0  0  0  0
   22.7182  -10.1715  -13.8436 N   0  0  0  0  0  0  0  0  0  0  0  0
   22.9764  -10.8902  -14.9526 C   0  0  0  0  0  0  0  0  0  0  0  0
   22.6309  -10.1684  -16.0361 N   0  0  0  0  0  0  0  0  0  0  0  0
   19.6555   -6.6310  -17.2310 C   0  0  0  0  0  0  0  0  0  0  0  0
   19.5228   -6.4619  -18.4982 O   0  0  0  0  0  0  0  0  0  0  0  0
   19.2604   -5.5799  -16.3994 N   0  0  0  0  0  0  0  0  0  0  0  0
   18.6553   -4.3213  -16.8752 C   0  0  1  0  0  0  0  0  0  0  0  0
   17.2555   -4.1899  -16.3423 C   0  0  0  0  0  0  0  0  0  0  0  0
   16.6713   -2.8707  -16.6553 C   0  0  0  0  0  0  0  0  0  0  0  0
   16.6038   -1.8919  -15.8704 O   0  0  0  0  0  0  0  0  0  0  0  0
   19.4812   -3.2341  -16.2998 C   0  0  0  0  0  0  0  0  0  0  0  0
   20.4031   -3.5623  -15.2938 O   0  0  0  0  0  0  0  0  0  0  0  0
   16.1196   -2.6088  -17.9288 O   0  0  0  0  0  0  0  0  0  0  0  0
   19.4319   -2.0344  -16.6319 O   0  0  0  0  0  0  0  0  0  0  0  0
  2  1  1  6
  2  4  1  0
  3  2  1  0
  4  6  1  0
  4  5  1  1
  6  7  2  0
  8  9  1  0
  8  6  1  0
  9 10  1  6
 11 10  1  0
 12 11  2  0
 13 14  1  0
 13 12  1  0
 14 15  2  0
 15 11  1  0
 16 17  2  0
 16  9  1  0
 18 16  1  0
 19 18  1  0
 20 21  1  0
 19 20  1  1
 21 22  2  0
 23 19  1  0
 23 24  1  0
 25 21  1  0
 26 23  2  0
M  END
$$$$
