THD.pdb
     RDKit          3D

 26 26  0  0  1  0  0  0  0  0999 V2000
   25.7407   -8.8375  -16.0773 C   0  0  0  0  0  0  0  0  0  0  0  0
   25.3264  -10.0783  -16.7999 C   0  0  1  0  0  0  0  0  0  0  0  0
   26.3754  -10.9876  -16.7657 O   0  0  0  0  0  0  0  0  0  0  0  0
   24.1249  -10.7720  -16.1604 C   0  0  2  0  0  0  0  0  0  0  0  0
   23.9120  -12.0136  -16.8473 N   0  0  0  0  0  0  0  0  0  0  0  0
   22.9178   -9.8787  -16.2001 C   0  0  0  0  0  0  0  0  0  0  0  0
   22.4504   -9.6366  -17.3175 O   0  0  0  0  0  0  0  0  0  0  0  0
   22.3447   -9.3442  -15.0435 N   0  0  0  0  0  0  0  0  0  0  0  0
   21.2750   -8.4243  -14.9362 C   0  0  1  0  0  0  0  0  0  0  0  0
   20.1214   -8.8290  -14.0309 C   0  0  0  0  0  0  0  0  0  0  0  0
   19.2832   -9.8842  -14.6328 C   0  0  0  0  0  0  0  0  0  0  0  0
   19.4243  -10.4723  -15.8669 C   0  0  0  0  0  0  0  0  0  0  0  0
   18.4056  -11.3622  -16.0553 N   0  0  0  0  0  0  0  0  0  0  0  0
   17.6513  -11.3131  -14.9409 C   0  0  0  0  0  0  0  0  0  0  0  0
   18.1855  -10.4197  -14.0859 N   0  0  0  0  0  0  0  0  0  0  0  0
   21.6522   -7.0095  -14.8335 C   0  0  0  0  0  0  0  0  0  0  0  0
   22.3943   -6.6663  -13.8419 O   0  0  0  0  0  0  0  0  0  0  0  0
   21.2705   -6.0046  -15.7263 N   0  0  0  0  0  0  0  0  0  0  0  0
   21.6841   -4.5924  -15.6197 C   0  0  1  0  0  0  0  0  0  0  0  0
   21.5012   -3.9017  -16.9427 C   0  0  0  0  0  0  0  0  0  0  0  0
   22.5718   -4.2521  -17.8969 C   0  0  0  0  0  0  0  0  0  0  0  0
   23.7446   -4.5874  -17.5950 O   0  0  0  0  0  0  0  0  0  0  0  0
   20.7632   -3.9757  -14.6364 C   0  0  0  0  0  0  0  0  0  0  0  0
   19.6955   -4.7472  -14.1523 O   0  0  0  0  0  0  0  0  0  0  0  0
   22.3339   -4.2323  -19.2889 O   0  0  0  0  0  0  0  0  0  0  0  0
   20.8504   -2.8152  -14.1920 O   0  0  0  0  0  0  0  0  0  0  0  0
  2  1  1  1
  2  4  1  0
  3  2  1  0
  4  6  1  0
  4  5  1  6
  6  7  2  0
  8  9  1  0
  8  6  1  0
  9 10  1  1
 11 10  1  0
 12 11  2  0
 13 14  1  0
 13 12  1  0
 14 15  2  0
 15 11  1  0
 16 17  2  0
 16  9  1  0
 18 16  1  0
 19 18  1  0
 20 21  1  0
 19 20  1  6
 21 22  2  0
 23 19  1  0
 23 24  1  0
 25 21  1  0
 26 23  2  0
M  END
$$$$
