THD.pdb
     RDKit          3D

 26 26  0  0  1  0  0  0  0  0999 V2000
   22.4716  -11.3212  -20.0532 C   0  0  0  0  0  0  0  0  0  0  0  0
   21.7324  -10.3366  -19.2061 C   0  0  1  0  0  0  0  0  0  0  0  0
   20.4990  -10.8763  -18.8655 O   0  0  0  0  0  0  0  0  0  0  0  0
   22.4477  -10.0176  -17.8944 C   0  0  2  0  0  0  0  0  0  0  0  0
   22.7097  -11.2561  -17.2193 N   0  0  0  0  0  0  0  0  0  0  0  0
   21.6277   -9.0721  -17.0634 C   0  0  0  0  0  0  0  0  0  0  0  0
   21.3620   -7.9800  -17.5756 O   0  0  0  0  0  0  0  0  0  0  0  0
   21.1833   -9.3978  -15.7796 N   0  0  0  0  0  0  0  0  0  0  0  0
   20.4437   -8.5990  -14.8758 C   0  0  1  0  0  0  0  0  0  0  0  0
   19.6089   -9.3404  -13.8426 C   0  0  0  0  0  0  0  0  0  0  0  0
   18.5000  -10.0951  -14.4584 C   0  0  0  0  0  0  0  0  0  0  0  0
   18.1072  -10.0933  -15.7754 C   0  0  0  0  0  0  0  0  0  0  0  0
   17.0038  -10.8863  -15.9121 N   0  0  0  0  0  0  0  0  0  0  0  0
   16.7298  -11.3658  -14.6840 C   0  0  0  0  0  0  0  0  0  0  0  0
   17.6357  -10.8853  -13.8107 N   0  0  0  0  0  0  0  0  0  0  0  0
   21.1338   -7.4137  -14.3530 C   0  0  0  0  0  0  0  0  0  0  0  0
   22.2272   -7.6045  -13.7050 O   0  0  0  0  0  0  0  0  0  0  0  0
   20.6993   -6.0941  -14.5025 N   0  0  0  0  0  0  0  0  0  0  0  0
   21.4620   -4.9096  -14.0643 C   0  0  1  0  0  0  0  0  0  0  0  0
   22.3913   -4.4625  -15.1586 C   0  0  0  0  0  0  0  0  0  0  0  0
   23.0696   -3.1962  -14.8185 C   0  0  0  0  0  0  0  0  0  0  0  0
   22.5420   -2.0558  -14.8218 O   0  0  0  0  0  0  0  0  0  0  0  0
   20.4574   -3.8447  -13.8367 C   0  0  0  0  0  0  0  0  0  0  0  0
   20.8576   -2.6917  -13.1437 O   0  0  0  0  0  0  0  0  0  0  0  0
   24.4320   -3.1838  -14.4463 O   0  0  0  0  0  0  0  0  0  0  0  0
   19.2693   -3.8786  -14.2100 O   0  0  0  0  0  0  0  0  0  0  0  0
  2  1  1  1
  2  4  1  0
  3  2  1  0
  4  6  1  0
  4  5  1  1
  6  7  2  0
  8  9  1  0
  8  6  1  0
  9 10  1  1
 11 10  1  0
 12 11  2  0
 13 14  1  0
 13 12  1  0
 14 15  2  0
 15 11  1  0
 16 17  2  0
 16  9  1  0
 18 16  1  0
 19 18  1  0
 20 21  1  0
 19 20  1  6
 21 22  2  0
 23 19  1  0
 23 24  1  0
 25 21  1  0
 26 23  2  0
M  END
$$$$
