KHI.pdb
     RDKit          3D

 28 28  0  0  1  0  0  0  0  0999 V2000
    5.7445  -16.1980   20.6554 N   0  0  0  0  0  0  0  0  0  0  0  0
    6.9905  -15.5240   20.9498 C   0  0  1  0  0  0  0  0  0  0  0  0
    6.7136  -14.0659   21.1638 C   0  0  0  0  0  0  0  0  0  0  0  0
    7.7573  -13.2437   20.4738 C   0  0  0  0  0  0  0  0  0  0  0  0
    7.8150  -13.5907   19.0173 C   0  0  0  0  0  0  0  0  0  0  0  0
    8.9366  -12.8586   18.3462 C   0  0  0  0  0  0  0  0  0  0  0  0
    8.9801  -13.3033   16.9623 N   0  0  0  0  0  0  0  0  0  0  0  0
    7.5388  -16.0424   22.2651 C   0  0  0  0  0  0  0  0  0  0  0  0
    6.7441  -15.9525   23.2202 O   0  0  0  0  0  0  0  0  0  0  0  0
    8.8244  -16.5635   22.3401 N   0  0  0  0  0  0  0  0  0  0  0  0
    9.4752  -17.0173   23.5146 C   0  0  1  0  0  0  0  0  0  0  0  0
   10.5745  -17.9880   23.1779 C   0  0  0  0  0  0  0  0  0  0  0  0
   11.0539  -18.6170   24.4412 C   0  0  0  0  0  0  0  0  0  0  0  0
   10.5556  -18.3503   25.6811 C   0  0  0  0  0  0  0  0  0  0  0  0
   11.2124  -19.0911   26.6106 N   0  0  0  0  0  0  0  0  0  0  0  0
   12.1162  -19.8155   25.9443 C   0  0  0  0  0  0  0  0  0  0  0  0
   12.0208  -19.5280   24.6232 N   0  0  0  0  0  0  0  0  0  0  0  0
    9.8833  -15.9746   24.4887 C   0  0  0  0  0  0  0  0  0  0  0  0
   10.7854  -15.1442   24.3849 O   0  0  0  0  0  0  0  0  0  0  0  0
    6.6120  -12.5192   25.8097 C   0  0  0  0  0  0  0  0  0  0  0  0
    7.8365  -13.3925   25.6559 C   0  0  0  0  0  0  0  0  0  0  0  0
    8.3063  -13.9923   26.9467 C   0  0  2  0  0  0  0  0  0  0  0  0
    8.6790  -12.8921   27.9175 C   0  0  0  0  0  0  0  0  0  0  0  0
    9.4145  -14.9942   26.7759 C   0  0  2  0  0  0  0  0  0  0  0  0
    9.1275  -15.9265   25.7112 N   0  0  0  0  0  0  0  0  0  0  0  0
    9.8993  -15.5948   28.0098 C   0  0  0  0  0  0  0  0  0  0  0  0
   10.4424  -14.8755   28.8756 O   0  0  0  0  0  0  0  0  0  0  0  0
    9.7859  -16.9459   28.2733 O   0  0  0  0  0  0  0  0  0  0  0  0
  2  8  1  0
  2  1  1  1
  3  2  1  0
  4  3  1  0
  5  4  1  0
  6  5  1  0
  7  6  1  0
  8  9  2  0
 10 11  1  0
 10  8  1  0
 12 13  1  0
 11 12  1  6
 13 14  2  0
 15 14  1  0
 16 15  1  0
 17 16  2  0
 17 13  1  0
 18 11  1  0
 18 19  2  0
 20 21  1  0
 21 22  1  0
 22 24  1  0
 22 23  1  1
 24 25  1  6
 24 26  1  0
 25 18  1  0
 26 27  2  0
 26 28  1  0
M  END
$$$$
