KHI.pdb
     RDKit          3D

 28 28  0  0  1  0  0  0  0  0999 V2000
    6.5159  -16.3670   19.9565 N   0  0  0  0  0  0  0  0  0  0  0  0
    7.5286  -15.5246   20.5548 C   0  0  1  0  0  0  0  0  0  0  0  0
    6.9757  -14.1396   20.7118 C   0  0  0  0  0  0  0  0  0  0  0  0
    7.7323  -13.1882   19.8378 C   0  0  0  0  0  0  0  0  0  0  0  0
    7.7296  -13.6697   18.4189 C   0  0  0  0  0  0  0  0  0  0  0  0
    8.5757  -12.7804   17.5600 C   0  0  0  0  0  0  0  0  0  0  0  0
    9.9399  -13.2795   17.6280 N   0  0  0  0  0  0  0  0  0  0  0  0
    7.8225  -16.0185   21.9579 C   0  0  0  0  0  0  0  0  0  0  0  0
    6.8068  -16.2429   22.6433 O   0  0  0  0  0  0  0  0  0  0  0  0
    9.1322  -16.1890   22.3888 N   0  0  0  0  0  0  0  0  0  0  0  0
    9.5386  -16.6656   23.6603 C   0  0  1  0  0  0  0  0  0  0  0  0
   10.5449  -17.7754   23.5208 C   0  0  0  0  0  0  0  0  0  0  0  0
    9.8671  -18.9554   22.9129 C   0  0  0  0  0  0  0  0  0  0  0  0
    9.8441  -19.2386   21.5802 C   0  0  0  0  0  0  0  0  0  0  0  0
    9.1439  -20.3819   21.3643 N   0  0  0  0  0  0  0  0  0  0  0  0
    8.7346  -20.8047   22.5640 C   0  0  0  0  0  0  0  0  0  0  0  0
    9.1742  -19.9372   23.5080 N   0  0  0  0  0  0  0  0  0  0  0  0
    9.9248  -15.6375   24.6586 C   0  0  0  0  0  0  0  0  0  0  0  0
   10.8030  -14.7801   24.5707 O   0  0  0  0  0  0  0  0  0  0  0  0
    6.3916  -12.5033   26.5947 C   0  0  0  0  0  0  0  0  0  0  0  0
    7.6766  -13.2130   26.2327 C   0  0  0  0  0  0  0  0  0  0  0  0
    8.3068  -13.9301   27.3882 C   0  0  2  0  0  0  0  0  0  0  0  0
    8.6514  -12.9396   28.4799 C   0  0  0  0  0  0  0  0  0  0  0  0
    9.4880  -14.7755   26.9991 C   0  0  2  0  0  0  0  0  0  0  0  0
    9.1769  -15.6421   25.8868 N   0  0  0  0  0  0  0  0  0  0  0  0
   10.1804  -15.4161   28.1075 C   0  0  0  0  0  0  0  0  0  0  0  0
   10.0045  -16.6341   28.3251 O   0  0  0  0  0  0  0  0  0  0  0  0
   11.0372  -14.7290   28.9452 O   0  0  0  0  0  0  0  0  0  0  0  0
  2  8  1  0
  2  1  1  1
  3  2  1  0
  4  3  1  0
  5  4  1  0
  6  5  1  0
  7  6  1  0
  8  9  2  0
 10 11  1  0
 10  8  1  0
 12 13  1  0
 11 12  1  6
 13 14  2  0
 15 14  1  0
 16 15  1  0
 17 16  2  0
 17 13  1  0
 18 11  1  0
 18 19  2  0
 20 21  1  0
 21 22  1  0
 22 24  1  0
 22 23  1  1
 24 25  1  6
 24 26  1  0
 25 18  1  0
 26 27  2  0
 26 28  1  0
M  END
$$$$
