KHI.pdb
     RDKit          3D

 28 28  0  0  1  0  0  0  0  0999 V2000
    5.7893  -16.5130   19.4081 N   0  0  0  0  0  0  0  0  0  0  0  0
    6.9228  -15.9733   20.1271 C   0  0  1  0  0  0  0  0  0  0  0  0
    6.8925  -14.4774   20.0266 C   0  0  0  0  0  0  0  0  0  0  0  0
    7.0538  -14.0606   18.5977 C   0  0  0  0  0  0  0  0  0  0  0  0
    8.5046  -13.8840   18.2672 C   0  0  0  0  0  0  0  0  0  0  0  0
    8.6728  -13.4882   16.8322 C   0  0  0  0  0  0  0  0  0  0  0  0
   10.1005  -13.4198   16.5641 N   0  0  0  0  0  0  0  0  0  0  0  0
    6.7773  -16.2958   21.6015 C   0  0  0  0  0  0  0  0  0  0  0  0
    5.6880  -15.9472   22.0951 O   0  0  0  0  0  0  0  0  0  0  0  0
    7.8031  -16.9282   22.2926 N   0  0  0  0  0  0  0  0  0  0  0  0
    7.8702  -17.1233   23.6949 C   0  0  1  0  0  0  0  0  0  0  0  0
    8.2387  -18.5450   24.0218 C   0  0  0  0  0  0  0  0  0  0  0  0
    8.1389  -18.7326   25.4971 C   0  0  0  0  0  0  0  0  0  0  0  0
    6.9983  -18.5763   26.2259 C   0  0  0  0  0  0  0  0  0  0  0  0
    7.2523  -18.8216   27.5372 N   0  0  0  0  0  0  0  0  0  0  0  0
    8.5501  -19.1295   27.6178 C   0  0  0  0  0  0  0  0  0  0  0  0
    9.0913  -19.0758   26.3764 N   0  0  0  0  0  0  0  0  0  0  0  0
    8.6443  -16.1184   24.4654 C   0  0  0  0  0  0  0  0  0  0  0  0
    9.8367  -15.8319   24.3641 O   0  0  0  0  0  0  0  0  0  0  0  0
    5.9388  -11.6227   27.1352 C   0  0  0  0  0  0  0  0  0  0  0  0
    6.4869  -13.0188   26.9444 C   0  0  0  0  0  0  0  0  0  0  0  0
    7.7665  -13.0548   26.1645 C   0  0  2  0  0  0  0  0  0  0  0  0
    7.4985  -12.6804   24.7225 C   0  0  0  0  0  0  0  0  0  0  0  0
    8.5052  -14.3594   26.2816 C   0  0  2  0  0  0  0  0  0  0  0  0
    7.9073  -15.3835   25.4578 N   0  0  0  0  0  0  0  0  0  0  0  0
    8.8248  -14.7678   27.6415 C   0  0  0  0  0  0  0  0  0  0  0  0
    9.5644  -14.0474   28.3456 O   0  0  0  0  0  0  0  0  0  0  0  0
    8.3412  -15.9349   28.1999 O   0  0  0  0  0  0  0  0  0  0  0  0
  2  8  1  0
  2  1  1  6
  3  2  1  0
  4  3  1  0
  5  4  1  0
  6  5  1  0
  7  6  1  0
  8  9  2  0
 10 11  1  0
 10  8  1  0
 12 13  1  0
 11 12  1  6
 13 14  2  0
 15 14  1  0
 16 15  1  0
 17 16  2  0
 17 13  1  0
 18 11  1  0
 18 19  2  0
 20 21  1  0
 21 22  1  0
 22 24  1  0
 22 23  1  6
 24 25  1  1
 24 26  1  0
 25 18  1  0
 26 27  2  0
 26 28  1  0
M  END
$$$$
