KHI.pdb
     RDKit          3D

 28 28  0  0  1  0  0  0  0  0999 V2000
    8.9734  -17.0442   19.1809 N   0  0  0  0  0  0  0  0  0  0  0  0
    8.9837  -15.7834   19.8904 C   0  0  1  0  0  0  0  0  0  0  0  0
    8.1335  -14.8000   19.1428 C   0  0  0  0  0  0  0  0  0  0  0  0
    8.5652  -14.7406   17.7105 C   0  0  0  0  0  0  0  0  0  0  0  0
    7.6752  -13.8167   16.9361 C   0  0  0  0  0  0  0  0  0  0  0  0
    8.0162  -13.8575   15.4779 C   0  0  0  0  0  0  0  0  0  0  0  0
    7.1140  -12.9445   14.7943 N   0  0  0  0  0  0  0  0  0  0  0  0
    8.3204  -15.9665   21.2416 C   0  0  0  0  0  0  0  0  0  0  0  0
    7.3876  -15.1714   21.4642 O   0  0  0  0  0  0  0  0  0  0  0  0
    8.7562  -16.9538   22.1163 N   0  0  0  0  0  0  0  0  0  0  0  0
    8.3936  -17.0813   23.4806 C   0  0  1  0  0  0  0  0  0  0  0  0
    8.4873  -18.5145   23.9291 C   0  0  0  0  0  0  0  0  0  0  0  0
    7.5674  -19.3340   23.0903 C   0  0  0  0  0  0  0  0  0  0  0  0
    6.8082  -18.8501   22.0675 C   0  0  0  0  0  0  0  0  0  0  0  0
    6.0865  -19.8578   21.5128 N   0  0  0  0  0  0  0  0  0  0  0  0
    6.4004  -20.9641   22.1932 C   0  0  0  0  0  0  0  0  0  0  0  0
    7.3021  -20.6469   23.1540 N   0  0  0  0  0  0  0  0  0  0  0  0
    9.0225  -16.1230   24.4236 C   0  0  0  0  0  0  0  0  0  0  0  0
   10.1694  -15.6776   24.4076 O   0  0  0  0  0  0  0  0  0  0  0  0
    6.0246  -11.9825   25.5678 C   0  0  0  0  0  0  0  0  0  0  0  0
    7.1616  -12.9622   25.3854 C   0  0  0  0  0  0  0  0  0  0  0  0
    7.6152  -13.5936   26.6669 C   0  0  2  0  0  0  0  0  0  0  0  0
    8.1092  -12.5246   27.6182 C   0  0  0  0  0  0  0  0  0  0  0  0
    8.6277  -14.6882   26.4724 C   0  0  2  0  0  0  0  0  0  0  0  0
    8.1846  -15.6530   25.4937 N   0  0  0  0  0  0  0  0  0  0  0  0
    9.1673  -15.2552   27.6995 C   0  0  0  0  0  0  0  0  0  0  0  0
    8.7538  -16.3636   28.1023 O   0  0  0  0  0  0  0  0  0  0  0  0
   10.1311  -14.6142   28.4532 O   0  0  0  0  0  0  0  0  0  0  0  0
  2  8  1  0
  2  1  1  6
  3  2  1  0
  4  3  1  0
  5  4  1  0
  6  5  1  0
  7  6  1  0
  8  9  2  0
 10 11  1  0
 10  8  1  0
 12 13  1  0
 11 12  1  1
 13 14  2  0
 15 14  1  0
 16 15  1  0
 17 16  2  0
 17 13  1  0
 18 11  1  0
 18 19  2  0
 20 21  1  0
 21 22  1  0
 22 24  1  0
 22 23  1  1
 24 25  1  1
 24 26  1  0
 25 18  1  0
 26 27  2  0
 26 28  1  0
M  END
$$$$
