KHI.pdb
     RDKit          3D

 28 28  0  0  1  0  0  0  0  0999 V2000
    6.6218  -19.6604   21.3202 N   0  0  0  0  0  0  0  0  0  0  0  0
    6.4014  -18.4284   22.0459 C   0  0  1  0  0  0  0  0  0  0  0  0
    5.6562  -18.7375   23.3100 C   0  0  0  0  0  0  0  0  0  0  0  0
    4.6918  -19.8573   23.0706 C   0  0  0  0  0  0  0  0  0  0  0  0
    3.3603  -19.3165   22.6466 C   0  0  0  0  0  0  0  0  0  0  0  0
    2.4025  -20.4346   22.3694 C   0  0  0  0  0  0  0  0  0  0  0  0
    1.1491  -19.8369   21.9374 N   0  0  0  0  0  0  0  0  0  0  0  0
    7.7384  -17.8585   22.4781 C   0  0  0  0  0  0  0  0  0  0  0  0
    8.3133  -18.5204   23.3631 O   0  0  0  0  0  0  0  0  0  0  0  0
    8.2320  -16.6950   21.9014 N   0  0  0  0  0  0  0  0  0  0  0  0
    9.4260  -16.0233   22.2649 C   0  0  1  0  0  0  0  0  0  0  0  0
   10.0531  -15.3590   21.0693 C   0  0  0  0  0  0  0  0  0  0  0  0
   10.2684  -16.3892   20.0140 C   0  0  0  0  0  0  0  0  0  0  0  0
   11.0109  -17.5209   20.1714 C   0  0  0  0  0  0  0  0  0  0  0  0
   11.0022  -18.2413   19.0203 N   0  0  0  0  0  0  0  0  0  0  0  0
   10.2540  -17.5542   18.1521 C   0  0  0  0  0  0  0  0  0  0  0  0
    9.8065  -16.4263   18.7557 N   0  0  0  0  0  0  0  0  0  0  0  0
    9.3529  -15.1459   23.4597 C   0  0  0  0  0  0  0  0  0  0  0  0
    9.4839  -13.9238   23.5186 O   0  0  0  0  0  0  0  0  0  0  0  0
    7.0209  -11.9529   27.0283 C   0  0  0  0  0  0  0  0  0  0  0  0
    8.0666  -13.0439   27.0703 C   0  0  0  0  0  0  0  0  0  0  0  0
    8.0384  -13.9425   25.8709 C   0  0  2  0  0  0  0  0  0  0  0  0
    6.6188  -14.3942   25.6022 C   0  0  0  0  0  0  0  0  0  0  0  0
    8.9917  -15.1016   25.9656 C   0  0  2  0  0  0  0  0  0  0  0  0
    9.0951  -15.8076   24.7102 N   0  0  0  0  0  0  0  0  0  0  0  0
    8.8212  -15.9468   27.1382 C   0  0  0  0  0  0  0  0  0  0  0  0
    8.2774  -17.0658   27.0198 O   0  0  0  0  0  0  0  0  0  0  0  0
    9.2388  -15.5633   28.3977 O   0  0  0  0  0  0  0  0  0  0  0  0
  2  8  1  0
  2  1  1  1
  3  2  1  0
  4  3  1  0
  5  4  1  0
  6  5  1  0
  7  6  1  0
  8  9  2  0
 10 11  1  0
 10  8  1  0
 12 13  1  0
 11 12  1  6
 13 14  2  0
 15 14  1  0
 16 15  1  0
 17 16  2  0
 17 13  1  0
 18 11  1  0
 18 19  2  0
 20 21  1  0
 21 22  1  0
 22 24  1  0
 22 23  1  1
 24 25  1  6
 24 26  1  0
 25 18  1  0
 26 27  2  0
 26 28  1  0
M  END
$$$$
