KHI.pdb
     RDKit          3D

 28 28  0  0  1  0  0  0  0  0999 V2000
    7.1233  -19.3405   21.2363 N   0  0  0  0  0  0  0  0  0  0  0  0
    6.7100  -18.4462   22.2959 C   0  0  1  0  0  0  0  0  0  0  0  0
    6.9687  -19.1078   23.6165 C   0  0  0  0  0  0  0  0  0  0  0  0
    6.2615  -20.4262   23.6718 C   0  0  0  0  0  0  0  0  0  0  0  0
    6.4684  -21.0729   25.0075 C   0  0  0  0  0  0  0  0  0  0  0  0
    5.7238  -22.3704   25.0848 C   0  0  0  0  0  0  0  0  0  0  0  0
    6.2723  -23.2485   24.0636 N   0  0  0  0  0  0  0  0  0  0  0  0
    7.5836  -17.2071   22.2713 C   0  0  0  0  0  0  0  0  0  0  0  0
    8.8042  -17.4414   22.3553 O   0  0  0  0  0  0  0  0  0  0  0  0
    7.0171  -15.9434   22.1617 N   0  0  0  0  0  0  0  0  0  0  0  0
    7.7197  -14.7131   22.1203 C   0  0  1  0  0  0  0  0  0  0  0  0
    7.0584  -13.7492   21.1730 C   0  0  0  0  0  0  0  0  0  0  0  0
    7.5571  -14.0221   19.7952 C   0  0  0  0  0  0  0  0  0  0  0  0
    8.5520  -14.9009   19.4878 C   0  0  0  0  0  0  0  0  0  0  0  0
    8.7599  -14.9102   18.1459 N   0  0  0  0  0  0  0  0  0  0  0  0
    7.8930  -14.0370   17.6248 C   0  0  0  0  0  0  0  0  0  0  0  0
    7.1598  -13.4955   18.6278 N   0  0  0  0  0  0  0  0  0  0  0  0
    8.0725  -14.1094   23.4295 C   0  0  0  0  0  0  0  0  0  0  0  0
    8.0711  -12.9205   23.7470 O   0  0  0  0  0  0  0  0  0  0  0  0
    6.0425  -11.8473   26.0433 C   0  0  0  0  0  0  0  0  0  0  0  0
    7.2097  -12.6437   25.5056 C   0  0  0  0  0  0  0  0  0  0  0  0
    7.5917  -13.8025   26.3763 C   0  0  2  0  0  0  0  0  0  0  0  0
    7.8772  -13.3158   27.7810 C   0  0  0  0  0  0  0  0  0  0  0  0
    8.7230  -14.6235   25.8220 C   0  0  2  0  0  0  0  0  0  0  0  0
    8.4657  -15.0311   24.4609 N   0  0  0  0  0  0  0  0  0  0  0  0
    9.2101  -15.6762   26.7012 C   0  0  0  0  0  0  0  0  0  0  0  0
    8.8956  -16.8646   26.4759 O   0  0  0  0  0  0  0  0  0  0  0  0
   10.0172  -15.4190   27.7923 O   0  0  0  0  0  0  0  0  0  0  0  0
  2  8  1  0
  2  1  1  6
  3  2  1  0
  4  3  1  0
  5  4  1  0
  6  5  1  0
  7  6  1  0
  8  9  2  0
 10 11  1  0
 10  8  1  0
 12 13  1  0
 11 12  1  1
 13 14  2  0
 15 14  1  0
 16 15  1  0
 17 16  2  0
 17 13  1  0
 18 11  1  0
 18 19  2  0
 20 21  1  0
 21 22  1  0
 22 24  1  0
 22 23  1  1
 24 25  1  6
 24 26  1  0
 25 18  1  0
 26 27  2  0
 26 28  1  0
M  END
$$$$
