KHI.pdb
     RDKit          3D

 28 28  0  0  1  0  0  0  0  0999 V2000
    8.4133  -16.7735   18.5981 N   0  0  0  0  0  0  0  0  0  0  0  0
    8.7855  -15.5936   19.3482 C   0  0  1  0  0  0  0  0  0  0  0  0
    7.8694  -14.4689   18.9678 C   0  0  0  0  0  0  0  0  0  0  0  0
    8.3798  -13.7929   17.7334 C   0  0  0  0  0  0  0  0  0  0  0  0
    7.3250  -13.7864   16.6691 C   0  0  0  0  0  0  0  0  0  0  0  0
    7.8540  -13.1744   15.4081 C   0  0  0  0  0  0  0  0  0  0  0  0
    6.7973  -13.2487   14.4118 N   0  0  0  0  0  0  0  0  0  0  0  0
    8.5470  -15.8455   20.8242 C   0  0  0  0  0  0  0  0  0  0  0  0
    7.3777  -15.6306   21.1963 O   0  0  0  0  0  0  0  0  0  0  0  0
    9.5807  -16.2794   21.6446 N   0  0  0  0  0  0  0  0  0  0  0  0
    9.4687  -16.6394   23.0109 C   0  0  1  0  0  0  0  0  0  0  0  0
   10.2681  -17.8794   23.3064 C   0  0  0  0  0  0  0  0  0  0  0  0
    9.4912  -19.0646   22.8447 C   0  0  0  0  0  0  0  0  0  0  0  0
    8.2538  -19.0107   22.2765 C   0  0  0  0  0  0  0  0  0  0  0  0
    7.8315  -20.2651   21.9726 N   0  0  0  0  0  0  0  0  0  0  0  0
    8.8085  -21.0935   22.3531 C   0  0  0  0  0  0  0  0  0  0  0  0
    9.8198  -20.3641   22.8842 N   0  0  0  0  0  0  0  0  0  0  0  0
    9.6749  -15.5519   23.9997 C   0  0  0  0  0  0  0  0  0  0  0  0
   10.6315  -14.7848   24.1023 O   0  0  0  0  0  0  0  0  0  0  0  0
    6.7023  -11.2600   26.9223 C   0  0  0  0  0  0  0  0  0  0  0  0
    7.6717  -12.4047   27.1109 C   0  0  0  0  0  0  0  0  0  0  0  0
    7.5779  -13.4476   26.0383 C   0  0  2  0  0  0  0  0  0  0  0  0
    6.2289  -14.1313   26.1049 C   0  0  0  0  0  0  0  0  0  0  0  0
    8.7127  -14.4339   26.0579 C   0  0  2  0  0  0  0  0  0  0  0  0
    8.6217  -15.3695   24.9618 N   0  0  0  0  0  0  0  0  0  0  0  0
    8.9914  -15.0284   27.3569 C   0  0  0  0  0  0  0  0  0  0  0  0
    9.3129  -14.2949   28.3162 O   0  0  0  0  0  0  0  0  0  0  0  0
    8.9165  -16.3890   27.5829 O   0  0  0  0  0  0  0  0  0  0  0  0
  2  8  1  0
  2  1  1  6
  3  2  1  0
  4  3  1  0
  5  4  1  0
  6  5  1  0
  7  6  1  0
  8  9  2  0
 10 11  1  0
 10  8  1  0
 12 13  1  0
 11 12  1  1
 13 14  2  0
 15 14  1  0
 16 15  1  0
 17 16  2  0
 17 13  1  0
 18 11  1  0
 18 19  2  0
 20 21  1  0
 21 22  1  0
 22 24  1  0
 22 23  1  1
 24 25  1  6
 24 26  1  0
 25 18  1  0
 26 27  2  0
 26 28  1  0
M  END
$$$$
