KHI.pdb
     RDKit          3D

 28 28  0  0  1  0  0  0  0  0999 V2000
    6.0593  -17.1351   20.2224 N   0  0  0  0  0  0  0  0  0  0  0  0
    7.3879  -16.7094   20.6055 C   0  0  1  0  0  0  0  0  0  0  0  0
    7.5028  -15.2296   20.3920 C   0  0  0  0  0  0  0  0  0  0  0  0
    7.8465  -14.9474   18.9624 C   0  0  0  0  0  0  0  0  0  0  0  0
    8.0856  -13.4817   18.7636 C   0  0  0  0  0  0  0  0  0  0  0  0
    8.4715  -13.1995   17.3438 C   0  0  0  0  0  0  0  0  0  0  0  0
    8.6774  -11.7648   17.2257 N   0  0  0  0  0  0  0  0  0  0  0  0
    7.5728  -16.9322   22.0939 C   0  0  0  0  0  0  0  0  0  0  0  0
    6.5293  -16.8053   22.7624 O   0  0  0  0  0  0  0  0  0  0  0  0
    8.8218  -17.2496   22.6126 N   0  0  0  0  0  0  0  0  0  0  0  0
    9.1243  -17.4887   23.9765 C   0  0  1  0  0  0  0  0  0  0  0  0
    9.9349  -18.7465   24.1338 C   0  0  0  0  0  0  0  0  0  0  0  0
   10.1451  -18.9954   25.5882 C   0  0  0  0  0  0  0  0  0  0  0  0
   11.2763  -18.6747   26.2770 C   0  0  0  0  0  0  0  0  0  0  0  0
   11.1403  -19.0350   27.5792 N   0  0  0  0  0  0  0  0  0  0  0  0
    9.9249  -19.5781   27.6944 C   0  0  0  0  0  0  0  0  0  0  0  0
    9.3176  -19.5547   26.4830 N   0  0  0  0  0  0  0  0  0  0  0  0
    9.6604  -16.3382   24.7458 C   0  0  0  0  0  0  0  0  0  0  0  0
   10.6170  -15.6149   24.4702 O   0  0  0  0  0  0  0  0  0  0  0  0
    6.2952  -12.7277   26.2112 C   0  0  0  0  0  0  0  0  0  0  0  0
    7.5194  -13.5623   25.9099 C   0  0  0  0  0  0  0  0  0  0  0  0
    8.2498  -14.0136   27.1385 C   0  0  2  0  0  0  0  0  0  0  0  0
    8.7009  -12.8098   27.9378 C   0  0  0  0  0  0  0  0  0  0  0  0
    9.3840  -14.9580   26.8507 C   0  0  2  0  0  0  0  0  0  0  0  0
    8.9742  -16.0269   25.9707 N   0  0  0  0  0  0  0  0  0  0  0  0
   10.1504  -15.3753   28.0156 C   0  0  0  0  0  0  0  0  0  0  0  0
    9.7643  -16.3529   28.6916 O   0  0  0  0  0  0  0  0  0  0  0  0
   11.3040  -14.7300   28.4163 O   0  0  0  0  0  0  0  0  0  0  0  0
  2  8  1  0
  2  1  1  1
  3  2  1  0
  4  3  1  0
  5  4  1  0
  6  5  1  0
  7  6  1  0
  8  9  2  0
 10 11  1  0
 10  8  1  0
 12 13  1  0
 11 12  1  6
 13 14  2  0
 15 14  1  0
 16 15  1  0
 17 16  2  0
 17 13  1  0
 18 11  1  0
 18 19  2  0
 20 21  1  0
 21 22  1  0
 22 24  1  0
 22 23  1  6
 24 25  1  1
 24 26  1  0
 25 18  1  0
 26 27  2  0
 26 28  1  0
M  END
$$$$
