IRL.pdb
     RDKit          3D

 28 27  0  0  1  0  0  0  0  0999 V2000
    7.1604  -20.3071   28.1280 C   0  0  0  0  0  0  0  0  0  0  0  0
    6.5821  -20.3583   26.7276 C   0  0  0  0  0  0  0  0  0  0  0  0
    7.2136  -19.2158   25.9496 C   0  0  2  0  0  0  0  0  0  0  0  0
    6.9207  -17.8905   26.5685 C   0  0  0  0  0  0  0  0  0  0  0  0
    6.6927  -19.2040   24.5091 C   0  0  2  0  0  0  0  0  0  0  0  0
    7.0855  -20.5182   23.9679 N   0  0  0  0  0  0  0  0  0  0  0  0
    7.4563  -18.1701   23.7816 C   0  0  0  0  0  0  0  0  0  0  0  0
    8.6942  -18.3978   23.5709 O   0  0  0  0  0  0  0  0  0  0  0  0
    7.6748  -15.5515   18.2683 N   0  0  0  0  0  0  0  0  0  0  0  0
    8.2194  -14.2843   17.9238 C   0  0  0  0  0  0  0  0  0  0  0  0
    8.9384  -14.1746   16.8710 N   0  0  0  0  0  0  0  0  0  0  0  0
    7.9333  -13.1829   18.7787 N   0  0  0  0  0  0  0  0  0  0  0  0
    7.1539  -13.4117   19.9770 C   0  0  0  0  0  0  0  0  0  0  0  0
    8.0196  -14.0986   21.0391 C   0  0  0  0  0  0  0  0  0  0  0  0
    7.1233  -15.1045   21.7043 C   0  0  0  0  0  0  0  0  0  0  0  0
    7.8424  -15.9737   22.7203 C   0  0  2  0  0  0  0  0  0  0  0  0
    6.9569  -16.9490   23.2891 N   0  0  0  0  0  0  0  0  0  0  0  0
    8.5396  -15.1466   23.7361 C   0  0  0  0  0  0  0  0  0  0  0  0
    9.5130  -14.4523   23.3903 O   0  0  0  0  0  0  0  0  0  0  0  0
    9.2247  -13.2457   16.5412 C   0  0  0  0  0  0  0  0  0  0  0  0
    7.4286  -11.7425   25.6542 C   0  0  2  0  0  0  0  0  0  0  0  0
    6.8049  -12.9367   26.3944 C   0  0  0  0  0  0  0  0  0  0  0  0
    5.7606  -12.4114   27.3247 C   0  0  0  0  0  0  0  0  0  0  0  0
    7.9052  -13.7016   27.0798 C   0  0  2  0  0  0  0  0  0  0  0  0
    8.8477  -14.3765   26.1309 N   0  0  0  0  0  0  0  0  0  0  0  0
    8.1290  -15.1204   25.1035 C   0  0  0  0  0  0  0  0  0  0  0  0
    9.8719  -15.2209   26.7827 O   0  0  0  0  0  0  0  0  0  0  0  0
    9.8504  -16.4722   26.5516 O   0  0  0  0  0  0  0  0  0  0  0  0
  1  2  1  0
  3  2  1  0
  3  5  1  0
  3  4  1  1
  5  6  1  6
  7  8  2  0
  7  5  1  0
 10 12  1  0
 10  9  1  0
 11 10  2  0
 12 13  1  0
 13 14  1  0
 14 15  1  0
 16 15  1  6
 16 17  1  0
 17  7  1  0
 18 19  2  0
 18 16  1  0
 21 22  1  1
 21 20  1  0
 24 23  1  6
 23 21  1  0
 24 25  1  0
 25 18  1  0
 26 24  1  0
 27 26  2  0
 28 26  1  0
M  END
$$$$
