IRL.pdb
     RDKit          3D

 28 27  0  0  1  0  0  0  0  0999 V2000
    8.1924  -11.8495   20.9085 C   0  0  0  0  0  0  0  0  0  0  0  0
    7.4696  -13.1747   20.7681 C   0  0  0  0  0  0  0  0  0  0  0  0
    8.1627  -13.9367   19.6509 C   0  0  2  0  0  0  0  0  0  0  0  0
    7.9801  -13.2741   18.3269 C   0  0  0  0  0  0  0  0  0  0  0  0
    7.6101  -15.3624   19.5598 C   0  0  2  0  0  0  0  0  0  0  0  0
    6.1606  -15.1802   19.3593 N   0  0  0  0  0  0  0  0  0  0  0  0
    7.8072  -15.9880   20.8830 C   0  0  0  0  0  0  0  0  0  0  0  0
    6.8734  -15.8466   21.7413 O   0  0  0  0  0  0  0  0  0  0  0  0
   13.7776  -19.3812   23.4000 N   0  0  0  0  0  0  0  0  0  0  0  0
   13.3324  -20.3857   24.3021 C   0  0  0  0  0  0  0  0  0  0  0  0
   14.1104  -21.3591   24.5926 N   0  0  0  0  0  0  0  0  0  0  0  0
   12.0238  -20.2573   24.8471 N   0  0  0  0  0  0  0  0  0  0  0  0
   10.8871  -20.2853   23.9511 C   0  0  0  0  0  0  0  0  0  0  0  0
   10.0675  -18.9996   24.1078 C   0  0  0  0  0  0  0  0  0  0  0  0
    9.9703  -18.4101   22.7291 C   0  0  0  0  0  0  0  0  0  0  0  0
    9.0100  -17.2375   22.6413 C   0  0  2  0  0  0  0  0  0  0  0  0
    8.9267  -16.7334   21.3006 N   0  0  0  0  0  0  0  0  0  0  0  0
    9.3429  -16.1952   23.6437 C   0  0  0  0  0  0  0  0  0  0  0  0
    9.7921  -15.1010   23.2563 O   0  0  0  0  0  0  0  0  0  0  0  0
   15.0938  -21.3334   24.2995 C   0  0  0  0  0  0  0  0  0  0  0  0
    6.2576  -12.6315   26.1877 C   0  0  1  0  0  0  0  0  0  0  0  0
    7.6030  -13.2851   26.5427 C   0  0  0  0  0  0  0  0  0  0  0  0
    8.6546  -12.2243   26.5176 C   0  0  0  0  0  0  0  0  0  0  0  0
    7.8529  -14.4164   25.5818 C   0  0  2  0  0  0  0  0  0  0  0  0
    8.9799  -15.3140   25.9921 N   0  0  0  0  0  0  0  0  0  0  0  0
    9.1642  -16.4066   25.0446 C   0  0  0  0  0  0  0  0  0  0  0  0
    8.8854  -15.8204   27.3783 O   0  0  0  0  0  0  0  0  0  0  0  0
    8.1150  -16.8082   27.6025 O   0  0  0  0  0  0  0  0  0  0  0  0
  1  2  1  0
  3  2  1  0
  3  5  1  0
  3  4  1  6
  5  6  1  1
  7  8  2  0
  7  5  1  0
 10 12  1  0
 10  9  1  0
 11 10  2  0
 12 13  1  0
 13 14  1  0
 14 15  1  0
 16 15  1  6
 16 17  1  0
 17  7  1  0
 18 19  2  0
 18 16  1  0
 21 22  1  6
 21 20  1  0
 24 23  1  6
 23 21  1  0
 24 25  1  0
 25 18  1  0
 26 24  1  0
 27 26  2  0
 28 26  1  0
M  END
$$$$
