IRL.pdb
     RDKit          3D

 28 27  0  0  1  0  0  0  0  0999 V2000
    6.9350  -11.8201   18.8985 C   0  0  0  0  0  0  0  0  0  0  0  0
    7.7799  -13.0509   18.6352 C   0  0  0  0  0  0  0  0  0  0  0  0
    7.8022  -13.8527   19.9259 C   0  0  2  0  0  0  0  0  0  0  0  0
    8.3563  -13.0629   21.0636 C   0  0  0  0  0  0  0  0  0  0  0  0
    8.6533  -15.1142   19.7514 C   0  0  2  0  0  0  0  0  0  0  0  0
    7.9818  -15.8614   18.6720 N   0  0  0  0  0  0  0  0  0  0  0  0
    8.5206  -15.9007   20.9945 C   0  0  0  0  0  0  0  0  0  0  0  0
    7.3937  -16.4566   21.2168 O   0  0  0  0  0  0  0  0  0  0  0  0
   13.5426  -20.9529   20.2721 N   0  0  0  0  0  0  0  0  0  0  0  0
   13.6443  -20.5444   21.6301 C   0  0  0  0  0  0  0  0  0  0  0  0
   14.8007  -20.4119   22.1614 N   0  0  0  0  0  0  0  0  0  0  0  0
   12.4370  -20.2981   22.3426 N   0  0  0  0  0  0  0  0  0  0  0  0
   11.4938  -19.3379   21.8097 C   0  0  0  0  0  0  0  0  0  0  0  0
   11.3106  -18.1821   22.7996 C   0  0  0  0  0  0  0  0  0  0  0  0
    9.8556  -18.1964   23.1748 C   0  0  0  0  0  0  0  0  0  0  0  0
    9.2206  -16.8174   23.1783 C   0  0  2  0  0  0  0  0  0  0  0  0
    9.5171  -16.1058   21.9682 N   0  0  0  0  0  0  0  0  0  0  0  0
    9.5770  -16.0657   24.4071 C   0  0  0  0  0  0  0  0  0  0  0  0
   10.7607  -15.7275   24.5907 O   0  0  0  0  0  0  0  0  0  0  0  0
   14.8826  -20.1652   23.1544 C   0  0  0  0  0  0  0  0  0  0  0  0
    8.8050  -12.1685   25.7285 C   0  0  2  0  0  0  0  0  0  0  0  0
    7.5807  -13.0695   25.9576 C   0  0  0  0  0  0  0  0  0  0  0  0
    6.4116  -12.1929   26.2684 C   0  0  0  0  0  0  0  0  0  0  0  0
    7.9108  -14.0566   27.0451 C   0  0  2  0  0  0  0  0  0  0  0  0
    8.9472  -15.0626   26.6477 N   0  0  0  0  0  0  0  0  0  0  0  0
    8.6028  -15.7157   25.3906 C   0  0  0  0  0  0  0  0  0  0  0  0
    9.2684  -16.0564   27.6946 O   0  0  0  0  0  0  0  0  0  0  0  0
    9.7053  -15.6288   28.8108 O   0  0  0  0  0  0  0  0  0  0  0  0
  1  2  1  0
  3  2  1  0
  3  5  1  0
  3  4  1  1
  5  6  1  6
  7  8  2  0
  7  5  1  0
 10 12  1  0
 10  9  1  0
 11 10  2  0
 12 13  1  0
 13 14  1  0
 14 15  1  0
 16 15  1  6
 16 17  1  0
 17  7  1  0
 18 19  2  0
 18 16  1  0
 21 22  1  1
 21 20  1  0
 24 23  1  6
 23 21  1  0
 24 25  1  0
 25 18  1  0
 26 24  1  0
 27 26  2  0
 28 26  1  0
M  END
$$$$
