IRL.pdb
     RDKit          3D

 28 27  0  0  1  0  0  0  0  0999 V2000
    6.2664  -10.7951   27.6787 C   0  0  0  0  0  0  0  0  0  0  0  0
    5.4262  -11.7143   26.8141 C   0  0  0  0  0  0  0  0  0  0  0  0
    6.3759  -12.7304   26.2017 C   0  0  2  0  0  0  0  0  0  0  0  0
    7.3428  -12.0940   25.2608 C   0  0  0  0  0  0  0  0  0  0  0  0
    5.5878  -13.7989   25.4377 C   0  0  2  0  0  0  0  0  0  0  0  0
    4.6312  -14.3256   26.4287 N   0  0  0  0  0  0  0  0  0  0  0  0
    6.5361  -14.8816   25.1066 C   0  0  0  0  0  0  0  0  0  0  0  0
    6.0567  -16.0561   24.9672 O   0  0  0  0  0  0  0  0  0  0  0  0
    8.3692  -13.0638   17.7871 N   0  0  0  0  0  0  0  0  0  0  0  0
    8.8043  -14.4147   17.7024 C   0  0  0  0  0  0  0  0  0  0  0  0
    9.1814  -14.8837   16.5732 N   0  0  0  0  0  0  0  0  0  0  0  0
    8.8000  -15.1907   18.8955 N   0  0  0  0  0  0  0  0  0  0  0  0
    8.2969  -14.5953   20.1154 C   0  0  0  0  0  0  0  0  0  0  0  0
    8.4256  -15.5910   21.2735 C   0  0  0  0  0  0  0  0  0  0  0  0
    7.9225  -14.8658   22.4896 C   0  0  0  0  0  0  0  0  0  0  0  0
    8.5703  -15.3327   23.7807 C   0  0  2  0  0  0  0  0  0  0  0  0
    7.9266  -14.7528   24.9244 N   0  0  0  0  0  0  0  0  0  0  0  0
   10.0376  -15.1126   23.7550 C   0  0  0  0  0  0  0  0  0  0  0  0
   10.4789  -13.9956   23.4281 O   0  0  0  0  0  0  0  0  0  0  0  0
    9.5676  -15.8330   16.5165 C   0  0  0  0  0  0  0  0  0  0  0  0
   11.3906  -14.2147   26.9754 C   0  0  2  0  0  0  0  0  0  0  0  0
   10.0634  -14.9864   27.0542 C   0  0  0  0  0  0  0  0  0  0  0  0
    9.6415  -15.0382   28.4864 C   0  0  0  0  0  0  0  0  0  0  0  0
   10.2595  -16.3398   26.4254 C   0  0  2  0  0  0  0  0  0  0  0  0
   11.4053  -16.3932   25.4617 N   0  0  0  0  0  0  0  0  0  0  0  0
   10.9647  -16.1443   24.0944 C   0  0  0  0  0  0  0  0  0  0  0  0
   12.2173  -17.6263   25.5442 O   0  0  0  0  0  0  0  0  0  0  0  0
   11.9167  -18.5928   24.7729 O   0  0  0  0  0  0  0  0  0  0  0  0
  1  2  1  0
  3  2  1  0
  3  5  1  0
  3  4  1  6
  5  6  1  1
  7  8  2  0
  7  5  1  0
 10 12  1  0
 10  9  1  0
 11 10  2  0
 12 13  1  0
 13 14  1  0
 14 15  1  0
 16 15  1  6
 16 17  1  0
 17  7  1  0
 18 19  2  0
 18 16  1  0
 21 22  1  1
 21 20  1  0
 24 23  1  1
 23 21  1  0
 24 25  1  0
 25 18  1  0
 26 24  1  0
 27 26  2  0
 28 26  1  0
M  END
$$$$
