IRL.pdb
     RDKit          3D

 28 27  0  0  1  0  0  0  0  0999 V2000
    7.9561  -19.5167   27.1576 C   0  0  0  0  0  0  0  0  0  0  0  0
    8.0528  -19.4539   25.6460 C   0  0  0  0  0  0  0  0  0  0  0  0
    6.6513  -19.1777   25.1275 C   0  0  2  0  0  0  0  0  0  0  0  0
    5.6751  -20.2102   25.5813 C   0  0  0  0  0  0  0  0  0  0  0  0
    6.6492  -19.1485   23.5959 C   0  0  2  0  0  0  0  0  0  0  0  0
    7.4568  -20.3195   23.2073 N   0  0  0  0  0  0  0  0  0  0  0  0
    7.3862  -17.9362   23.1855 C   0  0  0  0  0  0  0  0  0  0  0  0
    8.6593  -18.0124   23.1432 O   0  0  0  0  0  0  0  0  0  0  0  0
    8.0338  -13.6172   16.7316 N   0  0  0  0  0  0  0  0  0  0  0  0
    8.6240  -14.6483   17.5124 C   0  0  0  0  0  0  0  0  0  0  0  0
    9.1763  -15.6425   16.9260 N   0  0  0  0  0  0  0  0  0  0  0  0
    8.5720  -14.5221   18.9291 N   0  0  0  0  0  0  0  0  0  0  0  0
    7.6944  -13.5288   19.5112 C   0  0  0  0  0  0  0  0  0  0  0  0
    7.8488  -13.5257   21.0361 C   0  0  0  0  0  0  0  0  0  0  0  0
    6.9646  -14.6332   21.5354 C   0  0  0  0  0  0  0  0  0  0  0  0
    7.6688  -15.5844   22.4864 C   0  0  2  0  0  0  0  0  0  0  0  0
    6.8263  -16.6938   22.8300 N   0  0  0  0  0  0  0  0  0  0  0  0
    8.2052  -14.8632   23.6671 C   0  0  0  0  0  0  0  0  0  0  0  0
    8.0969  -13.6245   23.7234 O   0  0  0  0  0  0  0  0  0  0  0  0
    9.6083  -16.3893   17.4821 C   0  0  0  0  0  0  0  0  0  0  0  0
    8.7424  -12.0398   26.2727 C   0  0  2  0  0  0  0  0  0  0  0  0
    7.5292  -12.9593   26.0585 C   0  0  0  0  0  0  0  0  0  0  0  0
    6.3408  -12.3146   26.6939 C   0  0  0  0  0  0  0  0  0  0  0  0
    7.8566  -14.3195   26.6138 C   0  0  2  0  0  0  0  0  0  0  0  0
    9.1024  -14.9190   26.0367 N   0  0  0  0  0  0  0  0  0  0  0  0
    8.8446  -15.5460   24.7460 C   0  0  0  0  0  0  0  0  0  0  0  0
    9.8146  -15.8428   26.9456 O   0  0  0  0  0  0  0  0  0  0  0  0
   10.1126  -15.4244   28.1099 O   0  0  0  0  0  0  0  0  0  0  0  0
  1  2  1  0
  3  2  1  0
  3  5  1  0
  3  4  1  6
  5  6  1  6
  7  8  2  0
  7  5  1  0
 10 12  1  0
 10  9  1  0
 11 10  2  0
 12 13  1  0
 13 14  1  0
 14 15  1  0
 16 15  1  6
 16 17  1  0
 17  7  1  0
 18 19  2  0
 18 16  1  0
 21 22  1  1
 21 20  1  0
 24 23  1  6
 23 21  1  0
 24 25  1  0
 25 18  1  0
 26 24  1  0
 27 26  2  0
 28 26  1  0
M  END
$$$$
