IRL.pdb
     RDKit          3D

 28 27  0  0  1  0  0  0  0  0999 V2000
    7.5047  -11.6033   18.8626 C   0  0  0  0  0  0  0  0  0  0  0  0
    8.0095  -12.9999   18.5577 C   0  0  0  0  0  0  0  0  0  0  0  0
    8.0310  -13.7565   19.8753 C   0  0  2  0  0  0  0  0  0  0  0  0
    8.8678  -13.0679   20.9004 C   0  0  0  0  0  0  0  0  0  0  0  0
    8.5854  -15.1691   19.6662 C   0  0  2  0  0  0  0  0  0  0  0  0
    7.6341  -15.8004   18.7330 N   0  0  0  0  0  0  0  0  0  0  0  0
    8.4800  -15.8712   20.9613 C   0  0  0  0  0  0  0  0  0  0  0  0
    7.3103  -16.1907   21.3593 O   0  0  0  0  0  0  0  0  0  0  0  0
   13.1346  -19.5904   23.0276 N   0  0  0  0  0  0  0  0  0  0  0  0
   13.1274  -19.7491   24.4404 C   0  0  0  0  0  0  0  0  0  0  0  0
   14.2052  -19.5500   25.1006 N   0  0  0  0  0  0  0  0  0  0  0  0
   11.9032  -20.1264   25.0608 N   0  0  0  0  0  0  0  0  0  0  0  0
   10.7171  -20.2631   24.2421 C   0  0  0  0  0  0  0  0  0  0  0  0
    9.8505  -19.0049   24.3654 C   0  0  0  0  0  0  0  0  0  0  0  0
   10.0740  -18.2326   23.0960 C   0  0  0  0  0  0  0  0  0  0  0  0
    9.2958  -16.9304   23.0379 C   0  0  2  0  0  0  0  0  0  0  0  0
    9.5446  -16.2308   21.8101 N   0  0  0  0  0  0  0  0  0  0  0  0
    9.5396  -16.1052   24.2468 C   0  0  0  0  0  0  0  0  0  0  0  0
   10.6673  -15.6104   24.4276 O   0  0  0  0  0  0  0  0  0  0  0  0
   14.2262  -19.7264   26.1116 C   0  0  0  0  0  0  0  0  0  0  0  0
    8.5220  -12.2614   25.7649 C   0  0  1  0  0  0  0  0  0  0  0  0
    7.3013  -13.1924   25.8449 C   0  0  0  0  0  0  0  0  0  0  0  0
    6.1078  -12.3633   26.1913 C   0  0  0  0  0  0  0  0  0  0  0  0
    7.5969  -14.2835   26.8387 C   0  0  2  0  0  0  0  0  0  0  0  0
    8.7656  -15.1404   26.4589 N   0  0  0  0  0  0  0  0  0  0  0  0
    8.5187  -15.8584   25.2143 C   0  0  0  0  0  0  0  0  0  0  0  0
    9.2219  -16.0597   27.5235 O   0  0  0  0  0  0  0  0  0  0  0  0
    8.9597  -17.2985   27.3964 O   0  0  0  0  0  0  0  0  0  0  0  0
  1  2  1  0
  3  2  1  0
  3  5  1  0
  3  4  1  1
  5  6  1  6
  7  8  2  0
  7  5  1  0
 10 12  1  0
 10  9  1  0
 11 10  2  0
 12 13  1  0
 13 14  1  0
 14 15  1  0
 16 15  1  1
 16 17  1  0
 17  7  1  0
 18 19  2  0
 18 16  1  0
 21 22  1  1
 21 20  1  0
 24 23  1  6
 23 21  1  0
 24 25  1  0
 25 18  1  0
 26 24  1  0
 27 26  2  0
 28 26  1  0
M  END
$$$$
