IRL.pdb
     RDKit          3D

 28 27  0  0  1  0  0  0  0  0999 V2000
    7.3440  -11.5369   19.0135 C   0  0  0  0  0  0  0  0  0  0  0  0
    7.9161  -12.9004   18.6792 C   0  0  0  0  0  0  0  0  0  0  0  0
    7.8764  -13.7191   19.9588 C   0  0  2  0  0  0  0  0  0  0  0  0
    8.5958  -13.0422   21.0766 C   0  0  0  0  0  0  0  0  0  0  0  0
    8.5178  -15.0913   19.7301 C   0  0  2  0  0  0  0  0  0  0  0  0
    7.6489  -15.7383   18.7296 N   0  0  0  0  0  0  0  0  0  0  0  0
    8.3892  -15.8448   20.9938 C   0  0  0  0  0  0  0  0  0  0  0  0
    7.2082  -16.0796   21.4166 O   0  0  0  0  0  0  0  0  0  0  0  0
   10.0699  -21.4780   21.2226 N   0  0  0  0  0  0  0  0  0  0  0  0
   10.0062  -22.0746   22.5115 C   0  0  0  0  0  0  0  0  0  0  0  0
   10.4594  -23.2594   22.6786 N   0  0  0  0  0  0  0  0  0  0  0  0
    9.4338  -21.3132   23.5690 N   0  0  0  0  0  0  0  0  0  0  0  0
   10.2776  -20.3983   24.3085 C   0  0  0  0  0  0  0  0  0  0  0  0
    9.5848  -19.0370   24.4361 C   0  0  0  0  0  0  0  0  0  0  0  0
    9.8595  -18.3195   23.1448 C   0  0  0  0  0  0  0  0  0  0  0  0
    9.1740  -16.9684   23.0483 C   0  0  2  0  0  0  0  0  0  0  0  0
    9.4425  -16.3384   21.7875 N   0  0  0  0  0  0  0  0  0  0  0  0
    9.5038  -16.1148   24.2164 C   0  0  0  0  0  0  0  0  0  0  0  0
   10.6868  -15.7789   24.4089 O   0  0  0  0  0  0  0  0  0  0  0  0
   10.5321  -23.6510   23.6246 C   0  0  0  0  0  0  0  0  0  0  0  0
    8.6669  -12.0676   25.6525 C   0  0  1  0  0  0  0  0  0  0  0  0
    7.4152  -12.9502   25.7844 C   0  0  0  0  0  0  0  0  0  0  0  0
    6.2676  -12.0731   26.1658 C   0  0  0  0  0  0  0  0  0  0  0  0
    7.7044  -14.0444   26.7767 C   0  0  2  0  0  0  0  0  0  0  0  0
    8.8236  -14.9498   26.3620 N   0  0  0  0  0  0  0  0  0  0  0  0
    8.5047  -15.6635   25.1314 C   0  0  0  0  0  0  0  0  0  0  0  0
    9.2796  -15.8814   27.4160 O   0  0  0  0  0  0  0  0  0  0  0  0
    8.8245  -17.0698   27.4012 O   0  0  0  0  0  0  0  0  0  0  0  0
  1  2  1  0
  3  2  1  0
  3  5  1  0
  3  4  1  1
  5  6  1  6
  7  8  2  0
  7  5  1  0
 10 12  1  0
 10  9  1  0
 11 10  2  0
 12 13  1  0
 13 14  1  0
 14 15  1  0
 16 15  1  1
 16 17  1  0
 17  7  1  0
 18 19  2  0
 18 16  1  0
 21 22  1  1
 21 20  1  0
 24 23  1  6
 23 21  1  0
 24 25  1  0
 25 18  1  0
 26 24  1  0
 27 26  2  0
 28 26  1  0
M  END
$$$$
