IRL.pdb
     RDKit          3D

 28 27  0  0  1  0  0  0  0  0999 V2000
    7.4642  -11.7038   18.6556 C   0  0  0  0  0  0  0  0  0  0  0  0
    8.0826  -13.0773   18.4837 C   0  0  0  0  0  0  0  0  0  0  0  0
    7.8141  -13.8436   19.7683 C   0  0  2  0  0  0  0  0  0  0  0  0
    8.3344  -13.1234   20.9666 C   0  0  0  0  0  0  0  0  0  0  0  0
    8.4734  -15.2250   19.7088 C   0  0  2  0  0  0  0  0  0  0  0  0
    7.7530  -15.9274   18.6309 N   0  0  0  0  0  0  0  0  0  0  0  0
    8.1607  -15.9085   20.9802 C   0  0  0  0  0  0  0  0  0  0  0  0
    6.9479  -16.2547   21.1746 O   0  0  0  0  0  0  0  0  0  0  0  0
   11.0084  -19.9098   20.3053 N   0  0  0  0  0  0  0  0  0  0  0  0
   11.9825  -20.4830   21.1676 C   0  0  0  0  0  0  0  0  0  0  0  0
   13.0939  -20.8875   20.6793 N   0  0  0  0  0  0  0  0  0  0  0  0
   11.6699  -20.5795   22.5528 N   0  0  0  0  0  0  0  0  0  0  0  0
   10.3742  -20.1243   23.0108 C   0  0  0  0  0  0  0  0  0  0  0  0
   10.2783  -18.6007   22.8742 C   0  0  0  0  0  0  0  0  0  0  0  0
    8.9115  -18.2336   23.3790 C   0  0  0  0  0  0  0  0  0  0  0  0
    8.6026  -16.7520   23.2589 C   0  0  2  0  0  0  0  0  0  0  0  0
    9.0690  -16.2236   22.0091 N   0  0  0  0  0  0  0  0  0  0  0  0
    9.1008  -16.0027   24.4388 C   0  0  0  0  0  0  0  0  0  0  0  0
   10.3241  -15.8102   24.5643 O   0  0  0  0  0  0  0  0  0  0  0  0
   13.8109  -21.2836   21.2978 C   0  0  0  0  0  0  0  0  0  0  0  0
    8.1348  -11.9927   25.5672 C   0  0  2  0  0  0  0  0  0  0  0  0
    7.0398  -12.9403   26.0832 C   0  0  0  0  0  0  0  0  0  0  0  0
    5.8985  -12.1082   26.5703 C   0  0  0  0  0  0  0  0  0  0  0  0
    7.6383  -13.8335   27.1366 C   0  0  2  0  0  0  0  0  0  0  0  0
    8.6903  -14.7608   26.6097 N   0  0  0  0  0  0  0  0  0  0  0  0
    8.2195  -15.4925   25.4399 C   0  0  0  0  0  0  0  0  0  0  0  0
    9.2584  -15.6790   27.6201 O   0  0  0  0  0  0  0  0  0  0  0  0
    8.9007  -16.8998   27.5866 O   0  0  0  0  0  0  0  0  0  0  0  0
  1  2  1  0
  3  2  1  0
  3  5  1  0
  3  4  1  1
  5  6  1  6
  7  8  2  0
  7  5  1  0
 10 12  1  0
 10  9  1  0
 11 10  2  0
 12 13  1  0
 13 14  1  0
 14 15  1  0
 16 15  1  1
 16 17  1  0
 17  7  1  0
 18 19  2  0
 18 16  1  0
 21 22  1  1
 21 20  1  0
 24 23  1  6
 23 21  1  0
 24 25  1  0
 25 18  1  0
 26 24  1  0
 27 26  2  0
 28 26  1  0
M  END
$$$$
