IRL.pdb
     RDKit          3D

 28 27  0  0  1  0  0  0  0  0999 V2000
    7.6741  -11.6273   19.1077 C   0  0  0  0  0  0  0  0  0  0  0  0
    7.6013  -13.1062   18.7827 C   0  0  0  0  0  0  0  0  0  0  0  0
    7.6014  -13.8478   20.1091 C   0  0  2  0  0  0  0  0  0  0  0  0
    8.7967  -13.5118   20.9359 C   0  0  0  0  0  0  0  0  0  0  0  0
    7.5870  -15.3608   19.8703 C   0  0  2  0  0  0  0  0  0  0  0  0
    6.3586  -15.5955   19.0890 N   0  0  0  0  0  0  0  0  0  0  0  0
    7.4134  -16.0049   21.1880 C   0  0  0  0  0  0  0  0  0  0  0  0
    6.3445  -15.7388   21.8323 O   0  0  0  0  0  0  0  0  0  0  0  0
    7.8910  -22.9244   26.9078 N   0  0  0  0  0  0  0  0  0  0  0  0
    6.9929  -21.9447   26.4030 C   0  0  0  0  0  0  0  0  0  0  0  0
    6.0889  -21.4657   27.1715 N   0  0  0  0  0  0  0  0  0  0  0  0
    7.1459  -21.5377   25.0477 N   0  0  0  0  0  0  0  0  0  0  0  0
    8.3416  -20.8171   24.6646 C   0  0  0  0  0  0  0  0  0  0  0  0
    8.0800  -19.3077   24.7164 C   0  0  0  0  0  0  0  0  0  0  0  0
    8.2495  -18.8181   23.3060 C   0  0  0  0  0  0  0  0  0  0  0  0
    8.0965  -17.3140   23.1677 C   0  0  2  0  0  0  0  0  0  0  0  0
    8.3106  -16.8924   21.8130 N   0  0  0  0  0  0  0  0  0  0  0  0
    8.9455  -16.5957   24.1501 C   0  0  0  0  0  0  0  0  0  0  0  0
    9.8364  -15.8301   23.7384 O   0  0  0  0  0  0  0  0  0  0  0  0
    5.4116  -20.7874   26.8043 C   0  0  0  0  0  0  0  0  0  0  0  0
    6.4884  -12.5216   26.5285 C   0  0  1  0  0  0  0  0  0  0  0  0
    7.7454  -13.3411   26.8623 C   0  0  0  0  0  0  0  0  0  0  0  0
    8.9389  -12.4701   26.6413 C   0  0  0  0  0  0  0  0  0  0  0  0
    7.7374  -14.5912   26.0240 C   0  0  2  0  0  0  0  0  0  0  0  0
    8.7196  -15.6261   26.4808 N   0  0  0  0  0  0  0  0  0  0  0  0
    8.7739  -16.7542   25.5588 C   0  0  0  0  0  0  0  0  0  0  0  0
    8.5229  -16.0841   27.8730 O   0  0  0  0  0  0  0  0  0  0  0  0
    9.0734  -15.4157   28.8056 O   0  0  0  0  0  0  0  0  0  0  0  0
  1  2  1  0
  3  2  1  0
  3  5  1  0
  3  4  1  6
  5  6  1  6
  7  8  2  0
  7  5  1  0
 10 12  1  0
 10  9  1  0
 11 10  2  0
 12 13  1  0
 13 14  1  0
 14 15  1  0
 16 15  1  6
 16 17  1  0
 17  7  1  0
 18 19  2  0
 18 16  1  0
 21 22  1  6
 21 20  1  0
 24 23  1  6
 23 21  1  0
 24 25  1  0
 25 18  1  0
 26 24  1  0
 27 26  2  0
 28 26  1  0
M  END
$$$$
