NCE.pdb
     RDKit          3D

 24 23  0  0  1  0  0  0  0  0999 V2000
   22.7835  -12.4373  -21.9847 N   0  0  0  0  0  0  0  0  0  0  0  0
   21.7442  -12.5832  -21.0361 C   0  0  0  0  0  0  0  0  0  0  0  0
   20.7537  -13.3074  -21.3671 O   0  0  0  0  0  0  0  0  0  0  0  0
   21.7719  -11.9357  -19.7017 C   0  0  0  0  0  0  0  0  0  0  0  0
   22.9611  -12.4687  -18.9408 C   0  0  2  0  0  0  0  0  0  0  0  0
   22.7207  -13.8980  -18.7080 N   0  0  0  0  0  0  0  0  0  0  0  0
   23.1677  -11.7862  -17.6532 C   0  0  0  0  0  0  0  0  0  0  0  0
   22.6040  -12.1070  -16.5712 O   0  0  0  0  0  0  0  0  0  0  0  0
   24.0580  -10.6857  -17.5905 N   0  0  0  0  0  0  0  0  0  0  0  0
   24.3041   -9.9215  -16.3960 C   0  0  1  0  0  0  0  0  0  0  0  0
   25.8053   -9.9620  -16.0847 C   0  0  0  0  0  0  0  0  0  0  0  0
   26.0276   -9.0486  -14.5270 S   0  0  0  0  0  0  0  0  0  0  0  0
   23.9284   -8.5173  -16.4776 C   0  0  0  0  0  0  0  0  0  0  0  0
   24.4869   -7.7633  -17.3001 O   0  0  0  0  0  0  0  0  0  0  0  0
   22.9300   -8.0020  -15.6283 N   0  0  0  0  0  0  0  0  0  0  0  0
   22.4968   -6.5911  -15.6659 C   0  0  1  0  0  0  0  0  0  0  0  0
   21.0105   -6.6102  -15.8554 C   0  0  0  0  0  0  0  0  0  0  0  0
   20.5259   -6.9833  -17.2095 C   0  0  0  0  0  0  0  0  0  0  0  0
   19.0551   -6.9646  -17.3603 C   0  0  0  0  0  0  0  0  0  0  0  0
   18.3156   -6.5439  -16.4160 O   0  0  0  0  0  0  0  0  0  0  0  0
   22.8033   -5.9518  -14.3655 C   0  0  0  0  0  0  0  0  0  0  0  0
   22.8170   -4.5917  -14.1602 O   0  0  0  0  0  0  0  0  0  0  0  0
   18.4895   -7.4195  -18.5700 O   0  0  0  0  0  0  0  0  0  0  0  0
   23.0715   -6.6824  -13.3695 O   0  0  0  0  0  0  0  0  0  0  0  0
  2  1  1  0
  3  2  2  0
  4  2  1  0
  4  5  1  0
  5  6  1  1
  7  5  1  0
  7  8  2  0
  9  7  1  0
 10  9  1  0
 10 13  1  0
 10 11  1  6
 12 11  1  0
 13 15  1  0
 14 13  2  0
 15 16  1  0
 16 21  1  0
 16 17  1  1
 18 17  1  0
 19 23  1  0
 19 18  1  0
 20 19  2  0
 21 24  2  0
 21 22  1  0
M  END
$$$$
