NCE.pdb
     RDKit          3D

 24 23  0  0  1  0  0  0  0  0999 V2000
   14.8076   -7.9004   -8.1385 N   0  0  0  0  0  0  0  0  0  0  0  0
   13.7028   -8.3531   -8.8974 C   0  0  0  0  0  0  0  0  0  0  0  0
   12.5473   -8.1919   -8.3936 O   0  0  0  0  0  0  0  0  0  0  0  0
   13.8451   -8.9930  -10.2282 C   0  0  0  0  0  0  0  0  0  0  0  0
   15.3138   -9.0564  -10.5691 C   0  0  2  0  0  0  0  0  0  0  0  0
   15.9982   -9.6665   -9.4228 N   0  0  0  0  0  0  0  0  0  0  0  0
   15.8939   -7.7317  -10.8434 C   0  0  0  0  0  0  0  0  0  0  0  0
   15.4791   -6.9350  -11.7292 O   0  0  0  0  0  0  0  0  0  0  0  0
   16.9990   -7.2897  -10.0747 N   0  0  0  0  0  0  0  0  0  0  0  0
   17.6801   -6.0412  -10.2955 C   0  0  1  0  0  0  0  0  0  0  0  0
   17.6460   -5.2242   -8.9980 C   0  0  0  0  0  0  0  0  0  0  0  0
   18.3597   -3.5996   -9.3999 S   0  0  0  0  0  0  0  0  0  0  0  0
   19.0792   -6.1650  -10.6788 C   0  0  0  0  0  0  0  0  0  0  0  0
   19.7646   -7.1193  -10.2588 O   0  0  0  0  0  0  0  0  0  0  0  0
   19.6670   -5.2075  -11.5282 N   0  0  0  0  0  0  0  0  0  0  0  0
   20.8444   -5.4991  -12.3699 C   0  0  1  0  0  0  0  0  0  0  0  0
   20.4094   -6.5359  -13.3604 C   0  0  0  0  0  0  0  0  0  0  0  0
   20.7677   -7.9417  -13.0399 C   0  0  0  0  0  0  0  0  0  0  0  0
   20.2746   -8.9371  -14.0157 C   0  0  0  0  0  0  0  0  0  0  0  0
   20.9529   -9.2121  -15.0548 O   0  0  0  0  0  0  0  0  0  0  0  0
   21.2354   -4.2734  -13.1034 C   0  0  0  0  0  0  0  0  0  0  0  0
   22.5336   -3.9458  -13.4190 O   0  0  0  0  0  0  0  0  0  0  0  0
   19.0407   -9.5760  -13.7711 O   0  0  0  0  0  0  0  0  0  0  0  0
   20.3367   -3.4644  -13.4718 O   0  0  0  0  0  0  0  0  0  0  0  0
  2  1  1  0
  3  2  2  0
  4  2  1  0
  4  5  1  0
  5  6  1  1
  7  5  1  0
  7  8  2  0
  9  7  1  0
 10  9  1  0
 10 13  1  0
 10 11  1  1
 12 11  1  0
 13 15  1  0
 14 13  2  0
 15 16  1  0
 16 21  1  0
 16 17  1  6
 18 17  1  0
 19 23  1  0
 19 18  1  0
 20 19  2  0
 21 24  2  0
 21 22  1  0
M  END
$$$$
