NCE.pdb
     RDKit          3D

 24 23  0  0  1  0  0  0  0  0999 V2000
   23.8118  -16.2427  -20.1985 N   0  0  0  0  0  0  0  0  0  0  0  0
   23.4558  -16.5103  -18.8556 C   0  0  0  0  0  0  0  0  0  0  0  0
   23.0552  -17.6855  -18.5845 O   0  0  0  0  0  0  0  0  0  0  0  0
   23.5332  -15.4905  -17.7810 C   0  0  0  0  0  0  0  0  0  0  0  0
   23.9130  -14.1708  -18.4065 C   0  0  2  0  0  0  0  0  0  0  0  0
   25.2685  -14.3229  -18.9487 N   0  0  0  0  0  0  0  0  0  0  0  0
   23.8871  -13.0554  -17.4464 C   0  0  0  0  0  0  0  0  0  0  0  0
   22.8942  -12.7442  -16.7331 O   0  0  0  0  0  0  0  0  0  0  0  0
   25.0448  -12.2542  -17.2879 N   0  0  0  0  0  0  0  0  0  0  0  0
   25.1305  -11.1414  -16.3792 C   0  0  1  0  0  0  0  0  0  0  0  0
   26.5990  -10.7161  -16.2568 C   0  0  0  0  0  0  0  0  0  0  0  0
   27.4787  -12.1279  -15.5200 S   0  0  0  0  0  0  0  0  0  0  0  0
   24.3820   -9.9599  -16.7836 C   0  0  0  0  0  0  0  0  0  0  0  0
   24.3458   -9.6181  -17.9831 O   0  0  0  0  0  0  0  0  0  0  0  0
   23.6925   -9.1962  -15.8218 N   0  0  0  0  0  0  0  0  0  0  0  0
   22.6743   -8.1886  -16.1793 C   0  0  1  0  0  0  0  0  0  0  0  0
   21.5463   -8.9370  -16.8216 C   0  0  0  0  0  0  0  0  0  0  0  0
   20.3628   -8.1299  -17.2157 C   0  0  0  0  0  0  0  0  0  0  0  0
   19.2558   -8.9133  -17.8048 C   0  0  0  0  0  0  0  0  0  0  0  0
   19.3571  -10.1733  -17.9377 O   0  0  0  0  0  0  0  0  0  0  0  0
   22.1747   -7.5406  -14.9448 C   0  0  0  0  0  0  0  0  0  0  0  0
   21.7137   -6.2459  -14.8870 O   0  0  0  0  0  0  0  0  0  0  0  0
   18.0867   -8.2377  -18.2137 O   0  0  0  0  0  0  0  0  0  0  0  0
   22.1622   -8.1999  -13.8664 O   0  0  0  0  0  0  0  0  0  0  0  0
  2  1  1  0
  3  2  2  0
  4  2  1  0
  4  5  1  0
  5  6  1  1
  7  5  1  0
  7  8  2  0
  9  7  1  0
 10  9  1  0
 10 13  1  0
 10 11  1  6
 12 11  1  0
 13 15  1  0
 14 13  2  0
 15 16  1  0
 16 21  1  0
 16 17  1  1
 18 17  1  0
 19 23  1  0
 19 18  1  0
 20 19  2  0
 21 24  2  0
 21 22  1  0
M  END
$$$$
