NCE.pdb
     RDKit          3D

 24 23  0  0  1  0  0  0  0  0999 V2000
   25.2879  -13.0010  -17.5945 N   0  0  0  0  0  0  0  0  0  0  0  0
   24.1665  -13.2411  -18.4228 C   0  0  0  0  0  0  0  0  0  0  0  0
   24.2353  -14.2274  -19.2213 O   0  0  0  0  0  0  0  0  0  0  0  0
   22.9441  -12.4013  -18.3907 C   0  0  0  0  0  0  0  0  0  0  0  0
   23.1639  -11.2821  -17.4025 C   0  0  2  0  0  0  0  0  0  0  0  0
   23.2571  -11.8926  -16.0708 N   0  0  0  0  0  0  0  0  0  0  0  0
   22.0787  -10.2877  -17.4154 C   0  0  0  0  0  0  0  0  0  0  0  0
   21.7409   -9.6058  -18.4216 O   0  0  0  0  0  0  0  0  0  0  0  0
   21.3408  -10.0561  -16.2283 N   0  0  0  0  0  0  0  0  0  0  0  0
   20.2542   -9.1172  -16.1310 C   0  0  1  0  0  0  0  0  0  0  0  0
   18.9679   -9.8837  -15.7989 C   0  0  0  0  0  0  0  0  0  0  0  0
   19.3496  -10.9163  -14.3504 S   0  0  0  0  0  0  0  0  0  0  0  0
   20.4143   -8.0978  -15.1040 C   0  0  0  0  0  0  0  0  0  0  0  0
   21.3227   -8.1978  -14.2543 O   0  0  0  0  0  0  0  0  0  0  0  0
   19.5444   -6.9908  -15.0648 N   0  0  0  0  0  0  0  0  0  0  0  0
   19.8606   -5.7496  -14.3306 C   0  0  1  0  0  0  0  0  0  0  0  0
   21.1977   -5.2926  -14.8291 C   0  0  0  0  0  0  0  0  0  0  0  0
   21.6694   -3.9750  -14.3302 C   0  0  0  0  0  0  0  0  0  0  0  0
   22.9806   -3.5510  -14.8660 C   0  0  0  0  0  0  0  0  0  0  0  0
   23.0509   -2.8859  -15.9468 O   0  0  0  0  0  0  0  0  0  0  0  0
   18.8509   -4.7173  -14.6598 C   0  0  0  0  0  0  0  0  0  0  0  0
   18.3858   -3.7818  -13.7650 O   0  0  0  0  0  0  0  0  0  0  0  0
   24.1496   -3.8959  -14.1554 O   0  0  0  0  0  0  0  0  0  0  0  0
   18.3738   -4.6752  -15.8296 O   0  0  0  0  0  0  0  0  0  0  0  0
  2  1  1  0
  3  2  2  0
  4  2  1  0
  4  5  1  0
  5  6  1  1
  7  5  1  0
  7  8  2  0
  9  7  1  0
 10  9  1  0
 10 13  1  0
 10 11  1  1
 12 11  1  0
 13 15  1  0
 14 13  2  0
 15 16  1  0
 16 21  1  0
 16 17  1  6
 18 17  1  0
 19 23  1  0
 19 18  1  0
 20 19  2  0
 21 24  2  0
 21 22  1  0
M  END
$$$$
