NCE.pdb
     RDKit          3D

 24 23  0  0  1  0  0  0  0  0999 V2000
   17.4536  -12.3962  -17.1628 N   0  0  0  0  0  0  0  0  0  0  0  0
   17.4152  -12.2903  -15.7526 C   0  0  0  0  0  0  0  0  0  0  0  0
   16.7835  -13.1933  -15.1197 O   0  0  0  0  0  0  0  0  0  0  0  0
   18.0718  -11.1884  -15.0072 C   0  0  0  0  0  0  0  0  0  0  0  0
   18.7040  -10.2510  -16.0067 C   0  0  2  0  0  0  0  0  0  0  0  0
   19.9735  -10.8571  -16.4258 N   0  0  0  0  0  0  0  0  0  0  0  0
   18.9553   -8.9107  -15.4526 C   0  0  0  0  0  0  0  0  0  0  0  0
   18.0568   -8.1037  -15.0881 O   0  0  0  0  0  0  0  0  0  0  0  0
   20.2920   -8.4645  -15.3050 N   0  0  0  0  0  0  0  0  0  0  0  0
   20.6543   -7.1985  -14.7241 C   0  0  1  0  0  0  0  0  0  0  0  0
   22.1372   -7.2403  -14.3350 C   0  0  0  0  0  0  0  0  0  0  0  0
   22.4811   -5.6775  -13.4692 S   0  0  0  0  0  0  0  0  0  0  0  0
   20.4809   -6.0491  -15.6007 C   0  0  0  0  0  0  0  0  0  0  0  0
   20.9418   -6.0669  -16.7602 O   0  0  0  0  0  0  0  0  0  0  0  0
   19.7896   -4.9099  -15.1446 N   0  0  0  0  0  0  0  0  0  0  0  0
   19.5435   -3.7287  -15.9955 C   0  0  1  0  0  0  0  0  0  0  0  0
   18.2432   -3.1415  -15.5375 C   0  0  0  0  0  0  0  0  0  0  0  0
   17.7912   -1.9151  -16.2441 C   0  0  0  0  0  0  0  0  0  0  0  0
   16.5093   -1.3639  -15.7553 C   0  0  0  0  0  0  0  0  0  0  0  0
   15.8983   -1.9148  -14.7864 O   0  0  0  0  0  0  0  0  0  0  0  0
   20.6194   -2.7352  -15.7743 C   0  0  0  0  0  0  0  0  0  0  0  0
   21.1613   -1.9528  -16.7673 O   0  0  0  0  0  0  0  0  0  0  0  0
   15.9792   -0.2164  -16.3819 O   0  0  0  0  0  0  0  0  0  0  0  0
   21.0828   -2.5805  -14.6084 O   0  0  0  0  0  0  0  0  0  0  0  0
  2  1  1  0
  3  2  2  0
  4  2  1  0
  4  5  1  0
  5  6  1  1
  7  5  1  0
  7  8  2  0
  9  7  1  0
 10  9  1  0
 10 13  1  0
 10 11  1  6
 12 11  1  0
 13 15  1  0
 14 13  2  0
 15 16  1  0
 16 21  1  0
 16 17  1  1
 18 17  1  0
 19 23  1  0
 19 18  1  0
 20 19  2  0
 21 24  2  0
 21 22  1  0
M  END
$$$$
