NCE.pdb
     RDKit          3D

 24 23  0  0  1  0  0  0  0  0999 V2000
   17.8584  -11.3069  -18.3903 N   0  0  0  0  0  0  0  0  0  0  0  0
   18.4970  -10.1467  -18.8878 C   0  0  0  0  0  0  0  0  0  0  0  0
   18.6216  -10.0482  -20.1487 O   0  0  0  0  0  0  0  0  0  0  0  0
   19.0125   -9.0687  -18.0086 C   0  0  0  0  0  0  0  0  0  0  0  0
   18.8603   -9.5132  -16.5746 C   0  0  2  0  0  0  0  0  0  0  0  0
   17.4213   -9.6137  -16.3029 N   0  0  0  0  0  0  0  0  0  0  0  0
   19.4797   -8.5807  -15.6189 C   0  0  0  0  0  0  0  0  0  0  0  0
   18.8831   -7.6161  -15.0666 O   0  0  0  0  0  0  0  0  0  0  0  0
   20.8431   -8.7514  -15.2732 N   0  0  0  0  0  0  0  0  0  0  0  0
   21.5747   -7.8446  -14.4282 C   0  0  1  0  0  0  0  0  0  0  0  0
   22.9280   -8.4771  -14.0804 C   0  0  0  0  0  0  0  0  0  0  0  0
   22.5694   -9.8611  -12.9553 S   0  0  0  0  0  0  0  0  0  0  0  0
   21.8570   -6.5454  -15.0217 C   0  0  0  0  0  0  0  0  0  0  0  0
   22.1411   -6.4555  -16.2334 O   0  0  0  0  0  0  0  0  0  0  0  0
   21.8092   -5.3812  -14.2304 N   0  0  0  0  0  0  0  0  0  0  0  0
   21.8251   -4.0213  -14.8051 C   0  0  1  0  0  0  0  0  0  0  0  0
   20.6120   -3.9173  -15.6784 C   0  0  0  0  0  0  0  0  0  0  0  0
   20.4150   -2.6211  -16.3774 C   0  0  0  0  0  0  0  0  0  0  0  0
   19.3342   -2.6273  -17.3863 C   0  0  0  0  0  0  0  0  0  0  0  0
   19.5979   -2.8347  -18.6123 O   0  0  0  0  0  0  0  0  0  0  0  0
   21.7122   -3.0284  -13.7121 C   0  0  0  0  0  0  0  0  0  0  0  0
   21.2718   -3.3262  -12.4434 O   0  0  0  0  0  0  0  0  0  0  0  0
   18.0074   -2.4013  -16.9633 O   0  0  0  0  0  0  0  0  0  0  0  0
   22.0353   -1.8272  -13.9371 O   0  0  0  0  0  0  0  0  0  0  0  0
  2  1  1  0
  3  2  2  0
  4  2  1  0
  4  5  1  0
  5  6  1  1
  7  5  1  0
  7  8  2  0
  9  7  1  0
 10  9  1  0
 10 13  1  0
 10 11  1  6
 12 11  1  0
 13 15  1  0
 14 13  2  0
 15 16  1  0
 16 21  1  0
 16 17  1  6
 18 17  1  0
 19 23  1  0
 19 18  1  0
 20 19  2  0
 21 24  2  0
 21 22  1  0
M  END
$$$$
