NCE.pdb
     RDKit          3D

 24 23  0  0  1  0  0  0  0  0999 V2000
   19.0594  -12.3067  -16.7672 N   0  0  0  0  0  0  0  0  0  0  0  0
   18.4079  -12.0166  -15.5453 C   0  0  0  0  0  0  0  0  0  0  0  0
   17.6598  -12.9206  -15.0575 O   0  0  0  0  0  0  0  0  0  0  0  0
   18.5657  -10.7250  -14.8328 C   0  0  0  0  0  0  0  0  0  0  0  0
   19.4396   -9.8248  -15.6714 C   0  0  2  0  0  0  0  0  0  0  0  0
   20.7711  -10.4404  -15.7236 N   0  0  0  0  0  0  0  0  0  0  0  0
   19.5461   -8.4621  -15.1251 C   0  0  0  0  0  0  0  0  0  0  0  0
   18.5641   -7.7211  -14.8457 O   0  0  0  0  0  0  0  0  0  0  0  0
   20.8300   -7.9137  -14.8839 N   0  0  0  0  0  0  0  0  0  0  0  0
   21.0525   -6.5710  -14.4160 C   0  0  1  0  0  0  0  0  0  0  0  0
   22.5117   -6.4418  -13.9619 C   0  0  0  0  0  0  0  0  0  0  0  0
   22.6928   -4.7562  -13.3018 S   0  0  0  0  0  0  0  0  0  0  0  0
   20.8263   -5.5300  -15.4084 C   0  0  0  0  0  0  0  0  0  0  0  0
   21.4142   -5.5709  -16.5083 O   0  0  0  0  0  0  0  0  0  0  0  0
   19.9403   -4.4705  -15.1325 N   0  0  0  0  0  0  0  0  0  0  0  0
   19.7489   -3.3279  -16.0477 C   0  0  1  0  0  0  0  0  0  0  0  0
   18.2834   -3.2737  -16.3552 C   0  0  0  0  0  0  0  0  0  0  0  0
   17.7639   -4.3267  -17.2656 C   0  0  0  0  0  0  0  0  0  0  0  0
   16.2963   -4.3120  -17.4448 C   0  0  0  0  0  0  0  0  0  0  0  0
   15.5771   -3.4811  -16.8062 O   0  0  0  0  0  0  0  0  0  0  0  0
   20.1372   -2.0776  -15.3552 C   0  0  0  0  0  0  0  0  0  0  0  0
   20.2255   -0.8512  -15.9717 O   0  0  0  0  0  0  0  0  0  0  0  0
   15.7108   -5.2343  -18.3375 O   0  0  0  0  0  0  0  0  0  0  0  0
   20.4082   -2.1173  -14.1211 O   0  0  0  0  0  0  0  0  0  0  0  0
  2  1  1  0
  3  2  2  0
  4  2  1  0
  4  5  1  0
  5  6  1  1
  7  5  1  0
  7  8  2  0
  9  7  1  0
 10  9  1  0
 10 13  1  0
 10 11  1  6
 12 11  1  0
 13 15  1  0
 14 13  2  0
 15 16  1  0
 16 21  1  0
 16 17  1  1
 18 17  1  0
 19 23  1  0
 19 18  1  0
 20 19  2  0
 21 24  2  0
 21 22  1  0
M  END
$$$$
