NCE.pdb
     RDKit          3D

 24 23  0  0  1  0  0  0  0  0999 V2000
   25.4456  -21.4554   -8.2812 N   0  0  0  0  0  0  0  0  0  0  0  0
   25.7549  -20.0860   -8.4553 C   0  0  0  0  0  0  0  0  0  0  0  0
   25.9409  -19.3948   -7.4052 O   0  0  0  0  0  0  0  0  0  0  0  0
   25.8667  -19.4466   -9.7893 C   0  0  0  0  0  0  0  0  0  0  0  0
   25.5640  -20.4864  -10.8402 C   0  0  2  0  0  0  0  0  0  0  0  0
   26.3709  -21.6707  -10.5223 N   0  0  0  0  0  0  0  0  0  0  0  0
   25.8754  -20.0277  -12.2037 C   0  0  0  0  0  0  0  0  0  0  0  0
   25.3668  -19.0129  -12.7541 O   0  0  0  0  0  0  0  0  0  0  0  0
   26.8098  -20.7563  -12.9804 N   0  0  0  0  0  0  0  0  0  0  0  0
   27.2165  -20.3771  -14.3079 C   0  0  1  0  0  0  0  0  0  0  0  0
   28.6954  -20.7387  -14.4933 C   0  0  0  0  0  0  0  0  0  0  0  0
   29.6137  -19.7838  -13.2463 S   0  0  0  0  0  0  0  0  0  0  0  0
   26.4850  -21.0304  -15.3839 C   0  0  0  0  0  0  0  0  0  0  0  0
   26.4508  -22.2757  -15.4560 O   0  0  0  0  0  0  0  0  0  0  0  0
   25.8095  -20.2592  -16.3497 N   0  0  0  0  0  0  0  0  0  0  0  0
   24.8474  -20.8392  -17.3076 C   0  0  1  0  0  0  0  0  0  0  0  0
   23.4856  -20.4162  -16.8472 C   0  0  0  0  0  0  0  0  0  0  0  0
   22.9222  -21.1611  -15.6918 C   0  0  0  0  0  0  0  0  0  0  0  0
   21.5398  -20.7791  -15.3320 C   0  0  0  0  0  0  0  0  0  0  0  0
   20.8766  -19.9868  -16.0721 O   0  0  0  0  0  0  0  0  0  0  0  0
   25.0942  -20.2697  -18.6523 C   0  0  0  0  0  0  0  0  0  0  0  0
   24.6811  -20.8575  -19.8253 O   0  0  0  0  0  0  0  0  0  0  0  0
   20.9715  -21.3111  -14.1554 O   0  0  0  0  0  0  0  0  0  0  0  0
   25.7213  -19.1766  -18.7512 O   0  0  0  0  0  0  0  0  0  0  0  0
  2  1  1  0
  3  2  2  0
  4  2  1  0
  4  5  1  0
  5  6  1  1
  7  5  1  0
  7  8  2  0
  9  7  1  0
 10  9  1  0
 10 13  1  0
 10 11  1  6
 12 11  1  0
 13 15  1  0
 14 13  2  0
 15 16  1  0
 16 21  1  0
 16 17  1  1
 18 17  1  0
 19 23  1  0
 19 18  1  0
 20 19  2  0
 21 24  2  0
 21 22  1  0
M  END
$$$$
