NCE.pdb
     RDKit          3D

 24 23  0  0  1  0  0  0  0  0999 V2000
   17.9652  -12.3395  -19.1637 N   0  0  0  0  0  0  0  0  0  0  0  0
   16.9668  -12.2742  -18.1636 C   0  0  0  0  0  0  0  0  0  0  0  0
   15.7866  -12.6050  -18.4991 O   0  0  0  0  0  0  0  0  0  0  0  0
   17.2452  -11.8436  -16.7715 C   0  0  0  0  0  0  0  0  0  0  0  0
   18.7118  -11.5049  -16.6644 C   0  0  2  0  0  0  0  0  0  0  0  0
   19.4077  -12.7250  -16.2379 N   0  0  0  0  0  0  0  0  0  0  0  0
   18.9791  -10.4221  -15.7040 C   0  0  0  0  0  0  0  0  0  0  0  0
   18.3433  -10.2414  -14.6295 O   0  0  0  0  0  0  0  0  0  0  0  0
   20.0191   -9.4992  -15.9763 N   0  0  0  0  0  0  0  0  0  0  0  0
   20.4440   -8.4769  -15.0566 C   0  0  1  0  0  0  0  0  0  0  0  0
   21.0247   -9.1485  -13.8060 C   0  0  0  0  0  0  0  0  0  0  0  0
   22.4918  -10.0720  -14.3581 S   0  0  0  0  0  0  0  0  0  0  0  0
   21.4703   -7.5796  -15.5679 C   0  0  0  0  0  0  0  0  0  0  0  0
   22.0433   -7.8294  -16.6478 O   0  0  0  0  0  0  0  0  0  0  0  0
   21.8211   -6.4223  -14.8460 N   0  0  0  0  0  0  0  0  0  0  0  0
   22.4592   -5.2489  -15.4751 C   0  0  1  0  0  0  0  0  0  0  0  0
   21.5395   -4.8048  -16.5715 C   0  0  0  0  0  0  0  0  0  0  0  0
   21.9153   -3.5525  -17.2771 C   0  0  0  0  0  0  0  0  0  0  0  0
   21.0048   -3.1734  -18.3787 C   0  0  0  0  0  0  0  0  0  0  0  0
   20.4811   -2.0158  -18.4128 O   0  0  0  0  0  0  0  0  0  0  0  0
   22.5712   -4.1606  -14.4768 C   0  0  0  0  0  0  0  0  0  0  0  0
   21.7467   -4.0306  -13.3834 O   0  0  0  0  0  0  0  0  0  0  0  0
   20.7306   -4.1179  -19.3902 O   0  0  0  0  0  0  0  0  0  0  0  0
   23.4732   -3.2866  -14.6189 O   0  0  0  0  0  0  0  0  0  0  0  0
  2  1  1  0
  3  2  2  0
  4  2  1  0
  4  5  1  0
  5  6  1  1
  7  5  1  0
  7  8  2  0
  9  7  1  0
 10  9  1  0
 10 13  1  0
 10 11  1  1
 12 11  1  0
 13 15  1  0
 14 13  2  0
 15 16  1  0
 16 21  1  0
 16 17  1  6
 18 17  1  0
 19 23  1  0
 19 18  1  0
 20 19  2  0
 21 24  2  0
 21 22  1  0
M  END
$$$$
