HNR.pdb
     RDKit          3D

 30 30  0  0  1  0  0  0  0  0999 V2000
    7.7412  -18.6073   16.8677 N   0  0  0  0  0  0  0  0  0  0  0  0
    8.7539  -17.6259   17.1434 C   0  0  1  0  0  0  0  0  0  0  0  0
    8.4444  -16.9464   18.4566 C   0  0  0  0  0  0  0  0  0  0  0  0
    8.3321  -15.4739   18.3048 C   0  0  0  0  0  0  0  0  0  0  0  0
    8.5009  -14.7861   17.1384 C   0  0  0  0  0  0  0  0  0  0  0  0
    8.3204  -13.4888   17.4049 N   0  0  0  0  0  0  0  0  0  0  0  0
    8.0449  -13.3884   18.7178 C   0  0  0  0  0  0  0  0  0  0  0  0
    8.0446  -14.5980   19.3032 N   0  0  0  0  0  0  0  0  0  0  0  0
   10.1003  -18.2597   17.2766 C   0  0  0  0  0  0  0  0  0  0  0  0
   10.1735  -19.4771   17.5025 O   0  0  0  0  0  0  0  0  0  0  0  0
   12.7530  -16.6766   14.1204 N   0  0  0  0  0  0  0  0  0  0  0  0
   13.2645  -17.6424   15.0256 C   0  0  0  0  0  0  0  0  0  0  0  0
   13.4811  -18.8079   14.6618 O   0  0  0  0  0  0  0  0  0  0  0  0
   13.5404  -17.2323   16.4319 C   0  0  0  0  0  0  0  0  0  0  0  0
   12.6136  -18.0454   17.3093 C   0  0  2  0  0  0  0  0  0  0  0  0
   11.2860  -17.4956   17.1497 N   0  0  0  0  0  0  0  0  0  0  0  0
   13.0470  -18.0272   18.7323 C   0  0  0  0  0  0  0  0  0  0  0  0
   13.4046  -16.9302   19.2226 O   0  0  0  0  0  0  0  0  0  0  0  0
   11.0794  -24.1716   23.3660 N   0  0  0  0  0  0  0  0  0  0  0  0
   12.2539  -23.8139   24.1036 C   0  0  0  0  0  0  0  0  0  0  0  0
   13.1324  -24.6973   24.4777 N   0  0  0  0  0  0  0  0  0  0  0  0
   12.5167  -22.4622   24.4662 N   0  0  0  0  0  0  0  0  0  0  0  0
   13.3450  -21.6455   23.6341 C   0  0  0  0  0  0  0  0  0  0  0  0
   12.7442  -20.4073   23.1214 C   0  0  0  0  0  0  0  0  0  0  0  0
   12.5804  -20.1190   21.7089 C   0  0  0  0  0  0  0  0  0  0  0  0
   13.4548  -19.1892   20.9598 C   0  0  2  0  0  0  0  0  0  0  0  0
   13.0673  -19.1809   19.5299 N   0  0  0  0  0  0  0  0  0  0  0  0
   14.8881  -19.2727   21.0671 C   0  0  0  0  0  0  0  0  0  0  0  0
   15.6263  -18.8419   21.9627 O   0  0  0  0  0  0  0  0  0  0  0  0
   15.5788  -19.9316   20.0218 O   0  0  0  0  0  0  0  0  0  0  0  0
  2  1  1  1
  2  3  1  0
  2  9  1  0
  4  5  2  0
  4  3  1  0
  6  5  1  0
  7  8  2  0
  7  6  1  0
  8  4  1  0
  9 10  2  0
 11 12  1  0
 12 13  2  0
 14 12  1  0
 15 14  1  6
 16  9  1  0
 16 15  1  0
 17 15  1  0
 17 18  2  0
 20 19  1  0
 20 22  1  0
 21 20  2  0
 22 23  1  0
 23 24  1  0
 24 25  1  0
 26 25  1  1
 26 28  1  0
 26 27  1  0
 27 17  1  0
 28 30  1  0
 29 28  2  0
M  END
$$$$
