HNR.pdb
     RDKit          3D

 30 30  0  0  1  0  0  0  0  0999 V2000
   12.1169  -17.1533   15.9493 N   0  0  0  0  0  0  0  0  0  0  0  0
   13.1862  -16.3142   15.4829 C   0  0  1  0  0  0  0  0  0  0  0  0
   12.6445  -15.3350   14.4683 C   0  0  0  0  0  0  0  0  0  0  0  0
   12.0229  -16.0253   13.3102 C   0  0  0  0  0  0  0  0  0  0  0  0
   10.6839  -16.0876   13.0550 C   0  0  0  0  0  0  0  0  0  0  0  0
   10.5195  -16.7904   11.9299 N   0  0  0  0  0  0  0  0  0  0  0  0
   11.7440  -17.1512   11.5056 C   0  0  0  0  0  0  0  0  0  0  0  0
   12.6956  -16.6939   12.3370 N   0  0  0  0  0  0  0  0  0  0  0  0
   13.7757  -15.5169   16.6005 C   0  0  0  0  0  0  0  0  0  0  0  0
   14.7163  -14.7451   16.3592 O   0  0  0  0  0  0  0  0  0  0  0  0
   10.4436  -14.5398   19.0752 N   0  0  0  0  0  0  0  0  0  0  0  0
   11.5937  -14.3793   19.8909 C   0  0  0  0  0  0  0  0  0  0  0  0
   11.5968  -14.7555   21.0726 O   0  0  0  0  0  0  0  0  0  0  0  0
   12.8084  -13.7471   19.3020 C   0  0  0  0  0  0  0  0  0  0  0  0
   13.7929  -14.8655   19.0374 C   0  0  2  0  0  0  0  0  0  0  0  0
   13.2794  -15.6289   17.9221 N   0  0  0  0  0  0  0  0  0  0  0  0
   13.9923  -15.7184   20.2399 C   0  0  0  0  0  0  0  0  0  0  0  0
   12.9947  -16.3174   20.7063 O   0  0  0  0  0  0  0  0  0  0  0  0
   16.6753  -21.3163   17.5722 N   0  0  0  0  0  0  0  0  0  0  0  0
   17.1796  -21.6664   18.8664 C   0  0  0  0  0  0  0  0  0  0  0  0
   17.4592  -22.8945   19.1915 N   0  0  0  0  0  0  0  0  0  0  0  0
   17.3994  -20.6774   19.8671 N   0  0  0  0  0  0  0  0  0  0  0  0
   16.9637  -19.3322   19.6525 C   0  0  0  0  0  0  0  0  0  0  0  0
   15.9802  -18.8000   20.6045 C   0  0  0  0  0  0  0  0  0  0  0  0
   16.3156  -17.8817   21.6766 C   0  0  0  0  0  0  0  0  0  0  0  0
   15.4761  -16.7212   22.0486 C   0  0  2  0  0  0  0  0  0  0  0  0
   15.2422  -15.8709   20.8581 N   0  0  0  0  0  0  0  0  0  0  0  0
   15.8202  -15.8886   23.1717 C   0  0  0  0  0  0  0  0  0  0  0  0
   15.8717  -16.1862   24.3723 O   0  0  0  0  0  0  0  0  0  0  0  0
   16.1502  -14.5390   22.9006 O   0  0  0  0  0  0  0  0  0  0  0  0
  2  1  1  1
  2  3  1  0
  2  9  1  0
  4  5  2  0
  4  3  1  0
  6  5  1  0
  7  8  2  0
  7  6  1  0
  8  4  1  0
  9 10  2  0
 11 12  1  0
 12 13  2  0
 14 12  1  0
 15 14  1  1
 16  9  1  0
 16 15  1  0
 17 15  1  0
 17 18  2  0
 20 19  1  0
 20 22  1  0
 21 20  2  0
 22 23  1  0
 23 24  1  0
 24 25  1  0
 26 25  1  6
 26 28  1  0
 26 27  1  0
 27 17  1  0
 28 30  1  0
 29 28  2  0
M  END
$$$$
