HNR.pdb
     RDKit          3D

 30 30  0  0  1  0  0  0  0  0999 V2000
    8.9719  -12.2166   19.8081 N   0  0  0  0  0  0  0  0  0  0  0  0
    8.1251  -13.2359   20.3638 C   0  0  1  0  0  0  0  0  0  0  0  0
    8.4068  -14.5490   19.6722 C   0  0  0  0  0  0  0  0  0  0  0  0
    8.0250  -14.5120   18.2380 C   0  0  0  0  0  0  0  0  0  0  0  0
    8.8471  -14.1468   17.2121 C   0  0  0  0  0  0  0  0  0  0  0  0
    8.1452  -14.2419   16.0785 N   0  0  0  0  0  0  0  0  0  0  0  0
    6.9105  -14.6602   16.4109 C   0  0  0  0  0  0  0  0  0  0  0  0
    6.8034  -14.8364   17.7388 N   0  0  0  0  0  0  0  0  0  0  0  0
    8.3976  -13.4321   21.8197 C   0  0  0  0  0  0  0  0  0  0  0  0
    9.5735  -13.4729   22.2124 O   0  0  0  0  0  0  0  0  0  0  0  0
    6.7554  -12.2478   27.1078 N   0  0  0  0  0  0  0  0  0  0  0  0
    6.4223  -13.3651   26.2988 C   0  0  0  0  0  0  0  0  0  0  0  0
    6.2701  -14.4912   26.7955 O   0  0  0  0  0  0  0  0  0  0  0  0
    6.2562  -13.1642   24.8312 C   0  0  0  0  0  0  0  0  0  0  0  0
    7.5372  -13.6411   24.1817 C   0  0  2  0  0  0  0  0  0  0  0  0
    7.3400  -13.5715   22.7511 N   0  0  0  0  0  0  0  0  0  0  0  0
    7.8963  -15.0169   24.6192 C   0  0  0  0  0  0  0  0  0  0  0  0
    7.1157  -15.9507   24.3186 O   0  0  0  0  0  0  0  0  0  0  0  0
   14.7406  -19.6281   22.4818 N   0  0  0  0  0  0  0  0  0  0  0  0
   13.9833  -20.5179   23.3103 C   0  0  0  0  0  0  0  0  0  0  0  0
   14.1884  -21.8024   23.3153 N   0  0  0  0  0  0  0  0  0  0  0  0
   12.9604  -20.0335   24.1744 N   0  0  0  0  0  0  0  0  0  0  0  0
   12.3780  -18.7476   23.9445 C   0  0  0  0  0  0  0  0  0  0  0  0
   11.3082  -18.3367   24.8629 C   0  0  0  0  0  0  0  0  0  0  0  0
   10.6235  -17.0604   24.7786 C   0  0  0  0  0  0  0  0  0  0  0  0
    9.5179  -16.6671   25.6803 C   0  0  2  0  0  0  0  0  0  0  0  0
    9.0629  -15.2974   25.3459 N   0  0  0  0  0  0  0  0  0  0  0  0
    9.6473  -16.7933   27.1087 C   0  0  0  0  0  0  0  0  0  0  0  0
    9.6794  -15.9023   27.9674 O   0  0  0  0  0  0  0  0  0  0  0  0
    9.7547  -18.1026   27.6362 O   0  0  0  0  0  0  0  0  0  0  0  0
  2  1  1  6
  2  3  1  0
  2  9  1  0
  4  5  2  0
  4  3  1  0
  6  5  1  0
  7  8  2  0
  7  6  1  0
  8  4  1  0
  9 10  2  0
 11 12  1  0
 12 13  2  0
 14 12  1  0
 15 14  1  1
 16  9  1  0
 16 15  1  0
 17 15  1  0
 17 18  2  0
 20 19  1  0
 20 22  1  0
 21 20  2  0
 22 23  1  0
 23 24  1  0
 24 25  1  0
 26 25  1  6
 26 28  1  0
 26 27  1  0
 27 17  1  0
 28 30  1  0
 29 28  2  0
M  END
$$$$
