HNR.pdb
     RDKit          3D

 30 30  0  0  1  0  0  0  0  0999 V2000
    7.3564  -16.8056   17.8584 N   0  0  0  0  0  0  0  0  0  0  0  0
    8.7921  -16.7639   17.8153 C   0  0  1  0  0  0  0  0  0  0  0  0
    9.2436  -15.3329   17.6411 C   0  0  0  0  0  0  0  0  0  0  0  0
    8.7534  -14.7493   16.3671 C   0  0  0  0  0  0  0  0  0  0  0  0
    8.0606  -13.5796   16.2505 C   0  0  0  0  0  0  0  0  0  0  0  0
    7.7987  -13.3929   14.9531 N   0  0  0  0  0  0  0  0  0  0  0  0
    8.3261  -14.4366   14.2882 C   0  0  0  0  0  0  0  0  0  0  0  0
    8.9235  -15.2935   15.1336 N   0  0  0  0  0  0  0  0  0  0  0  0
    9.3871  -17.2664   19.0903 C   0  0  0  0  0  0  0  0  0  0  0  0
    9.1810  -16.6384   20.1400 O   0  0  0  0  0  0  0  0  0  0  0  0
    9.3168  -21.8616   19.0475 N   0  0  0  0  0  0  0  0  0  0  0  0
    9.6961  -21.0284   20.1318 C   0  0  0  0  0  0  0  0  0  0  0  0
    8.9188  -20.8112   21.0734 O   0  0  0  0  0  0  0  0  0  0  0  0
   11.0537  -20.4130   20.1230 C   0  0  0  0  0  0  0  0  0  0  0  0
   10.8545  -18.9234   20.3004 C   0  0  2  0  0  0  0  0  0  0  0  0
   10.1776  -18.4411   19.1174 N   0  0  0  0  0  0  0  0  0  0  0  0
   12.1460  -18.2181   20.5189 C   0  0  0  0  0  0  0  0  0  0  0  0
   13.0362  -18.3401   19.6447 O   0  0  0  0  0  0  0  0  0  0  0  0
   16.3953  -14.5262   17.3134 N   0  0  0  0  0  0  0  0  0  0  0  0
   16.3519  -13.3673   18.1540 C   0  0  0  0  0  0  0  0  0  0  0  0
   17.0559  -12.3027   17.9026 N   0  0  0  0  0  0  0  0  0  0  0  0
   15.5292  -13.3264   19.3156 N   0  0  0  0  0  0  0  0  0  0  0  0
   15.4243  -14.4761   20.1598 C   0  0  0  0  0  0  0  0  0  0  0  0
   14.5563  -14.3497   21.3377 C   0  0  0  0  0  0  0  0  0  0  0  0
   13.4683  -15.2624   21.6352 C   0  0  0  0  0  0  0  0  0  0  0  0
   13.6632  -16.7064   21.8942 C   0  0  2  0  0  0  0  0  0  0  0  0
   12.3946  -17.4331   21.6545 N   0  0  0  0  0  0  0  0  0  0  0  0
   14.2523  -17.1646   23.1254 C   0  0  0  0  0  0  0  0  0  0  0  0
   13.6966  -17.4422   24.1962 O   0  0  0  0  0  0  0  0  0  0  0  0
   15.6579  -17.3309   23.1485 O   0  0  0  0  0  0  0  0  0  0  0  0
  2  1  1  1
  2  3  1  0
  2  9  1  0
  4  5  2  0
  4  3  1  0
  6  5  1  0
  7  8  2  0
  7  6  1  0
  8  4  1  0
  9 10  2  0
 11 12  1  0
 12 13  2  0
 14 12  1  0
 15 14  1  6
 16  9  1  0
 16 15  1  0
 17 15  1  0
 17 18  2  0
 20 19  1  0
 20 22  1  0
 21 20  2  0
 22 23  1  0
 23 24  1  0
 24 25  1  0
 26 25  1  1
 26 28  1  0
 26 27  1  0
 27 17  1  0
 28 30  1  0
 29 28  2  0
M  END
$$$$
