HNR.pdb
     RDKit          3D

 30 30  0  0  1  0  0  0  0  0999 V2000
    4.8149  -19.8048   19.8533 N   0  0  0  0  0  0  0  0  0  0  0  0
    6.0023  -19.1996   20.3907 C   0  0  1  0  0  0  0  0  0  0  0  0
    6.3134  -17.9403   19.6165 C   0  0  0  0  0  0  0  0  0  0  0  0
    6.7027  -18.2347   18.2144 C   0  0  0  0  0  0  0  0  0  0  0  0
    6.8074  -19.4816   17.6702 C   0  0  0  0  0  0  0  0  0  0  0  0
    7.1780  -19.3355   16.3943 N   0  0  0  0  0  0  0  0  0  0  0  0
    7.2972  -18.0153   16.1649 C   0  0  0  0  0  0  0  0  0  0  0  0
    7.0103  -17.3070   17.2702 N   0  0  0  0  0  0  0  0  0  0  0  0
    5.8112  -18.8078   21.8197 C   0  0  0  0  0  0  0  0  0  0  0  0
    5.1103  -17.8195   22.0850 O   0  0  0  0  0  0  0  0  0  0  0  0
    7.5735  -21.4297   23.8388 N   0  0  0  0  0  0  0  0  0  0  0  0
    6.6689  -21.3041   24.9250 C   0  0  0  0  0  0  0  0  0  0  0  0
    6.4103  -22.2714   25.6566 O   0  0  0  0  0  0  0  0  0  0  0  0
    6.0288  -19.9816   25.1763 C   0  0  0  0  0  0  0  0  0  0  0  0
    6.6433  -19.0097   24.1925 C   0  0  2  0  0  0  0  0  0  0  0  0
    6.4149  -19.5436   22.8685 N   0  0  0  0  0  0  0  0  0  0  0  0
    8.0924  -18.8020   24.4573 C   0  0  0  0  0  0  0  0  0  0  0  0
    8.9039  -19.6090   23.9456 O   0  0  0  0  0  0  0  0  0  0  0  0
   13.7277  -14.1025   20.9012 N   0  0  0  0  0  0  0  0  0  0  0  0
   13.3690  -15.4880   20.8437 C   0  0  0  0  0  0  0  0  0  0  0  0
   13.5380  -16.2030   19.7703 N   0  0  0  0  0  0  0  0  0  0  0  0
   12.8045  -16.1533   21.9690 N   0  0  0  0  0  0  0  0  0  0  0  0
   12.4148  -15.4037   23.1230 C   0  0  0  0  0  0  0  0  0  0  0  0
   11.8944  -16.1723   24.2612 C   0  0  0  0  0  0  0  0  0  0  0  0
   10.5022  -16.5561   24.4018 C   0  0  0  0  0  0  0  0  0  0  0  0
   10.0096  -17.4630   25.4624 C   0  0  2  0  0  0  0  0  0  0  0  0
    8.5715  -17.7477   25.2489 N   0  0  0  0  0  0  0  0  0  0  0  0
   10.2382  -17.1685   26.8530 C   0  0  0  0  0  0  0  0  0  0  0  0
    9.4114  -16.9240   27.7413 O   0  0  0  0  0  0  0  0  0  0  0  0
   11.5817  -17.1478   27.2985 O   0  0  0  0  0  0  0  0  0  0  0  0
  2  1  1  6
  2  3  1  0
  2  9  1  0
  4  5  2  0
  4  3  1  0
  6  5  1  0
  7  8  2  0
  7  6  1  0
  8  4  1  0
  9 10  2  0
 11 12  1  0
 12 13  2  0
 14 12  1  0
 15 14  1  1
 16  9  1  0
 16 15  1  0
 17 15  1  0
 17 18  2  0
 20 19  1  0
 20 22  1  0
 21 20  2  0
 22 23  1  0
 23 24  1  0
 24 25  1  0
 26 25  1  6
 26 28  1  0
 26 27  1  0
 27 17  1  0
 28 30  1  0
 29 28  2  0
M  END
$$$$
