HNR.pdb
     RDKit          3D

 30 30  0  0  1  0  0  0  0  0999 V2000
   10.3430  -13.5922   17.8471 N   0  0  0  0  0  0  0  0  0  0  0  0
   10.0032  -14.9695   18.0764 C   0  0  1  0  0  0  0  0  0  0  0  0
    9.8644  -15.6759   16.7484 C   0  0  0  0  0  0  0  0  0  0  0  0
    8.8947  -14.9916   15.8564 C   0  0  0  0  0  0  0  0  0  0  0  0
    8.3469  -13.7625   16.0822 C   0  0  0  0  0  0  0  0  0  0  0  0
    7.5277  -13.4918   15.0612 N   0  0  0  0  0  0  0  0  0  0  0  0
    7.5766  -14.5438   14.2241 C   0  0  0  0  0  0  0  0  0  0  0  0
    8.4128  -15.4885   14.6870 N   0  0  0  0  0  0  0  0  0  0  0  0
   11.0758  -15.6714   18.8440 C   0  0  0  0  0  0  0  0  0  0  0  0
   10.9616  -16.8865   19.0653 O   0  0  0  0  0  0  0  0  0  0  0  0
   15.2056  -13.8097   17.8484 N   0  0  0  0  0  0  0  0  0  0  0  0
   14.9474  -14.9471   18.6568 C   0  0  0  0  0  0  0  0  0  0  0  0
   15.1167  -16.0947   18.2185 O   0  0  0  0  0  0  0  0  0  0  0  0
   14.4659  -14.7409   20.0524 C   0  0  0  0  0  0  0  0  0  0  0  0
   13.2008  -15.5583   20.1986 C   0  0  2  0  0  0  0  0  0  0  0  0
   12.2131  -14.9740   19.3192 N   0  0  0  0  0  0  0  0  0  0  0  0
   12.7278  -15.5918   21.6087 C   0  0  0  0  0  0  0  0  0  0  0  0
   12.8514  -14.5494   22.2939 O   0  0  0  0  0  0  0  0  0  0  0  0
    6.9527  -13.3656   23.0924 N   0  0  0  0  0  0  0  0  0  0  0  0
    7.0471  -13.4472   24.5193 C   0  0  0  0  0  0  0  0  0  0  0  0
    6.8824  -12.4084   25.2847 N   0  0  0  0  0  0  0  0  0  0  0  0
    7.3295  -14.6806   25.1727 N   0  0  0  0  0  0  0  0  0  0  0  0
    7.8111  -15.7966   24.4189 C   0  0  0  0  0  0  0  0  0  0  0  0
    9.2435  -16.0992   24.5347 C   0  0  0  0  0  0  0  0  0  0  0  0
   10.0834  -16.4532   23.4058 C   0  0  0  0  0  0  0  0  0  0  0  0
   11.5268  -16.7566   23.5270 C   0  0  2  0  0  0  0  0  0  0  0  0
   12.1565  -16.7355   22.1861 N   0  0  0  0  0  0  0  0  0  0  0  0
   11.9814  -17.9148   24.2514 C   0  0  0  0  0  0  0  0  0  0  0  0
   12.4925  -18.9537   23.8133 O   0  0  0  0  0  0  0  0  0  0  0  0
   11.8389  -17.8952   25.6597 O   0  0  0  0  0  0  0  0  0  0  0  0
  2  1  1  6
  2  3  1  0
  2  9  1  0
  4  5  2  0
  4  3  1  0
  6  5  1  0
  7  8  2  0
  7  6  1  0
  8  4  1  0
  9 10  2  0
 11 12  1  0
 12 13  2  0
 14 12  1  0
 15 14  1  1
 16  9  1  0
 16 15  1  0
 17 15  1  0
 17 18  2  0
 20 19  1  0
 20 22  1  0
 21 20  2  0
 22 23  1  0
 23 24  1  0
 24 25  1  0
 26 25  1  6
 26 28  1  0
 26 27  1  0
 27 17  1  0
 28 30  1  0
 29 28  2  0
M  END
$$$$
