NCR.pdb
     RDKit          3D

 26 25  0  0  1  0  0  0  0  0999 V2000
   15.9716  -12.9319  -12.0162 N   0  0  0  0  0  0  0  0  0  0  0  0
   16.3270  -11.7065  -12.6180 C   0  0  0  0  0  0  0  0  0  0  0  0
   17.1486  -11.7873  -13.5885 O   0  0  0  0  0  0  0  0  0  0  0  0
   15.8589  -10.3686  -12.2553 C   0  0  0  0  0  0  0  0  0  0  0  0
   14.9807  -10.3390  -11.0344 C   0  0  2  0  0  0  0  0  0  0  0  0
   13.7185  -11.0176  -11.3385 N   0  0  0  0  0  0  0  0  0  0  0  0
   14.7004   -8.9125  -10.6939 C   0  0  0  0  0  0  0  0  0  0  0  0
   13.9989   -8.1307  -11.3661 O   0  0  0  0  0  0  0  0  0  0  0  0
   15.2572   -8.3206   -9.4978 N   0  0  0  0  0  0  0  0  0  0  0  0
   14.9568   -6.9822   -9.0747 C   0  0  1  0  0  0  0  0  0  0  0  0
   14.4554   -6.8884   -7.6652 C   0  0  0  0  0  0  0  0  0  0  0  0
   13.0696   -7.9851   -7.3217 S   0  0  0  0  0  0  0  0  0  0  0  0
   16.1013   -6.0489   -9.3290 C   0  0  0  0  0  0  0  0  0  0  0  0
   17.2696   -6.3615   -8.9545 O   0  0  0  0  0  0  0  0  0  0  0  0
   21.2525   -8.8305  -12.4049 N   0  0  0  0  0  0  0  0  0  0  0  0
   20.6666   -7.7808  -13.1772 C   0  0  0  0  0  0  0  0  0  0  0  0
   20.7250   -7.8004  -14.4598 N   0  0  0  0  0  0  0  0  0  0  0  0
   20.0159   -6.7075  -12.5351 N   0  0  0  0  0  0  0  0  0  0  0  0
   19.4968   -5.5359  -13.2984 C   0  0  0  0  0  0  0  0  0  0  0  0
   18.8375   -4.6282  -12.3371 C   0  0  0  0  0  0  0  0  0  0  0  0
   17.7629   -5.0157  -11.4590 C   0  0  0  0  0  0  0  0  0  0  0  0
   17.1083   -4.0921  -10.5118 C   0  0  2  0  0  0  0  0  0  0  0  0
   15.9003   -4.8207   -9.9828 N   0  0  0  0  0  0  0  0  0  0  0  0
   16.6165   -2.7941  -11.0031 C   0  0  0  0  0  0  0  0  0  0  0  0
   15.4353   -2.7421  -11.5426 O   0  0  0  0  0  0  0  0  0  0  0  0
   17.2412   -1.5740  -10.9693 O   0  0  0  0  0  0  0  0  0  0  0  0
  2  1  1  0
  3  2  2  0
  4  2  1  0
  5  4  1  0
  5  6  1  6
  7  9  1  0
  7  5  1  0
  8  7  2  0
 10 13  1  0
 10  9  1  0
 10 11  1  1
 12 11  1  0
 13 14  2  0
 16 17  2  0
 16 15  1  0
 18 16  1  0
 19 18  1  0
 20 19  1  0
 21 20  1  0
 22 21  1  6
 23 22  1  0
 23 13  1  0
 24 22  1  0
 24 26  1  0
 25 24  2  0
M  END
$$$$
