NCR.pdb
     RDKit          3D

 26 25  0  0  1  0  0  0  0  0999 V2000
   28.3257  -27.1102  -16.7554 N   0  0  0  0  0  0  0  0  0  0  0  0
   27.4579  -26.0800  -17.1747 C   0  0  0  0  0  0  0  0  0  0  0  0
   27.4276  -25.8622  -18.4297 O   0  0  0  0  0  0  0  0  0  0  0  0
   26.5970  -25.2456  -16.3361 C   0  0  0  0  0  0  0  0  0  0  0  0
   26.7779  -23.7684  -16.5547 C   0  0  2  0  0  0  0  0  0  0  0  0
   28.1621  -23.4059  -16.2404 N   0  0  0  0  0  0  0  0  0  0  0  0
   25.8589  -23.0422  -15.6287 C   0  0  0  0  0  0  0  0  0  0  0  0
   25.8487  -23.1480  -14.3862 O   0  0  0  0  0  0  0  0  0  0  0  0
   24.8712  -22.1222  -16.1475 N   0  0  0  0  0  0  0  0  0  0  0  0
   23.9777  -21.3777  -15.3061 C   0  0  1  0  0  0  0  0  0  0  0  0
   23.8641  -19.9284  -15.6721 C   0  0  0  0  0  0  0  0  0  0  0  0
   22.6252  -19.0409  -14.7137 S   0  0  0  0  0  0  0  0  0  0  0  0
   22.6371  -22.0381  -15.1972 C   0  0  0  0  0  0  0  0  0  0  0  0
   22.0211  -22.3990  -16.2429 O   0  0  0  0  0  0  0  0  0  0  0  0
   19.6373  -28.5222  -13.1641 N   0  0  0  0  0  0  0  0  0  0  0  0
   20.9261  -28.0640  -12.7512 C   0  0  0  0  0  0  0  0  0  0  0  0
   21.9818  -28.7397  -13.0304 N   0  0  0  0  0  0  0  0  0  0  0  0
   21.0518  -26.8598  -12.0289 N   0  0  0  0  0  0  0  0  0  0  0  0
   19.8597  -26.0566  -11.6306 C   0  0  0  0  0  0  0  0  0  0  0  0
   19.7402  -24.9282  -12.5768 C   0  0  0  0  0  0  0  0  0  0  0  0
   20.8069  -24.0106  -12.8864 C   0  0  0  0  0  0  0  0  0  0  0  0
   20.7013  -22.9491  -13.9067 C   0  0  2  0  0  0  0  0  0  0  0  0
   22.0446  -22.2676  -13.9432 N   0  0  0  0  0  0  0  0  0  0  0  0
   19.7075  -21.8781  -13.7239 C   0  0  0  0  0  0  0  0  0  0  0  0
   20.0690  -20.7960  -13.1015 O   0  0  0  0  0  0  0  0  0  0  0  0
   18.4004  -21.8443  -14.1367 O   0  0  0  0  0  0  0  0  0  0  0  0
  2  1  1  0
  3  2  2  0
  4  2  1  0
  5  4  1  0
  5  6  1  1
  7  9  1  0
  7  5  1  0
  8  7  2  0
 10 13  1  0
 10  9  1  0
 10 11  1  6
 12 11  1  0
 13 14  2  0
 16 17  2  0
 16 15  1  0
 18 16  1  0
 19 18  1  0
 20 19  1  0
 21 20  1  0
 22 21  1  1
 23 22  1  0
 23 13  1  0
 24 22  1  0
 24 26  1  0
 25 24  2  0
M  END
$$$$
