NCR.pdb
     RDKit          3D

 26 25  0  0  1  0  0  0  0  0999 V2000
   28.0337  -14.8796  -22.8824 N   0  0  0  0  0  0  0  0  0  0  0  0
   27.4493  -15.0924  -21.6162 C   0  0  0  0  0  0  0  0  0  0  0  0
   26.4768  -15.9152  -21.5897 O   0  0  0  0  0  0  0  0  0  0  0  0
   27.8349  -14.4806  -20.3443 C   0  0  0  0  0  0  0  0  0  0  0  0
   29.0363  -13.5805  -20.4391 C   0  0  2  0  0  0  0  0  0  0  0  0
   30.2504  -14.3922  -20.3234 N   0  0  0  0  0  0  0  0  0  0  0  0
   28.9853  -12.6108  -19.3048 C   0  0  0  0  0  0  0  0  0  0  0  0
   28.7165  -12.8936  -18.1203 O   0  0  0  0  0  0  0  0  0  0  0  0
   29.2597  -11.2083  -19.5256 N   0  0  0  0  0  0  0  0  0  0  0  0
   29.1922  -10.2245  -18.4824 C   0  0  1  0  0  0  0  0  0  0  0  0
   30.4960   -9.5368  -18.2102 C   0  0  0  0  0  0  0  0  0  0  0  0
   30.3551   -8.1611  -17.0576 S   0  0  0  0  0  0  0  0  0  0  0  0
   28.0774   -9.2493  -18.7096 C   0  0  0  0  0  0  0  0  0  0  0  0
   27.9329   -8.7042  -19.8432 O   0  0  0  0  0  0  0  0  0  0  0  0
   20.2993   -7.4544  -14.3424 N   0  0  0  0  0  0  0  0  0  0  0  0
   20.3666   -6.7828  -15.6017 C   0  0  0  0  0  0  0  0  0  0  0  0
   19.3420   -6.1676  -16.0715 N   0  0  0  0  0  0  0  0  0  0  0  0
   21.5647   -6.7895  -16.3447 N   0  0  0  0  0  0  0  0  0  0  0  0
   22.7089   -7.6738  -15.9791 C   0  0  0  0  0  0  0  0  0  0  0  0
   23.8080   -7.4043  -16.9290 C   0  0  0  0  0  0  0  0  0  0  0  0
   25.0666   -8.1053  -16.9357 C   0  0  0  0  0  0  0  0  0  0  0  0
   26.1076   -7.9058  -17.9632 C   0  0  2  0  0  0  0  0  0  0  0  0
   27.1794   -8.9255  -17.6776 N   0  0  0  0  0  0  0  0  0  0  0  0
   26.7945   -6.6059  -18.0419 C   0  0  0  0  0  0  0  0  0  0  0  0
   26.3038   -5.6911  -18.8239 O   0  0  0  0  0  0  0  0  0  0  0  0
   27.9211   -6.1919  -17.3789 O   0  0  0  0  0  0  0  0  0  0  0  0
  2  1  1  0
  3  2  2  0
  4  2  1  0
  5  4  1  0
  5  6  1  1
  7  9  1  0
  7  5  1  0
  8  7  2  0
 10 13  1  0
 10  9  1  0
 10 11  1  6
 12 11  1  0
 13 14  2  0
 16 17  2  0
 16 15  1  0
 18 16  1  0
 19 18  1  0
 20 19  1  0
 21 20  1  0
 22 21  1  1
 23 22  1  0
 23 13  1  0
 24 22  1  0
 24 26  1  0
 25 24  2  0
M  END
$$$$
