NCR.pdb
     RDKit          3D

 26 25  0  0  1  0  0  0  0  0999 V2000
   22.9563  -16.0643  -19.1031 N   0  0  0  0  0  0  0  0  0  0  0  0
   23.8125  -15.8120  -18.0106 C   0  0  0  0  0  0  0  0  0  0  0  0
   24.3678  -16.8376  -17.4977 O   0  0  0  0  0  0  0  0  0  0  0  0
   24.1308  -14.5161  -17.4107 C   0  0  0  0  0  0  0  0  0  0  0  0
   23.4805  -13.3478  -18.0999 C   0  0  2  0  0  0  0  0  0  0  0  0
   24.0428  -13.2152  -19.4462 N   0  0  0  0  0  0  0  0  0  0  0  0
   23.7862  -12.1134  -17.3174 C   0  0  0  0  0  0  0  0  0  0  0  0
   23.4240  -11.8892  -16.1454 O   0  0  0  0  0  0  0  0  0  0  0  0
   24.5637  -11.0455  -17.9058 N   0  0  0  0  0  0  0  0  0  0  0  0
   24.7739   -9.7822  -17.2575 C   0  0  1  0  0  0  0  0  0  0  0  0
   26.0709   -9.1225  -17.6176 C   0  0  0  0  0  0  0  0  0  0  0  0
   26.2180   -7.4401  -16.9941 S   0  0  0  0  0  0  0  0  0  0  0  0
   23.6046   -8.8629  -17.4391 C   0  0  0  0  0  0  0  0  0  0  0  0
   23.1566   -8.6286  -18.5999 O   0  0  0  0  0  0  0  0  0  0  0  0
   15.3744   -9.6997  -15.7001 N   0  0  0  0  0  0  0  0  0  0  0  0
   15.5876   -8.6667  -16.6639 C   0  0  0  0  0  0  0  0  0  0  0  0
   14.6036   -8.1783  -17.3289 N   0  0  0  0  0  0  0  0  0  0  0  0
   16.8871   -8.1716  -16.8958 N   0  0  0  0  0  0  0  0  0  0  0  0
   18.0784   -8.7416  -16.2024 C   0  0  0  0  0  0  0  0  0  0  0  0
   19.2522   -7.9284  -16.5817 C   0  0  0  0  0  0  0  0  0  0  0  0
   20.6080   -8.2305  -16.1995 C   0  0  0  0  0  0  0  0  0  0  0  0
   21.7685   -7.4018  -16.5809 C   0  0  2  0  0  0  0  0  0  0  0  0
   22.9889   -8.2502  -16.3338 N   0  0  0  0  0  0  0  0  0  0  0  0
   22.0053   -6.1335  -15.8715 C   0  0  0  0  0  0  0  0  0  0  0  0
   22.9201   -6.1001  -14.9490 O   0  0  0  0  0  0  0  0  0  0  0  0
   21.3839   -4.9243  -16.0500 O   0  0  0  0  0  0  0  0  0  0  0  0
  2  1  1  0
  3  2  2  0
  4  2  1  0
  5  4  1  0
  5  6  1  6
  7  9  1  0
  7  5  1  0
  8  7  2  0
 10 13  1  0
 10  9  1  0
 10 11  1  6
 12 11  1  0
 13 14  2  0
 16 17  2  0
 16 15  1  0
 18 16  1  0
 19 18  1  0
 20 19  1  0
 21 20  1  0
 22 21  1  1
 23 22  1  0
 23 13  1  0
 24 22  1  0
 24 26  1  0
 25 24  2  0
M  END
$$$$
