NCR.pdb
     RDKit          3D

 26 25  0  0  1  0  0  0  0  0999 V2000
   24.0803  -14.1537  -21.3595 N   0  0  0  0  0  0  0  0  0  0  0  0
   23.8164  -14.5081  -20.0198 C   0  0  0  0  0  0  0  0  0  0  0  0
   23.5839  -15.7435  -19.8124 O   0  0  0  0  0  0  0  0  0  0  0  0
   23.7831  -13.6227  -18.8555 C   0  0  0  0  0  0  0  0  0  0  0  0
   24.0068  -12.1721  -19.1847 C   0  0  2  0  0  0  0  0  0  0  0  0
   25.3540  -12.0110  -19.7372 N   0  0  0  0  0  0  0  0  0  0  0  0
   23.8975  -11.3833  -17.9217 C   0  0  0  0  0  0  0  0  0  0  0  0
   22.9016  -11.3486  -17.1721 O   0  0  0  0  0  0  0  0  0  0  0  0
   25.0020  -10.5673  -17.4684 N   0  0  0  0  0  0  0  0  0  0  0  0
   24.9342   -9.7400  -16.2974 C   0  0  1  0  0  0  0  0  0  0  0  0
   26.2576   -9.5262  -15.6266 C   0  0  0  0  0  0  0  0  0  0  0  0
   27.0612  -11.0556  -15.1205 S   0  0  0  0  0  0  0  0  0  0  0  0
   24.2254   -8.4482  -16.5699 C   0  0  0  0  0  0  0  0  0  0  0  0
   24.5552   -7.7421  -17.5678 O   0  0  0  0  0  0  0  0  0  0  0  0
   16.0995   -7.3076  -18.1398 N   0  0  0  0  0  0  0  0  0  0  0  0
   16.9407   -7.9488  -17.1791 C   0  0  0  0  0  0  0  0  0  0  0  0
   16.5770   -9.0452  -16.6184 N   0  0  0  0  0  0  0  0  0  0  0  0
   18.1843   -7.3805  -16.8354 N   0  0  0  0  0  0  0  0  0  0  0  0
   18.9402   -6.5147  -17.7862 C   0  0  0  0  0  0  0  0  0  0  0  0
   20.2187   -6.1485  -17.1430 C   0  0  0  0  0  0  0  0  0  0  0  0
   21.2061   -7.0986  -16.6977 C   0  0  0  0  0  0  0  0  0  0  0  0
   22.4933   -6.7136  -16.0864 C   0  0  2  0  0  0  0  0  0  0  0  0
   23.1901   -8.0011  -15.7304 N   0  0  0  0  0  0  0  0  0  0  0  0
   22.4871   -5.9022  -14.8578 C   0  0  0  0  0  0  0  0  0  0  0  0
   22.5323   -6.5122  -13.7111 O   0  0  0  0  0  0  0  0  0  0  0  0
   22.4468   -4.5372  -14.7340 O   0  0  0  0  0  0  0  0  0  0  0  0
  2  1  1  0
  3  2  2  0
  4  2  1  0
  5  4  1  0
  5  6  1  1
  7  9  1  0
  7  5  1  0
  8  7  2  0
 10 13  1  0
 10  9  1  0
 10 11  1  6
 12 11  1  0
 13 14  2  0
 16 17  2  0
 16 15  1  0
 18 16  1  0
 19 18  1  0
 20 19  1  0
 21 20  1  0
 22 21  1  1
 23 22  1  0
 23 13  1  0
 24 22  1  0
 24 26  1  0
 25 24  2  0
M  END
$$$$
