NCR.pdb
     RDKit          3D

 26 25  0  0  1  0  0  0  0  0999 V2000
   14.6111  -12.0905  -17.3755 N   0  0  0  0  0  0  0  0  0  0  0  0
   15.6530  -12.4463  -16.4934 C   0  0  0  0  0  0  0  0  0  0  0  0
   15.8941  -13.6939  -16.4006 O   0  0  0  0  0  0  0  0  0  0  0  0
   16.4791  -11.5495  -15.6848 C   0  0  0  0  0  0  0  0  0  0  0  0
   17.9374  -11.5641  -16.0534 C   0  0  2  0  0  0  0  0  0  0  0  0
   18.5423  -12.8024  -15.5566 N   0  0  0  0  0  0  0  0  0  0  0  0
   18.5981  -10.3978  -15.3958 C   0  0  0  0  0  0  0  0  0  0  0  0
   18.6435  -10.1875  -14.1675 O   0  0  0  0  0  0  0  0  0  0  0  0
   19.2612   -9.3869  -16.1892 N   0  0  0  0  0  0  0  0  0  0  0  0
   19.9771   -8.2847  -15.6119 C   0  0  1  0  0  0  0  0  0  0  0  0
   21.4672   -8.4457  -15.6409 C   0  0  0  0  0  0  0  0  0  0  0  0
   22.3554   -7.0302  -14.9712 S   0  0  0  0  0  0  0  0  0  0  0  0
   19.5406   -6.9737  -16.1918 C   0  0  0  0  0  0  0  0  0  0  0  0
   19.5496   -6.8007  -17.4460 O   0  0  0  0  0  0  0  0  0  0  0  0
   12.6482   -3.5657  -12.9886 N   0  0  0  0  0  0  0  0  0  0  0  0
   12.7181   -4.5492  -14.0228 C   0  0  0  0  0  0  0  0  0  0  0  0
   11.6720   -5.2064  -14.3733 N   0  0  0  0  0  0  0  0  0  0  0  0
   13.9426   -4.8094  -14.6711 N   0  0  0  0  0  0  0  0  0  0  0  0
   15.1881   -4.0671  -14.3211 C   0  0  0  0  0  0  0  0  0  0  0  0
   16.2650   -4.5496  -15.2100 C   0  0  0  0  0  0  0  0  0  0  0  0
   17.6236   -4.0715  -15.1746 C   0  0  0  0  0  0  0  0  0  0  0  0
   18.7069   -4.6254  -16.0105 C   0  0  2  0  0  0  0  0  0  0  0  0
   19.1163   -5.9219  -15.3612 N   0  0  0  0  0  0  0  0  0  0  0  0
   19.9457   -3.8485  -16.1824 C   0  0  0  0  0  0  0  0  0  0  0  0
   19.8694   -2.6720  -16.7293 O   0  0  0  0  0  0  0  0  0  0  0  0
   21.2259   -4.1901  -15.8296 O   0  0  0  0  0  0  0  0  0  0  0  0
  2  1  1  0
  3  2  2  0
  4  2  1  0
  5  4  1  0
  5  6  1  1
  7  9  1  0
  7  5  1  0
  8  7  2  0
 10 13  1  0
 10  9  1  0
 10 11  1  6
 12 11  1  0
 13 14  2  0
 16 17  2  0
 16 15  1  0
 18 16  1  0
 19 18  1  0
 20 19  1  0
 21 20  1  0
 22 21  1  1
 23 22  1  0
 23 13  1  0
 24 22  1  0
 24 26  1  0
 25 24  2  0
M  END
$$$$
