NCR.pdb
     RDKit          3D

 26 25  0  0  1  0  0  0  0  0999 V2000
   27.9248  -23.7432  -16.3629 N   0  0  0  0  0  0  0  0  0  0  0  0
   26.8609  -23.6695  -17.2864 C   0  0  0  0  0  0  0  0  0  0  0  0
   27.1512  -23.1708  -18.4223 O   0  0  0  0  0  0  0  0  0  0  0  0
   25.4772  -24.1005  -17.0857 C   0  0  0  0  0  0  0  0  0  0  0  0
   25.2036  -24.6568  -15.7151 C   0  0  2  0  0  0  0  0  0  0  0  0
   25.6927  -26.0364  -15.6542 N   0  0  0  0  0  0  0  0  0  0  0  0
   23.7270  -24.6502  -15.4935 C   0  0  0  0  0  0  0  0  0  0  0  0
   22.9171  -23.8659  -16.0265 O   0  0  0  0  0  0  0  0  0  0  0  0
   23.1153  -25.6062  -14.5975 N   0  0  0  0  0  0  0  0  0  0  0  0
   21.7287  -25.5570  -14.2294 C   0  0  1  0  0  0  0  0  0  0  0  0
   21.2704  -26.7377  -13.4276 C   0  0  0  0  0  0  0  0  0  0  0  0
   22.4473  -28.1000  -13.4188 S   0  0  0  0  0  0  0  0  0  0  0  0
   21.3738  -24.2577  -13.5726 C   0  0  0  0  0  0  0  0  0  0  0  0
   22.1208  -23.7790  -12.6693 O   0  0  0  0  0  0  0  0  0  0  0  0
   22.8623  -17.1814  -16.6419 N   0  0  0  0  0  0  0  0  0  0  0  0
   23.4686  -18.1974  -15.8408 C   0  0  0  0  0  0  0  0  0  0  0  0
   24.7305  -18.4232  -15.9141 N   0  0  0  0  0  0  0  0  0  0  0  0
   22.6829  -18.9661  -14.9580 N   0  0  0  0  0  0  0  0  0  0  0  0
   21.2037  -18.7938  -14.8725 C   0  0  0  0  0  0  0  0  0  0  0  0
   20.6851  -19.8109  -13.9348 C   0  0  0  0  0  0  0  0  0  0  0  0
   20.5539  -21.2115  -14.2458 C   0  0  0  0  0  0  0  0  0  0  0  0
   19.9744  -22.2036  -13.3191 C   0  0  2  0  0  0  0  0  0  0  0  0
   20.2158  -23.5528  -13.9446 N   0  0  0  0  0  0  0  0  0  0  0  0
   18.5337  -22.1466  -13.0202 C   0  0  0  0  0  0  0  0  0  0  0  0
   17.7268  -22.8961  -13.7104 O   0  0  0  0  0  0  0  0  0  0  0  0
   17.8849  -21.3939  -12.0755 O   0  0  0  0  0  0  0  0  0  0  0  0
  2  1  1  0
  3  2  2  0
  4  2  1  0
  5  4  1  0
  5  6  1  6
  7  9  1  0
  7  5  1  0
  8  7  2  0
 10 13  1  0
 10  9  1  0
 10 11  1  1
 12 11  1  0
 13 14  2  0
 16 17  2  0
 16 15  1  0
 18 16  1  0
 19 18  1  0
 20 19  1  0
 21 20  1  0
 22 21  1  6
 23 22  1  0
 23 13  1  0
 24 22  1  0
 24 26  1  0
 25 24  2  0
M  END
$$$$
