NCR.pdb
     RDKit          3D

 26 25  0  0  1  0  0  0  0  0999 V2000
   33.4057   -7.1006  -16.2344 N   0  0  0  0  0  0  0  0  0  0  0  0
   33.2232   -8.4753  -16.4936 C   0  0  0  0  0  0  0  0  0  0  0  0
   32.1648   -8.7792  -17.1345 O   0  0  0  0  0  0  0  0  0  0  0  0
   34.1074   -9.5772  -16.1134 C   0  0  0  0  0  0  0  0  0  0  0  0
   35.2799   -9.1564  -15.2703 C   0  0  2  0  0  0  0  0  0  0  0  0
   36.1611   -8.3030  -16.0711 N   0  0  0  0  0  0  0  0  0  0  0  0
   36.0258  -10.3831  -14.8603 C   0  0  0  0  0  0  0  0  0  0  0  0
   35.5640  -11.3184  -14.1768 O   0  0  0  0  0  0  0  0  0  0  0  0
   37.4049  -10.5690  -15.2536 N   0  0  0  0  0  0  0  0  0  0  0  0
   38.1859  -11.7052  -14.8539 C   0  0  1  0  0  0  0  0  0  0  0  0
   38.3915  -12.7148  -15.9427 C   0  0  0  0  0  0  0  0  0  0  0  0
   38.8505  -11.9837  -17.5225 S   0  0  0  0  0  0  0  0  0  0  0  0
   39.4776  -11.2946  -14.2149 C   0  0  0  0  0  0  0  0  0  0  0  0
   40.0722  -10.2465  -14.6033 O   0  0  0  0  0  0  0  0  0  0  0  0
   41.1225  -11.3282   -5.8597 N   0  0  0  0  0  0  0  0  0  0  0  0
   40.9846  -10.1949   -6.7189 C   0  0  0  0  0  0  0  0  0  0  0  0
   41.3455   -9.0271   -6.3255 N   0  0  0  0  0  0  0  0  0  0  0  0
   40.4476  -10.3488   -8.0133 N   0  0  0  0  0  0  0  0  0  0  0  0
   40.6704  -11.5885   -8.8122 C   0  0  0  0  0  0  0  0  0  0  0  0
   41.2502  -11.1892  -10.1111 C   0  0  0  0  0  0  0  0  0  0  0  0
   41.4212  -12.0776  -11.2324 C   0  0  0  0  0  0  0  0  0  0  0  0
   41.3871  -11.6332  -12.6396 C   0  0  2  0  0  0  0  0  0  0  0  0
   40.0471  -12.0586  -13.1813 N   0  0  0  0  0  0  0  0  0  0  0  0
   42.3906  -12.1594  -13.5800 C   0  0  0  0  0  0  0  0  0  0  0  0
   42.2599  -13.3795  -14.0082 O   0  0  0  0  0  0  0  0  0  0  0  0
   43.4885  -11.5258  -14.1028 O   0  0  0  0  0  0  0  0  0  0  0  0
  2  1  1  0
  3  2  2  0
  4  2  1  0
  5  4  1  0
  5  6  1  6
  7  9  1  0
  7  5  1  0
  8  7  2  0
 10 13  1  0
 10  9  1  0
 10 11  1  6
 12 11  1  0
 13 14  2  0
 16 17  2  0
 16 15  1  0
 18 16  1  0
 19 18  1  0
 20 19  1  0
 21 20  1  0
 22 21  1  1
 23 22  1  0
 23 13  1  0
 24 22  1  0
 24 26  1  0
 25 24  2  0
M  END
$$$$
