NCR.pdb
     RDKit          3D

 26 25  0  0  1  0  0  0  0  0999 V2000
   29.3622  -20.9844  -16.5853 N   0  0  0  0  0  0  0  0  0  0  0  0
   28.7476  -22.2024  -16.2263 C   0  0  0  0  0  0  0  0  0  0  0  0
   29.1959  -23.2399  -16.8144 O   0  0  0  0  0  0  0  0  0  0  0  0
   27.6658  -22.4025  -15.2618 C   0  0  0  0  0  0  0  0  0  0  0  0
   27.1277  -21.1266  -14.6743 C   0  0  2  0  0  0  0  0  0  0  0  0
   28.2024  -20.4459  -13.9477 N   0  0  0  0  0  0  0  0  0  0  0  0
   26.0348  -21.4757  -13.7186 C   0  0  0  0  0  0  0  0  0  0  0  0
   25.0135  -22.1358  -13.9946 O   0  0  0  0  0  0  0  0  0  0  0  0
   26.1003  -21.0446  -12.3399 N   0  0  0  0  0  0  0  0  0  0  0  0
   25.0105  -21.2013  -11.4189 C   0  0  1  0  0  0  0  0  0  0  0  0
   25.3849  -20.9602   -9.9875 C   0  0  0  0  0  0  0  0  0  0  0  0
   27.1165  -21.3005   -9.6313 S   0  0  0  0  0  0  0  0  0  0  0  0
   23.8145  -20.3983  -11.8314 C   0  0  0  0  0  0  0  0  0  0  0  0
   23.9672  -19.2505  -12.3435 O   0  0  0  0  0  0  0  0  0  0  0  0
   21.2758  -17.5962  -18.3677 N   0  0  0  0  0  0  0  0  0  0  0  0
   20.1522  -17.6544  -17.4869 C   0  0  0  0  0  0  0  0  0  0  0  0
   19.1858  -16.8167  -17.6020 N   0  0  0  0  0  0  0  0  0  0  0  0
   20.0939  -18.6367  -16.4774 N   0  0  0  0  0  0  0  0  0  0  0  0
   21.2855  -19.4554  -16.1104 C   0  0  0  0  0  0  0  0  0  0  0  0
   20.8841  -20.3739  -15.0252 C   0  0  0  0  0  0  0  0  0  0  0  0
   21.7162  -20.7149  -13.8995 C   0  0  0  0  0  0  0  0  0  0  0  0
   21.4109  -20.3233  -12.5094 C   0  0  2  0  0  0  0  0  0  0  0  0
   22.5128  -20.9008  -11.6595 N   0  0  0  0  0  0  0  0  0  0  0  0
   20.1490  -20.7752  -11.9000 C   0  0  0  0  0  0  0  0  0  0  0  0
   20.0654  -22.0040  -11.4851 O   0  0  0  0  0  0  0  0  0  0  0  0
   18.9979  -20.0613  -11.6869 O   0  0  0  0  0  0  0  0  0  0  0  0
  2  1  1  0
  3  2  2  0
  4  2  1  0
  5  4  1  0
  5  6  1  1
  7  9  1  0
  7  5  1  0
  8  7  2  0
 10 13  1  0
 10  9  1  0
 10 11  1  1
 12 11  1  0
 13 14  2  0
 16 17  2  0
 16 15  1  0
 18 16  1  0
 19 18  1  0
 20 19  1  0
 21 20  1  0
 22 21  1  6
 23 22  1  0
 23 13  1  0
 24 22  1  0
 24 26  1  0
 25 24  2  0
M  END
$$$$
