NCR.pdb
     RDKit          3D

 26 25  0  0  1  0  0  0  0  0999 V2000
   21.7070  -22.1832   -8.1066 N   0  0  0  0  0  0  0  0  0  0  0  0
   21.6037  -21.7957   -9.4591 C   0  0  0  0  0  0  0  0  0  0  0  0
   20.4443  -21.9044   -9.9762 O   0  0  0  0  0  0  0  0  0  0  0  0
   22.6695  -21.2863  -10.3224 C   0  0  0  0  0  0  0  0  0  0  0  0
   24.0099  -21.1913   -9.6464 C   0  0  2  0  0  0  0  0  0  0  0  0
   23.9062  -20.2741   -8.5087 N   0  0  0  0  0  0  0  0  0  0  0  0
   24.9919  -20.6439  -10.6290 C   0  0  0  0  0  0  0  0  0  0  0  0
   24.8566  -19.5878  -11.2782 O   0  0  0  0  0  0  0  0  0  0  0  0
   26.2266  -21.3458  -10.9009 N   0  0  0  0  0  0  0  0  0  0  0  0
   27.2326  -20.8422  -11.7925 C   0  0  1  0  0  0  0  0  0  0  0  0
   28.6284  -21.2465  -11.4246 C   0  0  0  0  0  0  0  0  0  0  0  0
   29.0673  -20.8463   -9.7252 S   0  0  0  0  0  0  0  0  0  0  0  0
   26.9140  -21.1545  -13.2230 C   0  0  0  0  0  0  0  0  0  0  0  0
   26.1591  -22.1307  -13.5061 O   0  0  0  0  0  0  0  0  0  0  0  0
   20.4881  -17.4919  -15.5044 N   0  0  0  0  0  0  0  0  0  0  0  0
   21.6693  -16.8584  -15.9996 C   0  0  0  0  0  0  0  0  0  0  0  0
   21.6603  -15.6148  -16.3196 N   0  0  0  0  0  0  0  0  0  0  0  0
   22.8618  -17.5965  -16.1428 N   0  0  0  0  0  0  0  0  0  0  0  0
   22.9299  -19.0485  -15.8083 C   0  0  0  0  0  0  0  0  0  0  0  0
   24.2840  -19.5275  -16.1546 C   0  0  0  0  0  0  0  0  0  0  0  0
   25.3222  -19.7953  -15.1923 C   0  0  0  0  0  0  0  0  0  0  0  0
   26.6639  -20.2925  -15.5548 C   0  0  2  0  0  0  0  0  0  0  0  0
   27.4423  -20.3756  -14.2674 N   0  0  0  0  0  0  0  0  0  0  0  0
   27.4931  -19.5026  -16.4802 C   0  0  0  0  0  0  0  0  0  0  0  0
   28.1020  -18.4494  -16.0228 O   0  0  0  0  0  0  0  0  0  0  0  0
   27.7382  -19.7240  -17.8110 O   0  0  0  0  0  0  0  0  0  0  0  0
  2  1  1  0
  3  2  2  0
  4  2  1  0
  5  4  1  0
  5  6  1  1
  7  9  1  0
  7  5  1  0
  8  7  2  0
 10 13  1  0
 10  9  1  0
 10 11  1  1
 12 11  1  0
 13 14  2  0
 16 17  2  0
 16 15  1  0
 18 16  1  0
 19 18  1  0
 20 19  1  0
 21 20  1  0
 22 21  1  1
 23 22  1  0
 23 13  1  0
 24 22  1  0
 24 26  1  0
 25 24  2  0
M  END
$$$$
