MVK.pdb
     RDKit          3D

 25 24  0  0  1  0  0  0  0  0999 V2000
    7.0239  -11.1107   27.2568 C   0  0  0  0  0  0  0  0  0  0  0  0
    5.5723  -11.9917   26.6990 S   0  0  0  0  0  0  0  0  0  0  0  0
    5.6530  -13.7543   26.7421 C   0  0  0  0  0  0  0  0  0  0  0  0
    5.8719  -14.4548   25.4632 C   0  0  0  0  0  0  0  0  0  0  0  0
    7.2464  -14.7885   25.0806 C   0  0  2  0  0  0  0  0  0  0  0  0
    8.1956  -13.7304   25.2466 N   0  0  0  0  0  0  0  0  0  0  0  0
    7.3515  -15.3257   23.6745 C   0  0  0  0  0  0  0  0  0  0  0  0
    6.7410  -16.3626   23.3179 O   0  0  0  0  0  0  0  0  0  0  0  0
    8.9631  -12.9378   20.5399 C   0  0  0  0  0  0  0  0  0  0  0  0
    8.0149  -14.0709   20.3896 C   0  0  2  0  0  0  0  0  0  0  0  0
    6.5661  -13.6456   20.5292 C   0  0  0  0  0  0  0  0  0  0  0  0
    8.2358  -15.2395   21.3194 C   0  0  2  0  0  0  0  0  0  0  0  0
    8.1477  -14.6764   22.6981 N   0  0  0  0  0  0  0  0  0  0  0  0
    9.6449  -15.7082   21.1958 C   0  0  0  0  0  0  0  0  0  0  0  0
   10.6097  -14.9078   21.2687 O   0  0  0  0  0  0  0  0  0  0  0  0
    9.9673  -17.0955   20.9972 N   0  0  0  0  0  0  0  0  0  0  0  0
   11.1253  -17.7786   21.3711 C   0  0  1  0  0  0  0  0  0  0  0  0
   11.1585  -18.8709   22.3475 C   0  0  0  0  0  0  0  0  0  0  0  0
   12.3863  -19.5823   22.7083 C   0  0  0  0  0  0  0  0  0  0  0  0
   12.2959  -20.5828   23.7883 C   0  0  0  0  0  0  0  0  0  0  0  0
   13.6904  -21.1677   24.1067 C   0  0  0  0  0  0  0  0  0  0  0  0
   13.5659  -22.1828   25.1082 N   0  0  0  0  0  0  0  0  0  0  0  0
   12.1172  -18.0583   20.2604 C   0  0  0  0  0  0  0  0  0  0  0  0
   11.6929  -17.8059   18.9723 O   0  0  0  0  0  0  0  0  0  0  0  0
   13.2351  -18.4847   20.4855 O   0  0  0  0  0  0  0  0  0  0  0  0
  2  1  1  0
  3  2  1  0
  4  5  1  0
  4  3  1  0
  5  6  1  6
  5  7  1  0
  7  8  2  0
 10 12  1  0
 10  9  1  1
 11 10  1  0
 12 14  1  0
 13  7  1  0
 12 13  1  1
 14 15  2  0
 16 17  1  0
 16 14  1  0
 17 23  1  0
 17 18  1  6
 19 18  1  0
 20 19  1  0
 21 20  1  0
 22 21  1  0
 23 25  2  0
 23 24  1  0
M  END
$$$$
