MVK.pdb
     RDKit          3D

 25 24  0  0  1  0  0  0  0  0999 V2000
    8.1133  -11.3643   27.2265 C   0  0  0  0  0  0  0  0  0  0  0  0
    6.4443  -11.8364   27.6577 S   0  0  0  0  0  0  0  0  0  0  0  0
    5.7914  -13.2607   26.8453 C   0  0  0  0  0  0  0  0  0  0  0  0
    6.6785  -13.9728   25.9070 C   0  0  0  0  0  0  0  0  0  0  0  0
    6.1268  -15.0987   25.1487 C   0  0  2  0  0  0  0  0  0  0  0  0
    5.6516  -16.1899   25.9433 N   0  0  0  0  0  0  0  0  0  0  0  0
    7.0804  -15.6294   24.1066 C   0  0  0  0  0  0  0  0  0  0  0  0
    7.5961  -16.7692   24.2050 O   0  0  0  0  0  0  0  0  0  0  0  0
    7.1597  -13.9247   20.2581 C   0  0  0  0  0  0  0  0  0  0  0  0
    8.4404  -14.3777   20.8581 C   0  0  2  0  0  0  0  0  0  0  0  0
    9.4273  -14.8811   19.8229 C   0  0  0  0  0  0  0  0  0  0  0  0
    8.3259  -15.4368   21.9277 C   0  0  2  0  0  0  0  0  0  0  0  0
    7.4315  -14.8568   22.9714 N   0  0  0  0  0  0  0  0  0  0  0  0
    9.6422  -15.5944   22.6082 C   0  0  0  0  0  0  0  0  0  0  0  0
   10.2702  -14.6036   23.0562 O   0  0  0  0  0  0  0  0  0  0  0  0
   10.2504  -16.8845   22.7925 N   0  0  0  0  0  0  0  0  0  0  0  0
   11.5038  -17.1836   23.3281 C   0  0  1  0  0  0  0  0  0  0  0  0
   11.8777  -18.4937   23.8679 C   0  0  0  0  0  0  0  0  0  0  0  0
   13.1908  -18.7708   24.4532 C   0  0  0  0  0  0  0  0  0  0  0  0
   13.4148  -20.1210   25.0033 C   0  0  0  0  0  0  0  0  0  0  0  0
   14.8273  -20.2298   25.6209 C   0  0  0  0  0  0  0  0  0  0  0  0
   15.0607  -21.5764   26.0465 N   0  0  0  0  0  0  0  0  0  0  0  0
   12.6919  -16.5679   22.6175 C   0  0  0  0  0  0  0  0  0  0  0  0
   13.5783  -15.8536   23.3967 O   0  0  0  0  0  0  0  0  0  0  0  0
   12.8629  -16.6929   21.4186 O   0  0  0  0  0  0  0  0  0  0  0  0
  2  1  1  0
  3  2  1  0
  4  5  1  0
  4  3  1  0
  5  6  1  1
  5  7  1  0
  7  8  2  0
 10 12  1  0
 10  9  1  6
 11 10  1  0
 12 14  1  0
 13  7  1  0
 12 13  1  1
 14 15  2  0
 16 17  1  0
 16 14  1  0
 17 23  1  0
 17 18  1  6
 19 18  1  0
 20 19  1  0
 21 20  1  0
 22 21  1  0
 23 25  2  0
 23 24  1  0
M  END
$$$$
