MVK.pdb
     RDKit          3D

 25 24  0  0  1  0  0  0  0  0999 V2000
    8.2638  -11.3276   19.1552 C   0  0  0  0  0  0  0  0  0  0  0  0
    7.6497  -12.9152   18.6103 S   0  0  0  0  0  0  0  0  0  0  0  0
    7.2046  -14.0655   19.8727 C   0  0  0  0  0  0  0  0  0  0  0  0
    8.2619  -14.4867   20.8103 C   0  0  0  0  0  0  0  0  0  0  0  0
    7.9108  -15.4314   21.8739 C   0  0  2  0  0  0  0  0  0  0  0  0
    6.5206  -15.7608   21.9575 N   0  0  0  0  0  0  0  0  0  0  0  0
    8.3933  -14.9912   23.2342 C   0  0  0  0  0  0  0  0  0  0  0  0
    9.6160  -14.9130   23.5061 O   0  0  0  0  0  0  0  0  0  0  0  0
    6.4043  -12.2061   25.3967 C   0  0  0  0  0  0  0  0  0  0  0  0
    6.8656  -13.3744   26.1891 C   0  0  2  0  0  0  0  0  0  0  0  0
    7.2828  -12.9996   27.5979 C   0  0  0  0  0  0  0  0  0  0  0  0
    7.9908  -14.1767   25.5816 C   0  0  2  0  0  0  0  0  0  0  0  0
    7.4794  -14.6476   24.2615 N   0  0  0  0  0  0  0  0  0  0  0  0
    8.1896  -15.4240   26.3725 C   0  0  0  0  0  0  0  0  0  0  0  0
    7.2459  -16.2265   26.5775 O   0  0  0  0  0  0  0  0  0  0  0  0
    9.4690  -15.7723   26.9292 N   0  0  0  0  0  0  0  0  0  0  0  0
   10.0005  -17.0432   27.1522 C   0  0  1  0  0  0  0  0  0  0  0  0
   10.5197  -17.9160   26.0957 C   0  0  0  0  0  0  0  0  0  0  0  0
   11.0621  -19.2506   26.3573 C   0  0  0  0  0  0  0  0  0  0  0  0
   11.5573  -20.0184   25.1994 C   0  0  0  0  0  0  0  0  0  0  0  0
   12.0820  -21.4013   25.6473 C   0  0  0  0  0  0  0  0  0  0  0  0
   12.6922  -22.0644   24.5351 N   0  0  0  0  0  0  0  0  0  0  0  0
   10.8440  -17.1987   28.4012 C   0  0  0  0  0  0  0  0  0  0  0  0
   11.2400  -16.0366   29.0304 O   0  0  0  0  0  0  0  0  0  0  0  0
   11.1607  -18.2915   28.8344 O   0  0  0  0  0  0  0  0  0  0  0  0
  2  1  1  0
  3  2  1  0
  4  5  1  0
  4  3  1  0
  5  6  1  1
  5  7  1  0
  7  8  2  0
 10 12  1  0
 10  9  1  6
 11 10  1  0
 12 14  1  0
 13  7  1  0
 12 13  1  6
 14 15  2  0
 16 17  1  0
 16 14  1  0
 17 23  1  0
 17 18  1  6
 19 18  1  0
 20 19  1  0
 21 20  1  0
 22 21  1  0
 23 25  2  0
 23 24  1  0
M  END
$$$$
