MVK.pdb
     RDKit          3D

 25 24  0  0  1  0  0  0  0  0999 V2000
    6.7132  -10.6610   26.3574 C   0  0  0  0  0  0  0  0  0  0  0  0
    6.3861  -11.8888   27.6144 S   0  0  0  0  0  0  0  0  0  0  0  0
    5.9416  -13.5002   27.0480 C   0  0  0  0  0  0  0  0  0  0  0  0
    6.8630  -14.1677   26.1100 C   0  0  0  0  0  0  0  0  0  0  0  0
    6.4214  -15.4084   25.4676 C   0  0  2  0  0  0  0  0  0  0  0  0
    6.1880  -16.5030   26.3595 N   0  0  0  0  0  0  0  0  0  0  0  0
    7.3474  -15.8620   24.3660 C   0  0  0  0  0  0  0  0  0  0  0  0
    7.9386  -16.9679   24.4158 O   0  0  0  0  0  0  0  0  0  0  0  0
    6.9656  -14.1891   20.5740 C   0  0  0  0  0  0  0  0  0  0  0  0
    8.3396  -14.5353   21.0188 C   0  0  2  0  0  0  0  0  0  0  0  0
    9.2260  -14.9977   19.8787 C   0  0  0  0  0  0  0  0  0  0  0  0
    8.4339  -15.5696   22.1143 C   0  0  2  0  0  0  0  0  0  0  0  0
    7.5859  -15.0523   23.2274 N   0  0  0  0  0  0  0  0  0  0  0  0
    9.8170  -15.5754   22.6690 C   0  0  0  0  0  0  0  0  0  0  0  0
   10.3778  -14.5150   23.0402 O   0  0  0  0  0  0  0  0  0  0  0  0
   10.5702  -16.7919   22.8141 N   0  0  0  0  0  0  0  0  0  0  0  0
   11.8504  -16.9611   23.3431 C   0  0  1  0  0  0  0  0  0  0  0  0
   12.1969  -17.9595   24.3583 C   0  0  0  0  0  0  0  0  0  0  0  0
   11.4819  -18.0866   25.6297 C   0  0  0  0  0  0  0  0  0  0  0  0
   11.8213  -19.2400   26.4841 C   0  0  0  0  0  0  0  0  0  0  0  0
   10.9276  -19.2654   27.7447 C   0  0  0  0  0  0  0  0  0  0  0  0
   11.3049  -20.3677   28.5762 N   0  0  0  0  0  0  0  0  0  0  0  0
   12.9968  -16.8118   22.3638 C   0  0  0  0  0  0  0  0  0  0  0  0
   12.6853  -16.9169   21.0240 O   0  0  0  0  0  0  0  0  0  0  0  0
   14.1390  -16.6090   22.7331 O   0  0  0  0  0  0  0  0  0  0  0  0
  2  1  1  0
  3  2  1  0
  4  5  1  0
  4  3  1  0
  5  6  1  1
  5  7  1  0
  7  8  2  0
 10 12  1  0
 10  9  1  6
 11 10  1  0
 12 14  1  0
 13  7  1  0
 12 13  1  1
 14 15  2  0
 16 17  1  0
 16 14  1  0
 17 23  1  0
 17 18  1  6
 19 18  1  0
 20 19  1  0
 21 20  1  0
 22 21  1  0
 23 25  2  0
 23 24  1  0
M  END
$$$$
