MVK.pdb
     RDKit          3D

 25 24  0  0  1  0  0  0  0  0999 V2000
    9.3945  -22.1484   20.1145 C   0  0  0  0  0  0  0  0  0  0  0  0
    8.0438  -21.1036   19.5866 S   0  0  0  0  0  0  0  0  0  0  0  0
    8.4800  -19.6047   18.7631 C   0  0  0  0  0  0  0  0  0  0  0  0
    7.3791  -18.7361   18.3071 C   0  0  0  0  0  0  0  0  0  0  0  0
    7.7108  -17.5667   17.4888 C   0  0  2  0  0  0  0  0  0  0  0  0
    8.3795  -17.8583   16.2576 N   0  0  0  0  0  0  0  0  0  0  0  0
    8.5026  -16.5269   18.2429 C   0  0  0  0  0  0  0  0  0  0  0  0
    9.7418  -16.4022   18.0882 O   0  0  0  0  0  0  0  0  0  0  0  0
    8.3224  -12.4673   21.1376 C   0  0  0  0  0  0  0  0  0  0  0  0
    7.7266  -13.6005   20.3850 C   0  0  2  0  0  0  0  0  0  0  0  0
    6.6177  -14.2949   21.1514 C   0  0  0  0  0  0  0  0  0  0  0  0
    8.6941  -14.6639   19.9248 C   0  0  2  0  0  0  0  0  0  0  0  0
    7.8738  -15.6470   19.1590 N   0  0  0  0  0  0  0  0  0  0  0  0
    9.1864  -15.4270   21.1063 C   0  0  0  0  0  0  0  0  0  0  0  0
    8.5080  -16.3519   21.6172 O   0  0  0  0  0  0  0  0  0  0  0  0
   10.4613  -15.1485   21.7106 N   0  0  0  0  0  0  0  0  0  0  0  0
   11.0424  -15.7526   22.8263 C   0  0  1  0  0  0  0  0  0  0  0  0
   12.4869  -15.8373   23.0584 C   0  0  0  0  0  0  0  0  0  0  0  0
   13.1381  -17.0258   23.6127 C   0  0  0  0  0  0  0  0  0  0  0  0
   13.4768  -18.1115   22.6735 C   0  0  0  0  0  0  0  0  0  0  0  0
   14.3169  -19.1997   23.3794 C   0  0  0  0  0  0  0  0  0  0  0  0
   14.4033  -20.3563   22.5405 N   0  0  0  0  0  0  0  0  0  0  0  0
   10.3268  -15.5371   24.1443 C   0  0  0  0  0  0  0  0  0  0  0  0
   10.6237  -16.4194   25.1623 O   0  0  0  0  0  0  0  0  0  0  0  0
    9.5279  -14.6326   24.3047 O   0  0  0  0  0  0  0  0  0  0  0  0
  2  1  1  0
  3  2  1  0
  4  5  1  0
  4  3  1  0
  5  6  1  6
  5  7  1  0
  7  8  2  0
 10 12  1  0
 10  9  1  1
 11 10  1  0
 12 14  1  0
 13  7  1  0
 12 13  1  6
 14 15  2  0
 16 17  1  0
 16 14  1  0
 17 23  1  0
 17 18  1  1
 19 18  1  0
 20 19  1  0
 21 20  1  0
 22 21  1  0
 23 25  2  0
 23 24  1  0
M  END
$$$$
