MVK.pdb
     RDKit          3D

 25 24  0  0  1  0  0  0  0  0999 V2000
    6.5751  -10.5035   26.8034 C   0  0  0  0  0  0  0  0  0  0  0  0
    6.7669  -11.9925   27.7733 S   0  0  0  0  0  0  0  0  0  0  0  0
    6.1458  -13.4837   27.0623 C   0  0  0  0  0  0  0  0  0  0  0  0
    6.9708  -14.1382   26.0301 C   0  0  0  0  0  0  0  0  0  0  0  0
    6.3466  -15.1630   25.1892 C   0  0  2  0  0  0  0  0  0  0  0  0
    5.8235  -16.2917   25.8968 N   0  0  0  0  0  0  0  0  0  0  0  0
    7.2541  -15.6523   24.0874 C   0  0  0  0  0  0  0  0  0  0  0  0
    7.8282  -16.7664   24.1525 O   0  0  0  0  0  0  0  0  0  0  0  0
    8.8337  -13.0791   21.0106 C   0  0  0  0  0  0  0  0  0  0  0  0
    8.2319  -14.4022   20.7061 C   0  0  2  0  0  0  0  0  0  0  0  0
    6.7815  -14.3016   20.2752 C   0  0  0  0  0  0  0  0  0  0  0  0
    8.3061  -15.4273   21.8117 C   0  0  2  0  0  0  0  0  0  0  0  0
    7.4937  -14.8683   22.9312 N   0  0  0  0  0  0  0  0  0  0  0  0
    9.6963  -15.4761   22.3461 C   0  0  0  0  0  0  0  0  0  0  0  0
   10.2504  -14.4553   22.8232 O   0  0  0  0  0  0  0  0  0  0  0  0
   10.4644  -16.6920   22.3498 N   0  0  0  0  0  0  0  0  0  0  0  0
   11.7955  -16.8754   22.7264 C   0  0  1  0  0  0  0  0  0  0  0  0
   12.2939  -18.0515   23.4446 C   0  0  0  0  0  0  0  0  0  0  0  0
   11.7898  -18.4580   24.7578 C   0  0  0  0  0  0  0  0  0  0  0  0
   11.3574  -19.8597   24.9120 C   0  0  0  0  0  0  0  0  0  0  0  0
   10.8742  -20.1247   26.3558 C   0  0  0  0  0  0  0  0  0  0  0  0
   10.4286  -21.4802   26.4698 N   0  0  0  0  0  0  0  0  0  0  0  0
   12.8364  -16.4091   21.7289 C   0  0  0  0  0  0  0  0  0  0  0  0
   14.1389  -16.3411   22.1783 O   0  0  0  0  0  0  0  0  0  0  0  0
   12.5456  -16.1077   20.5858 O   0  0  0  0  0  0  0  0  0  0  0  0
  2  1  1  0
  3  2  1  0
  4  5  1  0
  4  3  1  0
  5  6  1  1
  5  7  1  0
  7  8  2  0
 10 12  1  0
 10  9  1  1
 11 10  1  0
 12 14  1  0
 13  7  1  0
 12 13  1  1
 14 15  2  0
 16 17  1  0
 16 14  1  0
 17 23  1  0
 17 18  1  6
 19 18  1  0
 20 19  1  0
 21 20  1  0
 22 21  1  0
 23 25  2  0
 23 24  1  0
M  END
$$$$
