MVK.pdb
     RDKit          3D

 25 24  0  0  1  0  0  0  0  0999 V2000
    6.0407  -20.5485   18.6546 C   0  0  0  0  0  0  0  0  0  0  0  0
    6.4683  -20.5469   16.9191 S   0  0  0  0  0  0  0  0  0  0  0  0
    7.5921  -19.2957   16.3837 C   0  0  0  0  0  0  0  0  0  0  0  0
    8.1915  -18.4340   17.4192 C   0  0  0  0  0  0  0  0  0  0  0  0
    9.0084  -17.2964   16.9883 C   0  0  2  0  0  0  0  0  0  0  0  0
   10.1453  -17.6353   16.1878 N   0  0  0  0  0  0  0  0  0  0  0  0
    9.4586  -16.4273   18.1367 C   0  0  0  0  0  0  0  0  0  0  0  0
   10.5928  -16.5589   18.6575 O   0  0  0  0  0  0  0  0  0  0  0  0
    8.3798  -12.4049   20.9216 C   0  0  0  0  0  0  0  0  0  0  0  0
    8.1329  -13.3960   19.8435 C   0  0  2  0  0  0  0  0  0  0  0  0
    6.7393  -13.9908   19.9016 C   0  0  0  0  0  0  0  0  0  0  0  0
    9.1122  -14.5423   19.7686 C   0  0  2  0  0  0  0  0  0  0  0  0
    8.6133  -15.4242   18.6735 N   0  0  0  0  0  0  0  0  0  0  0  0
    8.9944  -15.3724   21.0006 C   0  0  0  0  0  0  0  0  0  0  0  0
    7.9743  -16.0693   21.2253 O   0  0  0  0  0  0  0  0  0  0  0  0
   10.0430  -15.4228   21.9834 N   0  0  0  0  0  0  0  0  0  0  0  0
   10.0906  -16.1666   23.1632 C   0  0  1  0  0  0  0  0  0  0  0  0
   11.1702  -17.0955   23.5085 C   0  0  0  0  0  0  0  0  0  0  0  0
   11.5228  -18.2521   22.6829 C   0  0  0  0  0  0  0  0  0  0  0  0
   12.6816  -19.0591   23.1089 C   0  0  0  0  0  0  0  0  0  0  0  0
   12.9832  -20.1671   22.0746 C   0  0  0  0  0  0  0  0  0  0  0  0
   14.3986  -20.3556   21.9748 N   0  0  0  0  0  0  0  0  0  0  0  0
    9.6096  -15.4578   24.4130 C   0  0  0  0  0  0  0  0  0  0  0  0
    9.3959  -16.2426   25.5272 O   0  0  0  0  0  0  0  0  0  0  0  0
    9.4191  -14.2557   24.4405 O   0  0  0  0  0  0  0  0  0  0  0  0
  2  1  1  0
  3  2  1  0
  4  5  1  0
  4  3  1  0
  5  6  1  1
  5  7  1  0
  7  8  2  0
 10 12  1  0
 10  9  1  1
 11 10  1  0
 12 14  1  0
 13  7  1  0
 12 13  1  6
 14 15  2  0
 16 17  1  0
 16 14  1  0
 17 23  1  0
 17 18  1  1
 19 18  1  0
 20 19  1  0
 21 20  1  0
 22 21  1  0
 23 25  2  0
 23 24  1  0
M  END
$$$$
