MVK.pdb
     RDKit          3D

 25 24  0  0  1  0  0  0  0  0999 V2000
    7.3806  -11.1715   27.2621 C   0  0  0  0  0  0  0  0  0  0  0  0
    5.7415  -11.8594   27.4488 S   0  0  0  0  0  0  0  0  0  0  0  0
    5.5225  -13.5313   26.9275 C   0  0  0  0  0  0  0  0  0  0  0  0
    6.4610  -14.0558   25.9185 C   0  0  0  0  0  0  0  0  0  0  0  0
    6.1505  -15.3385   25.2818 C   0  0  2  0  0  0  0  0  0  0  0  0
    6.0530  -16.4514   26.1763 N   0  0  0  0  0  0  0  0  0  0  0  0
    7.1051  -15.6877   24.1665 C   0  0  0  0  0  0  0  0  0  0  0  0
    7.8721  -16.6781   24.2416 O   0  0  0  0  0  0  0  0  0  0  0  0
    8.5387  -14.5855   19.4846 C   0  0  0  0  0  0  0  0  0  0  0  0
    7.7893  -14.3495   20.7448 C   0  0  2  0  0  0  0  0  0  0  0  0
    8.0544  -12.9790   21.3369 C   0  0  0  0  0  0  0  0  0  0  0  0
    8.0084  -15.3660   21.8392 C   0  0  2  0  0  0  0  0  0  0  0  0
    7.1718  -14.9065   22.9858 N   0  0  0  0  0  0  0  0  0  0  0  0
    9.4103  -15.2632   22.3338 C   0  0  0  0  0  0  0  0  0  0  0  0
    9.7784  -14.3108   23.0647 O   0  0  0  0  0  0  0  0  0  0  0  0
   10.4034  -16.2508   22.0071 N   0  0  0  0  0  0  0  0  0  0  0  0
   11.5189  -16.6376   22.7510 C   0  0  1  0  0  0  0  0  0  0  0  0
   11.5501  -17.7972   23.6465 C   0  0  0  0  0  0  0  0  0  0  0  0
   12.7294  -18.1689   24.4308 C   0  0  0  0  0  0  0  0  0  0  0  0
   12.6450  -19.4016   25.2362 C   0  0  0  0  0  0  0  0  0  0  0  0
   13.9641  -19.6410   26.0049 C   0  0  0  0  0  0  0  0  0  0  0  0
   13.8503  -20.8321   26.7906 N   0  0  0  0  0  0  0  0  0  0  0  0
   12.8592  -16.4923   22.0595 C   0  0  0  0  0  0  0  0  0  0  0  0
   13.8459  -15.8238   22.7542 O   0  0  0  0  0  0  0  0  0  0  0  0
   13.0631  -16.9405   20.9461 O   0  0  0  0  0  0  0  0  0  0  0  0
  2  1  1  0
  3  2  1  0
  4  5  1  0
  4  3  1  0
  5  6  1  1
  5  7  1  0
  7  8  2  0
 10 12  1  0
 10  9  1  6
 11 10  1  0
 12 14  1  0
 13  7  1  0
 12 13  1  1
 14 15  2  0
 16 17  1  0
 16 14  1  0
 17 23  1  0
 17 18  1  6
 19 18  1  0
 20 19  1  0
 21 20  1  0
 22 21  1  0
 23 25  2  0
 23 24  1  0
M  END
$$$$
