MVK.pdb
     RDKit          3D

 25 24  0  0  1  0  0  0  0  0999 V2000
    8.3491  -11.4692   26.9475 C   0  0  0  0  0  0  0  0  0  0  0  0
    6.8654  -12.1341   27.6900 S   0  0  0  0  0  0  0  0  0  0  0  0
    6.1463  -13.5377   26.8977 C   0  0  0  0  0  0  0  0  0  0  0  0
    6.9427  -14.2099   25.8545 C   0  0  0  0  0  0  0  0  0  0  0  0
    6.3139  -15.2893   25.0886 C   0  0  2  0  0  0  0  0  0  0  0  0
    5.8585  -16.3998   25.8679 N   0  0  0  0  0  0  0  0  0  0  0  0
    7.1861  -15.8007   23.9686 C   0  0  0  0  0  0  0  0  0  0  0  0
    7.7631  -16.9131   24.0381 O   0  0  0  0  0  0  0  0  0  0  0  0
    8.7931  -13.2328   20.8904 C   0  0  0  0  0  0  0  0  0  0  0  0
    8.1904  -14.5566   20.5906 C   0  0  2  0  0  0  0  0  0  0  0  0
    6.7422  -14.4560   20.1528 C   0  0  0  0  0  0  0  0  0  0  0  0
    8.2581  -15.5757   21.7022 C   0  0  2  0  0  0  0  0  0  0  0  0
    7.3878  -15.0406   22.7894 N   0  0  0  0  0  0  0  0  0  0  0  0
    9.6289  -15.5773   22.2867 C   0  0  0  0  0  0  0  0  0  0  0  0
   10.0956  -14.5645   22.8639 O   0  0  0  0  0  0  0  0  0  0  0  0
   10.4769  -16.7372   22.2263 N   0  0  0  0  0  0  0  0  0  0  0  0
   11.7983  -16.8684   22.6557 C   0  0  1  0  0  0  0  0  0  0  0  0
   12.2951  -17.9862   23.4626 C   0  0  0  0  0  0  0  0  0  0  0  0
   11.5970  -18.4874   24.6481 C   0  0  0  0  0  0  0  0  0  0  0  0
   11.0412  -19.8519   24.5793 C   0  0  0  0  0  0  0  0  0  0  0  0
   10.2297  -20.1740   25.8545 C   0  0  0  0  0  0  0  0  0  0  0  0
    9.6511  -21.4780   25.7363 N   0  0  0  0  0  0  0  0  0  0  0  0
   12.8623  -16.4440   21.6640 C   0  0  0  0  0  0  0  0  0  0  0  0
   12.4480  -16.2238   20.3667 O   0  0  0  0  0  0  0  0  0  0  0  0
   14.0271  -16.3021   21.9883 O   0  0  0  0  0  0  0  0  0  0  0  0
  2  1  1  0
  3  2  1  0
  4  5  1  0
  4  3  1  0
  5  6  1  1
  5  7  1  0
  7  8  2  0
 10 12  1  0
 10  9  1  1
 11 10  1  0
 12 14  1  0
 13  7  1  0
 12 13  1  1
 14 15  2  0
 16 17  1  0
 16 14  1  0
 17 23  1  0
 17 18  1  6
 19 18  1  0
 20 19  1  0
 21 20  1  0
 22 21  1  0
 23 25  2  0
 23 24  1  0
M  END
$$$$
