MVK.pdb
     RDKit          3D

 25 24  0  0  1  0  0  0  0  0999 V2000
    5.8374  -11.6645   26.8288 C   0  0  0  0  0  0  0  0  0  0  0  0
    7.2120  -12.7496   27.1863 S   0  0  0  0  0  0  0  0  0  0  0  0
    7.2530  -14.2851   26.3173 C   0  0  0  0  0  0  0  0  0  0  0  0
    6.1211  -14.5887   25.4224 C   0  0  0  0  0  0  0  0  0  0  0  0
    6.0978  -15.8899   24.7491 C   0  0  2  0  0  0  0  0  0  0  0  0
    6.1911  -17.0236   25.6176 N   0  0  0  0  0  0  0  0  0  0  0  0
    7.1445  -16.0119   23.6691 C   0  0  0  0  0  0  0  0  0  0  0  0
    8.1282  -16.7819   23.7888 O   0  0  0  0  0  0  0  0  0  0  0  0
    8.4171  -13.0288   20.6436 C   0  0  0  0  0  0  0  0  0  0  0  0
    7.7999  -14.3551   20.3878 C   0  0  2  0  0  0  0  0  0  0  0  0
    6.2941  -14.2799   20.2261 C   0  0  0  0  0  0  0  0  0  0  0  0
    8.0928  -15.4241   21.4127 C   0  0  2  0  0  0  0  0  0  0  0  0
    7.0559  -15.2576   22.4724 N   0  0  0  0  0  0  0  0  0  0  0  0
    9.3798  -15.1124   22.0961 C   0  0  0  0  0  0  0  0  0  0  0  0
    9.4257  -14.3390   23.0842 O   0  0  0  0  0  0  0  0  0  0  0  0
   10.6255  -15.6872   21.6645 N   0  0  0  0  0  0  0  0  0  0  0  0
   11.5548  -16.4069   22.4166 C   0  0  1  0  0  0  0  0  0  0  0  0
   11.2036  -17.4718   23.3601 C   0  0  0  0  0  0  0  0  0  0  0  0
   12.2035  -18.2898   24.0493 C   0  0  0  0  0  0  0  0  0  0  0  0
   11.7997  -18.9257   25.3173 C   0  0  0  0  0  0  0  0  0  0  0  0
   12.9724  -19.7323   25.9195 C   0  0  0  0  0  0  0  0  0  0  0  0
   12.5523  -20.3463   27.1424 N   0  0  0  0  0  0  0  0  0  0  0  0
   12.8485  -16.7586   21.7106 C   0  0  0  0  0  0  0  0  0  0  0  0
   12.8719  -16.5937   20.3412 O   0  0  0  0  0  0  0  0  0  0  0  0
   13.8233  -17.1670   22.3148 O   0  0  0  0  0  0  0  0  0  0  0  0
  2  1  1  0
  3  2  1  0
  4  5  1  0
  4  3  1  0
  5  6  1  1
  5  7  1  0
  7  8  2  0
 10 12  1  0
 10  9  1  1
 11 10  1  0
 12 14  1  0
 13  7  1  0
 12 13  1  1
 14 15  2  0
 16 17  1  0
 16 14  1  0
 17 23  1  0
 17 18  1  6
 19 18  1  0
 20 19  1  0
 21 20  1  0
 22 21  1  0
 23 25  2  0
 23 24  1  0
M  END
$$$$
