FQR.pdb
     RDKit          3D

 32 32  0  0  1  0  0  0  0  0999 V2000
    6.1596  -16.7016   25.4966 N   0  0  0  0  0  0  0  0  0  0  0  0
    6.5730  -15.4721   24.8300 C   0  0  1  0  0  0  0  0  0  0  0  0
    7.3715  -14.7128   25.8836 C   0  0  0  0  0  0  0  0  0  0  0  0
    6.6907  -13.4499   26.1950 C   0  0  0  0  0  0  0  0  0  0  0  0
    5.7653  -13.4434   27.2419 C   0  0  0  0  0  0  0  0  0  0  0  0
    5.0731  -12.3095   27.5948 C   0  0  0  0  0  0  0  0  0  0  0  0
    5.3113  -11.1554   26.8832 C   0  0  0  0  0  0  0  0  0  0  0  0
    6.2251  -11.1021   25.8281 C   0  0  0  0  0  0  0  0  0  0  0  0
    6.8756  -12.2600   25.5328 C   0  0  0  0  0  0  0  0  0  0  0  0
    7.4969  -15.8751   23.7185 C   0  0  0  0  0  0  0  0  0  0  0  0
    8.0880  -16.9557   23.7915 O   0  0  0  0  0  0  0  0  0  0  0  0
    9.2990  -13.1504   17.0846 N   0  0  0  0  0  0  0  0  0  0  0  0
    8.3172  -13.8707   17.8559 C   0  0  0  0  0  0  0  0  0  0  0  0
    7.1302  -13.8296   17.4666 O   0  0  0  0  0  0  0  0  0  0  0  0
    8.8061  -14.5999   19.0499 C   0  0  0  0  0  0  0  0  0  0  0  0
    8.0301  -14.3541   20.2994 C   0  0  0  0  0  0  0  0  0  0  0  0
    8.4242  -15.2478   21.4549 C   0  0  2  0  0  0  0  0  0  0  0  0
    7.6461  -15.0063   22.6392 N   0  0  0  0  0  0  0  0  0  0  0  0
    9.8846  -15.1322   21.6478 C   0  0  0  0  0  0  0  0  0  0  0  0
   10.3746  -13.9899   21.9656 O   0  0  0  0  0  0  0  0  0  0  0  0
   10.4921  -14.9361   26.8744 N   0  0  0  0  0  0  0  0  0  0  0  0
   11.0834  -15.8699   27.7871 C   0  0  0  0  0  0  0  0  0  0  0  0
   11.4265  -15.5160   28.9572 N   0  0  0  0  0  0  0  0  0  0  0  0
   11.2900  -17.2130   27.3964 N   0  0  0  0  0  0  0  0  0  0  0  0
   10.9509  -17.7014   26.1128 C   0  0  0  0  0  0  0  0  0  0  0  0
   11.8423  -17.2848   24.9844 C   0  0  0  0  0  0  0  0  0  0  0  0
   11.0040  -16.9780   23.7807 C   0  0  0  0  0  0  0  0  0  0  0  0
   11.7939  -16.5045   22.5706 C   0  0  2  0  0  0  0  0  0  0  0  0
   10.8225  -16.1741   21.5190 N   0  0  0  0  0  0  0  0  0  0  0  0
   12.6079  -17.6172   22.0755 C   0  0  0  0  0  0  0  0  0  0  0  0
   13.9462  -17.7062   22.3744 O   0  0  0  0  0  0  0  0  0  0  0  0
   12.0933  -18.5113   21.3673 O   0  0  0  0  0  0  0  0  0  0  0  0
  2  1  1  1
  3  2  1  0
  3  4  1  0
  4  5  2  0
  5  6  1  0
  7  6  2  0
  8  7  1  0
  9  4  1  0
  9  8  2  0
 10 11  2  0
 10  2  1  0
 12 13  1  0
 13 14  2  0
 15 13  1  0
 15 16  1  0
 17 16  1  6
 17 18  1  0
 18 10  1  0
 19 29  1  0
 19 17  1  0
 20 19  2  0
 22 21  1  0
 22 23  2  0
 24 22  1  0
 25 24  1  0
 26 27  1  0
 26 25  1  0
 28 27  1  1
 28 29  1  0
 28 30  1  0
 30 31  1  0
 32 30  2  0
M  END
$$$$
