FQR.pdb
     RDKit          3D

 32 32  0  0  1  0  0  0  0  0999 V2000
    7.0655  -15.6070   25.4450 N   0  0  0  0  0  0  0  0  0  0  0  0
    6.0693  -16.0977   24.4995 C   0  0  1  0  0  0  0  0  0  0  0  0
    5.1438  -14.9094   24.2643 C   0  0  0  0  0  0  0  0  0  0  0  0
    5.6165  -13.7608   25.0469 C   0  0  0  0  0  0  0  0  0  0  0  0
    6.6168  -12.9566   24.4946 C   0  0  0  0  0  0  0  0  0  0  0  0
    7.1272  -11.8682   25.1613 C   0  0  0  0  0  0  0  0  0  0  0  0
    6.6260  -11.5782   26.4102 C   0  0  0  0  0  0  0  0  0  0  0  0
    5.6257  -12.3455   27.0118 C   0  0  0  0  0  0  0  0  0  0  0  0
    5.1657  -13.4072   26.2961 C   0  0  0  0  0  0  0  0  0  0  0  0
    6.7998  -16.4033   23.2250 C   0  0  0  0  0  0  0  0  0  0  0  0
    6.6773  -17.5206   22.7161 O   0  0  0  0  0  0  0  0  0  0  0  0
    8.8601  -12.8007   18.5684 N   0  0  0  0  0  0  0  0  0  0  0  0
    7.8290  -13.8058   18.5026 C   0  0  0  0  0  0  0  0  0  0  0  0
    7.0465  -13.7708   17.5286 O   0  0  0  0  0  0  0  0  0  0  0  0
    7.7883  -14.7972   19.6035 C   0  0  0  0  0  0  0  0  0  0  0  0
    8.7949  -14.5818   20.6825 C   0  0  0  0  0  0  0  0  0  0  0  0
    8.7241  -15.5968   21.8022 C   0  0  2  0  0  0  0  0  0  0  0  0
    7.5892  -15.4019   22.6626 N   0  0  0  0  0  0  0  0  0  0  0  0
   10.0269  -15.6035   22.4994 C   0  0  0  0  0  0  0  0  0  0  0  0
   10.1794  -14.8485   23.5253 O   0  0  0  0  0  0  0  0  0  0  0  0
   11.8819  -19.3305   28.8027 N   0  0  0  0  0  0  0  0  0  0  0  0
   13.2377  -19.4284   28.3480 C   0  0  0  0  0  0  0  0  0  0  0  0
   14.1565  -19.8575   29.1121 N   0  0  0  0  0  0  0  0  0  0  0  0
   13.5744  -19.0506   27.0278 N   0  0  0  0  0  0  0  0  0  0  0  0
   12.6184  -18.5903   26.0921 C   0  0  0  0  0  0  0  0  0  0  0  0
   13.1109  -18.3519   24.6986 C   0  0  0  0  0  0  0  0  0  0  0  0
   11.9754  -17.8650   23.8504 C   0  0  0  0  0  0  0  0  0  0  0  0
   12.2785  -16.5999   23.0629 C   0  0  2  0  0  0  0  0  0  0  0  0
   11.1506  -16.3758   22.1486 N   0  0  0  0  0  0  0  0  0  0  0  0
   13.4663  -16.8328   22.2378 C   0  0  0  0  0  0  0  0  0  0  0  0
   13.3691  -16.9625   20.8733 O   0  0  0  0  0  0  0  0  0  0  0  0
   14.5972  -16.9176   22.7668 O   0  0  0  0  0  0  0  0  0  0  0  0
  2  1  1  1
  3  2  1  0
  3  4  1  0
  4  5  2  0
  5  6  1  0
  7  6  2  0
  8  7  1  0
  9  4  1  0
  9  8  2  0
 10 11  2  0
 10  2  1  0
 12 13  1  0
 13 14  2  0
 15 13  1  0
 15 16  1  0
 17 16  1  6
 17 18  1  0
 18 10  1  0
 19 29  1  0
 19 17  1  0
 20 19  2  0
 22 21  1  0
 22 23  2  0
 24 22  1  0
 25 24  1  0
 26 27  1  0
 26 25  1  0
 28 27  1  6
 28 29  1  0
 28 30  1  0
 30 31  1  0
 32 30  2  0
M  END
$$$$
