FQR.pdb
     RDKit          3D

 32 32  0  0  1  0  0  0  0  0999 V2000
    5.9595  -17.5564   25.4815 N   0  0  0  0  0  0  0  0  0  0  0  0
    6.5798  -16.3337   24.9841 C   0  0  1  0  0  0  0  0  0  0  0  0
    7.4361  -15.8374   26.1436 C   0  0  0  0  0  0  0  0  0  0  0  0
    7.1591  -14.4152   26.3804 C   0  0  0  0  0  0  0  0  0  0  0  0
    8.2113  -13.5077   26.2331 C   0  0  0  0  0  0  0  0  0  0  0  0
    8.0457  -12.1599   26.4462 C   0  0  0  0  0  0  0  0  0  0  0  0
    6.7986  -11.7094   26.8163 C   0  0  0  0  0  0  0  0  0  0  0  0
    5.7098  -12.5695   26.9777 C   0  0  0  0  0  0  0  0  0  0  0  0
    5.9441  -13.8903   26.7502 C   0  0  0  0  0  0  0  0  0  0  0  0
    7.4805  -16.7374   23.8539 C   0  0  0  0  0  0  0  0  0  0  0  0
    7.9409  -17.8820   23.8329 O   0  0  0  0  0  0  0  0  0  0  0  0
    8.2781  -14.1746   18.0463 N   0  0  0  0  0  0  0  0  0  0  0  0
    7.9416  -13.3164   19.1544 C   0  0  0  0  0  0  0  0  0  0  0  0
    7.9462  -12.0826   18.9544 O   0  0  0  0  0  0  0  0  0  0  0  0
    7.6185  -13.9781   20.4406 C   0  0  0  0  0  0  0  0  0  0  0  0
    7.7268  -15.4654   20.4283 C   0  0  0  0  0  0  0  0  0  0  0  0
    8.4478  -16.0402   21.6278 C   0  0  2  0  0  0  0  0  0  0  0  0
    7.7579  -15.7956   22.8649 N   0  0  0  0  0  0  0  0  0  0  0  0
    9.8439  -15.5572   21.5996 C   0  0  0  0  0  0  0  0  0  0  0  0
   10.0598  -14.3123   21.3774 O   0  0  0  0  0  0  0  0  0  0  0  0
   10.7094  -14.9012   29.3642 N   0  0  0  0  0  0  0  0  0  0  0  0
   11.2789  -16.1813   29.0616 C   0  0  0  0  0  0  0  0  0  0  0  0
   11.8000  -16.8988   29.9704 N   0  0  0  0  0  0  0  0  0  0  0  0
   11.2635  -16.6713   27.7354 N   0  0  0  0  0  0  0  0  0  0  0  0
   10.9795  -15.8535   26.6166 C   0  0  0  0  0  0  0  0  0  0  0  0
   11.9093  -15.9747   25.4495 C   0  0  0  0  0  0  0  0  0  0  0  0
   11.1078  -16.1677   24.1981 C   0  0  0  0  0  0  0  0  0  0  0  0
   11.9248  -16.1194   22.9164 C   0  0  2  0  0  0  0  0  0  0  0  0
   10.9962  -16.3410   21.7997 N   0  0  0  0  0  0  0  0  0  0  0  0
   12.8729  -17.2362   22.9206 C   0  0  0  0  0  0  0  0  0  0  0  0
   14.0323  -17.1808   23.6560 O   0  0  0  0  0  0  0  0  0  0  0  0
   12.6397  -18.2664   22.2496 O   0  0  0  0  0  0  0  0  0  0  0  0
  2  1  1  1
  3  2  1  0
  3  4  1  0
  4  5  2  0
  5  6  1  0
  7  6  2  0
  8  7  1  0
  9  4  1  0
  9  8  2  0
 10 11  2  0
 10  2  1  0
 12 13  1  0
 13 14  2  0
 15 13  1  0
 15 16  1  0
 17 16  1  6
 17 18  1  0
 18 10  1  0
 19 29  1  0
 19 17  1  0
 20 19  2  0
 22 21  1  0
 22 23  2  0
 24 22  1  0
 25 24  1  0
 26 27  1  0
 26 25  1  0
 28 27  1  1
 28 29  1  0
 28 30  1  0
 30 31  1  0
 32 30  2  0
M  END
$$$$
