FQR.pdb
     RDKit          3D

 32 32  0  0  1  0  0  0  0  0999 V2000
    8.4046  -14.3755   15.8166 N   0  0  0  0  0  0  0  0  0  0  0  0
    8.7605  -13.9235   17.1567 C   0  0  1  0  0  0  0  0  0  0  0  0
    7.4243  -13.6547   17.8397 C   0  0  0  0  0  0  0  0  0  0  0  0
    7.6325  -13.5346   19.2880 C   0  0  0  0  0  0  0  0  0  0  0  0
    8.0689  -12.3055   19.7891 C   0  0  0  0  0  0  0  0  0  0  0  0
    8.3009  -12.1064   21.1293 C   0  0  0  0  0  0  0  0  0  0  0  0
    8.0925  -13.1619   21.9881 C   0  0  0  0  0  0  0  0  0  0  0  0
    7.6560  -14.4125   21.5447 C   0  0  0  0  0  0  0  0  0  0  0  0
    7.4453  -14.5395   20.2065 C   0  0  0  0  0  0  0  0  0  0  0  0
    9.4291  -15.0814   17.8378 C   0  0  0  0  0  0  0  0  0  0  0  0
    9.0148  -16.2238   17.6246 O   0  0  0  0  0  0  0  0  0  0  0  0
   14.7817  -14.8268   16.3588 N   0  0  0  0  0  0  0  0  0  0  0  0
   14.7003  -14.5396   17.7690 C   0  0  0  0  0  0  0  0  0  0  0  0
   15.7706  -14.3396   18.3827 O   0  0  0  0  0  0  0  0  0  0  0  0
   13.3456  -14.5075   18.3693 C   0  0  0  0  0  0  0  0  0  0  0  0
   12.7339  -15.8452   18.6152 C   0  0  0  0  0  0  0  0  0  0  0  0
   11.3767  -15.7885   19.2814 C   0  0  2  0  0  0  0  0  0  0  0  0
   10.5020  -14.8153   18.6865 N   0  0  0  0  0  0  0  0  0  0  0  0
   11.5849  -15.6175   20.7342 C   0  0  0  0  0  0  0  0  0  0  0  0
   11.9528  -14.4691   21.1720 O   0  0  0  0  0  0  0  0  0  0  0  0
   12.3589  -21.5910   24.9753 N   0  0  0  0  0  0  0  0  0  0  0  0
   12.7119  -21.0865   26.2696 C   0  0  0  0  0  0  0  0  0  0  0  0
   13.3619  -21.7982   27.0962 N   0  0  0  0  0  0  0  0  0  0  0  0
   12.3433  -19.7746   26.6467 N   0  0  0  0  0  0  0  0  0  0  0  0
   11.4077  -19.0001   25.9214 C   0  0  0  0  0  0  0  0  0  0  0  0
   11.9319  -17.7565   25.2733 C   0  0  0  0  0  0  0  0  0  0  0  0
   11.3609  -17.6414   23.8926 C   0  0  0  0  0  0  0  0  0  0  0  0
   11.8517  -16.4335   23.1097 C   0  0  2  0  0  0  0  0  0  0  0  0
   11.4141  -16.6096   21.7184 N   0  0  0  0  0  0  0  0  0  0  0  0
   13.3165  -16.4377   23.1080 C   0  0  0  0  0  0  0  0  0  0  0  0
   14.0301  -15.6745   24.0005 O   0  0  0  0  0  0  0  0  0  0  0  0
   13.9461  -17.1422   22.2874 O   0  0  0  0  0  0  0  0  0  0  0  0
  2  1  1  6
  3  2  1  0
  3  4  1  0
  4  5  2  0
  5  6  1  0
  7  6  2  0
  8  7  1  0
  9  4  1  0
  9  8  2  0
 10 11  2  0
 10  2  1  0
 12 13  1  0
 13 14  2  0
 15 13  1  0
 15 16  1  0
 17 16  1  6
 17 18  1  0
 18 10  1  0
 19 29  1  0
 19 17  1  0
 20 19  2  0
 22 21  1  0
 22 23  2  0
 24 22  1  0
 25 24  1  0
 26 27  1  0
 26 25  1  0
 28 27  1  1
 28 29  1  0
 28 30  1  0
 30 31  1  0
 32 30  2  0
M  END
$$$$
