FQR.pdb
     RDKit          3D

 32 32  0  0  1  0  0  0  0  0999 V2000
    5.7443  -17.1398   26.2133 N   0  0  0  0  0  0  0  0  0  0  0  0
    6.2161  -15.9005   25.6063 C   0  0  1  0  0  0  0  0  0  0  0  0
    6.9636  -15.1841   26.7252 C   0  0  0  0  0  0  0  0  0  0  0  0
    6.8498  -13.7327   26.5362 C   0  0  0  0  0  0  0  0  0  0  0  0
    8.0151  -13.0129   26.2600 C   0  0  0  0  0  0  0  0  0  0  0  0
    8.0039  -11.6501   26.0803 C   0  0  0  0  0  0  0  0  0  0  0  0
    6.7990  -10.9918   26.1803 C   0  0  0  0  0  0  0  0  0  0  0  0
    5.6024  -11.6588   26.4534 C   0  0  0  0  0  0  0  0  0  0  0  0
    5.6859  -13.0066   26.6192 C   0  0  0  0  0  0  0  0  0  0  0  0
    7.1969  -16.2901   24.5396 C   0  0  0  0  0  0  0  0  0  0  0  0
    8.0263  -17.1715   24.7800 O   0  0  0  0  0  0  0  0  0  0  0  0
    6.9156  -13.7022   18.6448 N   0  0  0  0  0  0  0  0  0  0  0  0
    8.2726  -13.5475   19.1056 C   0  0  0  0  0  0  0  0  0  0  0  0
    9.0297  -12.8075   18.4412 O   0  0  0  0  0  0  0  0  0  0  0  0
    8.6516  -14.2851   20.3339 C   0  0  0  0  0  0  0  0  0  0  0  0
    7.5542  -15.0829   20.9532 C   0  0  0  0  0  0  0  0  0  0  0  0
    7.9777  -15.8676   22.1755 C   0  0  2  0  0  0  0  0  0  0  0  0
    7.1262  -15.6373   23.3104 N   0  0  0  0  0  0  0  0  0  0  0  0
    9.4099  -15.5993   22.4203 C   0  0  0  0  0  0  0  0  0  0  0  0
    9.7571  -14.4313   22.8220 O   0  0  0  0  0  0  0  0  0  0  0  0
   12.3399  -21.8097   23.2351 N   0  0  0  0  0  0  0  0  0  0  0  0
   11.3356  -21.6466   24.2448 C   0  0  0  0  0  0  0  0  0  0  0  0
   10.4615  -22.5440   24.4515 N   0  0  0  0  0  0  0  0  0  0  0  0
   11.3067  -20.4758   25.0369 N   0  0  0  0  0  0  0  0  0  0  0  0
   12.0646  -19.3212   24.7307 C   0  0  0  0  0  0  0  0  0  0  0  0
   11.3809  -18.2743   23.9074 C   0  0  0  0  0  0  0  0  0  0  0  0
   12.3554  -17.1804   23.5920 C   0  0  0  0  0  0  0  0  0  0  0  0
   11.8639  -16.1824   22.5552 C   0  0  2  0  0  0  0  0  0  0  0  0
   10.4647  -16.5174   22.2577 N   0  0  0  0  0  0  0  0  0  0  0  0
   12.6279  -16.3728   21.3198 C   0  0  0  0  0  0  0  0  0  0  0  0
   13.9560  -16.0281   21.2457 O   0  0  0  0  0  0  0  0  0  0  0  0
   12.0788  -16.8566   20.3047 O   0  0  0  0  0  0  0  0  0  0  0  0
  2  1  1  1
  3  2  1  0
  3  4  1  0
  4  5  2  0
  5  6  1  0
  7  6  2  0
  8  7  1  0
  9  4  1  0
  9  8  2  0
 10 11  2  0
 10  2  1  0
 12 13  1  0
 13 14  2  0
 15 13  1  0
 15 16  1  0
 17 16  1  6
 17 18  1  0
 18 10  1  0
 19 29  1  0
 19 17  1  0
 20 19  2  0
 22 21  1  0
 22 23  2  0
 24 22  1  0
 25 24  1  0
 26 27  1  0
 26 25  1  0
 28 27  1  1
 28 29  1  0
 28 30  1  0
 30 31  1  0
 32 30  2  0
M  END
$$$$
