FQR.pdb
     RDKit          3D

 32 32  0  0  1  0  0  0  0  0999 V2000
    6.1165  -15.6885   25.8212 N   0  0  0  0  0  0  0  0  0  0  0  0
    6.5738  -14.8343   24.7311 C   0  0  1  0  0  0  0  0  0  0  0  0
    7.5383  -13.8540   25.3889 C   0  0  0  0  0  0  0  0  0  0  0  0
    6.7762  -12.7692   26.0195 C   0  0  0  0  0  0  0  0  0  0  0  0
    6.5006  -11.6310   25.2573 C   0  0  0  0  0  0  0  0  0  0  0  0
    5.8038  -10.5626   25.7697 C   0  0  0  0  0  0  0  0  0  0  0  0
    5.3736  -10.6340   27.0754 C   0  0  0  0  0  0  0  0  0  0  0  0
    5.6189  -11.7461   27.8843 C   0  0  0  0  0  0  0  0  0  0  0  0
    6.3131  -12.7675   27.3133 C   0  0  0  0  0  0  0  0  0  0  0  0
    7.3431  -15.7136   23.7894 C   0  0  0  0  0  0  0  0  0  0  0  0
    7.8756  -16.7380   24.2246 O   0  0  0  0  0  0  0  0  0  0  0  0
    7.6330  -14.2902   17.5362 N   0  0  0  0  0  0  0  0  0  0  0  0
    8.4513  -13.5494   18.4632 C   0  0  0  0  0  0  0  0  0  0  0  0
    8.9351  -12.4655   18.0715 O   0  0  0  0  0  0  0  0  0  0  0  0
    8.6475  -14.1432   19.8068 C   0  0  0  0  0  0  0  0  0  0  0  0
    7.9162  -15.4212   20.0434 C   0  0  0  0  0  0  0  0  0  0  0  0
    8.1465  -16.0176   21.4147 C   0  0  2  0  0  0  0  0  0  0  0  0
    7.4207  -15.3347   22.4505 N   0  0  0  0  0  0  0  0  0  0  0  0
    9.6043  -16.1000   21.6409 C   0  0  0  0  0  0  0  0  0  0  0  0
   10.2427  -15.0268   21.9355 O   0  0  0  0  0  0  0  0  0  0  0  0
   13.0576  -23.1397   25.2512 N   0  0  0  0  0  0  0  0  0  0  0  0
   14.1737  -22.2458   25.3505 C   0  0  0  0  0  0  0  0  0  0  0  0
   15.2488  -22.6002   25.9255 N   0  0  0  0  0  0  0  0  0  0  0  0
   14.0955  -20.9461   24.7993 N   0  0  0  0  0  0  0  0  0  0  0  0
   12.9134  -20.4250   24.2230 C   0  0  0  0  0  0  0  0  0  0  0  0
   13.0444  -19.1228   23.4961 C   0  0  0  0  0  0  0  0  0  0  0  0
   11.6982  -18.7034   22.9885 C   0  0  0  0  0  0  0  0  0  0  0  0
   11.6972  -17.3868   22.2275 C   0  0  2  0  0  0  0  0  0  0  0  0
   10.3897  -17.2661   21.5685 N   0  0  0  0  0  0  0  0  0  0  0  0
   12.7108  -17.4530   21.1720 C   0  0  0  0  0  0  0  0  0  0  0  0
   14.0491  -17.3449   21.4645 O   0  0  0  0  0  0  0  0  0  0  0  0
   12.3713  -17.6105   19.9779 O   0  0  0  0  0  0  0  0  0  0  0  0
  2  1  1  1
  3  2  1  0
  3  4  1  0
  4  5  2  0
  5  6  1  0
  7  6  2  0
  8  7  1  0
  9  4  1  0
  9  8  2  0
 10 11  2  0
 10  2  1  0
 12 13  1  0
 13 14  2  0
 15 13  1  0
 15 16  1  0
 17 16  1  6
 17 18  1  0
 18 10  1  0
 19 29  1  0
 19 17  1  0
 20 19  2  0
 22 21  1  0
 22 23  2  0
 24 22  1  0
 25 24  1  0
 26 27  1  0
 26 25  1  0
 28 27  1  6
 28 29  1  0
 28 30  1  0
 30 31  1  0
 32 30  2  0
M  END
$$$$
