FQR.pdb
     RDKit          3D

 32 32  0  0  1  0  0  0  0  0999 V2000
    7.1144  -17.2800   18.9784 N   0  0  0  0  0  0  0  0  0  0  0  0
    7.6402  -16.3029   19.9248 C   0  0  1  0  0  0  0  0  0  0  0  0
    6.4405  -15.4356   20.2890 C   0  0  0  0  0  0  0  0  0  0  0  0
    6.8631  -14.3878   21.2265 C   0  0  0  0  0  0  0  0  0  0  0  0
    6.5726  -14.5631   22.5819 C   0  0  0  0  0  0  0  0  0  0  0  0
    6.9202  -13.6283   23.5280 C   0  0  0  0  0  0  0  0  0  0  0  0
    7.5727  -12.4911   23.1081 C   0  0  0  0  0  0  0  0  0  0  0  0
    7.8899  -12.2624   21.7672 C   0  0  0  0  0  0  0  0  0  0  0  0
    7.5175  -13.2287   20.8846 C   0  0  0  0  0  0  0  0  0  0  0  0
    8.0711  -17.0699   21.1403 C   0  0  0  0  0  0  0  0  0  0  0  0
    7.7756  -18.2643   21.2321 O   0  0  0  0  0  0  0  0  0  0  0  0
   13.2637  -18.5538   21.2075 N   0  0  0  0  0  0  0  0  0  0  0  0
   13.1334  -18.7625   22.6277 C   0  0  0  0  0  0  0  0  0  0  0  0
   14.0535  -19.3757   23.2105 O   0  0  0  0  0  0  0  0  0  0  0  0
   11.9115  -18.2282   23.2744 C   0  0  0  0  0  0  0  0  0  0  0  0
   10.9581  -17.5461   22.3525 C   0  0  0  0  0  0  0  0  0  0  0  0
    9.7332  -16.9835   23.0396 C   0  0  2  0  0  0  0  0  0  0  0  0
    8.7970  -16.3960   22.1206 N   0  0  0  0  0  0  0  0  0  0  0  0
   10.1853  -16.0775   24.1157 C   0  0  0  0  0  0  0  0  0  0  0  0
   11.3152  -15.4839   23.9859 O   0  0  0  0  0  0  0  0  0  0  0  0
    7.8299  -21.2889   23.2513 N   0  0  0  0  0  0  0  0  0  0  0  0
    6.6508  -21.5735   24.0151 C   0  0  0  0  0  0  0  0  0  0  0  0
    5.7595  -22.3638   23.5757 N   0  0  0  0  0  0  0  0  0  0  0  0
    6.4638  -20.9775   25.2835 N   0  0  0  0  0  0  0  0  0  0  0  0
    6.5562  -19.5824   25.4989 C   0  0  0  0  0  0  0  0  0  0  0  0
    7.8303  -19.0851   26.1077 C   0  0  0  0  0  0  0  0  0  0  0  0
    8.3024  -17.8815   25.3500 C   0  0  0  0  0  0  0  0  0  0  0  0
    8.9864  -16.8287   26.2082 C   0  0  2  0  0  0  0  0  0  0  0  0
    9.4855  -15.7857   25.3020 N   0  0  0  0  0  0  0  0  0  0  0  0
   10.1520  -17.4349   26.8561 C   0  0  0  0  0  0  0  0  0  0  0  0
   11.2278  -17.8697   26.1200 O   0  0  0  0  0  0  0  0  0  0  0  0
   10.1868  -17.5671   28.1000 O   0  0  0  0  0  0  0  0  0  0  0  0
  2  1  1  6
  3  2  1  0
  3  4  1  0
  4  5  2  0
  5  6  1  0
  7  6  2  0
  8  7  1  0
  9  4  1  0
  9  8  2  0
 10 11  2  0
 10  2  1  0
 12 13  1  0
 13 14  2  0
 15 13  1  0
 15 16  1  0
 17 16  1  6
 17 18  1  0
 18 10  1  0
 19 29  1  0
 19 17  1  0
 20 19  2  0
 22 21  1  0
 22 23  2  0
 24 22  1  0
 25 24  1  0
 26 27  1  0
 26 25  1  0
 28 27  1  6
 28 29  1  0
 28 30  1  0
 30 31  1  0
 32 30  2  0
M  END
$$$$
