FQR.pdb
     RDKit          3D

 32 32  0  0  1  0  0  0  0  0999 V2000
    5.7750  -16.2784   25.1368 N   0  0  0  0  0  0  0  0  0  0  0  0
    6.7011  -15.5104   24.3125 C   0  0  1  0  0  0  0  0  0  0  0  0
    7.6072  -14.7998   25.3116 C   0  0  0  0  0  0  0  0  0  0  0  0
    6.9526  -13.5700   25.7746 C   0  0  0  0  0  0  0  0  0  0  0  0
    7.4242  -12.3500   25.2833 C   0  0  0  0  0  0  0  0  0  0  0  0
    6.8791  -11.1491   25.6711 C   0  0  0  0  0  0  0  0  0  0  0  0
    5.8386  -11.1692   26.5722 C   0  0  0  0  0  0  0  0  0  0  0  0
    5.3252  -12.3580   27.0961 C   0  0  0  0  0  0  0  0  0  0  0  0
    5.9109  -13.5093   26.6689 C   0  0  0  0  0  0  0  0  0  0  0  0
    7.5167  -16.5056   23.5405 C   0  0  0  0  0  0  0  0  0  0  0  0
    6.9854  -17.5534   23.1634 O   0  0  0  0  0  0  0  0  0  0  0  0
    6.9396  -17.7630   19.7128 N   0  0  0  0  0  0  0  0  0  0  0  0
    7.6580  -16.5241   19.5490 C   0  0  0  0  0  0  0  0  0  0  0  0
    8.4449  -16.4336   18.5821 O   0  0  0  0  0  0  0  0  0  0  0  0
    7.3981  -15.4614   20.5487 C   0  0  0  0  0  0  0  0  0  0  0  0
    8.6155  -14.8997   21.2018 C   0  0  0  0  0  0  0  0  0  0  0  0
    9.4174  -15.9150   21.9862 C   0  0  2  0  0  0  0  0  0  0  0  0
    8.8503  -16.1996   23.2760 N   0  0  0  0  0  0  0  0  0  0  0  0
   10.8232  -15.4617   22.0220 C   0  0  0  0  0  0  0  0  0  0  0  0
   11.0784  -14.2827   22.4588 O   0  0  0  0  0  0  0  0  0  0  0  0
   10.9087  -19.0011   28.3651 N   0  0  0  0  0  0  0  0  0  0  0  0
    9.8627  -18.5400   27.5003 C   0  0  0  0  0  0  0  0  0  0  0  0
    8.7170  -18.2405   27.9584 N   0  0  0  0  0  0  0  0  0  0  0  0
   10.0950  -18.4048   26.1122 N   0  0  0  0  0  0  0  0  0  0  0  0
   11.3278  -18.7366   25.5029 C   0  0  0  0  0  0  0  0  0  0  0  0
   12.0657  -17.6160   24.8387 C   0  0  0  0  0  0  0  0  0  0  0  0
   12.1106  -17.8622   23.3611 C   0  0  0  0  0  0  0  0  0  0  0  0
   12.8832  -16.8151   22.5741 C   0  0  2  0  0  0  0  0  0  0  0  0
   11.9457  -16.2096   21.6187 N   0  0  0  0  0  0  0  0  0  0  0  0
   13.9247  -17.4873   21.7935 C   0  0  0  0  0  0  0  0  0  0  0  0
   15.2508  -17.1637   21.9513 O   0  0  0  0  0  0  0  0  0  0  0  0
   13.6208  -18.3739   20.9644 O   0  0  0  0  0  0  0  0  0  0  0  0
  2  1  1  1
  3  2  1  0
  3  4  1  0
  4  5  2  0
  5  6  1  0
  7  6  2  0
  8  7  1  0
  9  4  1  0
  9  8  2  0
 10 11  2  0
 10  2  1  0
 12 13  1  0
 13 14  2  0
 15 13  1  0
 15 16  1  0
 17 16  1  1
 17 18  1  0
 18 10  1  0
 19 29  1  0
 19 17  1  0
 20 19  2  0
 22 21  1  0
 22 23  2  0
 24 22  1  0
 25 24  1  0
 26 27  1  0
 26 25  1  0
 28 27  1  6
 28 29  1  0
 28 30  1  0
 30 31  1  0
 32 30  2  0
M  END
$$$$
