FQR.pdb
     RDKit          3D

 32 32  0  0  1  0  0  0  0  0999 V2000
    8.4256  -16.3899   16.6638 N   0  0  0  0  0  0  0  0  0  0  0  0
    8.7915  -15.4380   17.7064 C   0  0  1  0  0  0  0  0  0  0  0  0
    7.5260  -15.2758   18.5408 C   0  0  0  0  0  0  0  0  0  0  0  0
    7.8311  -14.4875   19.7411 C   0  0  0  0  0  0  0  0  0  0  0  0
    8.3008  -13.1829   19.5682 C   0  0  0  0  0  0  0  0  0  0  0  0
    8.6225  -12.3774   20.6347 C   0  0  0  0  0  0  0  0  0  0  0  0
    8.4719  -12.8894   21.9037 C   0  0  0  0  0  0  0  0  0  0  0  0
    8.0060  -14.1853   22.1373 C   0  0  0  0  0  0  0  0  0  0  0  0
    7.7057  -14.9272   21.0370 C   0  0  0  0  0  0  0  0  0  0  0  0
    9.8437  -16.1021   18.5451 C   0  0  0  0  0  0  0  0  0  0  0  0
    9.7534  -17.3110   18.7750 O   0  0  0  0  0  0  0  0  0  0  0  0
   15.4376  -13.4609   18.5995 N   0  0  0  0  0  0  0  0  0  0  0  0
   15.0460  -14.5808   17.7809 C   0  0  0  0  0  0  0  0  0  0  0  0
   15.8249  -14.9330   16.8691 O   0  0  0  0  0  0  0  0  0  0  0  0
   13.7457  -15.2186   18.0954 C   0  0  0  0  0  0  0  0  0  0  0  0
   13.2879  -15.0535   19.5051 C   0  0  0  0  0  0  0  0  0  0  0  0
   11.9979  -15.7777   19.8224 C   0  0  2  0  0  0  0  0  0  0  0  0
   10.8899  -15.3193   19.0297 N   0  0  0  0  0  0  0  0  0  0  0  0
   11.7777  -15.7060   21.2817 C   0  0  0  0  0  0  0  0  0  0  0  0
   12.0841  -14.6230   21.8976 O   0  0  0  0  0  0  0  0  0  0  0  0
    5.9065  -20.8121   24.2295 N   0  0  0  0  0  0  0  0  0  0  0  0
    6.5324  -20.0555   25.2737 C   0  0  0  0  0  0  0  0  0  0  0  0
    6.2827  -20.2928   26.4958 N   0  0  0  0  0  0  0  0  0  0  0  0
    7.4500  -19.0278   24.9557 N   0  0  0  0  0  0  0  0  0  0  0  0
    8.1145  -18.9488   23.7094 C   0  0  0  0  0  0  0  0  0  0  0  0
    8.8283  -17.6662   23.4150 C   0  0  0  0  0  0  0  0  0  0  0  0
   10.1984  -17.7137   24.0204 C   0  0  0  0  0  0  0  0  0  0  0  0
   11.1303  -16.6077   23.5506 C   0  0  2  0  0  0  0  0  0  0  0  0
   11.2488  -16.7291   22.0913 N   0  0  0  0  0  0  0  0  0  0  0  0
   12.4614  -16.8428   24.1152 C   0  0  0  0  0  0  0  0  0  0  0  0
   13.5141  -17.2232   23.3181 O   0  0  0  0  0  0  0  0  0  0  0  0
   12.6625  -16.6995   25.3420 O   0  0  0  0  0  0  0  0  0  0  0  0
  2  1  1  6
  3  2  1  0
  3  4  1  0
  4  5  2  0
  5  6  1  0
  7  6  2  0
  8  7  1  0
  9  4  1  0
  9  8  2  0
 10 11  2  0
 10  2  1  0
 12 13  1  0
 13 14  2  0
 15 13  1  0
 15 16  1  0
 17 16  1  1
 17 18  1  0
 18 10  1  0
 19 29  1  0
 19 17  1  0
 20 19  2  0
 22 21  1  0
 22 23  2  0
 24 22  1  0
 25 24  1  0
 26 27  1  0
 26 25  1  0
 28 27  1  1
 28 29  1  0
 28 30  1  0
 30 31  1  0
 32 30  2  0
M  END
$$$$
