FQR.pdb
     RDKit          3D

 32 32  0  0  1  0  0  0  0  0999 V2000
    8.0947  -16.1034   16.7775 N   0  0  0  0  0  0  0  0  0  0  0  0
    8.6017  -14.9155   17.4549 C   0  0  1  0  0  0  0  0  0  0  0  0
    7.3771  -14.3020   18.1243 C   0  0  0  0  0  0  0  0  0  0  0  0
    7.7974  -13.1863   18.9809 C   0  0  0  0  0  0  0  0  0  0  0  0
    7.4958  -13.2548   20.3436 C   0  0  0  0  0  0  0  0  0  0  0  0
    7.8405  -12.2509   21.2170 C   0  0  0  0  0  0  0  0  0  0  0  0
    8.5014  -11.1523   20.7155 C   0  0  0  0  0  0  0  0  0  0  0  0
    8.8299  -11.0296   19.3634 C   0  0  0  0  0  0  0  0  0  0  0  0
    8.4597  -12.0598   18.5555 C   0  0  0  0  0  0  0  0  0  0  0  0
    9.5455  -15.3964   18.5177 C   0  0  0  0  0  0  0  0  0  0  0  0
    9.2572  -16.4072   19.1638 O   0  0  0  0  0  0  0  0  0  0  0  0
   15.5654  -13.7587   17.8788 N   0  0  0  0  0  0  0  0  0  0  0  0
   15.6538  -14.6291   19.0243 C   0  0  0  0  0  0  0  0  0  0  0  0
   16.7935  -14.9768   19.4017 O   0  0  0  0  0  0  0  0  0  0  0  0
   14.3768  -15.0373   19.6561 C   0  0  0  0  0  0  0  0  0  0  0  0
   13.1518  -14.4639   19.0278 C   0  0  0  0  0  0  0  0  0  0  0  0
   11.8646  -15.1191   19.4782 C   0  0  2  0  0  0  0  0  0  0  0  0
   10.7203  -14.6770   18.7290 N   0  0  0  0  0  0  0  0  0  0  0  0
   11.7453  -14.9407   20.9401 C   0  0  0  0  0  0  0  0  0  0  0  0
   11.0719  -13.9435   21.3853 O   0  0  0  0  0  0  0  0  0  0  0  0
    7.2971  -17.2619   25.7193 N   0  0  0  0  0  0  0  0  0  0  0  0
    7.0417  -18.4528   24.9637 C   0  0  0  0  0  0  0  0  0  0  0  0
    6.5218  -19.4757   25.5072 N   0  0  0  0  0  0  0  0  0  0  0  0
    7.3625  -18.5047   23.5876 N   0  0  0  0  0  0  0  0  0  0  0  0
    8.6736  -18.7414   23.1120 C   0  0  0  0  0  0  0  0  0  0  0  0
    9.7611  -17.9050   23.7112 C   0  0  0  0  0  0  0  0  0  0  0  0
   10.4450  -17.1325   22.6245 C   0  0  0  0  0  0  0  0  0  0  0  0
   11.5601  -16.2197   23.1104 C   0  0  2  0  0  0  0  0  0  0  0  0
   12.3062  -15.7753   21.9254 N   0  0  0  0  0  0  0  0  0  0  0  0
   12.4828  -17.0027   23.9359 C   0  0  0  0  0  0  0  0  0  0  0  0
   13.4851  -17.7507   23.3666 O   0  0  0  0  0  0  0  0  0  0  0  0
   12.3720  -17.0025   25.1823 O   0  0  0  0  0  0  0  0  0  0  0  0
  2  1  1  6
  3  2  1  0
  3  4  1  0
  4  5  2  0
  5  6  1  0
  7  6  2  0
  8  7  1  0
  9  4  1  0
  9  8  2  0
 10 11  2  0
 10  2  1  0
 12 13  1  0
 13 14  2  0
 15 13  1  0
 15 16  1  0
 17 16  1  6
 17 18  1  0
 18 10  1  0
 19 29  1  0
 19 17  1  0
 20 19  2  0
 22 21  1  0
 22 23  2  0
 24 22  1  0
 25 24  1  0
 26 27  1  0
 26 25  1  0
 28 27  1  6
 28 29  1  0
 28 30  1  0
 30 31  1  0
 32 30  2  0
M  END
$$$$
