LCK.pdb
     RDKit          3D

 24 23  0  0  1  0  0  0  0  0999 V2000
    9.7091  -13.1037   19.1425 C   0  0  0  0  0  0  0  0  0  0  0  0
    8.2155  -13.1441   18.8977 C   0  0  2  0  0  0  0  0  0  0  0  0
    7.6383  -11.8766   19.5417 C   0  0  0  0  0  0  0  0  0  0  0  0
    7.6550  -14.3048   19.6898 C   0  0  0  0  0  0  0  0  0  0  0  0
    8.2069  -15.6288   19.2142 C   0  0  2  0  0  0  0  0  0  0  0  0
    7.2718  -16.2494   18.3312 N   0  0  0  0  0  0  0  0  0  0  0  0
    8.4271  -16.4545   20.4563 C   0  0  0  0  0  0  0  0  0  0  0  0
    7.4328  -16.8314   21.1341 O   0  0  0  0  0  0  0  0  0  0  0  0
    9.7336  -16.8050   20.8607 N   0  0  0  0  0  0  0  0  0  0  0  0
    9.8922  -17.6055   22.0722 C   0  0  1  0  0  0  0  0  0  0  0  0
   10.7313  -18.8035   21.6824 C   0  0  0  0  0  0  0  0  0  0  0  0
   11.1674  -19.8579   23.0688 S   0  0  0  0  0  0  0  0  0  0  0  0
   10.5799  -16.8309   23.1190 C   0  0  0  0  0  0  0  0  0  0  0  0
   11.6060  -16.1571   22.7624 O   0  0  0  0  0  0  0  0  0  0  0  0
   10.2300  -16.7464   24.4760 N   0  0  0  0  0  0  0  0  0  0  0  0
   11.0057  -15.8570   25.4267 C   0  0  1  0  0  0  0  0  0  0  0  0
   10.1545  -15.7423   26.6366 C   0  0  0  0  0  0  0  0  0  0  0  0
   10.5902  -15.1360   27.8779 C   0  0  0  0  0  0  0  0  0  0  0  0
    9.7431  -15.0336   29.0741 C   0  0  0  0  0  0  0  0  0  0  0  0
   10.5103  -14.2376   30.1733 C   0  0  0  0  0  0  0  0  0  0  0  0
    9.6688  -13.9956   31.3052 N   0  0  0  0  0  0  0  0  0  0  0  0
   12.2134  -16.6640   25.7041 C   0  0  0  0  0  0  0  0  0  0  0  0
   12.0995  -18.0681   25.8056 O   0  0  0  0  0  0  0  0  0  0  0  0
   13.3504  -16.2249   25.8627 O   0  0  0  0  0  0  0  0  0  0  0  0
  2  1  1  1
  3  2  1  0
  4  2  1  0
  4  5  1  0
  5  6  1  6
  7  5  1  0
  7  8  2  0
  9  7  1  0
 10  9  1  0
 10 11  1  6
 11 12  1  0
 13 10  1  0
 14 13  2  0
 15 13  1  0
 16 17  1  1
 16 15  1  0
 17 18  1  0
 19 18  1  0
 20 21  1  0
 20 19  1  0
 22 16  1  0
 23 22  1  0
 24 22  2  0
M  END
$$$$
