LCK.pdb
     RDKit          3D

 24 23  0  0  1  0  0  0  0  0999 V2000
    6.0331  -12.2212   25.5979 C   0  0  0  0  0  0  0  0  0  0  0  0
    6.3875  -13.1980   26.6991 C   0  0  2  0  0  0  0  0  0  0  0  0
    7.2840  -12.4334   27.6819 C   0  0  0  0  0  0  0  0  0  0  0  0
    7.2605  -14.2735   26.0908 C   0  0  0  0  0  0  0  0  0  0  0  0
    6.5363  -15.0404   25.0086 C   0  0  2  0  0  0  0  0  0  0  0  0
    5.4999  -15.8309   25.5920 N   0  0  0  0  0  0  0  0  0  0  0  0
    7.5802  -15.9005   24.3429 C   0  0  0  0  0  0  0  0  0  0  0  0
    7.8681  -17.0227   24.8409 O   0  0  0  0  0  0  0  0  0  0  0  0
    8.2325  -15.4574   23.1717 N   0  0  0  0  0  0  0  0  0  0  0  0
    9.2042  -16.3473   22.5413 C   0  0  1  0  0  0  0  0  0  0  0  0
    9.4787  -15.7716   21.1686 C   0  0  0  0  0  0  0  0  0  0  0  0
   10.3305  -14.1915   21.2083 S   0  0  0  0  0  0  0  0  0  0  0  0
   10.4505  -16.3922   23.3245 C   0  0  0  0  0  0  0  0  0  0  0  0
   10.7271  -15.3655   24.0339 O   0  0  0  0  0  0  0  0  0  0  0  0
   11.3754  -17.4468   23.3822 N   0  0  0  0  0  0  0  0  0  0  0  0
   12.5975  -17.3633   24.2746 C   0  0  1  0  0  0  0  0  0  0  0  0
   12.7323  -18.7115   24.8794 C   0  0  0  0  0  0  0  0  0  0  0  0
   12.8150  -18.9541   26.3051 C   0  0  0  0  0  0  0  0  0  0  0  0
   11.6638  -18.8634   27.2135 C   0  0  0  0  0  0  0  0  0  0  0  0
   12.1660  -18.9873   28.6842 C   0  0  0  0  0  0  0  0  0  0  0  0
   11.0985  -18.7485   29.6069 N   0  0  0  0  0  0  0  0  0  0  0  0
   13.6836  -17.1079   23.3042 C   0  0  0  0  0  0  0  0  0  0  0  0
   14.9103  -16.5780   23.7617 O   0  0  0  0  0  0  0  0  0  0  0  0
   13.6295  -17.3152   22.0939 O   0  0  0  0  0  0  0  0  0  0  0  0
  2  1  1  6
  3  2  1  0
  4  2  1  0
  4  5  1  0
  5  6  1  1
  7  5  1  0
  7  8  2  0
  9  7  1  0
 10  9  1  0
 10 11  1  6
 11 12  1  0
 13 10  1  0
 14 13  2  0
 15 13  1  0
 16 17  1  6
 16 15  1  0
 17 18  1  0
 19 18  1  0
 20 21  1  0
 20 19  1  0
 22 16  1  0
 23 22  1  0
 24 22  2  0
M  END
$$$$
