LCK.pdb
     RDKit          3D

 24 23  0  0  1  0  0  0  0  0999 V2000
    8.3246  -13.9976   18.4827 C   0  0  0  0  0  0  0  0  0  0  0  0
    7.4657  -13.3301   19.5359 C   0  0  2  0  0  0  0  0  0  0  0  0
    7.4532  -11.8336   19.1973 C   0  0  0  0  0  0  0  0  0  0  0  0
    8.1902  -13.4508   20.8586 C   0  0  0  0  0  0  0  0  0  0  0  0
    8.1512  -14.8633   21.3943 C   0  0  2  0  0  0  0  0  0  0  0  0
    6.8026  -15.3329   21.4119 N   0  0  0  0  0  0  0  0  0  0  0  0
    8.7312  -14.7940   22.7842 C   0  0  0  0  0  0  0  0  0  0  0  0
    9.9519  -14.5145   22.9329 O   0  0  0  0  0  0  0  0  0  0  0  0
    7.9184  -15.0391   23.9123 N   0  0  0  0  0  0  0  0  0  0  0  0
    8.5467  -15.0431   25.2309 C   0  0  1  0  0  0  0  0  0  0  0  0
    7.5676  -14.3713   26.1695 C   0  0  0  0  0  0  0  0  0  0  0  0
    5.8993  -15.0259   26.0579 S   0  0  0  0  0  0  0  0  0  0  0  0
    8.8043  -16.4223   25.6782 C   0  0  0  0  0  0  0  0  0  0  0  0
    7.8511  -17.2633   25.5439 O   0  0  0  0  0  0  0  0  0  0  0  0
    9.9909  -16.9221   26.2378 N   0  0  0  0  0  0  0  0  0  0  0  0
   10.1054  -18.3755   26.6515 C   0  0  1  0  0  0  0  0  0  0  0  0
   11.0795  -18.9751   25.7064 C   0  0  0  0  0  0  0  0  0  0  0  0
   10.9120  -18.9814   24.2675 C   0  0  0  0  0  0  0  0  0  0  0  0
   11.9110  -19.5210   23.3350 C   0  0  0  0  0  0  0  0  0  0  0  0
   11.4717  -19.1949   21.8752 C   0  0  0  0  0  0  0  0  0  0  0  0
   12.4703  -19.6131   20.9392 N   0  0  0  0  0  0  0  0  0  0  0  0
   10.6798  -18.2756   28.0104 C   0  0  0  0  0  0  0  0  0  0  0  0
   10.9886  -17.0031   28.5396 O   0  0  0  0  0  0  0  0  0  0  0  0
   10.9276  -19.2199   28.7572 O   0  0  0  0  0  0  0  0  0  0  0  0
  2  1  1  6
  3  2  1  0
  4  2  1  0
  4  5  1  0
  5  6  1  1
  7  5  1  0
  7  8  2  0
  9  7  1  0
 10  9  1  0
 10 11  1  1
 11 12  1  0
 13 10  1  0
 14 13  2  0
 15 13  1  0
 16 17  1  6
 16 15  1  0
 17 18  1  0
 19 18  1  0
 20 21  1  0
 20 19  1  0
 22 16  1  0
 23 22  1  0
 24 22  2  0
M  END
$$$$
