LCK.pdb
     RDKit          3D

 24 23  0  0  1  0  0  0  0  0999 V2000
    8.2434  -14.0949   18.0294 C   0  0  0  0  0  0  0  0  0  0  0  0
    7.6995  -13.4993   19.3108 C   0  0  2  0  0  0  0  0  0  0  0  0
    7.6317  -11.9829   19.0869 C   0  0  0  0  0  0  0  0  0  0  0  0
    8.7380  -13.7139   20.3898 C   0  0  0  0  0  0  0  0  0  0  0  0
    8.8439  -15.1681   20.7871 C   0  0  2  0  0  0  0  0  0  0  0  0
    7.5367  -15.7327   20.8953 N   0  0  0  0  0  0  0  0  0  0  0  0
    9.5645  -15.1831   22.1112 C   0  0  0  0  0  0  0  0  0  0  0  0
   10.7352  -14.7200   22.1849 O   0  0  0  0  0  0  0  0  0  0  0  0
    8.9379  -15.7100   23.2615 N   0  0  0  0  0  0  0  0  0  0  0  0
    9.7202  -15.8128   24.4907 C   0  0  1  0  0  0  0  0  0  0  0  0
    8.8186  -15.3352   25.6087 C   0  0  0  0  0  0  0  0  0  0  0  0
    7.1237  -15.9090   25.4610 S   0  0  0  0  0  0  0  0  0  0  0  0
   10.1235  -17.2082   24.7333 C   0  0  0  0  0  0  0  0  0  0  0  0
    9.2134  -18.1004   24.6359 O   0  0  0  0  0  0  0  0  0  0  0  0
   11.4076  -17.6728   25.0596 N   0  0  0  0  0  0  0  0  0  0  0  0
   11.6659  -19.1473   25.2958 C   0  0  1  0  0  0  0  0  0  0  0  0
   12.9736  -19.4229   24.6511 C   0  0  0  0  0  0  0  0  0  0  0  0
   13.1542  -19.5804   23.2225 C   0  0  0  0  0  0  0  0  0  0  0  0
   14.0081  -18.7038   22.4093 C   0  0  0  0  0  0  0  0  0  0  0  0
   13.7729  -19.0217   20.9014 C   0  0  0  0  0  0  0  0  0  0  0  0
   14.5644  -18.1649   20.0724 N   0  0  0  0  0  0  0  0  0  0  0  0
   11.7767  -19.2194   26.7686 C   0  0  0  0  0  0  0  0  0  0  0  0
   11.9062  -20.4800   27.3922 O   0  0  0  0  0  0  0  0  0  0  0  0
   11.7666  -18.2608   27.5378 O   0  0  0  0  0  0  0  0  0  0  0  0
  2  1  1  6
  3  2  1  0
  4  2  1  0
  4  5  1  0
  5  6  1  1
  7  5  1  0
  7  8  2  0
  9  7  1  0
 10  9  1  0
 10 11  1  1
 11 12  1  0
 13 10  1  0
 14 13  2  0
 15 13  1  0
 16 17  1  6
 16 15  1  0
 17 18  1  0
 19 18  1  0
 20 21  1  0
 20 19  1  0
 22 16  1  0
 23 22  1  0
 24 22  2  0
M  END
$$$$
