LCK.pdb
     RDKit          3D

 24 23  0  0  1  0  0  0  0  0999 V2000
    7.1540  -13.9707   17.6919 C   0  0  0  0  0  0  0  0  0  0  0  0
    6.8718  -13.5324   19.1134 C   0  0  2  0  0  0  0  0  0  0  0  0
    6.4938  -12.0471   19.0399 C   0  0  0  0  0  0  0  0  0  0  0  0
    8.1770  -13.5917   19.8763 C   0  0  0  0  0  0  0  0  0  0  0  0
    8.6643  -15.0119   20.0472 C   0  0  2  0  0  0  0  0  0  0  0  0
    7.5601  -15.8652   20.3503 N   0  0  0  0  0  0  0  0  0  0  0  0
    9.6606  -14.9733   21.1781 C   0  0  0  0  0  0  0  0  0  0  0  0
   10.6642  -14.2144   21.0941 O   0  0  0  0  0  0  0  0  0  0  0  0
    9.4755  -15.7782   22.3232 N   0  0  0  0  0  0  0  0  0  0  0  0
   10.4764  -15.7128   23.3849 C   0  0  1  0  0  0  0  0  0  0  0  0
    9.9499  -16.5675   24.5178 C   0  0  0  0  0  0  0  0  0  0  0  0
   11.1530  -16.8584   25.8185 S   0  0  0  0  0  0  0  0  0  0  0  0
   11.7669  -16.2435   22.9143 C   0  0  0  0  0  0  0  0  0  0  0  0
   11.7600  -17.4138   22.4001 O   0  0  0  0  0  0  0  0  0  0  0  0
   13.0144  -15.6014   22.9647 N   0  0  0  0  0  0  0  0  0  0  0  0
   14.1937  -16.1268   22.1710 C   0  0  1  0  0  0  0  0  0  0  0  0
   14.4987  -15.0678   21.1775 C   0  0  0  0  0  0  0  0  0  0  0  0
   15.5847  -15.1433   20.2219 C   0  0  0  0  0  0  0  0  0  0  0  0
   15.8790  -14.0903   19.2404 C   0  0  0  0  0  0  0  0  0  0  0  0
   17.1513  -14.4896   18.4329 C   0  0  0  0  0  0  0  0  0  0  0  0
   17.3597  -13.5924   17.3377 N   0  0  0  0  0  0  0  0  0  0  0  0
   15.2555  -16.2116   23.1966 C   0  0  0  0  0  0  0  0  0  0  0  0
   14.9906  -15.7553   24.5067 O   0  0  0  0  0  0  0  0  0  0  0  0
   16.3891  -16.6537   23.0226 O   0  0  0  0  0  0  0  0  0  0  0  0
  2  1  1  6
  3  2  1  0
  4  2  1  0
  4  5  1  0
  5  6  1  1
  7  5  1  0
  7  8  2  0
  9  7  1  0
 10  9  1  0
 10 11  1  1
 11 12  1  0
 13 10  1  0
 14 13  2  0
 15 13  1  0
 16 17  1  6
 16 15  1  0
 17 18  1  0
 19 18  1  0
 20 21  1  0
 20 19  1  0
 22 16  1  0
 23 22  1  0
 24 22  2  0
M  END
$$$$
