LCK.pdb
     RDKit          3D

 24 23  0  0  1  0  0  0  0  0999 V2000
    4.9399  -84.9693   47.7783 C   0  0  0  0  0  0  0  0  0  0  0  0
    5.7218  -83.9647   48.5981 C   0  0  2  0  0  0  0  0  0  0  0  0
    7.1103  -83.8685   47.9524 C   0  0  0  0  0  0  0  0  0  0  0  0
    5.9415  -84.5671   49.9684 C   0  0  0  0  0  0  0  0  0  0  0  0
    6.8052  -83.6839   50.8389 C   0  0  2  0  0  0  0  0  0  0  0  0
    6.6703  -84.0771   52.2051 N   0  0  0  0  0  0  0  0  0  0  0  0
    6.3124  -82.2765   50.6168 C   0  0  0  0  0  0  0  0  0  0  0  0
    6.7309  -81.6229   49.6229 O   0  0  0  0  0  0  0  0  0  0  0  0
    5.3901  -81.6914   51.5115 N   0  0  0  0  0  0  0  0  0  0  0  0
    5.9078  -81.0379   52.7108 C   0  0  1  0  0  0  0  0  0  0  0  0
    7.3700  -81.4179   52.8035 C   0  0  0  0  0  0  0  0  0  0  0  0
    8.4890  -80.0881   52.3526 S   0  0  0  0  0  0  0  0  0  0  0  0
    5.7760  -79.5752   52.6021 C   0  0  0  0  0  0  0  0  0  0  0  0
    6.3906  -78.8709   53.4740 O   0  0  0  0  0  0  0  0  0  0  0  0
    5.0469  -78.8611   51.6379 N   0  0  0  0  0  0  0  0  0  0  0  0
    4.2751  -77.6117   52.0122 C   0  0  1  0  0  0  0  0  0  0  0  0
    5.2691  -76.7161   52.6536 C   0  0  0  0  0  0  0  0  0  0  0  0
    6.2031  -77.1435   53.6750 C   0  0  0  0  0  0  0  0  0  0  0  0
    7.2667  -76.2855   54.2147 C   0  0  0  0  0  0  0  0  0  0  0  0
    8.6415  -76.7740   53.6652 C   0  0  0  0  0  0  0  0  0  0  0  0
    9.4712  -75.6625   53.3131 N   0  0  0  0  0  0  0  0  0  0  0  0
    3.8621  -77.0854   50.6936 C   0  0  0  0  0  0  0  0  0  0  0  0
    4.0429  -75.7141   50.4080 O   0  0  0  0  0  0  0  0  0  0  0  0
    3.3574  -77.7405   49.7843 O   0  0  0  0  0  0  0  0  0  0  0  0
  2  1  1  6
  3  2  1  0
  4  2  1  0
  4  5  1  0
  5  6  1  1
  7  5  1  0
  7  8  2  0
  9  7  1  0
 10  9  1  0
 10 11  1  6
 11 12  1  0
 13 10  1  0
 14 13  2  0
 15 13  1  0
 16 17  1  6
 16 15  1  0
 17 18  1  0
 19 18  1  0
 20 21  1  0
 20 19  1  0
 22 16  1  0
 23 22  1  0
 24 22  2  0
M  END
$$$$
