LCK.pdb
     RDKit          3D

 24 23  0  0  1  0  0  0  0  0999 V2000
    7.5033  -12.9032   19.4403 C   0  0  0  0  0  0  0  0  0  0  0  0
    7.4710  -14.3724   19.8049 C   0  0  2  0  0  0  0  0  0  0  0  0
    6.0985  -14.8965   19.3624 C   0  0  0  0  0  0  0  0  0  0  0  0
    7.4852  -14.4678   21.3147 C   0  0  0  0  0  0  0  0  0  0  0  0
    8.7317  -13.8505   21.9054 C   0  0  2  0  0  0  0  0  0  0  0  0
    9.8732  -14.2574   21.1500 N   0  0  0  0  0  0  0  0  0  0  0  0
    8.8038  -14.3460   23.3274 C   0  0  0  0  0  0  0  0  0  0  0  0
    9.6612  -15.2172   23.6373 O   0  0  0  0  0  0  0  0  0  0  0  0
    7.9208  -13.8417   24.3070 N   0  0  0  0  0  0  0  0  0  0  0  0
    8.1156  -14.2560   25.6940 C   0  0  1  0  0  0  0  0  0  0  0  0
    7.2626  -13.3322   26.5367 C   0  0  0  0  0  0  0  0  0  0  0  0
    5.8751  -12.6218   25.6455 S   0  0  0  0  0  0  0  0  0  0  0  0
    7.6826  -15.6507   25.8842 C   0  0  0  0  0  0  0  0  0  0  0  0
    6.8473  -16.1193   25.0377 O   0  0  0  0  0  0  0  0  0  0  0  0
    8.0905  -16.5320   26.8981 N   0  0  0  0  0  0  0  0  0  0  0  0
    8.2658  -18.0115   26.6203 C   0  0  1  0  0  0  0  0  0  0  0  0
    9.3577  -18.0942   25.6191 C   0  0  0  0  0  0  0  0  0  0  0  0
    9.9648  -19.3355   25.1846 C   0  0  0  0  0  0  0  0  0  0  0  0
   11.0166  -19.4119   24.1615 C   0  0  0  0  0  0  0  0  0  0  0  0
   11.4036  -20.9059   23.9411 C   0  0  0  0  0  0  0  0  0  0  0  0
   12.5059  -21.0165   23.0353 N   0  0  0  0  0  0  0  0  0  0  0  0
    8.7100  -18.5313   27.9314 C   0  0  0  0  0  0  0  0  0  0  0  0
    8.4188  -19.8685   28.2806 O   0  0  0  0  0  0  0  0  0  0  0  0
    9.3292  -17.8978   28.7834 O   0  0  0  0  0  0  0  0  0  0  0  0
  2  1  1  1
  3  2  1  0
  4  2  1  0
  4  5  1  0
  5  6  1  6
  7  5  1  0
  7  8  2  0
  9  7  1  0
 10  9  1  0
 10 11  1  1
 11 12  1  0
 13 10  1  0
 14 13  2  0
 15 13  1  0
 16 17  1  6
 16 15  1  0
 17 18  1  0
 19 18  1  0
 20 21  1  0
 20 19  1  0
 22 16  1  0
 23 22  1  0
 24 22  2  0
M  END
$$$$
