LCK.pdb
     RDKit          3D

 24 23  0  0  1  0  0  0  0  0999 V2000
    5.9336  -18.0216   20.2331 C   0  0  0  0  0  0  0  0  0  0  0  0
    6.3142  -16.5799   19.9700 C   0  0  2  0  0  0  0  0  0  0  0  0
    7.1602  -16.5838   18.6899 C   0  0  0  0  0  0  0  0  0  0  0  0
    7.2439  -16.1439   21.0811 C   0  0  0  0  0  0  0  0  0  0  0  0
    7.4369  -14.6452   21.0971 C   0  0  2  0  0  0  0  0  0  0  0  0
    8.2797  -14.2581   20.0112 N   0  0  0  0  0  0  0  0  0  0  0  0
    8.0673  -14.3243   22.4285 C   0  0  0  0  0  0  0  0  0  0  0  0
    9.3194  -14.4029   22.5563 O   0  0  0  0  0  0  0  0  0  0  0  0
    7.2665  -13.9385   23.5255 N   0  0  0  0  0  0  0  0  0  0  0  0
    7.9249  -13.6581   24.7988 C   0  0  1  0  0  0  0  0  0  0  0  0
    6.9434  -12.8433   25.6136 C   0  0  0  0  0  0  0  0  0  0  0  0
    7.4645  -12.5766   27.3111 S   0  0  0  0  0  0  0  0  0  0  0  0
    8.2439  -14.9107   25.5044 C   0  0  0  0  0  0  0  0  0  0  0  0
    7.3003  -15.7643   25.6266 O   0  0  0  0  0  0  0  0  0  0  0  0
    9.4801  -15.2770   26.0601 N   0  0  0  0  0  0  0  0  0  0  0  0
    9.6654  -16.6247   26.7281 C   0  0  1  0  0  0  0  0  0  0  0  0
   10.8404  -17.2345   26.0579 C   0  0  0  0  0  0  0  0  0  0  0  0
   10.7491  -18.2638   25.0429 C   0  0  0  0  0  0  0  0  0  0  0  0
   11.8512  -18.6110   24.1353 C   0  0  0  0  0  0  0  0  0  0  0  0
   11.3301  -19.6175   23.0649 C   0  0  0  0  0  0  0  0  0  0  0  0
   12.3310  -19.8669   22.0730 N   0  0  0  0  0  0  0  0  0  0  0  0
    9.9874  -16.2481   28.1213 C   0  0  0  0  0  0  0  0  0  0  0  0
   10.2042  -17.2624   29.0800 O   0  0  0  0  0  0  0  0  0  0  0  0
   10.0896  -15.1009   28.5504 O   0  0  0  0  0  0  0  0  0  0  0  0
  2  1  1  1
  3  2  1  0
  4  2  1  0
  4  5  1  0
  5  6  1  6
  7  5  1  0
  7  8  2  0
  9  7  1  0
 10  9  1  0
 10 11  1  1
 11 12  1  0
 13 10  1  0
 14 13  2  0
 15 13  1  0
 16 17  1  6
 16 15  1  0
 17 18  1  0
 19 18  1  0
 20 21  1  0
 20 19  1  0
 22 16  1  0
 23 22  1  0
 24 22  2  0
M  END
$$$$
