IKS.pdb
     RDKit          3D

 24 23  0  0  1  0  0  0  0  0999 V2000
    6.6354  -11.7677   28.1274 C   0  0  0  0  0  0  0  0  0  0  0  0
    5.9360  -12.7425   27.2412 C   0  0  0  0  0  0  0  0  0  0  0  0
    6.8745  -13.4878   26.3192 C   0  0  2  0  0  0  0  0  0  0  0  0
    7.4574  -12.4915   25.3402 C   0  0  0  0  0  0  0  0  0  0  0  0
    6.1520  -14.5496   25.5224 C   0  0  2  0  0  0  0  0  0  0  0  0
    5.7034  -15.6374   26.3793 N   0  0  0  0  0  0  0  0  0  0  0  0
    7.0731  -15.0635   24.4770 C   0  0  0  0  0  0  0  0  0  0  0  0
    7.6904  -16.1412   24.6443 O   0  0  0  0  0  0  0  0  0  0  0  0
    7.2752  -14.3654   23.2881 N   0  0  0  0  0  0  0  0  0  0  0  0
    7.9030  -14.9357   22.0767 C   0  0  1  0  0  0  0  0  0  0  0  0
    7.7752  -13.9602   20.9568 C   0  0  0  0  0  0  0  0  0  0  0  0
    8.4247  -14.4445   19.7058 C   0  0  0  0  0  0  0  0  0  0  0  0
    7.9267  -13.6940   18.4770 C   0  0  0  0  0  0  0  0  0  0  0  0
    8.6555  -14.2690   17.2619 C   0  0  0  0  0  0  0  0  0  0  0  0
    8.1926  -13.6551   16.0452 N   0  0  0  0  0  0  0  0  0  0  0  0
    9.2665  -15.2680   22.4938 C   0  0  0  0  0  0  0  0  0  0  0  0
    9.8963  -14.4556   23.2166 O   0  0  0  0  0  0  0  0  0  0  0  0
   12.4138  -18.4108   23.9592 O   0  0  0  0  0  0  0  0  0  0  0  0
   11.1641  -17.9813   23.5103 C   0  0  0  0  0  0  0  0  0  0  0  0
   11.2731  -16.7248   22.7019 C   0  0  2  0  0  0  0  0  0  0  0  0
    9.9341  -16.4512   22.1437 N   0  0  0  0  0  0  0  0  0  0  0  0
   12.2504  -16.8234   21.6172 C   0  0  0  0  0  0  0  0  0  0  0  0
   13.6126  -16.6388   21.8008 O   0  0  0  0  0  0  0  0  0  0  0  0
   11.8592  -17.0875   20.4526 O   0  0  0  0  0  0  0  0  0  0  0  0
  1  2  1  0
  3  4  1  6
  3  2  1  0
  5  6  1  1
  5  3  1  0
  7  5  1  0
  8  7  2  0
  9  7  1  0
 10  9  1  0
 10 11  1  6
 11 12  1  0
 12 13  1  0
 13 14  1  0
 14 15  1  0
 16 10  1  0
 17 16  2  0
 18 19  1  0
 20 19  1  6
 20 21  1  0
 21 16  1  0
 22 20  1  0
 22 23  1  0
 24 22  2  0
M  END
$$$$
