IKS.pdb
     RDKit          3D

 24 23  0  0  1  0  0  0  0  0999 V2000
    8.2074  -11.5705   20.5947 C   0  0  0  0  0  0  0  0  0  0  0  0
    7.7216  -12.8795   20.0703 C   0  0  0  0  0  0  0  0  0  0  0  0
    8.1665  -14.0576   20.9072 C   0  0  2  0  0  0  0  0  0  0  0  0
    9.6797  -14.0911   20.9006 C   0  0  0  0  0  0  0  0  0  0  0  0
    7.6732  -15.3679   20.3379 C   0  0  2  0  0  0  0  0  0  0  0  0
    6.2195  -15.3984   20.2688 N   0  0  0  0  0  0  0  0  0  0  0  0
    8.1714  -16.4726   21.1963 C   0  0  0  0  0  0  0  0  0  0  0  0
    7.5755  -16.7755   22.2564 O   0  0  0  0  0  0  0  0  0  0  0  0
    9.3088  -17.1987   20.8486 N   0  0  0  0  0  0  0  0  0  0  0  0
    9.7637  -18.4258   21.5371 C   0  0  1  0  0  0  0  0  0  0  0  0
   10.3508  -19.3583   20.5331 C   0  0  0  0  0  0  0  0  0  0  0  0
   10.9160  -20.5859   21.1615 C   0  0  0  0  0  0  0  0  0  0  0  0
   11.6033  -21.4845   20.1411 C   0  0  0  0  0  0  0  0  0  0  0  0
   12.1293  -22.7097   20.8896 C   0  0  0  0  0  0  0  0  0  0  0  0
   12.7627  -23.6333   19.9855 N   0  0  0  0  0  0  0  0  0  0  0  0
   10.6699  -17.9443   22.5813 C   0  0  0  0  0  0  0  0  0  0  0  0
   11.4443  -16.9893   22.3215 O   0  0  0  0  0  0  0  0  0  0  0  0
   10.2128  -18.9593   26.3841 O   0  0  0  0  0  0  0  0  0  0  0  0
   11.0500  -17.8639   26.1684 C   0  0  0  0  0  0  0  0  0  0  0  0
   11.7265  -17.9440   24.8342 C   0  0  2  0  0  0  0  0  0  0  0  0
   10.7364  -18.4768   23.8776 N   0  0  0  0  0  0  0  0  0  0  0  0
   12.9145  -18.7985   24.8437 C   0  0  0  0  0  0  0  0  0  0  0  0
   14.0526  -18.5117   25.5826 O   0  0  0  0  0  0  0  0  0  0  0  0
   12.9272  -19.8499   24.1557 O   0  0  0  0  0  0  0  0  0  0  0  0
  1  2  1  0
  3  4  1  6
  3  2  1  0
  5  6  1  1
  5  3  1  0
  7  5  1  0
  8  7  2  0
  9  7  1  0
 10  9  1  0
 10 11  1  6
 11 12  1  0
 12 13  1  0
 13 14  1  0
 14 15  1  0
 16 10  1  0
 17 16  2  0
 18 19  1  0
 20 19  1  1
 20 21  1  0
 21 16  1  0
 22 20  1  0
 22 23  1  0
 24 22  2  0
M  END
$$$$
