IKS.pdb
     RDKit          3D

 24 23  0  0  1  0  0  0  0  0999 V2000
    6.7348  -11.7345   27.8366 C   0  0  0  0  0  0  0  0  0  0  0  0
    6.0442  -12.8374   27.1077 C   0  0  0  0  0  0  0  0  0  0  0  0
    6.9613  -13.6041   26.1817 C   0  0  2  0  0  0  0  0  0  0  0  0
    7.4340  -12.6557   25.1010 C   0  0  0  0  0  0  0  0  0  0  0  0
    6.2456  -14.7521   25.5079 C   0  0  2  0  0  0  0  0  0  0  0  0
    5.9865  -15.8348   26.4457 N   0  0  0  0  0  0  0  0  0  0  0  0
    7.0848  -15.2356   24.3820 C   0  0  0  0  0  0  0  0  0  0  0  0
    7.7203  -16.3116   24.4761 O   0  0  0  0  0  0  0  0  0  0  0  0
    7.1879  -14.5101   23.1967 N   0  0  0  0  0  0  0  0  0  0  0  0
    7.8376  -15.0052   21.9640 C   0  0  1  0  0  0  0  0  0  0  0  0
    7.5934  -14.0329   20.8607 C   0  0  0  0  0  0  0  0  0  0  0  0
    8.1990  -14.4734   19.5721 C   0  0  0  0  0  0  0  0  0  0  0  0
    8.0050  -13.4414   18.4683 C   0  0  0  0  0  0  0  0  0  0  0  0
    8.4877  -14.0715   17.1614 C   0  0  0  0  0  0  0  0  0  0  0  0
    9.9177  -14.2348   17.1653 N   0  0  0  0  0  0  0  0  0  0  0  0
    9.2354  -15.2136   22.3461 C   0  0  0  0  0  0  0  0  0  0  0  0
    9.8754  -14.2594   22.8550 O   0  0  0  0  0  0  0  0  0  0  0  0
   10.8868  -18.7847   23.0925 O   0  0  0  0  0  0  0  0  0  0  0  0
   11.4956  -17.6137   23.5459 C   0  0  0  0  0  0  0  0  0  0  0  0
   11.3546  -16.5013   22.5524 C   0  0  2  0  0  0  0  0  0  0  0  0
    9.9262  -16.4244   22.1878 N   0  0  0  0  0  0  0  0  0  0  0  0
   12.1623  -16.7015   21.3486 C   0  0  0  0  0  0  0  0  0  0  0  0
   11.6208  -16.7914   20.0749 O   0  0  0  0  0  0  0  0  0  0  0  0
   13.4110  -16.7996   21.4492 O   0  0  0  0  0  0  0  0  0  0  0  0
  1  2  1  0
  3  4  1  6
  3  2  1  0
  5  6  1  1
  5  3  1  0
  7  5  1  0
  8  7  2  0
  9  7  1  0
 10  9  1  0
 10 11  1  6
 11 12  1  0
 12 13  1  0
 13 14  1  0
 14 15  1  0
 16 10  1  0
 17 16  2  0
 18 19  1  0
 20 19  1  1
 20 21  1  0
 21 16  1  0
 22 20  1  0
 22 23  1  0
 24 22  2  0
M  END
$$$$
