IKS.pdb
     RDKit          3D

 24 23  0  0  1  0  0  0  0  0999 V2000
    7.1170  -11.3155   27.8028 C   0  0  0  0  0  0  0  0  0  0  0  0
    6.3185  -12.2556   26.9643 C   0  0  0  0  0  0  0  0  0  0  0  0
    7.1621  -13.3129   26.2884 C   0  0  2  0  0  0  0  0  0  0  0  0
    8.1452  -12.6131   25.3746 C   0  0  0  0  0  0  0  0  0  0  0  0
    6.3239  -14.2415   25.4402 C   0  0  2  0  0  0  0  0  0  0  0  0
    5.3320  -14.9392   26.2454 N   0  0  0  0  0  0  0  0  0  0  0  0
    7.2257  -15.2161   24.7752 C   0  0  0  0  0  0  0  0  0  0  0  0
    7.6909  -16.1912   25.4103 O   0  0  0  0  0  0  0  0  0  0  0  0
    7.5774  -15.0739   23.4344 N   0  0  0  0  0  0  0  0  0  0  0  0
    8.4195  -16.0288   22.6822 C   0  0  1  0  0  0  0  0  0  0  0  0
    8.5122  -15.5831   21.2627 C   0  0  0  0  0  0  0  0  0  0  0  0
    9.4528  -16.4203   20.4655 C   0  0  0  0  0  0  0  0  0  0  0  0
    8.9229  -17.8335   20.2578 C   0  0  0  0  0  0  0  0  0  0  0  0
    9.9110  -18.5648   19.3484 C   0  0  0  0  0  0  0  0  0  0  0  0
    9.5810  -19.9621   19.2469 N   0  0  0  0  0  0  0  0  0  0  0  0
    9.6773  -16.0746   23.4301 C   0  0  0  0  0  0  0  0  0  0  0  0
   10.3470  -15.0191   23.5589 O   0  0  0  0  0  0  0  0  0  0  0  0
   10.8512  -19.0926   25.9419 O   0  0  0  0  0  0  0  0  0  0  0  0
   11.3880  -17.8071   26.0237 C   0  0  0  0  0  0  0  0  0  0  0  0
   11.5287  -17.1834   24.6689 C   0  0  2  0  0  0  0  0  0  0  0  0
   10.1988  -17.2307   24.0298 N   0  0  0  0  0  0  0  0  0  0  0  0
   12.5087  -17.8651   23.8225 C   0  0  0  0  0  0  0  0  0  0  0  0
   12.1845  -18.4669   22.6157 O   0  0  0  0  0  0  0  0  0  0  0  0
   13.7101  -17.9207   24.1866 O   0  0  0  0  0  0  0  0  0  0  0  0
  1  2  1  0
  3  4  1  6
  3  2  1  0
  5  6  1  1
  5  3  1  0
  7  5  1  0
  8  7  2  0
  9  7  1  0
 10  9  1  0
 10 11  1  6
 11 12  1  0
 12 13  1  0
 13 14  1  0
 14 15  1  0
 16 10  1  0
 17 16  2  0
 18 19  1  0
 20 19  1  1
 20 21  1  0
 21 16  1  0
 22 20  1  0
 22 23  1  0
 24 22  2  0
M  END
$$$$
