NTA.pdb
     RDKit          3D

 21 20  0  0  1  0  0  0  0  0999 V2000
   15.6528  -15.3535   17.1919 N   0  0  0  0  0  0  0  0  0  0  0  0
   14.4061  -14.9969   16.6412 C   0  0  0  0  0  0  0  0  0  0  0  0
   14.1335  -15.2170   15.4356 O   0  0  0  0  0  0  0  0  0  0  0  0
   13.3948  -14.3435   17.5200 C   0  0  0  0  0  0  0  0  0  0  0  0
   12.6097  -15.4032   18.2906 C   0  0  2  0  0  0  0  0  0  0  0  0
   11.6902  -16.0229   17.3580 N   0  0  0  0  0  0  0  0  0  0  0  0
   11.9189  -14.7298   19.3999 C   0  0  0  0  0  0  0  0  0  0  0  0
   12.5049  -14.0226   20.2589 O   0  0  0  0  0  0  0  0  0  0  0  0
    8.5879  -12.7572   18.8456 C   0  0  0  0  0  0  0  0  0  0  0  0
    8.4531  -13.7609   19.9444 C   0  0  1  0  0  0  0  0  0  0  0  0
    7.6568  -14.8244   19.5440 O   0  0  0  0  0  0  0  0  0  0  0  0
    9.7541  -14.1923   20.5488 C   0  0  2  0  0  0  0  0  0  0  0  0
   10.5095  -14.8766   19.5224 N   0  0  0  0  0  0  0  0  0  0  0  0
    9.6503  -14.9877   21.7571 C   0  0  0  0  0  0  0  0  0  0  0  0
    9.8010  -16.2340   21.6539 O   0  0  0  0  0  0  0  0  0  0  0  0
    8.9247  -14.5802   25.4580 C   0  0  0  0  0  0  0  0  0  0  0  0
    9.1862  -15.3666   24.1797 C   0  0  2  0  0  0  0  0  0  0  0  0
    9.3936  -14.4962   23.0558 N   0  0  0  0  0  0  0  0  0  0  0  0
    8.1455  -16.3645   23.9845 C   0  0  0  0  0  0  0  0  0  0  0  0
    7.2113  -16.2256   22.9801 O   0  0  0  0  0  0  0  0  0  0  0  0
    8.0861  -17.3649   24.7295 O   0  0  0  0  0  0  0  0  0  0  0  0
  1  2  1  0
  2  3  2  0
  4  2  1  0
  4  5  1  0
  5  6  1  6
  7  5  1  0
  7 13  1  0
  8  7  2  0
 10  9  1  6
 10 12  1  0
 10 11  1  0
 12 13  1  6
 12 14  1  0
 14 15  2  0
 17 16  1  1
 17 19  1  0
 18 14  1  0
 18 17  1  0
 19 20  1  0
 21 19  2  0
M  END
$$$$
