NTA.pdb
     RDKit          3D

 21 20  0  0  1  0  0  0  0  0999 V2000
   12.2331  -17.5452   16.4449 N   0  0  0  0  0  0  0  0  0  0  0  0
   10.9052  -17.7443   16.0189 C   0  0  0  0  0  0  0  0  0  0  0  0
   10.6269  -17.9557   14.8130 O   0  0  0  0  0  0  0  0  0  0  0  0
    9.8131  -17.7009   17.0325 C   0  0  0  0  0  0  0  0  0  0  0  0
   10.4024  -17.4980   18.4271 C   0  0  2  0  0  0  0  0  0  0  0  0
   10.7302  -18.8079   18.9523 N   0  0  0  0  0  0  0  0  0  0  0  0
    9.3964  -16.8001   19.2408 C   0  0  0  0  0  0  0  0  0  0  0  0
    8.9305  -15.6681   18.9528 O   0  0  0  0  0  0  0  0  0  0  0  0
    6.0009  -17.9009   20.2268 C   0  0  0  0  0  0  0  0  0  0  0  0
    6.7966  -17.6872   21.4735 C   0  0  1  0  0  0  0  0  0  0  0  0
    7.1263  -18.9005   22.0606 O   0  0  0  0  0  0  0  0  0  0  0  0
    7.9720  -16.7736   21.3062 C   0  0  2  0  0  0  0  0  0  0  0  0
    8.9131  -17.4266   20.4226 N   0  0  0  0  0  0  0  0  0  0  0  0
    8.6061  -16.3369   22.5352 C   0  0  0  0  0  0  0  0  0  0  0  0
    9.7024  -16.8703   22.8515 O   0  0  0  0  0  0  0  0  0  0  0  0
    8.1212  -13.8668   25.3662 C   0  0  0  0  0  0  0  0  0  0  0  0
    8.7167  -15.1008   24.7004 C   0  0  2  0  0  0  0  0  0  0  0  0
    8.1089  -15.3592   23.4246 N   0  0  0  0  0  0  0  0  0  0  0  0
    8.6889  -16.2280   25.6199 C   0  0  0  0  0  0  0  0  0  0  0  0
    9.5420  -16.2802   26.7017 O   0  0  0  0  0  0  0  0  0  0  0  0
    7.8865  -17.1676   25.4385 O   0  0  0  0  0  0  0  0  0  0  0  0
  1  2  1  0
  2  3  2  0
  4  2  1  0
  4  5  1  0
  5  6  1  1
  7  5  1  0
  7 13  1  0
  8  7  2  0
 10  9  1  6
 10 12  1  0
 10 11  1  0
 12 13  1  6
 12 14  1  0
 14 15  2  0
 17 16  1  1
 17 19  1  0
 18 14  1  0
 18 17  1  0
 19 20  1  0
 21 19  2  0
M  END
$$$$
