NTA.pdb
     RDKit          3D

 21 20  0  0  1  0  0  0  0  0999 V2000
   12.0355  -20.7144   19.6225 N   0  0  0  0  0  0  0  0  0  0  0  0
   11.2719  -19.6410   19.1234 C   0  0  0  0  0  0  0  0  0  0  0  0
   10.4933  -19.7858   18.1491 O   0  0  0  0  0  0  0  0  0  0  0  0
   11.3994  -18.3065   19.7752 C   0  0  0  0  0  0  0  0  0  0  0  0
   10.6056  -17.2637   18.9905 C   0  0  2  0  0  0  0  0  0  0  0  0
   11.4343  -16.8339   17.8825 N   0  0  0  0  0  0  0  0  0  0  0  0
   10.2795  -16.1642   19.9103 C   0  0  0  0  0  0  0  0  0  0  0  0
   11.1272  -15.3406   20.3399 O   0  0  0  0  0  0  0  0  0  0  0  0
    7.5119  -13.4455   19.6488 C   0  0  0  0  0  0  0  0  0  0  0  0
    7.3069  -14.3446   20.8246 C   0  0  1  0  0  0  0  0  0  0  0  0
    6.2715  -15.2373   20.5864 O   0  0  0  0  0  0  0  0  0  0  0  0
    8.5558  -15.0075   21.3195 C   0  0  2  0  0  0  0  0  0  0  0  0
    8.9352  -16.0099   20.3480 N   0  0  0  0  0  0  0  0  0  0  0  0
    8.4835  -15.5600   22.6585 C   0  0  0  0  0  0  0  0  0  0  0  0
    8.4772  -16.8140   22.7761 O   0  0  0  0  0  0  0  0  0  0  0  0
    8.1870  -14.4238   26.2653 C   0  0  0  0  0  0  0  0  0  0  0  0
    8.1738  -15.4417   25.1319 C   0  0  2  0  0  0  0  0  0  0  0  0
    8.4186  -14.8207   23.8598 N   0  0  0  0  0  0  0  0  0  0  0  0
    6.9576  -16.2382   25.1890 C   0  0  0  0  0  0  0  0  0  0  0  0
    6.8280  -17.2683   26.0961 O   0  0  0  0  0  0  0  0  0  0  0  0
    6.0107  -15.9963   24.4115 O   0  0  0  0  0  0  0  0  0  0  0  0
  1  2  1  0
  2  3  2  0
  4  2  1  0
  4  5  1  0
  5  6  1  6
  7  5  1  0
  7 13  1  0
  8  7  2  0
 10  9  1  6
 10 12  1  0
 10 11  1  0
 12 13  1  6
 12 14  1  0
 14 15  2  0
 17 16  1  1
 17 19  1  0
 18 14  1  0
 18 17  1  0
 19 20  1  0
 21 19  2  0
M  END
$$$$
