NTA.pdb
     RDKit          3D

 21 20  0  0  1  0  0  0  0  0999 V2000
   14.1776  -18.7182   20.6312 N   0  0  0  0  0  0  0  0  0  0  0  0
   14.6038  -17.5315   21.2593 C   0  0  0  0  0  0  0  0  0  0  0  0
   15.8220  -17.2770   21.4249 O   0  0  0  0  0  0  0  0  0  0  0  0
   13.5754  -16.5626   21.7342 C   0  0  0  0  0  0  0  0  0  0  0  0
   12.1762  -17.1268   21.4953 C   0  0  2  0  0  0  0  0  0  0  0  0
   11.9435  -17.1140   20.0653 N   0  0  0  0  0  0  0  0  0  0  0  0
   11.2220  -16.2829   22.2293 C   0  0  0  0  0  0  0  0  0  0  0  0
   10.8444  -15.1509   21.8323 O   0  0  0  0  0  0  0  0  0  0  0  0
    7.8078  -17.2224   22.8371 C   0  0  0  0  0  0  0  0  0  0  0  0
    8.4314  -16.9835   24.1739 C   0  0  1  0  0  0  0  0  0  0  0  0
    8.6813  -18.1849   24.8217 O   0  0  0  0  0  0  0  0  0  0  0  0
    9.6179  -16.0695   24.1466 C   0  0  2  0  0  0  0  0  0  0  0  0
   10.6872  -16.7587   23.4582 N   0  0  0  0  0  0  0  0  0  0  0  0
   10.0493  -15.5643   25.4359 C   0  0  0  0  0  0  0  0  0  0  0  0
   11.0808  -16.0727   25.9499 O   0  0  0  0  0  0  0  0  0  0  0  0
    9.0943  -12.9582   28.0191 C   0  0  0  0  0  0  0  0  0  0  0  0
    9.8743  -14.1538   27.4871 C   0  0  2  0  0  0  0  0  0  0  0  0
    9.4186  -14.5447   26.1820 N   0  0  0  0  0  0  0  0  0  0  0  0
    9.8775  -15.2265   28.4700 C   0  0  0  0  0  0  0  0  0  0  0  0
    9.2816  -16.4393   28.1961 O   0  0  0  0  0  0  0  0  0  0  0  0
   10.4237  -15.0599   29.5806 O   0  0  0  0  0  0  0  0  0  0  0  0
  1  2  1  0
  2  3  2  0
  4  2  1  0
  4  5  1  0
  5  6  1  6
  7  5  1  0
  7 13  1  0
  8  7  2  0
 10  9  1  6
 10 12  1  0
 10 11  1  0
 12 13  1  1
 12 14  1  0
 14 15  2  0
 17 16  1  1
 17 19  1  0
 18 14  1  0
 18 17  1  0
 19 20  1  0
 21 19  2  0
M  END
$$$$
