NTA.pdb
     RDKit          3D

 21 20  0  0  1  0  0  0  0  0999 V2000
    9.6471  -13.9495   16.2275 N   0  0  0  0  0  0  0  0  0  0  0  0
    8.2400  -13.8940   16.1916 C   0  0  0  0  0  0  0  0  0  0  0  0
    7.6066  -13.9801   15.1110 O   0  0  0  0  0  0  0  0  0  0  0  0
    7.4962  -13.7291   17.4728 C   0  0  0  0  0  0  0  0  0  0  0  0
    8.4690  -13.7643   18.6500 C   0  0  2  0  0  0  0  0  0  0  0  0
    9.3484  -14.8983   18.4499 N   0  0  0  0  0  0  0  0  0  0  0  0
    7.6759  -13.8767   19.8827 C   0  0  0  0  0  0  0  0  0  0  0  0
    6.7821  -13.0562   20.2135 O   0  0  0  0  0  0  0  0  0  0  0  0
    5.7180  -16.8804   21.0846 C   0  0  0  0  0  0  0  0  0  0  0  0
    6.7322  -16.5151   22.1194 C   0  0  1  0  0  0  0  0  0  0  0  0
    7.7529  -17.4542   22.1608 O   0  0  0  0  0  0  0  0  0  0  0  0
    7.2304  -15.1055   22.0244 C   0  0  2  0  0  0  0  0  0  0  0  0
    7.9210  -14.9684   20.7608 N   0  0  0  0  0  0  0  0  0  0  0  0
    8.0487  -14.6542   23.1334 C   0  0  0  0  0  0  0  0  0  0  0  0
    9.2999  -14.6991   22.9958 O   0  0  0  0  0  0  0  0  0  0  0  0
    7.9160  -12.6832   26.2910 C   0  0  0  0  0  0  0  0  0  0  0  0
    8.4564  -13.8370   25.4559 C   0  0  2  0  0  0  0  0  0  0  0  0
    7.5747  -14.1624   24.3694 N   0  0  0  0  0  0  0  0  0  0  0  0
    8.7934  -14.9617   26.3153 C   0  0  0  0  0  0  0  0  0  0  0  0
    8.2459  -16.2081   26.0970 O   0  0  0  0  0  0  0  0  0  0  0  0
    9.5876  -14.8098   27.2669 O   0  0  0  0  0  0  0  0  0  0  0  0
  1  2  1  0
  2  3  2  0
  4  2  1  0
  4  5  1  0
  5  6  1  6
  7  5  1  0
  7 13  1  0
  8  7  2  0
 10  9  1  6
 10 12  1  0
 10 11  1  0
 12 13  1  6
 12 14  1  0
 14 15  2  0
 17 16  1  1
 17 19  1  0
 18 14  1  0
 18 17  1  0
 19 20  1  0
 21 19  2  0
M  END
$$$$
