NTA.pdb
     RDKit          3D

 21 20  0  0  1  0  0  0  0  0999 V2000
   10.1853  -16.7343   13.9370 N   0  0  0  0  0  0  0  0  0  0  0  0
   11.1265  -16.5764   14.9732 C   0  0  0  0  0  0  0  0  0  0  0  0
   12.2298  -17.1753   14.9553 O   0  0  0  0  0  0  0  0  0  0  0  0
   10.7937  -15.6747   16.1125 C   0  0  0  0  0  0  0  0  0  0  0  0
   10.4005  -16.5011   17.3354 C   0  0  2  0  0  0  0  0  0  0  0  0
    9.1526  -17.1678   17.0233 N   0  0  0  0  0  0  0  0  0  0  0  0
   10.2786  -15.5820   18.4763 C   0  0  0  0  0  0  0  0  0  0  0  0
   11.2290  -14.8843   18.9137 O   0  0  0  0  0  0  0  0  0  0  0  0
    7.5990  -12.8830   19.1427 C   0  0  0  0  0  0  0  0  0  0  0  0
    7.5880  -13.9140   20.2243 C   0  0  1  0  0  0  0  0  0  0  0  0
    6.4617  -14.7185   20.1254 O   0  0  0  0  0  0  0  0  0  0  0  0
    8.8614  -14.6935   20.3465 C   0  0  2  0  0  0  0  0  0  0  0  0
    9.0224  -15.4641   19.1329 N   0  0  0  0  0  0  0  0  0  0  0  0
    8.9753  -15.5263   21.5284 C   0  0  0  0  0  0  0  0  0  0  0  0
    8.7435  -16.7579   21.4029 O   0  0  0  0  0  0  0  0  0  0  0  0
    9.9427  -15.3157   25.1826 C   0  0  0  0  0  0  0  0  0  0  0  0
    9.2813  -15.9543   23.9679 C   0  0  2  0  0  0  0  0  0  0  0  0
    9.3252  -15.0865   22.8239 N   0  0  0  0  0  0  0  0  0  0  0  0
    7.9496  -16.4272   24.3141 C   0  0  0  0  0  0  0  0  0  0  0  0
    7.7782  -17.5123   25.1471 O   0  0  0  0  0  0  0  0  0  0  0  0
    6.9398  -15.8517   23.8575 O   0  0  0  0  0  0  0  0  0  0  0  0
  1  2  1  0
  2  3  2  0
  4  2  1  0
  4  5  1  0
  5  6  1  6
  7  5  1  0
  7 13  1  0
  8  7  2  0
 10  9  1  6
 10 12  1  0
 10 11  1  0
 12 13  1  6
 12 14  1  0
 14 15  2  0
 17 16  1  1
 17 19  1  0
 18 14  1  0
 18 17  1  0
 19 20  1  0
 21 19  2  0
M  END
$$$$
