NTA.pdb
     RDKit          3D

 21 20  0  0  1  0  0  0  0  0999 V2000
    8.4567  -13.6405   14.1048 N   0  0  0  0  0  0  0  0  0  0  0  0
    8.1803  -14.5045   15.1826 C   0  0  0  0  0  0  0  0  0  0  0  0
    8.2595  -15.7517   15.0616 O   0  0  0  0  0  0  0  0  0  0  0  0
    7.7856  -13.9129   16.4926 C   0  0  0  0  0  0  0  0  0  0  0  0
    8.8445  -14.2265   17.5478 C   0  0  2  0  0  0  0  0  0  0  0  0
    9.2098  -15.6199   17.3925 N   0  0  0  0  0  0  0  0  0  0  0  0
    8.2608  -13.9403   18.8664 C   0  0  0  0  0  0  0  0  0  0  0  0
    7.8415  -12.8061   19.2115 O   0  0  0  0  0  0  0  0  0  0  0  0
    5.2567  -14.8542   20.4818 C   0  0  0  0  0  0  0  0  0  0  0  0
    6.3544  -15.4628   21.2926 C   0  0  1  0  0  0  0  0  0  0  0  0
    6.4301  -16.8304   21.0700 O   0  0  0  0  0  0  0  0  0  0  0  0
    7.6757  -14.7693   21.1611 C   0  0  2  0  0  0  0  0  0  0  0  0
    8.1575  -14.9942   19.8159 N   0  0  0  0  0  0  0  0  0  0  0  0
    8.6718  -15.1258   22.1531 C   0  0  0  0  0  0  0  0  0  0  0  0
    9.7296  -15.6784   21.7502 O   0  0  0  0  0  0  0  0  0  0  0  0
    9.4558  -14.6505   25.8141 C   0  0  0  0  0  0  0  0  0  0  0  0
    9.5872  -15.3447   24.4645 C   0  0  2  0  0  0  0  0  0  0  0  0
    8.5717  -14.9115   23.5453 N   0  0  0  0  0  0  0  0  0  0  0  0
    9.6576  -16.7863   24.6481 C   0  0  0  0  0  0  0  0  0  0  0  0
   10.7374  -17.3676   25.2782 O   0  0  0  0  0  0  0  0  0  0  0  0
    8.7345  -17.5185   24.2343 O   0  0  0  0  0  0  0  0  0  0  0  0
  1  2  1  0
  2  3  2  0
  4  2  1  0
  4  5  1  0
  5  6  1  1
  7  5  1  0
  7 13  1  0
  8  7  2  0
 10  9  1  6
 10 12  1  0
 10 11  1  0
 12 13  1  6
 12 14  1  0
 14 15  2  0
 17 16  1  1
 17 19  1  0
 18 14  1  0
 18 17  1  0
 19 20  1  0
 21 19  2  0
M  END
$$$$
