LHT.pdb
     RDKit          3D

 26 26  0  0  1  0  0  0  0  0999 V2000
   18.3235  -17.0140  -14.8256 C   0  0  0  0  0  0  0  0  0  0  0  0
   17.9277  -15.9088  -15.7768 C   0  0  1  0  0  0  0  0  0  0  0  0
   16.4350  -15.7700  -15.8517 C   0  0  0  0  0  0  0  0  0  0  0  0
   18.6068  -14.6050  -15.4082 C   0  0  0  0  0  0  0  0  0  0  0  0
   18.2373  -13.4901  -16.3668 C   0  0  2  0  0  0  0  0  0  0  0  0
   18.6972  -13.8781  -17.6743 N   0  0  0  0  0  0  0  0  0  0  0  0
   18.9005  -12.2549  -15.9508 C   0  0  0  0  0  0  0  0  0  0  0  0
   18.8432  -11.8765  -14.7584 O   0  0  0  0  0  0  0  0  0  0  0  0
   19.6107  -11.4829  -16.9002 N   0  0  0  0  0  0  0  0  0  0  0  0
   20.2322  -10.2125  -16.5885 C   0  0  1  0  0  0  0  0  0  0  0  0
   21.5967  -10.0569  -17.1789 C   0  0  0  0  0  0  0  0  0  0  0  0
   22.2734   -8.7967  -16.9079 C   0  0  0  0  0  0  0  0  0  0  0  0
   23.1328   -8.4085  -15.9303 C   0  0  0  0  0  0  0  0  0  0  0  0
   23.4829   -7.1253  -16.1202 N   0  0  0  0  0  0  0  0  0  0  0  0
   22.8549   -6.6822  -17.2145 C   0  0  0  0  0  0  0  0  0  0  0  0
   22.1221   -7.6875  -17.6956 N   0  0  0  0  0  0  0  0  0  0  0  0
   19.3191   -9.0888  -16.8677 C   0  0  0  0  0  0  0  0  0  0  0  0
   18.7463   -9.0316  -17.9847 O   0  0  0  0  0  0  0  0  0  0  0  0
   16.2099   -8.1006  -15.5804 C   0  0  0  0  0  0  0  0  0  0  0  0
   17.0850   -6.9014  -15.2879 C   0  0  1  0  0  0  0  0  0  0  0  0
   17.5216   -7.0570  -13.9528 O   0  0  0  0  0  0  0  0  0  0  0  0
   18.2859   -6.8818  -16.2154 C   0  0  2  0  0  0  0  0  0  0  0  0
   19.0608   -8.0649  -15.9189 N   0  0  0  0  0  0  0  0  0  0  0  0
   19.0517   -5.6431  -16.1204 C   0  0  0  0  0  0  0  0  0  0  0  0
   18.5016   -4.4080  -16.4188 O   0  0  0  0  0  0  0  0  0  0  0  0
   20.2526   -5.6696  -15.7582 O   0  0  0  0  0  0  0  0  0  0  0  0
  2  1  1  1
  2  4  1  0
  2  3  1  0
  4  5  1  0
  5  6  1  6
  7  9  1  0
  7  5  1  0
  8  7  2  0
 10  9  1  0
 11 12  1  0
 10 11  1  6
 12 16  1  0
 12 13  2  0
 13 14  1  0
 15 14  1  0
 16 15  2  0
 17 23  1  0
 17 10  1  0
 18 17  2  0
 20 19  1  6
 20 22  1  0
 21 20  1  0
 22 23  1  1
 22 24  1  0
 24 25  1  0
 26 24  2  0
M  END
$$$$
