LHT.pdb
     RDKit          3D

 26 26  0  0  1  0  0  0  0  0999 V2000
   30.1477  -19.6699  -10.0265 C   0  0  0  0  0  0  0  0  0  0  0  0
   29.0088  -20.6047   -9.6916 C   0  0  1  0  0  0  0  0  0  0  0  0
   28.3136  -20.1784   -8.4314 C   0  0  0  0  0  0  0  0  0  0  0  0
   28.0509  -20.7349  -10.8588 C   0  0  0  0  0  0  0  0  0  0  0  0
   26.9620  -21.7520  -10.5793 C   0  0  2  0  0  0  0  0  0  0  0  0
   27.5368  -23.0584  -10.7649 N   0  0  0  0  0  0  0  0  0  0  0  0
   25.8609  -21.5529  -11.5210 C   0  0  0  0  0  0  0  0  0  0  0  0
   25.9029  -22.0680  -12.6617 O   0  0  0  0  0  0  0  0  0  0  0  0
   24.7421  -20.7744  -11.1417 N   0  0  0  0  0  0  0  0  0  0  0  0
   23.5820  -20.5830  -11.9872 C   0  0  1  0  0  0  0  0  0  0  0  0
   22.3804  -20.0913  -11.2463 C   0  0  0  0  0  0  0  0  0  0  0  0
   21.1466  -19.9988  -12.0136 C   0  0  0  0  0  0  0  0  0  0  0  0
   20.8615  -20.2213  -13.3229 C   0  0  0  0  0  0  0  0  0  0  0  0
   19.5558  -19.9965  -13.5452 N   0  0  0  0  0  0  0  0  0  0  0  0
   18.9955  -19.6301  -12.3877 C   0  0  0  0  0  0  0  0  0  0  0  0
   19.9516  -19.6295  -11.4576 N   0  0  0  0  0  0  0  0  0  0  0  0
   23.9198  -19.7938  -13.1862 C   0  0  0  0  0  0  0  0  0  0  0  0
   24.4054  -18.6438  -13.0424 O   0  0  0  0  0  0  0  0  0  0  0  0
   26.2966  -20.1893  -15.7152 C   0  0  0  0  0  0  0  0  0  0  0  0
   25.0026  -20.1570  -16.4987 C   0  0  1  0  0  0  0  0  0  0  0  0
   24.6566  -21.5075  -16.7309 O   0  0  0  0  0  0  0  0  0  0  0  0
   23.9088  -19.4848  -15.6898 C   0  0  2  0  0  0  0  0  0  0  0  0
   23.7168  -20.2856  -14.5023 N   0  0  0  0  0  0  0  0  0  0  0  0
   22.6856  -19.2773  -16.4583 C   0  0  0  0  0  0  0  0  0  0  0  0
   21.4895  -19.8907  -16.1259 O   0  0  0  0  0  0  0  0  0  0  0  0
   22.6898  -18.5218  -17.4599 O   0  0  0  0  0  0  0  0  0  0  0  0
  2  1  1  6
  2  4  1  0
  2  3  1  0
  4  5  1  0
  5  6  1  6
  7  9  1  0
  7  5  1  0
  8  7  2  0
 10  9  1  0
 11 12  1  0
 10 11  1  1
 12 16  1  0
 12 13  2  0
 13 14  1  0
 15 14  1  0
 16 15  2  0
 17 23  1  0
 17 10  1  0
 18 17  2  0
 20 19  1  1
 20 22  1  0
 21 20  1  0
 22 23  1  1
 22 24  1  0
 24 25  1  0
 26 24  2  0
M  END
$$$$
