LHT.pdb
     RDKit          3D

 26 26  0  0  1  0  0  0  0  0999 V2000
   28.0398  -38.6947  -13.6357 C   0  0  0  0  0  0  0  0  0  0  0  0
   27.1505  -37.7115  -14.3606 C   0  0  1  0  0  0  0  0  0  0  0  0
   25.7046  -38.0915  -14.2272 C   0  0  0  0  0  0  0  0  0  0  0  0
   27.4158  -36.2935  -13.8961 C   0  0  0  0  0  0  0  0  0  0  0  0
   26.4368  -35.3110  -14.5081 C   0  0  2  0  0  0  0  0  0  0  0  0
   27.0603  -34.7582  -15.6816 N   0  0  0  0  0  0  0  0  0  0  0  0
   26.1536  -34.2471  -13.5454 C   0  0  0  0  0  0  0  0  0  0  0  0
   26.9854  -33.3312  -13.3517 O   0  0  0  0  0  0  0  0  0  0  0  0
   24.9337  -34.2523  -12.8288 N   0  0  0  0  0  0  0  0  0  0  0  0
   24.6005  -33.2711  -11.8172 C   0  0  1  0  0  0  0  0  0  0  0  0
   23.3463  -32.5136  -12.1133 C   0  0  0  0  0  0  0  0  0  0  0  0
   22.9404  -31.5304  -11.1192 C   0  0  0  0  0  0  0  0  0  0  0  0
   23.4874  -31.1392   -9.9390 C   0  0  0  0  0  0  0  0  0  0  0  0
   22.7241  -30.1840   -9.3822 N   0  0  0  0  0  0  0  0  0  0  0  0
   21.6874  -29.9558  -10.1953 C   0  0  0  0  0  0  0  0  0  0  0  0
   21.8119  -30.7663  -11.2473 N   0  0  0  0  0  0  0  0  0  0  0  0
   24.6484  -33.8600  -10.4661 C   0  0  0  0  0  0  0  0  0  0  0  0
   24.1475  -34.9970  -10.2785 O   0  0  0  0  0  0  0  0  0  0  0  0
   27.7878  -33.5746   -8.3787 C   0  0  0  0  0  0  0  0  0  0  0  0
   26.6377  -33.2771   -7.4415 C   0  0  1  0  0  0  0  0  0  0  0  0
   26.6058  -31.8711   -7.3017 O   0  0  0  0  0  0  0  0  0  0  0  0
   25.3281  -33.7575   -8.0390 C   0  0  2  0  0  0  0  0  0  0  0  0
   25.2416  -33.1890   -9.3647 N   0  0  0  0  0  0  0  0  0  0  0  0
   24.1773  -33.4505   -7.1957 C   0  0  0  0  0  0  0  0  0  0  0  0
   24.0477  -33.9486   -5.9103 O   0  0  0  0  0  0  0  0  0  0  0  0
   23.2587  -32.7119   -7.6256 O   0  0  0  0  0  0  0  0  0  0  0  0
  2  1  1  1
  2  4  1  0
  2  3  1  0
  4  5  1  0
  5  6  1  6
  7  9  1  0
  7  5  1  0
  8  7  2  0
 10  9  1  0
 11 12  1  0
 10 11  1  6
 12 16  1  0
 12 13  2  0
 13 14  1  0
 15 14  1  0
 16 15  2  0
 17 23  1  0
 17 10  1  0
 18 17  2  0
 20 19  1  6
 20 22  1  0
 21 20  1  0
 22 23  1  6
 22 24  1  0
 24 25  1  0
 26 24  2  0
M  END
$$$$
