LHT.pdb
     RDKit          3D

 26 26  0  0  1  0  0  0  0  0999 V2000
   27.5909  -19.4279   -7.1996 C   0  0  0  0  0  0  0  0  0  0  0  0
   26.9723  -20.5101   -8.0536 C   0  0  1  0  0  0  0  0  0  0  0  0
   25.9369  -21.2782   -7.2850 C   0  0  0  0  0  0  0  0  0  0  0  0
   26.4204  -19.9363   -9.3431 C   0  0  0  0  0  0  0  0  0  0  0  0
   25.8382  -21.0166  -10.2333 C   0  0  2  0  0  0  0  0  0  0  0  0
   26.9410  -21.7592  -10.7844 N   0  0  0  0  0  0  0  0  0  0  0  0
   25.0686  -20.3937  -11.3097 C   0  0  0  0  0  0  0  0  0  0  0  0
   24.5347  -19.2737  -11.1396 O   0  0  0  0  0  0  0  0  0  0  0  0
   24.9261  -21.0597  -12.5497 N   0  0  0  0  0  0  0  0  0  0  0  0
   24.2448  -20.4822  -13.6898 C   0  0  1  0  0  0  0  0  0  0  0  0
   24.9313  -20.7484  -14.9907 C   0  0  0  0  0  0  0  0  0  0  0  0
   26.1450  -19.9852  -15.2440 C   0  0  0  0  0  0  0  0  0  0  0  0
   26.7698  -18.9984  -14.5506 C   0  0  0  0  0  0  0  0  0  0  0  0
   27.8749  -18.6130  -15.2104 N   0  0  0  0  0  0  0  0  0  0  0  0
   27.9678  -19.3448  -16.3257 C   0  0  0  0  0  0  0  0  0  0  0  0
   26.9253  -20.1764  -16.3523 N   0  0  0  0  0  0  0  0  0  0  0  0
   22.8095  -20.8202  -13.6814 C   0  0  0  0  0  0  0  0  0  0  0  0
   22.4609  -21.9926  -13.3934 O   0  0  0  0  0  0  0  0  0  0  0  0
   20.1945  -18.6558  -11.9368 C   0  0  0  0  0  0  0  0  0  0  0  0
   19.7182  -18.9160  -13.3492 C   0  0  1  0  0  0  0  0  0  0  0  0
   20.1038  -17.7841  -14.1026 O   0  0  0  0  0  0  0  0  0  0  0  0
   20.3876  -20.1545  -13.9155 C   0  0  2  0  0  0  0  0  0  0  0  0
   21.8022  -19.8679  -13.9870 N   0  0  0  0  0  0  0  0  0  0  0  0
   19.8117  -20.5745  -15.1890 C   0  0  0  0  0  0  0  0  0  0  0  0
   18.4880  -20.9620  -15.3109 O   0  0  0  0  0  0  0  0  0  0  0  0
   20.5185  -20.5946  -16.2254 O   0  0  0  0  0  0  0  0  0  0  0  0
  2  1  1  1
  2  4  1  0
  2  3  1  0
  4  5  1  0
  5  6  1  6
  7  9  1  0
  7  5  1  0
  8  7  2  0
 10  9  1  0
 11 12  1  0
 10 11  1  6
 12 16  1  0
 12 13  2  0
 13 14  1  0
 15 14  1  0
 16 15  2  0
 17 23  1  0
 17 10  1  0
 18 17  2  0
 20 19  1  1
 20 22  1  0
 21 20  1  0
 22 23  1  6
 22 24  1  0
 24 25  1  0
 26 24  2  0
M  END
$$$$
