LHT.pdb
     RDKit          3D

 26 26  0  0  1  0  0  0  0  0999 V2000
   24.2981  -12.1645  -21.0935 C   0  0  0  0  0  0  0  0  0  0  0  0
   23.5350  -12.5899  -19.8608 C   0  0  1  0  0  0  0  0  0  0  0  0
   24.4455  -13.2398  -18.8600 C   0  0  0  0  0  0  0  0  0  0  0  0
   22.7686  -11.4252  -19.2668 C   0  0  0  0  0  0  0  0  0  0  0  0
   21.9850  -11.8390  -18.0366 C   0  0  2  0  0  0  0  0  0  0  0  0
   21.0271  -12.8300  -18.4511 N   0  0  0  0  0  0  0  0  0  0  0  0
   21.2920  -10.6730  -17.4897 C   0  0  0  0  0  0  0  0  0  0  0  0
   20.5413   -9.9840  -18.2178 O   0  0  0  0  0  0  0  0  0  0  0  0
   21.4702  -10.3213  -16.1310 N   0  0  0  0  0  0  0  0  0  0  0  0
   20.7330   -9.2578  -15.4807 C   0  0  1  0  0  0  0  0  0  0  0  0
   19.7401   -9.7495  -14.4772 C   0  0  0  0  0  0  0  0  0  0  0  0
   18.5594  -10.4112  -15.0136 C   0  0  0  0  0  0  0  0  0  0  0  0
   18.1016  -10.5863  -16.2804 C   0  0  0  0  0  0  0  0  0  0  0  0
   16.9485  -11.2751  -16.2526 N   0  0  0  0  0  0  0  0  0  0  0  0
   16.6585  -11.5461  -14.9757 C   0  0  0  0  0  0  0  0  0  0  0  0
   17.6282  -11.0267  -14.2213 N   0  0  0  0  0  0  0  0  0  0  0  0
   21.6406   -8.2121  -14.9735 C   0  0  0  0  0  0  0  0  0  0  0  0
   22.6723   -8.5536  -14.3428 O   0  0  0  0  0  0  0  0  0  0  0  0
   23.1143   -5.4206  -16.9461 C   0  0  0  0  0  0  0  0  0  0  0  0
   22.4360   -4.7736  -15.7584 C   0  0  1  0  0  0  0  0  0  0  0  0
   21.1761   -4.3338  -16.2242 O   0  0  0  0  0  0  0  0  0  0  0  0
   22.2403   -5.7841  -14.6434 C   0  0  2  0  0  0  0  0  0  0  0  0
   21.3925   -6.8285  -15.1716 N   0  0  0  0  0  0  0  0  0  0  0  0
   21.7276   -5.1796  -13.4180 C   0  0  0  0  0  0  0  0  0  0  0  0
   22.4430   -4.2333  -12.7040 O   0  0  0  0  0  0  0  0  0  0  0  0
   20.6021   -5.5110  -12.9736 O   0  0  0  0  0  0  0  0  0  0  0  0
  2  1  1  6
  2  4  1  0
  2  3  1  0
  4  5  1  0
  5  6  1  6
  7  9  1  0
  7  5  1  0
  8  7  2  0
 10  9  1  0
 11 12  1  0
 10 11  1  1
 12 16  1  0
 12 13  2  0
 13 14  1  0
 15 14  1  0
 16 15  2  0
 17 23  1  0
 17 10  1  0
 18 17  2  0
 20 19  1  6
 20 22  1  0
 21 20  1  0
 22 23  1  6
 22 24  1  0
 24 25  1  0
 26 24  2  0
M  END
$$$$
