WQT.pdb
     RDKit          3D

 31 32  0  0  1  0  0  0  0  0999 V2000
   24.2313  -21.1041  -10.2525 N   0  0  0  0  0  0  0  0  0  0  0  0
   25.4519  -20.6191  -10.8804 C   0  0  1  0  0  0  0  0  0  0  0  0
   26.6588  -21.3266  -10.2499 C   0  0  0  0  0  0  0  0  0  0  0  0
   26.8431  -20.7767   -8.9029 C   0  0  0  0  0  0  0  0  0  0  0  0
   25.8905  -20.1274   -8.1461 C   0  0  0  0  0  0  0  0  0  0  0  0
   26.4492  -19.7795   -6.9852 N   0  0  0  0  0  0  0  0  0  0  0  0
   27.7428  -20.1669   -6.9247 C   0  0  0  0  0  0  0  0  0  0  0  0
   28.7377  -20.0561   -5.9750 C   0  0  0  0  0  0  0  0  0  0  0  0
   29.9962  -20.5679   -6.2107 C   0  0  0  0  0  0  0  0  0  0  0  0
   30.2517  -21.1958   -7.4129 C   0  0  0  0  0  0  0  0  0  0  0  0
   29.2600  -21.3087   -8.3646 C   0  0  0  0  0  0  0  0  0  0  0  0
   27.9883  -20.7972   -8.1391 C   0  0  0  0  0  0  0  0  0  0  0  0
   25.4712  -21.0052  -12.3104 C   0  0  0  0  0  0  0  0  0  0  0  0
   25.4575  -22.2202  -12.5850 O   0  0  0  0  0  0  0  0  0  0  0  0
   23.1805  -21.8065  -16.0801 N   0  0  0  0  0  0  0  0  0  0  0  0
   22.3959  -21.0267  -15.1633 C   0  0  0  0  0  0  0  0  0  0  0  0
   21.2733  -21.4130  -14.7702 O   0  0  0  0  0  0  0  0  0  0  0  0
   22.9617  -19.7118  -14.6761 C   0  0  0  0  0  0  0  0  0  0  0  0
   24.3092  -19.5705  -15.2839 C   0  0  0  0  0  0  0  0  0  0  0  0
   25.4068  -20.4024  -14.7193 C   0  0  2  0  0  0  0  0  0  0  0  0
   25.5032  -20.0192  -13.3009 N   0  0  0  0  0  0  0  0  0  0  0  0
   26.7159  -20.3041  -15.3787 C   0  0  0  0  0  0  0  0  0  0  0  0
   27.3969  -19.2334  -15.2707 O   0  0  0  0  0  0  0  0  0  0  0  0
   29.6441  -22.9042  -15.2313 C   0  0  0  0  0  0  0  0  0  0  0  0
   29.3702  -22.5013  -16.6595 C   0  0  1  0  0  0  0  0  0  0  0  0
   28.5708  -23.4716  -17.2370 O   0  0  0  0  0  0  0  0  0  0  0  0
   28.6741  -21.1402  -16.7222 C   0  0  2  0  0  0  0  0  0  0  0  0
   27.3279  -21.3176  -16.1514 N   0  0  0  0  0  0  0  0  0  0  0  0
   28.6179  -20.6791  -18.1084 C   0  0  0  0  0  0  0  0  0  0  0  0
   29.8072  -20.4002  -18.7587 O   0  0  0  0  0  0  0  0  0  0  0  0
   27.5393  -20.5228  -18.7400 O   0  0  0  0  0  0  0  0  0  0  0  0
  2  1  1  1
  2  3  1  0
  3  4  1  0
  4  5  2  0
  5  6  1  0
  7  6  1  0
  8  7  2  0
  9  8  1  0
 10 11  1  0
 10  9  2  0
 11 12  2  0
 12  4  1  0
 12  7  1  0
 13 21  1  0
 13  2  1  0
 14 13  2  0
 16 17  2  0
 16 15  1  0
 18 16  1  0
 19 18  1  0
 20 21  1  0
 20 19  1  6
 22 20  1  0
 23 22  2  0
 25 24  1  1
 25 26  1  0
 25 27  1  0
 27 29  1  0
 27 28  1  6
 28 22  1  0
 29 30  1  0
 31 29  2  0
M  END
$$$$
