WQT.pdb
     RDKit          3D

 31 32  0  0  1  0  0  0  0  0999 V2000
   26.8617  -19.6437  -11.0816 N   0  0  0  0  0  0  0  0  0  0  0  0
   26.4646  -21.0377  -11.2171 C   0  0  1  0  0  0  0  0  0  0  0  0
   25.7692  -21.4916   -9.9267 C   0  0  0  0  0  0  0  0  0  0  0  0
   26.4461  -20.8366   -8.8025 C   0  0  0  0  0  0  0  0  0  0  0  0
   25.8569  -20.0385   -7.8445 C   0  0  0  0  0  0  0  0  0  0  0  0
   26.8074  -19.6341   -6.9995 N   0  0  0  0  0  0  0  0  0  0  0  0
   28.0176  -20.1262   -7.3464 C   0  0  0  0  0  0  0  0  0  0  0  0
   29.2888  -20.0148   -6.8214 C   0  0  0  0  0  0  0  0  0  0  0  0
   30.3551  -20.6548   -7.4170 C   0  0  0  0  0  0  0  0  0  0  0  0
   30.1365  -21.4121   -8.5499 C   0  0  0  0  0  0  0  0  0  0  0  0
   28.8675  -21.5259   -9.0777 C   0  0  0  0  0  0  0  0  0  0  0  0
   27.7852  -20.8861   -8.4870 C   0  0  0  0  0  0  0  0  0  0  0  0
   25.4440  -21.1701  -12.2825 C   0  0  0  0  0  0  0  0  0  0  0  0
   24.8271  -20.1443  -12.6276 O   0  0  0  0  0  0  0  0  0  0  0  0
   26.0850  -25.8078  -16.0852 N   0  0  0  0  0  0  0  0  0  0  0  0
   24.7264  -25.4999  -16.4370 C   0  0  0  0  0  0  0  0  0  0  0  0
   24.0128  -26.3127  -17.0648 O   0  0  0  0  0  0  0  0  0  0  0  0
   24.1683  -24.1555  -16.0274 C   0  0  0  0  0  0  0  0  0  0  0  0
   24.7856  -23.8122  -14.7211 C   0  0  0  0  0  0  0  0  0  0  0  0
   24.4250  -22.5011  -14.1157 C   0  0  2  0  0  0  0  0  0  0  0  0
   25.1999  -22.4165  -12.8665 N   0  0  0  0  0  0  0  0  0  0  0  0
   22.9979  -22.2600  -13.8643 C   0  0  0  0  0  0  0  0  0  0  0  0
   22.4842  -22.6186  -12.7555 O   0  0  0  0  0  0  0  0  0  0  0  0
   18.7298  -19.9721  -15.0372 C   0  0  0  0  0  0  0  0  0  0  0  0
   20.1807  -20.2801  -15.3147 C   0  0  1  0  0  0  0  0  0  0  0  0
   20.9113  -19.1190  -15.1359 O   0  0  0  0  0  0  0  0  0  0  0  0
   20.6977  -21.3763  -14.3807 C   0  0  2  0  0  0  0  0  0  0  0  0
   22.0958  -21.6423  -14.7605 N   0  0  0  0  0  0  0  0  0  0  0  0
   19.8643  -22.5700  -14.5133 C   0  0  0  0  0  0  0  0  0  0  0  0
   18.9053  -22.8147  -13.5461 O   0  0  0  0  0  0  0  0  0  0  0  0
   19.9766  -23.3873  -15.4652 O   0  0  0  0  0  0  0  0  0  0  0  0
  2  1  1  1
  2  3  1  0
  3  4  1  0
  4  5  2  0
  5  6  1  0
  7  6  1  0
  8  7  2  0
  9  8  1  0
 10 11  1  0
 10  9  2  0
 11 12  2  0
 12  4  1  0
 12  7  1  0
 13 21  1  0
 13  2  1  0
 14 13  2  0
 16 17  2  0
 16 15  1  0
 18 16  1  0
 19 18  1  0
 20 21  1  0
 20 19  1  1
 22 20  1  0
 23 22  2  0
 25 24  1  1
 25 26  1  0
 25 27  1  0
 27 29  1  0
 27 28  1  6
 28 22  1  0
 29 30  1  0
 31 29  2  0
M  END
$$$$
