WQT.pdb
     RDKit          3D

 31 32  0  0  1  0  0  0  0  0999 V2000
   26.0669  -18.8113   -9.1685 N   0  0  0  0  0  0  0  0  0  0  0  0
   26.7840  -19.9383   -9.7474 C   0  0  1  0  0  0  0  0  0  0  0  0
   26.6132  -21.1642   -8.8403 C   0  0  0  0  0  0  0  0  0  0  0  0
   26.7232  -20.7082   -7.4507 C   0  0  0  0  0  0  0  0  0  0  0  0
   25.6802  -20.3613   -6.6178 C   0  0  0  0  0  0  0  0  0  0  0  0
   26.1926  -20.0000   -5.4398 N   0  0  0  0  0  0  0  0  0  0  0  0
   27.5414  -20.0879   -5.4407 C   0  0  0  0  0  0  0  0  0  0  0  0
   28.5232  -19.8389   -4.5036 C   0  0  0  0  0  0  0  0  0  0  0  0
   29.8539  -20.0293   -4.8106 C   0  0  0  0  0  0  0  0  0  0  0  0
   30.1956  -20.4740   -6.0716 C   0  0  0  0  0  0  0  0  0  0  0  0
   29.2172  -20.7240   -7.0109 C   0  0  0  0  0  0  0  0  0  0  0  0
   27.8733  -20.5361   -6.7140 C   0  0  0  0  0  0  0  0  0  0  0  0
   26.1694  -20.3164  -11.0411 C   0  0  0  0  0  0  0  0  0  0  0  0
   24.9761  -20.0124  -11.2290 O   0  0  0  0  0  0  0  0  0  0  0  0
   30.0330  -22.6627  -14.9549 N   0  0  0  0  0  0  0  0  0  0  0  0
   29.4438  -21.7824  -15.9256 C   0  0  0  0  0  0  0  0  0  0  0  0
   29.8019  -21.7959  -17.1237 O   0  0  0  0  0  0  0  0  0  0  0  0
   28.3671  -20.8261  -15.4640 C   0  0  0  0  0  0  0  0  0  0  0  0
   28.1423  -21.0941  -14.0207 C   0  0  0  0  0  0  0  0  0  0  0  0
   26.9118  -20.5297  -13.4020 C   0  0  2  0  0  0  0  0  0  0  0  0
   26.9253  -20.9916  -12.0039 N   0  0  0  0  0  0  0  0  0  0  0  0
   25.6357  -20.8599  -14.0504 C   0  0  0  0  0  0  0  0  0  0  0  0
   25.3114  -20.2779  -15.1357 O   0  0  0  0  0  0  0  0  0  0  0  0
   22.7546  -19.6788  -13.1789 C   0  0  0  0  0  0  0  0  0  0  0  0
   22.3892  -21.1410  -13.2528 C   0  0  1  0  0  0  0  0  0  0  0  0
   21.0935  -21.2397  -13.7274 O   0  0  0  0  0  0  0  0  0  0  0  0
   23.3463  -21.9003  -14.1740 C   0  0  2  0  0  0  0  0  0  0  0  0
   24.6896  -21.7985  -13.5784 N   0  0  0  0  0  0  0  0  0  0  0  0
   23.3035  -21.3199  -15.5151 C   0  0  0  0  0  0  0  0  0  0  0  0
   22.2685  -21.6849  -16.3582 O   0  0  0  0  0  0  0  0  0  0  0  0
   24.1631  -20.5037  -15.9412 O   0  0  0  0  0  0  0  0  0  0  0  0
  2  1  1  1
  2  3  1  0
  3  4  1  0
  4  5  2  0
  5  6  1  0
  7  6  1  0
  8  7  2  0
  9  8  1  0
 10 11  1  0
 10  9  2  0
 11 12  2  0
 12  4  1  0
 12  7  1  0
 13 21  1  0
 13  2  1  0
 14 13  2  0
 16 17  2  0
 16 15  1  0
 18 16  1  0
 19 18  1  0
 20 21  1  0
 20 19  1  6
 22 20  1  0
 23 22  2  0
 25 24  1  6
 25 26  1  0
 25 27  1  0
 27 29  1  0
 27 28  1  1
 28 22  1  0
 29 30  1  0
 31 29  2  0
M  END
$$$$
