WQT.pdb
     RDKit          3D

 31 32  0  0  1  0  0  0  0  0999 V2000
   27.8773  -22.0060  -13.4277 N   0  0  0  0  0  0  0  0  0  0  0  0
   26.8418  -21.2572  -12.7301 C   0  0  1  0  0  0  0  0  0  0  0  0
   27.4245  -19.9229  -12.2453 C   0  0  0  0  0  0  0  0  0  0  0  0
   28.2292  -20.1969  -11.0501 C   0  0  0  0  0  0  0  0  0  0  0  0
   29.5833  -20.4562  -11.0164 C   0  0  0  0  0  0  0  0  0  0  0  0
   29.9360  -20.6550   -9.7449 N   0  0  0  0  0  0  0  0  0  0  0  0
   28.8752  -20.5410   -8.9150 C   0  0  0  0  0  0  0  0  0  0  0  0
   28.7044  -20.6496   -7.5501 C   0  0  0  0  0  0  0  0  0  0  0  0
   27.4613  -20.4731   -6.9799 C   0  0  0  0  0  0  0  0  0  0  0  0
   26.3840  -20.1850   -7.7929 C   0  0  0  0  0  0  0  0  0  0  0  0
   26.5506  -20.0757   -9.1576 C   0  0  0  0  0  0  0  0  0  0  0  0
   27.7976  -20.2512   -9.7440 C   0  0  0  0  0  0  0  0  0  0  0  0
   25.7590  -20.8950  -13.6738 C   0  0  0  0  0  0  0  0  0  0  0  0
   26.0819  -20.5667  -14.8313 O   0  0  0  0  0  0  0  0  0  0  0  0
   22.9275  -24.4495  -16.1955 N   0  0  0  0  0  0  0  0  0  0  0  0
   23.2367  -24.6176  -14.8024 C   0  0  0  0  0  0  0  0  0  0  0  0
   23.3612  -25.7525  -14.2922 O   0  0  0  0  0  0  0  0  0  0  0  0
   23.4111  -23.3783  -13.9537 C   0  0  0  0  0  0  0  0  0  0  0  0
   23.2694  -22.2110  -14.8606 C   0  0  0  0  0  0  0  0  0  0  0  0
   23.3431  -20.8554  -14.2503 C   0  0  2  0  0  0  0  0  0  0  0  0
   24.4257  -20.9288  -13.2550 N   0  0  0  0  0  0  0  0  0  0  0  0
   22.1095  -20.3357  -13.6453 C   0  0  0  0  0  0  0  0  0  0  0  0
   21.8171  -20.6461  -12.4453 O   0  0  0  0  0  0  0  0  0  0  0  0
   18.0847  -17.3822  -13.8332 C   0  0  0  0  0  0  0  0  0  0  0  0
   19.2561  -18.0399  -14.5204 C   0  0  1  0  0  0  0  0  0  0  0  0
   20.1324  -17.0488  -14.9249 O   0  0  0  0  0  0  0  0  0  0  0  0
   19.9650  -19.0181  -13.5815 C   0  0  2  0  0  0  0  0  0  0  0  0
   21.1734  -19.4879  -14.2807 N   0  0  0  0  0  0  0  0  0  0  0  0
   19.0666  -20.1232  -13.2515 C   0  0  0  0  0  0  0  0  0  0  0  0
   18.9925  -21.1950  -14.1238 O   0  0  0  0  0  0  0  0  0  0  0  0
   18.3560  -20.1474  -12.2117 O   0  0  0  0  0  0  0  0  0  0  0  0
  2  1  1  6
  2  3  1  0
  3  4  1  0
  4  5  2  0
  5  6  1  0
  7  6  1  0
  8  7  2  0
  9  8  1  0
 10 11  1  0
 10  9  2  0
 11 12  2  0
 12  4  1  0
 12  7  1  0
 13 21  1  0
 13  2  1  0
 14 13  2  0
 16 17  2  0
 16 15  1  0
 18 16  1  0
 19 18  1  0
 20 21  1  0
 20 19  1  1
 22 20  1  0
 23 22  2  0
 25 24  1  1
 25 26  1  0
 25 27  1  0
 27 29  1  0
 27 28  1  6
 28 22  1  0
 29 30  1  0
 31 29  2  0
M  END
$$$$
