WQT.pdb
     RDKit          3D

 31 32  0  0  1  0  0  0  0  0999 V2000
   28.0879  -20.0070  -11.7436 N   0  0  0  0  0  0  0  0  0  0  0  0
   26.9717  -20.9383  -11.8228 C   0  0  1  0  0  0  0  0  0  0  0  0
   26.5616  -21.3556  -10.4042 C   0  0  0  0  0  0  0  0  0  0  0  0
   27.7326  -21.1921   -9.5363 C   0  0  0  0  0  0  0  0  0  0  0  0
   29.0284  -21.5602   -9.8317 C   0  0  0  0  0  0  0  0  0  0  0  0
   29.7969  -21.2476   -8.7865 N   0  0  0  0  0  0  0  0  0  0  0  0
   29.0739  -20.6824   -7.7941 C   0  0  0  0  0  0  0  0  0  0  0  0
   29.3776  -20.1921   -6.5405 C   0  0  0  0  0  0  0  0  0  0  0  0
   28.3931  -19.6590   -5.7356 C   0  0  0  0  0  0  0  0  0  0  0  0
   27.0938  -19.6204   -6.1993 C   0  0  0  0  0  0  0  0  0  0  0  0
   26.7863  -20.1094   -7.4516 C   0  0  0  0  0  0  0  0  0  0  0  0
   27.7689  -20.6489   -8.2719 C   0  0  0  0  0  0  0  0  0  0  0  0
   25.7858  -20.2569  -12.3916 C   0  0  0  0  0  0  0  0  0  0  0  0
   25.4945  -19.1296  -11.9486 O   0  0  0  0  0  0  0  0  0  0  0  0
   21.6780  -20.2842  -16.3538 N   0  0  0  0  0  0  0  0  0  0  0  0
   22.4404  -19.1350  -16.7572 C   0  0  0  0  0  0  0  0  0  0  0  0
   21.9410  -18.2350  -17.4674 O   0  0  0  0  0  0  0  0  0  0  0  0
   23.8782  -19.0337  -16.2999 C   0  0  0  0  0  0  0  0  0  0  0  0
   24.1589  -20.2451  -15.4881 C   0  0  0  0  0  0  0  0  0  0  0  0
   23.9144  -20.1602  -14.0223 C   0  0  2  0  0  0  0  0  0  0  0  0
   25.0345  -20.8794  -13.3928 N   0  0  0  0  0  0  0  0  0  0  0  0
   22.6253  -20.6709  -13.5373 C   0  0  0  0  0  0  0  0  0  0  0  0
   22.4825  -21.9178  -13.3216 O   0  0  0  0  0  0  0  0  0  0  0  0
   19.2077  -18.2155  -12.7744 C   0  0  0  0  0  0  0  0  0  0  0  0
   19.6109  -19.3323  -11.8431 C   0  0  1  0  0  0  0  0  0  0  0  0
   18.4727  -19.8016  -11.2122 O   0  0  0  0  0  0  0  0  0  0  0  0
   20.2936  -20.4670  -12.6096 C   0  0  2  0  0  0  0  0  0  0  0  0
   21.4773  -19.8902  -13.2699 N   0  0  0  0  0  0  0  0  0  0  0  0
   19.3594  -21.0398  -13.5771 C   0  0  0  0  0  0  0  0  0  0  0  0
   18.2962  -21.7880  -13.1030 O   0  0  0  0  0  0  0  0  0  0  0  0
   19.4750  -20.8858  -14.8220 O   0  0  0  0  0  0  0  0  0  0  0  0
  2  1  1  1
  2  3  1  0
  3  4  1  0
  4  5  2  0
  5  6  1  0
  7  6  1  0
  8  7  2  0
  9  8  1  0
 10 11  1  0
 10  9  2  0
 11 12  2  0
 12  4  1  0
 12  7  1  0
 13 21  1  0
 13  2  1  0
 14 13  2  0
 16 17  2  0
 16 15  1  0
 18 16  1  0
 19 18  1  0
 20 21  1  0
 20 19  1  6
 22 20  1  0
 23 22  2  0
 25 24  1  6
 25 26  1  0
 25 27  1  0
 27 29  1  0
 27 28  1  6
 28 22  1  0
 29 30  1  0
 31 29  2  0
M  END
$$$$
