WQT.pdb
     RDKit          3D

 31 32  0  0  1  0  0  0  0  0999 V2000
   23.4844  -21.4035  -11.4933 N   0  0  0  0  0  0  0  0  0  0  0  0
   24.5540  -20.4716  -11.8206 C   0  0  1  0  0  0  0  0  0  0  0  0
   25.9046  -21.1127  -11.4749 C   0  0  0  0  0  0  0  0  0  0  0  0
   26.2068  -20.7874  -10.0771 C   0  0  0  0  0  0  0  0  0  0  0  0
   25.3027  -20.3870   -9.1157 C   0  0  0  0  0  0  0  0  0  0  0  0
   25.9694  -20.1864   -7.9772 N   0  0  0  0  0  0  0  0  0  0  0  0
   27.2894  -20.4348   -8.1282 C   0  0  0  0  0  0  0  0  0  0  0  0
   28.3816  -20.3819   -7.2866 C   0  0  0  0  0  0  0  0  0  0  0  0
   29.6409  -20.7046   -7.7463 C   0  0  0  0  0  0  0  0  0  0  0  0
   29.7985  -21.0831   -9.0641 C   0  0  0  0  0  0  0  0  0  0  0  0
   28.7094  -21.1372   -9.9084 C   0  0  0  0  0  0  0  0  0  0  0  0
   27.4358  -20.8146   -9.4574 C   0  0  0  0  0  0  0  0  0  0  0  0
   24.5906  -20.2393  -13.2831 C   0  0  0  0  0  0  0  0  0  0  0  0
   23.9934  -21.0504  -14.0159 O   0  0  0  0  0  0  0  0  0  0  0  0
   25.6794  -14.6915  -15.0012 N   0  0  0  0  0  0  0  0  0  0  0  0
   25.4186  -15.1374  -16.3419 C   0  0  0  0  0  0  0  0  0  0  0  0
   25.4231  -14.3434  -17.3080 O   0  0  0  0  0  0  0  0  0  0  0  0
   25.1347  -16.6059  -16.5651 C   0  0  0  0  0  0  0  0  0  0  0  0
   25.2897  -17.2796  -15.2508 C   0  0  0  0  0  0  0  0  0  0  0  0
   25.0968  -18.7550  -15.2095 C   0  0  2  0  0  0  0  0  0  0  0  0
   25.2794  -19.1378  -13.7994 N   0  0  0  0  0  0  0  0  0  0  0  0
   25.9592  -19.5584  -16.0863 C   0  0  0  0  0  0  0  0  0  0  0  0
   26.0292  -19.2810  -17.3272 O   0  0  0  0  0  0  0  0  0  0  0  0
   29.6561  -22.8383  -16.6827 C   0  0  0  0  0  0  0  0  0  0  0  0
   28.7566  -22.0000  -15.8078 C   0  0  1  0  0  0  0  0  0  0  0  0
   29.5286  -21.0241  -15.2031 O   0  0  0  0  0  0  0  0  0  0  0  0
   27.6392  -21.3534  -16.6290 C   0  0  2  0  0  0  0  0  0  0  0  0
   26.7571  -20.6526  -15.6801 N   0  0  0  0  0  0  0  0  0  0  0  0
   26.9199  -22.3822  -17.3782 C   0  0  0  0  0  0  0  0  0  0  0  0
   25.5829  -22.5934  -17.0901 O   0  0  0  0  0  0  0  0  0  0  0  0
   27.4578  -23.0863  -18.2735 O   0  0  0  0  0  0  0  0  0  0  0  0
  2  1  1  6
  2  3  1  0
  3  4  1  0
  4  5  2  0
  5  6  1  0
  7  6  1  0
  8  7  2  0
  9  8  1  0
 10 11  1  0
 10  9  2  0
 11 12  2  0
 12  4  1  0
 12  7  1  0
 13 21  1  0
 13  2  1  0
 14 13  2  0
 16 17  2  0
 16 15  1  0
 18 16  1  0
 19 18  1  0
 20 21  1  0
 20 19  1  1
 22 20  1  0
 23 22  2  0
 25 24  1  6
 25 26  1  0
 25 27  1  0
 27 29  1  0
 27 28  1  1
 28 22  1  0
 29 30  1  0
 31 29  2  0
M  END
$$$$
