WQT.pdb
     RDKit          3D

 31 32  0  0  1  0  0  0  0  0999 V2000
   24.9422  -21.2491   -9.6619 N   0  0  0  0  0  0  0  0  0  0  0  0
   26.0980  -20.6973  -10.3541 C   0  0  1  0  0  0  0  0  0  0  0  0
   27.3757  -21.1156   -9.6145 C   0  0  0  0  0  0  0  0  0  0  0  0
   27.4082  -20.3928   -8.3388 C   0  0  0  0  0  0  0  0  0  0  0  0
   26.4268  -19.5592   -7.8447 C   0  0  0  0  0  0  0  0  0  0  0  0
   26.8335  -19.0956   -6.6613 N   0  0  0  0  0  0  0  0  0  0  0  0
   28.0514  -19.5815   -6.3332 C   0  0  0  0  0  0  0  0  0  0  0  0
   28.8929  -19.4203   -5.2516 C   0  0  0  0  0  0  0  0  0  0  0  0
   30.1087  -20.0691   -5.2026 C   0  0  0  0  0  0  0  0  0  0  0  0
   30.4771  -20.8859   -6.2524 C   0  0  0  0  0  0  0  0  0  0  0  0
   29.6387  -21.0495   -7.3352 C   0  0  0  0  0  0  0  0  0  0  0  0
   28.4116  -20.4015   -7.3963 C   0  0  0  0  0  0  0  0  0  0  0  0
   26.2101  -21.2957  -11.7045 C   0  0  0  0  0  0  0  0  0  0  0  0
   26.4482  -22.5160  -11.7820 O   0  0  0  0  0  0  0  0  0  0  0  0
   25.2192  -24.4770  -13.9109 N   0  0  0  0  0  0  0  0  0  0  0  0
   24.9239  -24.1248  -15.2722 C   0  0  0  0  0  0  0  0  0  0  0  0
   24.8198  -24.9942  -16.1651 O   0  0  0  0  0  0  0  0  0  0  0  0
   24.7388  -22.6623  -15.6089 C   0  0  0  0  0  0  0  0  0  0  0  0
   24.9016  -21.9043  -14.3424 C   0  0  0  0  0  0  0  0  0  0  0  0
   26.1427  -21.0988  -14.1798 C   0  0  2  0  0  0  0  0  0  0  0  0
   26.0495  -20.4958  -12.8397 N   0  0  0  0  0  0  0  0  0  0  0  0
   26.4023  -20.0731  -15.1989 C   0  0  0  0  0  0  0  0  0  0  0  0
   26.9648  -18.9807  -14.8642 O   0  0  0  0  0  0  0  0  0  0  0  0
   28.3325  -21.6032  -17.6466 C   0  0  0  0  0  0  0  0  0  0  0  0
   28.3293  -20.1065  -17.4551 C   0  0  1  0  0  0  0  0  0  0  0  0
   29.1703  -19.5475  -18.4007 O   0  0  0  0  0  0  0  0  0  0  0  0
   26.9171  -19.5368  -17.6043 C   0  0  2  0  0  0  0  0  0  0  0  0
   26.0830  -20.1761  -16.5723 N   0  0  0  0  0  0  0  0  0  0  0  0
   26.4159  -19.8088  -18.9505 C   0  0  0  0  0  0  0  0  0  0  0  0
   25.3417  -20.6696  -19.0920 O   0  0  0  0  0  0  0  0  0  0  0  0
   26.9144  -19.2978  -19.9883 O   0  0  0  0  0  0  0  0  0  0  0  0
  2  1  1  1
  2  3  1  0
  3  4  1  0
  4  5  2  0
  5  6  1  0
  7  6  1  0
  8  7  2  0
  9  8  1  0
 10 11  1  0
 10  9  2  0
 11 12  2  0
 12  4  1  0
 12  7  1  0
 13 21  1  0
 13  2  1  0
 14 13  2  0
 16 17  2  0
 16 15  1  0
 18 16  1  0
 19 18  1  0
 20 21  1  0
 20 19  1  6
 22 20  1  0
 23 22  2  0
 25 24  1  6
 25 26  1  0
 25 27  1  0
 27 29  1  0
 27 28  1  1
 28 22  1  0
 29 30  1  0
 31 29  2  0
M  END
$$$$
