AAS.pdb
     RDKit          3D

 17 16  0  0  1  0  0  0  0  0999 V2000
    2.8002  -22.6278   17.9678 C   0  0  0  0  0  0  0  0  0  0  0  0
    2.0415  -21.3330   18.0298 C   0  0  2  0  0  0  0  0  0  0  0  0
    2.0522  -20.7253   16.7326 N   0  0  0  0  0  0  0  0  0  0  0  0
    2.5564  -20.4248   19.0879 C   0  0  0  0  0  0  0  0  0  0  0  0
    3.4969  -19.6703   18.8105 O   0  0  0  0  0  0  0  0  0  0  0  0
    1.5888  -19.5772   22.6712 C   0  0  0  0  0  0  0  0  0  0  0  0
    2.5176  -19.6291   21.4826 C   0  0  2  0  0  0  0  0  0  0  0  0
    2.0036  -20.4017   20.3913 N   0  0  0  0  0  0  0  0  0  0  0  0
    3.8319  -20.1239   21.9689 C   0  0  0  0  0  0  0  0  0  0  0  0
    4.0880  -21.3508   21.8522 O   0  0  0  0  0  0  0  0  0  0  0  0
    6.3015  -17.6606   23.9432 O   0  0  0  0  0  0  0  0  0  0  0  0
    7.0561  -18.6737   23.3414 C   0  0  0  0  0  0  0  0  0  0  0  0
    6.0980  -19.8090   23.0461 C   0  0  2  0  0  0  0  0  0  0  0  0
    4.8234  -19.3191   22.5560 N   0  0  0  0  0  0  0  0  0  0  0  0
    5.8406  -20.4989   24.3185 C   0  0  0  0  0  0  0  0  0  0  0  0
    4.7273  -20.4311   24.8618 O   0  0  0  0  0  0  0  0  0  0  0  0
    6.8430  -21.2289   24.9165 O   0  0  0  0  0  0  0  0  0  0  0  0
  2  1  1  6
  2  3  1  0
  4  5  2  0
  4  2  1  0
  7  6  1  1
  7  8  1  0
  8  4  1  0
  9  7  1  0
 10  9  2  0
 11 12  1  0
 13 12  1  1
 13 15  1  0
 13 14  1  0
 14  9  1  0
 15 17  1  0
 16 15  2  0
M  END
$$$$
