AAS.pdb
     RDKit          3D

 17 16  0  0  1  0  0  0  0  0999 V2000
    8.9331  -12.2127   18.6878 C   0  0  0  0  0  0  0  0  0  0  0  0
    8.6179  -13.6152   18.2524 C   0  0  2  0  0  0  0  0  0  0  0  0
    7.5229  -13.5804   17.3295 N   0  0  0  0  0  0  0  0  0  0  0  0
    8.3640  -14.5219   19.4026 C   0  0  0  0  0  0  0  0  0  0  0  0
    7.2191  -14.5765   19.8684 O   0  0  0  0  0  0  0  0  0  0  0  0
    9.9537  -17.5676   20.7856 C   0  0  0  0  0  0  0  0  0  0  0  0
    9.1895  -16.2852   21.0084 C   0  0  2  0  0  0  0  0  0  0  0  0
    9.3884  -15.3161   19.9723 N   0  0  0  0  0  0  0  0  0  0  0  0
    9.5637  -15.7746   22.3531 C   0  0  0  0  0  0  0  0  0  0  0  0
   10.6889  -15.2279   22.4920 O   0  0  0  0  0  0  0  0  0  0  0  0
    6.8351  -15.5635   25.2678 O   0  0  0  0  0  0  0  0  0  0  0  0
    7.9317  -14.7307   25.5168 C   0  0  0  0  0  0  0  0  0  0  0  0
    9.1162  -15.3514   24.8057 C   0  0  2  0  0  0  0  0  0  0  0  0
    8.7492  -15.8554   23.4956 N   0  0  0  0  0  0  0  0  0  0  0  0
    9.5486  -16.5027   25.6111 C   0  0  0  0  0  0  0  0  0  0  0  0
    9.4578  -17.6571   25.1657 O   0  0  0  0  0  0  0  0  0  0  0  0
   10.0602  -16.3018   26.8733 O   0  0  0  0  0  0  0  0  0  0  0  0
  2  1  1  1
  2  3  1  0
  4  5  2  0
  4  2  1  0
  7  6  1  6
  7  8  1  0
  8  4  1  0
  9  7  1  0
 10  9  2  0
 11 12  1  0
 13 12  1  1
 13 15  1  0
 13 14  1  0
 14  9  1  0
 15 17  1  0
 16 15  2  0
M  END
$$$$
