AAS.pdb
     RDKit          3D

 17 16  0  0  1  0  0  0  0  0999 V2000
    7.7581  -16.7315   15.3761 C   0  0  0  0  0  0  0  0  0  0  0  0
    8.1742  -15.2989   15.2021 C   0  0  2  0  0  0  0  0  0  0  0  0
    8.8561  -15.1617   13.9498 N   0  0  0  0  0  0  0  0  0  0  0  0
    8.9807  -14.8002   16.3468 C   0  0  0  0  0  0  0  0  0  0  0  0
   10.2063  -14.9673   16.3214 O   0  0  0  0  0  0  0  0  0  0  0  0
    8.2320  -12.8316   19.5271 C   0  0  0  0  0  0  0  0  0  0  0  0
    9.1146  -13.5468   18.5333 C   0  0  2  0  0  0  0  0  0  0  0  0
    8.3879  -14.1457   17.4537 N   0  0  0  0  0  0  0  0  0  0  0  0
    9.9304  -14.5300   19.2927 C   0  0  0  0  0  0  0  0  0  0  0  0
    9.5369  -15.7248   19.3366 O   0  0  0  0  0  0  0  0  0  0  0  0
   13.8910  -14.1396   19.6959 O   0  0  0  0  0  0  0  0  0  0  0  0
   13.3597  -14.6197   20.8980 C   0  0  0  0  0  0  0  0  0  0  0  0
   12.0058  -15.2120   20.5663 C   0  0  2  0  0  0  0  0  0  0  0  0
   11.1216  -14.2260   19.9739 N   0  0  0  0  0  0  0  0  0  0  0  0
   11.3978  -15.6373   21.8354 C   0  0  0  0  0  0  0  0  0  0  0  0
   10.3780  -15.0786   22.2677 O   0  0  0  0  0  0  0  0  0  0  0  0
   11.9632  -16.6661   22.5545 O   0  0  0  0  0  0  0  0  0  0  0  0
  2  1  1  1
  2  3  1  0
  4  5  2  0
  4  2  1  0
  7  6  1  1
  7  8  1  0
  8  4  1  0
  9  7  1  0
 10  9  2  0
 11 12  1  0
 13 12  1  1
 13 15  1  0
 13 14  1  0
 14  9  1  0
 15 17  1  0
 16 15  2  0
M  END
$$$$
