AAS.pdb
     RDKit          3D

 17 16  0  0  1  0  0  0  0  0999 V2000
    7.3405  -16.5393   15.2389 C   0  0  0  0  0  0  0  0  0  0  0  0
    7.9858  -15.1902   15.0991 C   0  0  2  0  0  0  0  0  0  0  0  0
    8.8230  -15.1935   13.9367 N   0  0  0  0  0  0  0  0  0  0  0  0
    8.7182  -14.7827   16.3267 C   0  0  0  0  0  0  0  0  0  0  0  0
    9.9195  -15.0647   16.4172 O   0  0  0  0  0  0  0  0  0  0  0  0
    7.8429  -12.8073   19.4704 C   0  0  0  0  0  0  0  0  0  0  0  0
    8.7480  -13.5907   18.5511 C   0  0  2  0  0  0  0  0  0  0  0  0
    8.0825  -14.0874   17.3837 N   0  0  0  0  0  0  0  0  0  0  0  0
    9.3736  -14.6697   19.3593 C   0  0  0  0  0  0  0  0  0  0  0  0
    8.7514  -15.7563   19.4877 O   0  0  0  0  0  0  0  0  0  0  0  0
   13.1566  -14.2831   20.7437 O   0  0  0  0  0  0  0  0  0  0  0  0
   12.7661  -15.6154   20.5690 C   0  0  0  0  0  0  0  0  0  0  0  0
   11.2604  -15.6491   20.7288 C   0  0  2  0  0  0  0  0  0  0  0  0
   10.6210  -14.5702   19.9992 N   0  0  0  0  0  0  0  0  0  0  0  0
   10.9727  -15.4419   22.1555 C   0  0  0  0  0  0  0  0  0  0  0  0
   10.3028  -14.4678   22.5316 O   0  0  0  0  0  0  0  0  0  0  0  0
   11.4502  -16.3360   23.0870 O   0  0  0  0  0  0  0  0  0  0  0  0
  2  1  1  1
  2  3  1  0
  4  5  2  0
  4  2  1  0
  7  6  1  1
  7  8  1  0
  8  4  1  0
  9  7  1  0
 10  9  2  0
 11 12  1  0
 13 12  1  1
 13 15  1  0
 13 14  1  0
 14  9  1  0
 15 17  1  0
 16 15  2  0
M  END
$$$$
