AAS.pdb
     RDKit          3D

 17 16  0  0  1  0  0  0  0  0999 V2000
   -4.2963  -24.4120   23.5993 C   0  0  0  0  0  0  0  0  0  0  0  0
   -3.1014  -24.3835   24.5089 C   0  0  2  0  0  0  0  0  0  0  0  0
   -2.4569  -25.6622   24.4699 N   0  0  0  0  0  0  0  0  0  0  0  0
   -3.4518  -23.9647   25.8914 C   0  0  0  0  0  0  0  0  0  0  0  0
   -4.0544  -24.7670   26.6153 O   0  0  0  0  0  0  0  0  0  0  0  0
   -2.8552  -20.8623   28.0266 C   0  0  0  0  0  0  0  0  0  0  0  0
   -3.4652  -22.2034   27.6989 C   0  0  2  0  0  0  0  0  0  0  0  0
   -3.1168  -22.6846   26.3954 N   0  0  0  0  0  0  0  0  0  0  0  0
   -4.9335  -22.0815   27.8935 C   0  0  0  0  0  0  0  0  0  0  0  0
   -5.6076  -21.5020   27.0024 O   0  0  0  0  0  0  0  0  0  0  0  0
   -6.7840  -24.2553   30.7012 O   0  0  0  0  0  0  0  0  0  0  0  0
   -7.6259  -23.8483   29.6603 C   0  0  0  0  0  0  0  0  0  0  0  0
   -7.0799  -22.5297   29.1532 C   0  0  2  0  0  0  0  0  0  0  0  0
   -5.6368  -22.5688   29.0086 N   0  0  0  0  0  0  0  0  0  0  0  0
   -7.3896  -21.5143   30.1702 C   0  0  0  0  0  0  0  0  0  0  0  0
   -8.5593  -21.1507   30.3665 O   0  0  0  0  0  0  0  0  0  0  0  0
   -6.3734  -20.9587   30.9144 O   0  0  0  0  0  0  0  0  0  0  0  0
  2  1  1  6
  2  3  1  0
  4  5  2  0
  4  2  1  0
  7  6  1  6
  7  8  1  0
  8  4  1  0
  9  7  1  0
 10  9  2  0
 11 12  1  0
 13 12  1  1
 13 15  1  0
 13 14  1  0
 14  9  1  0
 15 17  1  0
 16 15  2  0
M  END
$$$$
