AAS.pdb
     RDKit          3D

 17 16  0  0  1  0  0  0  0  0999 V2000
    7.5261  -16.8807   15.7152 C   0  0  0  0  0  0  0  0  0  0  0  0
    8.0569  -15.4829   15.5721 C   0  0  2  0  0  0  0  0  0  0  0  0
    8.9615  -15.4405   14.4622 N   0  0  0  0  0  0  0  0  0  0  0  0
    8.6728  -14.9796   16.8278 C   0  0  0  0  0  0  0  0  0  0  0  0
    9.8646  -15.2330   17.0424 O   0  0  0  0  0  0  0  0  0  0  0  0
    7.5048  -12.8310   19.7538 C   0  0  0  0  0  0  0  0  0  0  0  0
    8.4697  -13.7162   19.0031 C   0  0  2  0  0  0  0  0  0  0  0  0
    7.9378  -14.2254   17.7743 N   0  0  0  0  0  0  0  0  0  0  0  0
    8.8990  -14.7925   19.9338 C   0  0  0  0  0  0  0  0  0  0  0  0
    8.2700  -15.8827   19.9163 O   0  0  0  0  0  0  0  0  0  0  0  0
   12.1402  -16.6070   23.0300 O   0  0  0  0  0  0  0  0  0  0  0  0
   11.7536  -15.4545   22.3370 C   0  0  0  0  0  0  0  0  0  0  0  0
   10.3947  -15.7472   21.7355 C   0  0  2  0  0  0  0  0  0  0  0  0
    9.9656  -14.6869   20.8430 N   0  0  0  0  0  0  0  0  0  0  0  0
    9.4329  -15.7992   22.8460 C   0  0  0  0  0  0  0  0  0  0  0  0
    9.3798  -16.7890   23.5921 O   0  0  0  0  0  0  0  0  0  0  0  0
    8.5805  -14.7403   23.0636 O   0  0  0  0  0  0  0  0  0  0  0  0
  2  1  1  1
  2  3  1  0
  4  5  2  0
  4  2  1  0
  7  6  1  1
  7  8  1  0
  8  4  1  0
  9  7  1  0
 10  9  2  0
 11 12  1  0
 13 12  1  1
 13 15  1  0
 13 14  1  0
 14  9  1  0
 15 17  1  0
 16 15  2  0
M  END
$$$$
