AAS.pdb
     RDKit          3D

 17 16  0  0  1  0  0  0  0  0999 V2000
   12.1753  -18.9367   18.6126 C   0  0  0  0  0  0  0  0  0  0  0  0
   11.7770  -17.4907   18.5328 C   0  0  2  0  0  0  0  0  0  0  0  0
   11.9790  -17.0261   17.1930 N   0  0  0  0  0  0  0  0  0  0  0  0
   12.4818  -16.6528   19.5381 C   0  0  0  0  0  0  0  0  0  0  0  0
   13.5087  -16.0558   19.1919 O   0  0  0  0  0  0  0  0  0  0  0  0
   11.8435  -15.6506   23.1616 C   0  0  0  0  0  0  0  0  0  0  0  0
   12.6335  -15.7175   21.8773 C   0  0  2  0  0  0  0  0  0  0  0  0
   12.0125  -16.5219   20.8676 N   0  0  0  0  0  0  0  0  0  0  0  0
   14.0019  -16.1833   22.2228 C   0  0  0  0  0  0  0  0  0  0  0  0
   14.2155  -17.4227   22.2729 O   0  0  0  0  0  0  0  0  0  0  0  0
   17.0583  -13.5245   22.5497 O   0  0  0  0  0  0  0  0  0  0  0  0
   17.4376  -14.7801   22.0622 C   0  0  0  0  0  0  0  0  0  0  0  0
   16.4628  -15.7824   22.6444 C   0  0  2  0  0  0  0  0  0  0  0  0
   15.0893  -15.3375   22.5013 N   0  0  0  0  0  0  0  0  0  0  0  0
   16.7448  -15.8729   24.0843 C   0  0  0  0  0  0  0  0  0  0  0  0
   17.8438  -16.2813   24.4900 O   0  0  0  0  0  0  0  0  0  0  0  0
   15.7817  -15.5015   24.9952 O   0  0  0  0  0  0  0  0  0  0  0  0
  2  1  1  6
  2  3  1  0
  4  5  2  0
  4  2  1  0
  7  6  1  1
  7  8  1  0
  8  4  1  0
  9  7  1  0
 10  9  2  0
 11 12  1  0
 13 12  1  6
 13 15  1  0
 13 14  1  0
 14  9  1  0
 15 17  1  0
 16 15  2  0
M  END
$$$$
