IHA.pdb
     RDKit          3D

 24 24  0  0  1  0  0  0  0  0999 V2000
   25.8696  -14.4405  -17.4132 C   0  0  0  0  0  0  0  0  0  0  0  0
   26.0358  -12.9377  -17.6806 C   0  0  0  0  0  0  0  0  0  0  0  0
   27.4164  -12.5747  -17.2269 C   0  0  2  0  0  0  0  0  0  0  0  0
   27.6407  -13.0930  -15.8352 C   0  0  0  0  0  0  0  0  0  0  0  0
   27.7388  -11.1113  -17.3416 C   0  0  2  0  0  0  0  0  0  0  0  0
   27.4911  -10.6360  -18.6733 N   0  0  0  0  0  0  0  0  0  0  0  0
   29.1347  -10.7829  -16.9626 C   0  0  0  0  0  0  0  0  0  0  0  0
   29.6019  -11.0678  -15.8309 O   0  0  0  0  0  0  0  0  0  0  0  0
   30.0010  -10.1295  -17.8701 N   0  0  0  0  0  0  0  0  0  0  0  0
   31.3860   -9.8313  -17.6622 C   0  0  1  0  0  0  0  0  0  0  0  0
   32.3100  -10.2384  -18.7668 C   0  0  0  0  0  0  0  0  0  0  0  0
   32.4680  -11.6706  -18.9906 C   0  0  0  0  0  0  0  0  0  0  0  0
   32.2317  -12.7416  -18.1880 C   0  0  0  0  0  0  0  0  0  0  0  0
   32.5679  -13.8433  -18.9065 N   0  0  0  0  0  0  0  0  0  0  0  0
   32.9999  -13.4658  -20.1177 C   0  0  0  0  0  0  0  0  0  0  0  0
   32.9461  -12.1385  -20.1883 N   0  0  0  0  0  0  0  0  0  0  0  0
   31.5674   -8.3434  -17.4091 C   0  0  0  0  0  0  0  0  0  0  0  0
   30.9312   -7.5019  -18.0893 O   0  0  0  0  0  0  0  0  0  0  0  0
   33.5615   -6.3392  -14.9508 C   0  0  0  0  0  0  0  0  0  0  0  0
   32.6811   -6.4392  -16.1946 C   0  0  2  0  0  0  0  0  0  0  0  0
   32.4448   -7.8533  -16.4149 N   0  0  0  0  0  0  0  0  0  0  0  0
   33.2985   -5.7790  -17.3425 C   0  0  0  0  0  0  0  0  0  0  0  0
   33.9200   -6.4375  -18.2082 O   0  0  0  0  0  0  0  0  0  0  0  0
   33.2013   -4.4060  -17.4851 O   0  0  0  0  0  0  0  0  0  0  0  0
  2  3  1  0
  2  1  1  0
  3  4  1  1
  3  5  1  0
  5  6  1  6
  7  5  1  0
  7  9  1  0
  8  7  2  0
 10  9  1  0
 11 12  1  0
 10 11  1  6
 12 16  1  0
 13 12  2  0
 13 14  1  0
 14 15  1  0
 16 15  2  0
 17 10  1  0
 18 17  2  0
 20 21  1  0
 20 19  1  1
 21 17  1  0
 22 20  1  0
 23 22  2  0
 24 22  1  0
M  END
$$$$
