IHA.pdb
     RDKit          3D

 24 24  0  0  1  0  0  0  0  0999 V2000
   30.7746  -21.7690  -10.7943 C   0  0  0  0  0  0  0  0  0  0  0  0
   29.3473  -21.7365  -10.2291 C   0  0  0  0  0  0  0  0  0  0  0  0
   28.4954  -21.0658  -11.2626 C   0  0  2  0  0  0  0  0  0  0  0  0
   29.1323  -19.7696  -11.6750 C   0  0  0  0  0  0  0  0  0  0  0  0
   27.0602  -20.8837  -10.8557 C   0  0  2  0  0  0  0  0  0  0  0  0
   26.4857  -22.1302  -10.4354 N   0  0  0  0  0  0  0  0  0  0  0  0
   26.2139  -20.2965  -11.9229 C   0  0  0  0  0  0  0  0  0  0  0  0
   26.2447  -19.0703  -12.1981 O   0  0  0  0  0  0  0  0  0  0  0  0
   25.3311  -21.1031  -12.6784 N   0  0  0  0  0  0  0  0  0  0  0  0
   24.5294  -20.6818  -13.7876 C   0  0  1  0  0  0  0  0  0  0  0  0
   24.8862  -21.2829  -15.1110 C   0  0  0  0  0  0  0  0  0  0  0  0
   26.1224  -20.8161  -15.7275 C   0  0  0  0  0  0  0  0  0  0  0  0
   26.8165  -19.6554  -15.5929 C   0  0  0  0  0  0  0  0  0  0  0  0
   27.8916  -19.7515  -16.4163 N   0  0  0  0  0  0  0  0  0  0  0  0
   27.8639  -20.9362  -17.0423 C   0  0  0  0  0  0  0  0  0  0  0  0
   26.7876  -21.6026  -16.6335 N   0  0  0  0  0  0  0  0  0  0  0  0
   23.0626  -20.9688  -13.5105 C   0  0  0  0  0  0  0  0  0  0  0  0
   22.7106  -22.0793  -13.0431 O   0  0  0  0  0  0  0  0  0  0  0  0
   19.9515  -18.9053  -13.5485 C   0  0  0  0  0  0  0  0  0  0  0  0
   20.6445  -20.2657  -13.5126 C   0  0  2  0  0  0  0  0  0  0  0  0
   22.0509  -20.0142  -13.7631 N   0  0  0  0  0  0  0  0  0  0  0  0
   20.0518  -21.1943  -14.4725 C   0  0  0  0  0  0  0  0  0  0  0  0
   20.6312  -21.4660  -15.5495 O   0  0  0  0  0  0  0  0  0  0  0  0
   18.8326  -21.7881  -14.1976 O   0  0  0  0  0  0  0  0  0  0  0  0
  2  3  1  0
  2  1  1  0
  3  4  1  1
  3  5  1  0
  5  6  1  6
  7  5  1  0
  7  9  1  0
  8  7  2  0
 10  9  1  0
 11 12  1  0
 10 11  1  6
 12 16  1  0
 13 12  2  0
 13 14  1  0
 14 15  1  0
 16 15  2  0
 17 10  1  0
 18 17  2  0
 20 21  1  0
 20 19  1  6
 21 17  1  0
 22 20  1  0
 23 22  2  0
 24 22  1  0
M  END
$$$$
