IHA.pdb
     RDKit          3D

 24 24  0  0  1  0  0  0  0  0999 V2000
   26.6668  -20.5937  -18.6150 C   0  0  0  0  0  0  0  0  0  0  0  0
   26.8708  -20.3286  -17.1164 C   0  0  0  0  0  0  0  0  0  0  0  0
   25.5688  -20.6454  -16.4470 C   0  0  2  0  0  0  0  0  0  0  0  0
   24.4506  -19.9470  -17.1664 C   0  0  0  0  0  0  0  0  0  0  0  0
   25.5499  -20.3658  -14.9705 C   0  0  2  0  0  0  0  0  0  0  0  0
   26.7044  -20.9280  -14.3288 N   0  0  0  0  0  0  0  0  0  0  0  0
   24.3287  -20.8627  -14.2910 C   0  0  0  0  0  0  0  0  0  0  0  0
   23.4057  -21.4404  -14.9191 O   0  0  0  0  0  0  0  0  0  0  0  0
   24.1555  -20.7029  -12.8963 N   0  0  0  0  0  0  0  0  0  0  0  0
   23.0162  -21.1041  -12.1272 C   0  0  1  0  0  0  0  0  0  0  0  0
   23.1724  -21.0144  -10.6414 C   0  0  0  0  0  0  0  0  0  0  0  0
   22.0503  -21.4848   -9.8379 C   0  0  0  0  0  0  0  0  0  0  0  0
   20.8592  -22.0386  -10.1866 C   0  0  0  0  0  0  0  0  0  0  0  0
   20.1895  -22.2731   -9.0292 N   0  0  0  0  0  0  0  0  0  0  0  0
   20.9434  -21.8761   -7.9947 C   0  0  0  0  0  0  0  0  0  0  0  0
   22.0870  -21.3903   -8.4698 N   0  0  0  0  0  0  0  0  0  0  0  0
   21.7995  -20.2875  -12.5316 C   0  0  0  0  0  0  0  0  0  0  0  0
   21.8283  -19.0340  -12.4721 O   0  0  0  0  0  0  0  0  0  0  0  0
   19.3853  -20.3321  -14.9528 C   0  0  0  0  0  0  0  0  0  0  0  0
   19.4557  -20.1370  -13.4398 C   0  0  2  0  0  0  0  0  0  0  0  0
   20.6054  -20.8945  -12.9836 N   0  0  0  0  0  0  0  0  0  0  0  0
   18.2117  -20.5418  -12.7891 C   0  0  0  0  0  0  0  0  0  0  0  0
   18.1252  -21.6372  -12.1872 O   0  0  0  0  0  0  0  0  0  0  0  0
   17.1065  -19.7103  -12.8321 O   0  0  0  0  0  0  0  0  0  0  0  0
  2  3  1  0
  2  1  1  0
  3  4  1  6
  3  5  1  0
  5  6  1  1
  7  5  1  0
  7  9  1  0
  8  7  2  0
 10  9  1  0
 11 12  1  0
 10 11  1  1
 12 16  1  0
 13 12  2  0
 13 14  1  0
 14 15  1  0
 16 15  2  0
 17 10  1  0
 18 17  2  0
 20 21  1  0
 20 19  1  6
 21 17  1  0
 22 20  1  0
 23 22  2  0
 24 22  1  0
M  END
$$$$
