IHA.pdb
     RDKit          3D

 24 24  0  0  1  0  0  0  0  0999 V2000
   18.8579  -13.4296    2.4094 C   0  0  0  0  0  0  0  0  0  0  0  0
   18.8939  -12.4255    3.5704 C   0  0  0  0  0  0  0  0  0  0  0  0
   18.4161  -13.1612    4.7845 C   0  0  2  0  0  0  0  0  0  0  0  0
   17.0831  -13.7913    4.4983 C   0  0  0  0  0  0  0  0  0  0  0  0
   18.3897  -12.3323    6.0378 C   0  0  2  0  0  0  0  0  0  0  0  0
   19.6282  -11.6275    6.2108 N   0  0  0  0  0  0  0  0  0  0  0  0
   18.1071  -13.1212    7.2616 C   0  0  0  0  0  0  0  0  0  0  0  0
   16.9552  -13.1860    7.7608 O   0  0  0  0  0  0  0  0  0  0  0  0
   19.1343  -13.8373    7.9196 N   0  0  0  0  0  0  0  0  0  0  0  0
   18.9806  -14.7040    9.0491 C   0  0  1  0  0  0  0  0  0  0  0  0
   18.9369  -16.1681    8.7419 C   0  0  0  0  0  0  0  0  0  0  0  0
   17.6805  -16.6866    8.2140 C   0  0  0  0  0  0  0  0  0  0  0  0
   16.4887  -16.0835    7.9634 C   0  0  0  0  0  0  0  0  0  0  0  0
   15.6606  -17.0486    7.4882 N   0  0  0  0  0  0  0  0  0  0  0  0
   16.3200  -18.2147    7.4460 C   0  0  0  0  0  0  0  0  0  0  0  0
   17.5588  -18.0133    7.8868 N   0  0  0  0  0  0  0  0  0  0  0  0
   20.0961  -14.4575   10.0519 C   0  0  0  0  0  0  0  0  0  0  0  0
   21.2533  -14.1740    9.6568 O   0  0  0  0  0  0  0  0  0  0  0  0
   20.8922  -12.8516   12.7976 C   0  0  0  0  0  0  0  0  0  0  0  0
   20.9345  -14.3315   12.4230 C   0  0  2  0  0  0  0  0  0  0  0  0
   19.8812  -14.5358   11.4470 N   0  0  0  0  0  0  0  0  0  0  0  0
   20.7946  -15.1862   13.5998 C   0  0  0  0  0  0  0  0  0  0  0  0
   19.7676  -15.8823   13.7732 O   0  0  0  0  0  0  0  0  0  0  0  0
   21.8058  -15.2349   14.5431 O   0  0  0  0  0  0  0  0  0  0  0  0
  2  3  1  0
  2  1  1  0
  3  4  1  6
  3  5  1  0
  5  6  1  1
  7  5  1  0
  7  9  1  0
  8  7  2  0
 10  9  1  0
 11 12  1  0
 10 11  1  6
 12 16  1  0
 13 12  2  0
 13 14  1  0
 14 15  1  0
 16 15  2  0
 17 10  1  0
 18 17  2  0
 20 21  1  0
 20 19  1  1
 21 17  1  0
 22 20  1  0
 23 22  2  0
 24 22  1  0
M  END
$$$$
