IHA.pdb
     RDKit          3D

 24 24  0  0  1  0  0  0  0  0999 V2000
   23.3524  -26.6777  -16.6244 C   0  0  0  0  0  0  0  0  0  0  0  0
   22.1528  -25.7474  -16.3939 C   0  0  0  0  0  0  0  0  0  0  0  0
   21.5027  -26.1983  -15.1220 C   0  0  2  0  0  0  0  0  0  0  0  0
   21.1346  -27.6502  -15.2329 C   0  0  0  0  0  0  0  0  0  0  0  0
   20.3370  -25.3531  -14.6915 C   0  0  2  0  0  0  0  0  0  0  0  0
   20.7407  -23.9907  -14.4880 N   0  0  0  0  0  0  0  0  0  0  0  0
   19.6702  -25.8488  -13.4628 C   0  0  0  0  0  0  0  0  0  0  0  0
   19.1617  -26.9966  -13.3979 O   0  0  0  0  0  0  0  0  0  0  0  0
   19.5806  -25.0394  -12.3062 N   0  0  0  0  0  0  0  0  0  0  0  0
   18.9583  -25.3914  -11.0654 C   0  0  1  0  0  0  0  0  0  0  0  0
   19.3752  -24.5813   -9.8780 C   0  0  0  0  0  0  0  0  0  0  0  0
   18.7015  -24.8753   -8.6187 C   0  0  0  0  0  0  0  0  0  0  0  0
   17.7006  -25.7415   -8.3106 C   0  0  0  0  0  0  0  0  0  0  0  0
   17.4549  -25.5906   -6.9841 N   0  0  0  0  0  0  0  0  0  0  0  0
   18.2789  -24.6585   -6.4856 C   0  0  0  0  0  0  0  0  0  0  0  0
   19.0501  -24.2085   -7.4717 N   0  0  0  0  0  0  0  0  0  0  0  0
   17.4463  -25.3063  -11.1970 C   0  0  0  0  0  0  0  0  0  0  0  0
   16.9092  -24.2882  -11.6978 O   0  0  0  0  0  0  0  0  0  0  0  0
   14.7085  -27.7763  -11.0676 C   0  0  0  0  0  0  0  0  0  0  0  0
   15.1563  -26.3218  -10.9405 C   0  0  2  0  0  0  0  0  0  0  0  0
   16.5962  -26.3515  -10.7687 N   0  0  0  0  0  0  0  0  0  0  0  0
   14.4657  -25.6423   -9.8469 C   0  0  0  0  0  0  0  0  0  0  0  0
   15.0559  -25.3846   -8.7723 O   0  0  0  0  0  0  0  0  0  0  0  0
   13.1397  -25.2734   -9.9897 O   0  0  0  0  0  0  0  0  0  0  0  0
  2  3  1  0
  2  1  1  0
  3  4  1  6
  3  5  1  0
  5  6  1  1
  7  5  1  0
  7  9  1  0
  8  7  2  0
 10  9  1  0
 11 12  1  0
 10 11  1  1
 12 16  1  0
 13 12  2  0
 13 14  1  0
 14 15  1  0
 16 15  2  0
 17 10  1  0
 18 17  2  0
 20 21  1  0
 20 19  1  1
 21 17  1  0
 22 20  1  0
 23 22  2  0
 24 22  1  0
M  END
$$$$
