IHA.pdb
     RDKit          3D

 24 24  0  0  1  0  0  0  0  0999 V2000
   24.1916  -17.4620  -16.8223 C   0  0  0  0  0  0  0  0  0  0  0  0
   24.7230  -16.2155  -16.1001 C   0  0  0  0  0  0  0  0  0  0  0  0
   25.6157  -15.5082  -17.0728 C   0  0  2  0  0  0  0  0  0  0  0  0
   26.6370  -16.4701  -17.6092 C   0  0  0  0  0  0  0  0  0  0  0  0
   26.2496  -14.2575  -16.5318 C   0  0  2  0  0  0  0  0  0  0  0  0
   25.2511  -13.3443  -16.0525 N   0  0  0  0  0  0  0  0  0  0  0  0
   27.1114  -13.5589  -17.5164 C   0  0  0  0  0  0  0  0  0  0  0  0
   28.1382  -14.0970  -18.0024 O   0  0  0  0  0  0  0  0  0  0  0  0
   26.8066  -12.2472  -17.9491 N   0  0  0  0  0  0  0  0  0  0  0  0
   27.5158  -11.4883  -18.9349 C   0  0  1  0  0  0  0  0  0  0  0  0
   26.6836  -10.9325  -20.0478 C   0  0  0  0  0  0  0  0  0  0  0  0
   26.1950  -11.8867  -21.0362 C   0  0  0  0  0  0  0  0  0  0  0  0
   26.6901  -13.0781  -21.4632 C   0  0  0  0  0  0  0  0  0  0  0  0
   25.8325  -13.5344  -22.4115 N   0  0  0  0  0  0  0  0  0  0  0  0
   24.8362  -12.6516  -22.5674 C   0  0  0  0  0  0  0  0  0  0  0  0
   25.0406  -11.6354  -21.7336 N   0  0  0  0  0  0  0  0  0  0  0  0
   28.2606  -10.3401  -18.2736 C   0  0  0  0  0  0  0  0  0  0  0  0
   27.6562   -9.5474  -17.5107 O   0  0  0  0  0  0  0  0  0  0  0  0
   31.8454   -9.4780  -17.8454 C   0  0  0  0  0  0  0  0  0  0  0  0
   30.3798   -9.0488  -17.8457 C   0  0  2  0  0  0  0  0  0  0  0  0
   29.6409  -10.1202  -18.4860 N   0  0  0  0  0  0  0  0  0  0  0  0
   30.1996   -7.7582  -18.5064 C   0  0  0  0  0  0  0  0  0  0  0  0
   29.7971   -7.6903  -19.6909 O   0  0  0  0  0  0  0  0  0  0  0  0
   30.4749   -6.5871  -17.8227 O   0  0  0  0  0  0  0  0  0  0  0  0
  2  3  1  0
  2  1  1  0
  3  4  1  1
  3  5  1  0
  5  6  1  6
  7  5  1  0
  7  9  1  0
  8  7  2  0
 10  9  1  0
 11 12  1  0
 10 11  1  6
 12 16  1  0
 13 12  2  0
 13 14  1  0
 14 15  1  0
 16 15  2  0
 17 10  1  0
 18 17  2  0
 20 21  1  0
 20 19  1  6
 21 17  1  0
 22 20  1  0
 23 22  2  0
 24 22  1  0
M  END
$$$$
